AV-unprocessed.smi:649|AV-procd|sdf|3181|dock6
  -GOLD-   22720 0103D 1   1.00000     0.00000
 Structure written by MMmdl.
 34 35  0  0  0  0  0  0  0  0  2 V2000
  154.5010  140.9894  161.1309 C   0  0  0  0  0  0  0  0  0  0  0  0
  153.4171  141.9961  160.8067 C   0  0  0  0  0  0  0  0  0  0  0  0
  153.0033  142.9330  161.7707 C   0  0  0  0  0  0  0  0  0  0  0  0
  152.0079  143.8737  161.4519 C   0  0  0  0  0  0  0  0  0  0  0  0
  151.4164  143.8965  160.1701 C   0  0  0  0  0  0  0  0  0  0  0  0
  150.3589  144.9538  159.8960 C   0  0  0  0  0  0  0  0  0  0  0  0
  151.8277  142.9479  159.1912 C   0  0  0  0  0  0  0  0  0  0  0  0
  151.2764  142.9086  157.7610 C   0  0  1  0  0  0  0  0  0  0  0  0
  151.2315  144.1744  157.1354 O   0  0  0  0  0  0  0  0  0  0  0  0
  151.9937  141.8960  156.8351 C   0  0  0  0  0  0  0  0  0  0  0  0
  151.0547  141.0907  156.0381 N   0  0  0  0  0  0  0  0  0  0  0  0
  149.8608  141.7006  155.6146 C   0  0  0  0  0  0  0  0  0  0  0  0
  148.9617  141.0556  154.8470 C   0  0  0  0  0  0  0  0  0  0  0  0
  147.5115  141.8374  154.3273 Cl  0  0  0  0  0  0  0  0  0  0  0  0
  149.2538  139.6769  154.4601 C   0  0  0  0  0  0  0  0  0  0  0  0
  148.4535  139.0579  153.7603 O   0  0  0  0  0  0  0  0  0  0  0  0
  150.4239  139.1287  154.9013 N   0  5  0  0  0  0  0  0  0  0  0  0
  151.3295  139.8032  155.6749 C   0  0  0  0  0  0  0  0  0  0  0  0
  152.3858  139.2930  156.0486 O   0  0  0  0  0  0  0  0  0  0  0  0
  152.8266  142.0065  159.5292 C   0  0  0  0  0  0  0  0  0  0  0  0
  154.6197  140.8713  162.2083 H   0  0  0  0  0  0  0  0  0  0  0  0
  155.4533  141.3175  160.7136 H   0  0  0  0  0  0  0  0  0  0  0  0
  154.2583  140.0143  160.7079 H   0  0  0  0  0  0  0  0  0  0  0  0
  153.4495  142.9376  162.7543 H   0  0  0  0  0  0  0  0  0  0  0  0
  151.7038  144.5882  162.2026 H   0  0  0  0  0  0  0  0  0  0  0  0
  149.3719  144.4981  159.8209 H   0  0  0  0  0  0  0  0  0  0  0  0
  150.5668  145.4961  158.9761 H   0  0  0  0  0  0  0  0  0  0  0  0
  150.3202  145.6891  160.7000 H   0  0  0  0  0  0  0  0  0  0  0  0
  150.2327  142.5994  157.8286 H   0  0  0  0  0  0  0  0  0  0  0  0
  150.5343  144.1650  156.4979 H   0  0  0  0  0  0  0  0  0  0  0  0
  152.6910  142.4209  156.1799 H   0  0  0  0  0  0  0  0  0  0  0  0
  152.6240  141.2301  157.4228 H   0  0  0  0  0  0  0  0  0  0  0  0
  149.7294  142.7234  155.9361 H   0  0  0  0  0  0  0  0  0  0  0  0
  153.1612  141.2911  158.7915 H   0  0  0  0  0  0  0  0  0  0  0  0
  1  2  1  0  0  0  0
  1 21  1  0  0  0  0
  1 22  1  0  0  0  0
  1 23  1  0  0  0  0
  2 20  1  0  0  0  0
  2  3  2  0  0  0  0
  3  4  1  0  0  0  0
  3 24  1  0  0  0  0
  4  5  2  0  0  0  0
  4 25  1  0  0  0  0
  5  6  1  0  0  0  0
  5  7  1  0  0  0  0
  6 26  1  0  0  0  0
  6 27  1  0  0  0  0
  6 28  1  0  0  0  0
  7  8  1  0  0  0  0
  7 20  2  0  0  0  0
  8  9  1  0  0  0  0
  8 10  1  0  0  0  0
  8 29  1  0  0  0  0
  9 30  1  0  0  0  0
 10 11  1  0  0  0  0
 10 31  1  0  0  0  0
 10 32  1  0  0  0  0
 11 18  1  0  0  0  0
 11 12  1  0  0  0  0
 12 13  2  0  0  0  0
 12 33  1  0  0  0  0
 13 14  1  0  0  0  0
 13 15  1  0  0  0  0
 15 16  2  0  0  0  0
 15 17  1  0  0  0  0
 17 18  1  0  0  0  0
 18 19  2  0  0  0  0
 20 34  1  0  0  0  0
M  CHG  1  17  -1
M  END
> <s_m_source_file>
AV-unprocessed.smi

> <i_m_source_file_index>
649

> <i_lp_mmshare_version>
43012

> <i_f3d_flags>
0

> <s_epik_input>
W0NIM11jMVtjSF1bY0hdYyhbQ0gzXSljKFtjSF0xKVtDQEhdKFtPSF0pW0NIMl1uMltjSF1jKENsKWMoPU8pW25IXWMyPU8=

> <s_epik_cmdline>
J2VwaWtfcHl0aG9uJywgJy1waCcsICc3LjAnLCAnLXRuJywgJzgnLCAnLW1hJywgJzIwMCcsICctbWV0YWxfYmluZGluZycsICctaW1hZScsICc8aW5maWxlLm1hZT4nLCAnLW9tYWUnLCAnPG91dGZpbGUubWFlPic=

> <r_epik_Ionization_Penalty>
1.7979

> <r_epik_Ionization_Penalty_Charging>
3.23819e-08

> <r_epik_Ionization_Penalty_Neutral>
1.7979

> <r_epik_State_Penalty>
1.91135

> <r_epik_Charging_Adjusted_Penalty>
1.91135

> <i_epik_Tot_Q>
-1

> <i_epik_Tot_abs_Q>
1

> <r_epik_Metal_State_Penalty>
0.014155

> <b_epik_Metal_Only>
0

> <s_lp_Force_Field>
OPLS_2005

> <r_lp_Energy>
20.3663

> <b_lp_Chiralities_Consistent>
1

> <s_lp_Variant>
AV-unprocessed.smi:649-4

> <Gold.Version>
5.8.1

> <Gold.Id.Protein>
6NUR|6NUR_protein|mol2

> <Gold.PLP.Fitness>
51.5443

> <Gold.PLP.PLP>
-44.7876

> <Gold.PLP.part.hbond>
-2.0000

> <Gold.PLP.part.metal>
0.0000

> <Gold.PLP.part.buried>
-6.6102

> <Gold.PLP.part.nonpolar>
-36.8077

> <Gold.PLP.part.repulsive>
1.6879

> <Gold.PLP.ligand.clash>
0.0588

> <Gold.PLP.ligand.torsion>
1.1164

> <Gold.PLP.Chemscore.Hbond>
1.9913

> <Gold.PLP.Chemscore.CHOScore>
1.0000

> <Gold.PLP.Chemscore.Metal>
0.0000

> <Gold.Chemscore.Hbonds>
donor molecule, donor type, donor heavy atom, donor atom, acceptor molecule, acceptor atom, score
      L1  H     9    30       P1  8028  1.00
      P1  H  7997  8010       L1    19  0.65
      L1  C    12    33       P1  8028  1.00

> <Gold.PLP.Chemscore.Internal.Correction>
0.0745

> <Gold.Rescore>
     Score         DG    S(hbond)    S(metal)    S(lipo)     H(rot)  DE(clash)    DE(int)     intcor
     17.35     -20.98       1.98        0.00     121.61       2.09       1.71       1.92       ----

> <Gold.Chemscore.Fitness>
17.3477

> <Gold.Chemscore.DG>
-20.9809

> <Gold.Chemscore.ZeroCoef>
-5.4800

> <Gold.Chemscore.Hbond>
1.9804

> <Gold.Chemscore.Metal>
0.0000

> <Gold.Chemscore.Lipo>
121.6111

> <Gold.Chemscore.Internal_Hbond>
0.0000

> <Gold.Chemscore.DEClash>
1.7105

> <Gold.Chemscore.DEInternal>
1.9227

> <Gold.Chemscore.Rot>
2.0868

> <Gold.Chemscore.Internal.Correction>
   9.000000E+99

> <Gold.Chemscore.Hbonds>
donor molecule, donor type, donor heavy atom, donor atom, acceptor molecule, acceptor atom, score
      L1  H     9    30       P1  8028  0.98
      P1  H  7997  8010       L1    19  0.65

> <Gold.Chemscore.Hbond.Weighted>
-6.6147

> <Gold.Chemscore.Metal.Weighted>
-0.0000

> <Gold.Chemscore.Lipo.Weighted>
-14.2285

> <Gold.Chemscore.Internal_Hbond.Weighted>
0.0000

> <Gold.Chemscore.DEClash.Weighted>
1.7105

> <Gold.Chemscore.DEInternal.Weighted>
1.9227

> <Gold.Chemscore.Rot.Weighted>
5.3423

> <Gold.Chemscore.Internal.Correction.Weighted>
   9.000000E+99

> <Gold.Protein.RotatedTorsions>
[ 6907 6896 6895 6894 ] final -137.74 input  -60.11 | X-H torsion
[ 7974 7965 7964 7962 ] final   84.40 input  175.53 | X-H torsion
[ 8008 7997 7996 7995 ] final   66.26 input   59.86 | X-H torsion
[ 10167 10162 10161 10158 ] final   73.80 input  -65.29 | X-H torsion
[ 10718 10713 10712 10709 ] final   14.51 input   66.30 | X-H torsion
[ 10763 10752 10751 10750 ] final  139.84 input  -60.55 | X-H torsion
[ 11005 11000 10999 10996 ] final  102.46 input  -57.11 | X-H torsion

> <Gold.Protein.ActiveResidues>
 VAL166  LYS551  ARG553  GLY616  TRP617  ASP618  TYR619  PRO620  LYS621  CYS622 
 ASP623  PHE694  ASN695  SER759  ASP760  ASP761  ALA762  ILE779  LEU786  VAL792 
 PHE793  MET794  SER795  GLU796  ALA797  LYS798  CYS799  TRP800  GLU811  SER814 

> <Gold.Protein.RotatedAtoms>
  151.0263  133.5831  159.2665 H   0  0  0  0  0  0  0  0  0  0  0  0  # atno 6907 bound_to 6896
  151.2929  135.0746  159.9220 H   0  0  0  0  0  0  0  0  0  0  0  0  # atno 6908 bound_to 6896
  152.5334  133.9958  159.7926 H   0  0  0  0  0  0  0  0  0  0  0  0  # atno 6909 bound_to 6896
  145.5993  139.2350  143.2255 H   0  0  0  0  0  0  0  0  0  0  0  0  # atno 7974 bound_to 7965
  155.6746  140.3497  155.4831 H   0  0  0  0  0  0  0  0  0  0  0  0  # atno 8008 bound_to 7997
  155.9659  140.1146  157.0878 H   0  0  0  0  0  0  0  0  0  0  0  0  # atno 8009 bound_to 7997
  154.4154  140.1166  156.5227 H   0  0  0  0  0  0  0  0  0  0  0  0  # atno 8010 bound_to 7997
  140.0205  144.5544  150.7585 H   0  0  0  0  0  0  0  0  0  0  0  0  # atno 10167 bound_to 10162
  157.0401  130.6228  149.5749 H   0  0  0  0  0  0  0  0  0  0  0  0  # atno 10718 bound_to 10713
  153.9128  135.3009  155.3448 H   0  0  0  0  0  0  0  0  0  0  0  0  # atno 10763 bound_to 10752
  154.7614  135.4932  153.9475 H   0  0  0  0  0  0  0  0  0  0  0  0  # atno 10764 bound_to 10752
  153.1183  135.6776  153.9481 H   0  0  0  0  0  0  0  0  0  0  0  0  # atno 10765 bound_to 10752
  139.8778  134.9225  156.5061 H   0  0  0  0  0  0  0  0  0  0  0  0  # atno 11005 bound_to 11000
  146.1588  140.6818  142.9287 LP  0  0  0  0  0  0  0  0  0  0  0  0  # atno 17320 bound_to 7965
  144.7317  140.4691  143.6933 LP  0  0  0  0  0  0  0  0  0  0  0  0  # atno 17321 bound_to 7965
  140.7344  143.2729  151.3833 LP  0  0  0  0  0  0  0  0  0  0  0  0  # atno 17342 bound_to 10162
  139.6143  144.1035  152.2330 LP  0  0  0  0  0  0  0  0  0  0  0  0  # atno 17343 bound_to 10162
  156.0041  130.5125  150.7767 LP  0  0  0  0  0  0  0  0  0  0  0  0  # atno 17370 bound_to 10713
  157.5111  131.0925  151.0197 LP  0  0  0  0  0  0  0  0  0  0  0  0  # atno 17371 bound_to 10713
  140.8554  133.8100  155.9211 LP  0  0  0  0  0  0  0  0  0  0  0  0  # atno 17394 bound_to 11000
  140.9103  134.2269  157.4990 LP  0  0  0  0  0  0  0  0  0  0  0  0  # atno 17395 bound_to 11000

$$$$
