AV-unprocessed.smi:158|AV-procd|sdf|1324|dock6
  -GOLD-   2262019 23D 1   1.00000     0.00000
 Structure written by MMmdl.
 31 33  0  0  0  0  0  0  0  0  1 V2000
  150.9644  142.7335  156.2435 N   0  0  0  0  0  0  0  0  0  0  0  0
  150.7513  141.5521  155.6470 C   0  0  0  0  0  0  0  0  0  0  0  0
  151.7151  140.6055  155.7295 N   0  0  0  0  0  0  0  0  0  0  0  0
  151.5416  139.4123  155.1479 C   0  0  0  0  0  0  0  0  0  0  0  0
  152.8322  138.2814  155.3148 Cl  0  0  0  0  0  0  0  0  0  0  0  0
  150.4779  138.9961  154.4528 N   0  0  0  0  0  0  0  0  0  0  0  0
  149.5036  139.9471  154.3667 C   0  0  0  0  0  0  0  0  0  0  0  0
  149.5652  141.2475  154.9352 C   0  0  0  0  0  0  0  0  0  0  0  0
  148.4000  141.9452  154.6492 N   0  0  0  0  0  0  0  0  0  0  0  0
  147.6920  141.0991  153.9494 C   0  0  0  0  0  0  0  0  0  0  0  0
  148.2770  139.8695  153.7377 N   0  0  0  0  0  0  0  0  0  0  0  0
  147.7154  138.7144  152.9714 C   0  0  1  0  0  0  0  0  0  0  0  0
  147.4964  137.6530  153.8519 O   0  0  0  0  0  0  0  0  0  0  0  0
  146.1182  137.2825  153.8632 C   0  0  2  0  0  0  0  0  0  0  0  0
  145.9891  135.7620  154.0440 C   0  0  0  0  0  0  0  0  0  0  0  0
  146.5966  135.0896  152.9618 O   0  0  0  0  0  0  0  0  0  0  0  0
  145.5992  137.7777  152.5097 C   0  0  1  0  0  0  0  0  0  0  0  0
  144.2079  138.0245  152.5440 O   0  0  0  0  0  0  0  0  0  0  0  0
  146.3747  139.0666  152.3219 C   0  0  2  0  0  0  0  0  0  0  0  0
  146.5524  139.3556  151.0324 F   0  0  0  0  0  0  0  0  0  0  0  0
  148.4889  138.4400  152.2527 H   0  0  0  0  0  0  0  0  0  0  0  0
  145.6088  137.8154  154.6676 H   0  0  0  0  0  0  0  0  0  0  0  0
  145.8447  137.0667  151.7192 H   0  0  0  0  0  0  0  0  0  0  0  0
  145.9027  139.9135  152.8217 H   0  0  0  0  0  0  0  0  0  0  0  0
  150.2593  143.4551  156.1958 H   0  0  0  0  0  0  0  0  0  0  0  0
  151.8293  142.9009  156.7371 H   0  0  0  0  0  0  0  0  0  0  0  0
  146.7132  141.3509  153.5674 H   0  0  0  0  0  0  0  0  0  0  0  0
  146.5040  135.4476  154.9525 H   0  0  0  0  0  0  0  0  0  0  0  0
  144.9459  135.4610  154.1427 H   0  0  0  0  0  0  0  0  0  0  0  0
  147.4419  135.4801  152.8013 H   0  0  0  0  0  0  0  0  0  0  0  0
  143.9352  138.3279  151.6913 H   0  0  0  0  0  0  0  0  0  0  0  0
  1  2  1  0  0  0  0
  1 25  1  0  0  0  0
  1 26  1  0  0  0  0
  2  8  1  0  0  0  0
  2  3  2  0  0  0  0
  3  4  1  0  0  0  0
  4  5  1  0  0  0  0
  4  6  2  0  0  0  0
  6  7  1  0  0  0  0
  7 11  1  0  0  0  0
  7  8  2  0  0  0  0
  8  9  1  0  0  0  0
  9 10  2  0  0  0  0
 10 11  1  0  0  0  0
 10 27  1  0  0  0  0
 11 12  1  0  0  0  0
 12 21  1  0  0  0  0
 12 19  1  0  0  0  0
 12 13  1  0  0  0  0
 13 14  1  0  0  0  0
 14 22  1  0  0  0  0
 14 15  1  0  0  0  0
 14 17  1  0  0  0  0
 15 16  1  0  0  0  0
 15 28  1  0  0  0  0
 15 29  1  0  0  0  0
 16 30  1  0  0  0  0
 17 23  1  0  0  0  0
 17 18  1  0  0  0  0
 17 19  1  0  0  0  0
 18 31  1  0  0  0  0
 19 24  1  0  0  0  0
 19 20  1  0  0  0  0
M  END
> <s_m_source_file>
AV-unprocessed.smi

> <i_m_source_file_index>
158

> <i_lp_mmshare_version>
43012

> <i_f3d_flags>
0

> <s_epik_input>
Q2xjKG4xKW5jKFtOSDJdKWMoYzEyKW5bY0hdbjJbQ0BASF0zT1tDQEhdKFtDSDJdW09IXSlbQ0BASF0oW09IXSlbQ0BASF0zRg==

> <s_epik_cmdline>
J2VwaWtfcHl0aG9uJywgJy1waCcsICc3LjAnLCAnLXRuJywgJzgnLCAnLW1hJywgJzIwMCcsICctbWV0YWxfYmluZGluZycsICctaW1hZScsICc8aW5maWxlLm1hZT4nLCAnLW9tYWUnLCAnPG91dGZpbGUubWFlPic=

> <r_lp_tautomer_probability>
1

> <r_epik_Ionization_Penalty>
6.51543e-05

> <r_epik_Ionization_Penalty_Charging>
0

> <r_epik_Ionization_Penalty_Neutral>
6.51543e-05

> <r_epik_State_Penalty>
-0

> <r_epik_Charging_Adjusted_Penalty>
0

> <i_epik_Tot_Q>
0

> <i_epik_Tot_abs_Q>
0

> <r_epik_Metal_State_Penalty>
-0

> <b_epik_Metal_Only>
0

> <s_epik_Chemistry_Notes>
This compound contains an acetal/aminal-like group ( X-CH(R)-Y where X, Y are N, S, or O) that may be acid/base labile, releasing an aldehyde.

> <s_lp_Force_Field>
OPLS_2005

> <r_lp_Energy>
33.0982

> <b_lp_Chiralities_Consistent>
1

> <s_lp_Variant>
AV-unprocessed.smi:158-2

> <Gold.Version>
5.8.1

> <Gold.Id.Protein>
6NUR|6NUR_protein|mol2

> <Gold.PLP.Fitness>
36.7093

> <Gold.PLP.PLP>
-27.8275

> <Gold.PLP.part.hbond>
-4.1502

> <Gold.PLP.part.metal>
0.0000

> <Gold.PLP.part.buried>
3.6157

> <Gold.PLP.part.nonpolar>
-28.6615

> <Gold.PLP.part.repulsive>
3.0158

> <Gold.PLP.ligand.clash>
0.0000

> <Gold.PLP.ligand.torsion>
0.0635

> <Gold.PLP.Chemscore.Hbond>
3.0000

> <Gold.PLP.Chemscore.CHOScore>
0.0000

> <Gold.PLP.Chemscore.Metal>
0.0000

> <Gold.Chemscore.Hbonds>
donor molecule, donor type, donor heavy atom, donor atom, acceptor molecule, acceptor atom, score
      L1  H     1    25       P1  8028  1.00
      L1  H    16    30       P1  7948  1.00
      L1  H    18    31       P1 10171  1.00

> <Gold.PLP.Chemscore.Internal.Correction>
0.0087

> <Gold.Rescore>
     Score         DG    S(hbond)    S(metal)    S(lipo)     H(rot)  DE(clash)    DE(int)     intcor
      7.70     -11.18       2.98        0.00      31.94       3.12       3.35       0.12       ----

> <Gold.Chemscore.Fitness>
7.6982

> <Gold.Chemscore.DG>
-11.1752

> <Gold.Chemscore.ZeroCoef>
-5.4800

> <Gold.Chemscore.Hbond>
2.9800

> <Gold.Chemscore.Metal>
0.0000

> <Gold.Chemscore.Lipo>
31.9394

> <Gold.Chemscore.Internal_Hbond>
0.0000

> <Gold.Chemscore.DEClash>
3.3532

> <Gold.Chemscore.DEInternal>
0.1239

> <Gold.Chemscore.Rot>
3.1230

> <Gold.Chemscore.Internal.Correction>
   9.000000E+99

> <Gold.Chemscore.Hbonds>
donor molecule, donor type, donor heavy atom, donor atom, acceptor molecule, acceptor atom, score
      L1  H     1    25       P1  8028  0.99
      L1  H    16    30       P1  7948  0.99
      L1  H    18    31       P1 10171  0.98

> <Gold.Chemscore.Hbond.Weighted>
-9.9533

> <Gold.Chemscore.Metal.Weighted>
-0.0000

> <Gold.Chemscore.Lipo.Weighted>
-3.7369

> <Gold.Chemscore.Internal_Hbond.Weighted>
0.0000

> <Gold.Chemscore.DEClash.Weighted>
3.3532

> <Gold.Chemscore.DEInternal.Weighted>
0.1239

> <Gold.Chemscore.Rot.Weighted>
7.9950

> <Gold.Chemscore.Internal.Correction.Weighted>
   9.000000E+99

> <Gold.Protein.RotatedTorsions>
[ 6907 6896 6895 6894 ] final  -17.57 input  -60.11 | X-H torsion
[ 7974 7965 7964 7962 ] final  -59.68 input  175.53 | X-H torsion
[ 8008 7997 7996 7995 ] final   91.05 input   59.86 | X-H torsion
[ 10167 10162 10161 10158 ] final   45.49 input  -65.29 | X-H torsion
[ 10718 10713 10712 10709 ] final  -11.30 input   66.30 | X-H torsion
[ 10763 10752 10751 10750 ] final  -18.31 input  -60.55 | X-H torsion
[ 11005 11000 10999 10996 ] final  143.21 input  -57.11 | X-H torsion

> <Gold.Protein.ActiveResidues>
 VAL166  LYS551  ARG553  GLY616  TRP617  ASP618  TYR619  PRO620  LYS621  CYS622 
 ASP623  PHE694  ASN695  SER759  ASP760  ASP761  ALA762  ILE779  LEU786  VAL792 
 PHE793  MET794  SER795  GLU796  ALA797  LYS798  CYS799  TRP800  GLU811  SER814 

> <Gold.Protein.RotatedAtoms>
  151.2914  135.0743  159.9205 H   0  0  0  0  0  0  0  0  0  0  0  0  # atno 6907 bound_to 6896
  152.5316  133.9928  159.7869 H   0  0  0  0  0  0  0  0  0  0  0  0  # atno 6908 bound_to 6896
  151.0199  133.5835  159.2703 H   0  0  0  0  0  0  0  0  0  0  0  0  # atno 6909 bound_to 6896
  145.8245  140.8519  143.0115 H   0  0  0  0  0  0  0  0  0  0  0  0  # atno 7974 bound_to 7965
  156.0192  140.3342  155.7021 H   0  0  0  0  0  0  0  0  0  0  0  0  # atno 8008 bound_to 7997
  155.6047  140.0659  157.2741 H   0  0  0  0  0  0  0  0  0  0  0  0  # atno 8009 bound_to 7997
  154.4310  140.1804  156.1197 H   0  0  0  0  0  0  0  0  0  0  0  0  # atno 8010 bound_to 7997
  140.3236  144.2675  150.6179 H   0  0  0  0  0  0  0  0  0  0  0  0  # atno 10167 bound_to 10162
  156.6610  130.4982  149.6030 H   0  0  0  0  0  0  0  0  0  0  0  0  # atno 10718 bound_to 10713
  153.5873  135.7003  153.5438 H   0  0  0  0  0  0  0  0  0  0  0  0  # atno 10763 bound_to 10752
  153.3209  135.4074  155.1415 H   0  0  0  0  0  0  0  0  0  0  0  0  # atno 10764 bound_to 10752
  154.8607  135.3695  154.5403 H   0  0  0  0  0  0  0  0  0  0  0  0  # atno 10765 bound_to 10752
  140.0536  134.9242  157.1061 H   0  0  0  0  0  0  0  0  0  0  0  0  # atno 11005 bound_to 11000
  144.6745  140.0582  143.7477 LP  0  0  0  0  0  0  0  0  0  0  0  0  # atno 17320 bound_to 7965
  145.9638  139.2820  143.1139 LP  0  0  0  0  0  0  0  0  0  0  0  0  # atno 17321 bound_to 7965
  140.5461  143.2214  151.8004 LP  0  0  0  0  0  0  0  0  0  0  0  0  # atno 17342 bound_to 10162
  139.4869  144.4537  151.9623 LP  0  0  0  0  0  0  0  0  0  0  0  0  # atno 17343 bound_to 10162
  156.2011  130.6620  151.1168 LP  0  0  0  0  0  0  0  0  0  0  0  0  # atno 17370 bound_to 10713
  157.7110  131.0734  150.6502 LP  0  0  0  0  0  0  0  0  0  0  0  0  # atno 17371 bound_to 10713
  140.3879  134.2216  155.7167 LP  0  0  0  0  0  0  0  0  0  0  0  0  # atno 17394 bound_to 11000
  141.1942  133.8134  157.0768 LP  0  0  0  0  0  0  0  0  0  0  0  0  # atno 17395 bound_to 11000

$$$$
