AV-unprocessed.smi:814|AV-procd|sdf|3824|dock8
  -GOLD-   22720 1263D 1   1.00000     0.00000
 Structure written by MMmdl.
 36 37  0  0  0  0  0  0  0  0  1 V2000
  152.1008  144.2599  161.6559 C   0  0  0  0  0  0  0  0  0  0  0  0
  152.8373  143.2204  160.9625 N   0  0  0  0  0  0  0  0  0  0  0  0
  153.3498  142.0632  161.5337 C   0  0  0  0  0  0  0  0  0  0  0  0
  153.9762  141.3705  160.5257 C   0  0  0  0  0  0  0  0  0  0  0  0
  153.8601  142.0812  159.3357 N   0  0  0  0  0  0  0  0  0  0  0  0
  153.1644  143.1679  159.6567 C   0  0  0  0  0  0  0  0  0  0  0  0
  152.8066  144.2454  158.6814 C   0  0  0  0  0  0  0  0  0  0  0  0
  151.2986  144.2943  158.3863 C   0  0  0  0  0  0  0  0  0  0  0  0
  150.9484  143.4474  157.2523 N   0  0  0  0  0  0  0  0  0  0  0  0
  151.1423  142.1204  157.1980 C   0  0  0  0  0  0  0  0  0  0  0  0
  151.6319  141.4732  158.1246 O   0  0  0  0  0  0  0  0  0  0  0  0
  150.7234  141.4165  155.9004 C   0  0  1  0  0  0  0  0  0  0  0  0
  151.3081  139.9867  155.8298 C   0  0  0  0  0  0  0  0  0  0  0  0
  150.7029  139.1730  154.6997 C   0  0  0  0  0  0  0  0  0  0  0  0
  149.5725  139.5208  154.0615 C   0  0  0  0  0  0  0  0  0  0  0  0
  148.7700  140.7645  154.4002 C   0  0  0  0  0  0  0  0  0  0  0  0
  149.1894  141.3806  155.7485 C   0  0  0  0  0  0  0  0  0  0  0  0
  152.1345  144.0903  162.7322 H   0  0  0  0  0  0  0  0  0  0  0  0
  151.0609  144.2542  161.3291 H   0  0  0  0  0  0  0  0  0  0  0  0
  152.5393  145.2347  161.4410 H   0  0  0  0  0  0  0  0  0  0  0  0
  153.2322  141.8351  162.5828 H   0  0  0  0  0  0  0  0  0  0  0  0
  154.4970  140.4252  160.5647 H   0  0  0  0  0  0  0  0  0  0  0  0
  153.1328  145.2023  159.0906 H   0  0  0  0  0  0  0  0  0  0  0  0
  153.3752  144.1020  157.7621 H   0  0  0  0  0  0  0  0  0  0  0  0
  150.7258  143.9933  159.2651 H   0  0  0  0  0  0  0  0  0  0  0  0
  150.9974  145.3167  158.1563 H   0  0  0  0  0  0  0  0  0  0  0  0
  150.5369  143.9024  156.4502 H   0  0  0  0  0  0  0  0  0  0  0  0
  151.1232  141.9862  155.0591 H   0  0  0  0  0  0  0  0  0  0  0  0
  152.3874  140.0378  155.6813 H   0  0  0  0  0  0  0  0  0  0  0  0
  151.1411  139.4419  156.7601 H   0  0  0  0  0  0  0  0  0  0  0  0
  151.2188  138.2656  154.4222 H   0  0  0  0  0  0  0  0  0  0  0  0
  149.1999  138.9050  153.2559 H   0  0  0  0  0  0  0  0  0  0  0  0
  148.9117  141.4861  153.5952 H   0  0  0  0  0  0  0  0  0  0  0  0
  147.7091  140.5145  154.4204 H   0  0  0  0  0  0  0  0  0  0  0  0
  148.7572  140.7909  156.5588 H   0  0  0  0  0  0  0  0  0  0  0  0
  148.7679  142.3827  155.8395 H   0  0  0  0  0  0  0  0  0  0  0  0
  1  2  1  0  0  0  0
  1 18  1  0  0  0  0
  1 19  1  0  0  0  0
  1 20  1  0  0  0  0
  2  6  1  0  0  0  0
  2  3  1  0  0  0  0
  3  4  2  0  0  0  0
  3 21  1  0  0  0  0
  4  5  1  0  0  0  0
  4 22  1  0  0  0  0
  5  6  2  0  0  0  0
  6  7  1  0  0  0  0
  7  8  1  0  0  0  0
  7 23  1  0  0  0  0
  7 24  1  0  0  0  0
  8  9  1  0  0  0  0
  8 25  1  0  0  0  0
  8 26  1  0  0  0  0
  9 10  1  0  0  0  0
  9 27  1  0  0  0  0
 10 11  2  0  0  0  0
 10 12  1  0  0  0  0
 12 17  1  0  0  0  0
 12 13  1  0  0  0  0
 12 28  1  0  0  0  0
 13 14  1  0  0  0  0
 13 29  1  0  0  0  0
 13 30  1  0  0  0  0
 14 15  2  0  0  0  0
 14 31  1  0  0  0  0
 15 16  1  0  0  0  0
 15 32  1  0  0  0  0
 16 17  1  0  0  0  0
 16 33  1  0  0  0  0
 16 34  1  0  0  0  0
 17 35  1  0  0  0  0
 17 36  1  0  0  0  0
M  END
> <s_m_source_file>
AV-unprocessed.smi

> <i_m_source_file_index>
814

> <i_lp_mmshare_version>
43012

> <i_f3d_flags>
0

> <s_epik_input>
W0NIM11uMVtjSF1bY0hdbmMxW0NIMl1bQ0gyXVtOSF1DKD1PKVtDQEBIXTJbQ0gyXVtDSF09W0NIXVtDSDJdW0NIMl0y

> <s_epik_cmdline>
J2VwaWtfcHl0aG9uJywgJy1waCcsICc3LjAnLCAnLXRuJywgJzgnLCAnLW1hJywgJzIwMCcsICctbWV0YWxfYmluZGluZycsICctaW1hZScsICc8aW5maWxlLm1hZT4nLCAnLW9tYWUnLCAnPG91dGZpbGUubWFlPic=

> <r_lp_tautomer_probability>
1

> <r_epik_Ionization_Penalty>
1.21249

> <r_epik_Ionization_Penalty_Charging>
1.21249

> <r_epik_Ionization_Penalty_Neutral>
1.60917e-08

> <r_epik_State_Penalty>
1.27906

> <r_epik_Charging_Adjusted_Penalty>
2.49154

> <i_epik_Tot_Q>
0

> <i_epik_Tot_abs_Q>
0

> <r_epik_Metal_State_Penalty>
0.409603

> <b_epik_Metal_Only>
0

> <s_lp_Force_Field>
OPLS_2005

> <r_lp_Energy>
6.01065

> <b_lp_Chiralities_Consistent>
1

> <s_lp_Variant>
AV-unprocessed.smi:814-4

> <Gold.Version>
5.8.1

> <Gold.Id.Protein>
6NUR|6NUR_protein|mol2

> <Gold.PLP.Fitness>
46.5721

> <Gold.PLP.PLP>
-44.8909

> <Gold.PLP.part.hbond>
-1.0000

> <Gold.PLP.part.metal>
0.0000

> <Gold.PLP.part.buried>
-1.2123

> <Gold.PLP.part.nonpolar>
-42.7650

> <Gold.PLP.part.repulsive>
0.0042

> <Gold.PLP.ligand.clash>
0.0000

> <Gold.PLP.ligand.torsion>
0.5394

> <Gold.PLP.Chemscore.Hbond>
0.9120

> <Gold.PLP.Chemscore.CHOScore>
0.0000

> <Gold.PLP.Chemscore.Metal>
0.0000

> <Gold.Chemscore.Hbonds>
donor molecule, donor type, donor heavy atom, donor atom, acceptor molecule, acceptor atom, score
      L1  H     9    27       P1  8028  0.93

> <Gold.PLP.Chemscore.Internal.Correction>
0.0240

> <Gold.Rescore>
     Score         DG    S(hbond)    S(metal)    S(lipo)     H(rot)  DE(clash)    DE(int)     intcor
     12.66     -16.65       0.93        0.00     103.48       1.58       0.78       3.21       ----

> <Gold.Chemscore.Fitness>
12.6591

> <Gold.Chemscore.DG>
-16.6510

> <Gold.Chemscore.ZeroCoef>
-5.4800

> <Gold.Chemscore.Hbond>
0.9314

> <Gold.Chemscore.Metal>
0.0000

> <Gold.Chemscore.Lipo>
103.4810

> <Gold.Chemscore.Internal_Hbond>
0.0000

> <Gold.Chemscore.DEClash>
0.7800

> <Gold.Chemscore.DEInternal>
3.2119

> <Gold.Chemscore.Rot>
1.5809

> <Gold.Chemscore.Internal.Correction>
   9.000000E+99

> <Gold.Chemscore.Hbonds>
donor molecule, donor type, donor heavy atom, donor atom, acceptor molecule, acceptor atom, score
      L1  H     9    27       P1  8028  0.89

> <Gold.Chemscore.Hbond.Weighted>
-3.1110

> <Gold.Chemscore.Metal.Weighted>
-0.0000

> <Gold.Chemscore.Lipo.Weighted>
-12.1073

> <Gold.Chemscore.Internal_Hbond.Weighted>
0.0000

> <Gold.Chemscore.DEClash.Weighted>
0.7800

> <Gold.Chemscore.DEInternal.Weighted>
3.2119

> <Gold.Chemscore.Rot.Weighted>
4.0472

> <Gold.Chemscore.Internal.Correction.Weighted>
   9.000000E+99

> <Gold.Protein.RotatedTorsions>
[ 6907 6896 6895 6894 ] final -117.81 input  -60.11 | X-H torsion
[ 7974 7965 7964 7962 ] final -122.90 input  175.53 | X-H torsion
[ 8008 7997 7996 7995 ] final -107.77 input   59.86 | X-H torsion
[ 10167 10162 10161 10158 ] final  145.52 input  -65.29 | X-H torsion
[ 10718 10713 10712 10709 ] final   70.12 input   66.30 | X-H torsion
[ 10763 10752 10751 10750 ] final  -74.11 input  -60.55 | X-H torsion
[ 11005 11000 10999 10996 ] final -158.34 input  -57.11 | X-H torsion

> <Gold.Protein.ActiveResidues>
 VAL166  LYS551  ARG553  GLY616  TRP617  ASP618  TYR619  PRO620  LYS621  CYS622 
 ASP623  PHE694  ASN695  SER759  ASP760  ASP761  ALA762  ILE779  LEU786  VAL792 
 PHE793  MET794  SER795  GLU796  ALA797  LYS798  CYS799  TRP800  GLU811  SER814 

> <Gold.Protein.RotatedAtoms>
  150.8167  133.8324  159.3157 H   0  0  0  0  0  0  0  0  0  0  0  0  # atno 6907 bound_to 6896
  151.6094  135.1039  160.0087 H   0  0  0  0  0  0  0  0  0  0  0  0  # atno 6908 bound_to 6896
  152.4258  133.7152  159.6558 H   0  0  0  0  0  0  0  0  0  0  0  0  # atno 6909 bound_to 6896
  145.0245  140.8016  143.4361 H   0  0  0  0  0  0  0  0  0  0  0  0  # atno 7974 bound_to 7965
  154.9343  140.0404  157.2064 H   0  0  0  0  0  0  0  0  0  0  0  0  # atno 8008 bound_to 7997
  154.8131  140.2871  155.5817 H   0  0  0  0  0  0  0  0  0  0  0  0  # atno 8009 bound_to 7997
  156.2973  140.2533  156.3023 H   0  0  0  0  0  0  0  0  0  0  0  0  # atno 8010 bound_to 7997
  139.4924  144.5896  151.6709 H   0  0  0  0  0  0  0  0  0  0  0  0  # atno 10167 bound_to 10162
  157.6383  130.9461  150.0607 H   0  0  0  0  0  0  0  0  0  0  0  0  # atno 10718 bound_to 10713
  154.4686  135.5875  153.6306 H   0  0  0  0  0  0  0  0  0  0  0  0  # atno 10763 bound_to 10752
  152.9832  135.6061  154.3395 H   0  0  0  0  0  0  0  0  0  0  0  0  # atno 10764 bound_to 10752
  154.3274  135.2843  155.2468 H   0  0  0  0  0  0  0  0  0  0  0  0  # atno 10765 bound_to 10752
  140.6547  134.4413  157.5235 H   0  0  0  0  0  0  0  0  0  0  0  0  # atno 11005 bound_to 11000
  145.1852  139.2330  143.5272 LP  0  0  0  0  0  0  0  0  0  0  0  0  # atno 17320 bound_to 7965
  146.3490  140.1635  142.8590 LP  0  0  0  0  0  0  0  0  0  0  0  0  # atno 17321 bound_to 7965
  140.5519  144.0411  150.6131 LP  0  0  0  0  0  0  0  0  0  0  0  0  # atno 17342 bound_to 10162
  140.3468  143.2987  152.0530 LP  0  0  0  0  0  0  0  0  0  0  0  0  # atno 17343 bound_to 10162
  156.1641  130.3644  149.9258 LP  0  0  0  0  0  0  0  0  0  0  0  0  # atno 17370 bound_to 10713
  156.7249  130.9021  151.3621 LP  0  0  0  0  0  0  0  0  0  0  0  0  # atno 17371 bound_to 10713
  139.9033  134.8505  156.1805 LP  0  0  0  0  0  0  0  0  0  0  0  0  # atno 17394 bound_to 11000
  141.0510  133.6888  156.1772 LP  0  0  0  0  0  0  0  0  0  0  0  0  # atno 17395 bound_to 11000

$$$$
