AV-unprocessed.smi:54|AV-procd|sdf|539|dock2
  -GOLD-   2262016423D 1   1.00000     0.00000
 Structure written by MMmdl.
 44 46  0  0  0  0  0  0  0  0  1 V2000
  144.0796  132.6462  149.1562 C   0  0  0  0  0  0  0  0  0  0  0  0
  145.1132  132.6638  150.2942 C   0  0  0  0  0  0  0  0  0  0  0  0
  145.0884  131.3495  151.0910 C   0  0  0  0  0  0  0  0  0  0  0  0
  144.8758  133.8607  151.2223 C   0  0  0  0  0  0  0  0  0  0  0  0
  144.3130  134.8853  150.8343 O   0  0  0  0  0  0  0  0  0  0  0  0
  145.3551  133.6968  152.5833 N   0  0  0  0  0  0  0  0  0  0  0  0
  145.2735  134.5880  153.5986 C   0  0  0  0  0  0  0  0  0  0  0  0
  146.0277  135.6753  153.6734 N   0  0  0  0  0  0  0  0  0  0  0  0
  145.7981  136.4515  154.7748 C   0  0  0  0  0  0  0  0  0  0  0  0
  144.8874  136.2059  155.7802 C   0  0  0  0  0  0  0  0  0  0  0  0
  144.9411  137.2178  156.7323 N   0  0  0  0  0  0  0  0  0  0  0  0
  145.8584  138.0282  156.2822 C   0  0  0  0  0  0  0  0  0  0  0  0
  146.4220  137.6389  155.0888 N   0  0  0  0  0  0  0  0  0  0  0  0
  147.4882  138.3017  154.2688 C   0  0  2  0  0  0  0  0  0  0  0  0
  148.5613  138.6084  155.1081 O   0  0  0  0  0  0  0  0  0  0  0  0
  148.5448  139.9957  155.4162 C   0  0  1  0  0  0  0  0  0  0  0  0
  149.9123  140.4625  155.9433 C   0  0  0  0  0  0  0  0  0  0  0  0
  150.9004  140.2979  154.9490 O   0  0  0  0  0  0  0  0  0  0  0  0
  148.0423  140.6339  154.1147 C   0  0  1  0  0  0  0  0  0  0  0  0
  149.0886  140.7638  153.1703 O   0  0  0  0  0  0  0  0  0  0  0  0
  147.0059  139.6282  153.6272 C   0  0  2  0  0  0  0  0  0  0  0  0
  145.7116  140.0359  154.0397 O   0  0  0  0  0  0  0  0  0  0  0  0
  144.0681  135.0303  155.7175 C   0  0  0  0  0  0  0  0  0  0  0  0
  143.2131  134.6541  156.5162 O   0  0  0  0  0  0  0  0  0  0  0  0
  144.3304  134.2640  154.5741 N   0  0  0  0  0  0  0  0  0  0  0  0
  147.7853  137.5456  153.5409 H   0  0  0  0  0  0  0  0  0  0  0  0
  147.7940  140.1516  156.1929 H   0  0  0  0  0  0  0  0  0  0  0  0
  147.6199  141.6252  154.2852 H   0  0  0  0  0  0  0  0  0  0  0  0
  147.0042  139.5314  152.5405 H   0  0  0  0  0  0  0  0  0  0  0  0
  144.0906  133.5814  148.5948 H   0  0  0  0  0  0  0  0  0  0  0  0
  143.0675  132.4964  149.5347 H   0  0  0  0  0  0  0  0  0  0  0  0
  144.2905  131.8408  148.4524 H   0  0  0  0  0  0  0  0  0  0  0  0
  146.1032  132.7695  149.8480 H   0  0  0  0  0  0  0  0  0  0  0  0
  145.8224  131.3609  151.8979 H   0  0  0  0  0  0  0  0  0  0  0  0
  145.3224  130.5001  150.4487 H   0  0  0  0  0  0  0  0  0  0  0  0
  144.1087  131.1673  151.5344 H   0  0  0  0  0  0  0  0  0  0  0  0
  145.7854  132.8088  152.7944 H   0  0  0  0  0  0  0  0  0  0  0  0
  146.1410  138.9265  156.8108 H   0  0  0  0  0  0  0  0  0  0  0  0
  149.8648  141.5190  156.2079 H   0  0  0  0  0  0  0  0  0  0  0  0
  150.2031  139.9236  156.8453 H   0  0  0  0  0  0  0  0  0  0  0  0
  151.4825  139.6028  155.2165 H   0  0  0  0  0  0  0  0  0  0  0  0
  148.8764  140.2351  152.4160 H   0  0  0  0  0  0  0  0  0  0  0  0
  145.1698  140.1329  153.2717 H   0  0  0  0  0  0  0  0  0  0  0  0
  143.7870  133.4208  154.4629 H   0  0  0  0  0  0  0  0  0  0  0  0
  1  2  1  0  0  0  0
  1 30  1  0  0  0  0
  1 31  1  0  0  0  0
  1 32  1  0  0  0  0
  2  3  1  0  0  0  0
  2  4  1  0  0  0  0
  2 33  1  0  0  0  0
  3 34  1  0  0  0  0
  3 35  1  0  0  0  0
  3 36  1  0  0  0  0
  4  5  2  0  0  0  0
  4  6  1  0  0  0  0
  6 37  1  0  0  0  0
  6  7  1  0  0  0  0
  7 25  1  0  0  0  0
  7  8  2  0  0  0  0
  8  9  1  0  0  0  0
  9 13  1  0  0  0  0
  9 10  2  0  0  0  0
 10 11  1  0  0  0  0
 10 23  1  0  0  0  0
 11 12  2  0  0  0  0
 12 13  1  0  0  0  0
 12 38  1  0  0  0  0
 13 14  1  0  0  0  0
 14 26  1  0  0  0  0
 14 21  1  0  0  0  0
 14 15  1  0  0  0  0
 15 16  1  0  0  0  0
 16 27  1  0  0  0  0
 16 17  1  0  0  0  0
 16 19  1  0  0  0  0
 17 18  1  0  0  0  0
 17 39  1  0  0  0  0
 17 40  1  0  0  0  0
 18 41  1  0  0  0  0
 19 28  1  0  0  0  0
 19 20  1  0  0  0  0
 19 21  1  0  0  0  0
 20 42  1  0  0  0  0
 21 29  1  0  0  0  0
 21 22  1  0  0  0  0
 22 43  1  0  0  0  0
 23 24  2  0  0  0  0
 23 25  1  0  0  0  0
 25 44  1  0  0  0  0
M  END
> <s_m_source_file>
AV-unprocessed.smi

> <i_m_source_file_index>
54

> <i_lp_mmshare_version>
43012

> <i_f3d_flags>
0

> <s_epik_input>
W0NIM11bQ0hdKFtDSDNdKUMoPU8pW05IXWMobjEpW25IXWMoPU8pYyhjMTIpbltjSF1uMltDQEBIXTNPW0NASF0oW0NIMl1bT0hdKVtDQEBIXShbT0hdKVtDQEhdM1tPSF0=

> <s_epik_cmdline>
J2VwaWtfcHl0aG9uJywgJy1waCcsICc3LjAnLCAnLXRuJywgJzgnLCAnLW1hJywgJzIwMCcsICctbWV0YWxfYmluZGluZycsICctaW1hZScsICc8aW5maWxlLm1hZT4nLCAnLW9tYWUnLCAnPG91dGZpbGUubWFlPic=

> <r_lp_tautomer_probability>
0.85571

> <r_epik_Ionization_Penalty>
0.0316551

> <r_epik_Ionization_Penalty_Charging>
0.0316043

> <r_epik_Ionization_Penalty_Neutral>
5.07097e-05

> <r_epik_State_Penalty>
3.15494e-07

> <r_epik_Charging_Adjusted_Penalty>
0.0316047

> <i_epik_Tot_Q>
0

> <i_epik_Tot_abs_Q>
0

> <r_epik_Metal_State_Penalty>
0.421206

> <b_epik_Metal_Only>
0

> <s_epik_Chemistry_Notes>
This compound contains an acetal/aminal-like group ( X-CH(R)-Y where X, Y are N, S, or O) that may be acid/base labile, releasing an aldehyde.

> <s_lp_Force_Field>
OPLS_2005

> <r_lp_Energy>
38.2372

> <b_lp_Chiralities_Consistent>
1

> <s_lp_Variant>
AV-unprocessed.smi:54-11

> <Gold.Version>
5.8.1

> <Gold.Id.Protein>
6NUR|6NUR_protein|mol2

> <Gold.PLP.Fitness>
38.9016

> <Gold.PLP.PLP>
-27.2358

> <Gold.PLP.part.hbond>
-5.9552

> <Gold.PLP.part.metal>
0.0000

> <Gold.PLP.part.buried>
-8.1162

> <Gold.PLP.part.nonpolar>
-15.1419

> <Gold.PLP.part.repulsive>
0.4613

> <Gold.PLP.ligand.clash>
0.0000

> <Gold.PLP.ligand.torsion>
1.5877

> <Gold.PLP.Chemscore.Hbond>
4.9117

> <Gold.PLP.Chemscore.CHOScore>
0.0000

> <Gold.PLP.Chemscore.Metal>
0.0000

> <Gold.Chemscore.Hbonds>
donor molecule, donor type, donor heavy atom, donor atom, acceptor molecule, acceptor atom, score
      L1  H    20    42       P1  7957  0.50
      L1  H    22    43       P1 10175  1.00
      L1  H    25    44       P1 10957  1.00
      P1  H  7989  7998       L1    18  1.00
      P1  H  8011  8017       L1    20  1.00
      P1  H 11000 11005       L1    24  0.33

> <Gold.PLP.Chemscore.Internal.Correction>
0.1062

> <Gold.Rescore>
     Score         DG    S(hbond)    S(metal)    S(lipo)     H(rot)  DE(clash)    DE(int)     intcor
     13.55     -15.65       4.35        0.00      51.44       4.05       0.02       2.08       ----

> <Gold.Chemscore.Fitness>
13.5539

> <Gold.Chemscore.DG>
-15.6535

> <Gold.Chemscore.ZeroCoef>
-5.4800

> <Gold.Chemscore.Hbond>
4.3476

> <Gold.Chemscore.Metal>
0.0000

> <Gold.Chemscore.Lipo>
51.4416

> <Gold.Chemscore.Internal_Hbond>
0.0000

> <Gold.Chemscore.DEClash>
0.0195

> <Gold.Chemscore.DEInternal>
2.0801

> <Gold.Chemscore.Rot>
4.0493

> <Gold.Chemscore.Internal.Correction>
   9.000000E+99

> <Gold.Chemscore.Hbonds>
donor molecule, donor type, donor heavy atom, donor atom, acceptor molecule, acceptor atom, score
      L1  H    20    42       P1  7957  0.51
      L1  H    22    43       P1 10175  0.97
      L1  H    25    44       P1 10957  0.93
      P1  H  7989  7998       L1    18  0.39
      P1  H  8011  8017       L1    20  0.29
      P1  H 11000 11005       L1    24  0.31

> <Gold.Chemscore.Hbond.Weighted>
-14.5210

> <Gold.Chemscore.Metal.Weighted>
-0.0000

> <Gold.Chemscore.Lipo.Weighted>
-6.0187

> <Gold.Chemscore.Internal_Hbond.Weighted>
0.0000

> <Gold.Chemscore.DEClash.Weighted>
0.0195

> <Gold.Chemscore.DEInternal.Weighted>
2.0801

> <Gold.Chemscore.Rot.Weighted>
10.3662

> <Gold.Chemscore.Internal.Correction.Weighted>
   9.000000E+99

> <Gold.Protein.RotatedTorsions>
[ 6907 6896 6895 6894 ] final   76.56 input  -60.11 | X-H torsion
[ 7974 7965 7964 7962 ] final -146.88 input  175.53 | X-H torsion
[ 8008 7997 7996 7995 ] final  -18.59 input   59.86 | X-H torsion
[ 10167 10162 10161 10158 ] final -175.17 input  -65.29 | X-H torsion
[ 10718 10713 10712 10709 ] final  -15.75 input   66.30 | X-H torsion
[ 10763 10752 10751 10750 ] final  -34.06 input  -60.55 | X-H torsion
[ 11005 11000 10999 10996 ] final  -84.74 input  -57.11 | X-H torsion

> <Gold.Protein.ActiveResidues>
 VAL166  LYS551  ARG553  GLY616  TRP617  ASP618  TYR619  PRO620  LYS621  CYS622 
 ASP623  PHE694  ASN695  SER759  ASP760  ASP761  ALA762  ILE779  LEU786  VAL792 
 PHE793  MET794  SER795  GLU796  ALA797  LYS798  CYS799  TRP800  GLU811  SER814 

> <Gold.Protein.RotatedAtoms>
  152.5078  134.3950  159.9396 H   0  0  0  0  0  0  0  0  0  0  0  0  # atno 6907 bound_to 6896
  151.3912  133.3782  159.2729 H   0  0  0  0  0  0  0  0  0  0  0  0  # atno 6908 bound_to 6896
  150.9431  134.8859  159.7684 H   0  0  0  0  0  0  0  0  0  0  0  0  # atno 6909 bound_to 6896
  144.8130  140.5399  143.5629 H   0  0  0  0  0  0  0  0  0  0  0  0  # atno 7974 bound_to 7965
  154.4896  140.2112  155.9579 H   0  0  0  0  0  0  0  0  0  0  0  0  # atno 8008 bound_to 7997
  156.1286  140.3201  155.8283 H   0  0  0  0  0  0  0  0  0  0  0  0  # atno 8009 bound_to 7997
  155.4339  140.0505  157.3007 H   0  0  0  0  0  0  0  0  0  0  0  0  # atno 8010 bound_to 7997
  139.5595  144.1905  152.1215 H   0  0  0  0  0  0  0  0  0  0  0  0  # atno 10167 bound_to 10162
  156.5973  130.4815  149.6254 H   0  0  0  0  0  0  0  0  0  0  0  0  # atno 10718 bound_to 10713
  153.8404  135.6858  153.4803 H   0  0  0  0  0  0  0  0  0  0  0  0  # atno 10763 bound_to 10752
  153.1457  135.4639  154.9560 H   0  0  0  0  0  0  0  0  0  0  0  0  # atno 10764 bound_to 10752
  154.7847  135.3281  154.7859 H   0  0  0  0  0  0  0  0  0  0  0  0  # atno 10765 bound_to 10752
  141.1648  133.7362  156.8913 H   0  0  0  0  0  0  0  0  0  0  0  0  # atno 11005 bound_to 11000
  145.5279  139.1475  143.3516 LP  0  0  0  0  0  0  0  0  0  0  0  0  # atno 17320 bound_to 7965
  146.2431  140.5420  142.8925 LP  0  0  0  0  0  0  0  0  0  0  0  0  # atno 17321 bound_to 7965
  140.1416  144.5197  150.6740 LP  0  0  0  0  0  0  0  0  0  0  0  0  # atno 17342 bound_to 10162
  140.6873  143.2356  151.5227 LP  0  0  0  0  0  0  0  0  0  0  0  0  # atno 17343 bound_to 10162
  156.2499  130.6901  151.1635 LP  0  0  0  0  0  0  0  0  0  0  0  0  # atno 17370 bound_to 10713
  157.7288  131.0629  150.5801 LP  0  0  0  0  0  0  0  0  0  0  0  0  # atno 17371 bound_to 10713
  140.1647  134.9141  157.2759 LP  0  0  0  0  0  0  0  0  0  0  0  0  # atno 17394 bound_to 11000
  140.2571  134.3615  155.7420 LP  0  0  0  0  0  0  0  0  0  0  0  0  # atno 17395 bound_to 11000

$$$$
