AV-unprocessed.smi:2834|AV-procd|sdf|10917|dock7
  -GOLD-   2272015363D 1   1.00000     0.00000
 Structure written by MMmdl.
 35 36  0  0  0  0  0  0  0  0  1 V2000
  146.6050  133.9402  152.2922 C   0  0  0  0  0  0  0  0  0  0  0  0
  145.3993  133.0284  151.9765 C   0  0  2  0  0  0  0  0  0  0  0  0
  144.2429  133.4068  152.7969 N   0  0  0  0  0  0  0  0  0  0  0  0
  143.6366  134.6043  152.8444 C   0  0  0  0  0  0  0  0  0  0  0  0
  143.9766  135.5733  152.1656 O   0  0  0  0  0  0  0  0  0  0  0  0
  142.6204  134.5987  153.7225 N   0  0  0  0  0  0  0  0  0  0  0  0
  141.7722  135.6824  154.0635 C   0  0  0  0  0  0  0  0  0  0  0  0
  142.1490  136.7793  154.8811 C   0  0  0  0  0  0  0  0  0  0  0  0
  141.1509  137.6387  155.0197 N   0  0  0  0  0  0  0  0  0  0  0  0
  140.1297  137.1110  154.2999 N   0  0  0  0  0  0  0  0  0  0  0  0
  138.8616  137.8140  154.2287 C   0  0  0  0  0  0  0  0  0  0  0  0
  138.9937  139.1942  153.5641 C   0  0  0  0  0  0  0  0  0  0  0  0
  139.3596  139.0343  152.2928 F   0  0  0  0  0  0  0  0  0  0  0  0
  137.8300  139.8439  153.5940 F   0  0  0  0  0  0  0  0  0  0  0  0
  139.9205  139.9239  154.1855 F   0  0  0  0  0  0  0  0  0  0  0  0
  140.4751  135.9148  153.7032 C   0  0  0  0  0  0  0  0  0  0  0  0
  145.7508  131.5571  152.2426 C   0  0  0  0  0  0  0  0  0  0  0  0
  145.4488  130.8420  150.9288 C   0  0  0  0  0  0  0  0  0  0  0  0
  145.6624  131.8503  149.9595 O   0  0  0  0  0  0  0  0  0  0  0  0
  145.0582  133.0264  150.4703 C   0  0  0  0  0  0  0  0  0  0  0  0
  147.4838  133.6439  151.7183 H   0  0  0  0  0  0  0  0  0  0  0  0
  146.8692  133.8930  153.3491 H   0  0  0  0  0  0  0  0  0  0  0  0
  146.4022  134.9833  152.0493 H   0  0  0  0  0  0  0  0  0  0  0  0
  143.8750  132.6822  153.3956 H   0  0  0  0  0  0  0  0  0  0  0  0
  142.4434  133.7320  154.2087 H   0  0  0  0  0  0  0  0  0  0  0  0
  143.0930  136.9782  155.3668 H   0  0  0  0  0  0  0  0  0  0  0  0
  138.1579  137.1944  153.6715 H   0  0  0  0  0  0  0  0  0  0  0  0
  138.4572  137.9162  155.2370 H   0  0  0  0  0  0  0  0  0  0  0  0
  139.7808  135.3588  153.0905 H   0  0  0  0  0  0  0  0  0  0  0  0
  146.8117  131.4478  152.4722 H   0  0  0  0  0  0  0  0  0  0  0  0
  145.1994  131.1160  153.0744 H   0  0  0  0  0  0  0  0  0  0  0  0
  146.0915  129.9772  150.7615 H   0  0  0  0  0  0  0  0  0  0  0  0
  144.4089  130.5124  150.8932 H   0  0  0  0  0  0  0  0  0  0  0  0
  143.9822  132.9563  150.2992 H   0  0  0  0  0  0  0  0  0  0  0  0
  145.4184  133.9137  149.9482 H   0  0  0  0  0  0  0  0  0  0  0  0
  1  2  1  0  0  0  0
  1 21  1  0  0  0  0
  1 22  1  0  0  0  0
  1 23  1  0  0  0  0
  2 20  1  0  0  0  0
  2  3  1  0  0  0  0
  2 17  1  0  0  0  0
  3  4  1  0  0  0  0
  3 24  1  0  0  0  0
  4  5  2  0  0  0  0
  4  6  1  0  0  0  0
  6  7  1  0  0  0  0
  6 25  1  0  0  0  0
  7 16  2  0  0  0  0
  7  8  1  0  0  0  0
  8  9  2  0  0  0  0
  8 26  1  0  0  0  0
  9 10  1  0  0  0  0
 10 11  1  0  0  0  0
 10 16  1  0  0  0  0
 11 12  1  0  0  0  0
 11 27  1  0  0  0  0
 11 28  1  0  0  0  0
 12 13  1  0  0  0  0
 12 14  1  0  0  0  0
 12 15  1  0  0  0  0
 16 29  1  0  0  0  0
 17 18  1  0  0  0  0
 17 30  1  0  0  0  0
 17 31  1  0  0  0  0
 18 19  1  0  0  0  0
 18 32  1  0  0  0  0
 18 33  1  0  0  0  0
 19 20  1  0  0  0  0
 20 34  1  0  0  0  0
 20 35  1  0  0  0  0
M  END
> <s_m_source_file>
AV-unprocessed.smi

> <i_m_source_file_index>
2834

> <i_lp_mmshare_version>
43012

> <i_f3d_flags>
0

> <s_epik_input>
W0NIMl0xT1tDSDJdW0NIMl1bQ0BAXTEoW0NIM10pW05IXUMoPU8pW05IXWMyW2NIXW5uKFtjSF0yKVtDSDJdQyhGKShGKUY=

> <s_epik_cmdline>
J2VwaWtfcHl0aG9uJywgJy1waCcsICc3LjAnLCAnLXRuJywgJzgnLCAnLW1hJywgJzIwMCcsICctbWV0YWxfYmluZGluZycsICctaW1hZScsICc8aW5maWxlLm1hZT4nLCAnLW9tYWUnLCAnPG91dGZpbGUubWFlPic=

> <r_lp_tautomer_probability>
1

> <r_epik_Ionization_Penalty>
3.3002e-05

> <r_epik_Ionization_Penalty_Charging>
0

> <r_epik_Ionization_Penalty_Neutral>
3.3002e-05

> <r_epik_State_Penalty>
-0

> <r_epik_Charging_Adjusted_Penalty>
0

> <i_epik_Tot_Q>
0

> <i_epik_Tot_abs_Q>
0

> <r_epik_Metal_State_Penalty>
-0

> <b_epik_Metal_Only>
0

> <s_lp_Force_Field>
OPLS_2005

> <r_lp_Energy>
22.3443

> <b_lp_Chiralities_Consistent>
1

> <s_lp_Variant>
AV-unprocessed.smi:2834-2

> <Gold.Version>
5.8.1

> <Gold.Id.Protein>
6NUR|6NUR_protein|mol2

> <Gold.PLP.Fitness>
37.8364

> <Gold.PLP.PLP>
-30.3207

> <Gold.PLP.part.hbond>
-2.0000

> <Gold.PLP.part.metal>
0.0000

> <Gold.PLP.part.buried>
-1.3160

> <Gold.PLP.part.nonpolar>
-28.9708

> <Gold.PLP.part.repulsive>
0.3116

> <Gold.PLP.ligand.clash>
0.0000

> <Gold.PLP.ligand.torsion>
0.7449

> <Gold.PLP.Chemscore.Hbond>
1.9913

> <Gold.PLP.Chemscore.CHOScore>
1.0000

> <Gold.PLP.Chemscore.Metal>
0.0000

> <Gold.Chemscore.Hbonds>
donor molecule, donor type, donor heavy atom, donor atom, acceptor molecule, acceptor atom, score
      L1  H     3    24       P1 10957  0.96
      L1  H     6    25       P1 10957  0.94
      L1  C    16    29       P1 10187  1.00

> <Gold.PLP.Chemscore.Internal.Correction>
0.0317

> <Gold.Rescore>
     Score         DG    S(hbond)    S(metal)    S(lipo)     H(rot)  DE(clash)    DE(int)     intcor
     11.70     -14.55       1.55        0.00      62.73       1.34       0.77       2.08       ----

> <Gold.Chemscore.Fitness>
11.6962

> <Gold.Chemscore.DG>
-14.5471

> <Gold.Chemscore.ZeroCoef>
-5.4800

> <Gold.Chemscore.Hbond>
1.5455

> <Gold.Chemscore.Metal>
0.0000

> <Gold.Chemscore.Lipo>
62.7316

> <Gold.Chemscore.Internal_Hbond>
0.0000

> <Gold.Chemscore.DEClash>
0.7662

> <Gold.Chemscore.DEInternal>
2.0847

> <Gold.Chemscore.Rot>
1.3417

> <Gold.Chemscore.Internal.Correction>
   9.000000E+99

> <Gold.Chemscore.Hbonds>
donor molecule, donor type, donor heavy atom, donor atom, acceptor molecule, acceptor atom, score
      L1  H     3    24       P1 10957  0.41
      L1  H     6    25       P1 10957  0.90

> <Gold.Chemscore.Hbond.Weighted>
-5.1621

> <Gold.Chemscore.Metal.Weighted>
-0.0000

> <Gold.Chemscore.Lipo.Weighted>
-7.3396

> <Gold.Chemscore.Internal_Hbond.Weighted>
0.0000

> <Gold.Chemscore.DEClash.Weighted>
0.7662

> <Gold.Chemscore.DEInternal.Weighted>
2.0847

> <Gold.Chemscore.Rot.Weighted>
3.4347

> <Gold.Chemscore.Internal.Correction.Weighted>
   9.000000E+99

> <Gold.Protein.RotatedTorsions>
[ 6907 6896 6895 6894 ] final   65.26 input  -60.11 | X-H torsion
[ 7974 7965 7964 7962 ] final -111.90 input  175.53 | X-H torsion
[ 8008 7997 7996 7995 ] final   19.17 input   59.86 | X-H torsion
[ 10167 10162 10161 10158 ] final   26.76 input  -65.29 | X-H torsion
[ 10718 10713 10712 10709 ] final   20.65 input   66.30 | X-H torsion
[ 10763 10752 10751 10750 ] final  -45.13 input  -60.55 | X-H torsion
[ 11005 11000 10999 10996 ] final -172.56 input  -57.11 | X-H torsion

> <Gold.Protein.ActiveResidues>
 VAL166  LYS551  ARG553  GLY616  TRP617  ASP618  TYR619  PRO620  LYS621  CYS622 
 ASP623  PHE694  ASN695  SER759  ASP760  ASP761  ALA762  ILE779  LEU786  VAL792 
 PHE793  MET794  SER795  GLU796  ALA797  LYS798  CYS799  TRP800  GLU811  SER814 

> <Gold.Protein.RotatedAtoms>
  152.4394  134.5622  159.9897 H   0  0  0  0  0  0  0  0  0  0  0  0  # atno 6907 bound_to 6896
  151.5723  133.3382  159.3000 H   0  0  0  0  0  0  0  0  0  0  0  0  # atno 6908 bound_to 6896
  150.8297  134.7579  159.6907 H   0  0  0  0  0  0  0  0  0  0  0  0  # atno 6909 bound_to 6896
  145.1504  140.8826  143.3649 H   0  0  0  0  0  0  0  0  0  0  0  0  # atno 7974 bound_to 7965
  154.9167  140.3021  155.5237 H   0  0  0  0  0  0  0  0  0  0  0  0  # atno 8008 bound_to 7997
  156.3012  140.2379  156.4149 H   0  0  0  0  0  0  0  0  0  0  0  0  # atno 8009 bound_to 7997
  154.8371  140.0415  157.1505 H   0  0  0  0  0  0  0  0  0  0  0  0  # atno 8010 bound_to 7997
  140.4996  144.0336  150.6327 H   0  0  0  0  0  0  0  0  0  0  0  0  # atno 10167 bound_to 10162
  157.1275  130.6576  149.5942 H   0  0  0  0  0  0  0  0  0  0  0  0  # atno 10718 bound_to 10713
  154.0236  135.6666  153.4774 H   0  0  0  0  0  0  0  0  0  0  0  0  # atno 10763 bound_to 10752
  153.0570  135.5050  154.8000 H   0  0  0  0  0  0  0  0  0  0  0  0  # atno 10764 bound_to 10752
  154.6922  135.3063  154.9427 H   0  0  0  0  0  0  0  0  0  0  0  0  # atno 10765 bound_to 10752
  140.4956  134.5943  157.4970 H   0  0  0  0  0  0  0  0  0  0  0  0  # atno 11005 bound_to 11000
  145.0436  139.3239  143.5964 LP  0  0  0  0  0  0  0  0  0  0  0  0  # atno 17320 bound_to 7965
  146.3495  139.9819  142.8695 LP  0  0  0  0  0  0  0  0  0  0  0  0  # atno 17321 bound_to 7965
  140.3629  143.2898  152.0364 LP  0  0  0  0  0  0  0  0  0  0  0  0  # atno 17342 bound_to 10162
  139.4869  144.6289  151.7109 LP  0  0  0  0  0  0  0  0  0  0  0  0  # atno 17343 bound_to 10162
  155.9815  130.4823  150.6831 LP  0  0  0  0  0  0  0  0  0  0  0  0  # atno 17370 bound_to 10713
  157.4422  131.0862  151.0932 LP  0  0  0  0  0  0  0  0  0  0  0  0  # atno 17371 bound_to 10713
  139.9743  134.7241  155.9980 LP  0  0  0  0  0  0  0  0  0  0  0  0  # atno 17394 bound_to 11000
  141.1462  133.6555  156.3874 LP  0  0  0  0  0  0  0  0  0  0  0  0  # atno 17395 bound_to 11000

$$$$
