AV-unprocessed.smi:573|AV-procd|sdf|2972|dock2
  -GOLD-   2262023473D 1   1.00000     0.00000
 Structure written by MMmdl.
 44 46  0  0  0  0  0  0  0  0  1 V2000
  149.5460  137.8012  154.5709 C   0  0  0  0  0  0  0  0  0  0  0  0
  150.9780  137.4608  155.0107 C   0  0  1  0  0  0  0  0  0  0  0  0
  151.4285  136.3738  154.2308 O   0  0  0  0  0  0  0  0  0  0  0  0
  151.9701  138.6226  154.8294 C   0  0  0  0  0  0  0  0  0  0  0  0
  151.4208  139.8928  155.2678 N   0  0  0  0  0  0  0  0  0  0  0  0
  151.6453  140.6685  156.3990 C   0  0  0  0  0  0  0  0  0  0  0  0
  152.4907  140.3383  157.3737 N   0  0  0  0  0  0  0  0  0  0  0  0
  152.3550  141.3983  158.2504 C   0  0  0  0  0  0  0  0  0  0  0  0
  152.9844  141.6489  159.4908 C   0  0  0  0  0  0  0  0  0  0  0  0
  152.6815  142.8161  160.2222 C   0  0  0  0  0  0  0  0  0  0  0  0
  151.7459  143.7471  159.7264 C   0  0  0  0  0  0  0  0  0  0  0  0
  151.1065  143.5175  158.4930 C   0  0  0  0  0  0  0  0  0  0  0  0
  151.4138  142.3525  157.7647 C   0  0  0  0  0  0  0  0  0  0  0  0
  150.9763  141.8357  156.5486 N   0  0  0  0  0  0  0  0  0  0  0  0
  149.9986  142.4335  155.6505 C   0  0  0  0  0  0  0  0  0  0  0  0
  148.8498  141.4635  155.3289 C   0  0  2  0  0  0  0  0  0  0  0  0
  148.0375  141.9113  154.0993 C   0  0  0  0  0  0  0  0  0  0  0  0
  146.8662  140.9535  153.8529 C   0  0  0  0  0  0  0  0  0  0  0  0
  146.0394  140.8069  155.1351 C   0  0  0  0  0  0  0  0  0  0  0  0
  146.9457  140.4246  156.3164 C   0  0  0  0  0  0  0  0  0  0  0  0
  147.9859  141.3857  156.4615 O   0  0  0  0  0  0  0  0  0  0  0  0
  149.1218  138.5971  155.1831 H   0  0  0  0  0  0  0  0  0  0  0  0
  148.8903  136.9352  154.6661 H   0  0  0  0  0  0  0  0  0  0  0  0
  149.5171  138.1295  153.5314 H   0  0  0  0  0  0  0  0  0  0  0  0
  150.9732  137.1398  156.0532 H   0  0  0  0  0  0  0  0  0  0  0  0
  151.0553  136.4496  153.3660 H   0  0  0  0  0  0  0  0  0  0  0  0
  152.8715  138.4363  155.4141 H   0  0  0  0  0  0  0  0  0  0  0  0
  152.2829  138.7014  153.7873 H   0  0  0  0  0  0  0  0  0  0  0  0
  150.7715  140.2978  154.6093 H   0  0  0  0  0  0  0  0  0  0  0  0
  153.7007  140.9409  159.8807 H   0  0  0  0  0  0  0  0  0  0  0  0
  153.1685  142.9970  161.1690 H   0  0  0  0  0  0  0  0  0  0  0  0
  151.5187  144.6375  160.2939 H   0  0  0  0  0  0  0  0  0  0  0  0
  150.3867  144.2269  158.1125 H   0  0  0  0  0  0  0  0  0  0  0  0
  149.6085  143.3402  156.1138 H   0  0  0  0  0  0  0  0  0  0  0  0
  150.5023  142.7505  154.7365 H   0  0  0  0  0  0  0  0  0  0  0  0
  149.2717  140.4746  155.1396 H   0  0  0  0  0  0  0  0  0  0  0  0
  147.6559  142.9207  154.2576 H   0  0  0  0  0  0  0  0  0  0  0  0
  148.6770  141.9532  153.2169 H   0  0  0  0  0  0  0  0  0  0  0  0
  146.2418  141.3161  153.0359 H   0  0  0  0  0  0  0  0  0  0  0  0
  147.2473  139.9780  153.5479 H   0  0  0  0  0  0  0  0  0  0  0  0
  145.5345  141.7484  155.3549 H   0  0  0  0  0  0  0  0  0  0  0  0
  145.2598  140.0572  154.9983 H   0  0  0  0  0  0  0  0  0  0  0  0
  146.3658  140.3941  157.2390 H   0  0  0  0  0  0  0  0  0  0  0  0
  147.3720  139.4303  156.1754 H   0  0  0  0  0  0  0  0  0  0  0  0
  1  2  1  0  0  0  0
  1 22  1  0  0  0  0
  1 23  1  0  0  0  0
  1 24  1  0  0  0  0
  2  3  1  0  0  0  0
  2  4  1  0  0  0  0
  2 25  1  0  0  0  0
  3 26  1  0  0  0  0
  4  5  1  0  0  0  0
  4 27  1  0  0  0  0
  4 28  1  0  0  0  0
  5  6  1  0  0  0  0
  5 29  1  0  0  0  0
  6 14  1  0  0  0  0
  6  7  2  0  0  0  0
  7  8  1  0  0  0  0
  8 13  2  0  0  0  0
  8  9  1  0  0  0  0
  9 10  2  0  0  0  0
  9 30  1  0  0  0  0
 10 11  1  0  0  0  0
 10 31  1  0  0  0  0
 11 12  2  0  0  0  0
 11 32  1  0  0  0  0
 12 13  1  0  0  0  0
 12 33  1  0  0  0  0
 13 14  1  0  0  0  0
 14 15  1  0  0  0  0
 15 16  1  0  0  0  0
 15 34  1  0  0  0  0
 15 35  1  0  0  0  0
 16 21  1  0  0  0  0
 16 17  1  0  0  0  0
 16 36  1  0  0  0  0
 17 18  1  0  0  0  0
 17 37  1  0  0  0  0
 17 38  1  0  0  0  0
 18 19  1  0  0  0  0
 18 39  1  0  0  0  0
 18 40  1  0  0  0  0
 19 20  1  0  0  0  0
 19 41  1  0  0  0  0
 19 42  1  0  0  0  0
 20 21  1  0  0  0  0
 20 43  1  0  0  0  0
 20 44  1  0  0  0  0
M  END
> <s_m_source_file>
AV-unprocessed.smi

> <i_m_source_file_index>
573

> <i_lp_mmshare_version>
43012

> <i_f3d_flags>
0

> <s_epik_input>
W0NIM11bQ0BIXShbT0hdKVtDSDJdW05IXWMobjEpbihjKGMxMilbY0hdW2NIXVtjSF1bY0hdMilbQ0gyXVtDQEBIXTNbQ0gyXVtDSDJdW0NIMl1bQ0gyXU8z

> <s_epik_cmdline>
J2VwaWtfcHl0aG9uJywgJy1waCcsICc3LjAnLCAnLXRuJywgJzgnLCAnLW1hJywgJzIwMCcsICctbWV0YWxfYmluZGluZycsICctaW1hZScsICc8aW5maWxlLm1hZT4nLCAnLW9tYWUnLCAnPG91dGZpbGUubWFlPic=

> <r_epik_Ionization_Penalty>
1.30635

> <r_epik_Ionization_Penalty_Charging>
0

> <r_epik_Ionization_Penalty_Neutral>
1.30635

> <r_epik_State_Penalty>
1.38073

> <r_epik_Charging_Adjusted_Penalty>
1.38073

> <i_epik_Tot_Q>
0

> <i_epik_Tot_abs_Q>
0

> <r_epik_Metal_State_Penalty>
0.00547412

> <b_epik_Metal_Only>
0

> <s_lp_Force_Field>
OPLS_2005

> <r_lp_Energy>
6.58613

> <b_lp_Chiralities_Consistent>
1

> <s_lp_Variant>
AV-unprocessed.smi:573-6

> <Gold.Version>
5.8.1

> <Gold.Id.Protein>
6NUR|6NUR_protein|mol2

> <Gold.PLP.Fitness>
45.9101

> <Gold.PLP.PLP>
-37.7239

> <Gold.PLP.part.hbond>
-3.0000

> <Gold.PLP.part.metal>
0.0000

> <Gold.PLP.part.buried>
-0.9063

> <Gold.PLP.part.nonpolar>
-33.4286

> <Gold.PLP.part.repulsive>
0.7222

> <Gold.PLP.ligand.clash>
0.0000

> <Gold.PLP.ligand.torsion>
0.3747

> <Gold.PLP.Chemscore.Hbond>
2.9675

> <Gold.PLP.Chemscore.CHOScore>
0.0000

> <Gold.PLP.Chemscore.Metal>
0.0000

> <Gold.Chemscore.Hbonds>
donor molecule, donor type, donor heavy atom, donor atom, acceptor molecule, acceptor atom, score
      L1  H     3    26       P1  7949  0.94
      P1  H  7997  8008       L1     7  0.96
      P1  H 10752 10763       L1     3  1.00

> <Gold.PLP.Chemscore.Internal.Correction>
0.0333

> <Gold.Rescore>
     Score         DG    S(hbond)    S(metal)    S(lipo)     H(rot)  DE(clash)    DE(int)     intcor
     18.35     -20.26       2.24        0.00     106.58       2.02       1.68       0.23       ----

> <Gold.Chemscore.Fitness>
18.3489

> <Gold.Chemscore.DG>
-20.2552

> <Gold.Chemscore.ZeroCoef>
-5.4800

> <Gold.Chemscore.Hbond>
2.2403

> <Gold.Chemscore.Metal>
0.0000

> <Gold.Chemscore.Lipo>
106.5808

> <Gold.Chemscore.Internal_Hbond>
0.0000

> <Gold.Chemscore.DEClash>
1.6806

> <Gold.Chemscore.DEInternal>
0.2257

> <Gold.Chemscore.Rot>
2.0224

> <Gold.Chemscore.Internal.Correction>
   9.000000E+99

> <Gold.Chemscore.Hbonds>
donor molecule, donor type, donor heavy atom, donor atom, acceptor molecule, acceptor atom, score
      L1  H     3    26       P1  7949  0.27
      P1  H  7997  8008       L1     7  0.60
      P1  H 10752 10763       L1     3  0.59

> <Gold.Chemscore.Hbond.Weighted>
-7.4826

> <Gold.Chemscore.Metal.Weighted>
-0.0000

> <Gold.Chemscore.Lipo.Weighted>
-12.4699

> <Gold.Chemscore.Internal_Hbond.Weighted>
0.0000

> <Gold.Chemscore.DEClash.Weighted>
1.6806

> <Gold.Chemscore.DEInternal.Weighted>
0.2257

> <Gold.Chemscore.Rot.Weighted>
5.1773

> <Gold.Chemscore.Internal.Correction.Weighted>
   9.000000E+99

> <Gold.Protein.RotatedTorsions>
[ 6907 6896 6895 6894 ] final  -69.39 input  -60.11 | X-H torsion
[ 7974 7965 7964 7962 ] final  136.14 input  175.53 | X-H torsion
[ 8008 7997 7996 7995 ] final  -62.64 input   59.86 | X-H torsion
[ 10167 10162 10161 10158 ] final  115.83 input  -65.29 | X-H torsion
[ 10718 10713 10712 10709 ] final   81.33 input   66.30 | X-H torsion
[ 10763 10752 10751 10750 ] final   26.02 input  -60.55 | X-H torsion
[ 11005 11000 10999 10996 ] final  146.84 input  -57.11 | X-H torsion

> <Gold.Protein.ActiveResidues>
 VAL166  LYS551  ARG553  GLY616  TRP617  ASP618  TYR619  PRO620  LYS621  CYS622 
 ASP623  PHE694  ASN695  SER759  ASP760  ASP761  ALA762  ILE779  LEU786  VAL792 
 PHE793  MET794  SER795  GLU796  ALA797  LYS798  CYS799  TRP800  GLU811  SER814 

> <Gold.Protein.RotatedAtoms>
  150.7308  134.5604  159.5838 H   0  0  0  0  0  0  0  0  0  0  0  0  # atno 6907 bound_to 6896
  152.3069  134.7542  160.0354 H   0  0  0  0  0  0  0  0  0  0  0  0  # atno 6908 bound_to 6896
  151.8103  133.3345  159.3590 H   0  0  0  0  0  0  0  0  0  0  0  0  # atno 6909 bound_to 6896
  144.9594  139.4727  143.5487 H   0  0  0  0  0  0  0  0  0  0  0  0  # atno 7974 bound_to 7965
  154.4510  140.0992  156.6618 H   0  0  0  0  0  0  0  0  0  0  0  0  # atno 8008 bound_to 7997
  155.5284  140.3480  155.4403 H   0  0  0  0  0  0  0  0  0  0  0  0  # atno 8009 bound_to 7997
  156.0681  140.1343  156.9850 H   0  0  0  0  0  0  0  0  0  0  0  0  # atno 8010 bound_to 7997
  139.6290  144.7112  151.2473 H   0  0  0  0  0  0  0  0  0  0  0  0  # atno 10167 bound_to 10162
  157.6830  130.9999  150.2211 H   0  0  0  0  0  0  0  0  0  0  0  0  # atno 10718 bound_to 10713
  153.0651  135.6570  154.0372 H   0  0  0  0  0  0  0  0  0  0  0  0  # atno 10763 bound_to 10752
  154.0031  135.2935  155.3402 H   0  0  0  0  0  0  0  0  0  0  0  0  # atno 10764 bound_to 10752
  154.7006  135.5246  153.8590 H   0  0  0  0  0  0  0  0  0  0  0  0  # atno 10765 bound_to 10752
  140.0826  134.9088  157.1525 H   0  0  0  0  0  0  0  0  0  0  0  0  # atno 11005 bound_to 11000
  146.3348  139.8734  142.8836 LP  0  0  0  0  0  0  0  0  0  0  0  0  # atno 17320 bound_to 7965
  145.2722  141.0112  143.3765 LP  0  0  0  0  0  0  0  0  0  0  0  0  # atno 17321 bound_to 7965
  140.7428  143.6515  150.8244 LP  0  0  0  0  0  0  0  0  0  0  0  0  # atno 17342 bound_to 10162
  140.0138  143.5615  152.2828 LP  0  0  0  0  0  0  0  0  0  0  0  0  # atno 17343 bound_to 10162
  156.2862  130.3739  149.7886 LP  0  0  0  0  0  0  0  0  0  0  0  0  # atno 17370 bound_to 10713
  156.5559  130.8362  151.3314 LP  0  0  0  0  0  0  0  0  0  0  0  0  # atno 17371 bound_to 10713
  140.3466  134.2645  155.7204 LP  0  0  0  0  0  0  0  0  0  0  0  0  # atno 17394 bound_to 11000
  141.2052  133.7867  157.0247 LP  0  0  0  0  0  0  0  0  0  0  0  0  # atno 17395 bound_to 11000

$$$$
