AV-unprocessed.smi:158|AV-procd|sdf|1337|dock2
  -GOLD-   2262019 33D 1   1.00000     0.00000
 Structure written by MMmdl.
 31 33  0  0  0  0  0  0  0  0  1 V2000
  153.1836  138.5669  154.8595 N   0  0  0  0  0  0  0  0  0  0  0  0
  151.8461  138.6491  154.8824 C   0  0  0  0  0  0  0  0  0  0  0  0
  151.2749  139.8740  154.8078 N   0  0  0  0  0  0  0  0  0  0  0  0
  149.9420  140.0006  154.8272 C   0  0  0  0  0  0  0  0  0  0  0  0
  149.3220  141.6065  154.7271 Cl  0  0  0  0  0  0  0  0  0  0  0  0
  149.0358  139.0216  154.9168 N   0  0  0  0  0  0  0  0  0  0  0  0
  149.6088  137.7859  154.9939 C   0  0  0  0  0  0  0  0  0  0  0  0
  151.0029  137.5156  154.9815 C   0  0  0  0  0  0  0  0  0  0  0  0
  151.2205  136.1471  155.0721 N   0  0  0  0  0  0  0  0  0  0  0  0
  150.0172  135.6412  155.1328 C   0  0  0  0  0  0  0  0  0  0  0  0
  148.9895  136.5581  155.0999 N   0  0  0  0  0  0  0  0  0  0  0  0
  147.5211  136.2964  155.1436 C   0  0  2  0  0  0  0  0  0  0  0  0
  147.3203  134.9379  154.9211 O   0  0  0  0  0  0  0  0  0  0  0  0
  146.0847  134.7361  154.2445 C   0  0  1  0  0  0  0  0  0  0  0  0
  144.9527  134.6072  155.2836 C   0  0  0  0  0  0  0  0  0  0  0  0
  143.7043  134.5206  154.6305 O   0  0  0  0  0  0  0  0  0  0  0  0
  145.9416  135.9848  153.3595 C   0  0  2  0  0  0  0  0  0  0  0  0
  146.4198  135.7259  152.0541 O   0  0  0  0  0  0  0  0  0  0  0  0
  146.7832  137.0605  154.0378 C   0  0  1  0  0  0  0  0  0  0  0  0
  145.9966  137.9813  154.5963 F   0  0  0  0  0  0  0  0  0  0  0  0
  147.2060  136.5738  156.1505 H   0  0  0  0  0  0  0  0  0  0  0  0
  146.1266  133.8300  153.6373 H   0  0  0  0  0  0  0  0  0  0  0  0
  144.8997  136.2924  153.2608 H   0  0  0  0  0  0  0  0  0  0  0  0
  147.4692  137.5685  153.3576 H   0  0  0  0  0  0  0  0  0  0  0  0
  153.6330  137.6642  154.9143 H   0  0  0  0  0  0  0  0  0  0  0  0
  153.7393  139.4071  154.7882 H   0  0  0  0  0  0  0  0  0  0  0  0
  149.8457  134.5770  155.2064 H   0  0  0  0  0  0  0  0  0  0  0  0
  145.0949  133.7496  155.9414 H   0  0  0  0  0  0  0  0  0  0  0  0
  144.9199  135.4940  155.9168 H   0  0  0  0  0  0  0  0  0  0  0  0
  143.3739  133.6405  154.7264 H   0  0  0  0  0  0  0  0  0  0  0  0
  147.3521  135.8794  152.0383 H   0  0  0  0  0  0  0  0  0  0  0  0
  1  2  1  0  0  0  0
  1 25  1  0  0  0  0
  1 26  1  0  0  0  0
  2  8  1  0  0  0  0
  2  3  2  0  0  0  0
  3  4  1  0  0  0  0
  4  5  1  0  0  0  0
  4  6  2  0  0  0  0
  6  7  1  0  0  0  0
  7 11  1  0  0  0  0
  7  8  2  0  0  0  0
  8  9  1  0  0  0  0
  9 10  2  0  0  0  0
 10 11  1  0  0  0  0
 10 27  1  0  0  0  0
 11 12  1  0  0  0  0
 12 21  1  0  0  0  0
 12 19  1  0  0  0  0
 12 13  1  0  0  0  0
 13 14  1  0  0  0  0
 14 22  1  0  0  0  0
 14 15  1  0  0  0  0
 14 17  1  0  0  0  0
 15 16  1  0  0  0  0
 15 28  1  0  0  0  0
 15 29  1  0  0  0  0
 16 30  1  0  0  0  0
 17 23  1  0  0  0  0
 17 18  1  0  0  0  0
 17 19  1  0  0  0  0
 18 31  1  0  0  0  0
 19 24  1  0  0  0  0
 19 20  1  0  0  0  0
M  END
> <s_m_source_file>
AV-unprocessed.smi

> <i_m_source_file_index>
158

> <i_lp_mmshare_version>
43012

> <i_f3d_flags>
0

> <s_epik_input>
Q2xjKG4xKW5jKFtOSDJdKWMoYzEyKW5bY0hdbjJbQ0BASF0zT1tDQEhdKFtDSDJdW09IXSlbQ0BASF0oW09IXSlbQ0BASF0zRg==

> <s_epik_cmdline>
J2VwaWtfcHl0aG9uJywgJy1waCcsICc3LjAnLCAnLXRuJywgJzgnLCAnLW1hJywgJzIwMCcsICctbWV0YWxfYmluZGluZycsICctaW1hZScsICc8aW5maWxlLm1hZT4nLCAnLW9tYWUnLCAnPG91dGZpbGUubWFlPic=

> <r_lp_tautomer_probability>
1

> <r_epik_Ionization_Penalty>
6.51543e-05

> <r_epik_Ionization_Penalty_Charging>
0

> <r_epik_Ionization_Penalty_Neutral>
6.51543e-05

> <r_epik_State_Penalty>
-0

> <r_epik_Charging_Adjusted_Penalty>
0

> <i_epik_Tot_Q>
0

> <i_epik_Tot_abs_Q>
0

> <r_epik_Metal_State_Penalty>
-0

> <b_epik_Metal_Only>
0

> <s_epik_Chemistry_Notes>
This compound contains an acetal/aminal-like group ( X-CH(R)-Y where X, Y are N, S, or O) that may be acid/base labile, releasing an aldehyde.

> <s_lp_Force_Field>
OPLS_2005

> <r_lp_Energy>
33.5879

> <b_lp_Chiralities_Consistent>
1

> <s_lp_Variant>
AV-unprocessed.smi:158-15

> <Gold.Version>
5.8.1

> <Gold.Id.Protein>
6NUR|6NUR_protein|mol2

> <Gold.PLP.Fitness>
34.4053

> <Gold.PLP.PLP>
-22.9821

> <Gold.PLP.part.hbond>
-4.0000

> <Gold.PLP.part.metal>
0.0000

> <Gold.PLP.part.buried>
-4.1216

> <Gold.PLP.part.nonpolar>
-15.5910

> <Gold.PLP.part.repulsive>
0.6243

> <Gold.PLP.ligand.clash>
0.0000

> <Gold.PLP.ligand.torsion>
0.2948

> <Gold.PLP.Chemscore.Hbond>
4.0000

> <Gold.PLP.Chemscore.CHOScore>
0.0000

> <Gold.PLP.Chemscore.Metal>
0.0000

> <Gold.Chemscore.Hbonds>
donor molecule, donor type, donor heavy atom, donor atom, acceptor molecule, acceptor atom, score
      L1  H    16    30       P1 10957  1.00
      L1  H    18    31       P1  7948  1.00
      P1  H  7989  7998       L1     3  1.00
      P1  H 10752 10765       L1     9  1.00

> <Gold.PLP.Chemscore.Internal.Correction>
0.0129

> <Gold.Rescore>
     Score         DG    S(hbond)    S(metal)    S(lipo)     H(rot)  DE(clash)    DE(int)     intcor
     12.06     -12.37       3.71        0.00      21.41       3.12       0.00       0.30       ----

> <Gold.Chemscore.Fitness>
12.0645

> <Gold.Chemscore.DG>
-12.3669

> <Gold.Chemscore.ZeroCoef>
-5.4800

> <Gold.Chemscore.Hbond>
3.7056

> <Gold.Chemscore.Metal>
0.0000

> <Gold.Chemscore.Lipo>
21.4123

> <Gold.Chemscore.Internal_Hbond>
0.0000

> <Gold.Chemscore.DEClash>
0.0004

> <Gold.Chemscore.DEInternal>
0.3020

> <Gold.Chemscore.Rot>
3.1230

> <Gold.Chemscore.Internal.Correction>
   9.000000E+99

> <Gold.Chemscore.Hbonds>
donor molecule, donor type, donor heavy atom, donor atom, acceptor molecule, acceptor atom, score
      L1  H    16    30       P1 10957  0.96
      L1  H    18    31       P1  7948  0.99
      P1  H  7989  7998       L1     3  0.25
      P1  H 10752 10765       L1     9  0.93

> <Gold.Chemscore.Hbond.Weighted>
-12.3766

> <Gold.Chemscore.Metal.Weighted>
-0.0000

> <Gold.Chemscore.Lipo.Weighted>
-2.5052

> <Gold.Chemscore.Internal_Hbond.Weighted>
0.0000

> <Gold.Chemscore.DEClash.Weighted>
0.0004

> <Gold.Chemscore.DEInternal.Weighted>
0.3020

> <Gold.Chemscore.Rot.Weighted>
7.9950

> <Gold.Chemscore.Internal.Correction.Weighted>
   9.000000E+99

> <Gold.Protein.RotatedTorsions>
[ 6907 6896 6895 6894 ] final  -93.23 input  -60.11 | X-H torsion
[ 7974 7965 7964 7962 ] final  106.10 input  175.53 | X-H torsion
[ 8008 7997 7996 7995 ] final  -74.21 input   59.86 | X-H torsion
[ 10167 10162 10161 10158 ] final   56.83 input  -65.29 | X-H torsion
[ 10718 10713 10712 10709 ] final   86.59 input   66.30 | X-H torsion
[ 10763 10752 10751 10750 ] final -175.73 input  -60.55 | X-H torsion
[ 11005 11000 10999 10996 ] final   71.40 input  -57.11 | X-H torsion

> <Gold.Protein.ActiveResidues>
 VAL166  LYS551  ARG553  GLY616  TRP617  ASP618  TYR619  PRO620  LYS621  CYS622 
 ASP623  PHE694  ASN695  SER759  ASP760  ASP761  ALA762  ILE779  LEU786  VAL792 
 PHE793  MET794  SER795  GLU796  ALA797  LYS798  CYS799  TRP800  GLU811  SER814 

> <Gold.Protein.RotatedAtoms>
  150.6919  134.1999  159.4317 H   0  0  0  0  0  0  0  0  0  0  0  0  # atno 6907 bound_to 6896
  151.9966  134.9948  160.0573 H   0  0  0  0  0  0  0  0  0  0  0  0  # atno 6908 bound_to 6896
  152.1617  133.4551  159.4901 H   0  0  0  0  0  0  0  0  0  0  0  0  # atno 6909 bound_to 6896
  145.3110  139.2540  143.3763 H   0  0  0  0  0  0  0  0  0  0  0  0  # atno 7974 bound_to 7965
  154.5311  140.0765  156.8347 H   0  0  0  0  0  0  0  0  0  0  0  0  # atno 8008 bound_to 7997
  155.3373  140.3405  155.4221 H   0  0  0  0  0  0  0  0  0  0  0  0  # atno 8009 bound_to 7997
  156.1782  140.1643  156.8310 H   0  0  0  0  0  0  0  0  0  0  0  0  # atno 8010 bound_to 7997
  140.2045  144.3953  150.6514 H   0  0  0  0  0  0  0  0  0  0  0  0  # atno 10167 bound_to 10162
  157.6930  131.0222  150.2996 H   0  0  0  0  0  0  0  0  0  0  0  0  # atno 10718 bound_to 10713
  154.5808  135.2836  155.0734 H   0  0  0  0  0  0  0  0  0  0  0  0  # atno 10763 bound_to 10752
  154.2071  135.6414  153.5108 H   0  0  0  0  0  0  0  0  0  0  0  0  # atno 10764 bound_to 10752
  153.0088  135.5483  154.6462 H   0  0  0  0  0  0  0  0  0  0  0  0  # atno 10765 bound_to 10752
  139.9545  134.7168  156.0784 H   0  0  0  0  0  0  0  0  0  0  0  0  # atno 11005 bound_to 11000
  146.3118  140.3646  142.8668 LP  0  0  0  0  0  0  0  0  0  0  0  0  # atno 17320 bound_to 7965
  144.9016  140.7649  143.5863 LP  0  0  0  0  0  0  0  0  0  0  0  0  # atno 17321 bound_to 7965
  140.6367  143.2196  151.6380 LP  0  0  0  0  0  0  0  0  0  0  0  0  # atno 17342 bound_to 10162
  139.5204  144.3225  152.0898 LP  0  0  0  0  0  0  0  0  0  0  0  0  # atno 17343 bound_to 10162
  156.3514  130.3831  149.7326 LP  0  0  0  0  0  0  0  0  0  0  0  0  # atno 17370 bound_to 10713
  156.4802  130.8037  151.3052 LP  0  0  0  0  0  0  0  0  0  0  0  0  # atno 17371 bound_to 10713
  141.1214  133.6611  156.3225 LP  0  0  0  0  0  0  0  0  0  0  0  0  # atno 17394 bound_to 11000
  140.5641  134.5905  157.5441 LP  0  0  0  0  0  0  0  0  0  0  0  0  # atno 17395 bound_to 11000

$$$$
