AV-unprocessed.smi:103|AV-procd|sdf|980|dock7
  -GOLD-   2262017543D 1   1.00000     0.00000
 Structure written by MMmdl.
 53 55  0  0  0  0  0  0  0  0  1 V2000
  153.8657  136.2289  162.9677 C   0  0  0  0  0  0  0  0  0  0  0  0
  154.3043  136.4551  161.5268 C   0  0  0  0  0  0  0  0  0  0  0  0
  155.4659  136.2597  161.1697 O   0  0  0  0  0  0  0  0  0  0  0  0
  153.2982  136.8717  160.7435 O   0  0  0  0  0  0  0  0  0  0  0  0
  153.5327  137.0922  159.3625 C   0  0  0  0  0  0  0  0  0  0  0  0
  152.1908  137.2132  158.6276 C   0  0  1  0  0  0  0  0  0  0  0  0
  151.1185  136.6922  159.4130 O   0  0  0  0  0  0  0  0  0  0  0  0
  149.9456  137.4049  159.1526 C   0  0  2  0  0  0  0  0  0  0  0  0
  148.8846  136.4499  158.6966 N   0  0  0  0  0  0  0  0  0  0  0  0
  147.7213  136.0511  159.3288 C   0  0  0  0  0  0  0  0  0  0  0  0
  147.1119  136.6122  160.9173 S   0  0  0  0  0  0  0  0  0  0  0  0
  146.1642  135.1519  161.5088 C   0  0  0  0  0  0  0  0  0  0  0  0
  148.2860  136.8049  161.7831 O   0  0  0  0  0  0  0  0  0  0  0  0
  146.1854  137.7255  160.6608 O   0  0  0  0  0  0  0  0  0  0  0  0
  146.9481  135.2318  158.6694 N   0  0  0  0  0  0  0  0  0  0  0  0
  147.6640  134.9873  157.5075 C   0  0  0  0  0  0  0  0  0  0  0  0
  147.4377  134.1814  156.3633 C   0  0  0  0  0  0  0  0  0  0  0  0
  146.3417  133.4266  156.2057 N   0  0  0  0  0  0  0  0  0  0  0  0
  148.3719  134.1714  155.3843 N   0  0  0  0  0  0  0  0  0  0  0  0
  149.4746  134.9146  155.5191 C   0  0  0  0  0  0  0  0  0  0  0  0
  149.8217  135.7184  156.5276 N   0  0  0  0  0  0  0  0  0  0  0  0
  148.8793  135.7302  157.5161 C   0  0  0  0  0  0  0  0  0  0  0  0
  150.2694  138.4426  158.0753 C   0  0  1  0  0  0  0  0  0  0  0  0
  149.4929  139.6204  158.2473 O   0  0  0  0  0  0  0  0  0  0  0  0
  149.7903  140.7314  157.5549 C   0  0  0  0  0  0  0  0  0  0  0  0
  148.9252  141.9156  157.9641 C   0  0  0  0  0  0  0  0  0  0  0  0
  150.6561  140.8346  156.6863 O   0  0  0  0  0  0  0  0  0  0  0  0
  151.7603  138.6469  158.3024 C   0  0  1  0  0  0  0  0  0  0  0  0
  152.0142  139.4885  159.4274 O   0  0  0  0  0  0  0  0  0  0  0  0
  153.2123  140.0783  159.5886 C   0  0  0  0  0  0  0  0  0  0  0  0
  153.1411  141.2890  160.5089 C   0  0  0  0  0  0  0  0  0  0  0  0
  154.2713  139.7273  159.0690 O   0  0  0  0  0  0  0  0  0  0  0  0
  153.2469  137.0575  163.3126 H   0  0  0  0  0  0  0  0  0  0  0  0
  154.7336  136.1507  163.6230 H   0  0  0  0  0  0  0  0  0  0  0  0
  153.2887  135.3076  163.0467 H   0  0  0  0  0  0  0  0  0  0  0  0
  154.1366  137.9884  159.2129 H   0  0  0  0  0  0  0  0  0  0  0  0
  154.0941  136.2463  158.9631 H   0  0  0  0  0  0  0  0  0  0  0  0
  152.2389  136.6542  157.6922 H   0  0  0  0  0  0  0  0  0  0  0  0
  149.5882  137.8570  160.0738 H   0  0  0  0  0  0  0  0  0  0  0  0
  145.7730  135.3546  162.5055 H   0  0  0  0  0  0  0  0  0  0  0  0
  146.8214  134.2833  161.5462 H   0  0  0  0  0  0  0  0  0  0  0  0
  145.3361  134.9521  160.8317 H   0  0  0  0  0  0  0  0  0  0  0  0
  145.6311  133.4165  156.9233 H   0  0  0  0  0  0  0  0  0  0  0  0
  146.2304  132.8669  155.3727 H   0  0  0  0  0  0  0  0  0  0  0  0
  150.1782  134.8591  154.7016 H   0  0  0  0  0  0  0  0  0  0  0  0
  150.1057  137.9978  157.0935 H   0  0  0  0  0  0  0  0  0  0  0  0
  147.8904  141.7483  157.6655 H   0  0  0  0  0  0  0  0  0  0  0  0
  149.2795  142.8311  157.4898 H   0  0  0  0  0  0  0  0  0  0  0  0
  148.9582  142.0522  159.0451 H   0  0  0  0  0  0  0  0  0  0  0  0
  152.2641  139.0109  157.4060 H   0  0  0  0  0  0  0  0  0  0  0  0
  152.4365  142.0220  160.1156 H   0  0  0  0  0  0  0  0  0  0  0  0
  154.1194  141.7622  160.5966 H   0  0  0  0  0  0  0  0  0  0  0  0
  152.8112  140.9894  161.5038 H   0  0  0  0  0  0  0  0  0  0  0  0
  1  2  1  0  0  0  0
  1 33  1  0  0  0  0
  1 34  1  0  0  0  0
  1 35  1  0  0  0  0
  2  3  2  0  0  0  0
  2  4  1  0  0  0  0
  4  5  1  0  0  0  0
  5  6  1  0  0  0  0
  5 36  1  0  0  0  0
  5 37  1  0  0  0  0
  6 28  1  0  0  0  0
  6  7  1  0  0  0  0
  6 38  1  0  0  0  0
  7  8  1  0  0  0  0
  8  9  1  0  0  0  0
  8 23  1  0  0  0  0
  8 39  1  0  0  0  0
  9 22  1  0  0  0  0
  9 10  1  0  0  0  0
 10 11  1  0  0  0  0
 10 15  2  0  0  0  0
 11 12  1  0  0  0  0
 11 13  2  0  0  0  0
 11 14  2  0  0  0  0
 12 40  1  0  0  0  0
 12 41  1  0  0  0  0
 12 42  1  0  0  0  0
 15 16  1  0  0  0  0
 16 22  2  0  0  0  0
 16 17  1  0  0  0  0
 17 18  1  0  0  0  0
 17 19  2  0  0  0  0
 18 43  1  0  0  0  0
 18 44  1  0  0  0  0
 19 20  1  0  0  0  0
 20 21  2  0  0  0  0
 20 45  1  0  0  0  0
 21 22  1  0  0  0  0
 23 24  1  0  0  0  0
 23 28  1  0  0  0  0
 23 46  1  0  0  0  0
 24 25  1  0  0  0  0
 25 26  1  0  0  0  0
 25 27  2  0  0  0  0
 26 47  1  0  0  0  0
 26 48  1  0  0  0  0
 26 49  1  0  0  0  0
 28 29  1  0  0  0  0
 28 50  1  0  0  0  0
 29 30  1  0  0  0  0
 30 31  1  0  0  0  0
 30 32  2  0  0  0  0
 31 51  1  0  0  0  0
 31 52  1  0  0  0  0
 31 53  1  0  0  0  0
M  END
> <s_m_source_file>
AV-unprocessed.smi

> <i_m_source_file_index>
103

> <i_lp_mmshare_version>
43012

> <i_f3d_flags>
0

> <s_epik_input>
W0NIM11DKD1PKU9bQ0gyXVtDQEBIXTFPW0NASF0oW0NAQEhdKE9DKD1PKVtDSDNdKVtDQEhdMU9DKD1PKVtDSDNdKW4oYyhuMilTKD1PKSg9TylbQ0gzXSljKGMyMyluW2NIXW5jM1tOSDJd

> <s_epik_cmdline>
J2VwaWtfcHl0aG9uJywgJy1waCcsICc3LjAnLCAnLXRuJywgJzgnLCAnLW1hJywgJzIwMCcsICctbWV0YWxfYmluZGluZycsICctaW1hZScsICc8aW5maWxlLm1hZT4nLCAnLW9tYWUnLCAnPG91dGZpbGUubWFlPic=

> <r_lp_tautomer_probability>
1

> <r_epik_Ionization_Penalty>
1.51338e-05

> <r_epik_Ionization_Penalty_Charging>
0

> <r_epik_Ionization_Penalty_Neutral>
1.51338e-05

> <r_epik_State_Penalty>
-0

> <r_epik_Charging_Adjusted_Penalty>
0

> <i_epik_Tot_Q>
0

> <i_epik_Tot_abs_Q>
0

> <r_epik_Metal_State_Penalty>
-0

> <b_epik_Metal_Only>
0

> <s_epik_Chemistry_Notes>
This compound has an ester and may undergo hydrolysis at high or low pH. This compound contains an acetal/aminal-like group ( X-CH(R)-Y where X, Y are N, S, or O) that may be acid/base labile, releasing an aldehyde.

> <s_lp_Force_Field>
OPLS_2005

> <r_lp_Energy>
20.0914

> <b_lp_Chiralities_Consistent>
1

> <s_lp_Variant>
AV-unprocessed.smi:103-4

> <Gold.Version>
5.8.1

> <Gold.Id.Protein>
6NUR|6NUR_protein|mol2

> <Gold.PLP.Fitness>
44.3325

> <Gold.PLP.PLP>
-34.9881

> <Gold.PLP.part.hbond>
-4.0829

> <Gold.PLP.part.metal>
0.0000

> <Gold.PLP.part.buried>
-6.8749

> <Gold.PLP.part.nonpolar>
-24.9020

> <Gold.PLP.part.repulsive>
0.0557

> <Gold.PLP.ligand.clash>
0.0000

> <Gold.PLP.ligand.torsion>
2.5656

> <Gold.PLP.Chemscore.Hbond>
3.9513

> <Gold.PLP.Chemscore.CHOScore>
0.0000

> <Gold.PLP.Chemscore.Metal>
0.0000

> <Gold.Chemscore.Hbonds>
donor molecule, donor type, donor heavy atom, donor atom, acceptor molecule, acceptor atom, score
      P1  H  6896  6908       L1     7  1.00
      P1  H  6931  6943       L1    13  1.00
      P1  H  6934  6947       L1    14  1.00
      P1  H  7997  8010       L1    32  1.00

> <Gold.PLP.Chemscore.Internal.Correction>
2.6219

> <Gold.Rescore>
     Score         DG    S(hbond)    S(metal)    S(lipo)     H(rot)  DE(clash)    DE(int)     intcor
      6.95     -11.83       3.58        0.00      45.09       4.25       0.02       4.86       ----

> <Gold.Chemscore.Fitness>
6.9509

> <Gold.Chemscore.DG>
-11.8322

> <Gold.Chemscore.ZeroCoef>
-5.4800

> <Gold.Chemscore.Hbond>
3.5766

> <Gold.Chemscore.Metal>
0.0000

> <Gold.Chemscore.Lipo>
45.0851

> <Gold.Chemscore.Internal_Hbond>
0.0000

> <Gold.Chemscore.DEClash>
0.0186

> <Gold.Chemscore.DEInternal>
4.8627

> <Gold.Chemscore.Rot>
4.2456

> <Gold.Chemscore.Internal.Correction>
   9.000000E+99

> <Gold.Chemscore.Hbonds>
donor molecule, donor type, donor heavy atom, donor atom, acceptor molecule, acceptor atom, score
      P1  H  6896  6908       L1     7  0.95
      P1  H  6931  6943       L1    13  0.98
      P1  H  6934  6947       L1    14  0.35
      P1  H  7997  8010       L1    32  0.99

> <Gold.Chemscore.Hbond.Weighted>
-11.9459

> <Gold.Chemscore.Metal.Weighted>
-0.0000

> <Gold.Chemscore.Lipo.Weighted>
-5.2750

> <Gold.Chemscore.Internal_Hbond.Weighted>
0.0000

> <Gold.Chemscore.DEClash.Weighted>
0.0186

> <Gold.Chemscore.DEInternal.Weighted>
4.8627

> <Gold.Chemscore.Rot.Weighted>
10.8687

> <Gold.Chemscore.Internal.Correction.Weighted>
   9.000000E+99

> <Gold.Protein.RotatedTorsions>
[ 6907 6896 6895 6894 ] final -146.73 input  -60.11 | X-H torsion
[ 7974 7965 7964 7962 ] final -143.84 input  175.53 | X-H torsion
[ 8008 7997 7996 7995 ] final   11.71 input   59.86 | X-H torsion
[ 10167 10162 10161 10158 ] final  142.61 input  -65.29 | X-H torsion
[ 10718 10713 10712 10709 ] final -159.70 input   66.30 | X-H torsion
[ 10763 10752 10751 10750 ] final -131.95 input  -60.55 | X-H torsion
[ 11005 11000 10999 10996 ] final  160.60 input  -57.11 | X-H torsion

> <Gold.Protein.ActiveResidues>
 VAL166  LYS551  ARG553  GLY616  TRP617  ASP618  TYR619  PRO620  LYS621  CYS622 
 ASP623  PHE694  ASN695  SER759  ASP760  ASP761  ALA762  ILE779  LEU786  VAL792 
 PHE793  MET794  SER795  GLU796  ALA797  LYS798  CYS799  TRP800  GLU811  SER814 

> <Gold.Protein.RotatedAtoms>
  151.1457  133.4941  159.2595 H   0  0  0  0  0  0  0  0  0  0  0  0  # atno 6907 bound_to 6896
  151.1607  135.0271  159.8719 H   0  0  0  0  0  0  0  0  0  0  0  0  # atno 6908 bound_to 6896
  152.5463  134.1332  159.8501 H   0  0  0  0  0  0  0  0  0  0  0  0  # atno 6909 bound_to 6896
  144.8340  140.5785  143.5496 H   0  0  0  0  0  0  0  0  0  0  0  0  # atno 7974 bound_to 7965
  154.8106  140.2867  155.5856 H   0  0  0  0  0  0  0  0  0  0  0  0  # atno 8008 bound_to 7997
  156.2988  140.2569  156.2923 H   0  0  0  0  0  0  0  0  0  0  0  0  # atno 8009 bound_to 7997
  154.9452  140.0380  157.2106 H   0  0  0  0  0  0  0  0  0  0  0  0  # atno 8010 bound_to 7997
  139.4990  144.6095  151.6302 H   0  0  0  0  0  0  0  0  0  0  0  0  # atno 10167 bound_to 10162
  156.5718  130.8691  151.2840 H   0  0  0  0  0  0  0  0  0  0  0  0  # atno 10718 bound_to 10713
  154.8747  135.3813  154.4329 H   0  0  0  0  0  0  0  0  0  0  0  0  # atno 10763 bound_to 10752
  153.5022  135.7030  153.5831 H   0  0  0  0  0  0  0  0  0  0  0  0  # atno 10764 bound_to 10752
  153.4158  135.3913  155.2046 H   0  0  0  0  0  0  0  0  0  0  0  0  # atno 10765 bound_to 10752
  140.2075  134.8292  157.3085 H   0  0  0  0  0  0  0  0  0  0  0  0  # atno 11005 bound_to 11000
  145.4834  139.1494  143.3749 LP  0  0  0  0  0  0  0  0  0  0  0  0  # atno 17320 bound_to 7965
  146.2641  140.4970  142.8841 LP  0  0  0  0  0  0  0  0  0  0  0  0  # atno 17321 bound_to 7965
  140.5766  144.0017  150.6245 LP  0  0  0  0  0  0  0  0  0  0  0  0  # atno 17342 bound_to 10162
  140.3153  143.3172  152.0839 LP  0  0  0  0  0  0  0  0  0  0  0  0  # atno 17343 bound_to 10162
  157.7346  130.9749  150.2040 LP  0  0  0  0  0  0  0  0  0  0  0  0  # atno 17370 bound_to 10713
  156.2708  130.3721  149.8033 LP  0  0  0  0  0  0  0  0  0  0  0  0  # atno 17371 bound_to 10713
  140.1987  134.4282  155.7675 LP  0  0  0  0  0  0  0  0  0  0  0  0  # atno 17394 bound_to 11000
  141.2227  133.7061  156.8147 LP  0  0  0  0  0  0  0  0  0  0  0  0  # atno 17395 bound_to 11000

$$$$
