AV-unprocessed.smi:2329|AV-procd|sdf|9309|dock1
  -GOLD-   2272012523D 1   1.00000     0.00000
 Structure written by MMmdl.
 45 48  0  0  0  0  0  0  0  0  1 V2000
  145.2570  142.5804  156.1838 C   0  0  0  0  0  0  0  0  0  0  0  0
  146.5285  142.1363  155.4914 C   0  0  0  0  0  0  0  0  0  0  0  0
  146.5407  141.8474  154.1126 C   0  0  0  0  0  0  0  0  0  0  0  0
  147.7545  141.4394  153.5315 C   0  0  0  0  0  0  0  0  0  0  0  0
  148.8979  141.3377  154.3469 C   0  0  0  0  0  0  0  0  0  0  0  0
  148.8001  141.6471  155.7220 C   0  0  0  0  0  0  0  0  0  0  0  0
  150.0061  141.5048  156.4556 N   0  0  0  0  0  0  0  0  0  0  0  0
  150.1921  141.5828  157.7876 C   0  0  0  0  0  0  0  0  0  0  0  0
  149.3291  141.9123  158.5992 O   0  0  0  0  0  0  0  0  0  0  0  0
  151.4394  141.2729  158.1825 N   0  0  0  0  0  0  0  0  0  0  0  0
  151.9670  141.2587  159.5479 C   0  0  1  0  0  0  0  0  0  0  0  0
  153.3519  140.6139  159.6206 C   0  0  2  0  0  0  0  0  0  0  0  0
  153.8841  139.3566  160.2108 C   0  0  0  0  0  0  0  0  0  0  0  0
  155.1211  139.9607  160.9271 C   0  0  0  0  0  0  0  0  0  0  0  0
  154.9591  141.3979  160.8544 O   0  0  0  0  0  0  0  0  0  0  0  0
  153.5598  141.5761  160.7709 C   0  0  1  0  0  0  0  0  0  0  0  0
  152.7063  142.5861  159.9786 C   0  0  0  0  0  0  0  0  0  0  0  0
  153.3974  143.4649  158.9209 C   0  0  0  0  0  0  0  0  0  0  0  0
  152.5055  144.6838  158.7067 C   0  0  0  0  0  0  0  0  0  0  0  0
  151.8768  144.9411  160.0717 C   0  0  0  0  0  0  0  0  0  0  0  0
  151.9043  143.5966  160.8091 C   0  0  0  0  0  0  0  0  0  0  0  0
  147.6250  142.0398  156.2737 N   0  0  0  0  0  0  0  0  0  0  0  0
  144.4030  142.5402  155.5071 H   0  0  0  0  0  0  0  0  0  0  0  0
  145.3602  143.6047  156.5432 H   0  0  0  0  0  0  0  0  0  0  0  0
  145.0440  141.9365  157.0376 H   0  0  0  0  0  0  0  0  0  0  0  0
  145.6459  141.9349  153.5141 H   0  0  0  0  0  0  0  0  0  0  0  0
  147.8091  141.2074  152.4781 H   0  0  0  0  0  0  0  0  0  0  0  0
  149.8382  141.0246  153.9165 H   0  0  0  0  0  0  0  0  0  0  0  0
  150.8185  141.2591  155.9095 H   0  0  0  0  0  0  0  0  0  0  0  0
  152.0989  141.0415  157.4535 H   0  0  0  0  0  0  0  0  0  0  0  0
  151.2719  140.8624  160.2941 H   0  0  0  0  0  0  0  0  0  0  0  0
  153.9442  140.8815  158.7400 H   0  0  0  0  0  0  0  0  0  0  0  0
  153.1819  138.9080  160.9149 H   0  0  0  0  0  0  0  0  0  0  0  0
  154.1558  138.6165  159.4576 H   0  0  0  0  0  0  0  0  0  0  0  0
  155.1649  139.6349  161.9672 H   0  0  0  0  0  0  0  0  0  0  0  0
  156.0544  139.6732  160.4425 H   0  0  0  0  0  0  0  0  0  0  0  0
  153.0739  141.2676  161.7039 H   0  0  0  0  0  0  0  0  0  0  0  0
  154.3700  143.7913  159.2917 H   0  0  0  0  0  0  0  0  0  0  0  0
  153.5787  142.9538  157.9755 H   0  0  0  0  0  0  0  0  0  0  0  0
  153.0554  145.5457  158.3274 H   0  0  0  0  0  0  0  0  0  0  0  0
  151.7251  144.4460  157.9834 H   0  0  0  0  0  0  0  0  0  0  0  0
  152.4740  145.6704  160.6202 H   0  0  0  0  0  0  0  0  0  0  0  0
  150.8668  145.3433  159.9838 H   0  0  0  0  0  0  0  0  0  0  0  0
  150.8884  143.2422  160.9825 H   0  0  0  0  0  0  0  0  0  0  0  0
  152.3490  143.7304  161.7958 H   0  0  0  0  0  0  0  0  0  0  0  0
  1  2  1  0  0  0  0
  1 23  1  0  0  0  0
  1 24  1  0  0  0  0
  1 25  1  0  0  0  0
  2 22  1  0  0  0  0
  2  3  2  0  0  0  0
  3  4  1  0  0  0  0
  3 26  1  0  0  0  0
  4  5  2  0  0  0  0
  4 27  1  0  0  0  0
  5  6  1  0  0  0  0
  5 28  1  0  0  0  0
  6  7  1  0  0  0  0
  6 22  2  0  0  0  0
  7  8  1  0  0  0  0
  7 29  1  0  0  0  0
  8  9  2  0  0  0  0
  8 10  1  0  0  0  0
 10 11  1  0  0  0  0
 10 30  1  0  0  0  0
 11 17  1  0  0  0  0
 11 12  1  0  0  0  0
 11 31  1  0  0  0  0
 12 16  1  0  0  0  0
 12 13  1  0  0  0  0
 12 32  1  0  0  0  0
 13 14  1  0  0  0  0
 13 33  1  0  0  0  0
 13 34  1  0  0  0  0
 14 15  1  0  0  0  0
 14 35  1  0  0  0  0
 14 36  1  0  0  0  0
 15 16  1  0  0  0  0
 16 17  1  0  0  0  0
 16 37  1  0  0  0  0
 17 21  1  0  0  0  0
 17 18  1  0  0  0  0
 18 19  1  0  0  0  0
 18 38  1  0  0  0  0
 18 39  1  0  0  0  0
 19 20  1  0  0  0  0
 19 40  1  0  0  0  0
 19 41  1  0  0  0  0
 20 21  1  0  0  0  0
 20 42  1  0  0  0  0
 20 43  1  0  0  0  0
 21 44  1  0  0  0  0
 21 45  1  0  0  0  0
M  END
> <s_m_source_file>
AV-unprocessed.smi

> <i_m_source_file_index>
2329

> <i_lp_mmshare_version>
43012

> <i_f3d_flags>
0

> <s_epik_input>
W0NIM11jMVtjSF1bY0hdW2NIXWMobjEpW05IXUMoPU8pW05IXVtDQEBIXTJbQ0BASF0oW0NIMl1bQ0gyXU8zKVtDQEhdM0MyNFtDSDJdW0NIMl1bQ0gyXVtDSDJdNA==

> <s_epik_cmdline>
J2VwaWtfcHl0aG9uJywgJy1waCcsICc3LjAnLCAnLXRuJywgJzgnLCAnLW1hJywgJzIwMCcsICctbWV0YWxfYmluZGluZycsICctaW1hZScsICc8aW5maWxlLm1hZT4nLCAnLW9tYWUnLCAnPG91dGZpbGUubWFlPic=

> <r_lp_tautomer_probability>
1

> <r_epik_Ionization_Penalty>
8.97002e-05

> <r_epik_Ionization_Penalty_Charging>
0

> <r_epik_Ionization_Penalty_Neutral>
8.97002e-05

> <r_epik_State_Penalty>
-0

> <r_epik_Charging_Adjusted_Penalty>
0

> <i_epik_Tot_Q>
0

> <i_epik_Tot_abs_Q>
0

> <r_epik_Metal_State_Penalty>
-0

> <b_epik_Metal_Only>
0

> <s_lp_Force_Field>
OPLS_2005

> <r_lp_Energy>
86.4026

> <b_lp_Chiralities_Consistent>
1

> <s_lp_Variant>
AV-unprocessed.smi:2329-8

> <Gold.Version>
5.8.1

> <Gold.Id.Protein>
6NUR|6NUR_protein|mol2

> <Gold.PLP.Fitness>
47.6249

> <Gold.PLP.PLP>
-47.8184

> <Gold.PLP.part.hbond>
-1.6036

> <Gold.PLP.part.metal>
0.0000

> <Gold.PLP.part.buried>
-4.2258

> <Gold.PLP.part.nonpolar>
-41.1699

> <Gold.PLP.part.repulsive>
0.8843

> <Gold.PLP.ligand.clash>
0.0000

> <Gold.PLP.ligand.torsion>
0.2362

> <Gold.PLP.Chemscore.Hbond>
0.0000

> <Gold.PLP.Chemscore.CHOScore>
0.0000

> <Gold.PLP.Chemscore.Metal>
0.0000

> <Gold.PLP.Chemscore.Internal.Correction>
0.2790

> <Gold.Rescore>
     Score         DG    S(hbond)    S(metal)    S(lipo)     H(rot)  DE(clash)    DE(int)     intcor
     16.13     -17.88       0.00        0.00     127.86       1.00       0.24       1.52       ----

> <Gold.Chemscore.Fitness>
16.1276

> <Gold.Chemscore.DG>
-17.8791

> <Gold.Chemscore.ZeroCoef>
-5.4800

> <Gold.Chemscore.Hbond>
0.0000

> <Gold.Chemscore.Metal>
0.0000

> <Gold.Chemscore.Lipo>
127.8556

> <Gold.Chemscore.Internal_Hbond>
0.0000

> <Gold.Chemscore.DEClash>
0.2365

> <Gold.Chemscore.DEInternal>
1.5150

> <Gold.Chemscore.Rot>
1.0000

> <Gold.Chemscore.Internal.Correction>
   9.000000E+99

> <Gold.Chemscore.Hbond.Weighted>
-0.0000

> <Gold.Chemscore.Metal.Weighted>
-0.0000

> <Gold.Chemscore.Lipo.Weighted>
-14.9591

> <Gold.Chemscore.Internal_Hbond.Weighted>
0.0000

> <Gold.Chemscore.DEClash.Weighted>
0.2365

> <Gold.Chemscore.DEInternal.Weighted>
1.5150

> <Gold.Chemscore.Rot.Weighted>
2.5600

> <Gold.Chemscore.Internal.Correction.Weighted>
   9.000000E+99

> <Gold.Protein.RotatedTorsions>
[ 6907 6896 6895 6894 ] final  132.76 input  -60.11 | X-H torsion
[ 7974 7965 7964 7962 ] final   79.91 input  175.53 | X-H torsion
[ 8008 7997 7996 7995 ] final  129.01 input   59.86 | X-H torsion
[ 10167 10162 10161 10158 ] final  -28.49 input  -65.29 | X-H torsion
[ 10718 10713 10712 10709 ] final   46.66 input   66.30 | X-H torsion
[ 10763 10752 10751 10750 ] final   38.59 input  -60.55 | X-H torsion
[ 11005 11000 10999 10996 ] final  169.81 input  -57.11 | X-H torsion

> <Gold.Protein.ActiveResidues>
 VAL166  LYS551  ARG553  GLY616  TRP617  ASP618  TYR619  PRO620  LYS621  CYS622 
 ASP623  PHE694  ASN695  SER759  ASP760  ASP761  ALA762  ILE779  LEU786  VAL792 
 PHE793  MET794  SER795  GLU796  ALA797  LYS798  CYS799  TRP800  GLU811  SER814 

> <Gold.Protein.RotatedAtoms>
  152.3291  133.5938  159.5796 H   0  0  0  0  0  0  0  0  0  0  0  0  # atno 6907 bound_to 6896
  150.7413  133.9896  159.3611 H   0  0  0  0  0  0  0  0  0  0  0  0  # atno 6908 bound_to 6896
  151.7773  135.0771  160.0419 H   0  0  0  0  0  0  0  0  0  0  0  0  # atno 6909 bound_to 6896
  145.6580  139.2464  143.1939 H   0  0  0  0  0  0  0  0  0  0  0  0  # atno 7974 bound_to 7965
  156.2927  140.2631  156.2530 H   0  0  0  0  0  0  0  0  0  0  0  0  # atno 8008 bound_to 7997
  154.9864  140.0389  157.2319 H   0  0  0  0  0  0  0  0  0  0  0  0  # atno 8009 bound_to 7997
  154.7725  140.2780  155.6131 H   0  0  0  0  0  0  0  0  0  0  0  0  # atno 8010 bound_to 7997
  140.7269  143.4006  151.1272 H   0  0  0  0  0  0  0  0  0  0  0  0  # atno 10167 bound_to 10162
  157.4504  130.8135  149.7783 H   0  0  0  0  0  0  0  0  0  0  0  0  # atno 10718 bound_to 10713
  152.9996  135.6245  154.2329 H   0  0  0  0  0  0  0  0  0  0  0  0  # atno 10763 bound_to 10752
  154.2071  135.2801  155.2973 H   0  0  0  0  0  0  0  0  0  0  0  0  # atno 10764 bound_to 10752
  154.5637  135.5697  153.7089 H   0  0  0  0  0  0  0  0  0  0  0  0  # atno 10765 bound_to 10752
  140.3017  134.7590  157.3921 H   0  0  0  0  0  0  0  0  0  0  0  0  # atno 11005 bound_to 11000
  146.1149  140.7382  142.9485 LP  0  0  0  0  0  0  0  0  0  0  0  0  # atno 17320 bound_to 7965
  144.7099  140.3998  143.7089 LP  0  0  0  0  0  0  0  0  0  0  0  0  # atno 17321 bound_to 7965
  139.7625  143.8614  152.3103 LP  0  0  0  0  0  0  0  0  0  0  0  0  # atno 17342 bound_to 10162
  139.8505  144.7166  150.9220 LP  0  0  0  0  0  0  0  0  0  0  0  0  # atno 17343 bound_to 10162
  155.9985  130.3894  150.2701 LP  0  0  0  0  0  0  0  0  0  0  0  0  # atno 17370 bound_to 10713
  157.0872  131.0159  151.3135 LP  0  0  0  0  0  0  0  0  0  0  0  0  # atno 17371 bound_to 10713
  140.1103  134.5354  155.8272 LP  0  0  0  0  0  0  0  0  0  0  0  0  # atno 17394 bound_to 11000
  141.2127  133.6722  156.6677 LP  0  0  0  0  0  0  0  0  0  0  0  0  # atno 17395 bound_to 11000

$$$$
