AV-unprocessed.smi:3096|AV-procd|sdf|11797|dock2
  -GOLD-   2272017173D 1   1.00000     0.00000
 Structure written by MMmdl.
 33 33  0  0  0  0  0  0  0  0  2 V2000
  152.1803  138.4343  154.5192 C   0  0  0  0  0  0  0  0  0  0  0  0
  151.0032  138.5231  153.8757 C   0  0  0  0  0  0  0  0  0  0  0  0
  149.6138  138.4285  154.4899 C   0  0  0  0  0  0  0  0  0  0  0  0
  148.8783  139.7012  154.3992 N   0  0  0  0  0  0  0  0  0  0  0  0
  149.2669  140.8813  154.9221 C   0  0  0  0  0  0  0  0  0  0  0  0
  148.5027  141.9776  154.7516 N   0  3  0  0  0  0  0  0  0  0  0  0
  147.2324  142.0274  154.0181 C   0  0  0  0  0  0  0  0  0  0  0  0
  150.4167  140.9646  155.6184 N   0  0  0  0  0  0  0  0  0  0  0  0
  150.9628  142.1698  156.2566 C   0  0  0  0  0  0  0  0  0  0  0  0
  151.2437  141.9376  157.7491 C   0  0  0  0  0  0  0  0  0  0  0  0
  151.6196  143.1619  158.4325 N   0  0  0  0  0  0  0  0  0  0  0  0
  151.4938  144.4622  157.9914 C   0  0  0  0  0  0  0  0  0  0  0  0
  151.9745  145.2741  158.9784 C   0  0  0  0  0  0  0  0  0  0  0  0
  152.3782  144.3663  159.9969 C   0  0  0  0  0  0  0  0  0  0  0  0
  152.1641  143.1026  159.6677 N   0  0  0  0  0  0  0  0  0  0  0  0
  152.2452  138.2789  155.5861 H   0  0  0  0  0  0  0  0  0  0  0  0
  153.1091  138.5179  153.9741 H   0  0  0  0  0  0  0  0  0  0  0  0
  151.0193  138.6801  152.8070 H   0  0  0  0  0  0  0  0  0  0  0  0
  149.0493  137.6553  153.9687 H   0  0  0  0  0  0  0  0  0  0  0  0
  149.6948  138.1232  155.5335 H   0  0  0  0  0  0  0  0  0  0  0  0
  148.0079  139.6744  153.8877 H   0  0  0  0  0  0  0  0  0  0  0  0
  146.8278  143.0393  154.0353 H   0  0  0  0  0  0  0  0  0  0  0  0
  146.5037  141.3559  154.4724 H   0  0  0  0  0  0  0  0  0  0  0  0
  147.3805  141.7318  152.9793 H   0  0  0  0  0  0  0  0  0  0  0  0
  150.9510  140.1168  155.7495 H   0  0  0  0  0  0  0  0  0  0  0  0
  151.8925  142.4328  155.7516 H   0  0  0  0  0  0  0  0  0  0  0  0
  150.2737  143.0033  156.1172 H   0  0  0  0  0  0  0  0  0  0  0  0
  150.3707  141.5091  158.2440 H   0  0  0  0  0  0  0  0  0  0  0  0
  152.0524  141.2154  157.8666 H   0  0  0  0  0  0  0  0  0  0  0  0
  151.0767  144.6992  157.0237 H   0  0  0  0  0  0  0  0  0  0  0  0
  152.0295  146.3526  158.9737 H   0  0  0  0  0  0  0  0  0  0  0  0
  152.8165  144.5867  160.9590 H   0  0  0  0  0  0  0  0  0  0  0  0
  148.8187  142.8463  155.1589 H   0  0  0  0  0  0  0  0  0  0  0  0
  1  2  2  0  0  0  0
  1 16  1  0  0  0  0
  1 17  1  0  0  0  0
  2  3  1  0  0  0  0
  2 18  1  0  0  0  0
  3  4  1  0  0  0  0
  3 19  1  0  0  0  0
  3 20  1  0  0  0  0
  4  5  1  0  0  0  0
  4 21  1  0  0  0  0
  5  6  2  0  0  0  0
  5  8  1  0  0  0  0
  6  7  1  0  0  0  0
  6 33  1  0  0  0  0
  7 22  1  0  0  0  0
  7 23  1  0  0  0  0
  7 24  1  0  0  0  0
  8  9  1  0  0  0  0
  8 25  1  0  0  0  0
  9 10  1  0  0  0  0
  9 26  1  0  0  0  0
  9 27  1  0  0  0  0
 10 11  1  0  0  0  0
 10 28  1  0  0  0  0
 10 29  1  0  0  0  0
 11 15  1  0  0  0  0
 11 12  1  0  0  0  0
 12 13  2  0  0  0  0
 12 30  1  0  0  0  0
 13 14  1  0  0  0  0
 13 31  1  0  0  0  0
 14 15  2  0  0  0  0
 14 32  1  0  0  0  0
M  CHG  1   6   1
M  END
> <s_m_source_file>
AV-unprocessed.smi

> <i_m_source_file_index>
3096

> <i_lp_mmshare_version>
43012

> <i_f3d_flags>
0

> <s_epik_input>
W0NIMl09W0NIXVtDSDJdW05IXS9DKD1OL1tDSDNdKVtOSF1bQ0gyXVtDSDJdbjFbY0hdW2NIXVtjSF1uMQ==

> <s_epik_cmdline>
J2VwaWtfcHl0aG9uJywgJy1waCcsICc3LjAnLCAnLXRuJywgJzgnLCAnLW1hJywgJzIwMCcsICctbWV0YWxfYmluZGluZycsICctaW1hZScsICc8aW5maWxlLm1hZT4nLCAnLW9tYWUnLCAnPG91dGZpbGUubWFlPic=

> <r_lp_tautomer_probability>
1

> <r_epik_Ionization_Penalty>
5.14269e-05

> <r_epik_Ionization_Penalty_Charging>
1.55211e-07

> <r_epik_Ionization_Penalty_Neutral>
5.12717e-05

> <r_epik_State_Penalty>
-0

> <r_epik_Charging_Adjusted_Penalty>
1.55211e-07

> <i_epik_Tot_Q>
1

> <i_epik_Tot_abs_Q>
1

> <r_epik_Metal_State_Penalty>
-0

> <b_epik_Metal_Only>
0

> <s_epik_Chemistry_Notes>
This compound has an imine and may undergo hydrolysis.

> <s_lp_Force_Field>
OPLS_2005

> <r_lp_Energy>
6.72739

> <b_lp_Chiralities_Consistent>
1

> <s_lp_Variant>
AV-unprocessed.smi:3096-2

> <Gold.Version>
5.8.1

> <Gold.Id.Protein>
6NUR|6NUR_protein|mol2

> <Gold.PLP.Fitness>
44.9211

> <Gold.PLP.PLP>
-36.3151

> <Gold.PLP.part.hbond>
-1.0000

> <Gold.PLP.part.metal>
0.0000

> <Gold.PLP.part.buried>
-7.7893

> <Gold.PLP.part.nonpolar>
-28.8855

> <Gold.PLP.part.repulsive>
0.3738

> <Gold.PLP.ligand.clash>
0.0000

> <Gold.PLP.ligand.torsion>
0.2093

> <Gold.PLP.Chemscore.Hbond>
2.0000

> <Gold.PLP.Chemscore.CHOScore>
1.0000

> <Gold.PLP.Chemscore.Metal>
0.0000

> <Gold.Chemscore.Hbonds>
donor molecule, donor type, donor heavy atom, donor atom, acceptor molecule, acceptor atom, score
      L1  H     6    33       P1  8028  2.00
      L1  C    12    30       P1  8028  0.97

> <Gold.PLP.Chemscore.Internal.Correction>
0.0246

> <Gold.Rescore>
     Score         DG    S(hbond)    S(metal)    S(lipo)     H(rot)  DE(clash)    DE(int)     intcor
     14.01     -14.11       0.99        0.00      86.72       1.89       0.02       0.07       ----

> <Gold.Chemscore.Fitness>
14.0119

> <Gold.Chemscore.DG>
-14.1064

> <Gold.Chemscore.ZeroCoef>
-5.4800

> <Gold.Chemscore.Hbond>
0.9930

> <Gold.Chemscore.Metal>
0.0000

> <Gold.Chemscore.Lipo>
86.7179

> <Gold.Chemscore.Internal_Hbond>
0.0000

> <Gold.Chemscore.DEClash>
0.0226

> <Gold.Chemscore.DEInternal>
0.0719

> <Gold.Chemscore.Rot>
1.8891

> <Gold.Chemscore.Internal.Correction>
   9.000000E+99

> <Gold.Chemscore.Hbonds>
donor molecule, donor type, donor heavy atom, donor atom, acceptor molecule, acceptor atom, score
      L1  H     6    33       P1  8028  0.99

> <Gold.Chemscore.Hbond.Weighted>
-3.3165

> <Gold.Chemscore.Metal.Weighted>
-0.0000

> <Gold.Chemscore.Lipo.Weighted>
-10.1460

> <Gold.Chemscore.Internal_Hbond.Weighted>
0.0000

> <Gold.Chemscore.DEClash.Weighted>
0.0226

> <Gold.Chemscore.DEInternal.Weighted>
0.0719

> <Gold.Chemscore.Rot.Weighted>
4.8361

> <Gold.Chemscore.Internal.Correction.Weighted>
   9.000000E+99

> <Gold.Protein.RotatedTorsions>
[ 6907 6896 6895 6894 ] final   30.58 input  -60.11 | X-H torsion
[ 7974 7965 7964 7962 ] final  130.50 input  175.53 | X-H torsion
[ 8008 7997 7996 7995 ] final -106.37 input   59.86 | X-H torsion
[ 10167 10162 10161 10158 ] final  158.95 input  -65.29 | X-H torsion
[ 10718 10713 10712 10709 ] final   96.53 input   66.30 | X-H torsion
[ 10763 10752 10751 10750 ] final  -90.92 input  -60.55 | X-H torsion
[ 11005 11000 10999 10996 ] final  156.25 input  -57.11 | X-H torsion

> <Gold.Protein.ActiveResidues>
 VAL166  LYS551  ARG553  GLY616  TRP617  ASP618  TYR619  PRO620  LYS621  CYS622 
 ASP623  PHE694  ASN695  SER759  ASP760  ASP761  ALA762  ILE779  LEU786  VAL792 
 PHE793  MET794  SER795  GLU796  ALA797  LYS798  CYS799  TRP800  GLU811  SER814 

> <Gold.Protein.RotatedAtoms>
  152.0480  134.9671  160.0574 H   0  0  0  0  0  0  0  0  0  0  0  0  # atno 6907 bound_to 6896
  152.1083  133.4282  159.4627 H   0  0  0  0  0  0  0  0  0  0  0  0  # atno 6908 bound_to 6896
  150.6842  134.2597  159.4587 H   0  0  0  0  0  0  0  0  0  0  0  0  # atno 6909 bound_to 6896
  145.0173  139.4164  143.5215 H   0  0  0  0  0  0  0  0  0  0  0  0  # atno 7974 bound_to 7965
  154.9135  140.0409  157.1959 H   0  0  0  0  0  0  0  0  0  0  0  0  # atno 8008 bound_to 7997
  154.8325  140.2901  155.5691 H   0  0  0  0  0  0  0  0  0  0  0  0  # atno 8009 bound_to 7997
  156.2987  140.2498  156.3253 H   0  0  0  0  0  0  0  0  0  0  0  0  # atno 8010 bound_to 7997
  139.4829  144.4776  151.8489 H   0  0  0  0  0  0  0  0  0  0  0  0  # atno 10167 bound_to 10162
  157.6925  131.0581  150.4506 H   0  0  0  0  0  0  0  0  0  0  0  0  # atno 10718 bound_to 10713
  154.6707  135.5287  153.8134 H   0  0  0  0  0  0  0  0  0  0  0  0  # atno 10763 bound_to 10752
  153.0499  135.6528  154.0729 H   0  0  0  0  0  0  0  0  0  0  0  0  # atno 10764 bound_to 10752
  154.0628  135.2960  155.3301 H   0  0  0  0  0  0  0  0  0  0  0  0  # atno 10765 bound_to 10752
  140.1657  134.8578  157.2630 H   0  0  0  0  0  0  0  0  0  0  0  0  # atno 11005 bound_to 11000
  146.3480  139.9651  142.8713 LP  0  0  0  0  0  0  0  0  0  0  0  0  # atno 17320 bound_to 7965
  145.1943  140.9826  143.4193 LP  0  0  0  0  0  0  0  0  0  0  0  0  # atno 17321 bound_to 7965
  140.4250  144.2192  150.5887 LP  0  0  0  0  0  0  0  0  0  0  0  0  # atno 17342 bound_to 10162
  140.4836  143.2371  151.8920 LP  0  0  0  0  0  0  0  0  0  0  0  0  # atno 17343 bound_to 10162
  156.4857  130.4084  149.6435 LP  0  0  0  0  0  0  0  0  0  0  0  0  # atno 17370 bound_to 10713
  156.3464  130.7409  151.2362 LP  0  0  0  0  0  0  0  0  0  0  0  0  # atno 17371 bound_to 10713
  140.2436  134.3766  155.7470 LP  0  0  0  0  0  0  0  0  0  0  0  0  # atno 17394 bound_to 11000
  141.2213  133.7278  156.8827 LP  0  0  0  0  0  0  0  0  0  0  0  0  # atno 17395 bound_to 11000

$$$$
