AV-unprocessed.smi:21|AV-procd|sdf|158|dock9
  -GOLD-   2262015393D 1   1.00000     0.00000
 Structure written by MMmdl.
 61 64  0  0  0  0  0  0  0  0  1 V2000
  146.5624  143.5303  160.1823 C   0  0  0  0  0  0  0  0  0  0  0  0
  147.4971  142.5716  159.7133 O   0  0  0  0  0  0  0  0  0  0  0  0
  148.2980  143.0429  158.6390 C   0  0  2  0  0  0  0  0  0  0  0  0
  148.9177  141.9056  157.8059 C   0  0  0  0  0  0  0  0  0  0  0  0
  150.4357  142.1026  157.9459 C   0  0  1  0  0  0  0  0  0  0  0  0
  151.2355  141.6264  156.7124 C   0  0  0  0  0  0  0  0  0  0  0  0
  150.9481  140.2409  156.3406 N   0  0  0  0  0  0  0  0  0  0  0  0
  150.1250  140.0089  155.1545 C   0  0  0  0  0  0  0  0  0  0  0  0
  151.0796  139.2368  157.2578 C   0  0  0  0  0  0  0  0  0  0  0  0
  150.1540  138.2388  157.2589 N   0  0  0  0  0  0  0  0  0  0  0  0
  150.2203  137.2381  158.1398 C   0  0  0  0  0  0  0  0  0  0  0  0
  151.1219  137.0323  159.0986 N   0  0  0  0  0  0  0  0  0  0  0  0
  152.0649  138.0157  159.1061 C   0  0  0  0  0  0  0  0  0  0  0  0
  152.1224  139.1427  158.2329 C   0  0  0  0  0  0  0  0  0  0  0  0
  153.2380  139.9108  158.5539 N   0  0  0  0  0  0  0  0  0  0  0  0
  153.7965  139.2849  159.5517 C   0  0  0  0  0  0  0  0  0  0  0  0
  153.1621  138.1302  159.9421 N   0  0  0  0  0  0  0  0  0  0  0  0
  153.5739  137.2398  161.0142 C   0  0  0  0  0  0  0  0  0  0  0  0
  154.9335  137.6334  161.6413 C   0  0  1  0  0  0  0  0  0  0  0  0
  154.8318  139.0028  162.3533 C   0  0  0  0  0  0  0  0  0  0  0  0
  156.0994  139.6226  162.4183 O   0  0  0  0  0  0  0  0  0  0  0  0
  155.5252  136.5095  162.5384 C   0  0  2  0  0  0  0  0  0  0  0  0
  155.5157  135.1057  161.9382 C   0  0  0  0  0  0  0  0  0  0  0  0
  155.3483  134.2186  163.1638 C   0  0  0  0  0  0  0  0  0  0  0  0
  154.4406  134.9619  163.9584 O   0  0  0  0  0  0  0  0  0  0  0  0
  154.8337  136.3273  163.9020 C   0  0  0  0  0  0  0  0  0  0  0  0
  150.6018  143.5104  158.2678 N   0  0  0  0  0  0  0  0  0  0  0  0
  151.9033  143.8315  158.8389 C   0  0  0  0  0  0  0  0  0  0  0  0
  149.5186  143.7830  159.1917 C   0  0  0  0  0  0  0  0  0  0  0  0
  147.7307  143.7180  157.9954 H   0  0  0  0  0  0  0  0  0  0  0  0
  150.7539  141.5238  158.8146 H   0  0  0  0  0  0  0  0  0  0  0  0
  145.9838  143.1044  161.0018 H   0  0  0  0  0  0  0  0  0  0  0  0
  145.8636  143.8294  159.4007 H   0  0  0  0  0  0  0  0  0  0  0  0
  147.0677  144.4212  160.5571 H   0  0  0  0  0  0  0  0  0  0  0  0
  148.6213  140.9146  158.1512 H   0  0  0  0  0  0  0  0  0  0  0  0
  148.6023  142.0024  156.7662 H   0  0  0  0  0  0  0  0  0  0  0  0
  151.0028  142.2768  155.8687 H   0  0  0  0  0  0  0  0  0  0  0  0
  152.3066  141.7469  156.8584 H   0  0  0  0  0  0  0  0  0  0  0  0
  150.4690  139.1278  154.6114 H   0  0  0  0  0  0  0  0  0  0  0  0
  150.1734  140.8545  154.4685 H   0  0  0  0  0  0  0  0  0  0  0  0
  149.0803  139.8615  155.4305 H   0  0  0  0  0  0  0  0  0  0  0  0
  149.4383  136.4968  158.0656 H   0  0  0  0  0  0  0  0  0  0  0  0
  154.6966  139.6457  160.0281 H   0  0  0  0  0  0  0  0  0  0  0  0
  152.7874  137.2513  161.7695 H   0  0  0  0  0  0  0  0  0  0  0  0
  153.6137  136.2197  160.6309 H   0  0  0  0  0  0  0  0  0  0  0  0
  155.6401  137.7581  160.8191 H   0  0  0  0  0  0  0  0  0  0  0  0
  154.1438  139.6698  161.8338 H   0  0  0  0  0  0  0  0  0  0  0  0
  154.4633  138.8984  163.3731 H   0  0  0  0  0  0  0  0  0  0  0  0
  155.9740  140.5556  162.5037 H   0  0  0  0  0  0  0  0  0  0  0  0
  156.5623  136.7572  162.7675 H   0  0  0  0  0  0  0  0  0  0  0  0
  154.6656  134.9559  161.2741 H   0  0  0  0  0  0  0  0  0  0  0  0
  156.4211  134.8772  161.3763 H   0  0  0  0  0  0  0  0  0  0  0  0
  154.9574  133.2303  162.9209 H   0  0  0  0  0  0  0  0  0  0  0  0
  156.2938  134.0991  163.6956 H   0  0  0  0  0  0  0  0  0  0  0  0
  155.5359  136.5290  164.7122 H   0  0  0  0  0  0  0  0  0  0  0  0
  153.9734  136.9796  164.0496 H   0  0  0  0  0  0  0  0  0  0  0  0
  151.9522  144.8865  159.1102 H   0  0  0  0  0  0  0  0  0  0  0  0
  152.7031  143.6390  158.1242 H   0  0  0  0  0  0  0  0  0  0  0  0
  152.0998  143.2416  159.7352 H   0  0  0  0  0  0  0  0  0  0  0  0
  149.3407  144.8533  159.3015 H   0  0  0  0  0  0  0  0  0  0  0  0
  149.7663  143.3861  160.1781 H   0  0  0  0  0  0  0  0  0  0  0  0
  1  2  1  0  0  0  0
  1 32  1  0  0  0  0
  1 33  1  0  0  0  0
  1 34  1  0  0  0  0
  2  3  1  0  0  0  0
  3 30  1  0  0  0  0
  3 29  1  0  0  0  0
  3  4  1  0  0  0  0
  4  5  1  0  0  0  0
  4 35  1  0  0  0  0
  4 36  1  0  0  0  0
  5 31  1  0  0  0  0
  5  6  1  0  0  0  0
  5 27  1  0  0  0  0
  6  7  1  0  0  0  0
  6 37  1  0  0  0  0
  6 38  1  0  0  0  0
  7  8  1  0  0  0  0
  7  9  1  0  0  0  0
  8 39  1  0  0  0  0
  8 40  1  0  0  0  0
  8 41  1  0  0  0  0
  9 14  1  0  0  0  0
  9 10  2  0  0  0  0
 10 11  1  0  0  0  0
 11 12  2  0  0  0  0
 11 42  1  0  0  0  0
 12 13  1  0  0  0  0
 13 17  1  0  0  0  0
 13 14  2  0  0  0  0
 14 15  1  0  0  0  0
 15 16  2  0  0  0  0
 16 17  1  0  0  0  0
 16 43  1  0  0  0  0
 17 18  1  0  0  0  0
 18 19  1  0  0  0  0
 18 44  1  0  0  0  0
 18 45  1  0  0  0  0
 19 20  1  0  0  0  0
 19 22  1  0  0  0  0
 19 46  1  0  0  0  0
 20 21  1  0  0  0  0
 20 47  1  0  0  0  0
 20 48  1  0  0  0  0
 21 49  1  0  0  0  0
 22 26  1  0  0  0  0
 22 23  1  0  0  0  0
 22 50  1  0  0  0  0
 23 24  1  0  0  0  0
 23 51  1  0  0  0  0
 23 52  1  0  0  0  0
 24 25  1  0  0  0  0
 24 53  1  0  0  0  0
 24 54  1  0  0  0  0
 25 26  1  0  0  0  0
 26 55  1  0  0  0  0
 26 56  1  0  0  0  0
 27 28  1  0  0  0  0
 27 29  1  0  0  0  0
 28 57  1  0  0  0  0
 28 58  1  0  0  0  0
 28 59  1  0  0  0  0
 29 60  1  0  0  0  0
 29 61  1  0  0  0  0
M  END
> <s_m_source_file>
AV-unprocessed.smi

> <i_m_source_file_index>
21

> <i_lp_mmshare_version>
43012

> <i_f3d_flags>
0

> <s_epik_input>
W0NIM11PW0NASF0xW0NIMl1bQ0BIXShOKFtDSDNdKVtDSDJdMSlbQ0gyXU4oW0NIM10pYyhuW2NIXW4yKWMoYzIzKW5bY0hdbjNbQ0gyXVtDQEhdKFtDSDJdW09IXSlbQ0BASF00W0NIMl1bQ0gyXU9bQ0gyXTQ=

> <s_epik_cmdline>
J2VwaWtfcHl0aG9uJywgJy1waCcsICc3LjAnLCAnLXRuJywgJzgnLCAnLW1hJywgJzIwMCcsICctbWV0YWxfYmluZGluZycsICctaW1hZScsICc8aW5maWxlLm1hZT4nLCAnLW9tYWUnLCAnPG91dGZpbGUubWFlPic=

> <r_lp_tautomer_probability>
1

> <r_epik_Ionization_Penalty>
2.17574

> <r_epik_Ionization_Penalty_Charging>
0

> <r_epik_Ionization_Penalty_Neutral>
2.17574

> <r_epik_State_Penalty>
2.31336

> <r_epik_Charging_Adjusted_Penalty>
2.31336

> <i_epik_Tot_Q>
0

> <i_epik_Tot_abs_Q>
0

> <r_epik_Metal_State_Penalty>
2.31025

> <b_epik_Metal_Only>
0

> <s_lp_Force_Field>
OPLS_2005

> <r_lp_Energy>
69.5253

> <b_lp_Chiralities_Consistent>
1

> <s_lp_Variant>
AV-unprocessed.smi:21-38

> <Gold.Version>
5.8.1

> <Gold.Id.Protein>
6NUR|6NUR_protein|mol2

> <Gold.PLP.Fitness>
47.5634

> <Gold.PLP.PLP>
-40.8170

> <Gold.PLP.part.hbond>
-3.9091

> <Gold.PLP.part.metal>
0.0000

> <Gold.PLP.part.buried>
-5.8995

> <Gold.PLP.part.nonpolar>
-32.2150

> <Gold.PLP.part.repulsive>
0.2869

> <Gold.PLP.ligand.clash>
0.0000

> <Gold.PLP.ligand.torsion>
1.1618

> <Gold.PLP.Chemscore.Hbond>
2.8340

> <Gold.PLP.Chemscore.CHOScore>
0.0000

> <Gold.PLP.Chemscore.Metal>
0.0000

> <Gold.Chemscore.Hbonds>
donor molecule, donor type, donor heavy atom, donor atom, acceptor molecule, acceptor atom, score
      P1  H  6896  6908       L1    12  0.93
      P1  H  6933  6944       L1     2  0.55
      P1  H  6934  6946       L1     2  0.56
      P1  H  7997  8010       L1    15  0.98

> <Gold.PLP.Chemscore.Internal.Correction>
0.5680

> <Gold.Rescore>
     Score         DG    S(hbond)    S(metal)    S(lipo)     H(rot)  DE(clash)    DE(int)     intcor
     13.67     -14.75       1.79        0.00      93.97       3.00       0.04       1.03       ----

> <Gold.Chemscore.Fitness>
13.6745

> <Gold.Chemscore.DG>
-14.7521

> <Gold.Chemscore.ZeroCoef>
-5.4800

> <Gold.Chemscore.Hbond>
1.7860

> <Gold.Chemscore.Metal>
0.0000

> <Gold.Chemscore.Lipo>
93.9740

> <Gold.Chemscore.Internal_Hbond>
0.0000

> <Gold.Chemscore.DEClash>
0.0444

> <Gold.Chemscore.DEInternal>
1.0332

> <Gold.Chemscore.Rot>
3.0031

> <Gold.Chemscore.Internal.Correction>
   9.000000E+99

> <Gold.Chemscore.Hbonds>
donor molecule, donor type, donor heavy atom, donor atom, acceptor molecule, acceptor atom, score
      P1  H  6896  6908       L1    12  0.84
      P1  H  6933  6944       L1     2  0.09
      P1  H  6934  6946       L1     2  0.21
      P1  H  7997  8010       L1    15  0.41

> <Gold.Chemscore.Hbond.Weighted>
-5.9652

> <Gold.Chemscore.Metal.Weighted>
-0.0000

> <Gold.Chemscore.Lipo.Weighted>
-10.9950

> <Gold.Chemscore.Internal_Hbond.Weighted>
0.0000

> <Gold.Chemscore.DEClash.Weighted>
0.0444

> <Gold.Chemscore.DEInternal.Weighted>
1.0332

> <Gold.Chemscore.Rot.Weighted>
7.6880

> <Gold.Chemscore.Internal.Correction.Weighted>
   9.000000E+99

> <Gold.Protein.RotatedTorsions>
[ 6907 6896 6895 6894 ] final -137.61 input  -60.11 | X-H torsion
[ 7974 7965 7964 7962 ] final  -10.79 input  175.53 | X-H torsion
[ 8008 7997 7996 7995 ] final   26.42 input   59.86 | X-H torsion
[ 10167 10162 10161 10158 ] final -148.97 input  -65.29 | X-H torsion
[ 10718 10713 10712 10709 ] final -173.10 input   66.30 | X-H torsion
[ 10763 10752 10751 10750 ] final   75.22 input  -60.55 | X-H torsion
[ 11005 11000 10999 10996 ] final   57.98 input  -57.11 | X-H torsion

> <Gold.Protein.ActiveResidues>
 VAL166  LYS551  ARG553  GLY616  TRP617  ASP618  TYR619  PRO620  LYS621  CYS622 
 ASP623  PHE694  ASN695  SER759  ASP760  ASP761  ALA762  ILE779  LEU786  VAL792 
 PHE793  MET794  SER795  GLU796  ALA797  LYS798  CYS799  TRP800  GLU811  SER814 

> <Gold.Protein.RotatedAtoms>
  151.0246  133.5845  159.2667 H   0  0  0  0  0  0  0  0  0  0  0  0  # atno 6907 bound_to 6896
  151.2949  135.0751  159.9227 H   0  0  0  0  0  0  0  0  0  0  0  0  # atno 6908 bound_to 6896
  152.5331  133.9938  159.7917 H   0  0  0  0  0  0  0  0  0  0  0  0  # atno 6909 bound_to 6896
  146.2209  140.2815  142.8362 H   0  0  0  0  0  0  0  0  0  0  0  0  # atno 7974 bound_to 7965
  155.0270  140.3154  155.4772 H   0  0  0  0  0  0  0  0  0  0  0  0  # atno 8008 bound_to 7997
  156.2881  140.2187  156.5332 H   0  0  0  0  0  0  0  0  0  0  0  0  # atno 8009 bound_to 7997
  154.7403  140.0474  157.0793 H   0  0  0  0  0  0  0  0  0  0  0  0  # atno 8010 bound_to 7997
  139.7484  143.8556  152.2580 H   0  0  0  0  0  0  0  0  0  0  0  0  # atno 10167 bound_to 10162
  156.7654  130.9429  151.3119 H   0  0  0  0  0  0  0  0  0  0  0  0  # atno 10718 bound_to 10713
  153.0640  135.4996  154.8158 H   0  0  0  0  0  0  0  0  0  0  0  0  # atno 10763 bound_to 10752
  154.6925  135.2987  154.9461 H   0  0  0  0  0  0  0  0  0  0  0  0  # atno 10764 bound_to 10752
  154.0210  135.6742  153.4825 H   0  0  0  0  0  0  0  0  0  0  0  0  # atno 10765 bound_to 10752
  140.0412  134.5871  155.9380 H   0  0  0  0  0  0  0  0  0  0  0  0  # atno 11005 bound_to 11000
  144.9193  140.7849  143.5758 LP  0  0  0  0  0  0  0  0  0  0  0  0  # atno 17320 bound_to 7965
  145.2751  139.1939  143.4821 LP  0  0  0  0  0  0  0  0  0  0  0  0  # atno 17321 bound_to 7965
  139.8527  144.7156  150.9195 LP  0  0  0  0  0  0  0  0  0  0  0  0  # atno 17342 bound_to 10162
  140.7795  143.3885  151.1351 LP  0  0  0  0  0  0  0  0  0  0  0  0  # atno 17343 bound_to 10162
  157.6715  130.9056  150.0052 LP  0  0  0  0  0  0  0  0  0  0  0  0  # atno 17370 bound_to 10713
  156.1312  130.3643  149.9729 LP  0  0  0  0  0  0  0  0  0  0  0  0  # atno 17371 bound_to 10713
  141.1884  133.6562  156.5321 LP  0  0  0  0  0  0  0  0  0  0  0  0  # atno 17394 bound_to 11000
  140.4067  134.7309  157.4812 LP  0  0  0  0  0  0  0  0  0  0  0  0  # atno 17395 bound_to 11000

$$$$
