AV-unprocessed.smi:1876|AV-procd|sdf|7621|dock10
  -GOLD-   22720 9353D 1   1.00000     0.00000
 Structure written by MMmdl.
 31 32  0  0  0  0  0  0  0  0  1 V2000
  150.1117  130.6000  154.6464 C   0  0  0  0  0  0  0  0  0  0  0  0
  149.7986  132.0421  154.8538 C   0  0  0  0  0  0  0  0  0  0  0  0
  149.5531  133.0744  153.9924 C   0  0  0  0  0  0  0  0  0  0  0  0
  149.3254  134.1718  154.8650 C   0  0  0  0  0  0  0  0  0  0  0  0
  149.0275  135.4604  154.3525 N   0  0  0  0  0  0  0  0  0  0  0  0
  148.6788  136.5568  155.0472 C   0  0  0  0  0  0  0  0  0  0  0  0
  148.5692  136.6150  156.2724 O   0  0  0  0  0  0  0  0  0  0  0  0
  148.4572  137.5994  154.2334 N   0  0  0  0  0  0  0  0  0  0  0  0
  148.0138  138.9259  154.6578 C   0  0  1  0  0  0  0  0  0  0  0  0
  149.0988  139.9851  154.3869 C   0  0  0  0  0  0  0  0  0  0  0  0
  148.5517  141.3877  154.6669 C   0  0  0  0  0  0  0  0  0  0  0  0
  147.3098  141.6645  153.8040 C   0  0  0  0  0  0  0  0  0  0  0  0
  146.3594  140.5511  153.7814 N   0  0  0  0  0  0  0  0  0  0  0  0
  146.6274  139.2683  154.0836 C   0  0  0  0  0  0  0  0  0  0  0  0
  145.7797  138.3877  153.9452 O   0  0  0  0  0  0  0  0  0  0  0  0
  149.4247  133.8395  156.1431 N   0  0  0  0  0  0  0  0  0  0  0  0
  149.7276  132.4730  156.1424 O   0  0  0  0  0  0  0  0  0  0  0  0
  150.3109  130.3914  153.5953 H   0  0  0  0  0  0  0  0  0  0  0  0
  149.2769  129.9748  154.9631 H   0  0  0  0  0  0  0  0  0  0  0  0
  150.9907  130.3081  155.2213 H   0  0  0  0  0  0  0  0  0  0  0  0
  149.5373  133.0450  152.9130 H   0  0  0  0  0  0  0  0  0  0  0  0
  149.0756  135.5545  153.3487 H   0  0  0  0  0  0  0  0  0  0  0  0
  148.5693  137.4602  153.2398 H   0  0  0  0  0  0  0  0  0  0  0  0
  147.8542  138.8938  155.7373 H   0  0  0  0  0  0  0  0  0  0  0  0
  149.9755  139.7986  155.0081 H   0  0  0  0  0  0  0  0  0  0  0  0
  149.4320  139.9244  153.3497 H   0  0  0  0  0  0  0  0  0  0  0  0
  148.2902  141.4701  155.7227 H   0  0  0  0  0  0  0  0  0  0  0  0
  149.3170  142.1405  154.4767 H   0  0  0  0  0  0  0  0  0  0  0  0
  146.8009  142.5629  154.1542 H   0  0  0  0  0  0  0  0  0  0  0  0
  147.6157  141.8592  152.7756 H   0  0  0  0  0  0  0  0  0  0  0  0
  145.4314  140.7620  153.4437 H   0  0  0  0  0  0  0  0  0  0  0  0
  1  2  1  0  0  0  0
  1 18  1  0  0  0  0
  1 19  1  0  0  0  0
  1 20  1  0  0  0  0
  2 17  1  0  0  0  0
  2  3  2  0  0  0  0
  3  4  1  0  0  0  0
  3 21  1  0  0  0  0
  4  5  1  0  0  0  0
  4 16  2  0  0  0  0
  5  6  1  0  0  0  0
  5 22  1  0  0  0  0
  6  7  2  0  0  0  0
  6  8  1  0  0  0  0
  8  9  1  0  0  0  0
  8 23  1  0  0  0  0
  9 14  1  0  0  0  0
  9 10  1  0  0  0  0
  9 24  1  0  0  0  0
 10 11  1  0  0  0  0
 10 25  1  0  0  0  0
 10 26  1  0  0  0  0
 11 12  1  0  0  0  0
 11 27  1  0  0  0  0
 11 28  1  0  0  0  0
 12 13  1  0  0  0  0
 12 29  1  0  0  0  0
 12 30  1  0  0  0  0
 13 14  1  0  0  0  0
 13 31  1  0  0  0  0
 14 15  2  0  0  0  0
 16 17  1  0  0  0  0
M  END
> <s_m_source_file>
AV-unprocessed.smi

> <i_m_source_file_index>
1876

> <i_lp_mmshare_version>
43012

> <i_f3d_flags>
0

> <s_epik_input>
W0NIM11jMVtjSF1jKG5vMSlbTkhdQyg9TylbTkhdW0NAQEhdMltDSDJdW0NIMl1bQ0gyXVtOSF1DMj1P

> <s_epik_cmdline>
J2VwaWtfcHl0aG9uJywgJy1waCcsICc3LjAnLCAnLXRuJywgJzgnLCAnLW1hJywgJzIwMCcsICctbWV0YWxfYmluZGluZycsICctaW1hZScsICc8aW5maWxlLm1hZT4nLCAnLW9tYWUnLCAnPG91dGZpbGUubWFlPic=

> <r_lp_tautomer_probability>
1

> <r_epik_Ionization_Penalty>
2.33177e-05

> <r_epik_Ionization_Penalty_Charging>
0

> <r_epik_Ionization_Penalty_Neutral>
2.33177e-05

> <r_epik_State_Penalty>
-0

> <r_epik_Charging_Adjusted_Penalty>
0

> <i_epik_Tot_Q>
0

> <i_epik_Tot_abs_Q>
0

> <r_epik_Metal_State_Penalty>
-0

> <b_epik_Metal_Only>
0

> <s_lp_Force_Field>
OPLS_2005

> <r_lp_Energy>
6.99083

> <b_lp_Chiralities_Consistent>
1

> <s_lp_Variant>
AV-unprocessed.smi:1876-2

> <Gold.Version>
5.8.1

> <Gold.Id.Protein>
6NUR|6NUR_protein|mol2

> <Gold.PLP.Fitness>
32.8414

> <Gold.PLP.PLP>
-24.0278

> <Gold.PLP.part.hbond>
-3.0000

> <Gold.PLP.part.metal>
0.0000

> <Gold.PLP.part.buried>
-3.4058

> <Gold.PLP.part.nonpolar>
-18.3162

> <Gold.PLP.part.repulsive>
0.1862

> <Gold.PLP.ligand.clash>
0.0000

> <Gold.PLP.ligand.torsion>
0.0302

> <Gold.PLP.Chemscore.Hbond>
2.9440

> <Gold.PLP.Chemscore.CHOScore>
0.0000

> <Gold.PLP.Chemscore.Metal>
0.0000

> <Gold.Chemscore.Hbonds>
donor molecule, donor type, donor heavy atom, donor atom, acceptor molecule, acceptor atom, score
      L1  H     5    22       P1  7948  1.00
      L1  H     8    23       P1  7948  0.94
      L1  H    13    31       P1 10175  1.00

> <Gold.PLP.Chemscore.Internal.Correction>
0.0421

> <Gold.Rescore>
     Score         DG    S(hbond)    S(metal)    S(lipo)     H(rot)  DE(clash)    DE(int)     intcor
     15.51     -16.85       2.76        0.00      40.30       1.00       0.05       1.29       ----

> <Gold.Chemscore.Fitness>
15.5083

> <Gold.Chemscore.DG>
-16.8498

> <Gold.Chemscore.ZeroCoef>
-5.4800

> <Gold.Chemscore.Hbond>
2.7590

> <Gold.Chemscore.Metal>
0.0000

> <Gold.Chemscore.Lipo>
40.2959

> <Gold.Chemscore.Internal_Hbond>
0.0000

> <Gold.Chemscore.DEClash>
0.0471

> <Gold.Chemscore.DEInternal>
1.2945

> <Gold.Chemscore.Rot>
1.0000

> <Gold.Chemscore.Internal.Correction>
   9.000000E+99

> <Gold.Chemscore.Hbonds>
donor molecule, donor type, donor heavy atom, donor atom, acceptor molecule, acceptor atom, score
      L1  H     5    22       P1  7948  0.60
      L1  H     8    23       P1  7948  0.91
      L1  H    13    31       P1 10175  0.81

> <Gold.Chemscore.Hbond.Weighted>
-9.2152

> <Gold.Chemscore.Metal.Weighted>
-0.0000

> <Gold.Chemscore.Lipo.Weighted>
-4.7146

> <Gold.Chemscore.Internal_Hbond.Weighted>
0.0000

> <Gold.Chemscore.DEClash.Weighted>
0.0471

> <Gold.Chemscore.DEInternal.Weighted>
1.2945

> <Gold.Chemscore.Rot.Weighted>
2.5600

> <Gold.Chemscore.Internal.Correction.Weighted>
   9.000000E+99

> <Gold.Protein.RotatedTorsions>
[ 6907 6896 6895 6894 ] final    6.72 input  -60.11 | X-H torsion
[ 7974 7965 7964 7962 ] final   79.09 input  175.53 | X-H torsion
[ 8008 7997 7996 7995 ] final   73.73 input   59.86 | X-H torsion
[ 10167 10162 10161 10158 ] final  153.19 input  -65.29 | X-H torsion
[ 10718 10713 10712 10709 ] final  129.37 input   66.30 | X-H torsion
[ 10763 10752 10751 10750 ] final    6.11 input  -60.55 | X-H torsion
[ 11005 11000 10999 10996 ] final  -10.90 input  -57.11 | X-H torsion

> <Gold.Protein.ActiveResidues>
 VAL166  LYS551  ARG553  GLY616  TRP617  ASP618  TYR619  PRO620  LYS621  CYS622 
 ASP623  PHE694  ASN695  SER759  ASP760  ASP761  ALA762  ILE779  LEU786  VAL792 
 PHE793  MET794  SER795  GLU796  ALA797  LYS798  CYS799  TRP800  GLU811  SER814 

> <Gold.Protein.RotatedAtoms>
  151.6782  135.0966  160.0210 H   0  0  0  0  0  0  0  0  0  0  0  0  # atno 6907 bound_to 6896
  152.3851  133.6596  159.6201 H   0  0  0  0  0  0  0  0  0  0  0  0  # atno 6908 bound_to 6896
  150.7779  133.8965  159.3370 H   0  0  0  0  0  0  0  0  0  0  0  0  # atno 6909 bound_to 6896
  145.6687  139.2491  143.1881 H   0  0  0  0  0  0  0  0  0  0  0  0  # atno 7974 bound_to 7965
  155.7880  140.3480  155.5333 H   0  0  0  0  0  0  0  0  0  0  0  0  # atno 8008 bound_to 7997
  155.8662  140.0979  157.1601 H   0  0  0  0  0  0  0  0  0  0  0  0  # atno 8009 bound_to 7997
  154.4014  140.1349  156.4009 H   0  0  0  0  0  0  0  0  0  0  0  0  # atno 8010 bound_to 7997
  139.4828  144.5294  151.7748 H   0  0  0  0  0  0  0  0  0  0  0  0  # atno 10167 bound_to 10162
  157.5160  131.1097  150.9224 H   0  0  0  0  0  0  0  0  0  0  0  0  # atno 10718 bound_to 10713
  153.2515  135.6914  153.7674 H   0  0  0  0  0  0  0  0  0  0  0  0  # atno 10763 bound_to 10752
  153.6767  135.3335  155.3168 H   0  0  0  0  0  0  0  0  0  0  0  0  # atno 10764 bound_to 10752
  154.8396  135.4512  154.1474 H   0  0  0  0  0  0  0  0  0  0  0  0  # atno 10765 bound_to 10752
  140.7496  133.8603  155.9034 H   0  0  0  0  0  0  0  0  0  0  0  0  # atno 11005 bound_to 11000
  146.1064  140.7482  142.9524 LP  0  0  0  0  0  0  0  0  0  0  0  0  # atno 17320 bound_to 7965
  144.7064  140.3868  143.7115 LP  0  0  0  0  0  0  0  0  0  0  0  0  # atno 17321 bound_to 7965
  140.4818  144.1438  150.5934 LP  0  0  0  0  0  0  0  0  0  0  0  0  # atno 17342 bound_to 10162
  140.4269  143.2586  151.9645 LP  0  0  0  0  0  0  0  0  0  0  0  0  # atno 17343 bound_to 10162
  156.9849  130.5541  149.5299 LP  0  0  0  0  0  0  0  0  0  0  0  0  # atno 17370 bound_to 10713
  156.0321  130.5411  150.8560 LP  0  0  0  0  0  0  0  0  0  0  0  0  # atno 17371 bound_to 10713
  140.9763  134.1465  157.4534 LP  0  0  0  0  0  0  0  0  0  0  0  0  # atno 17394 bound_to 11000
  139.8790  134.9995  156.5960 LP  0  0  0  0  0  0  0  0  0  0  0  0  # atno 17395 bound_to 11000

$$$$
