AV-unprocessed.smi:867|AV-procd|sdf|3999|dock9
  -GOLD-   22720 1483D 1   1.00000     0.00000
 Structure written by MMmdl.
 54 57  0  0  0  0  0  0  0  0  3 V2000
  148.4998  141.1307  155.7248 O   0  0  0  0  0  0  0  0  0  0  0  0
  149.5392  140.6111  155.3165 C   0  0  0  0  0  0  0  0  0  0  0  0
  150.7521  141.1108  155.6087 N   0  0  0  0  0  0  0  0  0  0  0  0
  150.9964  142.2883  156.4337 C   0  0  0  0  0  0  0  0  0  0  0  0
  151.6318  141.9117  157.7818 C   0  0  0  0  0  0  0  0  0  0  0  0
  151.7247  143.1001  158.7188 C   0  0  0  0  0  0  0  0  0  0  0  0
  152.2441  142.9452  160.0233 C   0  0  0  0  0  0  0  0  0  0  0  0
  152.3164  144.0660  160.8766 C   0  0  0  0  0  0  0  0  0  0  0  0
  151.8664  145.3167  160.4064 C   0  0  0  0  0  0  0  0  0  0  0  0
  151.3737  145.4264  159.1529 N   0  3  0  0  0  0  0  0  0  0  0  0
  151.2885  144.3776  158.3049 C   0  0  0  0  0  0  0  0  0  0  0  0
  149.5550  139.5474  154.4760 N   0  0  0  0  0  0  0  0  0  0  0  0
  150.7083  138.6817  154.2041 C   0  0  0  0  0  0  0  0  0  0  0  0
  150.5185  137.3301  154.9217 C   0  0  0  0  0  0  0  0  0  0  0  0
  149.2222  136.6781  154.5691 N   0  3  0  0  0  0  0  0  0  0  0  0
  148.9640  135.3864  155.2780 C   0  0  1  0  0  0  0  0  0  0  0  0
  147.6553  134.7104  154.7873 C   0  0  0  0  0  0  0  0  0  0  0  0
  148.1022  133.2935  154.3919 C   0  0  2  0  0  0  0  0  0  0  0  0
  148.4710  132.4986  155.6551 C   0  0  0  0  0  0  0  0  0  0  0  0
  149.7983  133.1495  156.0806 C   0  0  0  0  0  0  0  0  0  0  0  0
  149.9995  134.2536  155.0229 C   0  0  1  0  0  0  0  0  0  0  0  0
  149.4645  133.5695  153.7700 C   0  0  0  0  0  0  0  0  0  0  0  0
  148.0717  137.6196  154.7052 C   0  0  0  0  0  0  0  0  0  0  0  0
  148.3245  138.9428  153.9650 C   0  0  0  0  0  0  0  0  0  0  0  0
  151.5613  140.6548  155.2129 H   0  0  0  0  0  0  0  0  0  0  0  0
  151.6586  142.9575  155.8835 H   0  0  0  0  0  0  0  0  0  0  0  0
  150.0642  142.8347  156.5890 H   0  0  0  0  0  0  0  0  0  0  0  0
  151.0524  141.1254  158.2683 H   0  0  0  0  0  0  0  0  0  0  0  0
  152.6308  141.5029  157.6231 H   0  0  0  0  0  0  0  0  0  0  0  0
  152.5823  141.9786  160.3680 H   0  0  0  0  0  0  0  0  0  0  0  0
  152.7108  143.9666  161.8774 H   0  0  0  0  0  0  0  0  0  0  0  0
  151.8846  146.2252  160.9908 H   0  0  0  0  0  0  0  0  0  0  0  0
  150.8753  144.5917  157.3297 H   0  0  0  0  0  0  0  0  0  0  0  0
  150.7835  138.5225  153.1272 H   0  0  0  0  0  0  0  0  0  0  0  0
  151.6629  139.1164  154.5005 H   0  0  0  0  0  0  0  0  0  0  0  0
  151.3572  136.6988  154.6368 H   0  0  0  0  0  0  0  0  0  0  0  0
  150.5697  137.4717  156.0024 H   0  0  0  0  0  0  0  0  0  0  0  0
  148.9118  135.5964  156.3478 H   0  0  0  0  0  0  0  0  0  0  0  0
  146.8790  134.7034  155.5535 H   0  0  0  0  0  0  0  0  0  0  0  0
  147.2451  135.2062  153.9064 H   0  0  0  0  0  0  0  0  0  0  0  0
  147.3947  132.7778  153.7416 H   0  0  0  0  0  0  0  0  0  0  0  0
  147.7040  132.5699  156.4275 H   0  0  0  0  0  0  0  0  0  0  0  0
  148.6175  131.4425  155.4237 H   0  0  0  0  0  0  0  0  0  0  0  0
  149.7632  133.5436  157.0969 H   0  0  0  0  0  0  0  0  0  0  0  0
  150.6087  132.4205  156.0371 H   0  0  0  0  0  0  0  0  0  0  0  0
  151.0434  134.5542  154.9710 H   0  0  0  0  0  0  0  0  0  0  0  0
  150.0105  132.6621  153.5051 H   0  0  0  0  0  0  0  0  0  0  0  0
  149.4211  134.2283  152.9010 H   0  0  0  0  0  0  0  0  0  0  0  0
  147.1568  137.1733  154.3177 H   0  0  0  0  0  0  0  0  0  0  0  0
  147.8947  137.8220  155.7630 H   0  0  0  0  0  0  0  0  0  0  0  0
  147.4611  139.6022  154.0683 H   0  0  0  0  0  0  0  0  0  0  0  0
  148.4287  138.7601  152.8943 H   0  0  0  0  0  0  0  0  0  0  0  0
  149.2884  136.4539  153.5865 H   0  0  0  0  0  0  0  0  0  0  0  0
  151.0522  146.3405  158.8331 H   0  0  0  0  0  0  0  0  0  0  0  0
  1  2  2  0  0  0  0
  2  3  1  0  0  0  0
  2 12  1  0  0  0  0
  3  4  1  0  0  0  0
  3 25  1  0  0  0  0
  4  5  1  0  0  0  0
  4 26  1  0  0  0  0
  4 27  1  0  0  0  0
  5  6  1  0  0  0  0
  5 28  1  0  0  0  0
  5 29  1  0  0  0  0
  6 11  1  0  0  0  0
  6  7  2  0  0  0  0
  7  8  1  0  0  0  0
  7 30  1  0  0  0  0
  8  9  2  0  0  0  0
  8 31  1  0  0  0  0
  9 10  1  0  0  0  0
  9 32  1  0  0  0  0
 10 11  2  0  0  0  0
 10 54  1  0  0  0  0
 11 33  1  0  0  0  0
 12 24  1  0  0  0  0
 12 13  1  0  0  0  0
 13 14  1  0  0  0  0
 13 34  1  0  0  0  0
 13 35  1  0  0  0  0
 14 15  1  0  0  0  0
 14 36  1  0  0  0  0
 14 37  1  0  0  0  0
 15 16  1  0  0  0  0
 15 23  1  0  0  0  0
 15 53  1  0  0  0  0
 16 21  1  0  0  0  0
 16 17  1  0  0  0  0
 16 38  1  0  0  0  0
 17 18  1  0  0  0  0
 17 39  1  0  0  0  0
 17 40  1  0  0  0  0
 18 22  1  0  0  0  0
 18 19  1  0  0  0  0
 18 41  1  0  0  0  0
 19 20  1  0  0  0  0
 19 42  1  0  0  0  0
 19 43  1  0  0  0  0
 20 21  1  0  0  0  0
 20 44  1  0  0  0  0
 20 45  1  0  0  0  0
 21 22  1  0  0  0  0
 21 46  1  0  0  0  0
 22 47  1  0  0  0  0
 22 48  1  0  0  0  0
 23 24  1  0  0  0  0
 23 49  1  0  0  0  0
 23 50  1  0  0  0  0
 24 51  1  0  0  0  0
 24 52  1  0  0  0  0
M  CHG  1  10   1
M  CHG  1  15   1
M  END
> <s_m_source_file>
AV-unprocessed.smi

> <i_m_source_file_index>
867

> <i_lp_mmshare_version>
43012

> <i_f3d_flags>
0

> <s_epik_input>
W0NIMl0xW0NIMl1bQ0BASF0oW0NIMl0yKVtDQEBIXShbQ0gyXVtDQEhdMTIpTihbQ0gyXVtDSDJdMylbQ0gyXVtDSDJdTjNDKD1PKVtOSF1bQ0gyXVtDSDJdYzRbY0hdW2NIXVtjSF1uW2NIXTQ=

> <s_epik_cmdline>
J2VwaWtfcHl0aG9uJywgJy1waCcsICc3LjAnLCAnLXRuJywgJzgnLCAnLW1hJywgJzIwMCcsICctbWV0YWxfYmluZGluZycsICctaW1hZScsICc8aW5maWxlLm1hZT4nLCAnLW9tYWUnLCAnPG91dGZpbGUubWFlPic=

> <r_epik_Ionization_Penalty>
2.25108

> <r_epik_Ionization_Penalty_Charging>
2.25105

> <r_epik_Ionization_Penalty_Neutral>
2.64641e-05

> <r_epik_State_Penalty>
2.39519

> <r_epik_Charging_Adjusted_Penalty>
4.64625

> <i_epik_Tot_Q>
2

> <i_epik_Tot_abs_Q>
2

> <r_epik_Metal_State_Penalty>
2.40865

> <b_epik_Metal_Only>
0

> <s_lp_Force_Field>
OPLS_2005

> <r_lp_Energy>
104.459

> <b_lp_Chiralities_Consistent>
1

> <s_lp_Variant>
AV-unprocessed.smi:867-6

> <Gold.Version>
5.8.1

> <Gold.Id.Protein>
6NUR|6NUR_protein|mol2

> <Gold.PLP.Fitness>
50.5343

> <Gold.PLP.PLP>
-44.7334

> <Gold.PLP.part.hbond>
-1.0000

> <Gold.PLP.part.metal>
0.0000

> <Gold.PLP.part.buried>
-6.4594

> <Gold.PLP.part.nonpolar>
-36.7578

> <Gold.PLP.part.repulsive>
0.9381

> <Gold.PLP.ligand.clash>
0.0000

> <Gold.PLP.ligand.torsion>
0.1659

> <Gold.PLP.Chemscore.Hbond>
2.0000

> <Gold.PLP.Chemscore.CHOScore>
0.0000

> <Gold.PLP.Chemscore.Metal>
0.0000

> <Gold.Chemscore.Hbonds>
donor molecule, donor type, donor heavy atom, donor atom, acceptor molecule, acceptor atom, score
      L1  H    15    53       P1  7948  2.00

> <Gold.PLP.Chemscore.Internal.Correction>
0.1327

> <Gold.Rescore>
     Score         DG    S(hbond)    S(metal)    S(lipo)     H(rot)  DE(clash)    DE(int)     intcor
     19.79     -20.12       0.96        0.00     129.72       1.46       0.17       0.16       ----

> <Gold.Chemscore.Fitness>
19.7943

> <Gold.Chemscore.DG>
-20.1230

> <Gold.Chemscore.ZeroCoef>
-5.4800

> <Gold.Chemscore.Hbond>
0.9569

> <Gold.Chemscore.Metal>
0.0000

> <Gold.Chemscore.Lipo>
129.7225

> <Gold.Chemscore.Internal_Hbond>
0.0000

> <Gold.Chemscore.DEClash>
0.1721

> <Gold.Chemscore.DEInternal>
0.1567

> <Gold.Chemscore.Rot>
1.4572

> <Gold.Chemscore.Internal.Correction>
   9.000000E+99

> <Gold.Chemscore.Hbonds>
donor molecule, donor type, donor heavy atom, donor atom, acceptor molecule, acceptor atom, score
      L1  H    15    53       P1  7948  0.91

> <Gold.Chemscore.Hbond.Weighted>
-3.1961

> <Gold.Chemscore.Metal.Weighted>
-0.0000

> <Gold.Chemscore.Lipo.Weighted>
-15.1775

> <Gold.Chemscore.Internal_Hbond.Weighted>
0.0000

> <Gold.Chemscore.DEClash.Weighted>
0.1721

> <Gold.Chemscore.DEInternal.Weighted>
0.1567

> <Gold.Chemscore.Rot.Weighted>
3.7305

> <Gold.Chemscore.Internal.Correction.Weighted>
   9.000000E+99

> <Gold.Protein.RotatedTorsions>
[ 6907 6896 6895 6894 ] final  171.20 input  -60.11 | X-H torsion
[ 7974 7965 7964 7962 ] final  -15.38 input  175.53 | X-H torsion
[ 8008 7997 7996 7995 ] final -158.28 input   59.86 | X-H torsion
[ 10167 10162 10161 10158 ] final   71.04 input  -65.29 | X-H torsion
[ 10718 10713 10712 10709 ] final   33.91 input   66.30 | X-H torsion
[ 10763 10752 10751 10750 ] final   72.86 input  -60.55 | X-H torsion
[ 11005 11000 10999 10996 ] final  163.46 input  -57.11 | X-H torsion

> <Gold.Protein.ActiveResidues>
 VAL166  LYS551  ARG553  GLY616  TRP617  ASP618  TYR619  PRO620  LYS621  CYS622 
 ASP623  PHE694  ASN695  SER759  ASP760  ASP761  ALA762  ILE779  LEU786  VAL792 
 PHE793  MET794  SER795  GLU796  ALA797  LYS798  CYS799  TRP800  GLU811  SER814 

> <Gold.Protein.RotatedAtoms>
  151.8039  133.3373  159.3534 H   0  0  0  0  0  0  0  0  0  0  0  0  # atno 6907 bound_to 6896
  150.7349  134.5727  159.5908 H   0  0  0  0  0  0  0  0  0  0  0  0  # atno 6908 bound_to 6896
  152.3123  134.7483  160.0385 H   0  0  0  0  0  0  0  0  0  0  0  0  # atno 6909 bound_to 6896
  146.2034  140.3485  142.8415 H   0  0  0  0  0  0  0  0  0  0  0  0  # atno 7974 bound_to 7965
  155.7452  140.0819  157.2227 H   0  0  0  0  0  0  0  0  0  0  0  0  # atno 8008 bound_to 7997
  154.4017  140.1570  156.2717 H   0  0  0  0  0  0  0  0  0  0  0  0  # atno 8009 bound_to 7997
  155.8983  140.3411  155.6010 H   0  0  0  0  0  0  0  0  0  0  0  0  # atno 8010 bound_to 7997
  140.0504  144.5316  150.7367 H   0  0  0  0  0  0  0  0  0  0  0  0  # atno 10167 bound_to 10162
  157.3037  130.7364  149.6682 H   0  0  0  0  0  0  0  0  0  0  0  0  # atno 10718 bound_to 10713
  153.0485  135.5084  154.7808 H   0  0  0  0  0  0  0  0  0  0  0  0  # atno 10763 bound_to 10752
  154.6688  135.2950  154.9771 H   0  0  0  0  0  0  0  0  0  0  0  0  # atno 10764 bound_to 10752
  154.0597  135.6692  153.4863 H   0  0  0  0  0  0  0  0  0  0  0  0  # atno 10765 bound_to 10752
  140.2360  134.8087  157.3364 H   0  0  0  0  0  0  0  0  0  0  0  0  # atno 11005 bound_to 11000
  144.8736  140.7306  143.6031 LP  0  0  0  0  0  0  0  0  0  0  0  0  # atno 17320 bound_to 7965
  145.3404  139.1734  143.4489 LP  0  0  0  0  0  0  0  0  0  0  0  0  # atno 17321 bound_to 7965
  140.7219  143.2597  151.4250 LP  0  0  0  0  0  0  0  0  0  0  0  0  # atno 17342 bound_to 10162
  139.5956  144.1404  152.2140 LP  0  0  0  0  0  0  0  0  0  0  0  0  # atno 17343 bound_to 10162
  155.9673  130.4272  150.4734 LP  0  0  0  0  0  0  0  0  0  0  0  0  # atno 17370 bound_to 10713
  157.2719  131.0589  151.2254 LP  0  0  0  0  0  0  0  0  0  0  0  0  # atno 17371 bound_to 10713
  140.1701  134.4619  155.7837 LP  0  0  0  0  0  0  0  0  0  0  0  0  # atno 17394 bound_to 11000
  141.2214  133.6938  156.7693 LP  0  0  0  0  0  0  0  0  0  0  0  0  # atno 17395 bound_to 11000

$$$$
