AV-unprocessed.smi:1887|AV-procd|sdf|7656|dock6
  -GOLD-   22720 9393D 1   1.00000     0.00000
 Structure written by MMmdl.
 43 45  0  0  0  0  0  0  0  0  2 V2000
  148.9144  140.8597  156.8233 C   0  0  0  0  0  0  0  0  0  0  0  0
  148.2133  140.1898  157.8549 O   0  0  0  0  0  0  0  0  0  0  0  0
  147.7513  138.9088  157.4602 C   0  0  0  0  0  0  0  0  0  0  0  0
  148.9319  138.0717  156.9490 C   0  0  0  0  0  0  0  0  0  0  0  0
  149.9478  137.8677  157.9792 N   0  0  0  0  0  0  0  0  0  0  0  0
  149.7989  137.2818  159.1953 C   0  0  0  0  0  0  0  0  0  0  0  0
  148.5578  136.7628  159.6194 N   0  0  0  0  0  0  0  0  0  0  0  0
  147.9401  137.2844  160.6996 N   0  0  0  0  0  0  0  0  0  0  0  0
  146.8301  136.5781  160.8301 C   0  0  0  0  0  0  0  0  0  0  0  0
  145.8821  136.9140  161.9451 C   0  0  0  0  0  0  0  0  0  0  0  0
  146.7114  135.5625  159.8364 C   0  0  0  0  0  0  0  0  0  0  0  0
  145.5938  134.5696  159.6710 C   0  0  0  0  0  0  0  0  0  0  0  0
  147.8437  135.7080  159.0806 C   0  0  0  0  0  0  0  0  0  0  0  0
  148.3175  134.9377  157.8883 C   0  0  0  0  0  0  0  0  0  0  0  0
  150.9119  137.2098  159.9278 N   0  0  0  0  0  0  0  0  0  0  0  0
  151.8553  137.8082  159.1049 C   0  0  0  0  0  0  0  0  0  0  0  0
  151.3029  138.2052  157.9264 C   0  0  0  0  0  0  0  0  0  0  0  0
  152.0635  138.8526  156.8358 C   0  0  0  0  0  0  0  0  0  0  0  0
  151.5131  139.1817  155.7869 O   0  0  0  0  0  0  0  0  0  0  0  0
  153.3876  139.0108  157.1532 N   0  5  0  0  0  0  0  0  0  0  0  0
  153.9896  138.6256  158.3320 C   0  0  0  0  0  0  0  0  0  0  0  0
  155.1921  138.7993  158.5346 O   0  0  0  0  0  0  0  0  0  0  0  0
  153.2438  138.0293  159.3153 N   0  0  0  0  0  0  0  0  0  0  0  0
  153.8578  137.6076  160.5776 C   0  0  0  0  0  0  0  0  0  0  0  0
  149.2486  141.8329  157.1824 H   0  0  0  0  0  0  0  0  0  0  0  0
  148.2750  141.0226  155.9549 H   0  0  0  0  0  0  0  0  0  0  0  0
  149.7936  140.2944  156.5119 H   0  0  0  0  0  0  0  0  0  0  0  0
  147.2717  138.4073  158.3019 H   0  0  0  0  0  0  0  0  0  0  0  0
  147.0031  139.0114  156.6732 H   0  0  0  0  0  0  0  0  0  0  0  0
  148.5880  137.1022  156.5909 H   0  0  0  0  0  0  0  0  0  0  0  0
  149.3763  138.5566  156.0815 H   0  0  0  0  0  0  0  0  0  0  0  0
  145.1525  136.1199  162.1026 H   0  0  0  0  0  0  0  0  0  0  0  0
  145.3326  137.8297  161.7266 H   0  0  0  0  0  0  0  0  0  0  0  0
  146.4150  137.0611  162.8850 H   0  0  0  0  0  0  0  0  0  0  0  0
  145.8735  133.7397  159.0220 H   0  0  0  0  0  0  0  0  0  0  0  0
  144.7085  135.0335  159.2360 H   0  0  0  0  0  0  0  0  0  0  0  0
  145.2947  134.1358  160.6250 H   0  0  0  0  0  0  0  0  0  0  0  0
  147.4769  134.5346  157.3243 H   0  0  0  0  0  0  0  0  0  0  0  0
  148.9493  134.1048  158.1965 H   0  0  0  0  0  0  0  0  0  0  0  0
  148.8960  135.5642  157.2093 H   0  0  0  0  0  0  0  0  0  0  0  0
  154.3572  138.4477  161.0623 H   0  0  0  0  0  0  0  0  0  0  0  0
  154.5987  136.8279  160.3967 H   0  0  0  0  0  0  0  0  0  0  0  0
  153.1312  137.2120  161.2872 H   0  0  0  0  0  0  0  0  0  0  0  0
  1  2  1  0  0  0  0
  1 25  1  0  0  0  0
  1 26  1  0  0  0  0
  1 27  1  0  0  0  0
  2  3  1  0  0  0  0
  3  4  1  0  0  0  0
  3 28  1  0  0  0  0
  3 29  1  0  0  0  0
  4  5  1  0  0  0  0
  4 30  1  0  0  0  0
  4 31  1  0  0  0  0
  5 17  1  0  0  0  0
  5  6  1  0  0  0  0
  6  7  1  0  0  0  0
  6 15  2  0  0  0  0
  7 13  1  0  0  0  0
  7  8  1  0  0  0  0
  8  9  2  0  0  0  0
  9 10  1  0  0  0  0
  9 11  1  0  0  0  0
 10 32  1  0  0  0  0
 10 33  1  0  0  0  0
 10 34  1  0  0  0  0
 11 12  1  0  0  0  0
 11 13  2  0  0  0  0
 12 35  1  0  0  0  0
 12 36  1  0  0  0  0
 12 37  1  0  0  0  0
 13 14  1  0  0  0  0
 14 38  1  0  0  0  0
 14 39  1  0  0  0  0
 14 40  1  0  0  0  0
 15 16  1  0  0  0  0
 16 23  1  0  0  0  0
 16 17  2  0  0  0  0
 17 18  1  0  0  0  0
 18 19  2  0  0  0  0
 18 20  1  0  0  0  0
 20 21  1  0  0  0  0
 21 22  2  0  0  0  0
 21 23  1  0  0  0  0
 23 24  1  0  0  0  0
 24 41  1  0  0  0  0
 24 42  1  0  0  0  0
 24 43  1  0  0  0  0
M  CHG  1  20  -1
M  END
> <s_m_source_file>
AV-unprocessed.smi

> <i_m_source_file_index>
1887

> <i_lp_mmshare_version>
43012

> <i_f3d_flags>
0

> <s_epik_input>
W0NIM11uMWMoPU8pW25IXWMoPU8pYyhjMTIpbihbQ0gyXVtDSDJdT1tDSDNdKWMobjIpLW4zbmMoW0NIM10pYyhbQ0gzXSljM1tDSDNd

> <s_epik_cmdline>
J2VwaWtfcHl0aG9uJywgJy1waCcsICc3LjAnLCAnLXRuJywgJzgnLCAnLW1hJywgJzIwMCcsICctbWV0YWxfYmluZGluZycsICctaW1hZScsICc8aW5maWxlLm1hZT4nLCAnLW9tYWUnLCAnPG91dGZpbGUubWFlPic=

> <r_lp_tautomer_probability>
1

> <r_epik_Ionization_Penalty>
3.98818

> <r_epik_Ionization_Penalty_Charging>
0.0180637

> <r_epik_Ionization_Penalty_Neutral>
3.97012

> <r_epik_State_Penalty>
3.96767

> <r_epik_Charging_Adjusted_Penalty>
3.98573

> <i_epik_Tot_Q>
-1

> <i_epik_Tot_abs_Q>
1

> <r_epik_Metal_State_Penalty>
0.612715

> <b_epik_Metal_Only>
1

> <s_lp_Force_Field>
OPLS_2005

> <r_lp_Energy>
28.3599

> <b_lp_Chiralities_Consistent>
1

> <s_lp_Variant>
AV-unprocessed.smi:1887-2

> <Gold.Version>
5.8.1

> <Gold.Id.Protein>
6NUR|6NUR_protein|mol2

> <Gold.PLP.Fitness>
38.5197

> <Gold.PLP.PLP>
-25.3763

> <Gold.PLP.part.hbond>
-6.2563

> <Gold.PLP.part.metal>
0.0000

> <Gold.PLP.part.buried>
-2.8445

> <Gold.PLP.part.nonpolar>
-15.8076

> <Gold.PLP.part.repulsive>
0.0000

> <Gold.PLP.ligand.clash>
0.0000

> <Gold.PLP.ligand.torsion>
1.2318

> <Gold.PLP.Chemscore.Hbond>
5.0640

> <Gold.PLP.Chemscore.CHOScore>
0.0000

> <Gold.PLP.Chemscore.Metal>
0.0000

> <Gold.Chemscore.Hbonds>
donor molecule, donor type, donor heavy atom, donor atom, acceptor molecule, acceptor atom, score
      P1  H  6896  6907       L1    15  0.83
      P1  H  6931  6943       L1     8  0.78
      P1  H  6934  6947       L1     8  0.73
      P1  H  7997  8009       L1    22  0.43
      P1  H  7997  8010       L1    20  1.98

> <Gold.PLP.Chemscore.Internal.Correction>
0.4152

> <Gold.Rescore>
     Score         DG    S(hbond)    S(metal)    S(lipo)     H(rot)  DE(clash)    DE(int)     intcor
     13.23     -14.84       2.76        0.00      33.83       1.48       0.16       1.45       ----

> <Gold.Chemscore.Fitness>
13.2295

> <Gold.Chemscore.DG>
-14.8436

> <Gold.Chemscore.ZeroCoef>
-5.4800

> <Gold.Chemscore.Hbond>
2.7551

> <Gold.Chemscore.Metal>
0.0000

> <Gold.Chemscore.Lipo>
33.8338

> <Gold.Chemscore.Internal_Hbond>
0.0000

> <Gold.Chemscore.DEClash>
0.1601

> <Gold.Chemscore.DEInternal>
1.4540

> <Gold.Chemscore.Rot>
1.4832

> <Gold.Chemscore.Internal.Correction>
   9.000000E+99

> <Gold.Chemscore.Hbonds>
donor molecule, donor type, donor heavy atom, donor atom, acceptor molecule, acceptor atom, score
      P1  H  6896  6907       L1    15  0.20
      P1  H  6931  6943       L1     8  0.72
      P1  H  6934  6947       L1     8  0.17
      P1  H  7997  8009       L1    22  0.30
      P1  H  7997  8010       L1    20  0.46

> <Gold.Chemscore.Hbond.Weighted>
-9.2020

> <Gold.Chemscore.Metal.Weighted>
-0.0000

> <Gold.Chemscore.Lipo.Weighted>
-3.9586

> <Gold.Chemscore.Internal_Hbond.Weighted>
0.0000

> <Gold.Chemscore.DEClash.Weighted>
0.1601

> <Gold.Chemscore.DEInternal.Weighted>
1.4540

> <Gold.Chemscore.Rot.Weighted>
3.7970

> <Gold.Chemscore.Internal.Correction.Weighted>
   9.000000E+99

> <Gold.Protein.RotatedTorsions>
[ 6907 6896 6895 6894 ] final  -13.30 input  -60.11 | X-H torsion
[ 7974 7965 7964 7962 ] final   16.96 input  175.53 | X-H torsion
[ 8008 7997 7996 7995 ] final   68.89 input   59.86 | X-H torsion
[ 10167 10162 10161 10158 ] final -160.10 input  -65.29 | X-H torsion
[ 10718 10713 10712 10709 ] final    7.56 input   66.30 | X-H torsion
[ 10763 10752 10751 10750 ] final -165.35 input  -60.55 | X-H torsion
[ 11005 11000 10999 10996 ] final -151.61 input  -57.11 | X-H torsion

> <Gold.Protein.ActiveResidues>
 VAL166  LYS551  ARG553  GLY616  TRP617  ASP618  TYR619  PRO620  LYS621  CYS622 
 ASP623  PHE694  ASN695  SER759  ASP760  ASP761  ALA762  ILE779  LEU786  VAL792 
 PHE793  MET794  SER795  GLU796  ALA797  LYS798  CYS799  TRP800  GLU811  SER814 

> <Gold.Protein.RotatedAtoms>
  151.3570  135.0896  159.9421 H   0  0  0  0  0  0  0  0  0  0  0  0  # atno 6907 bound_to 6896
  152.5172  133.9295  159.7584 H   0  0  0  0  0  0  0  0  0  0  0  0  # atno 6908 bound_to 6896
  150.9682  133.6318  159.2772 H   0  0  0  0  0  0  0  0  0  0  0  0  # atno 6909 bound_to 6896
  146.2233  139.8672  142.8594 H   0  0  0  0  0  0  0  0  0  0  0  0  # atno 7974 bound_to 7965
  155.7153  140.3494  155.4992 H   0  0  0  0  0  0  0  0  0  0  0  0  # atno 8008 bound_to 7997
  155.9319  140.1086  157.1147 H   0  0  0  0  0  0  0  0  0  0  0  0  # atno 8009 bound_to 7997
  154.4087  140.1229  156.4800 H   0  0  0  0  0  0  0  0  0  0  0  0  # atno 8010 bound_to 7997
  139.6565  143.9990  152.2197 H   0  0  0  0  0  0  0  0  0  0  0  0  # atno 10167 bound_to 10162
  156.9387  130.5853  149.5652 H   0  0  0  0  0  0  0  0  0  0  0  0  # atno 10718 bound_to 10713
  154.6941  135.2976  154.9437 H   0  0  0  0  0  0  0  0  0  0  0  0  # atno 10763 bound_to 10752
  154.0391  135.6660  153.4792 H   0  0  0  0  0  0  0  0  0  0  0  0  # atno 10764 bound_to 10752
  153.0633  135.5103  154.8049 H   0  0  0  0  0  0  0  0  0  0  0  0  # atno 10765 bound_to 10752
  140.7277  134.3656  157.5172 H   0  0  0  0  0  0  0  0  0  0  0  0  # atno 11005 bound_to 11000
  145.2645  141.0088  143.3807 LP  0  0  0  0  0  0  0  0  0  0  0  0  # atno 17320 bound_to 7965
  144.9272  139.4341  143.6512 LP  0  0  0  0  0  0  0  0  0  0  0  0  # atno 17321 bound_to 7965
  139.9717  144.6489  150.7982 LP  0  0  0  0  0  0  0  0  0  0  0  0  # atno 17342 bound_to 10162
  140.7561  143.3060  151.2962 LP  0  0  0  0  0  0  0  0  0  0  0  0  # atno 17343 bound_to 10162
  156.0414  130.5496  150.8780 LP  0  0  0  0  0  0  0  0  0  0  0  0  # atno 17370 bound_to 10713
  157.5799  131.0946  150.9287 LP  0  0  0  0  0  0  0  0  0  0  0  0  # atno 17371 bound_to 10713
  139.8833  134.8997  156.2773 LP  0  0  0  0  0  0  0  0  0  0  0  0  # atno 17394 bound_to 11000
  140.9948  133.7186  156.0870 LP  0  0  0  0  0  0  0  0  0  0  0  0  # atno 17395 bound_to 11000

$$$$
