AV-unprocessed.smi:2008|AV-procd|sdf|8142|dock7
  -GOLD-   2272010383D 1   1.00000     0.00000
 Structure written by MMmdl.
 46 47  0  0  0  0  0  0  0  0  2 V2000
  152.2280  141.7527  159.2030 C   0  0  0  0  0  0  0  0  0  0  0  0
  152.6567  140.6968  158.3498 O   0  0  0  0  0  0  0  0  0  0  0  0
  151.8865  140.3941  157.2456 C   0  0  0  0  0  0  0  0  0  0  0  0
  150.5466  140.8287  157.2178 C   0  0  0  0  0  0  0  0  0  0  0  0
  149.7574  140.5212  156.0937 C   0  0  0  0  0  0  0  0  0  0  0  0
  150.3234  139.7814  155.0357 C   0  0  0  0  0  0  0  0  0  0  0  0
  149.5048  139.4966  153.9091 N   0  0  0  0  0  0  0  0  0  0  0  0
  148.2060  139.1512  153.8835 C   0  0  0  0  0  0  0  0  0  0  0  0
  147.4840  139.0095  154.8703 O   0  0  0  0  0  0  0  0  0  0  0  0
  147.7699  138.9896  152.6259 N   0  0  0  0  0  0  0  0  0  0  0  0
  146.4011  138.6455  152.2582 C   0  0  0  0  0  0  0  0  0  0  0  0
  145.8571  137.4939  153.1267 C   0  0  0  0  0  0  0  0  0  0  0  0
  146.0589  136.1492  152.5209 N   0  3  1  0  0  0  0  0  0  0  0  0
  146.0695  135.0734  153.5491 C   0  0  0  0  0  0  0  0  0  0  0  0
  146.4889  133.7231  152.9471 C   0  0  0  0  0  0  0  0  0  0  0  0
  145.5829  133.3402  151.7726 C   0  0  0  0  0  0  0  0  0  0  0  0
  145.5769  134.4694  150.7336 C   0  0  0  0  0  0  0  0  0  0  0  0
  145.1821  135.8291  151.3491 C   0  0  1  0  0  0  0  0  0  0  0  0
  143.6723  135.9095  151.6626 C   0  0  0  0  0  0  0  0  0  0  0  0
  151.6830  139.4016  155.1527 C   0  0  0  0  0  0  0  0  0  0  0  0
  152.4457  139.6953  156.2272 N   0  0  0  0  0  0  0  0  0  0  0  0
  152.9304  141.8573  160.0298 H   0  0  0  0  0  0  0  0  0  0  0  0
  151.2449  141.5478  159.6296 H   0  0  0  0  0  0  0  0  0  0  0  0
  152.1967  142.7054  158.6724 H   0  0  0  0  0  0  0  0  0  0  0  0
  150.1324  141.3885  158.0433 H   0  0  0  0  0  0  0  0  0  0  0  0
  148.7282  140.8466  156.0498 H   0  0  0  0  0  0  0  0  0  0  0  0
  149.9436  139.6398  153.0112 H   0  0  0  0  0  0  0  0  0  0  0  0
  148.4263  139.1288  151.8711 H   0  0  0  0  0  0  0  0  0  0  0  0
  145.7838  139.5400  152.3433 H   0  0  0  0  0  0  0  0  0  0  0  0
  146.3918  138.3569  151.2068 H   0  0  0  0  0  0  0  0  0  0  0  0
  146.3820  137.5226  154.0827 H   0  0  0  0  0  0  0  0  0  0  0  0
  144.8039  137.6439  153.3646 H   0  0  0  0  0  0  0  0  0  0  0  0
  146.7699  135.3334  154.3437 H   0  0  0  0  0  0  0  0  0  0  0  0
  145.0878  134.9932  154.0169 H   0  0  0  0  0  0  0  0  0  0  0  0
  147.5241  133.7790  152.6078 H   0  0  0  0  0  0  0  0  0  0  0  0
  146.4557  132.9468  153.7122 H   0  0  0  0  0  0  0  0  0  0  0  0
  145.9304  132.4124  151.3174 H   0  0  0  0  0  0  0  0  0  0  0  0
  144.5701  133.1501  152.1294 H   0  0  0  0  0  0  0  0  0  0  0  0
  146.5728  134.5514  150.2956 H   0  0  0  0  0  0  0  0  0  0  0  0
  144.9069  134.2166  149.9111 H   0  0  0  0  0  0  0  0  0  0  0  0
  145.3816  136.5670  150.5733 H   0  0  0  0  0  0  0  0  0  0  0  0
  143.0838  135.6409  150.7851 H   0  0  0  0  0  0  0  0  0  0  0  0
  143.3689  136.9182  151.9422 H   0  0  0  0  0  0  0  0  0  0  0  0
  143.3780  135.2364  152.4673 H   0  0  0  0  0  0  0  0  0  0  0  0
  152.1980  138.8662  154.3707 H   0  0  0  0  0  0  0  0  0  0  0  0
  146.9990  136.1631  152.1518 H   0  0  0  0  0  0  0  0  0  0  0  0
  1  2  1  0  0  0  0
  1 22  1  0  0  0  0
  1 23  1  0  0  0  0
  1 24  1  0  0  0  0
  2  3  1  0  0  0  0
  3 21  1  0  0  0  0
  3  4  2  0  0  0  0
  4  5  1  0  0  0  0
  4 25  1  0  0  0  0
  5  6  2  0  0  0  0
  5 26  1  0  0  0  0
  6  7  1  0  0  0  0
  6 20  1  0  0  0  0
  7  8  1  0  0  0  0
  7 27  1  0  0  0  0
  8  9  2  0  0  0  0
  8 10  1  0  0  0  0
 10 11  1  0  0  0  0
 10 28  1  0  0  0  0
 11 12  1  0  0  0  0
 11 29  1  0  0  0  0
 11 30  1  0  0  0  0
 12 13  1  0  0  0  0
 12 31  1  0  0  0  0
 12 32  1  0  0  0  0
 13 18  1  0  0  0  0
 13 14  1  0  0  0  0
 13 46  1  0  0  0  0
 14 15  1  0  0  0  0
 14 33  1  0  0  0  0
 14 34  1  0  0  0  0
 15 16  1  0  0  0  0
 15 35  1  0  0  0  0
 15 36  1  0  0  0  0
 16 17  1  0  0  0  0
 16 37  1  0  0  0  0
 16 38  1  0  0  0  0
 17 18  1  0  0  0  0
 17 39  1  0  0  0  0
 17 40  1  0  0  0  0
 18 19  1  0  0  0  0
 18 41  1  0  0  0  0
 19 42  1  0  0  0  0
 19 43  1  0  0  0  0
 19 44  1  0  0  0  0
 20 21  2  0  0  0  0
 20 45  1  0  0  0  0
M  CHG  1  13   1
M  END
> <s_m_source_file>
AV-unprocessed.smi

> <i_m_source_file_index>
2008

> <i_lp_mmshare_version>
43012

> <i_f3d_flags>
0

> <s_epik_input>
W0NIM11PYzFbY0hdW2NIXWMoW2NIXW4xKVtOSF1DKD1PKVtOSF1bQ0gyXVtDSDJdTjJbQ0gyXVtDSDJdW0NIMl1bQ0gyXVtDQEhdMltDSDNd

> <s_epik_cmdline>
J2VwaWtfcHl0aG9uJywgJy1waCcsICc3LjAnLCAnLXRuJywgJzgnLCAnLW1hJywgJzIwMCcsICctbWV0YWxfYmluZGluZycsICctaW1hZScsICc8aW5maWxlLm1hZT4nLCAnLW9tYWUnLCAnPG91dGZpbGUubWFlPic=

> <r_lp_tautomer_probability>
1

> <r_epik_Ionization_Penalty>
0.00219526

> <r_epik_Ionization_Penalty_Charging>
0.00211816

> <r_epik_Ionization_Penalty_Neutral>
7.71003e-05

> <r_epik_State_Penalty>
0.00145254

> <r_epik_Charging_Adjusted_Penalty>
0.0035707

> <i_epik_Tot_Q>
1

> <i_epik_Tot_abs_Q>
1

> <r_epik_Metal_State_Penalty>
-0

> <b_epik_Metal_Only>
0

> <s_lp_Force_Field>
OPLS_2005

> <r_lp_Energy>
23.0137

> <b_lp_Chiralities_Consistent>
1

> <s_lp_Variant>
AV-unprocessed.smi:2008-2

> <Gold.Version>
5.8.1

> <Gold.Id.Protein>
6NUR|6NUR_protein|mol2

> <Gold.PLP.Fitness>
48.3633

> <Gold.PLP.PLP>
-35.9684

> <Gold.PLP.part.hbond>
-4.7850

> <Gold.PLP.part.metal>
0.0000

> <Gold.PLP.part.buried>
-3.1170

> <Gold.PLP.part.nonpolar>
-27.7816

> <Gold.PLP.part.repulsive>
0.2900

> <Gold.PLP.ligand.clash>
0.0000

> <Gold.PLP.ligand.torsion>
1.0301

> <Gold.PLP.Chemscore.Hbond>
4.8000

> <Gold.PLP.Chemscore.CHOScore>
0.0000

> <Gold.PLP.Chemscore.Metal>
0.0000

> <Gold.Chemscore.Hbonds>
donor molecule, donor type, donor heavy atom, donor atom, acceptor molecule, acceptor atom, score
      L1  H     7    27       P1  7957  0.90
      L1  H    10    28       P1  7957  1.00
      L1  H    13    46       P1  7948  2.00
      P1  H  7997  8010       L1    21  1.00

> <Gold.PLP.Chemscore.Internal.Correction>
0.0551

> <Gold.Rescore>
     Score         DG    S(hbond)    S(metal)    S(lipo)     H(rot)  DE(clash)    DE(int)     intcor
     18.23     -21.53       3.65        0.00      70.50       1.71       0.02       3.29       ----

> <Gold.Chemscore.Fitness>
18.2293

> <Gold.Chemscore.DG>
-21.5346

> <Gold.Chemscore.ZeroCoef>
-5.4800

> <Gold.Chemscore.Hbond>
3.6482

> <Gold.Chemscore.Metal>
0.0000

> <Gold.Chemscore.Lipo>
70.5038

> <Gold.Chemscore.Internal_Hbond>
0.0000

> <Gold.Chemscore.DEClash>
0.0152

> <Gold.Chemscore.DEInternal>
3.2902

> <Gold.Chemscore.Rot>
1.7107

> <Gold.Chemscore.Internal.Correction>
   9.000000E+99

> <Gold.Chemscore.Hbonds>
donor molecule, donor type, donor heavy atom, donor atom, acceptor molecule, acceptor atom, score
      L1  H     7    27       P1  7957  0.88
      L1  H    10    28       P1  7957  0.93
      L1  H    13    46       P1  7948  0.99
      P1  H  7997  8010       L1    21  0.29

> <Gold.Chemscore.Hbond.Weighted>
-12.1851

> <Gold.Chemscore.Metal.Weighted>
-0.0000

> <Gold.Chemscore.Lipo.Weighted>
-8.2489

> <Gold.Chemscore.Internal_Hbond.Weighted>
0.0000

> <Gold.Chemscore.DEClash.Weighted>
0.0152

> <Gold.Chemscore.DEInternal.Weighted>
3.2902

> <Gold.Chemscore.Rot.Weighted>
4.3794

> <Gold.Chemscore.Internal.Correction.Weighted>
   9.000000E+99

> <Gold.Protein.RotatedTorsions>
[ 6907 6896 6895 6894 ] final  -44.59 input  -60.11 | X-H torsion
[ 7974 7965 7964 7962 ] final  130.82 input  175.53 | X-H torsion
[ 8008 7997 7996 7995 ] final   66.48 input   59.86 | X-H torsion
[ 10167 10162 10161 10158 ] final  148.07 input  -65.29 | X-H torsion
[ 10718 10713 10712 10709 ] final -104.13 input   66.30 | X-H torsion
[ 10763 10752 10751 10750 ] final   -1.08 input  -60.55 | X-H torsion
[ 11005 11000 10999 10996 ] final  112.82 input  -57.11 | X-H torsion

> <Gold.Protein.ActiveResidues>
 VAL166  LYS551  ARG553  GLY616  TRP617  ASP618  TYR619  PRO620  LYS621  CYS622 
 ASP623  PHE694  ASN695  SER759  ASP760  ASP761  ALA762  ILE779  LEU786  VAL792 
 PHE793  MET794  SER795  GLU796  ALA797  LYS798  CYS799  TRP800  GLU811  SER814 

> <Gold.Protein.RotatedAtoms>
  150.9311  134.8726  159.7551 H   0  0  0  0  0  0  0  0  0  0  0  0  # atno 6907 bound_to 6896
  152.5038  134.4077  159.9448 H   0  0  0  0  0  0  0  0  0  0  0  0  # atno 6908 bound_to 6896
  151.4104  133.3689  159.2778 H   0  0  0  0  0  0  0  0  0  0  0  0  # atno 6909 bound_to 6896
  145.0138  139.4195  143.5231 H   0  0  0  0  0  0  0  0  0  0  0  0  # atno 7974 bound_to 7965
  155.6781  140.3496  155.4844 H   0  0  0  0  0  0  0  0  0  0  0  0  # atno 8008 bound_to 7997
  155.9631  140.1141  157.0901 H   0  0  0  0  0  0  0  0  0  0  0  0  # atno 8009 bound_to 7997
  154.4148  140.1172  156.5191 H   0  0  0  0  0  0  0  0  0  0  0  0  # atno 8010 bound_to 7997
  139.4880  144.5707  151.7060 H   0  0  0  0  0  0  0  0  0  0  0  0  # atno 10167 bound_to 10162
  156.0292  130.5500  150.7353 H   0  0  0  0  0  0  0  0  0  0  0  0  # atno 10718 bound_to 10713
  153.3402  135.6980  153.6874 H   0  0  0  0  0  0  0  0  0  0  0  0  # atno 10763 bound_to 10752
  153.5641  135.3529  155.2812 H   0  0  0  0  0  0  0  0  0  0  0  0  # atno 10764 bound_to 10752
  154.8635  135.4256  154.2613 H   0  0  0  0  0  0  0  0  0  0  0  0  # atno 10765 bound_to 10752
  139.8937  134.9537  156.6645 H   0  0  0  0  0  0  0  0  0  0  0  0  # atno 11005 bound_to 11000
  146.3474  139.9598  142.8719 LP  0  0  0  0  0  0  0  0  0  0  0  0  # atno 17320 bound_to 7965
  145.1987  140.9844  143.4168 LP  0  0  0  0  0  0  0  0  0  0  0  0  # atno 17321 bound_to 7965
  140.5294  144.0754  150.6048 LP  0  0  0  0  0  0  0  0  0  0  0  0  # atno 17342 bound_to 10162
  140.3739  143.2839  152.0247 LP  0  0  0  0  0  0  0  0  0  0  0  0  # atno 17343 bound_to 10162
  157.4935  131.0913  151.0399 LP  0  0  0  0  0  0  0  0  0  0  0  0  # atno 17370 bound_to 10713
  157.0799  130.5898  149.5418 LP  0  0  0  0  0  0  0  0  0  0  0  0  # atno 17371 bound_to 10713
  140.7421  133.8968  155.8286 LP  0  0  0  0  0  0  0  0  0  0  0  0  # atno 17394 bound_to 11000
  141.0069  134.1074  157.4261 LP  0  0  0  0  0  0  0  0  0  0  0  0  # atno 17395 bound_to 11000

$$$$
