AV-unprocessed.smi:1379|AV-procd|sdf|5599|dock5
  -GOLD-   22720 5203D 1   1.00000     0.00000
 Structure written by MMmdl.
 35 36  0  0  0  0  0  0  0  0  2 V2000
  150.1761  134.3046  155.0973 C   0  0  0  0  0  0  0  0  0  0  0  0
  151.0702  135.3455  155.4495 O   0  0  0  0  0  0  0  0  0  0  0  0
  150.6764  136.6008  154.9149 C   0  0  0  0  0  0  0  0  0  0  0  0
  151.0978  137.7211  155.8676 C   0  0  0  0  0  0  0  0  0  0  0  0
  151.7967  137.4461  156.8416 O   0  0  0  0  0  0  0  0  0  0  0  0
  150.6308  138.9515  155.5816 N   0  0  0  0  0  0  0  0  0  0  0  0
  150.8511  140.1765  156.2686 C   0  0  0  0  0  0  0  0  0  0  0  0
  151.6432  140.1374  157.4363 C   0  0  0  0  0  0  0  0  0  0  0  0
  151.8836  141.3223  158.1615 C   0  0  0  0  0  0  0  0  0  0  0  0
  151.3167  142.5371  157.7115 C   0  0  0  0  0  0  0  0  0  0  0  0
  151.4948  143.7695  158.3556 N   0  0  0  0  0  0  0  0  0  0  0  0
  150.2837  144.3703  158.8892 C   0  0  0  0  0  0  0  0  0  0  0  0
  150.7575  145.4387  159.8779 C   0  0  0  0  0  0  0  0  0  0  0  0
  152.1856  145.0243  160.2524 C   0  0  0  0  0  0  0  0  0  0  0  0
  152.4472  143.7453  159.4528 C   0  0  0  0  0  0  0  0  0  0  0  0
  150.5563  142.5328  156.5955 N   0  3  0  0  0  0  0  0  0  0  0  0
  150.3026  141.4210  155.8714 C   0  0  0  0  0  0  0  0  0  0  0  0
  150.5261  133.3622  155.5181 H   0  0  0  0  0  0  0  0  0  0  0  0
  150.1135  134.1876  154.0145 H   0  0  0  0  0  0  0  0  0  0  0  0
  149.1757  134.4966  155.4873 H   0  0  0  0  0  0  0  0  0  0  0  0
  151.1452  136.7660  153.9436 H   0  0  0  0  0  0  0  0  0  0  0  0
  149.5945  136.6288  154.7745 H   0  0  0  0  0  0  0  0  0  0  0  0
  150.0154  139.0065  154.7826 H   0  0  0  0  0  0  0  0  0  0  0  0
  152.0711  139.2050  157.7755 H   0  0  0  0  0  0  0  0  0  0  0  0
  152.4971  141.2919  159.0502 H   0  0  0  0  0  0  0  0  0  0  0  0
  149.6780  144.8034  158.0926 H   0  0  0  0  0  0  0  0  0  0  0  0
  149.6768  143.6257  159.4056 H   0  0  0  0  0  0  0  0  0  0  0  0
  150.7692  146.4195  159.4007 H   0  0  0  0  0  0  0  0  0  0  0  0
  150.1017  145.5004  160.7469 H   0  0  0  0  0  0  0  0  0  0  0  0
  152.8876  145.8059  159.9593 H   0  0  0  0  0  0  0  0  0  0  0  0
  152.3025  144.8582  161.3238 H   0  0  0  0  0  0  0  0  0  0  0  0
  152.2849  142.8690  160.0819 H   0  0  0  0  0  0  0  0  0  0  0  0
  153.4719  143.7079  159.0818 H   0  0  0  0  0  0  0  0  0  0  0  0
  149.6646  141.5784  155.0153 H   0  0  0  0  0  0  0  0  0  0  0  0
  150.1490  143.4151  156.2843 H   0  0  0  0  0  0  0  0  0  0  0  0
  1  2  1  0  0  0  0
  1 18  1  0  0  0  0
  1 19  1  0  0  0  0
  1 20  1  0  0  0  0
  2  3  1  0  0  0  0
  3  4  1  0  0  0  0
  3 21  1  0  0  0  0
  3 22  1  0  0  0  0
  4  5  2  0  0  0  0
  4  6  1  0  0  0  0
  6  7  1  0  0  0  0
  6 23  1  0  0  0  0
  7 17  1  0  0  0  0
  7  8  2  0  0  0  0
  8  9  1  0  0  0  0
  8 24  1  0  0  0  0
  9 10  2  0  0  0  0
  9 25  1  0  0  0  0
 10 11  1  0  0  0  0
 10 16  1  0  0  0  0
 11 15  1  0  0  0  0
 11 12  1  0  0  0  0
 12 13  1  0  0  0  0
 12 26  1  0  0  0  0
 12 27  1  0  0  0  0
 13 14  1  0  0  0  0
 13 28  1  0  0  0  0
 13 29  1  0  0  0  0
 14 15  1  0  0  0  0
 14 30  1  0  0  0  0
 14 31  1  0  0  0  0
 15 32  1  0  0  0  0
 15 33  1  0  0  0  0
 16 17  2  0  0  0  0
 16 35  1  0  0  0  0
 17 34  1  0  0  0  0
M  CHG  1  16   1
M  END
> <s_m_source_file>
AV-unprocessed.smi

> <i_m_source_file_index>
1379

> <i_lp_mmshare_version>
43012

> <i_f3d_flags>
0

> <s_epik_input>
W0NIM11PW0NIMl1DKD1PKVtOSF1jMVtjSF1bY0hdYyhuW2NIXTEpTjJbQ0gyXVtDSDJdW0NIMl1bQ0gyXTI=

> <s_epik_cmdline>
J2VwaWtfcHl0aG9uJywgJy1waCcsICc3LjAnLCAnLXRuJywgJzgnLCAnLW1hJywgJzIwMCcsICctbWV0YWxfYmluZGluZycsICctaW1hZScsICc8aW5maWxlLm1hZT4nLCAnLW9tYWUnLCAnPG91dGZpbGUubWFlPic=

> <r_lp_tautomer_probability>
0.999994

> <r_epik_Ionization_Penalty>
1.86748

> <r_epik_Ionization_Penalty_Charging>
1.86748

> <r_epik_Ionization_Penalty_Neutral>
2.87909e-06

> <r_epik_State_Penalty>
1.98622

> <r_epik_Charging_Adjusted_Penalty>
3.8537

> <i_epik_Tot_Q>
1

> <i_epik_Tot_abs_Q>
1

> <r_epik_Metal_State_Penalty>
2.01386

> <b_epik_Metal_Only>
0

> <s_lp_Force_Field>
OPLS_2005

> <r_lp_Energy>
42.4744

> <b_lp_Chiralities_Consistent>
1

> <s_lp_Variant>
AV-unprocessed.smi:1379-2

> <Gold.Version>
5.8.1

> <Gold.Id.Protein>
6NUR|6NUR_protein|mol2

> <Gold.PLP.Fitness>
39.9614

> <Gold.PLP.PLP>
-31.5983

> <Gold.PLP.part.hbond>
-2.0000

> <Gold.PLP.part.metal>
0.0000

> <Gold.PLP.part.buried>
-5.6555

> <Gold.PLP.part.nonpolar>
-24.9772

> <Gold.PLP.part.repulsive>
0.3425

> <Gold.PLP.ligand.clash>
0.0000

> <Gold.PLP.ligand.torsion>
0.3274

> <Gold.PLP.Chemscore.Hbond>
3.0000

> <Gold.PLP.Chemscore.CHOScore>
0.0000

> <Gold.PLP.Chemscore.Metal>
0.0000

> <Gold.Chemscore.Hbonds>
donor molecule, donor type, donor heavy atom, donor atom, acceptor molecule, acceptor atom, score
      L1  H    16    35       P1  8028  2.00
      P1  H 10752 10765       L1     2  0.69

> <Gold.PLP.Chemscore.Internal.Correction>
0.0179

> <Gold.Rescore>
     Score         DG    S(hbond)    S(metal)    S(lipo)     H(rot)  DE(clash)    DE(int)     intcor
     15.65     -17.55       1.91        0.00      80.17       1.44       0.08       1.82       ----

> <Gold.Chemscore.Fitness>
15.6505

> <Gold.Chemscore.DG>
-17.5539

> <Gold.Chemscore.ZeroCoef>
-5.4800

> <Gold.Chemscore.Hbond>
1.9126

> <Gold.Chemscore.Metal>
0.0000

> <Gold.Chemscore.Lipo>
80.1676

> <Gold.Chemscore.Internal_Hbond>
0.0000

> <Gold.Chemscore.DEClash>
0.0839

> <Gold.Chemscore.DEInternal>
1.8194

> <Gold.Chemscore.Rot>
1.4428

> <Gold.Chemscore.Internal.Correction>
   9.000000E+99

> <Gold.Chemscore.Hbonds>
donor molecule, donor type, donor heavy atom, donor atom, acceptor molecule, acceptor atom, score
      L1  H    16    35       P1  8028  0.99
      P1  H 10752 10765       L1     2  0.07

> <Gold.Chemscore.Hbond.Weighted>
-6.3879

> <Gold.Chemscore.Metal.Weighted>
-0.0000

> <Gold.Chemscore.Lipo.Weighted>
-9.3796

> <Gold.Chemscore.Internal_Hbond.Weighted>
0.0000

> <Gold.Chemscore.DEClash.Weighted>
0.0839

> <Gold.Chemscore.DEInternal.Weighted>
1.8194

> <Gold.Chemscore.Rot.Weighted>
3.6937

> <Gold.Chemscore.Internal.Correction.Weighted>
   9.000000E+99

> <Gold.Protein.RotatedTorsions>
[ 6907 6896 6895 6894 ] final  -97.23 input  -60.11 | X-H torsion
[ 7974 7965 7964 7962 ] final  -17.93 input  175.53 | X-H torsion
[ 8008 7997 7996 7995 ] final  -54.99 input   59.86 | X-H torsion
[ 10167 10162 10161 10158 ] final  -73.51 input  -65.29 | X-H torsion
[ 10718 10713 10712 10709 ] final   -4.76 input   66.30 | X-H torsion
[ 10763 10752 10751 10750 ] final -165.61 input  -60.55 | X-H torsion
[ 11005 11000 10999 10996 ] final   46.58 input  -57.11 | X-H torsion

> <Gold.Protein.ActiveResidues>
 VAL166  LYS551  ARG553  GLY616  TRP617  ASP618  TYR619  PRO620  LYS621  CYS622 
 ASP623  PHE694  ASN695  SER759  ASP760  ASP761  ALA762  ILE779  LEU786  VAL792 
 PHE793  MET794  SER795  GLU796  ALA797  LYS798  CYS799  TRP800  GLU811  SER814 

> <Gold.Protein.RotatedAtoms>
  150.7010  134.1381  159.4094 H   0  0  0  0  0  0  0  0  0  0  0  0  # atno 6907 bound_to 6896
  151.9366  135.0230  160.0542 H   0  0  0  0  0  0  0  0  0  0  0  0  # atno 6908 bound_to 6896
  152.2130  133.4890  159.5157 H   0  0  0  0  0  0  0  0  0  0  0  0  # atno 6909 bound_to 6896
  146.1917  140.3849  142.8455 H   0  0  0  0  0  0  0  0  0  0  0  0  # atno 7974 bound_to 7965
  154.4180  140.1163  156.5404 H   0  0  0  0  0  0  0  0  0  0  0  0  # atno 8008 bound_to 7997
  155.6514  140.3496  155.4730 H   0  0  0  0  0  0  0  0  0  0  0  0  # atno 8009 bound_to 7997
  155.9790  140.1156  157.0734 H   0  0  0  0  0  0  0  0  0  0  0  0  # atno 8010 bound_to 7997
  140.5104  143.2346  151.7603 H   0  0  0  0  0  0  0  0  0  0  0  0  # atno 10167 bound_to 10162
  156.7565  130.5256  149.5793 H   0  0  0  0  0  0  0  0  0  0  0  0  # atno 10718 bound_to 10713
  154.6915  135.2971  154.9473 H   0  0  0  0  0  0  0  0  0  0  0  0  # atno 10763 bound_to 10752
  154.0435  135.6654  153.4796 H   0  0  0  0  0  0  0  0  0  0  0  0  # atno 10764 bound_to 10752
  153.0615  135.5113  154.8009 H   0  0  0  0  0  0  0  0  0  0  0  0  # atno 10765 bound_to 10752
  140.1356  134.4649  155.8488 H   0  0  0  0  0  0  0  0  0  0  0  0  # atno 11005 bound_to 11000
  144.8500  140.6986  143.6174 LP  0  0  0  0  0  0  0  0  0  0  0  0  # atno 17320 bound_to 7965
  145.3772  139.1645  143.4300 LP  0  0  0  0  0  0  0  0  0  0  0  0  # atno 17321 bound_to 7965
  139.4894  144.4399  151.9777 LP  0  0  0  0  0  0  0  0  0  0  0  0  # atno 17342 bound_to 10162
  140.3491  144.3111  150.5952 LP  0  0  0  0  0  0  0  0  0  0  0  0  # atno 17343 bound_to 10162
  156.1367  130.6216  151.0409 LP  0  0  0  0  0  0  0  0  0  0  0  0  # atno 17370 bound_to 10713
  157.6753  131.0852  150.7509 LP  0  0  0  0  0  0  0  0  0  0  0  0  # atno 17371 bound_to 10713
  141.2178  133.6813  156.7152 LP  0  0  0  0  0  0  0  0  0  0  0  0  # atno 17394 bound_to 11000
  140.2786  134.8335  157.3913 LP  0  0  0  0  0  0  0  0  0  0  0  0  # atno 17395 bound_to 11000

$$$$
