AV-unprocessed.smi:3032|AV-procd|sdf|11559|dock8
  -GOLD-   2272016523D 1   1.00000     0.00000
 Structure written by MMmdl.
 37 38  0  0  0  0  0  0  0  0  1 V2000
  153.5521  141.9864  160.8507 C   0  0  0  0  0  0  0  0  0  0  0  0
  153.0684  142.3431  159.4379 C   0  0  2  0  0  0  0  0  0  0  0  0
  152.7608  143.8478  159.3111 C   0  0  0  0  0  0  0  0  0  0  0  0
  152.2715  144.2064  157.8992 C   0  0  0  0  0  0  0  0  0  0  0  0
  151.0486  143.3649  157.5030 C   0  0  0  0  0  0  0  0  0  0  0  0
  151.3502  141.8559  157.6126 C   0  0  2  0  0  0  0  0  0  0  0  0
  150.1166  141.0273  157.2311 C   0  0  0  0  0  0  0  0  0  0  0  0
  149.5316  140.3541  158.0802 O   0  0  0  0  0  0  0  0  0  0  0  0
  149.7214  141.0984  155.9510 N   0  0  0  0  0  0  0  0  0  0  0  0
  148.5432  140.4381  155.3961 C   0  0  0  0  0  0  0  0  0  0  0  0
  148.8713  139.5344  154.1900 C   0  0  0  0  0  0  0  0  0  0  0  0
  150.2533  138.9616  154.2222 C   0  0  0  0  0  0  0  0  0  0  0  0
  150.5275  137.7348  153.7734 N   0  0  0  0  0  0  0  0  0  0  0  0
  151.8495  137.4976  153.9036 N   0  0  0  0  0  0  0  0  0  0  0  0
  152.2848  138.6360  154.4403 C   0  0  0  0  0  0  0  0  0  0  0  0
  151.3354  139.5941  154.6630 N   0  0  0  0  0  0  0  0  0  0  0  0
  151.8374  141.5069  159.0355 C   0  0  0  0  0  0  0  0  0  0  0  0
  149.8807  137.0629  153.3848 H   0  0  0  0  0  0  0  0  0  0  0  0
  152.7881  142.2023  161.5981 H   0  0  0  0  0  0  0  0  0  0  0  0
  154.4453  142.5533  161.1145 H   0  0  0  0  0  0  0  0  0  0  0  0
  153.8008  140.9274  160.9248 H   0  0  0  0  0  0  0  0  0  0  0  0
  153.8773  142.1058  158.7454 H   0  0  0  0  0  0  0  0  0  0  0  0
  152.0015  144.1318  160.0413 H   0  0  0  0  0  0  0  0  0  0  0  0
  153.6504  144.4323  159.5481 H   0  0  0  0  0  0  0  0  0  0  0  0
  152.0236  145.2670  157.8507 H   0  0  0  0  0  0  0  0  0  0  0  0
  153.0761  144.0440  157.1810 H   0  0  0  0  0  0  0  0  0  0  0  0
  150.2073  143.6295  158.1456 H   0  0  0  0  0  0  0  0  0  0  0  0
  150.7490  143.6161  156.4843 H   0  0  0  0  0  0  0  0  0  0  0  0
  152.1530  141.6190  156.9117 H   0  0  0  0  0  0  0  0  0  0  0  0
  150.2597  141.6748  155.3198 H   0  0  0  0  0  0  0  0  0  0  0  0
  148.1094  139.8321  156.1920 H   0  0  0  0  0  0  0  0  0  0  0  0
  147.7881  141.1774  155.1254 H   0  0  0  0  0  0  0  0  0  0  0  0
  148.1548  138.7139  154.1408 H   0  0  0  0  0  0  0  0  0  0  0  0
  148.7492  140.0965  153.2630 H   0  0  0  0  0  0  0  0  0  0  0  0
  153.3277  138.7838  154.6796 H   0  0  0  0  0  0  0  0  0  0  0  0
  152.0835  140.4452  159.0907 H   0  0  0  0  0  0  0  0  0  0  0  0
  151.0362  141.6740  159.7579 H   0  0  0  0  0  0  0  0  0  0  0  0
  1  2  1  0  0  0  0
  1 19  1  0  0  0  0
  1 20  1  0  0  0  0
  1 21  1  0  0  0  0
  2 17  1  0  0  0  0
  2  3  1  0  0  0  0
  2 22  1  0  0  0  0
  3  4  1  0  0  0  0
  3 23  1  0  0  0  0
  3 24  1  0  0  0  0
  4  5  1  0  0  0  0
  4 25  1  0  0  0  0
  4 26  1  0  0  0  0
  5  6  1  0  0  0  0
  5 27  1  0  0  0  0
  5 28  1  0  0  0  0
  6  7  1  0  0  0  0
  6 17  1  0  0  0  0
  6 29  1  0  0  0  0
  7  8  2  0  0  0  0
  7  9  1  0  0  0  0
  9 10  1  0  0  0  0
  9 30  1  0  0  0  0
 10 11  1  0  0  0  0
 10 31  1  0  0  0  0
 10 32  1  0  0  0  0
 11 33  1  0  0  0  0
 11 34  1  0  0  0  0
 11 12  1  0  0  0  0
 12 16  2  0  0  0  0
 12 13  1  0  0  0  0
 13 18  1  0  0  0  0
 13 14  1  0  0  0  0
 14 15  2  0  0  0  0
 15 16  1  0  0  0  0
 15 35  1  0  0  0  0
 17 36  1  0  0  0  0
 17 37  1  0  0  0  0
M  END
> <s_m_source_file>
AV-unprocessed.smi

> <i_m_source_file_index>
3032

> <i_lp_mmshare_version>
43012

> <i_f3d_flags>
0

> <s_epik_input>
W0NIM11bQ0BASF0xW0NIMl1bQ0gyXVtDSDJdW0NASF0oW0NIMl0xKUMoPU8pW05IXVtDSDJdW0NIMl1jMm5uW2NIXVtuSF0y

> <s_epik_cmdline>
J2VwaWtfcHl0aG9uJywgJy1waCcsICc3LjAnLCAnLXRuJywgJzgnLCAnLW1hJywgJzIwMCcsICctbWV0YWxfYmluZGluZycsICctaW1hZScsICc8aW5maWxlLm1hZT4nLCAnLW9tYWUnLCAnPG91dGZpbGUubWFlPic=

> <r_lp_tautomer_probability>
0.948284

> <r_epik_Ionization_Penalty>
0.000474052

> <r_epik_Ionization_Penalty_Charging>
0

> <r_epik_Ionization_Penalty_Neutral>
0.000474052

> <r_epik_State_Penalty>
0.271807

> <r_epik_Charging_Adjusted_Penalty>
0.271807

> <i_epik_Tot_Q>
0

> <i_epik_Tot_abs_Q>
0

> <r_epik_Metal_State_Penalty>
0.397201

> <b_epik_Metal_Only>
0

> <s_lp_Force_Field>
OPLS_2005

> <r_lp_Energy>
10.6887

> <b_lp_Chiralities_Consistent>
1

> <s_lp_Variant>
AV-unprocessed.smi:3032-3

> <Gold.Version>
5.8.1

> <Gold.Id.Protein>
6NUR|6NUR_protein|mol2

> <Gold.PLP.Fitness>
46.0215

> <Gold.PLP.PLP>
-38.9399

> <Gold.PLP.part.hbond>
-4.0000

> <Gold.PLP.part.metal>
0.0000

> <Gold.PLP.part.buried>
-2.7208

> <Gold.PLP.part.nonpolar>
-33.3884

> <Gold.PLP.part.repulsive>
0.5444

> <Gold.PLP.ligand.clash>
0.0000

> <Gold.PLP.ligand.torsion>
0.6852

> <Gold.PLP.Chemscore.Hbond>
2.8111

> <Gold.PLP.Chemscore.CHOScore>
0.0000

> <Gold.PLP.Chemscore.Metal>
0.0000

> <Gold.Chemscore.Hbonds>
donor molecule, donor type, donor heavy atom, donor atom, acceptor molecule, acceptor atom, score
      L1  H    13    18       P1  7948  1.00
      P1  H  7989  7998       L1    16  1.00
      P1  H 10752 10763       L1    14  0.71

> <Gold.PLP.Chemscore.Internal.Correction>
0.0186

> <Gold.Rescore>
     Score         DG    S(hbond)    S(metal)    S(lipo)     H(rot)  DE(clash)    DE(int)     intcor
     13.04     -16.01       1.75        0.00      89.24       2.25       0.25       2.72       ----

> <Gold.Chemscore.Fitness>
13.0383

> <Gold.Chemscore.DG>
-16.0124

> <Gold.Chemscore.ZeroCoef>
-5.4800

> <Gold.Chemscore.Hbond>
1.7521

> <Gold.Chemscore.Metal>
0.0000

> <Gold.Chemscore.Lipo>
89.2367

> <Gold.Chemscore.Internal_Hbond>
0.0000

> <Gold.Chemscore.DEClash>
0.2544

> <Gold.Chemscore.DEInternal>
2.7197

> <Gold.Chemscore.Rot>
2.2501

> <Gold.Chemscore.Internal.Correction>
   9.000000E+99

> <Gold.Chemscore.Hbonds>
donor molecule, donor type, donor heavy atom, donor atom, acceptor molecule, acceptor atom, score
      L1  H    13    18       P1  7948  0.37
      P1  H  7989  7998       L1    16  0.30
      P1  H 10752 10763       L1    14  0.66

> <Gold.Chemscore.Hbond.Weighted>
-5.8520

> <Gold.Chemscore.Metal.Weighted>
-0.0000

> <Gold.Chemscore.Lipo.Weighted>
-10.4407

> <Gold.Chemscore.Internal_Hbond.Weighted>
0.0000

> <Gold.Chemscore.DEClash.Weighted>
0.2544

> <Gold.Chemscore.DEInternal.Weighted>
2.7197

> <Gold.Chemscore.Rot.Weighted>
5.7603

> <Gold.Chemscore.Internal.Correction.Weighted>
   9.000000E+99

> <Gold.Protein.RotatedTorsions>
[ 6907 6896 6895 6894 ] final -164.15 input  -60.11 | X-H torsion
[ 7974 7965 7964 7962 ] final  172.89 input  175.53 | X-H torsion
[ 8008 7997 7996 7995 ] final   48.23 input   59.86 | X-H torsion
[ 10167 10162 10161 10158 ] final  -90.17 input  -65.29 | X-H torsion
[ 10718 10713 10712 10709 ] final  107.80 input   66.30 | X-H torsion
[ 10763 10752 10751 10750 ] final   34.66 input  -60.55 | X-H torsion
[ 11005 11000 10999 10996 ] final  -83.72 input  -57.11 | X-H torsion

> <Gold.Protein.ActiveResidues>
 VAL166  LYS551  ARG553  GLY616  TRP617  ASP618  TYR619  PRO620  LYS621  CYS622 
 ASP623  PHE694  ASN695  SER759  ASP760  ASP761  ALA762  ILE779  LEU786  VAL792 
 PHE793  MET794  SER795  GLU796  ALA797  LYS798  CYS799  TRP800  GLU811  SER814 

> <Gold.Protein.RotatedAtoms>
  151.4073  133.3738  159.2739 H   0  0  0  0  0  0  0  0  0  0  0  0  # atno 6907 bound_to 6896
  150.9389  134.8801  159.7610 H   0  0  0  0  0  0  0  0  0  0  0  0  # atno 6908 bound_to 6896
  152.5062  134.4022  159.9472 H   0  0  0  0  0  0  0  0  0  0  0  0  # atno 6909 bound_to 6896
  144.7257  139.9567  143.6433 H   0  0  0  0  0  0  0  0  0  0  0  0  # atno 7974 bound_to 7965
  155.3823  140.3429  155.4247 H   0  0  0  0  0  0  0  0  0  0  0  0  # atno 8008 bound_to 7997
  156.1604  140.1599  156.8655 H   0  0  0  0  0  0  0  0  0  0  0  0  # atno 8009 bound_to 7997
  154.5134  140.0784  156.8016 H   0  0  0  0  0  0  0  0  0  0  0  0  # atno 8010 bound_to 7997
  140.3575  143.2859  151.9653 H   0  0  0  0  0  0  0  0  0  0  0  0  # atno 10167 bound_to 10162
  157.6613  131.0880  150.6210 H   0  0  0  0  0  0  0  0  0  0  0  0  # atno 10718 bound_to 10713
  153.0154  135.6354  154.1703 H   0  0  0  0  0  0  0  0  0  0  0  0  # atno 10763 bound_to 10752
  154.1442  135.2833  155.3154 H   0  0  0  0  0  0  0  0  0  0  0  0  # atno 10764 bound_to 10752
  154.6101  135.5559  153.7526 H   0  0  0  0  0  0  0  0  0  0  0  0  # atno 10765 bound_to 10752
  141.1656  133.7309  156.8762 H   0  0  0  0  0  0  0  0  0  0  0  0  # atno 11005 bound_to 11000
  146.0669  139.3660  143.0546 LP  0  0  0  0  0  0  0  0  0  0  0  0  # atno 17320 bound_to 7965
  145.8019  140.9767  143.0994 LP  0  0  0  0  0  0  0  0  0  0  0  0  # atno 17321 bound_to 7965
  139.4818  144.6022  151.7586 LP  0  0  0  0  0  0  0  0  0  0  0  0  # atno 17342 bound_to 10162
  140.5159  144.0954  150.6008 LP  0  0  0  0  0  0  0  0  0  0  0  0  # atno 17343 bound_to 10162
  156.6512  130.4486  149.5718 LP  0  0  0  0  0  0  0  0  0  0  0  0  # atno 17370 bound_to 10713
  156.2136  130.6694  151.1295 LP  0  0  0  0  0  0  0  0  0  0  0  0  # atno 17371 bound_to 10713
  140.1747  134.9075  157.2876 LP  0  0  0  0  0  0  0  0  0  0  0  0  # atno 17394 bound_to 11000
  140.2462  134.3737  155.7460 LP  0  0  0  0  0  0  0  0  0  0  0  0  # atno 17395 bound_to 11000

$$$$
