AV-unprocessed.smi:3111|AV-procd|sdf|11832|dock6
  -GOLD-   2272017203D 1   1.00000     0.00000
 Structure written by MMmdl.
 29 29  0  0  0  0  0  0  0  0  1 V2000
  148.0773  145.0170  160.4992 C   0  0  0  0  0  0  0  0  0  0  0  0
  147.2061  144.5517  159.4310 N   0  0  0  0  0  0  0  0  0  0  0  0
  146.5240  143.3982  159.4619 C   0  0  0  0  0  0  0  0  0  0  0  0
  146.5578  142.6212  160.4175 O   0  0  0  0  0  0  0  0  0  0  0  0
  145.6569  143.0931  158.2340 C   0  0  0  0  0  0  0  0  0  0  0  0
  146.4287  143.0278  156.9953 N   0  0  0  0  0  0  0  0  0  0  0  0
  146.7702  141.8974  156.3554 C   0  0  0  0  0  0  0  0  0  0  0  0
  146.4710  140.7758  156.7675 O   0  0  0  0  0  0  0  0  0  0  0  0
  147.5740  142.0667  155.0566 C   0  0  2  0  0  0  0  0  0  0  0  0
  146.8349  141.5156  153.8227 C   0  0  0  0  0  0  0  0  0  0  0  0
  148.8945  141.4675  155.1906 N   0  0  0  0  0  0  0  0  0  0  0  0
  149.8237  141.7177  156.1933 C   0  0  0  0  0  0  0  0  0  0  0  0
  150.9218  140.9338  155.9207 C   0  0  0  0  0  0  0  0  0  0  0  0
  150.6948  140.1951  154.7625 N   0  0  0  0  0  0  0  0  0  0  0  0
  149.4769  140.5632  154.3867 C   0  0  0  0  0  0  0  0  0  0  0  0
  148.5346  145.9660  160.2192 H   0  0  0  0  0  0  0  0  0  0  0  0
  148.8750  144.2980  160.6912 H   0  0  0  0  0  0  0  0  0  0  0  0
  147.5146  145.1683  161.4215 H   0  0  0  0  0  0  0  0  0  0  0  0
  147.1218  145.1390  158.6139 H   0  0  0  0  0  0  0  0  0  0  0  0
  145.1697  142.1297  158.3853 H   0  0  0  0  0  0  0  0  0  0  0  0
  144.8613  143.8347  158.1401 H   0  0  0  0  0  0  0  0  0  0  0  0
  146.7124  143.9074  156.5890 H   0  0  0  0  0  0  0  0  0  0  0  0
  147.7137  143.1378  154.9000 H   0  0  0  0  0  0  0  0  0  0  0  0
  145.8511  141.9737  153.7142 H   0  0  0  0  0  0  0  0  0  0  0  0
  146.6944  140.4356  153.8814 H   0  0  0  0  0  0  0  0  0  0  0  0
  147.3944  141.7248  152.9105 H   0  0  0  0  0  0  0  0  0  0  0  0
  149.6330  142.4147  156.9961 H   0  0  0  0  0  0  0  0  0  0  0  0
  151.8506  140.8450  156.4648 H   0  0  0  0  0  0  0  0  0  0  0  0
  148.9953  140.1640  153.5059 H   0  0  0  0  0  0  0  0  0  0  0  0
  1  2  1  0  0  0  0
  1 16  1  0  0  0  0
  1 17  1  0  0  0  0
  1 18  1  0  0  0  0
  2  3  1  0  0  0  0
  2 19  1  0  0  0  0
  3  4  2  0  0  0  0
  3  5  1  0  0  0  0
  5  6  1  0  0  0  0
  5 20  1  0  0  0  0
  5 21  1  0  0  0  0
  6  7  1  0  0  0  0
  6 22  1  0  0  0  0
  7  8  2  0  0  0  0
  7  9  1  0  0  0  0
  9 10  1  0  0  0  0
  9 11  1  0  0  0  0
  9 23  1  0  0  0  0
 10 24  1  0  0  0  0
 10 25  1  0  0  0  0
 10 26  1  0  0  0  0
 11 15  1  0  0  0  0
 11 12  1  0  0  0  0
 12 13  2  0  0  0  0
 12 27  1  0  0  0  0
 13 14  1  0  0  0  0
 13 28  1  0  0  0  0
 14 15  2  0  0  0  0
 15 29  1  0  0  0  0
M  END
> <s_m_source_file>
AV-unprocessed.smi

> <i_m_source_file_index>
3111

> <i_lp_mmshare_version>
43012

> <i_f3d_flags>
0

> <s_epik_input>
W0NIM11bTkhdQyg9TylbQ0gyXVtOSF1DKD1PKVtDQEhdKFtDSDNdKW4xW2NIXVtjSF1uW2NIXTE=

> <s_epik_cmdline>
J2VwaWtfcHl0aG9uJywgJy1waCcsICc3LjAnLCAnLXRuJywgJzgnLCAnLW1hJywgJzIwMCcsICctbWV0YWxfYmluZGluZycsICctaW1hZScsICc8aW5maWxlLm1hZT4nLCAnLW9tYWUnLCAnPG91dGZpbGUubWFlPic=

> <r_lp_tautomer_probability>
1

> <r_epik_Ionization_Penalty>
0.278299

> <r_epik_Ionization_Penalty_Charging>
0.278299

> <r_epik_Ionization_Penalty_Neutral>
1.78617e-07

> <r_epik_State_Penalty>
0.270759

> <r_epik_Charging_Adjusted_Penalty>
0.549058

> <i_epik_Tot_Q>
0

> <i_epik_Tot_abs_Q>
0

> <r_epik_Metal_State_Penalty>
0.183212

> <b_epik_Metal_Only>
0

> <s_lp_Force_Field>
OPLS_2005

> <r_lp_Energy>
5.209

> <b_lp_Chiralities_Consistent>
1

> <s_lp_Variant>
AV-unprocessed.smi:3111-1

> <Gold.Version>
5.8.1

> <Gold.Id.Protein>
6NUR|6NUR_protein|mol2

> <Gold.PLP.Fitness>
39.5010

> <Gold.PLP.PLP>
-24.6270

> <Gold.PLP.part.hbond>
-5.1723

> <Gold.PLP.part.metal>
0.0000

> <Gold.PLP.part.buried>
0.5845

> <Gold.PLP.part.nonpolar>
-19.0553

> <Gold.PLP.part.repulsive>
0.1993

> <Gold.PLP.ligand.clash>
0.0000

> <Gold.PLP.ligand.torsion>
0.1660

> <Gold.PLP.Chemscore.Hbond>
3.8240

> <Gold.PLP.Chemscore.CHOScore>
1.2220

> <Gold.PLP.Chemscore.Metal>
0.0000

> <Gold.Chemscore.Hbonds>
donor molecule, donor type, donor heavy atom, donor atom, acceptor molecule, acceptor atom, score
      L1  H     2    19       P1  8029  1.00
      P1  H  6933  6944       L1     4  0.44
      P1  H  6934  6946       L1     4  1.00
      P1  H  7989  7998       L1    14  1.00
      L1  C    12    27       P1  8028  0.19
      L1  C    15    29       P1  7957  1.00

> <Gold.PLP.Chemscore.Internal.Correction>
0.0682

> <Gold.Rescore>
     Score         DG    S(hbond)    S(metal)    S(lipo)     H(rot)  DE(clash)    DE(int)     intcor
     13.36     -13.85       3.15        0.00      31.27       2.27       0.14       0.35       ----

> <Gold.Chemscore.Fitness>
13.3601

> <Gold.Chemscore.DG>
-13.8499

> <Gold.Chemscore.ZeroCoef>
-5.4800

> <Gold.Chemscore.Hbond>
3.1512

> <Gold.Chemscore.Metal>
0.0000

> <Gold.Chemscore.Lipo>
31.2684

> <Gold.Chemscore.Internal_Hbond>
0.0000

> <Gold.Chemscore.DEClash>
0.1423

> <Gold.Chemscore.DEInternal>
0.3476

> <Gold.Chemscore.Rot>
2.2709

> <Gold.Chemscore.Internal.Correction>
   9.000000E+99

> <Gold.Chemscore.Hbonds>
donor molecule, donor type, donor heavy atom, donor atom, acceptor molecule, acceptor atom, score
      L1  H     2    19       P1  8029  0.94
      P1  H  6933  6944       L1     4  0.42
      P1  H  6934  6946       L1     4  0.98
      P1  H  7989  7998       L1    14  0.17

> <Gold.Chemscore.Hbond.Weighted>
-10.5250

> <Gold.Chemscore.Metal.Weighted>
-0.0000

> <Gold.Chemscore.Lipo.Weighted>
-3.6584

> <Gold.Chemscore.Internal_Hbond.Weighted>
0.0000

> <Gold.Chemscore.DEClash.Weighted>
0.1423

> <Gold.Chemscore.DEInternal.Weighted>
0.3476

> <Gold.Chemscore.Rot.Weighted>
5.8135

> <Gold.Chemscore.Internal.Correction.Weighted>
   9.000000E+99

> <Gold.Protein.RotatedTorsions>
[ 6907 6896 6895 6894 ] final   16.43 input  -60.11 | X-H torsion
[ 7974 7965 7964 7962 ] final  166.96 input  175.53 | X-H torsion
[ 8008 7997 7996 7995 ] final   33.62 input   59.86 | X-H torsion
[ 10167 10162 10161 10158 ] final -116.46 input  -65.29 | X-H torsion
[ 10718 10713 10712 10709 ] final    5.73 input   66.30 | X-H torsion
[ 10763 10752 10751 10750 ] final -137.70 input  -60.55 | X-H torsion
[ 11005 11000 10999 10996 ] final  -92.45 input  -57.11 | X-H torsion

> <Gold.Protein.ActiveResidues>
 VAL166  LYS551  ARG553  GLY616  TRP617  ASP618  TYR619  PRO620  LYS621  CYS622 
 ASP623  PHE694  ASN695  SER759  ASP760  ASP761  ALA762  ILE779  LEU786  VAL792 
 PHE793  MET794  SER795  GLU796  ALA797  LYS798  CYS799  TRP800  GLU811  SER814 

> <Gold.Protein.RotatedAtoms>
  151.8337  135.0613  160.0439 H   0  0  0  0  0  0  0  0  0  0  0  0  # atno 6907 bound_to 6896
  152.2861  133.5512  159.5536 H   0  0  0  0  0  0  0  0  0  0  0  0  # atno 6908 bound_to 6896
  150.7210  134.0411  159.3808 H   0  0  0  0  0  0  0  0  0  0  0  0  # atno 6909 bound_to 6896
  144.7442  139.8691  143.6387 H   0  0  0  0  0  0  0  0  0  0  0  0  # atno 7974 bound_to 7965
  155.1415  140.3266  155.4451 H   0  0  0  0  0  0  0  0  0  0  0  0  # atno 8008 bound_to 7997
  156.2603  140.1993  156.6480 H   0  0  0  0  0  0  0  0  0  0  0  0  # atno 8009 bound_to 7997
  154.6539  140.0555  156.9973 H   0  0  0  0  0  0  0  0  0  0  0  0  # atno 8010 bound_to 7997
  140.0789  143.4806  152.1937 H   0  0  0  0  0  0  0  0  0  0  0  0  # atno 10167 bound_to 10162
  156.9117  130.5758  149.5647 H   0  0  0  0  0  0  0  0  0  0  0  0  # atno 10718 bound_to 10713
  154.8655  135.3634  154.5265 H   0  0  0  0  0  0  0  0  0  0  0  0  # atno 10763 bound_to 10752
  153.5893  135.7016  153.5435 H   0  0  0  0  0  0  0  0  0  0  0  0  # atno 10764 bound_to 10752
  153.3388  135.4104  155.1517 H   0  0  0  0  0  0  0  0  0  0  0  0  # atno 10765 bound_to 10752
  141.1521  133.7822  157.0022 H   0  0  0  0  0  0  0  0  0  0  0  0  # atno 11005 bound_to 11000
  146.1293  139.4325  143.0179 LP  0  0  0  0  0  0  0  0  0  0  0  0  # atno 17320 bound_to 7965
  145.7187  141.0082  143.1414 LP  0  0  0  0  0  0  0  0  0  0  0  0  # atno 17321 bound_to 7965
  139.5791  144.7502  151.3687 LP  0  0  0  0  0  0  0  0  0  0  0  0  # atno 17342 bound_to 10162
  140.7088  143.7445  150.7529 LP  0  0  0  0  0  0  0  0  0  0  0  0  # atno 17343 bound_to 10162
  156.0533  130.5599  150.9036 LP  0  0  0  0  0  0  0  0  0  0  0  0  # atno 17370 bound_to 10713
  157.5963  131.0943  150.9035 LP  0  0  0  0  0  0  0  0  0  0  0  0  # atno 17371 bound_to 10713
  140.0933  134.9580  157.1810 LP  0  0  0  0  0  0  0  0  0  0  0  0  # atno 17394 bound_to 11000
  140.3417  134.2697  155.7211 LP  0  0  0  0  0  0  0  0  0  0  0  0  # atno 17395 bound_to 11000

$$$$
