AV-unprocessed.smi:2391|AV-procd|sdf|9481|dock6
  -GOLD-   2272013113D 1   1.00000     0.00000
 Structure written by MMmdl.
 35 36  0  0  0  0  0  0  0  0  1 V2000
  146.6757  137.7387  147.7039 O   0  0  0  0  0  0  0  0  0  0  0  0
  147.2049  137.3274  148.7365 C   0  0  0  0  0  0  0  0  0  0  0  0
  148.2567  136.4914  148.7895 N   0  0  0  0  0  0  0  0  0  0  0  0
  148.9733  135.9152  147.7076 C   0  0  0  0  0  0  0  0  0  0  0  0
  150.0074  135.0266  148.0725 C   0  0  0  0  0  0  0  0  0  0  0  0
  150.7584  134.4213  147.0505 C   0  0  0  0  0  0  0  0  0  0  0  0
  150.4220  134.7474  145.7256 C   0  0  0  0  0  0  0  0  0  0  0  0
  149.4228  135.6039  145.4217 N   0  0  0  0  0  0  0  0  0  0  0  0
  148.7124  136.1765  146.3999 N   0  0  0  0  0  0  0  0  0  0  0  0
  146.7957  137.6658  149.9681 N   0  0  0  0  0  0  0  0  0  0  0  0
  145.6681  138.5423  150.2932 C   0  0  2  0  0  0  0  0  0  0  0  0
  145.7632  138.9665  151.7816 C   0  0  0  0  0  0  0  0  0  0  0  0
  144.9917  140.2386  152.1508 C   0  0  0  0  0  0  0  0  0  0  0  0
  145.5975  140.7005  153.4788 C   0  0  0  0  0  0  0  0  0  0  0  0
  147.0320  140.1562  153.5059 C   0  0  0  0  0  0  0  0  0  0  0  0
  147.1893  139.2933  152.2486 C   0  0  0  0  0  0  0  0  0  0  0  0
  144.3537  137.8159  149.9268 C   0  0  0  0  0  0  0  0  0  0  0  0
  144.3515  136.5918  150.4563 F   0  0  0  0  0  0  0  0  0  0  0  0
  143.3010  138.4859  150.3977 F   0  0  0  0  0  0  0  0  0  0  0  0
  144.2295  137.6858  148.6067 F   0  0  0  0  0  0  0  0  0  0  0  0
  148.5833  136.2381  149.7101 H   0  0  0  0  0  0  0  0  0  0  0  0
  150.2225  134.8122  149.1094 H   0  0  0  0  0  0  0  0  0  0  0  0
  151.5611  133.7340  147.2730 H   0  0  0  0  0  0  0  0  0  0  0  0
  150.9618  134.3159  144.8957 H   0  0  0  0  0  0  0  0  0  0  0  0
  147.2947  137.2745  150.7534 H   0  0  0  0  0  0  0  0  0  0  0  0
  145.7188  139.4469  149.6844 H   0  0  0  0  0  0  0  0  0  0  0  0
  145.3869  138.1540  152.4056 H   0  0  0  0  0  0  0  0  0  0  0  0
  145.1506  141.0054  151.3911 H   0  0  0  0  0  0  0  0  0  0  0  0
  143.9179  140.0714  152.2360 H   0  0  0  0  0  0  0  0  0  0  0  0
  145.5657  141.7857  153.5816 H   0  0  0  0  0  0  0  0  0  0  0  0
  145.0312  140.2781  154.3100 H   0  0  0  0  0  0  0  0  0  0  0  0
  147.7680  140.9609  153.5216 H   0  0  0  0  0  0  0  0  0  0  0  0
  147.1865  139.5569  154.4038 H   0  0  0  0  0  0  0  0  0  0  0  0
  147.7829  138.3983  152.4374 H   0  0  0  0  0  0  0  0  0  0  0  0
  147.7058  139.8704  151.4798 H   0  0  0  0  0  0  0  0  0  0  0  0
  1  2  2  0  0  0  0
  2  3  1  0  0  0  0
  2 10  1  0  0  0  0
  3  4  1  0  0  0  0
  3 21  1  0  0  0  0
  4  9  1  0  0  0  0
  4  5  2  0  0  0  0
  5  6  1  0  0  0  0
  5 22  1  0  0  0  0
  6  7  2  0  0  0  0
  6 23  1  0  0  0  0
  7  8  1  0  0  0  0
  7 24  1  0  0  0  0
  8  9  2  0  0  0  0
 10 11  1  0  0  0  0
 10 25  1  0  0  0  0
 11 12  1  0  0  0  0
 11 17  1  0  0  0  0
 11 26  1  0  0  0  0
 12 16  1  0  0  0  0
 12 13  1  0  0  0  0
 12 27  1  0  0  0  0
 13 14  1  0  0  0  0
 13 28  1  0  0  0  0
 13 29  1  0  0  0  0
 14 15  1  0  0  0  0
 14 30  1  0  0  0  0
 14 31  1  0  0  0  0
 15 16  1  0  0  0  0
 15 32  1  0  0  0  0
 15 33  1  0  0  0  0
 16 34  1  0  0  0  0
 16 35  1  0  0  0  0
 17 18  1  0  0  0  0
 17 19  1  0  0  0  0
 17 20  1  0  0  0  0
M  END
> <s_m_source_file>
AV-unprocessed.smi

> <i_m_source_file_index>
2391

> <i_lp_mmshare_version>
43012

> <i_f3d_flags>
0

> <s_epik_input>
W0NIMl0xW0NIMl1bQ0gyXVtDSDJdW0NIXTFbQ0BIXShDKEYpKEYpRilbTkhdQyg9TylbTkhdYzJbY0hdW2NIXVtjSF1ubjI=

> <s_epik_cmdline>
J2VwaWtfcHl0aG9uJywgJy1waCcsICc3LjAnLCAnLXRuJywgJzgnLCAnLW1hJywgJzIwMCcsICctbWV0YWxfYmluZGluZycsICctaW1hZScsICc8aW5maWxlLm1hZT4nLCAnLW9tYWUnLCAnPG91dGZpbGUubWFlPic=

> <r_lp_tautomer_probability>
1

> <r_epik_Ionization_Penalty>
0.00359591

> <r_epik_Ionization_Penalty_Charging>
0

> <r_epik_Ionization_Penalty_Neutral>
0.00359591

> <r_epik_State_Penalty>
0.0123658

> <r_epik_Charging_Adjusted_Penalty>
0.0123658

> <i_epik_Tot_Q>
0

> <i_epik_Tot_abs_Q>
0

> <r_epik_Metal_State_Penalty>
0.0410426

> <b_epik_Metal_Only>
0

> <s_lp_Force_Field>
OPLS_2005

> <r_lp_Energy>
31.4517

> <b_lp_Chiralities_Consistent>
1

> <s_lp_Variant>
AV-unprocessed.smi:2391-1

> <Gold.Version>
5.8.1

> <Gold.Id.Protein>
6NUR|6NUR_protein|mol2

> <Gold.PLP.Fitness>
41.3261

> <Gold.PLP.PLP>
-36.3949

> <Gold.PLP.part.hbond>
-2.0000

> <Gold.PLP.part.metal>
0.0000

> <Gold.PLP.part.buried>
-2.5885

> <Gold.PLP.part.nonpolar>
-30.8498

> <Gold.PLP.part.repulsive>
0.0743

> <Gold.PLP.ligand.clash>
0.0095

> <Gold.PLP.ligand.torsion>
0.6554

> <Gold.PLP.Chemscore.Hbond>
1.9750

> <Gold.PLP.Chemscore.CHOScore>
0.0000

> <Gold.PLP.Chemscore.Metal>
0.0000

> <Gold.Chemscore.Hbonds>
donor molecule, donor type, donor heavy atom, donor atom, acceptor molecule, acceptor atom, score
      L1  H    10    25       P1  7948  0.59

> <Gold.PLP.Chemscore.Internal.Correction>
0.3265

> <Gold.Rescore>
     Score         DG    S(hbond)    S(metal)    S(lipo)     H(rot)  DE(clash)    DE(int)     intcor
     10.10     -14.60       1.66        0.00      59.72       1.33       0.03       4.47       ----

> <Gold.Chemscore.Fitness>
10.1011

> <Gold.Chemscore.DG>
-14.5957

> <Gold.Chemscore.ZeroCoef>
-5.4800

> <Gold.Chemscore.Hbond>
1.6568

> <Gold.Chemscore.Metal>
0.0000

> <Gold.Chemscore.Lipo>
59.7236

> <Gold.Chemscore.Internal_Hbond>
0.0000

> <Gold.Chemscore.DEClash>
0.0289

> <Gold.Chemscore.DEInternal>
4.4657

> <Gold.Chemscore.Rot>
1.3304

> <Gold.Chemscore.Internal.Correction>
   9.000000E+99

> <Gold.Chemscore.Hbonds>
donor molecule, donor type, donor heavy atom, donor atom, acceptor molecule, acceptor atom, score
      L1  H    10    25       P1  7948  0.57

> <Gold.Chemscore.Hbond.Weighted>
-5.5338

> <Gold.Chemscore.Metal.Weighted>
-0.0000

> <Gold.Chemscore.Lipo.Weighted>
-6.9877

> <Gold.Chemscore.Internal_Hbond.Weighted>
0.0000

> <Gold.Chemscore.DEClash.Weighted>
0.0289

> <Gold.Chemscore.DEInternal.Weighted>
4.4657

> <Gold.Chemscore.Rot.Weighted>
3.4057

> <Gold.Chemscore.Internal.Correction.Weighted>
   9.000000E+99

> <Gold.Protein.RotatedTorsions>
[ 6907 6896 6895 6894 ] final  122.57 input  -60.11 | X-H torsion
[ 7974 7965 7964 7962 ] final  101.94 input  175.53 | X-H torsion
[ 8008 7997 7996 7995 ] final -108.56 input   59.86 | X-H torsion
[ 10167 10162 10161 10158 ] final   10.16 input  -65.29 | X-H torsion
[ 10718 10713 10712 10709 ] final   43.49 input   66.30 | X-H torsion
[ 10763 10752 10751 10750 ] final -144.38 input  -60.55 | X-H torsion
[ 11005 11000 10999 10996 ] final  179.15 input  -57.11 | X-H torsion

> <Gold.Protein.ActiveResidues>
 VAL166  LYS551  ARG553  GLY616  TRP617  ASP618  TYR619  PRO620  LYS621  CYS622 
 ASP623  PHE694  ASN695  SER759  ASP760  ASP761  ALA762  ILE779  LEU786  VAL792 
 PHE793  MET794  SER795  GLU796  ALA797  LYS798  CYS799  TRP800  GLU811  SER814 

> <Gold.Protein.RotatedAtoms>
  152.4232  133.7151  159.6501 H   0  0  0  0  0  0  0  0  0  0  0  0  # atno 6907 bound_to 6896
  150.8108  133.8414  159.3189 H   0  0  0  0  0  0  0  0  0  0  0  0  # atno 6908 bound_to 6896
  151.6124  135.1041  160.0135 H   0  0  0  0  0  0  0  0  0  0  0  0  # atno 6909 bound_to 6896
  145.3657  139.2408  143.3482 H   0  0  0  0  0  0  0  0  0  0  0  0  # atno 7974 bound_to 7965
  154.9462  140.0402  157.2121 H   0  0  0  0  0  0  0  0  0  0  0  0  # atno 8008 bound_to 7997
  154.8022  140.2853  155.5891 H   0  0  0  0  0  0  0  0  0  0  0  0  # atno 8009 bound_to 7997
  156.2962  140.2553  156.2893 H   0  0  0  0  0  0  0  0  0  0  0  0  # atno 8010 bound_to 7997
  140.6211  143.8202  150.7176 H   0  0  0  0  0  0  0  0  0  0  0  0  # atno 10167 bound_to 10162
  157.4165  130.7944  149.7477 H   0  0  0  0  0  0  0  0  0  0  0  0  # atno 10718 bound_to 10713
  154.8430  135.3442  154.6337 H   0  0  0  0  0  0  0  0  0  0  0  0  # atno 10763 bound_to 10752
  153.6947  135.6973  153.5084 H   0  0  0  0  0  0  0  0  0  0  0  0  # atno 10764 bound_to 10752
  153.2568  135.4335  155.0808 H   0  0  0  0  0  0  0  0  0  0  0  0  # atno 10765 bound_to 10752
  140.4029  134.6761  157.4572 H   0  0  0  0  0  0  0  0  0  0  0  0  # atno 11005 bound_to 11000
  146.2907  140.4299  142.8740 LP  0  0  0  0  0  0  0  0  0  0  0  0  # atno 17320 bound_to 7965
  144.8613  140.7143  143.6105 LP  0  0  0  0  0  0  0  0  0  0  0  0  # atno 17321 bound_to 7965
  140.1792  143.4129  152.1945 LP  0  0  0  0  0  0  0  0  0  0  0  0  # atno 17342 bound_to 10162
  139.5440  144.7282  151.4643 LP  0  0  0  0  0  0  0  0  0  0  0  0  # atno 17343 bound_to 10162
  155.9867  130.3973  150.3201 LP  0  0  0  0  0  0  0  0  0  0  0  0  # atno 17370 bound_to 10713
  157.1345  131.0280  151.2955 LP  0  0  0  0  0  0  0  0  0  0  0  0  # atno 17371 bound_to 10713
  140.0323  134.6388  155.9090 LP  0  0  0  0  0  0  0  0  0  0  0  0  # atno 17394 bound_to 11000
  141.1850  133.6554  156.5179 LP  0  0  0  0  0  0  0  0  0  0  0  0  # atno 17395 bound_to 11000

$$$$
