AV-unprocessed.smi:2306|AV-procd|sdf|9249|dock4
  -GOLD-   2272012473D 1   1.00000     0.00000
 Structure written by MMmdl.
 41 42  0  0  0  0  0  0  0  0  1 V2000
  142.8076  143.2685  156.1885 C   0  0  0  0  0  0  0  0  0  0  0  0
  144.0436  142.6712  155.5395 C   0  0  0  0  0  0  0  0  0  0  0  0
  144.5416  143.3669  154.4341 N   0  0  0  0  0  0  0  0  0  0  0  0
  145.5878  142.9282  153.8142 C   0  0  0  0  0  0  0  0  0  0  0  0
  146.2499  141.7570  154.2201 N   0  0  0  0  0  0  0  0  0  0  0  0
  147.4276  141.3617  153.4288 C   0  0  0  0  0  0  0  0  0  0  0  0
  148.6795  141.1509  154.3106 C   0  0  1  0  0  0  0  0  0  0  0  0
  149.8447  141.0784  153.5140 O   0  0  0  0  0  0  0  0  0  0  0  0
  148.8906  142.2798  155.3345 C   0  0  0  0  0  0  0  0  0  0  0  0
  150.1115  142.0816  156.0306 O   0  0  0  0  0  0  0  0  0  0  0  0
  149.9246  141.7479  157.3959 C   0  0  0  0  0  0  0  0  0  0  0  0
  150.8323  142.5571  158.3026 C   0  0  0  0  0  0  0  0  0  0  0  0
  151.6776  141.9051  159.2250 C   0  0  0  0  0  0  0  0  0  0  0  0
  152.5098  142.6574  160.0773 C   0  0  0  0  0  0  0  0  0  0  0  0
  152.4948  144.0643  160.0155 C   0  0  0  0  0  0  0  0  0  0  0  0
  151.6457  144.7191  159.1026 C   0  0  0  0  0  0  0  0  0  0  0  0
  150.8140  143.9674  158.2497 C   0  0  0  0  0  0  0  0  0  0  0  0
  145.8406  141.0284  155.2981 C   0  0  0  0  0  0  0  0  0  0  0  0
  146.4418  140.0160  155.6616 O   0  0  0  0  0  0  0  0  0  0  0  0
  144.6434  141.5350  155.9886 C   0  0  0  0  0  0  0  0  0  0  0  0
  144.1457  140.7351  157.1861 C   0  0  0  0  0  0  0  0  0  0  0  0
  143.0016  143.5057  157.2348 H   0  0  0  0  0  0  0  0  0  0  0  0
  141.9736  142.5681  156.1378 H   0  0  0  0  0  0  0  0  0  0  0  0
  142.5018  144.1887  155.6894 H   0  0  0  0  0  0  0  0  0  0  0  0
  146.0194  143.4367  152.9504 H   0  0  0  0  0  0  0  0  0  0  0  0
  147.2271  140.4737  152.8261 H   0  0  0  0  0  0  0  0  0  0  0  0
  147.6367  142.1394  152.6910 H   0  0  0  0  0  0  0  0  0  0  0  0
  148.5996  140.2116  154.8593 H   0  0  0  0  0  0  0  0  0  0  0  0
  149.7102  140.4278  152.8416 H   0  0  0  0  0  0  0  0  0  0  0  0
  148.9387  143.2343  154.8079 H   0  0  0  0  0  0  0  0  0  0  0  0
  148.0494  142.3389  156.0278 H   0  0  0  0  0  0  0  0  0  0  0  0
  148.8910  141.9369  157.6890 H   0  0  0  0  0  0  0  0  0  0  0  0
  150.1161  140.6834  157.5415 H   0  0  0  0  0  0  0  0  0  0  0  0
  151.6929  140.8265  159.2810 H   0  0  0  0  0  0  0  0  0  0  0  0
  153.1586  142.1550  160.7794 H   0  0  0  0  0  0  0  0  0  0  0  0
  153.1324  144.6411  160.6691 H   0  0  0  0  0  0  0  0  0  0  0  0
  151.6312  145.7982  159.0573 H   0  0  0  0  0  0  0  0  0  0  0  0
  150.1630  144.4767  157.5542 H   0  0  0  0  0  0  0  0  0  0  0  0
  143.9169  139.7118  156.8861 H   0  0  0  0  0  0  0  0  0  0  0  0
  143.2467  141.1515  157.6375 H   0  0  0  0  0  0  0  0  0  0  0  0
  144.9144  140.6973  157.9587 H   0  0  0  0  0  0  0  0  0  0  0  0
  1  2  1  0  0  0  0
  1 22  1  0  0  0  0
  1 23  1  0  0  0  0
  1 24  1  0  0  0  0
  2 20  2  0  0  0  0
  2  3  1  0  0  0  0
  3  4  2  0  0  0  0
  4  5  1  0  0  0  0
  4 25  1  0  0  0  0
  5  6  1  0  0  0  0
  5 18  1  0  0  0  0
  6  7  1  0  0  0  0
  6 26  1  0  0  0  0
  6 27  1  0  0  0  0
  7  8  1  0  0  0  0
  7  9  1  0  0  0  0
  7 28  1  0  0  0  0
  8 29  1  0  0  0  0
  9 10  1  0  0  0  0
  9 30  1  0  0  0  0
  9 31  1  0  0  0  0
 10 11  1  0  0  0  0
 11 12  1  0  0  0  0
 11 32  1  0  0  0  0
 11 33  1  0  0  0  0
 12 17  1  0  0  0  0
 12 13  2  0  0  0  0
 13 14  1  0  0  0  0
 13 34  1  0  0  0  0
 14 15  2  0  0  0  0
 14 35  1  0  0  0  0
 15 16  1  0  0  0  0
 15 36  1  0  0  0  0
 16 17  2  0  0  0  0
 16 37  1  0  0  0  0
 17 38  1  0  0  0  0
 18 19  2  0  0  0  0
 18 20  1  0  0  0  0
 20 21  1  0  0  0  0
 21 39  1  0  0  0  0
 21 40  1  0  0  0  0
 21 41  1  0  0  0  0
M  END
> <s_m_source_file>
AV-unprocessed.smi

> <i_m_source_file_index>
2306

> <i_lp_mmshare_version>
43012

> <i_f3d_flags>
0

> <s_epik_input>
W0NIM11jMW5bY0hdbihjKD1PKWMxW0NIM10pW0NIMl1bQ0BIXShbT0hdKVtDSDJdT1tDSDJdYzJbY0hdW2NIXVtjSF1bY0hdW2NIXTI=

> <s_epik_cmdline>
J2VwaWtfcHl0aG9uJywgJy1waCcsICc3LjAnLCAnLXRuJywgJzgnLCAnLW1hJywgJzIwMCcsICctbWV0YWxfYmluZGluZycsICctaW1hZScsICc8aW5maWxlLm1hZT4nLCAnLW9tYWUnLCAnPG91dGZpbGUubWFlPic=

> <r_lp_tautomer_probability>
1

> <r_epik_Ionization_Penalty>
5.35985e-05

> <r_epik_Ionization_Penalty_Charging>
1.17753e-07

> <r_epik_Ionization_Penalty_Neutral>
5.34808e-05

> <r_epik_State_Penalty>
-0

> <r_epik_Charging_Adjusted_Penalty>
1.17753e-07

> <i_epik_Tot_Q>
0

> <i_epik_Tot_abs_Q>
0

> <r_epik_Metal_State_Penalty>
-0

> <b_epik_Metal_Only>
0

> <s_lp_Force_Field>
OPLS_2005

> <r_lp_Energy>
24.4772

> <b_lp_Chiralities_Consistent>
1

> <s_lp_Variant>
AV-unprocessed.smi:2306-2

> <Gold.Version>
5.8.1

> <Gold.Id.Protein>
6NUR|6NUR_protein|mol2

> <Gold.PLP.Fitness>
45.7262

> <Gold.PLP.PLP>
-41.2251

> <Gold.PLP.part.hbond>
-2.4782

> <Gold.PLP.part.metal>
0.0000

> <Gold.PLP.part.buried>
-1.5428

> <Gold.PLP.part.nonpolar>
-36.6822

> <Gold.PLP.part.repulsive>
0.3319

> <Gold.PLP.ligand.clash>
0.0000

> <Gold.PLP.ligand.torsion>
0.8759

> <Gold.PLP.Chemscore.Hbond>
2.0240

> <Gold.PLP.Chemscore.CHOScore>
0.0000

> <Gold.PLP.Chemscore.Metal>
0.0000

> <Gold.Chemscore.Hbonds>
donor molecule, donor type, donor heavy atom, donor atom, acceptor molecule, acceptor atom, score
      L1  H     8    29       P1  7957  0.96
      P1  H  7989  7998       L1     8  0.15
      P1  H  8011  8017       L1     8  0.59

> <Gold.PLP.Chemscore.Internal.Correction>
0.1809

> <Gold.Rescore>
     Score         DG    S(hbond)    S(metal)    S(lipo)     H(rot)  DE(clash)    DE(int)     intcor
     11.77     -14.29       0.99        0.00     102.10       2.52       1.63       0.88       ----

> <Gold.Chemscore.Fitness>
11.7747

> <Gold.Chemscore.DG>
-14.2926

> <Gold.Chemscore.ZeroCoef>
-5.4800

> <Gold.Chemscore.Hbond>
0.9906

> <Gold.Chemscore.Metal>
0.0000

> <Gold.Chemscore.Lipo>
102.0977

> <Gold.Chemscore.Internal_Hbond>
0.0000

> <Gold.Chemscore.DEClash>
1.6339

> <Gold.Chemscore.DEInternal>
0.8840

> <Gold.Chemscore.Rot>
2.5162

> <Gold.Chemscore.Internal.Correction>
   9.000000E+99

> <Gold.Chemscore.Hbonds>
donor molecule, donor type, donor heavy atom, donor atom, acceptor molecule, acceptor atom, score
      L1  H     8    29       P1  7957  0.92
      P1  H  7989  7998       L1     8  0.01
      P1  H  8011  8017       L1     8  0.03

> <Gold.Chemscore.Hbond.Weighted>
-3.3085

> <Gold.Chemscore.Metal.Weighted>
-0.0000

> <Gold.Chemscore.Lipo.Weighted>
-11.9454

> <Gold.Chemscore.Internal_Hbond.Weighted>
0.0000

> <Gold.Chemscore.DEClash.Weighted>
1.6339

> <Gold.Chemscore.DEInternal.Weighted>
0.8840

> <Gold.Chemscore.Rot.Weighted>
6.4414

> <Gold.Chemscore.Internal.Correction.Weighted>
   9.000000E+99

> <Gold.Protein.RotatedTorsions>
[ 6907 6896 6895 6894 ] final  -99.56 input  -60.11 | X-H torsion
[ 7974 7965 7964 7962 ] final -130.43 input  175.53 | X-H torsion
[ 8008 7997 7996 7995 ] final  141.56 input   59.86 | X-H torsion
[ 10167 10162 10161 10158 ] final   96.69 input  -65.29 | X-H torsion
[ 10718 10713 10712 10709 ] final  121.78 input   66.30 | X-H torsion
[ 10763 10752 10751 10750 ] final  -73.30 input  -60.55 | X-H torsion
[ 11005 11000 10999 10996 ] final -116.71 input  -57.11 | X-H torsion

> <Gold.Protein.ActiveResidues>
 VAL166  LYS551  ARG553  GLY616  TRP617  ASP618  TYR619  PRO620  LYS621  CYS622 
 ASP623  PHE694  ASN695  SER759  ASP760  ASP761  ALA762  ILE779  LEU786  VAL792 
 PHE793  MET794  SER795  GLU796  ALA797  LYS798  CYS799  TRP800  GLU811  SER814 

> <Gold.Protein.RotatedAtoms>
  150.7084  134.1022  159.3969 H   0  0  0  0  0  0  0  0  0  0  0  0  # atno 6907 bound_to 6896
  151.9009  135.0376  160.0515 H   0  0  0  0  0  0  0  0  0  0  0  0  # atno 6908 bound_to 6896
  152.2415  133.5104  159.5309 H   0  0  0  0  0  0  0  0  0  0  0  0  # atno 6909 bound_to 6896
  144.9476  140.7309  143.4808 H   0  0  0  0  0  0  0  0  0  0  0  0  # atno 7974 bound_to 7965
  156.2964  140.2312  156.4585 H   0  0  0  0  0  0  0  0  0  0  0  0  # atno 8008 bound_to 7997
  154.8039  140.0447  157.1314 H   0  0  0  0  0  0  0  0  0  0  0  0  # atno 8009 bound_to 7997
  154.9501  140.3041  155.5082 H   0  0  0  0  0  0  0  0  0  0  0  0  # atno 8010 bound_to 7997
  139.7870  144.6866  150.9943 H   0  0  0  0  0  0  0  0  0  0  0  0  # atno 10167 bound_to 10162
  157.5792  131.1076  150.8220 H   0  0  0  0  0  0  0  0  0  0  0  0  # atno 10718 bound_to 10713
  154.4576  135.5901  153.6234 H   0  0  0  0  0  0  0  0  0  0  0  0  # atno 10763 bound_to 10752
  152.9820  135.6036  154.3526 H   0  0  0  0  0  0  0  0  0  0  0  0  # atno 10764 bound_to 10752
  154.3394  135.2842  155.2409 H   0  0  0  0  0  0  0  0  0  0  0  0  # atno 10765 bound_to 10752
  141.0404  133.9845  157.3004 H   0  0  0  0  0  0  0  0  0  0  0  0  # atno 11005 bound_to 11000
  145.2894  139.1889  143.4748 LP  0  0  0  0  0  0  0  0  0  0  0  0  # atno 17320 bound_to 7965
  146.3309  140.2868  142.8613 LP  0  0  0  0  0  0  0  0  0  0  0  0  # atno 17321 bound_to 7965
  140.7820  143.4421  151.0536 LP  0  0  0  0  0  0  0  0  0  0  0  0  # atno 17342 bound_to 10162
  139.8099  143.7965  152.3170 LP  0  0  0  0  0  0  0  0  0  0  0  0  # atno 17343 bound_to 10162
  156.8671  130.5133  149.5299 LP  0  0  0  0  0  0  0  0  0  0  0  0  # atno 17370 bound_to 10713
  156.0837  130.5841  150.9610 LP  0  0  0  0  0  0  0  0  0  0  0  0  # atno 17371 bound_to 10713
  139.9271  135.0201  156.8274 LP  0  0  0  0  0  0  0  0  0  0  0  0  # atno 17394 bound_to 11000
  140.6245  133.9963  155.7633 LP  0  0  0  0  0  0  0  0  0  0  0  0  # atno 17395 bound_to 11000

$$$$
