AV-unprocessed.smi:2355|AV-procd|sdf|9391|dock7
  -GOLD-   2272013 23D 1   1.00000     0.00000
 Structure written by MMmdl.
 49 50  0  0  0  0  0  0  0  0  2 V2000
  153.5772  140.6784  159.8393 C   0  0  0  0  0  0  0  0  0  0  0  0
  152.6682  141.8165  159.4254 C   0  0  0  0  0  0  0  0  0  0  0  0
  152.8042  143.0949  159.9993 C   0  0  0  0  0  0  0  0  0  0  0  0
  151.9278  144.1118  159.5728 C   0  0  0  0  0  0  0  0  0  0  0  0
  152.0156  145.5080  160.1516 C   0  0  0  0  0  0  0  0  0  0  0  0
  150.9672  143.9151  158.6444 N   0  0  0  0  0  0  0  0  0  0  0  0
  150.8266  142.6880  158.0849 C   0  0  0  0  0  0  0  0  0  0  0  0
  149.8486  142.3786  157.1021 N   0  0  0  0  0  0  0  0  0  0  0  0
  149.9723  141.5703  156.0346 C   0  0  0  0  0  0  0  0  0  0  0  0
  150.9891  140.9496  155.7225 O   0  0  0  0  0  0  0  0  0  0  0  0
  148.8309  141.5119  155.3321 N   0  0  0  0  0  0  0  0  0  0  0  0
  148.6299  140.7241  154.1164 C   0  0  2  0  0  0  0  0  0  0  0  0
  147.5645  141.4177  153.2492 C   0  0  0  0  0  0  0  0  0  0  0  0
  148.2914  139.2349  154.4404 C   0  0  1  0  0  0  0  0  0  0  0  0
  147.6920  138.5092  153.2087 C   0  0  0  0  0  0  0  0  0  0  0  0
  149.4697  138.5255  155.0422 N   0  3  0  0  0  0  0  0  0  0  0  0
  149.1707  137.1100  155.3949 C   0  0  0  0  0  0  0  0  0  0  0  0
  150.3739  136.4374  156.0752 C   0  0  0  0  0  0  0  0  0  0  0  0
  151.5049  136.5091  155.2205 O   0  0  0  0  0  0  0  0  0  0  0  0
  151.8747  137.8549  154.9623 C   0  0  0  0  0  0  0  0  0  0  0  0
  150.7261  138.5839  154.2444 C   0  0  0  0  0  0  0  0  0  0  0  0
  151.6662  141.6131  158.4550 C   0  0  0  0  0  0  0  0  0  0  0  0
  154.2555  140.9831  160.6370 H   0  0  0  0  0  0  0  0  0  0  0  0
  154.1759  140.3455  158.9913 H   0  0  0  0  0  0  0  0  0  0  0  0
  152.9878  139.8342  160.1978 H   0  0  0  0  0  0  0  0  0  0  0  0
  153.5593  143.2911  160.7467 H   0  0  0  0  0  0  0  0  0  0  0  0
  152.9296  145.6377  160.7320 H   0  0  0  0  0  0  0  0  0  0  0  0
  151.1647  145.6981  160.8065 H   0  0  0  0  0  0  0  0  0  0  0  0
  152.0111  146.2535  159.3559 H   0  0  0  0  0  0  0  0  0  0  0  0
  148.9521  142.8244  157.2285 H   0  0  0  0  0  0  0  0  0  0  0  0
  148.0444  142.0546  155.6580 H   0  0  0  0  0  0  0  0  0  0  0  0
  149.5673  140.7780  153.5642 H   0  0  0  0  0  0  0  0  0  0  0  0
  147.4195  140.8983  152.3018 H   0  0  0  0  0  0  0  0  0  0  0  0
  147.8618  142.4400  153.0131 H   0  0  0  0  0  0  0  0  0  0  0  0
  146.5996  141.4682  153.7540 H   0  0  0  0  0  0  0  0  0  0  0  0
  147.5065  139.2251  155.1984 H   0  0  0  0  0  0  0  0  0  0  0  0
  146.8674  139.0694  152.7688 H   0  0  0  0  0  0  0  0  0  0  0  0
  147.2763  137.5372  153.4742 H   0  0  0  0  0  0  0  0  0  0  0  0
  148.4358  138.3544  152.4270 H   0  0  0  0  0  0  0  0  0  0  0  0
  148.3203  137.0424  156.0699 H   0  0  0  0  0  0  0  0  0  0  0  0
  148.9030  136.5579  154.4925 H   0  0  0  0  0  0  0  0  0  0  0  0
  150.5932  136.9061  157.0359 H   0  0  0  0  0  0  0  0  0  0  0  0
  150.1521  135.3893  156.2766 H   0  0  0  0  0  0  0  0  0  0  0  0
  152.1346  138.3595  155.8944 H   0  0  0  0  0  0  0  0  0  0  0  0
  152.7692  137.8607  154.3389 H   0  0  0  0  0  0  0  0  0  0  0  0
  150.5582  138.1409  153.2613 H   0  0  0  0  0  0  0  0  0  0  0  0
  151.0423  139.6150  154.0903 H   0  0  0  0  0  0  0  0  0  0  0  0
  151.5444  140.6399  158.0014 H   0  0  0  0  0  0  0  0  0  0  0  0
  149.6731  139.0054  155.9072 H   0  0  0  0  0  0  0  0  0  0  0  0
  1  2  1  0  0  0  0
  1 23  1  0  0  0  0
  1 24  1  0  0  0  0
  1 25  1  0  0  0  0
  2 22  1  0  0  0  0
  2  3  2  0  0  0  0
  3  4  1  0  0  0  0
  3 26  1  0  0  0  0
  4  5  1  0  0  0  0
  4  6  2  0  0  0  0
  5 27  1  0  0  0  0
  5 28  1  0  0  0  0
  5 29  1  0  0  0  0
  6  7  1  0  0  0  0
  7  8  1  0  0  0  0
  7 22  2  0  0  0  0
  8  9  1  0  0  0  0
  8 30  1  0  0  0  0
  9 10  2  0  0  0  0
  9 11  1  0  0  0  0
 11 12  1  0  0  0  0
 11 31  1  0  0  0  0
 12 13  1  0  0  0  0
 12 14  1  0  0  0  0
 12 32  1  0  0  0  0
 13 33  1  0  0  0  0
 13 34  1  0  0  0  0
 13 35  1  0  0  0  0
 14 15  1  0  0  0  0
 14 16  1  0  0  0  0
 14 36  1  0  0  0  0
 15 37  1  0  0  0  0
 15 38  1  0  0  0  0
 15 39  1  0  0  0  0
 16 21  1  0  0  0  0
 16 17  1  0  0  0  0
 16 49  1  0  0  0  0
 17 18  1  0  0  0  0
 17 40  1  0  0  0  0
 17 41  1  0  0  0  0
 18 19  1  0  0  0  0
 18 42  1  0  0  0  0
 18 43  1  0  0  0  0
 19 20  1  0  0  0  0
 20 21  1  0  0  0  0
 20 44  1  0  0  0  0
 20 45  1  0  0  0  0
 21 46  1  0  0  0  0
 21 47  1  0  0  0  0
 22 48  1  0  0  0  0
M  CHG  1  16   1
M  END
> <s_m_source_file>
AV-unprocessed.smi

> <i_m_source_file_index>
2355

> <i_lp_mmshare_version>
43012

> <i_f3d_flags>
0

> <s_epik_input>
W0NIM11jMVtjSF1jKFtDSDNdKW5jKFtjSF0xKVtOSF1DKD1PKVtOSF1bQ0BIXShbQ0gzXSlbQ0BIXShbQ0gzXSlOMltDSDJdW0NIMl1PW0NIMl1bQ0gyXTI=

> <s_epik_cmdline>
J2VwaWtfcHl0aG9uJywgJy1waCcsICc3LjAnLCAnLXRuJywgJzgnLCAnLW1hJywgJzIwMCcsICctbWV0YWxfYmluZGluZycsICctaW1hZScsICc8aW5maWxlLm1hZT4nLCAnLW9tYWUnLCAnPG91dGZpbGUubWFlPic=

> <r_epik_Ionization_Penalty>
0.602711

> <r_epik_Ionization_Penalty_Charging>
0.602531

> <r_epik_Ionization_Penalty_Neutral>
0.000180055

> <r_epik_State_Penalty>
0.617039

> <r_epik_Charging_Adjusted_Penalty>
1.21957

> <i_epik_Tot_Q>
1

> <i_epik_Tot_abs_Q>
1

> <r_epik_Metal_State_Penalty>
0.617075

> <b_epik_Metal_Only>
0

> <s_lp_Force_Field>
OPLS_2005

> <r_lp_Energy>
24.3328

> <b_lp_Chiralities_Consistent>
1

> <s_lp_Variant>
AV-unprocessed.smi:2355-7

> <Gold.Version>
5.8.1

> <Gold.Id.Protein>
6NUR|6NUR_protein|mol2

> <Gold.PLP.Fitness>
45.2021

> <Gold.PLP.PLP>
-42.9955

> <Gold.PLP.part.hbond>
-3.5705

> <Gold.PLP.part.metal>
0.0000

> <Gold.PLP.part.buried>
-4.5594

> <Gold.PLP.part.nonpolar>
-34.5704

> <Gold.PLP.part.repulsive>
0.4645

> <Gold.PLP.ligand.clash>
0.0000

> <Gold.PLP.ligand.torsion>
0.8794

> <Gold.PLP.Chemscore.Hbond>
1.2839

> <Gold.PLP.Chemscore.CHOScore>
0.0000

> <Gold.PLP.Chemscore.Metal>
0.0000

> <Gold.Chemscore.Hbonds>
donor molecule, donor type, donor heavy atom, donor atom, acceptor molecule, acceptor atom, score
      P1  H  7989  7998       L1    10  0.22
      P1  H 10752 10765       L1    19  1.00

> <Gold.PLP.Chemscore.Internal.Correction>
0.1136

> <Gold.Rescore>
     Score         DG    S(hbond)    S(metal)    S(lipo)     H(rot)  DE(clash)    DE(int)     intcor
     15.63     -19.24       1.27        0.00     113.03       1.45       0.22       3.39       ----

> <Gold.Chemscore.Fitness>
15.6262

> <Gold.Chemscore.DG>
-19.2360

> <Gold.Chemscore.ZeroCoef>
-5.4800

> <Gold.Chemscore.Hbond>
1.2675

> <Gold.Chemscore.Metal>
0.0000

> <Gold.Chemscore.Lipo>
113.0317

> <Gold.Chemscore.Internal_Hbond>
0.0000

> <Gold.Chemscore.DEClash>
0.2194

> <Gold.Chemscore.DEInternal>
3.3904

> <Gold.Chemscore.Rot>
1.4462

> <Gold.Chemscore.Internal.Correction>
   9.000000E+99

> <Gold.Chemscore.Hbonds>
donor molecule, donor type, donor heavy atom, donor atom, acceptor molecule, acceptor atom, score
      L1  H     8    30       P1  8028  0.01
      P1  H  7989  7998       L1    10  0.21
      P1  H 10752 10765       L1    19  0.35

> <Gold.Chemscore.Hbond.Weighted>
-4.2336

> <Gold.Chemscore.Metal.Weighted>
-0.0000

> <Gold.Chemscore.Lipo.Weighted>
-13.2247

> <Gold.Chemscore.Internal_Hbond.Weighted>
0.0000

> <Gold.Chemscore.DEClash.Weighted>
0.2194

> <Gold.Chemscore.DEInternal.Weighted>
3.3904

> <Gold.Chemscore.Rot.Weighted>
3.7023

> <Gold.Chemscore.Internal.Correction.Weighted>
   9.000000E+99

> <Gold.Protein.RotatedTorsions>
[ 6907 6896 6895 6894 ] final  100.56 input  -60.11 | X-H torsion
[ 7974 7965 7964 7962 ] final   59.47 input  175.53 | X-H torsion
[ 8008 7997 7996 7995 ] final  -92.55 input   59.86 | X-H torsion
[ 10167 10162 10161 10158 ] final  172.11 input  -65.29 | X-H torsion
[ 10718 10713 10712 10709 ] final -124.99 input   66.30 | X-H torsion
[ 10763 10752 10751 10750 ] final -177.54 input  -60.55 | X-H torsion
[ 11005 11000 10999 10996 ] final -179.57 input  -57.11 | X-H torsion

> <Gold.Protein.ActiveResidues>
 VAL166  LYS551  ARG553  GLY616  TRP617  ASP618  TYR619  PRO620  LYS621  CYS622 
 ASP623  PHE694  ASN695  SER759  ASP760  ASP761  ALA762  ILE779  LEU786  VAL792 
 PHE793  MET794  SER795  GLU796  ALA797  LYS798  CYS799  TRP800  GLU811  SER814 

> <Gold.Protein.RotatedAtoms>
  152.5369  134.0259  159.8002 H   0  0  0  0  0  0  0  0  0  0  0  0  # atno 6907 bound_to 6896
  151.0437  133.5676  159.2656 H   0  0  0  0  0  0  0  0  0  0  0  0  # atno 6908 bound_to 6896
  151.2636  135.0669  159.9161 H   0  0  0  0  0  0  0  0  0  0  0  0  # atno 6909 bound_to 6896
  145.9068  139.3623  143.0559 H   0  0  0  0  0  0  0  0  0  0  0  0  # atno 7974 bound_to 7965
  154.7245  140.0508  157.0670 H   0  0  0  0  0  0  0  0  0  0  0  0  # atno 8008 bound_to 7997
  155.0383  140.3166  155.4714 H   0  0  0  0  0  0  0  0  0  0  0  0  # atno 8009 bound_to 7997
  156.2825  140.2137  156.5507 H   0  0  0  0  0  0  0  0  0  0  0  0  # atno 8010 bound_to 7997
  139.5066  144.3411  152.0017 H   0  0  0  0  0  0  0  0  0  0  0  0  # atno 10167 bound_to 10162
  156.1636  130.6619  151.0083 H   0  0  0  0  0  0  0  0  0  0  0  0  # atno 10718 bound_to 10713
  154.5589  135.2818  155.0938 H   0  0  0  0  0  0  0  0  0  0  0  0  # atno 10763 bound_to 10752
  154.2355  135.6366  153.5193 H   0  0  0  0  0  0  0  0  0  0  0  0  # atno 10764 bound_to 10752
  153.0023  135.5547  154.6177 H   0  0  0  0  0  0  0  0  0  0  0  0  # atno 10765 bound_to 10752
  140.4171  134.6639  157.4645 H   0  0  0  0  0  0  0  0  0  0  0  0  # atno 11005 bound_to 11000
  145.8722  140.9413  143.0645 LP  0  0  0  0  0  0  0  0  0  0  0  0  # atno 17320 bound_to 7965
  144.6740  140.0669  143.7474 LP  0  0  0  0  0  0  0  0  0  0  0  0  # atno 17321 bound_to 7965
  140.2849  144.3819  150.6107 LP  0  0  0  0  0  0  0  0  0  0  0  0  # atno 17342 bound_to 10162
  140.5991  143.2167  151.7108 LP  0  0  0  0  0  0  0  0  0  0  0  0  # atno 17343 bound_to 10162
  157.6751  131.0852  150.7515 LP  0  0  0  0  0  0  0  0  0  0  0  0  # atno 17370 bound_to 10713
  156.7577  130.4789  149.5443 LP  0  0  0  0  0  0  0  0  0  0  0  0  # atno 17371 bound_to 10713
  140.0226  134.6525  155.9218 LP  0  0  0  0  0  0  0  0  0  0  0  0  # atno 17394 bound_to 11000
  141.1798  133.6545  156.4975 LP  0  0  0  0  0  0  0  0  0  0  0  0  # atno 17395 bound_to 11000

$$$$
