AV-unprocessed.smi:1683|AV-procd|sdf|6749|dock1
  -GOLD-   22720 7503D 1   1.00000     0.00000
 Structure written by MMmdl.
 37 38  0  0  0  0  0  0  0  0  2 V2000
  144.7284  137.1540  152.6803 O   0  0  0  0  0  0  0  0  0  0  0  0
  145.9101  136.9271  152.4199 C   0  0  0  0  0  0  0  0  0  0  0  0
  146.3107  135.9514  151.5924 N   0  0  0  0  0  0  0  0  0  0  0  0
  145.4229  135.0167  150.9083 C   0  0  0  0  0  0  0  0  0  0  0  0
  146.0414  133.6114  150.7746 C   0  0  2  0  0  0  0  0  0  0  0  0
  145.1357  132.5993  150.0765 C   0  0  0  0  0  0  0  0  0  0  0  0
  145.6390  131.2333  150.5615 C   0  0  0  0  0  0  0  0  0  0  0  0
  146.4819  131.4841  151.7562 N   0  3  2  0  0  0  0  0  0  0  0  0
  146.2643  130.5606  152.8961 C   0  0  0  0  0  0  0  0  0  0  0  0
  147.1361  129.2956  152.8078 C   0  0  0  0  0  0  0  0  0  0  0  0
  146.6905  128.3983  153.6859 F   0  0  0  0  0  0  0  0  0  0  0  0
  147.0850  128.7567  151.5902 F   0  0  0  0  0  0  0  0  0  0  0  0
  148.4013  129.5920  153.1041 F   0  0  0  0  0  0  0  0  0  0  0  0
  146.3416  132.9131  152.1009 C   0  0  0  0  0  0  0  0  0  0  0  0
  146.9554  137.6122  152.9118 N   0  0  0  0  0  0  0  0  0  0  0  0
  146.9199  138.7032  153.8168 C   0  0  0  0  0  0  0  0  0  0  0  0
  147.9244  139.7039  153.9179 C   0  0  0  0  0  0  0  0  0  0  0  0
  147.6251  140.5970  154.8501 N   0  0  0  0  0  0  0  0  0  0  0  0
  146.4398  140.1758  155.3459 N   0  0  0  0  0  0  0  0  0  0  0  0
  145.9724  139.0267  154.7473 C   0  0  0  0  0  0  0  0  0  0  0  0
  145.9677  140.6774  156.0848 H   0  0  0  0  0  0  0  0  0  0  0  0
  147.3021  135.8337  151.4409 H   0  0  0  0  0  0  0  0  0  0  0  0
  144.4912  134.9647  151.4723 H   0  0  0  0  0  0  0  0  0  0  0  0
  145.1641  135.4101  149.9236 H   0  0  0  0  0  0  0  0  0  0  0  0
  146.9699  133.6774  150.2047 H   0  0  0  0  0  0  0  0  0  0  0  0
  144.1020  132.7390  150.3969 H   0  0  0  0  0  0  0  0  0  0  0  0
  145.1607  132.6942  148.9905 H   0  0  0  0  0  0  0  0  0  0  0  0
  144.7962  130.5759  150.7792 H   0  0  0  0  0  0  0  0  0  0  0  0
  146.2496  130.7479  149.7993 H   0  0  0  0  0  0  0  0  0  0  0  0
  146.5209  131.0878  153.8164 H   0  0  0  0  0  0  0  0  0  0  0  0
  145.2073  130.3012  152.9741 H   0  0  0  0  0  0  0  0  0  0  0  0
  147.2416  133.2968  152.5827 H   0  0  0  0  0  0  0  0  0  0  0  0
  145.5054  133.0454  152.7901 H   0  0  0  0  0  0  0  0  0  0  0  0
  147.8745  137.3207  152.6126 H   0  0  0  0  0  0  0  0  0  0  0  0
  148.8416  139.8096  153.3575 H   0  0  0  0  0  0  0  0  0  0  0  0
  145.0394  138.5643  155.0336 H   0  0  0  0  0  0  0  0  0  0  0  0
  147.4399  131.3669  151.4574 H   0  0  0  0  0  0  0  0  0  0  0  0
  1  2  2  0  0  0  0
  2  3  1  0  0  0  0
  2 15  1  0  0  0  0
  3  4  1  0  0  0  0
  3 22  1  0  0  0  0
  4  5  1  0  0  0  0
  4 23  1  0  0  0  0
  4 24  1  0  0  0  0
  5 14  1  0  0  0  0
  5  6  1  0  0  0  0
  5 25  1  0  0  0  0
  6  7  1  0  0  0  0
  6 26  1  0  0  0  0
  6 27  1  0  0  0  0
  7  8  1  0  0  0  0
  7 28  1  0  0  0  0
  7 29  1  0  0  0  0
  8  9  1  0  0  0  0
  8 14  1  0  0  0  0
  8 37  1  0  0  0  0
  9 10  1  0  0  0  0
  9 30  1  0  0  0  0
  9 31  1  0  0  0  0
 10 11  1  0  0  0  0
 10 12  1  0  0  0  0
 10 13  1  0  0  0  0
 14 32  1  0  0  0  0
 14 33  1  0  0  0  0
 15 16  1  0  0  0  0
 15 34  1  0  0  0  0
 16 20  2  0  0  0  0
 16 17  1  0  0  0  0
 17 18  2  0  0  0  0
 17 35  1  0  0  0  0
 18 19  1  0  0  0  0
 19 21  1  0  0  0  0
 19 20  1  0  0  0  0
 20 36  1  0  0  0  0
M  CHG  1   8   1
M  END
> <s_m_source_file>
AV-unprocessed.smi

> <i_m_source_file_index>
1683

> <i_lp_mmshare_version>
43012

> <i_f3d_flags>
0

> <s_epik_input>
W2NIXTFbbkhdbltjSF1jMVtOSF1DKD1PKVtOSF1bQ0gyXVtDQEBIXTJbQ0gyXVtDSDJdTihbQ0gyXTIpW0NIMl1DKEYpKEYpRg==

> <s_epik_cmdline>
J2VwaWtfcHl0aG9uJywgJy1waCcsICc3LjAnLCAnLXRuJywgJzgnLCAnLW1hJywgJzIwMCcsICctbWV0YWxfYmluZGluZycsICctaW1hZScsICc8aW5maWxlLm1hZT4nLCAnLW9tYWUnLCAnPG91dGZpbGUubWFlPic=

> <r_lp_tautomer_probability>
0.5

> <r_epik_Ionization_Penalty>
0.641865

> <r_epik_Ionization_Penalty_Charging>
0.64182

> <r_epik_Ionization_Penalty_Neutral>
4.50685e-05

> <r_epik_State_Penalty>
0.65957

> <r_epik_Charging_Adjusted_Penalty>
1.30139

> <i_epik_Tot_Q>
1

> <i_epik_Tot_abs_Q>
1

> <r_epik_Metal_State_Penalty>
0.659571

> <b_epik_Metal_Only>
0

> <s_lp_Force_Field>
OPLS_2005

> <r_lp_Energy>
30.3314

> <b_lp_Chiralities_Consistent>
1

> <s_lp_Variant>
AV-unprocessed.smi:1683-3

> <Gold.Version>
5.8.1

> <Gold.Id.Protein>
6NUR|6NUR_protein|mol2

> <Gold.PLP.Fitness>
41.0179

> <Gold.PLP.PLP>
-30.1842

> <Gold.PLP.part.hbond>
-3.0000

> <Gold.PLP.part.metal>
0.0000

> <Gold.PLP.part.buried>
-2.6129

> <Gold.PLP.part.nonpolar>
-24.4553

> <Gold.PLP.part.repulsive>
0.4438

> <Gold.PLP.ligand.clash>
0.0000

> <Gold.PLP.ligand.torsion>
0.8316

> <Gold.PLP.Chemscore.Hbond>
2.9750

> <Gold.PLP.Chemscore.CHOScore>
1.0000

> <Gold.PLP.Chemscore.Metal>
0.0000

> <Gold.Chemscore.Hbonds>
donor molecule, donor type, donor heavy atom, donor atom, acceptor molecule, acceptor atom, score
      L1  H     3    22       P1  7948  1.00
      L1  H     8    37       P1 10747  1.00
      L1  H    15    34       P1  7948  1.00
      L1  C    17    35       P1  7957  1.00

> <Gold.PLP.Chemscore.Internal.Correction>
0.5719

> <Gold.Rescore>
     Score         DG    S(hbond)    S(metal)    S(lipo)     H(rot)  DE(clash)    DE(int)     intcor
     15.68     -18.19       2.94        0.00      64.37       1.81       0.74       1.77       ----

> <Gold.Chemscore.Fitness>
15.6829

> <Gold.Chemscore.DG>
-18.1866

> <Gold.Chemscore.ZeroCoef>
-5.4800

> <Gold.Chemscore.Hbond>
2.9379

> <Gold.Chemscore.Metal>
0.0000

> <Gold.Chemscore.Lipo>
64.3743

> <Gold.Chemscore.Internal_Hbond>
0.0000

> <Gold.Chemscore.DEClash>
0.7357

> <Gold.Chemscore.DEInternal>
1.7679

> <Gold.Chemscore.Rot>
1.8116

> <Gold.Chemscore.Internal.Correction>
   9.000000E+99

> <Gold.Chemscore.Hbonds>
donor molecule, donor type, donor heavy atom, donor atom, acceptor molecule, acceptor atom, score
      L1  H     3    22       P1  7948  0.96
      L1  H     8    37       P1 10747  0.95
      L1  H    15    34       P1  7948  0.97

> <Gold.Chemscore.Hbond.Weighted>
-9.8125

> <Gold.Chemscore.Metal.Weighted>
-0.0000

> <Gold.Chemscore.Lipo.Weighted>
-7.5318

> <Gold.Chemscore.Internal_Hbond.Weighted>
0.0000

> <Gold.Chemscore.DEClash.Weighted>
0.7357

> <Gold.Chemscore.DEInternal.Weighted>
1.7679

> <Gold.Chemscore.Rot.Weighted>
4.6378

> <Gold.Chemscore.Internal.Correction.Weighted>
   9.000000E+99

> <Gold.Protein.RotatedTorsions>
[ 6907 6896 6895 6894 ] final    1.78 input  -60.11 | X-H torsion
[ 7974 7965 7964 7962 ] final   47.00 input  175.53 | X-H torsion
[ 8008 7997 7996 7995 ] final -145.56 input   59.86 | X-H torsion
[ 10167 10162 10161 10158 ] final  -23.39 input  -65.29 | X-H torsion
[ 10718 10713 10712 10709 ] final  -59.80 input   66.30 | X-H torsion
[ 10763 10752 10751 10750 ] final -137.64 input  -60.55 | X-H torsion
[ 11005 11000 10999 10996 ] final  -51.06 input  -57.11 | X-H torsion

> <Gold.Protein.ActiveResidues>
 VAL166  LYS551  ARG553  GLY616  TRP617  ASP618  TYR619  PRO620  LYS621  CYS622 
 ASP623  PHE694  ASN695  SER759  ASP760  ASP761  ALA762  ILE779  LEU786  VAL792 
 PHE793  MET794  SER795  GLU796  ALA797  LYS798  CYS799  TRP800  GLU811  SER814 

> <Gold.Protein.RotatedAtoms>
  151.5983  135.1049  160.0054 H   0  0  0  0  0  0  0  0  0  0  0  0  # atno 6907 bound_to 6896
  152.4271  133.7210  159.6544 H   0  0  0  0  0  0  0  0  0  0  0  0  # atno 6908 bound_to 6896
  150.8161  133.8263  159.3182 H   0  0  0  0  0  0  0  0  0  0  0  0  # atno 6909 bound_to 6896
  146.0338  139.4795  142.9821 H   0  0  0  0  0  0  0  0  0  0  0  0  # atno 7974 bound_to 7965
  155.5452  140.0611  157.2861 H   0  0  0  0  0  0  0  0  0  0  0  0  # atno 8008 bound_to 7997
  154.4439  140.1912  156.0675 H   0  0  0  0  0  0  0  0  0  0  0  0  # atno 8009 bound_to 7997
  156.0556  140.3279  155.7405 H   0  0  0  0  0  0  0  0  0  0  0  0  # atno 8010 bound_to 7997
  140.7288  143.4448  151.0604 H   0  0  0  0  0  0  0  0  0  0  0  0  # atno 10167 bound_to 10162
  156.1035  130.4183  150.0766 H   0  0  0  0  0  0  0  0  0  0  0  0  # atno 10718 bound_to 10713
  154.8657  135.3636  154.5255 H   0  0  0  0  0  0  0  0  0  0  0  0  # atno 10763 bound_to 10752
  153.5883  135.7016  153.5439 H   0  0  0  0  0  0  0  0  0  0  0  0  # atno 10764 bound_to 10752
  153.3396  135.4102  155.1523 H   0  0  0  0  0  0  0  0  0  0  0  0  # atno 10765 bound_to 10752
  141.0850  133.6644  156.3822 H   0  0  0  0  0  0  0  0  0  0  0  0  # atno 11005 bound_to 11000
  145.6997  141.0139  143.1511 LP  0  0  0  0  0  0  0  0  0  0  0  0  # atno 17320 bound_to 7965
  144.7042  139.8630  143.7435 LP  0  0  0  0  0  0  0  0  0  0  0  0  # atno 17321 bound_to 7965
  139.8118  143.7940  152.3172 LP  0  0  0  0  0  0  0  0  0  0  0  0  # atno 17342 bound_to 10162
  139.7992  144.7380  150.9848 LP  0  0  0  0  0  0  0  0  0  0  0  0  # atno 17343 bound_to 10162
  156.8747  130.9536  151.3605 LP  0  0  0  0  0  0  0  0  0  0  0  0  # atno 17370 bound_to 10713
  157.6209  130.8654  149.9107 LP  0  0  0  0  0  0  0  0  0  0  0  0  # atno 17371 bound_to 10713
  140.5382  134.6146  157.5371 LP  0  0  0  0  0  0  0  0  0  0  0  0  # atno 17394 bound_to 11000
  139.9668  134.7360  156.0122 LP  0  0  0  0  0  0  0  0  0  0  0  0  # atno 17395 bound_to 11000

$$$$
