AV-unprocessed.smi:2898|AV-procd|sdf|11142|dock8
  -GOLD-   2272016 23D 1   1.00000     0.00000
 Structure written by MMmdl.
 44 45  0  0  0  0  0  0  0  0  1 V2000
  152.8814  139.0706  158.2258 C   0  0  0  0  0  0  0  0  0  0  0  0
  152.1880  139.2739  156.9088 C   0  0  0  0  0  0  0  0  0  0  0  0
  152.9042  139.5362  155.8294 N   0  0  0  0  0  0  0  0  0  0  0  0
  151.9855  139.6618  154.7843 O   0  0  0  0  0  0  0  0  0  0  0  0
  150.7369  139.4665  155.2799 C   0  0  0  0  0  0  0  0  0  0  0  0
  149.6205  139.5581  154.2937 C   0  0  0  0  0  0  0  0  0  0  0  0
  150.7918  139.2213  156.6274 C   0  0  0  0  0  0  0  0  0  0  0  0
  149.6805  138.9438  157.6139 C   0  0  1  0  0  0  0  0  0  0  0  0
  148.6911  140.1205  157.6959 C   0  0  0  0  0  0  0  0  0  0  0  0
  148.9894  137.6032  157.2846 C   0  0  0  0  0  0  0  0  0  0  0  0
  148.2220  137.0803  158.4097 N   0  0  0  0  0  0  0  0  0  0  0  0
  148.3413  135.8431  158.9212 C   0  0  0  0  0  0  0  0  0  0  0  0
  149.1198  135.0105  158.4528 O   0  0  0  0  0  0  0  0  0  0  0  0
  147.4674  135.4791  160.1430 C   0  0  0  0  0  0  0  0  0  0  0  0
  146.0274  135.5862  159.8256 C   0  0  0  0  0  0  0  0  0  0  0  0
  144.8997  135.6703  159.5771 N   0  0  0  0  0  0  0  0  0  0  0  0
  147.7897  134.0294  160.5861 C   0  0  0  0  0  0  0  0  0  0  0  0
  147.0465  133.6345  161.8747 C   0  0  0  0  0  0  0  0  0  0  0  0
  147.3630  134.6134  163.0154 C   0  0  0  0  0  0  0  0  0  0  0  0
  147.0634  136.0637  162.6075 C   0  0  0  0  0  0  0  0  0  0  0  0
  147.8069  136.4374  161.3128 C   0  0  0  0  0  0  0  0  0  0  0  0
  152.6194  138.1042  158.6573 H   0  0  0  0  0  0  0  0  0  0  0  0
  152.5931  139.8418  158.9400 H   0  0  0  0  0  0  0  0  0  0  0  0
  153.9667  139.1034  158.1232 H   0  0  0  0  0  0  0  0  0  0  0  0
  148.8431  138.8265  154.5109 H   0  0  0  0  0  0  0  0  0  0  0  0
  149.9782  139.3720  153.2809 H   0  0  0  0  0  0  0  0  0  0  0  0
  149.1682  140.5494  154.3147 H   0  0  0  0  0  0  0  0  0  0  0  0
  150.1159  138.8453  158.6088 H   0  0  0  0  0  0  0  0  0  0  0  0
  149.2104  141.0500  157.9304 H   0  0  0  0  0  0  0  0  0  0  0  0
  147.9471  139.9618  158.4767 H   0  0  0  0  0  0  0  0  0  0  0  0
  148.1543  140.2656  156.7591 H   0  0  0  0  0  0  0  0  0  0  0  0
  148.3087  137.7246  156.4422 H   0  0  0  0  0  0  0  0  0  0  0  0
  149.7291  136.8630  156.9741 H   0  0  0  0  0  0  0  0  0  0  0  0
  147.5622  137.7114  158.8418 H   0  0  0  0  0  0  0  0  0  0  0  0
  147.5256  133.3300  159.7915 H   0  0  0  0  0  0  0  0  0  0  0  0
  148.8619  133.9099  160.7514 H   0  0  0  0  0  0  0  0  0  0  0  0
  145.9711  133.6156  161.6948 H   0  0  0  0  0  0  0  0  0  0  0  0
  147.3252  132.6220  162.1677 H   0  0  0  0  0  0  0  0  0  0  0  0
  146.7873  134.3495  163.9031 H   0  0  0  0  0  0  0  0  0  0  0  0
  148.4145  134.5223  163.2907 H   0  0  0  0  0  0  0  0  0  0  0  0
  145.9891  136.1935  162.4726 H   0  0  0  0  0  0  0  0  0  0  0  0
  147.3548  136.7412  163.4104 H   0  0  0  0  0  0  0  0  0  0  0  0
  148.8796  136.4299  161.5135 H   0  0  0  0  0  0  0  0  0  0  0  0
  147.5575  137.4635  161.0382 H   0  0  0  0  0  0  0  0  0  0  0  0
  1  2  1  0  0  0  0
  1 22  1  0  0  0  0
  1 23  1  0  0  0  0
  1 24  1  0  0  0  0
  2  7  1  0  0  0  0
  2  3  2  0  0  0  0
  3  4  1  0  0  0  0
  4  5  1  0  0  0  0
  5  6  1  0  0  0  0
  5  7  2  0  0  0  0
  6 25  1  0  0  0  0
  6 26  1  0  0  0  0
  6 27  1  0  0  0  0
  7  8  1  0  0  0  0
  8  9  1  0  0  0  0
  8 10  1  0  0  0  0
  8 28  1  0  0  0  0
  9 29  1  0  0  0  0
  9 30  1  0  0  0  0
  9 31  1  0  0  0  0
 10 11  1  0  0  0  0
 10 32  1  0  0  0  0
 10 33  1  0  0  0  0
 11 12  1  0  0  0  0
 11 34  1  0  0  0  0
 12 13  2  0  0  0  0
 12 14  1  0  0  0  0
 14 21  1  0  0  0  0
 14 15  1  0  0  0  0
 14 17  1  0  0  0  0
 15 16  3  0  0  0  0
 17 18  1  0  0  0  0
 17 35  1  0  0  0  0
 17 36  1  0  0  0  0
 18 19  1  0  0  0  0
 18 37  1  0  0  0  0
 18 38  1  0  0  0  0
 19 20  1  0  0  0  0
 19 39  1  0  0  0  0
 19 40  1  0  0  0  0
 20 21  1  0  0  0  0
 20 41  1  0  0  0  0
 20 42  1  0  0  0  0
 21 43  1  0  0  0  0
 21 44  1  0  0  0  0
M  END
> <s_m_source_file>
AV-unprocessed.smi

> <i_m_source_file_index>
2898

> <i_lp_mmshare_version>
43012

> <i_f3d_flags>
0

> <s_epik_input>
W0NIM11jMW5vYyhbQ0gzXSljMVtDQEhdKFtDSDNdKVtDSDJdW05IXUMoPU8pQzIoQyNOKVtDSDJdW0NIMl1bQ0gyXVtDSDJdW0NIMl0y

> <s_epik_cmdline>
J2VwaWtfcHl0aG9uJywgJy1waCcsICc3LjAnLCAnLXRuJywgJzgnLCAnLW1hJywgJzIwMCcsICctbWV0YWxfYmluZGluZycsICctaW1hZScsICc8aW5maWxlLm1hZT4nLCAnLW9tYWUnLCAnPG91dGZpbGUubWFlPic=

> <r_lp_tautomer_probability>
1

> <r_epik_Ionization_Penalty>
4.33734e-07

> <r_epik_Ionization_Penalty_Charging>
0

> <r_epik_Ionization_Penalty_Neutral>
4.33734e-07

> <r_epik_State_Penalty>
-0

> <r_epik_Charging_Adjusted_Penalty>
0

> <i_epik_Tot_Q>
0

> <i_epik_Tot_abs_Q>
0

> <r_epik_Metal_State_Penalty>
-0

> <b_epik_Metal_Only>
0

> <s_lp_Force_Field>
OPLS_2005

> <r_lp_Energy>
8.6026

> <b_lp_Chiralities_Consistent>
1

> <s_lp_Variant>
AV-unprocessed.smi:2898-2

> <Gold.Version>
5.8.1

> <Gold.Id.Protein>
6NUR|6NUR_protein|mol2

> <Gold.PLP.Fitness>
40.0313

> <Gold.PLP.PLP>
-31.6006

> <Gold.PLP.part.hbond>
-3.0000

> <Gold.PLP.part.metal>
0.0000

> <Gold.PLP.part.buried>
-1.9451

> <Gold.PLP.part.nonpolar>
-26.3355

> <Gold.PLP.part.repulsive>
0.1644

> <Gold.PLP.ligand.clash>
0.0000

> <Gold.PLP.ligand.torsion>
0.1807

> <Gold.PLP.Chemscore.Hbond>
2.9120

> <Gold.PLP.Chemscore.CHOScore>
0.0000

> <Gold.PLP.Chemscore.Metal>
0.0000

> <Gold.Chemscore.Hbonds>
donor molecule, donor type, donor heavy atom, donor atom, acceptor molecule, acceptor atom, score
      P1  H  6896  6908       L1    13  1.00
      P1  H  7989  7998       L1     4  0.91
      P1  H  7997  8008       L1     3  1.00

> <Gold.PLP.Chemscore.Internal.Correction>
0.0561

> <Gold.Rescore>
     Score         DG    S(hbond)    S(metal)    S(lipo)     H(rot)  DE(clash)    DE(int)     intcor
     20.23     -20.41       2.83        0.00      80.10       1.52       0.05       0.13       ----

> <Gold.Chemscore.Fitness>
20.2294

> <Gold.Chemscore.DG>
-20.4051

> <Gold.Chemscore.ZeroCoef>
-5.4800

> <Gold.Chemscore.Hbond>
2.8311

> <Gold.Chemscore.Metal>
0.0000

> <Gold.Chemscore.Lipo>
80.0977

> <Gold.Chemscore.Internal_Hbond>
0.0000

> <Gold.Chemscore.DEClash>
0.0500

> <Gold.Chemscore.DEInternal>
0.1257

> <Gold.Chemscore.Rot>
1.5243

> <Gold.Chemscore.Internal.Correction>
   9.000000E+99

> <Gold.Chemscore.Hbonds>
donor molecule, donor type, donor heavy atom, donor atom, acceptor molecule, acceptor atom, score
      P1  H  6896  6908       L1    13  0.99
      P1  H  7989  7998       L1     4  0.31
      P1  H  7997  8008       L1     3  0.92

> <Gold.Chemscore.Hbond.Weighted>
-9.4560

> <Gold.Chemscore.Metal.Weighted>
-0.0000

> <Gold.Chemscore.Lipo.Weighted>
-9.3714

> <Gold.Chemscore.Internal_Hbond.Weighted>
0.0000

> <Gold.Chemscore.DEClash.Weighted>
0.0500

> <Gold.Chemscore.DEInternal.Weighted>
0.1257

> <Gold.Chemscore.Rot.Weighted>
3.9022

> <Gold.Chemscore.Internal.Correction.Weighted>
   9.000000E+99

> <Gold.Protein.RotatedTorsions>
[ 6907 6896 6895 6894 ] final  152.33 input  -60.11 | X-H torsion
[ 7974 7965 7964 7962 ] final  -38.59 input  175.53 | X-H torsion
[ 8008 7997 7996 7995 ] final  -27.84 input   59.86 | X-H torsion
[ 10167 10162 10161 10158 ] final -125.07 input  -65.29 | X-H torsion
[ 10718 10713 10712 10709 ] final -148.41 input   66.30 | X-H torsion
[ 10763 10752 10751 10750 ] final   46.62 input  -60.55 | X-H torsion
[ 11005 11000 10999 10996 ] final -125.70 input  -57.11 | X-H torsion

> <Gold.Protein.ActiveResidues>
 VAL166  LYS551  ARG553  GLY616  TRP617  ASP618  TYR619  PRO620  LYS621  CYS622 
 ASP623  PHE694  ASN695  SER759  ASP760  ASP761  ALA762  ILE779  LEU786  VAL792 
 PHE793  MET794  SER795  GLU796  ALA797  LYS798  CYS799  TRP800  GLU811  SER814 

> <Gold.Protein.RotatedAtoms>
  152.0882  133.4187  159.4531 H   0  0  0  0  0  0  0  0  0  0  0  0  # atno 6907 bound_to 6896
  150.6862  134.2902  159.4673 H   0  0  0  0  0  0  0  0  0  0  0  0  # atno 6908 bound_to 6896
  152.0751  134.9507  160.0625 H   0  0  0  0  0  0  0  0  0  0  0  0  # atno 6909 bound_to 6896
  146.0473  140.6529  142.9058 H   0  0  0  0  0  0  0  0  0  0  0  0  # atno 7974 bound_to 7965
  154.4359  140.1861  156.0996 H   0  0  0  0  0  0  0  0  0  0  0  0  # atno 8008 bound_to 7997
  156.0303  140.3331  155.7106 H   0  0  0  0  0  0  0  0  0  0  0  0  # atno 8009 bound_to 7997
  155.5849  140.0625  157.2764 H   0  0  0  0  0  0  0  0  0  0  0  0  # atno 8010 bound_to 7997
  139.9860  143.5692  152.2360 H   0  0  0  0  0  0  0  0  0  0  0  0  # atno 10167 bound_to 10162
  156.4199  130.8023  151.2246 H   0  0  0  0  0  0  0  0  0  0  0  0  # atno 10718 bound_to 10713
  152.9808  135.6002  154.3629 H   0  0  0  0  0  0  0  0  0  0  0  0  # atno 10763 bound_to 10752
  154.3309  135.2768  155.2474 H   0  0  0  0  0  0  0  0  0  0  0  0  # atno 10764 bound_to 10752
  154.4598  135.5969  153.6303 H   0  0  0  0  0  0  0  0  0  0  0  0  # atno 10765 bound_to 10752
  140.9741  134.0765  157.3838 H   0  0  0  0  0  0  0  0  0  0  0  0  # atno 11005 bound_to 11000
  144.7104  140.4017  143.7085 LP  0  0  0  0  0  0  0  0  0  0  0  0  # atno 17320 bound_to 7965
  145.6784  139.1613  143.2715 LP  0  0  0  0  0  0  0  0  0  0  0  0  # atno 17321 bound_to 7965
  139.6375  144.7651  151.2408 LP  0  0  0  0  0  0  0  0  0  0  0  0  # atno 17342 bound_to 10162
  140.7472  143.6374  150.8367 LP  0  0  0  0  0  0  0  0  0  0  0  0  # atno 17343 bound_to 10162
  157.7508  131.0231  150.3821 LP  0  0  0  0  0  0  0  0  0  0  0  0  # atno 17370 bound_to 10713
  156.4136  130.3939  149.6874 LP  0  0  0  0  0  0  0  0  0  0  0  0  # atno 17371 bound_to 10713
  139.8923  135.0124  156.6841 LP  0  0  0  0  0  0  0  0  0  0  0  0  # atno 17394 bound_to 11000
  140.7285  133.9079  155.8195 LP  0  0  0  0  0  0  0  0  0  0  0  0  # atno 17395 bound_to 11000

$$$$
