AV-unprocessed.smi:1982|AV-procd|sdf|8024|dock10
  -GOLD-   2272010213D 1   1.00000     0.00000
 Structure written by MMmdl.
 36 37  0  0  0  0  0  0  0  0  1 V2000
  152.2336  143.7667  161.6807 C   0  0  0  0  0  0  0  0  0  0  0  0
  152.3340  144.3898  160.2730 C   0  0  2  0  0  0  0  0  0  0  0  0
  151.3066  145.5238  160.0799 C   0  0  0  0  0  0  0  0  0  0  0  0
  149.8738  144.9896  159.9279 C   0  0  0  0  0  0  0  0  0  0  0  0
  149.7806  143.9763  158.7790 C   0  0  0  0  0  0  0  0  0  0  0  0
  150.7888  142.8229  158.9448 C   0  0  1  0  0  0  0  0  0  0  0  0
  150.6888  141.9468  157.7774 N   0  0  0  0  0  0  0  0  0  0  0  0
  150.8714  140.6169  157.7705 C   0  0  0  0  0  0  0  0  0  0  0  0
  151.1659  139.9684  158.7757 O   0  0  0  0  0  0  0  0  0  0  0  0
  150.6952  139.9336  156.4091 C   0  0  0  0  0  0  0  0  0  0  0  0
  151.9272  139.3506  155.9063 N   0  0  0  0  0  0  0  0  0  0  0  0
  152.6079  138.2694  156.2925 C   0  0  0  0  0  0  0  0  0  0  0  0
  153.6922  138.0849  155.5549 N   0  0  0  0  0  0  0  0  0  0  0  0
  153.6480  139.1418  154.6611 N   0  0  0  0  0  0  0  0  0  0  0  0
  152.6034  139.8965  154.8649 N   0  0  0  0  0  0  0  0  0  0  0  0
  152.2343  143.3622  159.1131 C   0  0  2  0  0  0  0  0  0  0  0  0
  153.2886  142.2436  159.2306 C   0  0  0  0  0  0  0  0  0  0  0  0
  151.2952  143.2341  161.8307 H   0  0  0  0  0  0  0  0  0  0  0  0
  152.2995  144.5360  162.4505 H   0  0  0  0  0  0  0  0  0  0  0  0
  153.0456  143.0642  161.8672 H   0  0  0  0  0  0  0  0  0  0  0  0
  153.3216  144.8494  160.2152 H   0  0  0  0  0  0  0  0  0  0  0  0
  151.3561  146.2258  160.9128 H   0  0  0  0  0  0  0  0  0  0  0  0
  151.5680  146.0966  159.1891 H   0  0  0  0  0  0  0  0  0  0  0  0
  149.5465  144.5234  160.8576 H   0  0  0  0  0  0  0  0  0  0  0  0
  149.1886  145.8177  159.7450 H   0  0  0  0  0  0  0  0  0  0  0  0
  148.7662  143.5793  158.7240 H   0  0  0  0  0  0  0  0  0  0  0  0
  149.9610  144.4910  157.8342 H   0  0  0  0  0  0  0  0  0  0  0  0
  150.5178  142.2709  159.8459 H   0  0  0  0  0  0  0  0  0  0  0  0
  150.4520  142.3912  156.9022 H   0  0  0  0  0  0  0  0  0  0  0  0
  149.9363  139.1533  156.4872 H   0  0  0  0  0  0  0  0  0  0  0  0
  150.3368  140.6626  155.6812 H   0  0  0  0  0  0  0  0  0  0  0  0
  152.3096  137.6230  157.1047 H   0  0  0  0  0  0  0  0  0  0  0  0
  152.4769  143.9090  158.2002 H   0  0  0  0  0  0  0  0  0  0  0  0
  153.0543  141.5551  160.0427 H   0  0  0  0  0  0  0  0  0  0  0  0
  154.2807  142.6564  159.4153 H   0  0  0  0  0  0  0  0  0  0  0  0
  153.3519  141.6568  158.3142 H   0  0  0  0  0  0  0  0  0  0  0  0
  1  2  1  0  0  0  0
  1 18  1  0  0  0  0
  1 19  1  0  0  0  0
  1 20  1  0  0  0  0
  2 16  1  0  0  0  0
  2  3  1  0  0  0  0
  2 21  1  0  0  0  0
  3  4  1  0  0  0  0
  3 22  1  0  0  0  0
  3 23  1  0  0  0  0
  4  5  1  0  0  0  0
  4 24  1  0  0  0  0
  4 25  1  0  0  0  0
  5  6  1  0  0  0  0
  5 26  1  0  0  0  0
  5 27  1  0  0  0  0
  6  7  1  0  0  0  0
  6 16  1  0  0  0  0
  6 28  1  0  0  0  0
  7  8  1  0  0  0  0
  7 29  1  0  0  0  0
  8  9  2  0  0  0  0
  8 10  1  0  0  0  0
 10 11  1  0  0  0  0
 10 30  1  0  0  0  0
 10 31  1  0  0  0  0
 11 15  1  0  0  0  0
 11 12  1  0  0  0  0
 12 13  2  0  0  0  0
 12 32  1  0  0  0  0
 13 14  1  0  0  0  0
 14 15  2  0  0  0  0
 16 17  1  0  0  0  0
 16 33  1  0  0  0  0
 17 34  1  0  0  0  0
 17 35  1  0  0  0  0
 17 36  1  0  0  0  0
M  END
> <s_m_source_file>
AV-unprocessed.smi

> <i_m_source_file_index>
1982

> <i_lp_mmshare_version>
43012

> <i_f3d_flags>
0

> <s_epik_input>
W0NIM11bQ0BASF0xW0NIMl1bQ0gyXVtDSDJdW0NASF0oW0NASF0xW0NIM10pW05IXUMoPU8pW0NIMl1uMltjSF1ubm4y

> <s_epik_cmdline>
J2VwaWtfcHl0aG9uJywgJy1waCcsICc3LjAnLCAnLXRuJywgJzgnLCAnLW1hJywgJzIwMCcsICctbWV0YWxfYmluZGluZycsICctaW1hZScsICc8aW5maWxlLm1hZT4nLCAnLW9tYWUnLCAnPG91dGZpbGUubWFlPic=

> <r_lp_tautomer_probability>
1

> <r_epik_Ionization_Penalty>
5.03816e-07

> <r_epik_Ionization_Penalty_Charging>
0

> <r_epik_Ionization_Penalty_Neutral>
5.03816e-07

> <r_epik_State_Penalty>
-0

> <r_epik_Charging_Adjusted_Penalty>
0

> <i_epik_Tot_Q>
0

> <i_epik_Tot_abs_Q>
0

> <r_epik_Metal_State_Penalty>
-0

> <b_epik_Metal_Only>
0

> <s_lp_Force_Field>
OPLS_2005

> <r_lp_Energy>
16.2726

> <b_lp_Chiralities_Consistent>
1

> <s_lp_Variant>
AV-unprocessed.smi:1982-5

> <Gold.Version>
5.8.1

> <Gold.Id.Protein>
6NUR|6NUR_protein|mol2

> <Gold.PLP.Fitness>
38.6787

> <Gold.PLP.PLP>
-36.1789

> <Gold.PLP.part.hbond>
-4.4613

> <Gold.PLP.part.metal>
0.0000

> <Gold.PLP.part.buried>
-5.1917

> <Gold.PLP.part.nonpolar>
-27.7283

> <Gold.PLP.part.repulsive>
0.0871

> <Gold.PLP.ligand.clash>
0.0000

> <Gold.PLP.ligand.torsion>
0.5319

> <Gold.PLP.Chemscore.Hbond>
1.1868

> <Gold.PLP.Chemscore.CHOScore>
0.0000

> <Gold.PLP.Chemscore.Metal>
0.0000

> <Gold.Chemscore.Hbonds>
donor molecule, donor type, donor heavy atom, donor atom, acceptor molecule, acceptor atom, score
      P1  H  7989  7998       L1    15  0.53
      P1  H  7997  8008       L1    14  0.65

> <Gold.PLP.Chemscore.Internal.Correction>
0.0033

> <Gold.Rescore>
     Score         DG    S(hbond)    S(metal)    S(lipo)     H(rot)  DE(clash)    DE(int)     intcor
     13.98     -14.16       1.10        0.00      84.58       1.91       0.01       0.17       ----

> <Gold.Chemscore.Fitness>
13.9817

> <Gold.Chemscore.DG>
-14.1607

> <Gold.Chemscore.ZeroCoef>
-5.4800

> <Gold.Chemscore.Hbond>
1.0969

> <Gold.Chemscore.Metal>
0.0000

> <Gold.Chemscore.Lipo>
84.5793

> <Gold.Chemscore.Internal_Hbond>
0.0000

> <Gold.Chemscore.DEClash>
0.0067

> <Gold.Chemscore.DEInternal>
0.1722

> <Gold.Chemscore.Rot>
1.9058

> <Gold.Chemscore.Internal.Correction>
   9.000000E+99

> <Gold.Chemscore.Hbonds>
donor molecule, donor type, donor heavy atom, donor atom, acceptor molecule, acceptor atom, score
      P1  H  7989  7998       L1    15  0.53
      P1  H  7997  8008       L1    14  0.02

> <Gold.Chemscore.Hbond.Weighted>
-3.6638

> <Gold.Chemscore.Metal.Weighted>
-0.0000

> <Gold.Chemscore.Lipo.Weighted>
-9.8958

> <Gold.Chemscore.Internal_Hbond.Weighted>
0.0000

> <Gold.Chemscore.DEClash.Weighted>
0.0067

> <Gold.Chemscore.DEInternal.Weighted>
0.1722

> <Gold.Chemscore.Rot.Weighted>
4.8788

> <Gold.Chemscore.Internal.Correction.Weighted>
   9.000000E+99

> <Gold.Protein.RotatedTorsions>
[ 6907 6896 6895 6894 ] final  -40.73 input  -60.11 | X-H torsion
[ 7974 7965 7964 7962 ] final   26.37 input  175.53 | X-H torsion
[ 8008 7997 7996 7995 ] final   14.16 input   59.86 | X-H torsion
[ 10167 10162 10161 10158 ] final   62.71 input  -65.29 | X-H torsion
[ 10718 10713 10712 10709 ] final  162.17 input   66.30 | X-H torsion
[ 10763 10752 10751 10750 ] final  114.33 input  -60.55 | X-H torsion
[ 11005 11000 10999 10996 ] final   77.59 input  -57.11 | X-H torsion

> <Gold.Protein.ActiveResidues>
 VAL166  LYS551  ARG553  GLY616  TRP617  ASP618  TYR619  PRO620  LYS621  CYS622 
 ASP623  PHE694  ASN695  SER759  ASP760  ASP761  ALA762  ILE779  LEU786  VAL792 
 PHE793  MET794  SER795  GLU796  ALA797  LYS798  CYS799  TRP800  GLU811  SER814 

> <Gold.Protein.RotatedAtoms>
  150.9749  134.9116  159.7809 H   0  0  0  0  0  0  0  0  0  0  0  0  # atno 6907 bound_to 6896
  152.5203  134.3489  159.9254 H   0  0  0  0  0  0  0  0  0  0  0  0  # atno 6908 bound_to 6896
  151.3497  133.3889  159.2713 H   0  0  0  0  0  0  0  0  0  0  0  0  # atno 6909 bound_to 6896
  146.1841  139.7338  142.8879 H   0  0  0  0  0  0  0  0  0  0  0  0  # atno 7974 bound_to 7965
  154.8446  140.2920  155.5637 H   0  0  0  0  0  0  0  0  0  0  0  0  # atno 8008 bound_to 7997
  156.3013  140.2507  156.3326 H   0  0  0  0  0  0  0  0  0  0  0  0  # atno 8009 bound_to 7997
  154.9088  140.0389  157.1924 H   0  0  0  0  0  0  0  0  0  0  0  0  # atno 8010 bound_to 7997
  140.1409  144.4554  150.6811 H   0  0  0  0  0  0  0  0  0  0  0  0  # atno 10167 bound_to 10162
  157.1263  131.0505  151.2392 H   0  0  0  0  0  0  0  0  0  0  0  0  # atno 10718 bound_to 10713
  153.5057  135.3628  155.2562 H   0  0  0  0  0  0  0  0  0  0  0  0  # atno 10763 bound_to 10752
  154.8745  135.4010  154.3427 H   0  0  0  0  0  0  0  0  0  0  0  0  # atno 10764 bound_to 10752
  153.4071  135.7076  153.6451 H   0  0  0  0  0  0  0  0  0  0  0  0  # atno 10765 bound_to 10752
  139.9248  134.7695  156.1541 H   0  0  0  0  0  0  0  0  0  0  0  0  # atno 11005 bound_to 11000
  145.3990  141.0382  143.3081 LP  0  0  0  0  0  0  0  0  0  0  0  0  # atno 17320 bound_to 7965
  144.8366  139.5540  143.6919 LP  0  0  0  0  0  0  0  0  0  0  0  0  # atno 17321 bound_to 7965
  140.6761  143.2305  151.5504 LP  0  0  0  0  0  0  0  0  0  0  0  0  # atno 17342 bound_to 10162
  139.5472  144.2489  152.1465 LP  0  0  0  0  0  0  0  0  0  0  0  0  # atno 17343 bound_to 10162
  157.4432  130.7556  149.7087 LP  0  0  0  0  0  0  0  0  0  0  0  0  # atno 17370 bound_to 10713
  155.9817  130.4016  150.3454 LP  0  0  0  0  0  0  0  0  0  0  0  0  # atno 17371 bound_to 10713
  141.0798  133.6759  156.2311 LP  0  0  0  0  0  0  0  0  0  0  0  0  # atno 17394 bound_to 11000
  140.6368  134.5207  157.5565 LP  0  0  0  0  0  0  0  0  0  0  0  0  # atno 17395 bound_to 11000

$$$$
