AV-unprocessed.smi:34|AV-procd|sdf|222|dock8
  -GOLD-   2262015543D 1   1.00000     0.00000
 Structure written by MMmdl.
 55 59  0  0  0  0  0  0  0  0  1 V2000
  153.6426  140.5273  159.1433 O   0  0  0  0  0  0  0  0  0  0  0  0
  153.0639  141.3568  158.4409 C   0  0  0  0  0  0  0  0  0  0  0  0
  152.6511  141.0634  157.0806 N   0  0  0  0  0  0  0  0  0  0  0  0
  152.8905  139.9422  156.3618 C   0  0  0  0  0  0  0  0  0  0  0  0
  153.3932  139.9798  155.0994 N   0  0  0  0  0  0  0  0  0  0  0  0
  153.6080  138.8450  154.4263 C   0  0  0  0  0  0  0  0  0  0  0  0
  153.3905  137.5875  154.8191 N   0  0  0  0  0  0  0  0  0  0  0  0
  152.8803  137.5453  156.0834 C   0  0  0  0  0  0  0  0  0  0  0  0
  152.5997  138.6667  156.9112 C   0  0  0  0  0  0  0  0  0  0  0  0
  152.0850  138.2348  158.1267 N   0  0  0  0  0  0  0  0  0  0  0  0
  152.0710  136.9328  158.0203 C   0  0  0  0  0  0  0  0  0  0  0  0
  152.5299  136.4346  156.8181 N   0  0  0  0  0  0  0  0  0  0  0  0
  152.6652  135.0129  156.3605 C   0  0  1  0  0  0  0  0  0  0  0  0
  152.4264  134.1728  157.4501 O   0  0  0  0  0  0  0  0  0  0  0  0
  151.0969  133.6754  157.3710 C   0  0  2  0  0  0  0  0  0  0  0  0
  150.9241  132.4285  158.2450 C   0  0  0  0  0  0  0  0  0  0  0  0
  150.4105  132.8253  159.5057 O   0  0  0  0  0  0  0  0  0  0  0  0
  149.4570  133.7731  159.5796 C   0  0  0  0  0  0  0  0  0  0  0  0
  148.6881  134.0410  158.6541 O   0  0  0  0  0  0  0  0  0  0  0  0
  149.4307  134.4666  160.8998 C   0  0  0  0  0  0  0  0  0  0  0  0
  149.7240  133.7338  162.0736 C   0  0  0  0  0  0  0  0  0  0  0  0
  149.7051  134.3611  163.3345 C   0  0  0  0  0  0  0  0  0  0  0  0
  149.3922  135.7291  163.4372 C   0  0  0  0  0  0  0  0  0  0  0  0
  149.0991  136.4696  162.2772 C   0  0  0  0  0  0  0  0  0  0  0  0
  149.1181  135.8441  161.0150 C   0  0  0  0  0  0  0  0  0  0  0  0
  150.9312  133.4353  155.8720 C   0  0  2  0  0  0  0  0  0  0  0  0
  151.5619  132.3176  155.5049 F   0  0  0  0  0  0  0  0  0  0  0  0
  151.6373  134.6385  155.2636 C   0  0  1  0  0  0  0  0  0  0  0  0
  150.6956  135.6535  154.9592 O   0  0  0  0  0  0  0  0  0  0  0  0
  152.6554  142.6978  158.9761 C   0  0  0  0  0  0  0  0  0  0  0  0
  151.9910  143.6211  158.1380 C   0  0  0  0  0  0  0  0  0  0  0  0
  151.5938  144.8776  158.6356 C   0  0  0  0  0  0  0  0  0  0  0  0
  151.8488  145.2170  159.9778 C   0  0  0  0  0  0  0  0  0  0  0  0
  152.4974  144.2976  160.8235 C   0  0  0  0  0  0  0  0  0  0  0  0
  152.8972  143.0415  160.3264 C   0  0  0  0  0  0  0  0  0  0  0  0
  152.1138  141.7811  156.6165 H   0  0  0  0  0  0  0  0  0  0  0  0
  154.0119  138.9621  153.4313 H   0  0  0  0  0  0  0  0  0  0  0  0
  151.7268  136.3033  158.8277 H   0  0  0  0  0  0  0  0  0  0  0  0
  153.7038  134.9266  156.0383 H   0  0  0  0  0  0  0  0  0  0  0  0
  150.3941  134.4496  157.6832 H   0  0  0  0  0  0  0  0  0  0  0  0
  150.2188  131.7407  157.7764 H   0  0  0  0  0  0  0  0  0  0  0  0
  151.8736  131.9035  158.3611 H   0  0  0  0  0  0  0  0  0  0  0  0
  149.9669  132.6821  162.0200 H   0  0  0  0  0  0  0  0  0  0  0  0
  149.9307  133.7910  164.2237 H   0  0  0  0  0  0  0  0  0  0  0  0
  149.3770  136.2099  164.4041 H   0  0  0  0  0  0  0  0  0  0  0  0
  148.8584  137.5197  162.3547 H   0  0  0  0  0  0  0  0  0  0  0  0
  148.8882  136.4420  160.1451 H   0  0  0  0  0  0  0  0  0  0  0  0
  149.8896  133.3322  155.5645 H   0  0  0  0  0  0  0  0  0  0  0  0
  152.1646  134.3722  154.3467 H   0  0  0  0  0  0  0  0  0  0  0  0
  150.5250  135.6320  154.0294 H   0  0  0  0  0  0  0  0  0  0  0  0
  151.7872  143.3748  157.1056 H   0  0  0  0  0  0  0  0  0  0  0  0
  151.0925  145.5808  157.9872 H   0  0  0  0  0  0  0  0  0  0  0  0
  151.5435  146.1805  160.3591 H   0  0  0  0  0  0  0  0  0  0  0  0
  152.6869  144.5546  161.8552 H   0  0  0  0  0  0  0  0  0  0  0  0
  153.3857  142.3467  160.9942 H   0  0  0  0  0  0  0  0  0  0  0  0
  1  2  2  0  0  0  0
  2  3  1  0  0  0  0
  2 30  1  0  0  0  0
  3  4  1  0  0  0  0
  3 36  1  0  0  0  0
  4  9  1  0  0  0  0
  4  5  2  0  0  0  0
  5  6  1  0  0  0  0
  6  7  2  0  0  0  0
  6 37  1  0  0  0  0
  7  8  1  0  0  0  0
  8 12  1  0  0  0  0
  8  9  2  0  0  0  0
  9 10  1  0  0  0  0
 10 11  2  0  0  0  0
 11 12  1  0  0  0  0
 11 38  1  0  0  0  0
 12 13  1  0  0  0  0
 13 28  1  0  0  0  0
 13 14  1  0  0  0  0
 13 39  1  0  0  0  0
 14 15  1  0  0  0  0
 15 16  1  0  0  0  0
 15 26  1  0  0  0  0
 15 40  1  0  0  0  0
 16 17  1  0  0  0  0
 16 41  1  0  0  0  0
 16 42  1  0  0  0  0
 17 18  1  0  0  0  0
 18 19  2  0  0  0  0
 18 20  1  0  0  0  0
 20 25  1  0  0  0  0
 20 21  2  0  0  0  0
 21 22  1  0  0  0  0
 21 43  1  0  0  0  0
 22 23  2  0  0  0  0
 22 44  1  0  0  0  0
 23 24  1  0  0  0  0
 23 45  1  0  0  0  0
 24 25  2  0  0  0  0
 24 46  1  0  0  0  0
 25 47  1  0  0  0  0
 26 27  1  0  0  0  0
 26 28  1  0  0  0  0
 26 48  1  0  0  0  0
 28 29  1  0  0  0  0
 28 49  1  0  0  0  0
 29 50  1  0  0  0  0
 30 35  1  0  0  0  0
 30 31  2  0  0  0  0
 31 32  1  0  0  0  0
 31 51  1  0  0  0  0
 32 33  2  0  0  0  0
 32 52  1  0  0  0  0
 33 34  1  0  0  0  0
 33 53  1  0  0  0  0
 34 35  2  0  0  0  0
 34 54  1  0  0  0  0
 35 55  1  0  0  0  0
M  END
> <s_m_source_file>
AV-unprocessed.smi

> <i_m_source_file_index>
34

> <i_lp_mmshare_version>
43012

> <i_f3d_flags>
0

> <s_epik_input>
W2NIXTFbY0hdW2NIXVtjSF1bY0hdYzFDKD1PKVtOSF1jKG5bY0hdbjIpYyhjMjMpbltjSF1uM1tDQEBIXTRPW0NASF0oW0NAQEhdKEYpW0NASF00W09IXSlbQ0gyXU9DKD1PKWM1W2NIXVtjSF1bY0hdW2NIXVtjSF01

> <s_epik_cmdline>
J2VwaWtfcHl0aG9uJywgJy1waCcsICc3LjAnLCAnLXRuJywgJzgnLCAnLW1hJywgJzIwMCcsICctbWV0YWxfYmluZGluZycsICctaW1hZScsICc8aW5maWxlLm1hZT4nLCAnLW9tYWUnLCAnPG91dGZpbGUubWFlPic=

> <r_lp_tautomer_probability>
1

> <r_epik_Ionization_Penalty>
0.00257489

> <r_epik_Ionization_Penalty_Charging>
0

> <r_epik_Ionization_Penalty_Neutral>
0.00257489

> <r_epik_State_Penalty>
0.00519398

> <r_epik_Charging_Adjusted_Penalty>
0.00519398

> <i_epik_Tot_Q>
0

> <i_epik_Tot_abs_Q>
0

> <r_epik_Metal_State_Penalty>
0.335891

> <b_epik_Metal_Only>
0

> <s_epik_Chemistry_Notes>
This compound has an ester and may undergo hydrolysis at high or low pH. This compound contains an acetal/aminal-like group ( X-CH(R)-Y where X, Y are N, S, or O) that may be acid/base labile, releasing an aldehyde.

> <s_lp_Force_Field>
OPLS_2005

> <r_lp_Energy>
48.7075

> <b_lp_Chiralities_Consistent>
1

> <s_lp_Variant>
AV-unprocessed.smi:34-8

> <Gold.Version>
5.8.1

> <Gold.Id.Protein>
6NUR|6NUR_protein|mol2

> <Gold.PLP.Fitness>
69.8736

> <Gold.PLP.PLP>
-63.0734

> <Gold.PLP.part.hbond>
-5.0000

> <Gold.PLP.part.metal>
0.0000

> <Gold.PLP.part.buried>
-6.4485

> <Gold.PLP.part.nonpolar>
-52.8162

> <Gold.PLP.part.repulsive>
0.2165

> <Gold.PLP.ligand.clash>
0.0000

> <Gold.PLP.ligand.torsion>
1.9942

> <Gold.PLP.Chemscore.Hbond>
3.5195

> <Gold.PLP.Chemscore.CHOScore>
0.0000

> <Gold.PLP.Chemscore.Metal>
0.0000

> <Gold.Chemscore.Hbonds>
donor molecule, donor type, donor heavy atom, donor atom, acceptor molecule, acceptor atom, score
      P1  H  6896  6907       L1    14  0.02
      P1  H  7997  8008       L1     1  0.03
      P1  H  7997  8009       L1     5  0.11
      P1  H 10752 10765       L1     7  0.05

> <Gold.PLP.Chemscore.Internal.Correction>
0.2300

> <Gold.Rescore>
     Score         DG    S(hbond)    S(metal)    S(lipo)     H(rot)  DE(clash)    DE(int)     intcor
     21.27     -23.42       3.12        0.00     123.82       2.72       0.03       2.12       ----

> <Gold.Chemscore.Fitness>
21.2721

> <Gold.Chemscore.DG>
-23.4223

> <Gold.Chemscore.ZeroCoef>
-5.4800

> <Gold.Chemscore.Hbond>
3.1206

> <Gold.Chemscore.Metal>
0.0000

> <Gold.Chemscore.Lipo>
123.8166

> <Gold.Chemscore.Internal_Hbond>
0.0000

> <Gold.Chemscore.DEClash>
0.0270

> <Gold.Chemscore.DEInternal>
2.1232

> <Gold.Chemscore.Rot>
2.7215

> <Gold.Chemscore.Internal.Correction>
   9.000000E+99

> <Gold.Chemscore.Hbond.Weighted>
-10.4228

> <Gold.Chemscore.Metal.Weighted>
-0.0000

> <Gold.Chemscore.Lipo.Weighted>
-14.4865

> <Gold.Chemscore.Internal_Hbond.Weighted>
0.0000

> <Gold.Chemscore.DEClash.Weighted>
0.0270

> <Gold.Chemscore.DEInternal.Weighted>
2.1232

> <Gold.Chemscore.Rot.Weighted>
6.9670

> <Gold.Chemscore.Internal.Correction.Weighted>
   9.000000E+99

> <Gold.Protein.RotatedTorsions>
[ 6907 6896 6895 6894 ] final  122.58 input  -60.11 | X-H torsion
[ 7974 7965 7964 7962 ] final    3.11 input  175.53 | X-H torsion
[ 8008 7997 7996 7995 ] final -124.14 input   59.86 | X-H torsion
[ 10167 10162 10161 10158 ] final  -29.56 input  -65.29 | X-H torsion
[ 10718 10713 10712 10709 ] final  177.67 input   66.30 | X-H torsion
[ 10763 10752 10751 10750 ] final  175.99 input  -60.55 | X-H torsion
[ 11005 11000 10999 10996 ] final  179.01 input  -57.11 | X-H torsion

> <Gold.Protein.ActiveResidues>
 VAL166  LYS551  ARG553  GLY616  TRP617  ASP618  TYR619  PRO620  LYS621  CYS622 
 ASP623  PHE694  ASN695  SER759  ASP760  ASP761  ALA762  ILE779  LEU786  VAL792 
 PHE793  MET794  SER795  GLU796  ALA797  LYS798  CYS799  TRP800  GLU811  SER814 

> <Gold.Protein.RotatedAtoms>
  152.4232  133.7151  159.6500 H   0  0  0  0  0  0  0  0  0  0  0  0  # atno 6907 bound_to 6896
  150.8108  133.8415  159.3189 H   0  0  0  0  0  0  0  0  0  0  0  0  # atno 6908 bound_to 6896
  151.6126  135.1041  160.0136 H   0  0  0  0  0  0  0  0  0  0  0  0  # atno 6909 bound_to 6896
  146.2445  140.0734  142.8361 H   0  0  0  0  0  0  0  0  0  0  0  0  # atno 7974 bound_to 7965
  155.1919  140.0413  157.2902 H   0  0  0  0  0  0  0  0  0  0  0  0  # atno 8008 bound_to 7997
  154.6133  140.2482  155.7613 H   0  0  0  0  0  0  0  0  0  0  0  0  # atno 8009 bound_to 7997
  156.2391  140.2910  156.0405 H   0  0  0  0  0  0  0  0  0  0  0  0  # atno 8010 bound_to 7997
  140.7259  143.3919  151.1415 H   0  0  0  0  0  0  0  0  0  0  0  0  # atno 10167 bound_to 10162
  156.9019  130.9881  151.3034 H   0  0  0  0  0  0  0  0  0  0  0  0  # atno 10718 bound_to 10713
  154.4751  135.2772  155.1613 H   0  0  0  0  0  0  0  0  0  0  0  0  # atno 10763 bound_to 10752
  154.3346  135.6183  153.5571 H   0  0  0  0  0  0  0  0  0  0  0  0  # atno 10764 bound_to 10752
  152.9868  135.5774  154.5140 H   0  0  0  0  0  0  0  0  0  0  0  0  # atno 10765 bound_to 10752
  140.4014  134.6774  157.4564 H   0  0  0  0  0  0  0  0  0  0  0  0  # atno 11005 bound_to 11000
  145.0796  140.9212  143.4833 LP  0  0  0  0  0  0  0  0  0  0  0  0  # atno 17320 bound_to 7965
  145.0884  139.2908  143.5747 LP  0  0  0  0  0  0  0  0  0  0  0  0  # atno 17321 bound_to 7965
  139.7525  143.8757  152.3080 LP  0  0  0  0  0  0  0  0  0  0  0  0  # atno 17342 bound_to 10162
  139.8615  144.7114  150.9094 LP  0  0  0  0  0  0  0  0  0  0  0  0  # atno 17343 bound_to 10162
  157.6021  130.8520  149.8818 LP  0  0  0  0  0  0  0  0  0  0  0  0  # atno 17370 bound_to 10713
  156.0578  130.3705  150.1052 LP  0  0  0  0  0  0  0  0  0  0  0  0  # atno 17371 bound_to 10713
  140.0333  134.6373  155.9076 LP  0  0  0  0  0  0  0  0  0  0  0  0  # atno 17394 bound_to 11000
  141.1855  133.6555  156.5201 LP  0  0  0  0  0  0  0  0  0  0  0  0  # atno 17395 bound_to 11000

$$$$
