AV-unprocessed.smi:1978|AV-procd|sdf|7998|dock4
  -GOLD-   2272010183D 1   1.00000     0.00000
 Structure written by MMmdl.
 45 46  0  0  0  0  0  0  0  0  2 V2000
  152.3131  140.5975  158.3668 C   0  0  0  0  0  0  0  0  0  0  0  0
  151.8041  139.9219  157.1400 C   0  0  0  0  0  0  0  0  0  0  0  0
  150.8339  138.9825  156.9304 C   0  0  0  0  0  0  0  0  0  0  0  0
  150.8723  138.7921  155.5234 C   0  0  0  0  0  0  0  0  0  0  0  0
  149.9932  137.8786  154.8876 N   0  0  0  0  0  0  0  0  0  0  0  0
  149.1275  137.0346  155.4740 C   0  0  0  0  0  0  0  0  0  0  0  0
  148.9448  136.9324  156.6874 O   0  0  0  0  0  0  0  0  0  0  0  0
  148.4743  136.2944  154.5664 N   0  0  0  0  0  0  0  0  0  0  0  0
  147.4766  135.2757  154.8834 C   0  0  0  0  0  0  0  0  0  0  0  0
  147.6271  133.9786  154.0354 C   0  0  2  0  0  0  0  0  0  0  0  0
  149.1294  133.6037  153.9413 C   0  0  0  0  0  0  0  0  0  0  0  0
  146.9765  134.1199  152.6852 N   0  3  2  0  0  0  0  0  0  0  0  0
  145.6904  134.8826  152.7073 C   0  0  0  0  0  0  0  0  0  0  0  0
  145.1972  135.2096  151.2878 C   0  0  0  0  0  0  0  0  0  0  0  0
  145.0417  133.9435  150.4433 C   0  0  0  0  0  0  0  0  0  0  0  0
  146.3574  133.1580  150.4529 C   0  0  0  0  0  0  0  0  0  0  0  0
  146.8458  132.8550  151.8854 C   0  0  2  0  0  0  0  0  0  0  0  0
  145.9776  131.7771  152.5744 C   0  0  0  0  0  0  0  0  0  0  0  0
  151.7852  139.5443  154.9283 N   0  0  0  0  0  0  0  0  0  0  0  0
  152.3878  140.2717  155.9615 O   0  0  0  0  0  0  0  0  0  0  0  0
  151.5909  140.5225  159.1800 H   0  0  0  0  0  0  0  0  0  0  0  0
  152.5001  141.6550  158.1787 H   0  0  0  0  0  0  0  0  0  0  0  0
  153.2458  140.1418  158.6990 H   0  0  0  0  0  0  0  0  0  0  0  0
  150.2000  138.5120  157.6673 H   0  0  0  0  0  0  0  0  0  0  0  0
  150.0369  137.8592  153.8794 H   0  0  0  0  0  0  0  0  0  0  0  0
  148.6824  136.4429  153.5896 H   0  0  0  0  0  0  0  0  0  0  0  0
  147.5557  135.0906  155.9526 H   0  0  0  0  0  0  0  0  0  0  0  0
  146.4898  135.7106  154.7208 H   0  0  0  0  0  0  0  0  0  0  0  0
  147.1170  133.1671  154.5565 H   0  0  0  0  0  0  0  0  0  0  0  0
  149.5995  133.5476  154.9227 H   0  0  0  0  0  0  0  0  0  0  0  0
  149.6842  134.3384  153.3570 H   0  0  0  0  0  0  0  0  0  0  0  0
  149.2928  132.6240  153.4953 H   0  0  0  0  0  0  0  0  0  0  0  0
  144.9319  134.3251  153.2574 H   0  0  0  0  0  0  0  0  0  0  0  0
  145.7938  135.8343  153.2198 H   0  0  0  0  0  0  0  0  0  0  0  0
  144.2460  135.7410  151.3369 H   0  0  0  0  0  0  0  0  0  0  0  0
  145.9033  135.8861  150.8043 H   0  0  0  0  0  0  0  0  0  0  0  0
  144.2295  133.3300  150.8342 H   0  0  0  0  0  0  0  0  0  0  0  0
  144.7668  134.2049  149.4211 H   0  0  0  0  0  0  0  0  0  0  0  0
  146.2420  132.2319  149.8883 H   0  0  0  0  0  0  0  0  0  0  0  0
  147.1201  133.7364  149.9292 H   0  0  0  0  0  0  0  0  0  0  0  0
  147.8393  132.4320  151.7450 H   0  0  0  0  0  0  0  0  0  0  0  0
  145.9458  130.8687  151.9723 H   0  0  0  0  0  0  0  0  0  0  0  0
  144.9477  132.1011  152.7187 H   0  0  0  0  0  0  0  0  0  0  0  0
  146.3691  131.4943  153.5506 H   0  0  0  0  0  0  0  0  0  0  0  0
  147.6153  134.6924  152.1522 H   0  0  0  0  0  0  0  0  0  0  0  0
  1  2  1  0  0  0  0
  1 21  1  0  0  0  0
  1 22  1  0  0  0  0
  1 23  1  0  0  0  0
  2 20  1  0  0  0  0
  2  3  2  0  0  0  0
  3  4  1  0  0  0  0
  3 24  1  0  0  0  0
  4  5  1  0  0  0  0
  4 19  2  0  0  0  0
  5  6  1  0  0  0  0
  5 25  1  0  0  0  0
  6  7  2  0  0  0  0
  6  8  1  0  0  0  0
  8  9  1  0  0  0  0
  8 26  1  0  0  0  0
  9 10  1  0  0  0  0
  9 27  1  0  0  0  0
  9 28  1  0  0  0  0
 10 11  1  0  0  0  0
 10 12  1  0  0  0  0
 10 29  1  0  0  0  0
 11 30  1  0  0  0  0
 11 31  1  0  0  0  0
 11 32  1  0  0  0  0
 12 17  1  0  0  0  0
 12 13  1  0  0  0  0
 12 45  1  0  0  0  0
 13 14  1  0  0  0  0
 13 33  1  0  0  0  0
 13 34  1  0  0  0  0
 14 15  1  0  0  0  0
 14 35  1  0  0  0  0
 14 36  1  0  0  0  0
 15 16  1  0  0  0  0
 15 37  1  0  0  0  0
 15 38  1  0  0  0  0
 16 17  1  0  0  0  0
 16 39  1  0  0  0  0
 16 40  1  0  0  0  0
 17 18  1  0  0  0  0
 17 41  1  0  0  0  0
 18 42  1  0  0  0  0
 18 43  1  0  0  0  0
 18 44  1  0  0  0  0
 19 20  1  0  0  0  0
M  CHG  1  12   1
M  END
> <s_m_source_file>
AV-unprocessed.smi

> <i_m_source_file_index>
1978

> <i_lp_mmshare_version>
43012

> <i_f3d_flags>
0

> <s_epik_input>
W0NIM11jMVtjSF1jKG5vMSlbTkhdQyg9TylbTkhdW0NIMl1bQ0BIXShbQ0gzXSlOMltDSDJdW0NIMl1bQ0gyXVtDSDJdW0NASF0yW0NIM10=

> <s_epik_cmdline>
J2VwaWtfcHl0aG9uJywgJy1waCcsICc3LjAnLCAnLXRuJywgJzgnLCAnLW1hJywgJzIwMCcsICctbWV0YWxfYmluZGluZycsICctaW1hZScsICc8aW5maWxlLm1hZT4nLCAnLW9tYWUnLCAnPG91dGZpbGUubWFlPic=

> <r_epik_Ionization_Penalty>
0.00265971

> <r_epik_Ionization_Penalty_Charging>
0.00262393

> <r_epik_Ionization_Penalty_Neutral>
3.57846e-05

> <r_epik_State_Penalty>
0.00182566

> <r_epik_Charging_Adjusted_Penalty>
0.00444959

> <i_epik_Tot_Q>
1

> <i_epik_Tot_abs_Q>
1

> <r_epik_Metal_State_Penalty>
0.0216344

> <b_epik_Metal_Only>
0

> <s_lp_Force_Field>
OPLS_2005

> <r_lp_Energy>
22.9215

> <b_lp_Chiralities_Consistent>
1

> <s_lp_Variant>
AV-unprocessed.smi:1978-7

> <Gold.Version>
5.8.1

> <Gold.Id.Protein>
6NUR|6NUR_protein|mol2

> <Gold.PLP.Fitness>
40.2958

> <Gold.PLP.PLP>
-26.2706

> <Gold.PLP.part.hbond>
-4.0535

> <Gold.PLP.part.metal>
0.0000

> <Gold.PLP.part.buried>
-1.6077

> <Gold.PLP.part.nonpolar>
-20.2269

> <Gold.PLP.part.repulsive>
0.0820

> <Gold.PLP.ligand.clash>
0.0000

> <Gold.PLP.ligand.torsion>
0.5372

> <Gold.PLP.Chemscore.Hbond>
5.0000

> <Gold.PLP.Chemscore.CHOScore>
0.0000

> <Gold.PLP.Chemscore.Metal>
0.0000

> <Gold.Chemscore.Hbonds>
donor molecule, donor type, donor heavy atom, donor atom, acceptor molecule, acceptor atom, score
      L1  H     8    26       P1  7948  1.00
      L1  H    12    45       P1  7948  2.00
      P1  H  7989  7998       L1    19  1.00
      P1  H  7997  8008       L1    20  1.00

> <Gold.PLP.Chemscore.Internal.Correction>
0.0996

> <Gold.Rescore>
     Score         DG    S(hbond)    S(metal)    S(lipo)     H(rot)  DE(clash)    DE(int)     intcor
     17.15     -19.30       3.17        0.00      61.46       1.55       0.28       1.87       ----

> <Gold.Chemscore.Fitness>
17.1489

> <Gold.Chemscore.DG>
-19.3041

> <Gold.Chemscore.ZeroCoef>
-5.4800

> <Gold.Chemscore.Hbond>
3.1721

> <Gold.Chemscore.Metal>
0.0000

> <Gold.Chemscore.Lipo>
61.4559

> <Gold.Chemscore.Internal_Hbond>
0.0000

> <Gold.Chemscore.DEClash>
0.2835

> <Gold.Chemscore.DEInternal>
1.8717

> <Gold.Chemscore.Rot>
1.5474

> <Gold.Chemscore.Internal.Correction>
   9.000000E+99

> <Gold.Chemscore.Hbonds>
donor molecule, donor type, donor heavy atom, donor atom, acceptor molecule, acceptor atom, score
      L1  H     8    26       P1  7948  1.00
      L1  H    12    45       P1  7948  0.65
      P1  H  7989  7998       L1    19  0.38
      P1  H  7997  8008       L1    20  0.42

> <Gold.Chemscore.Hbond.Weighted>
-10.5950

> <Gold.Chemscore.Metal.Weighted>
-0.0000

> <Gold.Chemscore.Lipo.Weighted>
-7.1903

> <Gold.Chemscore.Internal_Hbond.Weighted>
0.0000

> <Gold.Chemscore.DEClash.Weighted>
0.2835

> <Gold.Chemscore.DEInternal.Weighted>
1.8717

> <Gold.Chemscore.Rot.Weighted>
3.9612

> <Gold.Chemscore.Internal.Correction.Weighted>
   9.000000E+99

> <Gold.Protein.RotatedTorsions>
[ 6907 6896 6895 6894 ] final -161.92 input  -60.11 | X-H torsion
[ 7974 7965 7964 7962 ] final   20.26 input  175.53 | X-H torsion
[ 8008 7997 7996 7995 ] final  -43.84 input   59.86 | X-H torsion
[ 10167 10162 10161 10158 ] final   78.23 input  -65.29 | X-H torsion
[ 10718 10713 10712 10709 ] final  144.53 input   66.30 | X-H torsion
[ 10763 10752 10751 10750 ] final  -90.82 input  -60.55 | X-H torsion
[ 11005 11000 10999 10996 ] final  107.46 input  -57.11 | X-H torsion

> <Gold.Protein.ActiveResidues>
 VAL166  LYS551  ARG553  GLY616  TRP617  ASP618  TYR619  PRO620  LYS621  CYS622 
 ASP623  PHE694  ASN695  SER759  ASP760  ASP761  ALA762  ILE779  LEU786  VAL792 
 PHE793  MET794  SER795  GLU796  ALA797  LYS798  CYS799  TRP800  GLU811  SER814 

> <Gold.Protein.RotatedAtoms>
  151.3722  133.3850  159.2700 H   0  0  0  0  0  0  0  0  0  0  0  0  # atno 6907 bound_to 6896
  150.9642  134.9026  159.7759 H   0  0  0  0  0  0  0  0  0  0  0  0  # atno 6908 bound_to 6896
  152.5161  134.3682  159.9361 H   0  0  0  0  0  0  0  0  0  0  0  0  # atno 6909 bound_to 6896
  146.2118  139.8194  142.8683 H   0  0  0  0  0  0  0  0  0  0  0  0  # atno 7974 bound_to 7965
  154.3997  140.1437  156.3584 H   0  0  0  0  0  0  0  0  0  0  0  0  # atno 8008 bound_to 7997
  155.8204  140.3469  155.5489 H   0  0  0  0  0  0  0  0  0  0  0  0  # atno 8009 bound_to 7997
  155.8294  140.0910  157.1792 H   0  0  0  0  0  0  0  0  0  0  0  0  # atno 8010 bound_to 7997
  139.9731  144.5880  150.7967 H   0  0  0  0  0  0  0  0  0  0  0  0  # atno 10167 bound_to 10162
  157.3561  131.0958  151.0957 H   0  0  0  0  0  0  0  0  0  0  0  0  # atno 10718 bound_to 10713
  154.6697  135.5290  153.8122 H   0  0  0  0  0  0  0  0  0  0  0  0  # atno 10763 bound_to 10752
  153.0493  135.6526  154.0744 H   0  0  0  0  0  0  0  0  0  0  0  0  # atno 10764 bound_to 10752
  154.0644  135.2959  155.3299 H   0  0  0  0  0  0  0  0  0  0  0  0  # atno 10765 bound_to 10752
  139.8828  134.9401  156.5823 H   0  0  0  0  0  0  0  0  0  0  0  0  # atno 11005 bound_to 11000
  145.3112  141.0220  143.3553 LP  0  0  0  0  0  0  0  0  0  0  0  0  # atno 17320 bound_to 7965
  144.8935  139.4743  143.6667 LP  0  0  0  0  0  0  0  0  0  0  0  0  # atno 17321 bound_to 7965
  140.7515  143.2973  151.3170 LP  0  0  0  0  0  0  0  0  0  0  0  0  # atno 17342 bound_to 10162
  139.6466  144.0440  152.2595 LP  0  0  0  0  0  0  0  0  0  0  0  0  # atno 17343 bound_to 10162
  157.2115  130.6440  149.5776 LP  0  0  0  0  0  0  0  0  0  0  0  0  # atno 17370 bound_to 10713
  155.9729  130.4658  150.6268 LP  0  0  0  0  0  0  0  0  0  0  0  0  # atno 17371 bound_to 10713
  140.8018  133.8499  155.8733 LP  0  0  0  0  0  0  0  0  0  0  0  0  # atno 17394 bound_to 11000
  140.9586  134.1685  157.4672 LP  0  0  0  0  0  0  0  0  0  0  0  0  # atno 17395 bound_to 11000

$$$$
