AV-unprocessed.smi:1389|AV-procd|sdf|5646|dock3
  -GOLD-   22720 5263D 1   1.00000     0.00000
 Structure written by MMmdl.
 51 53  0  0  0  0  0  0  0  0  1 V2000
  148.4477  136.3268  156.6109 C   0  0  0  0  0  0  0  0  0  0  0  0
  149.3367  136.4409  155.3459 C   0  0  2  0  0  0  0  0  0  0  0  0
  149.8724  135.0307  154.9678 C   0  0  0  0  0  0  0  0  0  0  0  0
  148.9802  134.3034  154.0676 N   0  0  0  0  0  0  0  0  0  0  0  0
  148.7096  132.9916  154.1287 C   0  0  0  0  0  0  0  0  0  0  0  0
  149.2054  132.2289  154.9578 O   0  0  0  0  0  0  0  0  0  0  0  0
  147.8144  132.6398  153.1910 N   0  0  0  0  0  0  0  0  0  0  0  0
  147.2281  131.3613  152.9681 C   0  0  0  0  0  0  0  0  0  0  0  0
  147.7062  130.1865  153.5984 C   0  0  0  0  0  0  0  0  0  0  0  0
  147.0831  128.9566  153.3219 C   0  0  0  0  0  0  0  0  0  0  0  0
  146.0079  128.9422  152.4165 C   0  0  0  0  0  0  0  0  0  0  0  0
  145.5528  130.0485  151.7946 N   0  0  0  0  0  0  0  0  0  0  0  0
  146.1441  131.2397  152.0575 C   0  0  0  0  0  0  0  0  0  0  0  0
  145.6678  132.3735  151.3672 N   0  0  0  0  0  0  0  0  0  0  0  0
  144.7957  132.0487  150.2422 C   0  0  0  0  0  0  0  0  0  0  0  0
  143.7407  133.1544  150.1820 C   0  0  0  0  0  0  0  0  0  0  0  0
  143.6358  133.6039  151.6339 C   0  0  0  0  0  0  0  0  0  0  0  0
  145.0770  133.4759  152.1249 C   0  0  0  0  0  0  0  0  0  0  0  0
  150.4116  137.4504  155.4930 N   0  0  0  0  0  0  0  0  0  0  0  0
  151.2918  137.5225  154.3209 C   0  0  0  0  0  0  0  0  0  0  0  0
  152.3933  138.5868  154.4657 C   0  0  0  0  0  0  0  0  0  0  0  0
  151.8044  139.8560  154.7120 O   0  0  0  0  0  0  0  0  0  0  0  0
  151.0036  139.8524  155.8855 C   0  0  0  0  0  0  0  0  0  0  0  0
  149.8912  138.7983  155.7507 C   0  0  0  0  0  0  0  0  0  0  0  0
  147.6742  135.5669  156.5097 H   0  0  0  0  0  0  0  0  0  0  0  0
  147.9058  137.2470  156.8230 H   0  0  0  0  0  0  0  0  0  0  0  0
  149.0426  136.0737  157.4892 H   0  0  0  0  0  0  0  0  0  0  0  0
  148.6857  136.7612  154.5311 H   0  0  0  0  0  0  0  0  0  0  0  0
  150.8121  135.1007  154.4230 H   0  0  0  0  0  0  0  0  0  0  0  0
  150.0842  134.4580  155.8724 H   0  0  0  0  0  0  0  0  0  0  0  0
  148.5197  134.8479  153.3532 H   0  0  0  0  0  0  0  0  0  0  0  0
  147.4248  133.3935  152.6439 H   0  0  0  0  0  0  0  0  0  0  0  0
  148.5453  130.2051  154.2767 H   0  0  0  0  0  0  0  0  0  0  0  0
  147.4248  128.0454  153.7898 H   0  0  0  0  0  0  0  0  0  0  0  0
  145.5050  128.0167  152.1781 H   0  0  0  0  0  0  0  0  0  0  0  0
  145.3596  131.9875  149.3112 H   0  0  0  0  0  0  0  0  0  0  0  0
  144.3146  131.0827  150.4056 H   0  0  0  0  0  0  0  0  0  0  0  0
  144.1020  133.9793  149.5666 H   0  0  0  0  0  0  0  0  0  0  0  0
  142.7910  132.8136  149.7689 H   0  0  0  0  0  0  0  0  0  0  0  0
  143.2373  134.6127  151.7434 H   0  0  0  0  0  0  0  0  0  0  0  0
  142.9921  132.9203  152.1892 H   0  0  0  0  0  0  0  0  0  0  0  0
  145.1261  133.3585  153.2076 H   0  0  0  0  0  0  0  0  0  0  0  0
  145.6339  134.3808  151.8800 H   0  0  0  0  0  0  0  0  0  0  0  0
  151.7941  136.5714  154.1561 H   0  0  0  0  0  0  0  0  0  0  0  0
  150.7019  137.7309  153.4271 H   0  0  0  0  0  0  0  0  0  0  0  0
  153.0752  138.3291  155.2777 H   0  0  0  0  0  0  0  0  0  0  0  0
  152.9886  138.6422  153.5541 H   0  0  0  0  0  0  0  0  0  0  0  0
  151.6241  139.6497  156.7598 H   0  0  0  0  0  0  0  0  0  0  0  0
  150.5715  140.8435  156.0239 H   0  0  0  0  0  0  0  0  0  0  0  0
  149.2096  139.0913  154.9509 H   0  0  0  0  0  0  0  0  0  0  0  0
  149.3208  138.8204  156.6774 H   0  0  0  0  0  0  0  0  0  0  0  0
  1  2  1  0  0  0  0
  1 25  1  0  0  0  0
  1 26  1  0  0  0  0
  1 27  1  0  0  0  0
  2  3  1  0  0  0  0
  2 19  1  0  0  0  0
  2 28  1  0  0  0  0
  3  4  1  0  0  0  0
  3 29  1  0  0  0  0
  3 30  1  0  0  0  0
  4  5  1  0  0  0  0
  4 31  1  0  0  0  0
  5  6  2  0  0  0  0
  5  7  1  0  0  0  0
  7  8  1  0  0  0  0
  7 32  1  0  0  0  0
  8 13  1  0  0  0  0
  8  9  2  0  0  0  0
  9 10  1  0  0  0  0
  9 33  1  0  0  0  0
 10 11  2  0  0  0  0
 10 34  1  0  0  0  0
 11 12  1  0  0  0  0
 11 35  1  0  0  0  0
 12 13  2  0  0  0  0
 13 14  1  0  0  0  0
 14 18  1  0  0  0  0
 14 15  1  0  0  0  0
 15 16  1  0  0  0  0
 15 36  1  0  0  0  0
 15 37  1  0  0  0  0
 16 17  1  0  0  0  0
 16 38  1  0  0  0  0
 16 39  1  0  0  0  0
 17 18  1  0  0  0  0
 17 40  1  0  0  0  0
 17 41  1  0  0  0  0
 18 42  1  0  0  0  0
 18 43  1  0  0  0  0
 19 24  1  0  0  0  0
 19 20  1  0  0  0  0
 20 21  1  0  0  0  0
 20 44  1  0  0  0  0
 20 45  1  0  0  0  0
 21 22  1  0  0  0  0
 21 46  1  0  0  0  0
 21 47  1  0  0  0  0
 22 23  1  0  0  0  0
 23 24  1  0  0  0  0
 23 48  1  0  0  0  0
 23 49  1  0  0  0  0
 24 50  1  0  0  0  0
 24 51  1  0  0  0  0
M  END
> <s_m_source_file>
AV-unprocessed.smi

> <i_m_source_file_index>
1389

> <i_lp_mmshare_version>
43012

> <i_f3d_flags>
0

> <s_epik_input>
W0NIMl0xW0NIMl1PW0NIMl1bQ0gyXU4xW0NASF0oW0NIM10pW0NIMl1bTkhdQyg9TylbTkhdYzJbY0hdW2NIXVtjSF1uYzJOM1tDSDJdW0NIMl1bQ0gyXVtDSDJdMw==

> <s_epik_cmdline>
J2VwaWtfcHl0aG9uJywgJy1waCcsICc3LjAnLCAnLXRuJywgJzgnLCAnLW1hJywgJzIwMCcsICctbWV0YWxfYmluZGluZycsICctaW1hZScsICc8aW5maWxlLm1hZT4nLCAnLW9tYWUnLCAnPG91dGZpbGUubWFlPic=

> <r_lp_tautomer_probability>
1

> <r_epik_Ionization_Penalty>
0.365229

> <r_epik_Ionization_Penalty_Charging>
0

> <r_epik_Ionization_Penalty_Neutral>
0.365229

> <r_epik_State_Penalty>
0.350519

> <r_epik_Charging_Adjusted_Penalty>
0.350519

> <i_epik_Tot_Q>
0

> <i_epik_Tot_abs_Q>
0

> <r_epik_Metal_State_Penalty>
0.33386

> <b_epik_Metal_Only>
0

> <s_lp_Force_Field>
OPLS_2005

> <r_lp_Energy>
57.3938

> <b_lp_Chiralities_Consistent>
1

> <s_lp_Variant>
AV-unprocessed.smi:1389-1

> <Gold.Version>
5.8.1

> <Gold.Id.Protein>
6NUR|6NUR_protein|mol2

> <Gold.PLP.Fitness>
43.4335

> <Gold.PLP.PLP>
-39.1189

> <Gold.PLP.part.hbond>
-1.9627

> <Gold.PLP.part.metal>
0.0000

> <Gold.PLP.part.buried>
-7.6059

> <Gold.PLP.part.nonpolar>
-31.0734

> <Gold.PLP.part.repulsive>
0.4095

> <Gold.PLP.ligand.clash>
0.0000

> <Gold.PLP.ligand.torsion>
0.7832

> <Gold.PLP.Chemscore.Hbond>
1.9040

> <Gold.PLP.Chemscore.CHOScore>
0.0000

> <Gold.PLP.Chemscore.Metal>
0.0000

> <Gold.Chemscore.Hbonds>
donor molecule, donor type, donor heavy atom, donor atom, acceptor molecule, acceptor atom, score
      L1  H     4    31       P1  7948  0.77
      P1  H  7989  7998       L1    22  1.00

> <Gold.PLP.Chemscore.Internal.Correction>
0.1690

> <Gold.Rescore>
     Score         DG    S(hbond)    S(metal)    S(lipo)     H(rot)  DE(clash)    DE(int)     intcor
     14.65     -16.91       1.42        0.00      91.64       1.57       0.00       2.26       ----

> <Gold.Chemscore.Fitness>
14.6513

> <Gold.Chemscore.DG>
-16.9124

> <Gold.Chemscore.ZeroCoef>
-5.4800

> <Gold.Chemscore.Hbond>
1.4175

> <Gold.Chemscore.Metal>
0.0000

> <Gold.Chemscore.Lipo>
91.6401

> <Gold.Chemscore.Internal_Hbond>
0.0000

> <Gold.Chemscore.DEClash>
0.0008

> <Gold.Chemscore.DEInternal>
2.2602

> <Gold.Chemscore.Rot>
1.5718

> <Gold.Chemscore.Internal.Correction>
   9.000000E+99

> <Gold.Chemscore.Hbonds>
donor molecule, donor type, donor heavy atom, donor atom, acceptor molecule, acceptor atom, score
      L1  H     4    31       P1  7948  0.47
      P1  H  7989  7998       L1    22  0.88

> <Gold.Chemscore.Hbond.Weighted>
-4.7344

> <Gold.Chemscore.Metal.Weighted>
-0.0000

> <Gold.Chemscore.Lipo.Weighted>
-10.7219

> <Gold.Chemscore.Internal_Hbond.Weighted>
0.0000

> <Gold.Chemscore.DEClash.Weighted>
0.0008

> <Gold.Chemscore.DEInternal.Weighted>
2.2602

> <Gold.Chemscore.Rot.Weighted>
4.0239

> <Gold.Chemscore.Internal.Correction.Weighted>
   9.000000E+99

> <Gold.Protein.RotatedTorsions>
[ 6907 6896 6895 6894 ] final   62.52 input  -60.11 | X-H torsion
[ 7974 7965 7964 7962 ] final   27.76 input  175.53 | X-H torsion
[ 8008 7997 7996 7995 ] final  109.00 input   59.86 | X-H torsion
[ 10167 10162 10161 10158 ] final   -3.22 input  -65.29 | X-H torsion
[ 10718 10713 10712 10709 ] final  -35.79 input   66.30 | X-H torsion
[ 10763 10752 10751 10750 ] final  -69.26 input  -60.55 | X-H torsion
[ 11005 11000 10999 10996 ] final   14.04 input  -57.11 | X-H torsion

> <Gold.Protein.ActiveResidues>
 VAL166  LYS551  ARG553  GLY616  TRP617  ASP618  TYR619  PRO620  LYS621  CYS622 
 ASP623  PHE694  ASN695  SER759  ASP760  ASP761  ALA762  ILE779  LEU786  VAL792 
 PHE793  MET794  SER795  GLU796  ALA797  LYS798  CYS799  TRP800  GLU811  SER814 

> <Gold.Protein.RotatedAtoms>
  152.4178  134.6009  159.9999 H   0  0  0  0  0  0  0  0  0  0  0  0  # atno 6907 bound_to 6896
  151.6168  133.3337  159.3087 H   0  0  0  0  0  0  0  0  0  0  0  0  # atno 6908 bound_to 6896
  150.8067  134.7235  159.6716 H   0  0  0  0  0  0  0  0  0  0  0  0  # atno 6909 bound_to 6896
  146.1766  139.7148  142.8930 H   0  0  0  0  0  0  0  0  0  0  0  0  # atno 7974 bound_to 7965
  156.1946  140.3066  155.9401 H   0  0  0  0  0  0  0  0  0  0  0  0  # atno 8008 bound_to 7997
  155.3095  140.0450  157.3051 H   0  0  0  0  0  0  0  0  0  0  0  0  # atno 8009 bound_to 7997
  154.5494  140.2286  155.8519 H   0  0  0  0  0  0  0  0  0  0  0  0  # atno 8010 bound_to 7997
  140.6882  143.6565  150.8304 H   0  0  0  0  0  0  0  0  0  0  0  0  # atno 10167 bound_to 10162
  156.3344  130.4284  149.7843 H   0  0  0  0  0  0  0  0  0  0  0  0  # atno 10718 bound_to 10713
  154.4009  135.6031  153.5896 H   0  0  0  0  0  0  0  0  0  0  0  0  # atno 10763 bound_to 10752
  152.9788  135.5906  154.4185 H   0  0  0  0  0  0  0  0  0  0  0  0  # atno 10764 bound_to 10752
  154.3983  135.2842  155.2090 H   0  0  0  0  0  0  0  0  0  0  0  0  # atno 10765 bound_to 10752
  140.4739  134.1003  155.7738 H   0  0  0  0  0  0  0  0  0  0  0  0  # atno 11005 bound_to 11000
  145.4193  141.0405  143.2973 LP  0  0  0  0  0  0  0  0  0  0  0  0  # atno 17320 bound_to 7965
  144.8247  139.5731  143.6971 LP  0  0  0  0  0  0  0  0  0  0  0  0  # atno 17321 bound_to 7965
  140.0275  143.5478  152.2774 LP  0  0  0  0  0  0  0  0  0  0  0  0  # atno 17342 bound_to 10162
  139.6259  144.7637  151.2640 LP  0  0  0  0  0  0  0  0  0  0  0  0  # atno 17343 bound_to 10162
  156.5103  130.8169  151.3166 LP  0  0  0  0  0  0  0  0  0  0  0  0  # atno 17370 bound_to 10713
  157.7436  130.9916  150.2606 LP  0  0  0  0  0  0  0  0  0  0  0  0  # atno 17371 bound_to 10713
  141.1563  133.8876  157.1967 LP  0  0  0  0  0  0  0  0  0  0  0  0  # atno 17394 bound_to 11000
  139.9868  135.0079  156.9881 LP  0  0  0  0  0  0  0  0  0  0  0  0  # atno 17395 bound_to 11000

$$$$
