AV-unprocessed.smi:2391|AV-procd|sdf|9483|dock4
  -GOLD-   2272013113D 1   1.00000     0.00000
 Structure written by MMmdl.
 35 36  0  0  0  0  0  0  0  0  1 V2000
  151.2352  137.3734  159.6070 O   0  0  0  0  0  0  0  0  0  0  0  0
  151.5887  137.9719  158.5868 C   0  0  0  0  0  0  0  0  0  0  0  0
  151.3105  137.6668  157.2592 N   0  0  0  0  0  0  0  0  0  0  0  0
  150.6400  138.4667  156.4819 C   0  0  0  0  0  0  0  0  0  0  0  0
  150.3807  138.1133  155.0965 C   0  0  0  0  0  0  0  0  0  0  0  0
  149.6859  138.9368  154.2778 C   0  0  0  0  0  0  0  0  0  0  0  0
  149.1975  140.1928  154.8114 C   0  0  0  0  0  0  0  0  0  0  0  0
  149.4023  140.5463  156.0361 N   0  0  0  0  0  0  0  0  0  0  0  0
  150.0953  139.7180  156.8440 N   0  0  0  0  0  0  0  0  0  0  0  0
  152.3429  139.0801  158.6463 N   0  0  0  0  0  0  0  0  0  0  0  0
  152.8481  139.7330  159.8572 C   0  0  2  0  0  0  0  0  0  0  0  0
  153.0935  141.2364  159.5651 C   0  0  0  0  0  0  0  0  0  0  0  0
  153.1943  142.1352  160.8026 C   0  0  0  0  0  0  0  0  0  0  0  0
  152.9657  143.5564  160.2815 C   0  0  0  0  0  0  0  0  0  0  0  0
  152.1131  143.4135  159.0139 C   0  0  0  0  0  0  0  0  0  0  0  0
  151.9756  141.9088  158.7542 C   0  0  0  0  0  0  0  0  0  0  0  0
  154.1032  138.9734  160.3449 C   0  0  0  0  0  0  0  0  0  0  0  0
  153.7737  137.7251  160.6799 F   0  0  0  0  0  0  0  0  0  0  0  0
  155.0285  138.9280  159.3855 F   0  0  0  0  0  0  0  0  0  0  0  0
  154.6264  139.5557  161.4230 F   0  0  0  0  0  0  0  0  0  0  0  0
  150.7366  137.1814  154.6820 H   0  0  0  0  0  0  0  0  0  0  0  0
  149.4924  138.6748  153.2481 H   0  0  0  0  0  0  0  0  0  0  0  0
  148.6460  140.8194  154.1106 H   0  0  0  0  0  0  0  0  0  0  0  0
  152.5969  139.5129  157.7700 H   0  0  0  0  0  0  0  0  0  0  0  0
  152.1027  139.6635  160.6511 H   0  0  0  0  0  0  0  0  0  0  0  0
  154.0217  141.3395  159.0002 H   0  0  0  0  0  0  0  0  0  0  0  0
  152.4098  141.8773  161.5157 H   0  0  0  0  0  0  0  0  0  0  0  0
  154.1530  142.0441  161.3138 H   0  0  0  0  0  0  0  0  0  0  0  0
  152.4887  144.1896  161.0300 H   0  0  0  0  0  0  0  0  0  0  0  0
  153.9223  144.0154  160.0281 H   0  0  0  0  0  0  0  0  0  0  0  0
  151.1340  143.8789  159.1334 H   0  0  0  0  0  0  0  0  0  0  0  0
  152.6065  143.9047  158.1744 H   0  0  0  0  0  0  0  0  0  0  0  0
  152.0298  141.6696  157.6916 H   0  0  0  0  0  0  0  0  0  0  0  0
  151.0031  141.5704  159.1150 H   0  0  0  0  0  0  0  0  0  0  0  0
  150.2305  140.0333  157.7941 H   0  0  0  0  0  0  0  0  0  0  0  0
  1  2  2  0  0  0  0
  2  3  1  0  0  0  0
  2 10  1  0  0  0  0
  3  4  2  0  0  0  0
  4  9  1  0  0  0  0
  4  5  1  0  0  0  0
  5  6  2  0  0  0  0
  5 21  1  0  0  0  0
  6  7  1  0  0  0  0
  6 22  1  0  0  0  0
  7  8  2  0  0  0  0
  7 23  1  0  0  0  0
  8  9  1  0  0  0  0
  9 35  1  0  0  0  0
 10 11  1  0  0  0  0
 10 24  1  0  0  0  0
 11 12  1  0  0  0  0
 11 17  1  0  0  0  0
 11 25  1  0  0  0  0
 12 16  1  0  0  0  0
 12 13  1  0  0  0  0
 12 26  1  0  0  0  0
 13 14  1  0  0  0  0
 13 27  1  0  0  0  0
 13 28  1  0  0  0  0
 14 15  1  0  0  0  0
 14 29  1  0  0  0  0
 14 30  1  0  0  0  0
 15 16  1  0  0  0  0
 15 31  1  0  0  0  0
 15 32  1  0  0  0  0
 16 33  1  0  0  0  0
 16 34  1  0  0  0  0
 17 18  1  0  0  0  0
 17 19  1  0  0  0  0
 17 20  1  0  0  0  0
M  END
> <s_m_source_file>
AV-unprocessed.smi

> <i_m_source_file_index>
2391

> <i_lp_mmshare_version>
43012

> <i_f3d_flags>
0

> <s_epik_input>
W0NIMl0xW0NIMl1bQ0gyXVtDSDJdW0NIXTFbQ0BIXShDKEYpKEYpRilbTkhdQyg9TylbTkhdYzJbY0hdW2NIXVtjSF1ubjI=

> <s_epik_cmdline>
J2VwaWtfcHl0aG9uJywgJy1waCcsICc3LjAnLCAnLXRuJywgJzgnLCAnLW1hJywgJzIwMCcsICctbWV0YWxfYmluZGluZycsICctaW1hZScsICc8aW5maWxlLm1hZT4nLCAnLW9tYWUnLCAnPG91dGZpbGUubWFlPic=

> <r_epik_Ionization_Penalty>
0.0611197

> <r_epik_Ionization_Penalty_Charging>
0.0611196

> <r_epik_Ionization_Penalty_Neutral>
6.50554e-08

> <r_epik_State_Penalty>
2.29873

> <r_epik_Charging_Adjusted_Penalty>
2.35985

> <i_epik_Tot_Q>
0

> <i_epik_Tot_abs_Q>
0

> <r_epik_Metal_State_Penalty>
2.32932

> <b_epik_Metal_Only>
0

> <s_lp_Force_Field>
OPLS_2005

> <r_lp_Energy>
49.9712

> <b_lp_Chiralities_Consistent>
1

> <s_lp_Variant>
AV-unprocessed.smi:2391-3

> <Gold.Version>
5.8.1

> <Gold.Id.Protein>
6NUR|6NUR_protein|mol2

> <Gold.PLP.Fitness>
38.6919

> <Gold.PLP.PLP>
-34.8344

> <Gold.PLP.part.hbond>
-1.0000

> <Gold.PLP.part.metal>
0.0000

> <Gold.PLP.part.buried>
-4.6400

> <Gold.PLP.part.nonpolar>
-29.9626

> <Gold.PLP.part.repulsive>
0.1406

> <Gold.PLP.ligand.clash>
0.0000

> <Gold.PLP.ligand.torsion>
1.2017

> <Gold.PLP.Chemscore.Hbond>
0.9913

> <Gold.PLP.Chemscore.CHOScore>
1.0000

> <Gold.PLP.Chemscore.Metal>
0.0000

> <Gold.Chemscore.Hbonds>
donor molecule, donor type, donor heavy atom, donor atom, acceptor molecule, acceptor atom, score
      P1  H  6896  6909       L1     1  0.44

> <Gold.PLP.Chemscore.Internal.Correction>
0.2871

> <Gold.Rescore>
     Score         DG    S(hbond)    S(metal)    S(lipo)     H(rot)  DE(clash)    DE(int)     intcor
     14.05     -15.37       0.98        0.00      85.62       1.33       0.02       1.30       ----

> <Gold.Chemscore.Fitness>
14.0459

> <Gold.Chemscore.DG>
-15.3698

> <Gold.Chemscore.ZeroCoef>
-5.4800

> <Gold.Chemscore.Hbond>
0.9814

> <Gold.Chemscore.Metal>
0.0000

> <Gold.Chemscore.Lipo>
85.6201

> <Gold.Chemscore.Internal_Hbond>
0.0000

> <Gold.Chemscore.DEClash>
0.0240

> <Gold.Chemscore.DEInternal>
1.2998

> <Gold.Chemscore.Rot>
1.3304

> <Gold.Chemscore.Internal.Correction>
   9.000000E+99

> <Gold.Chemscore.Hbonds>
donor molecule, donor type, donor heavy atom, donor atom, acceptor molecule, acceptor atom, score
      P1  H  6896  6909       L1     1  0.43

> <Gold.Chemscore.Hbond.Weighted>
-3.2779

> <Gold.Chemscore.Metal.Weighted>
-0.0000

> <Gold.Chemscore.Lipo.Weighted>
-10.0175

> <Gold.Chemscore.Internal_Hbond.Weighted>
0.0000

> <Gold.Chemscore.DEClash.Weighted>
0.0240

> <Gold.Chemscore.DEInternal.Weighted>
1.2998

> <Gold.Chemscore.Rot.Weighted>
3.4057

> <Gold.Chemscore.Internal.Correction.Weighted>
   9.000000E+99

> <Gold.Protein.RotatedTorsions>
[ 6907 6896 6895 6894 ] final  119.78 input  -60.11 | X-H torsion
[ 7974 7965 7964 7962 ] final -120.11 input  175.53 | X-H torsion
[ 8008 7997 7996 7995 ] final  137.71 input   59.86 | X-H torsion
[ 10167 10162 10161 10158 ] final  -66.57 input  -65.29 | X-H torsion
[ 10718 10713 10712 10709 ] final  -88.95 input   66.30 | X-H torsion
[ 10763 10752 10751 10750 ] final   93.51 input  -60.55 | X-H torsion
[ 11005 11000 10999 10996 ] final   -2.37 input  -57.11 | X-H torsion

> <Gold.Protein.ActiveResidues>
 VAL166  LYS551  ARG553  GLY616  TRP617  ASP618  TYR619  PRO620  LYS621  CYS622 
 ASP623  PHE694  ASN695  SER759  ASP760  ASP761  ALA762  ILE779  LEU786  VAL792 
 PHE793  MET794  SER795  GLU796  ALA797  LYS798  CYS799  TRP800  GLU811  SER814 

> <Gold.Protein.RotatedAtoms>
  152.4446  133.7513  159.6695 H   0  0  0  0  0  0  0  0  0  0  0  0  # atno 6907 bound_to 6896
  150.8344  133.8028  159.3092 H   0  0  0  0  0  0  0  0  0  0  0  0  # atno 6908 bound_to 6896
  151.5672  135.1066  160.0038 H   0  0  0  0  0  0  0  0  0  0  0  0  # atno 6909 bound_to 6896
  145.0550  140.8247  143.4186 H   0  0  0  0  0  0  0  0  0  0  0  0  # atno 7974 bound_to 7965
  156.3001  140.2412  156.3954 H   0  0  0  0  0  0  0  0  0  0  0  0  # atno 8008 bound_to 7997
  154.8576  140.0421  157.1664 H   0  0  0  0  0  0  0  0  0  0  0  0  # atno 8009 bound_to 7997
  154.8931  140.2966  155.5363 H   0  0  0  0  0  0  0  0  0  0  0  0  # atno 8010 bound_to 7997
  140.5647  143.2314  151.6658 H   0  0  0  0  0  0  0  0  0  0  0  0  # atno 10167 bound_to 10162
  155.9984  130.4854  150.5098 H   0  0  0  0  0  0  0  0  0  0  0  0  # atno 10718 bound_to 10713
  153.2311  135.4323  155.0596 H   0  0  0  0  0  0  0  0  0  0  0  0  # atno 10763 bound_to 10752
  154.8297  135.3379  154.6786 H   0  0  0  0  0  0  0  0  0  0  0  0  # atno 10764 bound_to 10752
  153.7213  135.7017  153.5068 H   0  0  0  0  0  0  0  0  0  0  0  0  # atno 10765 bound_to 10752
  140.6576  133.9349  155.8417 H   0  0  0  0  0  0  0  0  0  0  0  0  # atno 11005 bound_to 11000
  145.1479  139.2532  143.5456 LP  0  0  0  0  0  0  0  0  0  0  0  0  # atno 17320 bound_to 7965
  146.3520  140.1174  142.8601 LP  0  0  0  0  0  0  0  0  0  0  0  0  # atno 17321 bound_to 7965
  139.5087  144.3602  152.0569 LP  0  0  0  0  0  0  0  0  0  0  0  0  # atno 17342 bound_to 10162
  140.2732  144.3941  150.6144 LP  0  0  0  0  0  0  0  0  0  0  0  0  # atno 17343 bound_to 10162
  157.3072  131.0657  151.2027 LP  0  0  0  0  0  0  0  0  0  0  0  0  # atno 17370 bound_to 10713
  157.2985  130.6831  149.6151 LP  0  0  0  0  0  0  0  0  0  0  0  0  # atno 17371 bound_to 10713
  141.0489  134.0513  157.3808 LP  0  0  0  0  0  0  0  0  0  0  0  0  # atno 17394 bound_to 11000
  139.9024  135.0169  156.7330 LP  0  0  0  0  0  0  0  0  0  0  0  0  # atno 17395 bound_to 11000

$$$$
