AV-unprocessed.smi:833|AV-procd|sdf|3882|dock5
  -GOLD-   22720 1333D 1   1.00000     0.00000
 Structure written by MMmdl.
 40 41  0  0  0  0  0  0  0  0  2 V2000
  152.2918  144.4550  159.6279 C   0  0  0  0  0  0  0  0  0  0  0  0
  151.9094  144.3788  158.1436 C   0  0  2  0  0  0  0  0  0  0  0  0
  150.6965  145.0885  157.9983 O   0  0  0  0  0  0  0  0  0  0  0  0
  151.7052  142.9245  157.6718 C   0  0  0  0  0  0  0  0  0  0  0  0
  150.6189  142.8105  156.7042 N   0  0  0  0  0  0  0  0  0  0  0  0
  150.1582  141.6601  156.1945 C   0  0  0  0  0  0  0  0  0  0  0  0
  150.6073  140.5535  156.4920 O   0  0  0  0  0  0  0  0  0  0  0  0
  149.1400  141.8755  155.3451 N   0  0  0  0  0  0  0  0  0  0  0  0
  148.3498  140.9020  154.6716 C   0  0  0  0  0  0  0  0  0  0  0  0
  148.9151  139.6738  154.2417 C   0  0  0  0  0  0  0  0  0  0  0  0
  148.1332  138.7551  153.5170 C   0  0  0  0  0  0  0  0  0  0  0  0
  146.8007  139.0849  153.2168 C   0  0  0  0  0  0  0  0  0  0  0  0
  146.2957  140.2664  153.6281 N   0  3  0  0  0  0  0  0  0  0  0  0
  146.9922  141.1858  154.3421 C   0  0  0  0  0  0  0  0  0  0  0  0
  146.3237  142.3752  154.7134 N   0  0  0  0  0  0  0  0  0  0  0  0
  145.8371  143.2985  153.6944 C   0  0  0  0  0  0  0  0  0  0  0  0
  144.8801  144.2335  154.4289 C   0  0  0  0  0  0  0  0  0  0  0  0
  144.2501  143.3092  155.4663 C   0  0  0  0  0  0  0  0  0  0  0  0
  145.3848  142.3464  155.8306 C   0  0  0  0  0  0  0  0  0  0  0  0
  153.2382  143.9474  159.8153 H   0  0  0  0  0  0  0  0  0  0  0  0
  151.5341  143.9894  160.2590 H   0  0  0  0  0  0  0  0  0  0  0  0
  152.4062  145.4900  159.9525 H   0  0  0  0  0  0  0  0  0  0  0  0
  152.6845  144.8689  157.5528 H   0  0  0  0  0  0  0  0  0  0  0  0
  150.3851  144.9737  157.1131 H   0  0  0  0  0  0  0  0  0  0  0  0
  152.6015  142.5837  157.1524 H   0  0  0  0  0  0  0  0  0  0  0  0
  151.5673  142.2405  158.5116 H   0  0  0  0  0  0  0  0  0  0  0  0
  150.1889  143.6733  156.4044 H   0  0  0  0  0  0  0  0  0  0  0  0
  148.8195  142.8296  155.2667 H   0  0  0  0  0  0  0  0  0  0  0  0
  149.9484  139.4309  154.4383 H   0  0  0  0  0  0  0  0  0  0  0  0
  148.5546  137.8173  153.1855 H   0  0  0  0  0  0  0  0  0  0  0  0
  146.1286  138.4476  152.6604 H   0  0  0  0  0  0  0  0  0  0  0  0
  146.6566  143.8447  153.2266 H   0  0  0  0  0  0  0  0  0  0  0  0
  145.2946  142.7581  152.9176 H   0  0  0  0  0  0  0  0  0  0  0  0
  145.4394  145.0266  154.9270 H   0  0  0  0  0  0  0  0  0  0  0  0
  144.1477  144.6976  153.7677 H   0  0  0  0  0  0  0  0  0  0  0  0
  143.8541  143.8438  156.3301 H   0  0  0  0  0  0  0  0  0  0  0  0
  143.4293  142.7538  155.0104 H   0  0  0  0  0  0  0  0  0  0  0  0
  145.0053  141.3427  156.0264 H   0  0  0  0  0  0  0  0  0  0  0  0
  145.8972  142.6973  156.7267 H   0  0  0  0  0  0  0  0  0  0  0  0
  145.3258  140.4772  153.3932 H   0  0  0  0  0  0  0  0  0  0  0  0
  1  2  1  0  0  0  0
  1 20  1  0  0  0  0
  1 21  1  0  0  0  0
  1 22  1  0  0  0  0
  2  3  1  0  0  0  0
  2  4  1  0  0  0  0
  2 23  1  0  0  0  0
  3 24  1  0  0  0  0
  4  5  1  0  0  0  0
  4 25  1  0  0  0  0
  4 26  1  0  0  0  0
  5  6  1  0  0  0  0
  5 27  1  0  0  0  0
  6  7  2  0  0  0  0
  6  8  1  0  0  0  0
  8  9  1  0  0  0  0
  8 28  1  0  0  0  0
  9 14  1  0  0  0  0
  9 10  2  0  0  0  0
 10 11  1  0  0  0  0
 10 29  1  0  0  0  0
 11 12  2  0  0  0  0
 11 30  1  0  0  0  0
 12 13  1  0  0  0  0
 12 31  1  0  0  0  0
 13 14  2  0  0  0  0
 13 40  1  0  0  0  0
 14 15  1  0  0  0  0
 15 19  1  0  0  0  0
 15 16  1  0  0  0  0
 16 17  1  0  0  0  0
 16 32  1  0  0  0  0
 16 33  1  0  0  0  0
 17 18  1  0  0  0  0
 17 34  1  0  0  0  0
 17 35  1  0  0  0  0
 18 19  1  0  0  0  0
 18 36  1  0  0  0  0
 18 37  1  0  0  0  0
 19 38  1  0  0  0  0
 19 39  1  0  0  0  0
M  CHG  1  13   1
M  END
> <s_m_source_file>
AV-unprocessed.smi

> <i_m_source_file_index>
833

> <i_lp_mmshare_version>
43012

> <i_f3d_flags>
0

> <s_epik_input>
W0NIM11bQ0BIXShbT0hdKVtDSDJdW05IXUMoPU8pW05IXWMxW2NIXVtjSF1bY0hdbmMxTjJbQ0gyXVtDSDJdW0NIMl1bQ0gyXTI=

> <s_epik_cmdline>
J2VwaWtfcHl0aG9uJywgJy1waCcsICc3LjAnLCAnLXRuJywgJzgnLCAnLW1hJywgJzIwMCcsICctbWV0YWxfYmluZGluZycsICctaW1hZScsICc8aW5maWxlLm1hZT4nLCAnLW9tYWUnLCAnPG91dGZpbGUubWFlPic=

> <r_lp_tautomer_probability>
0.999994

> <r_epik_Ionization_Penalty>
1.11387

> <r_epik_Ionization_Penalty_Charging>
1.11385

> <r_epik_Ionization_Penalty_Neutral>
1.95796e-05

> <r_epik_State_Penalty>
1.17209

> <r_epik_Charging_Adjusted_Penalty>
2.28594

> <i_epik_Tot_Q>
1

> <i_epik_Tot_abs_Q>
1

> <r_epik_Metal_State_Penalty>
1.25763

> <b_epik_Metal_Only>
0

> <s_lp_Force_Field>
OPLS_2005

> <r_lp_Energy>
38.091

> <b_lp_Chiralities_Consistent>
1

> <s_lp_Variant>
AV-unprocessed.smi:833-3

> <Gold.Version>
5.8.1

> <Gold.Id.Protein>
6NUR|6NUR_protein|mol2

> <Gold.PLP.Fitness>
49.8043

> <Gold.PLP.PLP>
-36.2986

> <Gold.PLP.part.hbond>
-5.0000

> <Gold.PLP.part.metal>
0.0000

> <Gold.PLP.part.buried>
-3.1199

> <Gold.PLP.part.nonpolar>
-28.8309

> <Gold.PLP.part.repulsive>
0.4090

> <Gold.PLP.ligand.clash>
0.0000

> <Gold.PLP.ligand.torsion>
0.9474

> <Gold.PLP.Chemscore.Hbond>
5.0000

> <Gold.PLP.Chemscore.CHOScore>
0.0000

> <Gold.PLP.Chemscore.Metal>
0.0000

> <Gold.Chemscore.Hbonds>
donor molecule, donor type, donor heavy atom, donor atom, acceptor molecule, acceptor atom, score
      L1  H     3    24       P1  8028  0.94
      L1  H     5    27       P1  8028  1.00
      L1  H     8    28       P1  8028  1.00
      L1  H    13    40       P1 10175  2.00

> <Gold.PLP.Chemscore.Internal.Correction>
0.4005

> <Gold.Rescore>
     Score         DG    S(hbond)    S(metal)    S(lipo)     H(rot)  DE(clash)    DE(int)     intcor
     18.05     -20.26       3.18        0.00      80.87       2.06       0.13       2.09       ----

> <Gold.Chemscore.Fitness>
18.0452

> <Gold.Chemscore.DG>
-20.2644

> <Gold.Chemscore.ZeroCoef>
-5.4800

> <Gold.Chemscore.Hbond>
3.1753

> <Gold.Chemscore.Metal>
0.0000

> <Gold.Chemscore.Lipo>
80.8732

> <Gold.Chemscore.Internal_Hbond>
0.0000

> <Gold.Chemscore.DEClash>
0.1294

> <Gold.Chemscore.DEInternal>
2.0897

> <Gold.Chemscore.Rot>
2.0637

> <Gold.Chemscore.Internal.Correction>
   9.000000E+99

> <Gold.Chemscore.Hbonds>
donor molecule, donor type, donor heavy atom, donor atom, acceptor molecule, acceptor atom, score
      L1  H     3    24       P1  8028  0.26
      L1  H     5    27       P1  8028  0.99
      L1  H     8    28       P1  8028  0.98
      L1  H    13    40       P1 10175  0.97

> <Gold.Chemscore.Hbond.Weighted>
-10.6054

> <Gold.Chemscore.Metal.Weighted>
-0.0000

> <Gold.Chemscore.Lipo.Weighted>
-9.4622

> <Gold.Chemscore.Internal_Hbond.Weighted>
0.0000

> <Gold.Chemscore.DEClash.Weighted>
0.1294

> <Gold.Chemscore.DEInternal.Weighted>
2.0897

> <Gold.Chemscore.Rot.Weighted>
5.2832

> <Gold.Chemscore.Internal.Correction.Weighted>
   9.000000E+99

> <Gold.Protein.RotatedTorsions>
[ 6907 6896 6895 6894 ] final -145.84 input  -60.11 | X-H torsion
[ 7974 7965 7964 7962 ] final  147.36 input  175.53 | X-H torsion
[ 8008 7997 7996 7995 ] final -105.70 input   59.86 | X-H torsion
[ 10167 10162 10161 10158 ] final  151.56 input  -65.29 | X-H torsion
[ 10718 10713 10712 10709 ] final   94.26 input   66.30 | X-H torsion
[ 10763 10752 10751 10750 ] final  -42.01 input  -60.55 | X-H torsion
[ 11005 11000 10999 10996 ] final   88.97 input  -57.11 | X-H torsion

> <Gold.Protein.ActiveResidues>
 VAL166  LYS551  ARG553  GLY616  TRP617  ASP618  TYR619  PRO620  LYS621  CYS622 
 ASP623  PHE694  ASN695  SER759  ASP760  ASP761  ALA762  ILE779  LEU786  VAL792 
 PHE793  MET794  SER795  GLU796  ALA797  LYS798  CYS799  TRP800  GLU811  SER814 

> <Gold.Protein.RotatedAtoms>
  151.1333  133.5022  159.2598 H   0  0  0  0  0  0  0  0  0  0  0  0  # atno 6907 bound_to 6896
  151.1734  135.0328  159.8771 H   0  0  0  0  0  0  0  0  0  0  0  0  # atno 6908 bound_to 6896
  152.5460  134.1193  159.8445 H   0  0  0  0  0  0  0  0  0  0  0  0  # atno 6909 bound_to 6896
  144.8598  139.6019  143.5936 H   0  0  0  0  0  0  0  0  0  0  0  0  # atno 7974 bound_to 7965
  154.9037  140.0412  157.1907 H   0  0  0  0  0  0  0  0  0  0  0  0  # atno 8008 bound_to 7997
  154.8418  140.2915  155.5633 H   0  0  0  0  0  0  0  0  0  0  0  0  # atno 8009 bound_to 7997
  156.2992  140.2481  156.3361 H   0  0  0  0  0  0  0  0  0  0  0  0  # atno 8010 bound_to 7997
  139.4839  144.5430  151.7531 H   0  0  0  0  0  0  0  0  0  0  0  0  # atno 10167 bound_to 10162
  157.6949  131.0506  150.4160 H   0  0  0  0  0  0  0  0  0  0  0  0  # atno 10718 bound_to 10713
  153.9720  135.6727  153.4747 H   0  0  0  0  0  0  0  0  0  0  0  0  # atno 10763 bound_to 10752
  153.0788  135.4934  154.8457 H   0  0  0  0  0  0  0  0  0  0  0  0  # atno 10764 bound_to 10752
  154.7213  135.3118  154.9003 H   0  0  0  0  0  0  0  0  0  0  0  0  # atno 10765 bound_to 10752
  139.8885  134.8522  156.3076 H   0  0  0  0  0  0  0  0  0  0  0  0  # atno 11005 bound_to 11000
  146.2851  139.6983  142.9201 LP  0  0  0  0  0  0  0  0  0  0  0  0  # atno 17320 bound_to 7965
  145.4335  141.0417  143.2897 LP  0  0  0  0  0  0  0  0  0  0  0  0  # atno 17321 bound_to 7965
  140.4973  144.1222  150.5963 LP  0  0  0  0  0  0  0  0  0  0  0  0  # atno 17342 bound_to 10162
  140.4103  143.2660  151.9841 LP  0  0  0  0  0  0  0  0  0  0  0  0  # atno 17343 bound_to 10162
  156.4539  130.4017  149.6618 LP  0  0  0  0  0  0  0  0  0  0  0  0  # atno 17370 bound_to 10713
  156.3757  130.7553  151.2541 LP  0  0  0  0  0  0  0  0  0  0  0  0  # atno 17371 bound_to 10713
  140.9872  133.7231  156.0759 LP  0  0  0  0  0  0  0  0  0  0  0  0  # atno 17394 bound_to 11000
  140.7673  134.3872  157.5514 LP  0  0  0  0  0  0  0  0  0  0  0  0  # atno 17395 bound_to 11000

$$$$
