AV-unprocessed.smi:72|AV-procd|sdf|694|dock1
  -GOLD-   2262017 03D 1   1.00000     0.00000
 Structure written by MMmdl.
 29 30  0  0  0  0  0  0  0  0  1 V2000
  145.3523  138.2893  153.1570 N   0  0  0  0  0  0  0  0  0  0  0  0
  145.1267  137.1027  152.7190 C   0  0  0  0  0  0  0  0  0  0  0  0
  144.1215  136.7518  151.8052 N   0  0  0  0  0  0  0  0  0  0  0  0
  144.0031  135.5064  151.4605 C   0  0  0  0  0  0  0  0  0  0  0  0
  144.8690  134.4679  151.9973 N   0  0  0  0  0  0  0  0  0  0  0  0
  144.7199  133.0250  151.5729 C   0  0  1  0  0  0  0  0  0  0  0  0
  143.7485  132.9416  150.5712 O   0  0  0  0  0  0  0  0  0  0  0  0
  144.2123  132.1060  149.5156 C   0  0  1  0  0  0  0  0  0  0  0  0
  143.5139  132.4908  148.2024 C   0  0  0  0  0  0  0  0  0  0  0  0
  143.5299  133.8924  148.0368 O   0  0  0  0  0  0  0  0  0  0  0  0
  145.7158  132.3858  149.5146 C   0  0  2  0  0  0  0  0  0  0  0  0
  146.4674  131.3927  148.8427 O   0  0  0  0  0  0  0  0  0  0  0  0
  146.0425  132.4903  151.0010 C   0  0  2  0  0  0  0  0  0  0  0  0
  146.3712  131.2396  151.5776 O   0  0  0  0  0  0  0  0  0  0  0  0
  145.9098  134.8106  152.8940 C   0  0  0  0  0  0  0  0  0  0  0  0
  146.7000  133.9789  153.3397 O   0  0  0  0  0  0  0  0  0  0  0  0
  145.9855  136.1180  153.2244 N   0  0  0  0  0  0  0  0  0  0  0  0
  144.3640  132.4783  152.4479 H   0  0  0  0  0  0  0  0  0  0  0  0
  144.0313  131.0604  149.7734 H   0  0  0  0  0  0  0  0  0  0  0  0
  145.9060  133.3505  149.0416 H   0  0  0  0  0  0  0  0  0  0  0  0
  146.8645  133.1834  151.1862 H   0  0  0  0  0  0  0  0  0  0  0  0
  144.6959  138.9396  152.7491 H   0  0  0  0  0  0  0  0  0  0  0  0
  143.2536  135.1618  150.7469 H   0  0  0  0  0  0  0  0  0  0  0  0
  143.9797  132.0009  147.3467 H   0  0  0  0  0  0  0  0  0  0  0  0
  142.4700  132.1771  148.2265 H   0  0  0  0  0  0  0  0  0  0  0  0
  144.4000  134.1552  147.7783 H   0  0  0  0  0  0  0  0  0  0  0  0
  147.0476  130.9829  149.4659 H   0  0  0  0  0  0  0  0  0  0  0  0
  147.0446  130.8345  151.0525 H   0  0  0  0  0  0  0  0  0  0  0  0
  146.7109  136.3975  153.8683 H   0  0  0  0  0  0  0  0  0  0  0  0
  1  2  2  0  0  0  0
  1 22  1  0  0  0  0
  2 17  1  0  0  0  0
  2  3  1  0  0  0  0
  3  4  2  0  0  0  0
  4  5  1  0  0  0  0
  4 23  1  0  0  0  0
  5  6  1  0  0  0  0
  5 15  1  0  0  0  0
  6 18  1  0  0  0  0
  6 13  1  0  0  0  0
  6  7  1  0  0  0  0
  7  8  1  0  0  0  0
  8 19  1  0  0  0  0
  8  9  1  0  0  0  0
  8 11  1  0  0  0  0
  9 10  1  0  0  0  0
  9 24  1  0  0  0  0
  9 25  1  0  0  0  0
 10 26  1  0  0  0  0
 11 20  1  0  0  0  0
 11 12  1  0  0  0  0
 11 13  1  0  0  0  0
 12 27  1  0  0  0  0
 13 21  1  0  0  0  0
 13 14  1  0  0  0  0
 14 28  1  0  0  0  0
 15 16  2  0  0  0  0
 15 17  1  0  0  0  0
 17 29  1  0  0  0  0
M  END
> <s_m_source_file>
AV-unprocessed.smi

> <i_m_source_file_index>
72

> <i_lp_mmshare_version>
43012

> <i_f3d_flags>
0

> <s_epik_input>
W05IMl1jMW5bY0hdbihjKD1PKW4xKVtDQEBIXTJPW0NASF0oW0NIMl1bT0hdKVtDQEBIXShbT0hdKVtDQEhdMltPSF0=

> <s_epik_cmdline>
J2VwaWtfcHl0aG9uJywgJy1waCcsICc3LjAnLCAnLXRuJywgJzgnLCAnLW1hJywgJzIwMCcsICctbWV0YWxfYmluZGluZycsICctaW1hZScsICc8aW5maWxlLm1hZT4nLCAnLW9tYWUnLCAnPG91dGZpbGUubWFlPic=

> <r_lp_tautomer_probability>
7.17554e-07

> <r_epik_Ionization_Penalty>
0.0066451

> <r_epik_Ionization_Penalty_Charging>
0.00663793

> <r_epik_Ionization_Penalty_Neutral>
7.17052e-06

> <r_epik_State_Penalty>
0.419231

> <r_epik_Charging_Adjusted_Penalty>
0.425868

> <i_epik_Tot_Q>
0

> <i_epik_Tot_abs_Q>
0

> <r_epik_Metal_State_Penalty>
1.44144

> <b_epik_Metal_Only>
0

> <s_epik_Chemistry_Notes>
This compound contains an acetal/aminal-like group ( X-CH(R)-Y where X, Y are N, S, or O) that may be acid/base labile, releasing an aldehyde.

> <s_lp_Force_Field>
OPLS_2005

> <r_lp_Energy>
41.633

> <b_lp_Chiralities_Consistent>
1

> <s_lp_Variant>
AV-unprocessed.smi:72-32

> <Gold.Version>
5.8.1

> <Gold.Id.Protein>
6NUR|6NUR_protein|mol2

> <Gold.PLP.Fitness>
42.7488

> <Gold.PLP.PLP>
-26.6905

> <Gold.PLP.part.hbond>
-6.9169

> <Gold.PLP.part.metal>
0.0000

> <Gold.PLP.part.buried>
-2.6834

> <Gold.PLP.part.nonpolar>
-18.4002

> <Gold.PLP.part.repulsive>
1.7697

> <Gold.PLP.ligand.clash>
0.0000

> <Gold.PLP.ligand.torsion>
0.1199

> <Gold.PLP.Chemscore.Hbond>
4.7875

> <Gold.PLP.Chemscore.CHOScore>
0.6392

> <Gold.PLP.Chemscore.Metal>
0.0000

> <Gold.Chemscore.Hbonds>
donor molecule, donor type, donor heavy atom, donor atom, acceptor molecule, acceptor atom, score
      L1  H     1    22       P1 10175  1.00
      L1  H    10    26       P1  7921  1.00
      L1  H    12    27       P1 10747  0.86
      L1  H    14    28       P1 10747  0.88
      P1  H 10192 10197       L1    10  0.67
      L1  C     4    23       P1 10186  0.51

> <Gold.PLP.Chemscore.Internal.Correction>
0.0180

> <Gold.Rescore>
     Score         DG    S(hbond)    S(metal)    S(lipo)     H(rot)  DE(clash)    DE(int)     intcor
     11.96     -15.42       4.57        0.00      43.29       4.06       2.13       1.33       ----

> <Gold.Chemscore.Fitness>
11.9594

> <Gold.Chemscore.DG>
-15.4221

> <Gold.Chemscore.ZeroCoef>
-5.4800

> <Gold.Chemscore.Hbond>
4.5720

> <Gold.Chemscore.Metal>
0.0000

> <Gold.Chemscore.Lipo>
43.2918

> <Gold.Chemscore.Internal_Hbond>
0.0000

> <Gold.Chemscore.DEClash>
2.1303

> <Gold.Chemscore.DEInternal>
1.3324

> <Gold.Chemscore.Rot>
4.0600

> <Gold.Chemscore.Internal.Correction>
   9.000000E+99

> <Gold.Chemscore.Hbonds>
donor molecule, donor type, donor heavy atom, donor atom, acceptor molecule, acceptor atom, score
      L1  H     1    22       P1 10175  1.00
      L1  H    10    26       P1  7921  1.00
      L1  H    12    27       P1 10747  0.79
      L1  H    14    28       P1 10747  0.82
      P1  H 10192 10197       L1    10  0.55

> <Gold.Chemscore.Hbond.Weighted>
-15.2706

> <Gold.Chemscore.Metal.Weighted>
-0.0000

> <Gold.Chemscore.Lipo.Weighted>
-5.0651

> <Gold.Chemscore.Internal_Hbond.Weighted>
0.0000

> <Gold.Chemscore.DEClash.Weighted>
2.1303

> <Gold.Chemscore.DEInternal.Weighted>
1.3324

> <Gold.Chemscore.Rot.Weighted>
10.3936

> <Gold.Chemscore.Internal.Correction.Weighted>
   9.000000E+99

> <Gold.Protein.RotatedTorsions>
[ 6907 6896 6895 6894 ] final    1.99 input  -60.11 | X-H torsion
[ 7974 7965 7964 7962 ] final  -87.78 input  175.53 | X-H torsion
[ 8008 7997 7996 7995 ] final   95.81 input   59.86 | X-H torsion
[ 10167 10162 10161 10158 ] final -161.96 input  -65.29 | X-H torsion
[ 10718 10713 10712 10709 ] final -171.35 input   66.30 | X-H torsion
[ 10763 10752 10751 10750 ] final -113.87 input  -60.55 | X-H torsion
[ 11005 11000 10999 10996 ] final -112.97 input  -57.11 | X-H torsion

> <Gold.Protein.ActiveResidues>
 VAL166  LYS551  ARG553  GLY616  TRP617  ASP618  TYR619  PRO620  LYS621  CYS622 
 ASP623  PHE694  ASN695  SER759  ASP760  ASP761  ALA762  ILE779  LEU786  VAL792 
 PHE793  MET794  SER795  GLU796  ALA797  LYS798  CYS799  TRP800  GLU811  SER814 

> <Gold.Protein.RotatedAtoms>
  151.6016  135.1047  160.0061 H   0  0  0  0  0  0  0  0  0  0  0  0  # atno 6907 bound_to 6896
  152.4254  133.7183  159.6529 H   0  0  0  0  0  0  0  0  0  0  0  0  # atno 6908 bound_to 6896
  150.8143  133.8293  159.3190 H   0  0  0  0  0  0  0  0  0  0  0  0  # atno 6909 bound_to 6896
  145.4619  140.9561  143.1965 H   0  0  0  0  0  0  0  0  0  0  0  0  # atno 7974 bound_to 7965
  156.0729  140.3281  155.7598 H   0  0  0  0  0  0  0  0  0  0  0  0  # atno 8008 bound_to 7997
  155.5276  140.0590  157.2912 H   0  0  0  0  0  0  0  0  0  0  0  0  # atno 8009 bound_to 7997
  154.4540  140.1933  156.0452 H   0  0  0  0  0  0  0  0  0  0  0  0  # atno 8010 bound_to 7997
  139.6427  144.0230  152.2104 H   0  0  0  0  0  0  0  0  0  0  0  0  # atno 10167 bound_to 10162
  156.7395  130.9337  151.3109 H   0  0  0  0  0  0  0  0  0  0  0  0  # atno 10718 bound_to 10713
  154.8415  135.4438  154.1417 H   0  0  0  0  0  0  0  0  0  0  0  0  # atno 10763 bound_to 10752
  153.2601  135.6935  153.7594 H   0  0  0  0  0  0  0  0  0  0  0  0  # atno 10764 bound_to 10752
  153.6874  135.3393  155.3169 H   0  0  0  0  0  0  0  0  0  0  0  0  # atno 10765 bound_to 10752
  141.0643  133.9485  157.2609 H   0  0  0  0  0  0  0  0  0  0  0  0  # atno 11005 bound_to 11000
  144.7997  139.6164  143.7077 LP  0  0  0  0  0  0  0  0  0  0  0  0  # atno 17320 bound_to 7965
  146.2446  139.6071  142.9468 LP  0  0  0  0  0  0  0  0  0  0  0  0  # atno 17321 bound_to 7965
  139.9924  144.6352  150.7802 LP  0  0  0  0  0  0  0  0  0  0  0  0  # atno 17342 bound_to 10162
  140.7499  143.2946  151.3239 LP  0  0  0  0  0  0  0  0  0  0  0  0  # atno 17343 bound_to 10162
  157.6824  130.9153  150.0301 LP  0  0  0  0  0  0  0  0  0  0  0  0  # atno 17370 bound_to 10713
  156.1474  130.3642  149.9490 LP  0  0  0  0  0  0  0  0  0  0  0  0  # atno 17371 bound_to 10713
  139.9461  135.0184  156.8857 LP  0  0  0  0  0  0  0  0  0  0  0  0  # atno 17394 bound_to 11000
  140.5806  134.0356  155.7462 LP  0  0  0  0  0  0  0  0  0  0  0  0  # atno 17395 bound_to 11000

$$$$
