AV-unprocessed.smi:829|AV-procd|sdf|3868|dock5
  -GOLD-   22720 1323D 1   1.00000     0.00000
 Structure written by MMmdl.
 50 52  0  0  0  0  0  0  0  0  3 V2000
  147.3766  137.7441  156.8239 O   0  0  0  0  0  0  0  0  0  0  0  0
  147.0981  138.4154  155.8307 C   0  0  0  0  0  0  0  0  0  0  0  0
  146.2317  138.0561  154.8676 N   0  0  0  0  0  0  0  0  0  0  0  0
  145.4675  136.8615  154.7670 C   0  0  0  0  0  0  0  0  0  0  0  0
  145.6614  135.8757  155.7602 C   0  0  0  0  0  0  0  0  0  0  0  0
  144.9342  134.6696  155.6948 C   0  0  0  0  0  0  0  0  0  0  0  0
  144.0678  134.4611  154.6805 N   0  3  0  0  0  0  0  0  0  0  0  0
  143.8602  135.3662  153.7002 C   0  0  0  0  0  0  0  0  0  0  0  0
  144.5584  136.5910  153.7125 C   0  0  0  0  0  0  0  0  0  0  0  0
  147.6517  139.6085  155.5687 N   0  0  0  0  0  0  0  0  0  0  0  0
  148.6632  140.2625  156.3941 C   0  0  2  0  0  0  0  0  0  0  0  0
  148.0885  141.5098  157.0903 C   0  0  0  0  0  0  0  0  0  0  0  0
  149.1764  142.2563  157.8815 C   0  0  0  0  0  0  0  0  0  0  0  0
  150.3225  142.6204  157.0089 N   0  3  1  0  0  0  0  0  0  0  0  0
  151.3323  143.4643  157.6991 C   0  0  0  0  0  0  0  0  0  0  0  0
  151.6713  142.9238  159.1013 C   0  0  0  0  0  0  0  0  0  0  0  0
  152.0621  143.9860  160.1335 C   0  0  0  0  0  0  0  0  0  0  0  0
  152.8094  143.2197  161.2293 C   0  0  0  0  0  0  0  0  0  0  0  0
  153.3552  141.9468  160.5657 C   0  0  0  0  0  0  0  0  0  0  0  0
  152.8822  141.9865  159.1083 C   0  0  0  0  0  0  0  0  0  0  0  0
  150.9146  141.4221  156.3583 C   0  0  0  0  0  0  0  0  0  0  0  0
  149.8649  140.6678  155.5264 C   0  0  0  0  0  0  0  0  0  0  0  0
  146.1674  138.6787  154.0754 H   0  0  0  0  0  0  0  0  0  0  0  0
  146.3560  136.0413  156.5713 H   0  0  0  0  0  0  0  0  0  0  0  0
  145.0207  133.8709  156.4170 H   0  0  0  0  0  0  0  0  0  0  0  0
  143.1506  135.0836  152.9362 H   0  0  0  0  0  0  0  0  0  0  0  0
  144.3910  137.2909  152.9083 H   0  0  0  0  0  0  0  0  0  0  0  0
  147.3672  140.0921  154.7291 H   0  0  0  0  0  0  0  0  0  0  0  0
  149.0130  139.5602  157.1537 H   0  0  0  0  0  0  0  0  0  0  0  0
  147.6544  142.1821  156.3485 H   0  0  0  0  0  0  0  0  0  0  0  0
  147.2775  141.2275  157.7630 H   0  0  0  0  0  0  0  0  0  0  0  0
  148.7438  143.1588  158.3153 H   0  0  0  0  0  0  0  0  0  0  0  0
  149.5291  141.6410  158.7110 H   0  0  0  0  0  0  0  0  0  0  0  0
  152.2560  143.4764  157.1185 H   0  0  0  0  0  0  0  0  0  0  0  0
  151.0037  144.5038  157.7462 H   0  0  0  0  0  0  0  0  0  0  0  0
  150.8150  142.3660  159.4851 H   0  0  0  0  0  0  0  0  0  0  0  0
  152.7351  144.7155  159.6807 H   0  0  0  0  0  0  0  0  0  0  0  0
  151.2009  144.5270  160.5267 H   0  0  0  0  0  0  0  0  0  0  0  0
  153.6021  143.8244  161.6708 H   0  0  0  0  0  0  0  0  0  0  0  0
  152.1219  142.9487  162.0314 H   0  0  0  0  0  0  0  0  0  0  0  0
  154.4424  141.8899  160.6273 H   0  0  0  0  0  0  0  0  0  0  0  0
  152.9541  141.0667  161.0698 H   0  0  0  0  0  0  0  0  0  0  0  0
  152.6451  140.9947  158.7221 H   0  0  0  0  0  0  0  0  0  0  0  0
  153.6752  142.4007  158.4836 H   0  0  0  0  0  0  0  0  0  0  0  0
  151.7412  141.7145  155.7118 H   0  0  0  0  0  0  0  0  0  0  0  0
  151.3314  140.7617  157.1206 H   0  0  0  0  0  0  0  0  0  0  0  0
  150.3183  139.7829  155.0777 H   0  0  0  0  0  0  0  0  0  0  0  0
  149.5346  141.2999  154.7006 H   0  0  0  0  0  0  0  0  0  0  0  0
  149.9375  143.1937  156.2718 H   0  0  0  0  0  0  0  0  0  0  0  0
  143.5521  133.5811  154.6506 H   0  0  0  0  0  0  0  0  0  0  0  0
  1  2  2  0  0  0  0
  2  3  1  0  0  0  0
  2 10  1  0  0  0  0
  3  4  1  0  0  0  0
  3 23  1  0  0  0  0
  4  9  1  0  0  0  0
  4  5  2  0  0  0  0
  5  6  1  0  0  0  0
  5 24  1  0  0  0  0
  6  7  2  0  0  0  0
  6 25  1  0  0  0  0
  7  8  1  0  0  0  0
  7 50  1  0  0  0  0
  8  9  2  0  0  0  0
  8 26  1  0  0  0  0
  9 27  1  0  0  0  0
 10 11  1  0  0  0  0
 10 28  1  0  0  0  0
 11 22  1  0  0  0  0
 11 12  1  0  0  0  0
 11 29  1  0  0  0  0
 12 13  1  0  0  0  0
 12 30  1  0  0  0  0
 12 31  1  0  0  0  0
 13 14  1  0  0  0  0
 13 32  1  0  0  0  0
 13 33  1  0  0  0  0
 14 15  1  0  0  0  0
 14 21  1  0  0  0  0
 14 49  1  0  0  0  0
 15 16  1  0  0  0  0
 15 34  1  0  0  0  0
 15 35  1  0  0  0  0
 16 20  1  0  0  0  0
 16 17  1  0  0  0  0
 16 36  1  0  0  0  0
 17 18  1  0  0  0  0
 17 37  1  0  0  0  0
 17 38  1  0  0  0  0
 18 19  1  0  0  0  0
 18 39  1  0  0  0  0
 18 40  1  0  0  0  0
 19 20  1  0  0  0  0
 19 41  1  0  0  0  0
 19 42  1  0  0  0  0
 20 43  1  0  0  0  0
 20 44  1  0  0  0  0
 21 22  1  0  0  0  0
 21 45  1  0  0  0  0
 21 46  1  0  0  0  0
 22 47  1  0  0  0  0
 22 48  1  0  0  0  0
M  CHG  1   7   1
M  CHG  1  14   1
M  END
> <s_m_source_file>
AV-unprocessed.smi

> <i_m_source_file_index>
829

> <i_lp_mmshare_version>
43012

> <i_f3d_flags>
0

> <s_epik_input>
W2NIXTFbY0hdbltjSF1bY0hdYzFbTkhdQyg9TylbTkhdW0NIXTJbQ0gyXVtDSDJdTihbQ0gyXVtDSDJdMilbQ0gyXVtDSF0zW0NIMl1bQ0gyXVtDSDJdW0NIMl0z

> <s_epik_cmdline>
J2VwaWtfcHl0aG9uJywgJy1waCcsICc3LjAnLCAnLXRuJywgJzgnLCAnLW1hJywgJzIwMCcsICctbWV0YWxfYmluZGluZycsICctaW1hZScsICc8aW5maWxlLm1hZT4nLCAnLW9tYWUnLCAnPG91dGZpbGUubWFlPic=

> <r_epik_Ionization_Penalty>
1.10644

> <r_epik_Ionization_Penalty_Charging>
1.10642

> <r_epik_Ionization_Penalty_Neutral>
1.84455e-05

> <r_epik_State_Penalty>
1.14949

> <r_epik_Charging_Adjusted_Penalty>
2.25592

> <i_epik_Tot_Q>
2

> <i_epik_Tot_abs_Q>
2

> <r_epik_Metal_State_Penalty>
1.23448

> <b_epik_Metal_Only>
0

> <s_lp_Force_Field>
OPLS_2005

> <r_lp_Energy>
49.76

> <b_lp_Chiralities_Consistent>
1

> <s_lp_Variant>
AV-unprocessed.smi:829-3

> <Gold.Version>
5.8.1

> <Gold.Id.Protein>
6NUR|6NUR_protein|mol2

> <Gold.PLP.Fitness>
42.2042

> <Gold.PLP.PLP>
-31.4577

> <Gold.PLP.part.hbond>
-1.9628

> <Gold.PLP.part.metal>
0.0000

> <Gold.PLP.part.buried>
-5.3636

> <Gold.PLP.part.nonpolar>
-24.9274

> <Gold.PLP.part.repulsive>
0.0183

> <Gold.PLP.ligand.clash>
0.0000

> <Gold.PLP.ligand.torsion>
0.6446

> <Gold.PLP.Chemscore.Hbond>
4.0000

> <Gold.PLP.Chemscore.CHOScore>
0.0000

> <Gold.PLP.Chemscore.Metal>
0.0000

> <Gold.Chemscore.Hbonds>
donor molecule, donor type, donor heavy atom, donor atom, acceptor molecule, acceptor atom, score
      L1  H     7    50       P1 10957  2.00
      L1  H    14    49       P1  8028  2.00

> <Gold.PLP.Chemscore.Internal.Correction>
0.0358

> <Gold.Rescore>
     Score         DG    S(hbond)    S(metal)    S(lipo)     H(rot)  DE(clash)    DE(int)     intcor
     17.53     -19.64       1.97        0.00      94.78       1.37       0.01       2.09       ----

> <Gold.Chemscore.Fitness>
17.5347

> <Gold.Chemscore.DG>
-19.6379

> <Gold.Chemscore.ZeroCoef>
-5.4800

> <Gold.Chemscore.Hbond>
1.9692

> <Gold.Chemscore.Metal>
0.0000

> <Gold.Chemscore.Lipo>
94.7828

> <Gold.Chemscore.Internal_Hbond>
0.0000

> <Gold.Chemscore.DEClash>
0.0125

> <Gold.Chemscore.DEInternal>
2.0906

> <Gold.Chemscore.Rot>
1.3707

> <Gold.Chemscore.Internal.Correction>
   9.000000E+99

> <Gold.Chemscore.Hbonds>
donor molecule, donor type, donor heavy atom, donor atom, acceptor molecule, acceptor atom, score
      L1  H     7    50       P1 10957  0.93
      L1  H    14    49       P1  8028  0.94

> <Gold.Chemscore.Hbond.Weighted>
-6.5772

> <Gold.Chemscore.Metal.Weighted>
-0.0000

> <Gold.Chemscore.Lipo.Weighted>
-11.0896

> <Gold.Chemscore.Internal_Hbond.Weighted>
0.0000

> <Gold.Chemscore.DEClash.Weighted>
0.0125

> <Gold.Chemscore.DEInternal.Weighted>
2.0906

> <Gold.Chemscore.Rot.Weighted>
3.5089

> <Gold.Chemscore.Internal.Correction.Weighted>
   9.000000E+99

> <Gold.Protein.RotatedTorsions>
[ 6907 6896 6895 6894 ] final  -27.13 input  -60.11 | X-H torsion
[ 7974 7965 7964 7962 ] final   70.11 input  175.53 | X-H torsion
[ 8008 7997 7996 7995 ] final  132.89 input   59.86 | X-H torsion
[ 10167 10162 10161 10158 ] final -148.92 input  -65.29 | X-H torsion
[ 10718 10713 10712 10709 ] final  160.04 input   66.30 | X-H torsion
[ 10763 10752 10751 10750 ] final -146.85 input  -60.55 | X-H torsion
[ 11005 11000 10999 10996 ] final  -32.24 input  -57.11 | X-H torsion

> <Gold.Protein.ActiveResidues>
 VAL166  LYS551  ARG553  GLY616  TRP617  ASP618  TYR619  PRO620  LYS621  CYS622 
 ASP623  PHE694  ASN695  SER759  ASP760  ASP761  ALA762  ILE779  LEU786  VAL792 
 PHE793  MET794  SER795  GLU796  ALA797  LYS798  CYS799  TRP800  GLU811  SER814 

> <Gold.Protein.RotatedAtoms>
  151.1512  135.0228  159.8668 H   0  0  0  0  0  0  0  0  0  0  0  0  # atno 6907 bound_to 6896
  152.5452  134.1386  159.8479 H   0  0  0  0  0  0  0  0  0  0  0  0  # atno 6908 bound_to 6896
  151.1472  133.4886  159.2628 H   0  0  0  0  0  0  0  0  0  0  0  0  # atno 6909 bound_to 6896
  145.7822  139.2893  143.1259 H   0  0  0  0  0  0  0  0  0  0  0  0  # atno 7974 bound_to 7965
  156.2987  140.2535  156.3164 H   0  0  0  0  0  0  0  0  0  0  0  0  # atno 8008 bound_to 7997
  154.9277  140.0399  157.2050 H   0  0  0  0  0  0  0  0  0  0  0  0  # atno 8009 bound_to 7997
  154.8248  140.2866  155.5766 H   0  0  0  0  0  0  0  0  0  0  0  0  # atno 8010 bound_to 7997
  139.7488  143.8550  152.2581 H   0  0  0  0  0  0  0  0  0  0  0  0  # atno 10167 bound_to 10162
  157.1559  131.0575  151.2257 H   0  0  0  0  0  0  0  0  0  0  0  0  # atno 10718 bound_to 10713
  154.8315  135.3375  154.6726 H   0  0  0  0  0  0  0  0  0  0  0  0  # atno 10763 bound_to 10752
  153.7345  135.6950  153.4986 H   0  0  0  0  0  0  0  0  0  0  0  0  # atno 10764 bound_to 10752
  153.2288  135.4423  155.0524 H   0  0  0  0  0  0  0  0  0  0  0  0  # atno 10765 bound_to 10752
  140.9536  133.7206  156.1258 H   0  0  0  0  0  0  0  0  0  0  0  0  # atno 11005 bound_to 11000
  146.0062  140.8476  142.9994 LP  0  0  0  0  0  0  0  0  0  0  0  0  # atno 17320 bound_to 7965
  144.6794  140.2424  143.7342 LP  0  0  0  0  0  0  0  0  0  0  0  0  # atno 17321 bound_to 7965
  139.8522  144.7159  150.9201 LP  0  0  0  0  0  0  0  0  0  0  0  0  # atno 17342 bound_to 10162
  140.7795  143.3890  151.1344 LP  0  0  0  0  0  0  0  0  0  0  0  0  # atno 17343 bound_to 10162
  157.4178  130.7420  149.6889 LP  0  0  0  0  0  0  0  0  0  0  0  0  # atno 17370 bound_to 10713
  155.9762  130.4078  150.3794 LP  0  0  0  0  0  0  0  0  0  0  0  0  # atno 17371 bound_to 10713
  140.7568  134.3984  157.5532 LP  0  0  0  0  0  0  0  0  0  0  0  0  # atno 17394 bound_to 11000
  139.8855  134.8935  156.2639 LP  0  0  0  0  0  0  0  0  0  0  0  0  # atno 17395 bound_to 11000

$$$$
