AV-unprocessed.smi:1648|AV-procd|sdf|6629|dock2
  -GOLD-   22720 7323D 1   1.00000     0.00000
 Structure written by MMmdl.
 42 42  0  0  0  0  0  0  0  0  2 V2000
  146.0410  134.0194  150.8501 C   0  0  0  0  0  0  0  0  0  0  0  0
  146.2993  133.8668  152.3502 C   0  0  0  0  0  0  0  0  0  0  0  0
  145.6212  133.0762  153.0022 O   0  0  0  0  0  0  0  0  0  0  0  0
  147.2619  134.6038  152.9312 N   0  0  0  0  0  0  0  0  0  0  0  0
  147.6573  134.6010  154.3424 C   0  0  2  0  0  0  0  0  0  0  0  0
  147.6232  136.0503  154.8639 C   0  0  0  0  0  0  0  0  0  0  0  0
  147.1017  136.3145  155.9486 O   0  0  0  0  0  0  0  0  0  0  0  0
  148.1658  136.9823  154.0646 N   0  0  0  0  0  0  0  0  0  0  0  0
  148.2203  138.4118  154.3541 C   0  0  1  0  0  0  0  0  0  0  0  0
  149.6547  138.7924  154.7542 C   0  0  0  0  0  0  0  0  0  0  0  0
  147.6920  139.2157  153.1458 C   0  0  0  0  0  0  0  0  0  0  0  0
  147.4120  140.6178  153.4672 N   0  0  0  0  0  0  0  0  0  0  0  0
  146.2145  141.2773  153.3574 C   0  0  0  0  0  0  0  0  0  0  0  0
  146.4374  142.5635  153.7776 C   0  0  0  0  0  0  0  0  0  0  0  0
  147.7587  142.6330  154.1300 N   0  3  0  0  0  0  0  0  0  0  0  0
  148.3491  141.4482  153.9423 C   0  0  0  0  0  0  0  0  0  0  0  0
  149.1038  134.0339  154.4550 C   0  0  0  0  0  0  0  0  0  0  0  0
  149.1771  132.5592  154.0116 C   0  0  0  0  0  0  0  0  0  0  0  0
  149.6971  134.1623  155.8742 C   0  0  0  0  0  0  0  0  0  0  0  0
  145.7119  135.0322  150.6167 H   0  0  0  0  0  0  0  0  0  0  0  0
  145.2606  133.3311  150.5239 H   0  0  0  0  0  0  0  0  0  0  0  0
  146.9406  133.8000  150.2749 H   0  0  0  0  0  0  0  0  0  0  0  0
  147.7600  135.2506  152.3367 H   0  0  0  0  0  0  0  0  0  0  0  0
  146.9825  133.9735  154.9270 H   0  0  0  0  0  0  0  0  0  0  0  0
  148.5706  136.6777  153.1908 H   0  0  0  0  0  0  0  0  0  0  0  0
  147.5798  138.6140  155.2148 H   0  0  0  0  0  0  0  0  0  0  0  0
  149.7219  139.8372  155.0574 H   0  0  0  0  0  0  0  0  0  0  0  0
  150.3513  138.6385  153.9295 H   0  0  0  0  0  0  0  0  0  0  0  0
  149.9980  138.1904  155.5962 H   0  0  0  0  0  0  0  0  0  0  0  0
  148.4144  139.1974  152.3283 H   0  0  0  0  0  0  0  0  0  0  0  0
  146.7698  138.7775  152.7607 H   0  0  0  0  0  0  0  0  0  0  0  0
  145.3167  140.7962  152.9967 H   0  0  0  0  0  0  0  0  0  0  0  0
  145.7718  143.4112  153.8523 H   0  0  0  0  0  0  0  0  0  0  0  0
  149.3799  141.2092  154.1356 H   0  0  0  0  0  0  0  0  0  0  0  0
  149.7511  134.5999  153.7825 H   0  0  0  0  0  0  0  0  0  0  0  0
  148.5293  131.9307  154.6234 H   0  0  0  0  0  0  0  0  0  0  0  0
  150.1928  132.1728  154.1005 H   0  0  0  0  0  0  0  0  0  0  0  0
  148.8801  132.4287  152.9708 H   0  0  0  0  0  0  0  0  0  0  0  0
  149.0696  133.6595  156.6108 H   0  0  0  0  0  0  0  0  0  0  0  0
  149.8082  135.2015  156.1835 H   0  0  0  0  0  0  0  0  0  0  0  0
  150.6896  133.7137  155.9254 H   0  0  0  0  0  0  0  0  0  0  0  0
  148.2233  143.4599  154.4843 H   0  0  0  0  0  0  0  0  0  0  0  0
  1  2  1  0  0  0  0
  1 20  1  0  0  0  0
  1 21  1  0  0  0  0
  1 22  1  0  0  0  0
  2  3  2  0  0  0  0
  2  4  1  0  0  0  0
  4  5  1  0  0  0  0
  4 23  1  0  0  0  0
  5  6  1  0  0  0  0
  5 17  1  0  0  0  0
  5 24  1  0  0  0  0
  6  7  2  0  0  0  0
  6  8  1  0  0  0  0
  8  9  1  0  0  0  0
  8 25  1  0  0  0  0
  9 10  1  0  0  0  0
  9 11  1  0  0  0  0
  9 26  1  0  0  0  0
 10 27  1  0  0  0  0
 10 28  1  0  0  0  0
 10 29  1  0  0  0  0
 11 12  1  0  0  0  0
 11 30  1  0  0  0  0
 11 31  1  0  0  0  0
 12 16  1  0  0  0  0
 12 13  1  0  0  0  0
 13 14  2  0  0  0  0
 13 32  1  0  0  0  0
 14 15  1  0  0  0  0
 14 33  1  0  0  0  0
 15 16  2  0  0  0  0
 15 42  1  0  0  0  0
 16 34  1  0  0  0  0
 17 18  1  0  0  0  0
 17 19  1  0  0  0  0
 17 35  1  0  0  0  0
 18 36  1  0  0  0  0
 18 37  1  0  0  0  0
 18 38  1  0  0  0  0
 19 39  1  0  0  0  0
 19 40  1  0  0  0  0
 19 41  1  0  0  0  0
M  CHG  1  15   1
M  END
> <s_m_source_file>
AV-unprocessed.smi

> <i_m_source_file_index>
1648

> <i_lp_mmshare_version>
43012

> <i_f3d_flags>
0

> <s_epik_input>
W0NIM11DKD1PKVtOSF1bQ0BASF0oW0NIXShbQ0gzXSlbQ0gzXSlDKD1PKVtOSF1bQ0BIXShbQ0gzXSlbQ0gyXW4xW2NIXVtjSF1uW2NIXTE=

> <s_epik_cmdline>
J2VwaWtfcHl0aG9uJywgJy1waCcsICc3LjAnLCAnLXRuJywgJzgnLCAnLW1hJywgJzIwMCcsICctbWV0YWxfYmluZGluZycsICctaW1hZScsICc8aW5maWxlLm1hZT4nLCAnLW9tYWUnLCAnPG91dGZpbGUubWFlPic=

> <r_lp_tautomer_probability>
1

> <r_epik_Ionization_Penalty>
0.251562

> <r_epik_Ionization_Penalty_Charging>
0

> <r_epik_Ionization_Penalty_Neutral>
0.251562

> <r_epik_State_Penalty>
0.242926

> <r_epik_Charging_Adjusted_Penalty>
0.242926

> <i_epik_Tot_Q>
1

> <i_epik_Tot_abs_Q>
1

> <r_epik_Metal_State_Penalty>
0.53388

> <b_epik_Metal_Only>
0

> <s_lp_Force_Field>
OPLS_2005

> <r_lp_Energy>
11.8238

> <b_lp_Chiralities_Consistent>
1

> <s_lp_Variant>
AV-unprocessed.smi:1648-3

> <Gold.Version>
5.8.1

> <Gold.Id.Protein>
6NUR|6NUR_protein|mol2

> <Gold.PLP.Fitness>
44.2261

> <Gold.PLP.PLP>
-30.3156

> <Gold.PLP.part.hbond>
-2.9022

> <Gold.PLP.part.metal>
0.0000

> <Gold.PLP.part.buried>
-2.3912

> <Gold.PLP.part.nonpolar>
-25.7383

> <Gold.PLP.part.repulsive>
0.3754

> <Gold.PLP.ligand.clash>
0.0000

> <Gold.PLP.ligand.torsion>
0.6442

> <Gold.PLP.Chemscore.Hbond>
4.0000

> <Gold.PLP.Chemscore.CHOScore>
1.0000

> <Gold.PLP.Chemscore.Metal>
0.0000

> <Gold.Chemscore.Hbonds>
donor molecule, donor type, donor heavy atom, donor atom, acceptor molecule, acceptor atom, score
      L1  H     4    23       P1  7948  1.00
      L1  H     8    25       P1  7948  0.80
      L1  H    15    42       P1  8028  2.00
      L1  C    13    32       P1 10175  0.26

> <Gold.PLP.Chemscore.Internal.Correction>
0.1989

> <Gold.Rescore>
     Score         DG    S(hbond)    S(metal)    S(lipo)     H(rot)  DE(clash)    DE(int)     intcor
     12.74     -14.93       2.97        0.00      53.27       2.61       1.11       1.08       ----

> <Gold.Chemscore.Fitness>
12.7356

> <Gold.Chemscore.DG>
-14.9265

> <Gold.Chemscore.ZeroCoef>
-5.4800

> <Gold.Chemscore.Hbond>
2.9656

> <Gold.Chemscore.Metal>
0.0000

> <Gold.Chemscore.Lipo>
53.2669

> <Gold.Chemscore.Internal_Hbond>
0.0000

> <Gold.Chemscore.DEClash>
1.1116

> <Gold.Chemscore.DEInternal>
1.0794

> <Gold.Chemscore.Rot>
2.6135

> <Gold.Chemscore.Internal.Correction>
   9.000000E+99

> <Gold.Chemscore.Hbonds>
donor molecule, donor type, donor heavy atom, donor atom, acceptor molecule, acceptor atom, score
      L1  H     4    23       P1  7948  0.96
      L1  H     8    25       P1  7948  0.79
      L1  H    15    42       P1  8028  0.96

> <Gold.Chemscore.Hbond.Weighted>
-9.9049

> <Gold.Chemscore.Metal.Weighted>
-0.0000

> <Gold.Chemscore.Lipo.Weighted>
-6.2322

> <Gold.Chemscore.Internal_Hbond.Weighted>
0.0000

> <Gold.Chemscore.DEClash.Weighted>
1.1116

> <Gold.Chemscore.DEInternal.Weighted>
1.0794

> <Gold.Chemscore.Rot.Weighted>
6.6906

> <Gold.Chemscore.Internal.Correction.Weighted>
   9.000000E+99

> <Gold.Protein.RotatedTorsions>
[ 6907 6896 6895 6894 ] final  151.53 input  -60.11 | X-H torsion
[ 7974 7965 7964 7962 ] final   85.95 input  175.53 | X-H torsion
[ 8008 7997 7996 7995 ] final   67.19 input   59.86 | X-H torsion
[ 10167 10162 10161 10158 ] final  122.61 input  -65.29 | X-H torsion
[ 10718 10713 10712 10709 ] final  -98.90 input   66.30 | X-H torsion
[ 10763 10752 10751 10750 ] final  176.08 input  -60.55 | X-H torsion
[ 11005 11000 10999 10996 ] final -146.35 input  -57.11 | X-H torsion

> <Gold.Protein.ActiveResidues>
 VAL166  LYS551  ARG553  GLY616  TRP617  ASP618  TYR619  PRO620  LYS621  CYS622 
 ASP623  PHE694  ASN695  SER759  ASP760  ASP761  ALA762  ILE779  LEU786  VAL792 
 PHE793  MET794  SER795  GLU796  ALA797  LYS798  CYS799  TRP800  GLU811  SER814 

> <Gold.Protein.RotatedAtoms>
  152.0994  133.4241  159.4579 H   0  0  0  0  0  0  0  0  0  0  0  0  # atno 6907 bound_to 6896
  150.6864  134.2779  159.4624 H   0  0  0  0  0  0  0  0  0  0  0  0  # atno 6908 bound_to 6896
  152.0637  134.9577  160.0625 H   0  0  0  0  0  0  0  0  0  0  0  0  # atno 6909 bound_to 6896
  145.5788  139.2322  143.2365 H   0  0  0  0  0  0  0  0  0  0  0  0  # atno 7974 bound_to 7965
  155.6891  140.3496  155.4886 H   0  0  0  0  0  0  0  0  0  0  0  0  # atno 8008 bound_to 7997
  155.9540  140.1124  157.0975 H   0  0  0  0  0  0  0  0  0  0  0  0  # atno 8009 bound_to 7997
  154.4128  140.1188  156.5076 H   0  0  0  0  0  0  0  0  0  0  0  0  # atno 8010 bound_to 7997
  139.5848  144.7002  151.3436 H   0  0  0  0  0  0  0  0  0  0  0  0  # atno 10167 bound_to 10162
  156.0119  130.5258  150.6591 H   0  0  0  0  0  0  0  0  0  0  0  0  # atno 10718 bound_to 10713
  154.4764  135.2773  155.1604 H   0  0  0  0  0  0  0  0  0  0  0  0  # atno 10763 bound_to 10752
  154.3332  135.6185  153.5565 H   0  0  0  0  0  0  0  0  0  0  0  0  # atno 10764 bound_to 10752
  152.9870  135.5770  154.5155 H   0  0  0  0  0  0  0  0  0  0  0  0  # atno 10765 bound_to 10752
  140.7829  134.3058  157.5039 H   0  0  0  0  0  0  0  0  0  0  0  0  # atno 11005 bound_to 11000
  146.1731  140.6614  142.9224 LP  0  0  0  0  0  0  0  0  0  0  0  0  # atno 17320 bound_to 7965
  144.7404  140.4925  143.6873 LP  0  0  0  0  0  0  0  0  0  0  0  0  # atno 17321 bound_to 7965
  140.7122  143.7362  150.7587 LP  0  0  0  0  0  0  0  0  0  0  0  0  # atno 17342 bound_to 10162
  140.0903  143.4884  152.2482 LP  0  0  0  0  0  0  0  0  0  0  0  0  # atno 17343 bound_to 10162
  157.4337  131.0852  151.1013 LP  0  0  0  0  0  0  0  0  0  0  0  0  # atno 17370 bound_to 10713
  157.1578  130.6212  149.5601 LP  0  0  0  0  0  0  0  0  0  0  0  0  # atno 17371 bound_to 10713
  139.8740  134.9329  156.3567 LP  0  0  0  0  0  0  0  0  0  0  0  0  # atno 17394 bound_to 11000
  140.9465  133.7480  156.0215 LP  0  0  0  0  0  0  0  0  0  0  0  0  # atno 17395 bound_to 11000

$$$$
