AV-unprocessed.smi:2533|AV-procd|sdf|9973|dock6
  -GOLD-   2272014 23D 1   1.00000     0.00000
 Structure written by MMmdl.
 35 36  0  0  0  0  0  0  0  0  1 V2000
  150.4849  135.3382  154.6205 C   0  0  0  0  0  0  0  0  0  0  0  0
  151.2939  136.5041  154.5729 O   0  0  0  0  0  0  0  0  0  0  0  0
  151.5967  137.1338  155.7615 C   0  0  0  0  0  0  0  0  0  0  0  0
  151.2243  136.6425  157.0381 C   0  0  0  0  0  0  0  0  0  0  0  0
  151.5803  137.3452  158.2053 C   0  0  0  0  0  0  0  0  0  0  0  0
  152.3106  138.5487  158.1191 C   0  0  0  0  0  0  0  0  0  0  0  0
  152.7407  139.2875  159.3803 C   0  0  1  0  0  0  0  0  0  0  0  0
  153.5974  138.5087  160.1900 O   0  0  0  0  0  0  0  0  0  0  0  0
  153.4420  140.6325  159.0760 C   0  0  0  0  0  0  0  0  0  0  0  0
  153.1400  141.6687  160.0735 N   0  0  0  0  0  0  0  0  0  0  0  0
  152.3572  142.7070  159.5970 N   0  0  0  0  0  0  0  0  0  0  0  0
  151.9530  143.6574  160.3760 C   0  0  0  0  0  0  0  0  0  0  0  0
  151.0775  144.7254  159.7695 C   0  0  0  0  0  0  0  0  0  0  0  0
  151.5743  145.9412  159.9994 F   0  0  0  0  0  0  0  0  0  0  0  0
  150.9844  144.5480  158.4513 F   0  0  0  0  0  0  0  0  0  0  0  0
  149.8521  144.6626  160.2922 F   0  0  0  0  0  0  0  0  0  0  0  0
  152.3543  143.6430  161.7728 C   0  0  0  0  0  0  0  0  0  0  0  0
  153.1308  142.6380  162.2313 C   0  0  0  0  0  0  0  0  0  0  0  0
  153.5762  141.5527  161.3610 C   0  0  0  0  0  0  0  0  0  0  0  0
  154.2680  140.6132  161.7523 O   0  0  0  0  0  0  0  0  0  0  0  0
  152.6784  139.0427  156.8512 C   0  0  0  0  0  0  0  0  0  0  0  0
  152.3248  138.3396  155.6841 C   0  0  0  0  0  0  0  0  0  0  0  0
  152.6951  138.8270  154.4758 F   0  0  0  0  0  0  0  0  0  0  0  0
  150.3414  134.9591  153.6086 H   0  0  0  0  0  0  0  0  0  0  0  0
  149.4993  135.5536  155.0349 H   0  0  0  0  0  0  0  0  0  0  0  0
  150.9586  134.5480  155.2045 H   0  0  0  0  0  0  0  0  0  0  0  0
  150.6690  135.7240  157.1503 H   0  0  0  0  0  0  0  0  0  0  0  0
  151.3003  136.9490  159.1705 H   0  0  0  0  0  0  0  0  0  0  0  0
  151.8496  139.4849  159.9775 H   0  0  0  0  0  0  0  0  0  0  0  0
  153.1054  138.2003  160.9359 H   0  0  0  0  0  0  0  0  0  0  0  0
  154.5209  140.4866  158.9977 H   0  0  0  0  0  0  0  0  0  0  0  0
  153.1289  140.9859  158.0912 H   0  0  0  0  0  0  0  0  0  0  0  0
  152.0338  144.4329  162.4358 H   0  0  0  0  0  0  0  0  0  0  0  0
  153.4276  142.6320  163.2699 H   0  0  0  0  0  0  0  0  0  0  0  0
  153.2478  139.9570  156.7690 H   0  0  0  0  0  0  0  0  0  0  0  0
  1  2  1  0  0  0  0
  1 24  1  0  0  0  0
  1 25  1  0  0  0  0
  1 26  1  0  0  0  0
  2  3  1  0  0  0  0
  3 22  1  0  0  0  0
  3  4  2  0  0  0  0
  4  5  1  0  0  0  0
  4 27  1  0  0  0  0
  5  6  2  0  0  0  0
  5 28  1  0  0  0  0
  6  7  1  0  0  0  0
  6 21  1  0  0  0  0
  7  8  1  0  0  0  0
  7  9  1  0  0  0  0
  7 29  1  0  0  0  0
  8 30  1  0  0  0  0
  9 10  1  0  0  0  0
  9 31  1  0  0  0  0
  9 32  1  0  0  0  0
 10 19  1  0  0  0  0
 10 11  1  0  0  0  0
 11 12  2  0  0  0  0
 12 13  1  0  0  0  0
 12 17  1  0  0  0  0
 13 14  1  0  0  0  0
 13 15  1  0  0  0  0
 13 16  1  0  0  0  0
 17 18  2  0  0  0  0
 17 33  1  0  0  0  0
 18 19  1  0  0  0  0
 18 34  1  0  0  0  0
 19 20  2  0  0  0  0
 21 22  2  0  0  0  0
 21 35  1  0  0  0  0
 22 23  1  0  0  0  0
M  END
> <s_m_source_file>
AV-unprocessed.smi

> <i_m_source_file_index>
2533

> <i_lp_mmshare_version>
43012

> <i_f3d_flags>
0

> <s_epik_input>
W0NIM11PYzFbY0hdW2NIXWMoW2NIXWMxRilbQ0BIXShbT0hdKVtDSDJdbjJuYyhDKEYpKEYpRilbY0hdW2NIXWMyPU8=

> <s_epik_cmdline>
J2VwaWtfcHl0aG9uJywgJy1waCcsICc3LjAnLCAnLXRuJywgJzgnLCAnLW1hJywgJzIwMCcsICctbWV0YWxfYmluZGluZycsICctaW1hZScsICc8aW5maWxlLm1hZT4nLCAnLW9tYWUnLCAnPG91dGZpbGUubWFlPic=

> <r_lp_tautomer_probability>
1

> <r_epik_Ionization_Penalty>
5.00966e-08

> <r_epik_Ionization_Penalty_Charging>
3.92872e-09

> <r_epik_Ionization_Penalty_Neutral>
4.61679e-08

> <r_epik_State_Penalty>
-0

> <r_epik_Charging_Adjusted_Penalty>
3.92872e-09

> <i_epik_Tot_Q>
0

> <i_epik_Tot_abs_Q>
0

> <r_epik_Metal_State_Penalty>
-0

> <b_epik_Metal_Only>
0

> <s_lp_Force_Field>
OPLS_2005

> <r_lp_Energy>
30.5098

> <b_lp_Chiralities_Consistent>
1

> <s_lp_Variant>
AV-unprocessed.smi:2533-2

> <Gold.Version>
5.8.1

> <Gold.Id.Protein>
6NUR|6NUR_protein|mol2

> <Gold.PLP.Fitness>
53.2998

> <Gold.PLP.PLP>
-51.5643

> <Gold.PLP.part.hbond>
-1.0000

> <Gold.PLP.part.metal>
0.0000

> <Gold.PLP.part.buried>
-6.3197

> <Gold.PLP.part.nonpolar>
-43.7004

> <Gold.PLP.part.repulsive>
0.1632

> <Gold.PLP.ligand.clash>
0.0000

> <Gold.PLP.ligand.torsion>
0.6562

> <Gold.PLP.Chemscore.Hbond>
1.0000

> <Gold.PLP.Chemscore.CHOScore>
0.0000

> <Gold.PLP.Chemscore.Metal>
0.0000

> <Gold.Chemscore.Hbonds>
donor molecule, donor type, donor heavy atom, donor atom, acceptor molecule, acceptor atom, score
      P1  H 10752 10764       L1     2  0.72

> <Gold.PLP.Chemscore.Internal.Correction>
0.0478

> <Gold.Rescore>
     Score         DG    S(hbond)    S(metal)    S(lipo)     H(rot)  DE(clash)    DE(int)     intcor
     10.05     -12.50       0.77        0.00      92.84       2.50       0.03       2.41       ----

> <Gold.Chemscore.Fitness>
10.0515

> <Gold.Chemscore.DG>
-12.4958

> <Gold.Chemscore.ZeroCoef>
-5.4800

> <Gold.Chemscore.Hbond>
0.7667

> <Gold.Chemscore.Metal>
0.0000

> <Gold.Chemscore.Lipo>
92.8448

> <Gold.Chemscore.Internal_Hbond>
0.0000

> <Gold.Chemscore.DEClash>
0.0341

> <Gold.Chemscore.DEInternal>
2.4102

> <Gold.Chemscore.Rot>
2.5031

> <Gold.Chemscore.Internal.Correction>
   9.000000E+99

> <Gold.Chemscore.Hbonds>
donor molecule, donor type, donor heavy atom, donor atom, acceptor molecule, acceptor atom, score
      P1  H 10752 10764       L1     2  0.02

> <Gold.Chemscore.Hbond.Weighted>
-2.5609

> <Gold.Chemscore.Metal.Weighted>
-0.0000

> <Gold.Chemscore.Lipo.Weighted>
-10.8628

> <Gold.Chemscore.Internal_Hbond.Weighted>
0.0000

> <Gold.Chemscore.DEClash.Weighted>
0.0341

> <Gold.Chemscore.DEInternal.Weighted>
2.4102

> <Gold.Chemscore.Rot.Weighted>
6.4079

> <Gold.Chemscore.Internal.Correction.Weighted>
   9.000000E+99

> <Gold.Protein.RotatedTorsions>
[ 6907 6896 6895 6894 ] final  -25.65 input  -60.11 | X-H torsion
[ 7974 7965 7964 7962 ] final   27.96 input  175.53 | X-H torsion
[ 8008 7997 7996 7995 ] final   39.39 input   59.86 | X-H torsion
[ 10167 10162 10161 10158 ] final  175.40 input  -65.29 | X-H torsion
[ 10718 10713 10712 10709 ] final  -78.72 input   66.30 | X-H torsion
[ 10763 10752 10751 10750 ] final  -72.58 input  -60.55 | X-H torsion
[ 11005 11000 10999 10996 ] final -177.52 input  -57.11 | X-H torsion

> <Gold.Protein.ActiveResidues>
 VAL166  LYS551  ARG553  GLY616  TRP617  ASP618  TYR619  PRO620  LYS621  CYS622 
 ASP623  PHE694  ASN695  SER759  ASP760  ASP761  ALA762  ILE779  LEU786  VAL792 
 PHE793  MET794  SER795  GLU796  ALA797  LYS798  CYS799  TRP800  GLU811  SER814 

> <Gold.Protein.RotatedAtoms>
  151.1722  135.0323  159.8756 H   0  0  0  0  0  0  0  0  0  0  0  0  # atno 6907 bound_to 6896
  152.5448  134.1158  159.8388 H   0  0  0  0  0  0  0  0  0  0  0  0  # atno 6908 bound_to 6896
  151.1265  133.5020  159.2633 H   0  0  0  0  0  0  0  0  0  0  0  0  # atno 6909 bound_to 6896
  146.1755  139.7120  142.8937 H   0  0  0  0  0  0  0  0  0  0  0  0  # atno 7974 bound_to 7965
  155.2359  140.3342  155.4298 H   0  0  0  0  0  0  0  0  0  0  0  0  # atno 8008 bound_to 7997
  156.2276  140.1836  156.7370 H   0  0  0  0  0  0  0  0  0  0  0  0  # atno 8009 bound_to 7997
  154.5924  140.0636  156.9242 H   0  0  0  0  0  0  0  0  0  0  0  0  # atno 8010 bound_to 7997
  139.5176  144.3035  152.0357 H   0  0  0  0  0  0  0  0  0  0  0  0  # atno 10167 bound_to 10162
  156.0110  130.4526  150.3539 H   0  0  0  0  0  0  0  0  0  0  0  0  # atno 10718 bound_to 10713
  154.4476  135.5925  153.6170 H   0  0  0  0  0  0  0  0  0  0  0  0  # atno 10763 bound_to 10752
  152.9810  135.6013  154.3644 H   0  0  0  0  0  0  0  0  0  0  0  0  # atno 10764 bound_to 10752
  154.3502  135.2841  155.2355 H   0  0  0  0  0  0  0  0  0  0  0  0  # atno 10765 bound_to 10752
  140.4400  134.6440  157.4753 H   0  0  0  0  0  0  0  0  0  0  0  0  # atno 11005 bound_to 11000
  145.4223  141.0407  143.2957 LP  0  0  0  0  0  0  0  0  0  0  0  0  # atno 17320 bound_to 7965
  144.8230  139.5759  143.6978 LP  0  0  0  0  0  0  0  0  0  0  0  0  # atno 17321 bound_to 7965
  140.2482  144.4197  150.6232 LP  0  0  0  0  0  0  0  0  0  0  0  0  # atno 17342 bound_to 10162
  140.6243  143.2179  151.6629 LP  0  0  0  0  0  0  0  0  0  0  0  0  # atno 17343 bound_to 10162
  157.1630  131.0350  151.2832 LP  0  0  0  0  0  0  0  0  0  0  0  0  # atno 17370 bound_to 10713
  157.4295  130.7482  149.6978 LP  0  0  0  0  0  0  0  0  0  0  0  0  # atno 17371 bound_to 10713
  140.0076  134.6740  155.9430 LP  0  0  0  0  0  0  0  0  0  0  0  0  # atno 17394 bound_to 11000
  141.1709  133.6537  156.4650 LP  0  0  0  0  0  0  0  0  0  0  0  0  # atno 17395 bound_to 11000

$$$$
