AV-unprocessed.smi:1406|AV-procd|sdf|5720|dock6
  -GOLD-   22720 5353D 1   1.00000     0.00000
 Structure written by MMmdl.
 41 43  0  0  0  0  0  0  0  0  2 V2000
  147.7856  137.0695  155.5491 C   0  0  0  0  0  0  0  0  0  0  0  0
  149.2881  136.7634  155.7140 C   0  0  1  0  0  0  0  0  0  0  0  0
  149.7276  135.5005  154.9555 C   0  0  0  0  0  0  0  0  0  0  0  0
  150.9199  135.2104  154.8508 O   0  0  0  0  0  0  0  0  0  0  0  0
  148.7453  134.7545  154.4251 N   0  0  0  0  0  0  0  0  0  0  0  0
  148.9380  133.5084  153.6899 C   0  0  1  0  0  0  0  0  0  0  0  0
  149.4916  132.3743  154.5703 C   0  0  0  0  0  0  0  0  0  0  0  0
  148.7874  131.0941  154.0783 C   0  0  0  0  0  0  0  0  0  0  0  0
  147.9705  131.5158  152.9246 N   0  3  1  0  0  0  0  0  0  0  0  0
  146.7965  130.6813  152.5887 C   0  0  0  0  0  0  0  0  0  0  0  0
  146.1315  131.2316  151.3111 C   0  0  0  0  0  0  0  0  0  0  0  0
  145.8041  132.7333  151.4382 C   0  0  0  0  0  0  0  0  0  0  0  0
  147.0412  133.5376  151.8821 C   0  0  0  0  0  0  0  0  0  0  0  0
  147.6225  132.9241  153.1676 C   0  0  2  0  0  0  0  0  0  0  0  0
  150.1218  137.8975  155.3351 N   0  0  0  0  0  0  0  0  0  0  0  0
  150.2090  138.5488  154.1731 C   0  0  0  0  0  0  0  0  0  0  0  0
  151.0486  139.5743  154.1917 N   0  0  0  0  0  0  0  0  0  0  0  0
  151.4709  139.4998  155.4888 C   0  0  0  0  0  0  0  0  0  0  0  0
  150.9396  138.5202  156.2203 N   0  0  0  0  0  0  0  0  0  0  0  0
  147.1739  136.2326  155.8877 H   0  0  0  0  0  0  0  0  0  0  0  0
  147.5202  137.2741  154.5109 H   0  0  0  0  0  0  0  0  0  0  0  0
  147.5003  137.9410  156.1392 H   0  0  0  0  0  0  0  0  0  0  0  0
  149.4636  136.5774  156.7750 H   0  0  0  0  0  0  0  0  0  0  0  0
  147.7934  135.0644  154.5579 H   0  0  0  0  0  0  0  0  0  0  0  0
  149.6260  133.6587  152.8550 H   0  0  0  0  0  0  0  0  0  0  0  0
  150.5761  132.3019  154.4805 H   0  0  0  0  0  0  0  0  0  0  0  0
  149.2613  132.5382  155.6241 H   0  0  0  0  0  0  0  0  0  0  0  0
  149.4934  130.3160  153.7872 H   0  0  0  0  0  0  0  0  0  0  0  0
  148.1470  130.6934  154.8657 H   0  0  0  0  0  0  0  0  0  0  0  0
  147.1125  129.6490  152.4338 H   0  0  0  0  0  0  0  0  0  0  0  0
  146.0891  130.6819  153.4194 H   0  0  0  0  0  0  0  0  0  0  0  0
  146.8014  131.0814  150.4633 H   0  0  0  0  0  0  0  0  0  0  0  0
  145.2244  130.6687  151.0891 H   0  0  0  0  0  0  0  0  0  0  0  0
  145.4268  133.1176  150.4899 H   0  0  0  0  0  0  0  0  0  0  0  0
  145.0035  132.8687  152.1668 H   0  0  0  0  0  0  0  0  0  0  0  0
  147.7917  133.5343  151.0902 H   0  0  0  0  0  0  0  0  0  0  0  0
  146.7645  134.5790  152.0480 H   0  0  0  0  0  0  0  0  0  0  0  0
  146.8722  132.9652  153.9611 H   0  0  0  0  0  0  0  0  0  0  0  0
  149.6432  138.2698  153.2961 H   0  0  0  0  0  0  0  0  0  0  0  0
  152.1858  140.1921  155.9082 H   0  0  0  0  0  0  0  0  0  0  0  0
  148.5836  131.5091  152.1218 H   0  0  0  0  0  0  0  0  0  0  0  0
  1  2  1  0  0  0  0
  1 20  1  0  0  0  0
  1 21  1  0  0  0  0
  1 22  1  0  0  0  0
  2  3  1  0  0  0  0
  2 15  1  0  0  0  0
  2 23  1  0  0  0  0
  3  4  2  0  0  0  0
  3  5  1  0  0  0  0
  5  6  1  0  0  0  0
  5 24  1  0  0  0  0
  6 14  1  0  0  0  0
  6  7  1  0  0  0  0
  6 25  1  0  0  0  0
  7  8  1  0  0  0  0
  7 26  1  0  0  0  0
  7 27  1  0  0  0  0
  8  9  1  0  0  0  0
  8 28  1  0  0  0  0
  8 29  1  0  0  0  0
  9 14  1  0  0  0  0
  9 10  1  0  0  0  0
  9 41  1  0  0  0  0
 10 11  1  0  0  0  0
 10 30  1  0  0  0  0
 10 31  1  0  0  0  0
 11 12  1  0  0  0  0
 11 32  1  0  0  0  0
 11 33  1  0  0  0  0
 12 13  1  0  0  0  0
 12 34  1  0  0  0  0
 12 35  1  0  0  0  0
 13 14  1  0  0  0  0
 13 36  1  0  0  0  0
 13 37  1  0  0  0  0
 14 38  1  0  0  0  0
 15 19  1  0  0  0  0
 15 16  1  0  0  0  0
 16 17  2  0  0  0  0
 16 39  1  0  0  0  0
 17 18  1  0  0  0  0
 18 19  2  0  0  0  0
 18 40  1  0  0  0  0
M  CHG  1   9   1
M  END
> <s_m_source_file>
AV-unprocessed.smi

> <i_m_source_file_index>
1406

> <i_lp_mmshare_version>
43012

> <i_f3d_flags>
0

> <s_epik_input>
bjFbY0hdbltjSF1uMVtDQEhdKFtDSDNdKUMoPU8pW05IXVtDQEhdKFtDSDJdW0NIMl0yKVtDQEBIXShOMjMpW0NIMl1bQ0gyXVtDSDJdW0NIMl0z

> <s_epik_cmdline>
J2VwaWtfcHl0aG9uJywgJy1waCcsICc3LjAnLCAnLXRuJywgJzgnLCAnLW1hJywgJzIwMCcsICctbWV0YWxfYmluZGluZycsICctaW1hZScsICc8aW5maWxlLm1hZT4nLCAnLW9tYWUnLCAnPG91dGZpbGUubWFlPic=

> <r_lp_tautomer_probability>
1

> <r_epik_Ionization_Penalty>
0.00197066

> <r_epik_Ionization_Penalty_Charging>
0.00196223

> <r_epik_Ionization_Penalty_Neutral>
8.43107e-06

> <r_epik_State_Penalty>
0.00133866

> <r_epik_Charging_Adjusted_Penalty>
0.00330089

> <i_epik_Tot_Q>
1

> <i_epik_Tot_abs_Q>
1

> <r_epik_Metal_State_Penalty>
-0

> <b_epik_Metal_Only>
0

> <s_lp_Force_Field>
OPLS_2005

> <r_lp_Energy>
39.8871

> <b_lp_Chiralities_Consistent>
1

> <s_lp_Variant>
AV-unprocessed.smi:1406-12

> <Gold.Version>
5.8.1

> <Gold.Id.Protein>
6NUR|6NUR_protein|mol2

> <Gold.PLP.Fitness>
40.6630

> <Gold.PLP.PLP>
-28.4414

> <Gold.PLP.part.hbond>
-3.9715

> <Gold.PLP.part.metal>
0.0000

> <Gold.PLP.part.buried>
3.2971

> <Gold.PLP.part.nonpolar>
-25.6002

> <Gold.PLP.part.repulsive>
0.3258

> <Gold.PLP.ligand.clash>
0.1255

> <Gold.PLP.ligand.torsion>
0.3256

> <Gold.PLP.Chemscore.Hbond>
2.8656

> <Gold.PLP.Chemscore.CHOScore>
1.4321

> <Gold.PLP.Chemscore.Metal>
0.0000

> <Gold.Chemscore.Hbonds>
donor molecule, donor type, donor heavy atom, donor atom, acceptor molecule, acceptor atom, score
      L1  H     9    41       P1 10747  0.99
      P1  H  7989  7998       L1    17  1.00
      P1  H 10752 10764       L1     4  0.89
      L1  C    16    39       P1  7948  0.96
      L1  C    16    39       P1  7957  0.33

> <Gold.PLP.Chemscore.Internal.Correction>
0.1052

> <Gold.Rescore>
     Score         DG    S(hbond)    S(metal)    S(lipo)     H(rot)  DE(clash)    DE(int)     intcor
     15.23     -15.71       2.64        0.00      53.43       1.89       0.11       0.36       ----

> <Gold.Chemscore.Fitness>
15.2345

> <Gold.Chemscore.DG>
-15.7055

> <Gold.Chemscore.ZeroCoef>
-5.4800

> <Gold.Chemscore.Hbond>
2.6359

> <Gold.Chemscore.Metal>
0.0000

> <Gold.Chemscore.Lipo>
53.4301

> <Gold.Chemscore.Internal_Hbond>
0.0000

> <Gold.Chemscore.DEClash>
0.1091

> <Gold.Chemscore.DEInternal>
0.3619

> <Gold.Chemscore.Rot>
1.8865

> <Gold.Chemscore.Internal.Correction>
   9.000000E+99

> <Gold.Chemscore.Hbonds>
donor molecule, donor type, donor heavy atom, donor atom, acceptor molecule, acceptor atom, score
      L1  H     9    41       P1 10747  0.90
      P1  H  7989  7998       L1    17  0.76
      P1  H 10752 10764       L1     4  0.82

> <Gold.Chemscore.Hbond.Weighted>
-8.8038

> <Gold.Chemscore.Metal.Weighted>
-0.0000

> <Gold.Chemscore.Lipo.Weighted>
-6.2513

> <Gold.Chemscore.Internal_Hbond.Weighted>
0.0000

> <Gold.Chemscore.DEClash.Weighted>
0.1091

> <Gold.Chemscore.DEInternal.Weighted>
0.3619

> <Gold.Chemscore.Rot.Weighted>
4.8295

> <Gold.Chemscore.Internal.Correction.Weighted>
   9.000000E+99

> <Gold.Protein.RotatedTorsions>
[ 6907 6896 6895 6894 ] final    2.94 input  -60.11 | X-H torsion
[ 7974 7965 7964 7962 ] final  -23.79 input  175.53 | X-H torsion
[ 8008 7997 7996 7995 ] final   28.39 input   59.86 | X-H torsion
[ 10167 10162 10161 10158 ] final  -70.51 input  -65.29 | X-H torsion
[ 10718 10713 10712 10709 ] final  -69.68 input   66.30 | X-H torsion
[ 10763 10752 10751 10750 ] final  -55.90 input  -60.55 | X-H torsion
[ 11005 11000 10999 10996 ] final  113.68 input  -57.11 | X-H torsion

> <Gold.Protein.ActiveResidues>
 VAL166  LYS551  ARG553  GLY616  TRP617  ASP618  TYR619  PRO620  LYS621  CYS622 
 ASP623  PHE694  ASN695  SER759  ASP760  ASP761  ALA762  ILE779  LEU786  VAL792 
 PHE793  MET794  SER795  GLU796  ALA797  LYS798  CYS799  TRP800  GLU811  SER814 

> <Gold.Protein.RotatedAtoms>
  151.6170  135.1035  160.0093 H   0  0  0  0  0  0  0  0  0  0  0  0  # atno 6907 bound_to 6896
  152.4178  133.7062  159.6463 H   0  0  0  0  0  0  0  0  0  0  0  0  # atno 6908 bound_to 6896
  150.8066  133.8425  159.3224 H   0  0  0  0  0  0  0  0  0  0  0  0  # atno 6909 bound_to 6896
  146.1595  140.4663  142.8577 H   0  0  0  0  0  0  0  0  0  0  0  0  # atno 7974 bound_to 7965
  155.0580  140.3187  155.4670 H   0  0  0  0  0  0  0  0  0  0  0  0  # atno 8008 bound_to 7997
  156.2819  140.2134  156.5650 H   0  0  0  0  0  0  0  0  0  0  0  0  # atno 8009 bound_to 7997
  154.7156  140.0494  157.0579 H   0  0  0  0  0  0  0  0  0  0  0  0  # atno 8010 bound_to 7997
  140.5347  143.2319  151.7199 H   0  0  0  0  0  0  0  0  0  0  0  0  # atno 10167 bound_to 10162
  156.0443  130.4317  150.2184 H   0  0  0  0  0  0  0  0  0  0  0  0  # atno 10718 bound_to 10713
  154.1981  135.6415  153.5079 H   0  0  0  0  0  0  0  0  0  0  0  0  # atno 10763 bound_to 10752
  153.0018  135.5445  154.6344 H   0  0  0  0  0  0  0  0  0  0  0  0  # atno 10764 bound_to 10752
  154.5750  135.2920  155.0763 H   0  0  0  0  0  0  0  0  0  0  0  0  # atno 10765 bound_to 10752
  139.8959  134.9554  156.6776 H   0  0  0  0  0  0  0  0  0  0  0  0  # atno 11005 bound_to 11000
  144.8007  140.6208  143.6480 LP  0  0  0  0  0  0  0  0  0  0  0  0  # atno 17320 bound_to 7965
  145.4625  139.1511  143.3859 LP  0  0  0  0  0  0  0  0  0  0  0  0  # atno 17321 bound_to 7965
  139.4966  144.4061  152.0130 LP  0  0  0  0  0  0  0  0  0  0  0  0  # atno 17342 bound_to 10162
  140.3166  144.3477  150.6020 LP  0  0  0  0  0  0  0  0  0  0  0  0  # atno 17343 bound_to 10162
  157.0275  130.9998  151.3322 LP  0  0  0  0  0  0  0  0  0  0  0  0  # atno 17370 bound_to 10713
  157.5300  130.8052  149.7906 LP  0  0  0  0  0  0  0  0  0  0  0  0  # atno 17371 bound_to 10713
  140.7324  133.9047  155.8221 LP  0  0  0  0  0  0  0  0  0  0  0  0  # atno 17394 bound_to 11000
  141.0142  134.0978  157.4189 LP  0  0  0  0  0  0  0  0  0  0  0  0  # atno 17395 bound_to 11000

$$$$
