AV-unprocessed.smi:1756|AV-procd|sdf|7071|dock4
  -GOLD-   22720 8293D 1   1.00000     0.00000
 Structure written by MMmdl.
 38 39  0  0  0  0  0  0  0  0  1 V2000
  146.6958  137.8263  154.0023 O   0  0  0  0  0  0  0  0  0  0  0  0
  146.1311  138.3933  153.0674 C   0  0  0  0  0  0  0  0  0  0  0  0
  146.3971  139.6561  152.7045 N   0  0  0  0  0  0  0  0  0  0  0  0
  147.3590  140.5413  153.3550 C   0  0  0  0  0  0  0  0  0  0  0  0
  146.9498  140.8877  154.7984 C   0  0  2  0  0  0  0  0  0  0  0  0
  146.4279  142.3316  154.9624 C   0  0  0  0  0  0  0  0  0  0  0  0
  146.1464  142.6433  156.4367 C   0  0  0  0  0  0  0  0  0  0  0  0
  147.3838  142.3213  157.2800 C   0  0  0  0  0  0  0  0  0  0  0  0
  147.8502  140.8831  157.0087 C   0  0  0  0  0  0  0  0  0  0  0  0
  148.1040  140.7119  155.6177 O   0  0  0  0  0  0  0  0  0  0  0  0
  145.1965  137.8519  152.2643 N   0  0  0  0  0  0  0  0  0  0  0  0
  144.6216  136.5696  152.2982 C   0  0  0  0  0  0  0  0  0  0  0  0
  145.1324  135.4685  151.6868 C   0  0  0  0  0  0  0  0  0  0  0  0
  144.4850  134.1696  151.7691 C   0  0  0  0  0  0  0  0  0  0  0  0
  145.0956  132.9328  151.1282 C   0  0  0  0  0  0  0  0  0  0  0  0
  145.3537  131.9931  152.0387 F   0  0  0  0  0  0  0  0  0  0  0  0
  144.2503  132.4229  150.2335 F   0  0  0  0  0  0  0  0  0  0  0  0
  146.2336  133.2310  150.5009 F   0  0  0  0  0  0  0  0  0  0  0  0
  143.3629  134.1041  152.5092 C   0  0  0  0  0  0  0  0  0  0  0  0
  142.8302  135.2306  153.1394 N   0  0  0  0  0  0  0  0  0  0  0  0
  143.3839  136.4629  153.0890 C   0  0  0  0  0  0  0  0  0  0  0  0
  142.8556  137.4050  153.6789 O   0  0  0  0  0  0  0  0  0  0  0  0
  141.9792  135.1016  153.6676 H   0  0  0  0  0  0  0  0  0  0  0  0
  145.8925  140.0393  151.9185 H   0  0  0  0  0  0  0  0  0  0  0  0
  148.3175  140.0218  153.3681 H   0  0  0  0  0  0  0  0  0  0  0  0
  147.5178  141.4512  152.7737 H   0  0  0  0  0  0  0  0  0  0  0  0
  146.1823  140.1824  155.1227 H   0  0  0  0  0  0  0  0  0  0  0  0
  147.1663  143.0348  154.5752 H   0  0  0  0  0  0  0  0  0  0  0  0
  145.5186  142.4813  154.3807 H   0  0  0  0  0  0  0  0  0  0  0  0
  145.8642  143.6894  156.5579 H   0  0  0  0  0  0  0  0  0  0  0  0
  145.3009  142.0474  156.7827 H   0  0  0  0  0  0  0  0  0  0  0  0
  148.1870  143.0170  157.0345 H   0  0  0  0  0  0  0  0  0  0  0  0
  147.1652  142.4552  158.3397 H   0  0  0  0  0  0  0  0  0  0  0  0
  148.7660  140.6759  157.5623 H   0  0  0  0  0  0  0  0  0  0  0  0
  147.1048  140.1614  157.3457 H   0  0  0  0  0  0  0  0  0  0  0  0
  144.8743  138.4320  151.5031 H   0  0  0  0  0  0  0  0  0  0  0  0
  146.0492  135.5191  151.1235 H   0  0  0  0  0  0  0  0  0  0  0  0
  142.7975  133.1994  152.6780 H   0  0  0  0  0  0  0  0  0  0  0  0
  1  2  2  0  0  0  0
  2  3  1  0  0  0  0
  2 11  1  0  0  0  0
  3  4  1  0  0  0  0
  3 24  1  0  0  0  0
  4  5  1  0  0  0  0
  4 25  1  0  0  0  0
  4 26  1  0  0  0  0
  5 10  1  0  0  0  0
  5  6  1  0  0  0  0
  5 27  1  0  0  0  0
  6  7  1  0  0  0  0
  6 28  1  0  0  0  0
  6 29  1  0  0  0  0
  7  8  1  0  0  0  0
  7 30  1  0  0  0  0
  7 31  1  0  0  0  0
  8  9  1  0  0  0  0
  8 32  1  0  0  0  0
  8 33  1  0  0  0  0
  9 10  1  0  0  0  0
  9 34  1  0  0  0  0
  9 35  1  0  0  0  0
 11 12  1  0  0  0  0
 11 36  1  0  0  0  0
 12 21  1  0  0  0  0
 12 13  2  0  0  0  0
 13 14  1  0  0  0  0
 13 37  1  0  0  0  0
 14 15  1  0  0  0  0
 14 19  2  0  0  0  0
 15 16  1  0  0  0  0
 15 17  1  0  0  0  0
 15 18  1  0  0  0  0
 19 20  1  0  0  0  0
 19 38  1  0  0  0  0
 20 23  1  0  0  0  0
 20 21  1  0  0  0  0
 21 22  2  0  0  0  0
M  END
> <s_m_source_file>
AV-unprocessed.smi

> <i_m_source_file_index>
1756

> <i_lp_mmshare_version>
43012

> <i_f3d_flags>
0

> <s_epik_input>
Tz1jMVtuSF1bY0hdYyhDKEYpKEYpRilbY0hdYzFbTkhdQyg9TylbTkhdW0NIMl1bQ0BASF0yW0NIMl1bQ0gyXVtDSDJdW0NIMl1PMg==

> <s_epik_cmdline>
J2VwaWtfcHl0aG9uJywgJy1waCcsICc3LjAnLCAnLXRuJywgJzgnLCAnLW1hJywgJzIwMCcsICctbWV0YWxfYmluZGluZycsICctaW1hZScsICc8aW5maWxlLm1hZT4nLCAnLW9tYWUnLCAnPG91dGZpbGUubWFlPic=

> <r_lp_tautomer_probability>
1

> <r_epik_Ionization_Penalty>
0.00380944

> <r_epik_Ionization_Penalty_Charging>
0.00379057

> <r_epik_Ionization_Penalty_Neutral>
1.88732e-05

> <r_epik_State_Penalty>
-0

> <r_epik_Charging_Adjusted_Penalty>
0.00379057

> <i_epik_Tot_Q>
0

> <i_epik_Tot_abs_Q>
0

> <r_epik_Metal_State_Penalty>
0.371099

> <b_epik_Metal_Only>
0

> <s_lp_Force_Field>
OPLS_2005

> <r_lp_Energy>
19.4174

> <b_lp_Chiralities_Consistent>
1

> <s_lp_Variant>
AV-unprocessed.smi:1756-1

> <Gold.Version>
5.8.1

> <Gold.Id.Protein>
6NUR|6NUR_protein|mol2

> <Gold.PLP.Fitness>
36.8092

> <Gold.PLP.PLP>
-33.4750

> <Gold.PLP.part.hbond>
-3.0000

> <Gold.PLP.part.metal>
0.0000

> <Gold.PLP.part.buried>
-5.9026

> <Gold.PLP.part.nonpolar>
-26.0669

> <Gold.PLP.part.repulsive>
0.3560

> <Gold.PLP.ligand.clash>
0.0000

> <Gold.PLP.ligand.torsion>
1.4450

> <Gold.PLP.Chemscore.Hbond>
1.0700

> <Gold.PLP.Chemscore.CHOScore>
0.9890

> <Gold.PLP.Chemscore.Metal>
0.0000

> <Gold.Chemscore.Hbonds>
donor molecule, donor type, donor heavy atom, donor atom, acceptor molecule, acceptor atom, score
      L1  H     3    24       P1 10175  0.08
      L1  H    11    36       P1 10171  0.99
      L1  C    19    38       P1 10957  0.99

> <Gold.PLP.Chemscore.Internal.Correction>
0.0474

> <Gold.Rescore>
     Score         DG    S(hbond)    S(metal)    S(lipo)     H(rot)  DE(clash)    DE(int)     intcor
     10.16     -11.44       1.07        0.00      49.66       1.33       0.04       1.24       ----

> <Gold.Chemscore.Fitness>
10.1575

> <Gold.Chemscore.DG>
-11.4410

> <Gold.Chemscore.ZeroCoef>
-5.4800

> <Gold.Chemscore.Hbond>
1.0680

> <Gold.Chemscore.Metal>
0.0000

> <Gold.Chemscore.Lipo>
49.6577

> <Gold.Chemscore.Internal_Hbond>
0.0000

> <Gold.Chemscore.DEClash>
0.0431

> <Gold.Chemscore.DEInternal>
1.2404

> <Gold.Chemscore.Rot>
1.3344

> <Gold.Chemscore.Internal.Correction>
   9.000000E+99

> <Gold.Chemscore.Hbonds>
donor molecule, donor type, donor heavy atom, donor atom, acceptor molecule, acceptor atom, score
      L1  H     3    24       P1 10175  0.04
      L1  H    11    36       P1 10171  0.92

> <Gold.Chemscore.Hbond.Weighted>
-3.5671

> <Gold.Chemscore.Metal.Weighted>
-0.0000

> <Gold.Chemscore.Lipo.Weighted>
-5.8099

> <Gold.Chemscore.Internal_Hbond.Weighted>
0.0000

> <Gold.Chemscore.DEClash.Weighted>
0.0431

> <Gold.Chemscore.DEInternal.Weighted>
1.2404

> <Gold.Chemscore.Rot.Weighted>
3.4160

> <Gold.Chemscore.Internal.Correction.Weighted>
   9.000000E+99

> <Gold.Protein.RotatedTorsions>
[ 6907 6896 6895 6894 ] final  -82.04 input  -60.11 | X-H torsion
[ 7974 7965 7964 7962 ] final   68.87 input  175.53 | X-H torsion
[ 8008 7997 7996 7995 ] final -166.35 input   59.86 | X-H torsion
[ 10167 10162 10161 10158 ] final  134.81 input  -65.29 | X-H torsion
[ 10718 10713 10712 10709 ] final   45.48 input   66.30 | X-H torsion
[ 10763 10752 10751 10750 ] final -170.20 input  -60.55 | X-H torsion
[ 11005 11000 10999 10996 ] final  -71.29 input  -57.11 | X-H torsion

> <Gold.Protein.ActiveResidues>
 VAL166  LYS551  ARG553  GLY616  TRP617  ASP618  TYR619  PRO620  LYS621  CYS622 
 ASP623  PHE694  ASN695  SER759  ASP760  ASP761  ALA762  ILE779  LEU786  VAL792 
 PHE793  MET794  SER795  GLU796  ALA797  LYS798  CYS799  TRP800  GLU811  SER814 

> <Gold.Protein.RotatedAtoms>
  150.6903  134.3726  159.4998 H   0  0  0  0  0  0  0  0  0  0  0  0  # atno 6907 bound_to 6896
  152.1539  134.8963  160.0555 H   0  0  0  0  0  0  0  0  0  0  0  0  # atno 6908 bound_to 6896
  152.0051  133.3805  159.4234 H   0  0  0  0  0  0  0  0  0  0  0  0  # atno 6909 bound_to 6896
  145.7973  139.2964  143.1175 H   0  0  0  0  0  0  0  0  0  0  0  0  # atno 7974 bound_to 7965
  155.8626  140.0980  157.1603 H   0  0  0  0  0  0  0  0  0  0  0  0  # atno 8008 bound_to 7997
  154.3991  140.1362  156.4042 H   0  0  0  0  0  0  0  0  0  0  0  0  # atno 8009 bound_to 7997
  155.7840  140.3457  155.5315 H   0  0  0  0  0  0  0  0  0  0  0  0  # atno 8010 bound_to 7997
  139.5242  144.6549  151.5192 H   0  0  0  0  0  0  0  0  0  0  0  0  # atno 10167 bound_to 10162
  157.4380  130.8064  149.7666 H   0  0  0  0  0  0  0  0  0  0  0  0  # atno 10718 bound_to 10713
  154.6441  135.2902  155.0067 H   0  0  0  0  0  0  0  0  0  0  0  0  # atno 10763 bound_to 10752
  154.1184  135.6552  153.4902 H   0  0  0  0  0  0  0  0  0  0  0  0  # atno 10764 bound_to 10752
  153.0342  135.5281  154.7321 H   0  0  0  0  0  0  0  0  0  0  0  0  # atno 10765 bound_to 10752
  141.1589  133.6813  156.6883 H   0  0  0  0  0  0  0  0  0  0  0  0  # atno 11005 bound_to 11000
  145.9914  140.8599  143.0064 LP  0  0  0  0  0  0  0  0  0  0  0  0  # atno 17320 bound_to 7965
  144.6773  140.2221  143.7365 LP  0  0  0  0  0  0  0  0  0  0  0  0  # atno 17321 bound_to 7965
  140.6370  143.8964  150.6656 LP  0  0  0  0  0  0  0  0  0  0  0  0  # atno 17342 bound_to 10162
  140.2287  143.3753  152.1584 LP  0  0  0  0  0  0  0  0  0  0  0  0  # atno 17343 bound_to 10162
  155.9938  130.3922  150.2886 LP  0  0  0  0  0  0  0  0  0  0  0  0  # atno 17370 bound_to 10713
  157.1048  131.0205  151.3071 LP  0  0  0  0  0  0  0  0  0  0  0  0  # atno 17371 bound_to 10713
  140.3050  134.8133  157.4129 LP  0  0  0  0  0  0  0  0  0  0  0  0  # atno 17394 bound_to 11000
  140.1228  134.5197  155.8169 LP  0  0  0  0  0  0  0  0  0  0  0  0  # atno 17395 bound_to 11000

$$$$
