AV-unprocessed.smi:564|AV-procd|sdf|2947|dock1
  -GOLD-   2262023443D 1   1.00000     0.00000
 Structure written by MMmdl.
 50 51  0  0  0  0  0  0  0  0  2 V2000
  153.2626  137.8098  155.7364 C   0  0  0  0  0  0  0  0  0  0  0  0
  152.3268  138.9261  156.1033 C   0  0  0  0  0  0  0  0  0  0  0  0
  152.6240  139.7040  157.1300 N   0  0  0  0  0  0  0  0  0  0  0  0
  151.6025  140.5794  157.2089 N   0  0  0  0  0  0  0  0  0  0  0  0
  151.6159  141.5815  158.2574 C   0  0  0  0  0  0  0  0  0  0  0  0
  150.6614  140.3616  156.2203 C   0  0  0  0  0  0  0  0  0  0  0  0
  149.4294  141.1983  156.0859 C   0  0  0  0  0  0  0  0  0  0  0  0
  151.0969  139.2934  155.4815 C   0  0  0  0  0  0  0  0  0  0  0  0
  150.4442  138.6434  154.2863 C   0  0  0  0  0  0  0  0  0  0  0  0
  148.9983  138.2926  154.6328 C   0  0  0  0  0  0  0  0  0  0  0  0
  148.7179  137.8568  155.7488 O   0  0  0  0  0  0  0  0  0  0  0  0
  148.0954  138.4478  153.6521 N   0  0  0  0  0  0  0  0  0  0  0  0
  146.6996  138.0253  153.7223 C   0  0  0  0  0  0  0  0  0  0  0  0
  146.5464  136.5616  154.1963 C   0  0  0  0  0  0  0  0  0  0  0  0
  146.5791  135.5744  153.0771 N   0  3  2  0  0  0  0  0  0  0  0  0
  145.3617  135.6897  152.2253 C   0  0  0  0  0  0  0  0  0  0  0  0
  145.4440  134.7966  150.9816 C   0  0  0  0  0  0  0  0  0  0  0  0
  145.6564  133.3378  151.3844 C   0  0  0  0  0  0  0  0  0  0  0  0
  146.9069  133.2304  152.2602 C   0  0  0  0  0  0  0  0  0  0  0  0
  146.8416  134.1587  153.4940 C   0  0  1  0  0  0  0  0  0  0  0  0
  148.1517  133.9967  154.2928 C   0  0  0  0  0  0  0  0  0  0  0  0
  153.2790  137.6447  154.6591 H   0  0  0  0  0  0  0  0  0  0  0  0
  152.9589  136.8762  156.2106 H   0  0  0  0  0  0  0  0  0  0  0  0
  154.2852  138.0253  156.0491 H   0  0  0  0  0  0  0  0  0  0  0  0
  150.6009  141.7717  158.6067 H   0  0  0  0  0  0  0  0  0  0  0  0
  152.0427  142.5085  157.8751 H   0  0  0  0  0  0  0  0  0  0  0  0
  152.2143  141.2384  159.1026 H   0  0  0  0  0  0  0  0  0  0  0  0
  148.9969  141.1073  155.0898 H   0  0  0  0  0  0  0  0  0  0  0  0
  149.6461  142.2529  156.2547 H   0  0  0  0  0  0  0  0  0  0  0  0
  148.6748  140.8888  156.8089 H   0  0  0  0  0  0  0  0  0  0  0  0
  150.4538  139.3072  153.4209 H   0  0  0  0  0  0  0  0  0  0  0  0
  150.9703  137.7391  153.9785 H   0  0  0  0  0  0  0  0  0  0  0  0
  148.4138  138.8323  152.7742 H   0  0  0  0  0  0  0  0  0  0  0  0
  146.1403  138.6948  154.3779 H   0  0  0  0  0  0  0  0  0  0  0  0
  146.2654  138.1480  152.7303 H   0  0  0  0  0  0  0  0  0  0  0  0
  147.3632  136.3851  154.8907 H   0  0  0  0  0  0  0  0  0  0  0  0
  145.6328  136.4400  154.7795 H   0  0  0  0  0  0  0  0  0  0  0  0
  144.4805  135.4284  152.8136 H   0  0  0  0  0  0  0  0  0  0  0  0
  145.2255  136.7194  151.8966 H   0  0  0  0  0  0  0  0  0  0  0  0
  144.5323  134.8919  150.3912 H   0  0  0  0  0  0  0  0  0  0  0  0
  146.2633  135.1290  150.3450 H   0  0  0  0  0  0  0  0  0  0  0  0
  144.7862  132.9696  151.9293 H   0  0  0  0  0  0  0  0  0  0  0  0
  145.7618  132.7122  150.4975 H   0  0  0  0  0  0  0  0  0  0  0  0
  147.0344  132.1946  152.5768 H   0  0  0  0  0  0  0  0  0  0  0  0
  147.7852  133.4759  151.6627 H   0  0  0  0  0  0  0  0  0  0  0  0
  146.0130  133.8331  154.1252 H   0  0  0  0  0  0  0  0  0  0  0  0
  148.4117  132.9439  154.4069 H   0  0  0  0  0  0  0  0  0  0  0  0
  148.0785  134.3969  155.3031 H   0  0  0  0  0  0  0  0  0  0  0  0
  148.9860  134.4863  153.7904 H   0  0  0  0  0  0  0  0  0  0  0  0
  147.3645  135.8372  152.4985 H   0  0  0  0  0  0  0  0  0  0  0  0
  1  2  1  0  0  0  0
  1 22  1  0  0  0  0
  1 23  1  0  0  0  0
  1 24  1  0  0  0  0
  2  8  1  0  0  0  0
  2  3  2  0  0  0  0
  3  4  1  0  0  0  0
  4  5  1  0  0  0  0
  4  6  1  0  0  0  0
  5 25  1  0  0  0  0
  5 26  1  0  0  0  0
  5 27  1  0  0  0  0
  6  7  1  0  0  0  0
  6  8  2  0  0  0  0
  7 28  1  0  0  0  0
  7 29  1  0  0  0  0
  7 30  1  0  0  0  0
  8  9  1  0  0  0  0
  9 10  1  0  0  0  0
  9 31  1  0  0  0  0
  9 32  1  0  0  0  0
 10 11  2  0  0  0  0
 10 12  1  0  0  0  0
 12 13  1  0  0  0  0
 12 33  1  0  0  0  0
 13 14  1  0  0  0  0
 13 34  1  0  0  0  0
 13 35  1  0  0  0  0
 14 15  1  0  0  0  0
 14 36  1  0  0  0  0
 14 37  1  0  0  0  0
 15 20  1  0  0  0  0
 15 16  1  0  0  0  0
 15 50  1  0  0  0  0
 16 17  1  0  0  0  0
 16 38  1  0  0  0  0
 16 39  1  0  0  0  0
 17 18  1  0  0  0  0
 17 40  1  0  0  0  0
 17 41  1  0  0  0  0
 18 19  1  0  0  0  0
 18 42  1  0  0  0  0
 18 43  1  0  0  0  0
 19 20  1  0  0  0  0
 19 44  1  0  0  0  0
 19 45  1  0  0  0  0
 20 21  1  0  0  0  0
 20 46  1  0  0  0  0
 21 47  1  0  0  0  0
 21 48  1  0  0  0  0
 21 49  1  0  0  0  0
M  CHG  1  15   1
M  END
> <s_m_source_file>
AV-unprocessed.smi

> <i_m_source_file_index>
564

> <i_lp_mmshare_version>
43012

> <i_f3d_flags>
0

> <s_epik_input>
W0NIM11jMW5uKFtDSDNdKWMoW0NIM10pYzFbQ0gyXUMoPU8pW05IXVtDSDJdW0NIMl1OMltDSDJdW0NIMl1bQ0gyXVtDSDJdW0NASF0yW0NIM10=

> <s_epik_cmdline>
J2VwaWtfcHl0aG9uJywgJy1waCcsICc3LjAnLCAnLXRuJywgJzgnLCAnLW1hJywgJzIwMCcsICctbWV0YWxfYmluZGluZycsICctaW1hZScsICc8aW5maWxlLm1hZT4nLCAnLW9tYWUnLCAnPG91dGZpbGUubWFlPic=

> <r_lp_tautomer_probability>
1

> <r_epik_Ionization_Penalty>
0.00456826

> <r_epik_Ionization_Penalty_Charging>
0.00240401

> <r_epik_Ionization_Penalty_Neutral>
0.00216425

> <r_epik_State_Penalty>
-0

> <r_epik_Charging_Adjusted_Penalty>
0.00240401

> <i_epik_Tot_Q>
1

> <i_epik_Tot_abs_Q>
1

> <r_epik_Metal_State_Penalty>
-0

> <b_epik_Metal_Only>
0

> <s_lp_Force_Field>
OPLS_2005

> <r_lp_Energy>
16.6365

> <b_lp_Chiralities_Consistent>
1

> <s_lp_Variant>
AV-unprocessed.smi:564-1

> <Gold.Version>
5.8.1

> <Gold.Id.Protein>
6NUR|6NUR_protein|mol2

> <Gold.PLP.Fitness>
46.0905

> <Gold.PLP.PLP>
-35.5531

> <Gold.PLP.part.hbond>
-4.0000

> <Gold.PLP.part.metal>
0.0000

> <Gold.PLP.part.buried>
-1.2506

> <Gold.PLP.part.nonpolar>
-29.8098

> <Gold.PLP.part.repulsive>
0.1069

> <Gold.PLP.ligand.clash>
0.0000

> <Gold.PLP.ligand.torsion>
0.6839

> <Gold.PLP.Chemscore.Hbond>
3.9272

> <Gold.PLP.Chemscore.CHOScore>
0.0000

> <Gold.PLP.Chemscore.Metal>
0.0000

> <Gold.Chemscore.Hbonds>
donor molecule, donor type, donor heavy atom, donor atom, acceptor molecule, acceptor atom, score
      L1  H    12    33       P1  7957  0.26
      L1  H    15    50       P1  7948  2.00
      P1  H  7997  8010       L1     3  1.00

> <Gold.PLP.Chemscore.Internal.Correction>
0.1236

> <Gold.Rescore>
     Score         DG    S(hbond)    S(metal)    S(lipo)     H(rot)  DE(clash)    DE(int)     intcor
     18.26     -20.72       2.70        0.00      88.47       1.61       0.58       1.89       ----

> <Gold.Chemscore.Fitness>
18.2619

> <Gold.Chemscore.DG>
-20.7236

> <Gold.Chemscore.ZeroCoef>
-5.4800

> <Gold.Chemscore.Hbond>
2.7023

> <Gold.Chemscore.Metal>
0.0000

> <Gold.Chemscore.Lipo>
88.4660

> <Gold.Chemscore.Internal_Hbond>
0.0000

> <Gold.Chemscore.DEClash>
0.5760

> <Gold.Chemscore.DEInternal>
1.8857

> <Gold.Chemscore.Rot>
1.6142

> <Gold.Chemscore.Internal.Correction>
   9.000000E+99

> <Gold.Chemscore.Hbonds>
donor molecule, donor type, donor heavy atom, donor atom, acceptor molecule, acceptor atom, score
      L1  H    12    33       P1  7957  0.25
      L1  H    15    50       P1  7948  1.00
      P1  H  7997  8010       L1     3  0.30

> <Gold.Chemscore.Hbond.Weighted>
-9.0255

> <Gold.Chemscore.Metal.Weighted>
-0.0000

> <Gold.Chemscore.Lipo.Weighted>
-10.3505

> <Gold.Chemscore.Internal_Hbond.Weighted>
0.0000

> <Gold.Chemscore.DEClash.Weighted>
0.5760

> <Gold.Chemscore.DEInternal.Weighted>
1.8857

> <Gold.Chemscore.Rot.Weighted>
4.1324

> <Gold.Chemscore.Internal.Correction.Weighted>
   9.000000E+99

> <Gold.Protein.RotatedTorsions>
[ 6907 6896 6895 6894 ] final  -70.72 input  -60.11 | X-H torsion
[ 7974 7965 7964 7962 ] final  106.16 input  175.53 | X-H torsion
[ 8008 7997 7996 7995 ] final   50.71 input   59.86 | X-H torsion
[ 10167 10162 10161 10158 ] final   54.91 input  -65.29 | X-H torsion
[ 10718 10713 10712 10709 ] final   37.02 input   66.30 | X-H torsion
[ 10763 10752 10751 10750 ] final  -11.08 input  -60.55 | X-H torsion
[ 11005 11000 10999 10996 ] final -172.03 input  -57.11 | X-H torsion

> <Gold.Protein.ActiveResidues>
 VAL166  LYS551  ARG553  GLY616  TRP617  ASP618  TYR619  PRO620  LYS621  CYS622 
 ASP623  PHE694  ASN695  SER759  ASP760  ASP761  ALA762  ILE779  LEU786  VAL792 
 PHE793  MET794  SER795  GLU796  ALA797  LYS798  CYS799  TRP800  GLU811  SER814 

> <Gold.Protein.RotatedAtoms>
  150.7244  134.5412  159.5747 H   0  0  0  0  0  0  0  0  0  0  0  0  # atno 6907 bound_to 6896
  152.2922  134.7706  160.0384 H   0  0  0  0  0  0  0  0  0  0  0  0  # atno 6908 bound_to 6896
  151.8315  133.3374  159.3651 H   0  0  0  0  0  0  0  0  0  0  0  0  # atno 6909 bound_to 6896
  145.3102  139.2542  143.3767 H   0  0  0  0  0  0  0  0  0  0  0  0  # atno 7974 bound_to 7965
  155.4233  140.3447  155.4273 H   0  0  0  0  0  0  0  0  0  0  0  0  # atno 8008 bound_to 7997
  156.1380  140.1533  156.8995 H   0  0  0  0  0  0  0  0  0  0  0  0  # atno 8009 bound_to 7997
  154.4948  140.0831  156.7652 H   0  0  0  0  0  0  0  0  0  0  0  0  # atno 8010 bound_to 7997
  140.2251  144.3747  150.6435 H   0  0  0  0  0  0  0  0  0  0  0  0  # atno 10167 bound_to 10162
  157.3419  130.7552  149.6918 H   0  0  0  0  0  0  0  0  0  0  0  0  # atno 10718 bound_to 10713
  153.4785  135.7017  153.5952 H   0  0  0  0  0  0  0  0  0  0  0  0  # atno 10763 bound_to 10752
  153.4175  135.3833  155.2090 H   0  0  0  0  0  0  0  0  0  0  0  0  # atno 10764 bound_to 10752
  154.8722  135.3919  154.4231 H   0  0  0  0  0  0  0  0  0  0  0  0  # atno 10765 bound_to 10752
  140.5016  134.5888  157.4989 H   0  0  0  0  0  0  0  0  0  0  0  0  # atno 11005 bound_to 11000
  146.3120  140.3637  142.8667 LP  0  0  0  0  0  0  0  0  0  0  0  0  # atno 17320 bound_to 7965
  144.9022  140.7656  143.5860 LP  0  0  0  0  0  0  0  0  0  0  0  0  # atno 17321 bound_to 7965
  140.6226  143.2178  151.6662 LP  0  0  0  0  0  0  0  0  0  0  0  0  # atno 17342 bound_to 10162
  139.5130  144.3458  152.0698 LP  0  0  0  0  0  0  0  0  0  0  0  0  # atno 17343 bound_to 10162
  155.9709  130.4165  150.4234 LP  0  0  0  0  0  0  0  0  0  0  0  0  # atno 17370 bound_to 10713
  157.2283  131.0498  151.2507 LP  0  0  0  0  0  0  0  0  0  0  0  0  # atno 17371 bound_to 10713
  139.9710  134.7293  156.0042 LP  0  0  0  0  0  0  0  0  0  0  0  0  # atno 17394 bound_to 11000
  141.1432  133.6560  156.3791 LP  0  0  0  0  0  0  0  0  0  0  0  0  # atno 17395 bound_to 11000

$$$$
