AV-unprocessed.smi:2154|AV-procd|sdf|8772|dock10
  -GOLD-   2272011553D 1   1.00000     0.00000
 Structure written by MMmdl.
 32 33  0  0  0  0  0  0  0  0  1 V2000
  151.1036  144.5662  159.6036 C   0  0  0  0  0  0  0  0  0  0  0  0
  152.4026  143.9075  160.0235 C   0  0  2  0  0  0  0  0  0  0  0  0
  153.4246  143.4901  158.9916 C   0  0  0  0  0  0  0  0  0  0  0  0
  152.6848  142.4373  159.7840 C   0  0  2  0  0  0  0  0  0  0  0  0
  151.6765  141.5193  159.1135 C   0  0  0  0  0  0  0  0  0  0  0  0
  151.1402  142.0173  157.8537 N   0  0  0  0  0  0  0  0  0  0  0  0
  150.6287  141.2526  156.8775 C   0  0  0  0  0  0  0  0  0  0  0  0
  150.5339  140.0273  156.9606 O   0  0  0  0  0  0  0  0  0  0  0  0
  150.1313  141.9936  155.6283 C   0  0  0  0  0  0  0  0  0  0  0  0
  149.1964  141.1945  154.8228 N   0  0  0  0  0  0  0  0  0  0  0  0
  147.8900  141.6223  154.6337 C   0  0  0  0  0  0  0  0  0  0  0  0
  146.9769  140.9322  153.9101 C   0  0  0  0  0  0  0  0  0  0  0  0
  147.3381  139.6677  153.2778 C   0  0  0  0  0  0  0  0  0  0  0  0
  146.5835  138.9716  152.6021 O   0  0  0  0  0  0  0  0  0  0  0  0
  148.6599  139.2695  153.4940 N   0  0  0  0  0  0  0  0  0  0  0  0
  149.6053  139.9752  154.2396 C   0  0  0  0  0  0  0  0  0  0  0  0
  150.7457  139.5320  154.3703 O   0  0  0  0  0  0  0  0  0  0  0  0
  148.9556  138.3985  153.0775 H   0  0  0  0  0  0  0  0  0  0  0  0
  150.7895  144.2311  158.6155 H   0  0  0  0  0  0  0  0  0  0  0  0
  151.2299  145.6483  159.5718 H   0  0  0  0  0  0  0  0  0  0  0  0
  150.3162  144.3304  160.3196 H   0  0  0  0  0  0  0  0  0  0  0  0
  152.8014  144.3079  160.9536 H   0  0  0  0  0  0  0  0  0  0  0  0
  153.1637  143.6105  157.9418 H   0  0  0  0  0  0  0  0  0  0  0  0
  154.4743  143.6505  159.2295 H   0  0  0  0  0  0  0  0  0  0  0  0
  153.2467  141.9516  160.5800 H   0  0  0  0  0  0  0  0  0  0  0  0
  152.1428  140.5459  158.9533 H   0  0  0  0  0  0  0  0  0  0  0  0
  150.8348  141.3492  159.7841 H   0  0  0  0  0  0  0  0  0  0  0  0
  151.1752  143.0155  157.7058 H   0  0  0  0  0  0  0  0  0  0  0  0
  149.6566  142.9207  155.9527 H   0  0  0  0  0  0  0  0  0  0  0  0
  150.9803  142.3043  155.0156 H   0  0  0  0  0  0  0  0  0  0  0  0
  147.5766  142.5521  155.0871 H   0  0  0  0  0  0  0  0  0  0  0  0
  145.9735  141.3172  153.7989 H   0  0  0  0  0  0  0  0  0  0  0  0
  1  2  1  0  0  0  0
  1 19  1  0  0  0  0
  1 20  1  0  0  0  0
  1 21  1  0  0  0  0
  2  4  1  0  0  0  0
  2  3  1  0  0  0  0
  2 22  1  0  0  0  0
  3  4  1  0  0  0  0
  3 23  1  0  0  0  0
  3 24  1  0  0  0  0
  4  5  1  0  0  0  0
  4 25  1  0  0  0  0
  5  6  1  0  0  0  0
  5 26  1  0  0  0  0
  5 27  1  0  0  0  0
  6  7  1  0  0  0  0
  6 28  1  0  0  0  0
  7  8  2  0  0  0  0
  7  9  1  0  0  0  0
  9 10  1  0  0  0  0
  9 29  1  0  0  0  0
  9 30  1  0  0  0  0
 10 16  1  0  0  0  0
 10 11  1  0  0  0  0
 11 12  2  0  0  0  0
 11 31  1  0  0  0  0
 12 13  1  0  0  0  0
 12 32  1  0  0  0  0
 13 14  2  0  0  0  0
 13 15  1  0  0  0  0
 15 18  1  0  0  0  0
 15 16  1  0  0  0  0
 16 17  2  0  0  0  0
M  END
> <s_m_source_file>
AV-unprocessed.smi

> <i_m_source_file_index>
2154

> <i_lp_mmshare_version>
43012

> <i_f3d_flags>
0

> <s_epik_input>
W0NIM11bQ0BASF0xW0NIMl1bQ0BIXTFbQ0gyXVtOSF1DKD1PKVtDSDJdbjJbY0hdW2NIXWMoPU8pW25IXWMyPU8=

> <s_epik_cmdline>
J2VwaWtfcHl0aG9uJywgJy1waCcsICc3LjAnLCAnLXRuJywgJzgnLCAnLW1hJywgJzIwMCcsICctbWV0YWxfYmluZGluZycsICctaW1hZScsICc8aW5maWxlLm1hZT4nLCAnLW9tYWUnLCAnPG91dGZpbGUubWFlPic=

> <r_lp_tautomer_probability>
0.999537

> <r_epik_Ionization_Penalty>
0.00305319

> <r_epik_Ionization_Penalty_Charging>
0.00305317

> <r_epik_Ionization_Penalty_Neutral>
2.06703e-08

> <r_epik_State_Penalty>
0.00214626

> <r_epik_Charging_Adjusted_Penalty>
0.00519944

> <i_epik_Tot_Q>
0

> <i_epik_Tot_abs_Q>
0

> <r_epik_Metal_State_Penalty>
0.361976

> <b_epik_Metal_Only>
0

> <s_lp_Force_Field>
OPLS_2005

> <r_lp_Energy>
15.9584

> <b_lp_Chiralities_Consistent>
1

> <s_lp_Variant>
AV-unprocessed.smi:2154-3

> <Gold.Version>
5.8.1

> <Gold.Id.Protein>
6NUR|6NUR_protein|mol2

> <Gold.PLP.Fitness>
39.7517

> <Gold.PLP.PLP>
-34.9846

> <Gold.PLP.part.hbond>
-2.0000

> <Gold.PLP.part.metal>
0.0000

> <Gold.PLP.part.buried>
-3.1154

> <Gold.PLP.part.nonpolar>
-30.0373

> <Gold.PLP.part.repulsive>
0.5516

> <Gold.PLP.ligand.clash>
0.0000

> <Gold.PLP.ligand.torsion>
0.7330

> <Gold.PLP.Chemscore.Hbond>
0.9000

> <Gold.PLP.Chemscore.CHOScore>
1.0000

> <Gold.PLP.Chemscore.Metal>
0.0000

> <Gold.Chemscore.Hbonds>
donor molecule, donor type, donor heavy atom, donor atom, acceptor molecule, acceptor atom, score
      P1  H  7989  7998       L1    17  0.90
      L1  C    11    31       P1  8028  0.91

> <Gold.PLP.Chemscore.Internal.Correction>
0.5332

> <Gold.Rescore>
     Score         DG    S(hbond)    S(metal)    S(lipo)     H(rot)  DE(clash)    DE(int)     intcor
     13.14     -14.38       1.55        0.00      75.82       2.01       0.20       1.03       ----

> <Gold.Chemscore.Fitness>
13.1400

> <Gold.Chemscore.DG>
-14.3787

> <Gold.Chemscore.ZeroCoef>
-5.4800

> <Gold.Chemscore.Hbond>
1.5462

> <Gold.Chemscore.Metal>
0.0000

> <Gold.Chemscore.Lipo>
75.8204

> <Gold.Chemscore.Internal_Hbond>
0.0000

> <Gold.Chemscore.DEClash>
0.2046

> <Gold.Chemscore.DEInternal>
1.0341

> <Gold.Chemscore.Rot>
2.0065

> <Gold.Chemscore.Internal.Correction>
   9.000000E+99

> <Gold.Chemscore.Hbonds>
donor molecule, donor type, donor heavy atom, donor atom, acceptor molecule, acceptor atom, score
      L1  H    15    18       P1  7948  0.05
      P1  H  7989  7998       L1    17  0.18

> <Gold.Chemscore.Hbond.Weighted>
-5.1643

> <Gold.Chemscore.Metal.Weighted>
-0.0000

> <Gold.Chemscore.Lipo.Weighted>
-8.8710

> <Gold.Chemscore.Internal_Hbond.Weighted>
0.0000

> <Gold.Chemscore.DEClash.Weighted>
0.2046

> <Gold.Chemscore.DEInternal.Weighted>
1.0341

> <Gold.Chemscore.Rot.Weighted>
5.1366

> <Gold.Chemscore.Internal.Correction.Weighted>
   9.000000E+99

> <Gold.Protein.RotatedTorsions>
[ 6907 6896 6895 6894 ] final   95.31 input  -60.11 | X-H torsion
[ 7974 7965 7964 7962 ] final  -43.15 input  175.53 | X-H torsion
[ 8008 7997 7996 7995 ] final -156.45 input   59.86 | X-H torsion
[ 10167 10162 10161 10158 ] final   -9.38 input  -65.29 | X-H torsion
[ 10718 10713 10712 10709 ] final   57.39 input   66.30 | X-H torsion
[ 10763 10752 10751 10750 ] final   65.42 input  -60.55 | X-H torsion
[ 11005 11000 10999 10996 ] final  -85.08 input  -57.11 | X-H torsion

> <Gold.Protein.ActiveResidues>
 VAL166  LYS551  ARG553  GLY616  TRP617  ASP618  TYR619  PRO620  LYS621  CYS622 
 ASP623  PHE694  ASN695  SER759  ASP760  ASP761  ALA762  ILE779  LEU786  VAL792 
 PHE793  MET794  SER795  GLU796  ALA797  LYS798  CYS799  TRP800  GLU811  SER814 

> <Gold.Protein.RotatedAtoms>
  152.5444  134.1060  159.8337 H   0  0  0  0  0  0  0  0  0  0  0  0  # atno 6907 bound_to 6896
  151.1132  133.5150  159.2612 H   0  0  0  0  0  0  0  0  0  0  0  0  # atno 6908 bound_to 6896
  151.1861  135.0391  159.8867 H   0  0  0  0  0  0  0  0  0  0  0  0  # atno 6909 bound_to 6896
  146.0047  140.7034  142.9253 H   0  0  0  0  0  0  0  0  0  0  0  0  # atno 7974 bound_to 7965
  155.7174  140.0786  157.2345 H   0  0  0  0  0  0  0  0  0  0  0  0  # atno 8008 bound_to 7997
  154.4050  140.1619  156.2418 H   0  0  0  0  0  0  0  0  0  0  0  0  # atno 8009 bound_to 7997
  155.9227  140.3396  155.6189 H   0  0  0  0  0  0  0  0  0  0  0  0  # atno 8010 bound_to 7997
  140.7085  143.5865  150.8938 H   0  0  0  0  0  0  0  0  0  0  0  0  # atno 10167 bound_to 10162
  157.5511  130.8766  149.8964 H   0  0  0  0  0  0  0  0  0  0  0  0  # atno 10718 bound_to 10713
  153.0095  135.5357  154.6664 H   0  0  0  0  0  0  0  0  0  0  0  0  # atno 10763 bound_to 10752
  154.5859  135.2854  155.0687 H   0  0  0  0  0  0  0  0  0  0  0  0  # atno 10764 bound_to 10752
  154.1798  135.6518  153.5084 H   0  0  0  0  0  0  0  0  0  0  0  0  # atno 10765 bound_to 10752
  141.1644  133.7380  156.8963 H   0  0  0  0  0  0  0  0  0  0  0  0  # atno 11005 bound_to 11000
  144.6931  140.3294  143.7218 LP  0  0  0  0  0  0  0  0  0  0  0  0  # atno 17320 bound_to 7965
  145.7434  139.1771  143.2363 LP  0  0  0  0  0  0  0  0  0  0  0  0  # atno 17321 bound_to 7965
  139.9590  143.6185  152.3007 LP  0  0  0  0  0  0  0  0  0  0  0  0  # atno 17342 bound_to 10162
  139.6731  144.7660  151.1746 LP  0  0  0  0  0  0  0  0  0  0  0  0  # atno 17343 bound_to 10162
  156.0577  130.3705  150.1053 LP  0  0  0  0  0  0  0  0  0  0  0  0  # atno 17370 bound_to 10713
  156.9225  130.9687  151.3546 LP  0  0  0  0  0  0  0  0  0  0  0  0  # atno 17371 bound_to 10713
  140.1614  134.9163  157.2719 LP  0  0  0  0  0  0  0  0  0  0  0  0  # atno 17394 bound_to 11000
  140.2607  134.3574  155.7407 LP  0  0  0  0  0  0  0  0  0  0  0  0  # atno 17395 bound_to 11000

$$$$
