AV-unprocessed.smi:61|AV-procd|sdf|600|dock3
  -GOLD-   2262016493D 1   1.00000     0.00000
 Structure written by MMmdl.
 29 30  0  0  0  0  0  0  0  0  2 V2000
  146.5936  137.7124  152.6993 N   0  0  0  0  0  0  0  0  0  0  0  0
  145.6608  136.7320  152.4645 C   0  0  0  0  0  0  0  0  0  0  0  0
  144.3738  137.0104  152.6956 N   0  0  0  0  0  0  0  0  0  0  0  0
  143.4520  136.0540  152.4697 C   0  0  0  0  0  0  0  0  0  0  0  0
  143.8147  134.7817  151.9976 C   0  0  0  0  0  0  0  0  0  0  0  0
  145.1897  134.5539  151.7680 C   0  0  0  0  0  0  0  0  0  0  0  0
  145.7048  133.3371  151.2973 N   0  0  0  0  0  0  0  0  0  0  0  0
  146.5977  132.6680  152.2367 C   0  0  0  0  0  0  0  0  0  0  0  0
  146.3601  131.1599  152.0744 C   0  0  0  0  0  0  0  0  0  0  0  0
  145.5084  131.0451  150.8122 C   0  0  0  0  0  0  0  0  0  0  0  0
  144.7316  132.3617  150.8221 C   0  0  2  0  0  0  0  0  0  0  0  0
  144.1237  132.7491  149.4615 C   0  0  0  0  0  0  0  0  0  0  0  0
  142.8604  132.1397  149.3058 O   0  0  0  0  0  0  0  0  0  0  0  0
  146.0848  135.5427  152.0146 N   0  3  0  0  0  0  0  0  0  0  0  0
  147.5742  137.5345  152.5347 H   0  0  0  0  0  0  0  0  0  0  0  0
  146.3128  138.6204  153.0404 H   0  0  0  0  0  0  0  0  0  0  0  0
  142.4207  136.3054  152.6685 H   0  0  0  0  0  0  0  0  0  0  0  0
  143.0681  134.0200  151.8271 H   0  0  0  0  0  0  0  0  0  0  0  0
  147.6257  132.9206  151.9754 H   0  0  0  0  0  0  0  0  0  0  0  0
  146.4315  132.9829  153.2679 H   0  0  0  0  0  0  0  0  0  0  0  0
  147.2882  130.5915  152.0078 H   0  0  0  0  0  0  0  0  0  0  0  0
  145.7996  130.7843  152.9314 H   0  0  0  0  0  0  0  0  0  0  0  0
  146.1525  130.9878  149.9332 H   0  0  0  0  0  0  0  0  0  0  0  0
  144.8606  130.1680  150.8164 H   0  0  0  0  0  0  0  0  0  0  0  0
  143.9283  132.2778  151.5551 H   0  0  0  0  0  0  0  0  0  0  0  0
  143.9903  133.8290  149.3894 H   0  0  0  0  0  0  0  0  0  0  0  0
  144.7759  132.4480  148.6411 H   0  0  0  0  0  0  0  0  0  0  0  0
  142.1964  132.8125  149.3189 H   0  0  0  0  0  0  0  0  0  0  0  0
  147.0774  135.3736  151.8517 H   0  0  0  0  0  0  0  0  0  0  0  0
  1  2  1  0  0  0  0
  1 15  1  0  0  0  0
  1 16  1  0  0  0  0
  2 14  1  0  0  0  0
  2  3  2  0  0  0  0
  3  4  1  0  0  0  0
  4  5  2  0  0  0  0
  4 17  1  0  0  0  0
  5  6  1  0  0  0  0
  5 18  1  0  0  0  0
  6  7  1  0  0  0  0
  6 14  2  0  0  0  0
  7 11  1  0  0  0  0
  7  8  1  0  0  0  0
  8  9  1  0  0  0  0
  8 19  1  0  0  0  0
  8 20  1  0  0  0  0
  9 10  1  0  0  0  0
  9 21  1  0  0  0  0
  9 22  1  0  0  0  0
 10 11  1  0  0  0  0
 10 23  1  0  0  0  0
 10 24  1  0  0  0  0
 11 12  1  0  0  0  0
 11 25  1  0  0  0  0
 12 13  1  0  0  0  0
 12 26  1  0  0  0  0
 12 27  1  0  0  0  0
 13 28  1  0  0  0  0
 14 29  1  0  0  0  0
M  CHG  1  14   1
M  END
> <s_m_source_file>
AV-unprocessed.smi

> <i_m_source_file_index>
61

> <i_lp_mmshare_version>
43012

> <i_f3d_flags>
0

> <s_epik_input>
W05IMl1jMW5bY0hdW2NIXWMobjEpTjJbQ0gyXVtDSDJdW0NIMl1bQ0BIXTJbQ0gyXVtPSF0=

> <s_epik_cmdline>
J2VwaWtfcHl0aG9uJywgJy1waCcsICc3LjAnLCAnLXRuJywgJzgnLCAnLW1hJywgJzIwMCcsICctbWV0YWxfYmluZGluZycsICctaW1hZScsICc8aW5maWxlLm1hZT4nLCAnLW9tYWUnLCAnPG91dGZpbGUubWFlPic=

> <r_lp_tautomer_probability>
0.424989

> <r_epik_Ionization_Penalty>
0.696162

> <r_epik_Ionization_Penalty_Charging>
0.696158

> <r_epik_Ionization_Penalty_Neutral>
4.43138e-06

> <r_epik_State_Penalty>
0.906374

> <r_epik_Charging_Adjusted_Penalty>
1.60253

> <i_epik_Tot_Q>
1

> <i_epik_Tot_abs_Q>
1

> <r_epik_Metal_State_Penalty>
1.16703

> <b_epik_Metal_Only>
0

> <s_lp_Force_Field>
OPLS_2005

> <r_lp_Energy>
27.4593

> <b_lp_Chiralities_Consistent>
1

> <s_lp_Variant>
AV-unprocessed.smi:61-6

> <Gold.Version>
5.8.1

> <Gold.Id.Protein>
6NUR|6NUR_protein|mol2

> <Gold.PLP.Fitness>
43.3178

> <Gold.PLP.PLP>
-27.0601

> <Gold.PLP.part.hbond>
-4.9914

> <Gold.PLP.part.metal>
0.0000

> <Gold.PLP.part.buried>
-6.7418

> <Gold.PLP.part.nonpolar>
-16.9276

> <Gold.PLP.part.repulsive>
0.5736

> <Gold.PLP.ligand.clash>
0.0000

> <Gold.PLP.ligand.torsion>
0.3893

> <Gold.PLP.Chemscore.Hbond>
5.6615

> <Gold.PLP.Chemscore.CHOScore>
0.0000

> <Gold.PLP.Chemscore.Metal>
0.0000

> <Gold.Chemscore.Hbonds>
donor molecule, donor type, donor heavy atom, donor atom, acceptor molecule, acceptor atom, score
      L1  H     1    15       P1  7948  1.86
      L1  H    13    28       P1 10186  1.00
      L1  H    14    29       P1  7948  1.82
      P1  H 10785 10796       L1    13  0.83

> <Gold.PLP.Chemscore.Internal.Correction>
0.0517

> <Gold.Rescore>
     Score         DG    S(hbond)    S(metal)    S(lipo)     H(rot)  DE(clash)    DE(int)     intcor
     17.61     -17.93       3.41        0.00      52.38       1.98       0.10       0.22       ----

> <Gold.Chemscore.Fitness>
17.6056

> <Gold.Chemscore.DG>
-17.9269

> <Gold.Chemscore.ZeroCoef>
-5.4800

> <Gold.Chemscore.Hbond>
3.4121

> <Gold.Chemscore.Metal>
0.0000

> <Gold.Chemscore.Lipo>
52.3839

> <Gold.Chemscore.Internal_Hbond>
0.0000

> <Gold.Chemscore.DEClash>
0.0998

> <Gold.Chemscore.DEInternal>
0.2214

> <Gold.Chemscore.Rot>
1.9838

> <Gold.Chemscore.Internal.Correction>
   9.000000E+99

> <Gold.Chemscore.Hbonds>
donor molecule, donor type, donor heavy atom, donor atom, acceptor molecule, acceptor atom, score
      L1  H     1    15       P1  7948  0.87
      L1  H    13    28       P1 10186  0.96
      L1  H    14    29       P1  7948  0.83
      P1  H 10785 10796       L1    13  0.52

> <Gold.Chemscore.Hbond.Weighted>
-11.3966

> <Gold.Chemscore.Metal.Weighted>
-0.0000

> <Gold.Chemscore.Lipo.Weighted>
-6.1289

> <Gold.Chemscore.Internal_Hbond.Weighted>
0.0000

> <Gold.Chemscore.DEClash.Weighted>
0.0998

> <Gold.Chemscore.DEInternal.Weighted>
0.2214

> <Gold.Chemscore.Rot.Weighted>
5.0786

> <Gold.Chemscore.Internal.Correction.Weighted>
   9.000000E+99

> <Gold.Protein.RotatedTorsions>
[ 6907 6896 6895 6894 ] final -167.65 input  -60.11 | X-H torsion
[ 7974 7965 7964 7962 ] final  -94.96 input  175.53 | X-H torsion
[ 8008 7997 7996 7995 ] final  -63.15 input   59.86 | X-H torsion
[ 10167 10162 10161 10158 ] final  131.05 input  -65.29 | X-H torsion
[ 10718 10713 10712 10709 ] final -161.99 input   66.30 | X-H torsion
[ 10763 10752 10751 10750 ] final   30.42 input  -60.55 | X-H torsion
[ 11005 11000 10999 10996 ] final   88.46 input  -57.11 | X-H torsion

> <Gold.Protein.ActiveResidues>
 VAL166  LYS551  ARG553  GLY616  TRP617  ASP618  TYR619  PRO620  LYS621  CYS622 
 ASP623  PHE694  ASN695  SER759  ASP760  ASP761  ALA762  ILE779  LEU786  VAL792 
 PHE793  MET794  SER795  GLU796  ALA797  LYS798  CYS799  TRP800  GLU811  SER814 

> <Gold.Protein.RotatedAtoms>
  151.4629  133.3588  159.2811 H   0  0  0  0  0  0  0  0  0  0  0  0  # atno 6907 bound_to 6896
  150.9013  134.8427  159.7373 H   0  0  0  0  0  0  0  0  0  0  0  0  # atno 6908 bound_to 6896
  152.4881  134.4550  159.9638 H   0  0  0  0  0  0  0  0  0  0  0  0  # atno 6909 bound_to 6896
  145.3663  140.9499  143.2472 H   0  0  0  0  0  0  0  0  0  0  0  0  # atno 7974 bound_to 7965
  154.4538  140.0981  156.6698 H   0  0  0  0  0  0  0  0  0  0  0  0  # atno 8008 bound_to 7997
  155.5200  140.3478  155.4386 H   0  0  0  0  0  0  0  0  0  0  0  0  # atno 8009 bound_to 7997
  156.0737  140.1355  156.9787 H   0  0  0  0  0  0  0  0  0  0  0  0  # atno 8010 bound_to 7997
  139.5402  144.6722  151.4651 H   0  0  0  0  0  0  0  0  0  0  0  0  # atno 10167 bound_to 10162
  156.6040  130.8822  151.2921 H   0  0  0  0  0  0  0  0  0  0  0  0  # atno 10718 bound_to 10713
  153.0373  135.6464  154.1042 H   0  0  0  0  0  0  0  0  0  0  0  0  # atno 10763 bound_to 10752
  154.0755  135.2877  155.3302 H   0  0  0  0  0  0  0  0  0  0  0  0  # atno 10764 bound_to 10752
  154.6565  135.5407  153.8030 H   0  0  0  0  0  0  0  0  0  0  0  0  # atno 10765 bound_to 10752
  139.8896  134.8489  156.3003 H   0  0  0  0  0  0  0  0  0  0  0  0  # atno 11005 bound_to 11000
  144.8609  139.5179  143.6812 LP  0  0  0  0  0  0  0  0  0  0  0  0  # atno 17320 bound_to 7965
  146.2905  139.7126  142.9164 LP  0  0  0  0  0  0  0  0  0  0  0  0  # atno 17321 bound_to 7965
  140.6628  143.8462  150.6907 LP  0  0  0  0  0  0  0  0  0  0  0  0  # atno 17342 bound_to 10162
  140.1862  143.4074  152.1897 LP  0  0  0  0  0  0  0  0  0  0  0  0  # atno 17343 bound_to 10162
  157.7272  130.9639  150.1688 LP  0  0  0  0  0  0  0  0  0  0  0  0  # atno 17370 bound_to 10713
  156.2445  130.3694  149.8300 LP  0  0  0  0  0  0  0  0  0  0  0  0  # atno 17371 bound_to 10713
  140.9918  133.7204  156.0825 LP  0  0  0  0  0  0  0  0  0  0  0  0  # atno 17394 bound_to 11000
  140.7615  134.3933  157.5524 LP  0  0  0  0  0  0  0  0  0  0  0  0  # atno 17395 bound_to 11000

$$$$
