AV-unprocessed.smi:3068|AV-procd|sdf|11702|dock1
  -GOLD-   2272017103D 1   1.00000     0.00000
 Structure written by MMmdl.
 40 42  0  0  0  0  0  0  0  0  2 V2000
  145.9599  141.7029  158.7383 N   0  0  0  0  0  0  0  0  0  0  0  0
  146.4385  141.5544  157.6952 C   0  0  0  0  0  0  0  0  0  0  0  0
  147.0424  141.3698  156.3817 C   0  0  0  0  0  0  0  0  0  0  0  0
  146.1953  141.2079  155.3389 N   0  0  0  0  0  0  0  0  0  0  0  0
  146.7442  141.0314  154.1180 C   0  0  0  0  0  0  0  0  0  0  0  0
  148.1401  141.0166  153.9319 C   0  0  0  0  0  0  0  0  0  0  0  0
  148.9926  141.1782  154.9661 N   0  0  0  0  0  0  0  0  0  0  0  0
  148.4540  141.3544  156.1988 C   0  0  0  0  0  0  0  0  0  0  0  0
  149.3316  141.5247  157.2843 N   0  0  0  0  0  0  0  0  0  0  0  0
  150.5489  140.7314  157.3811 C   0  0  0  0  0  0  0  0  0  0  0  0
  151.7503  141.5866  157.8052 C   0  0  2  0  0  0  0  0  0  0  0  0
  152.3211  141.1241  159.1584 C   0  0  0  0  0  0  0  0  0  0  0  0
  153.4165  142.0228  159.6000 N   0  3  2  0  0  0  0  0  0  0  0  0
  154.0545  141.6105  160.8776 C   0  0  0  0  0  0  0  0  0  0  0  0
  153.1689  141.9250  162.0988 C   0  0  0  0  0  0  0  0  0  0  0  0
  152.7625  143.4050  162.1198 C   0  0  0  0  0  0  0  0  0  0  0  0
  152.1007  143.7975  160.7914 C   0  0  0  0  0  0  0  0  0  0  0  0
  153.0145  143.4564  159.5935 C   0  0  2  0  0  0  0  0  0  0  0  0
  152.3794  143.8237  158.2384 C   0  0  0  0  0  0  0  0  0  0  0  0
  151.3108  142.9343  157.9393 O   0  0  0  0  0  0  0  0  0  0  0  0
  146.0670  140.9017  153.2869 H   0  0  0  0  0  0  0  0  0  0  0  0
  148.5739  140.8745  152.9530 H   0  0  0  0  0  0  0  0  0  0  0  0
  149.0035  142.0063  158.1095 H   0  0  0  0  0  0  0  0  0  0  0  0
  150.4012  139.9143  158.0888 H   0  0  0  0  0  0  0  0  0  0  0  0
  150.7470  140.2831  156.4065 H   0  0  0  0  0  0  0  0  0  0  0  0
  152.5264  141.5222  157.0396 H   0  0  0  0  0  0  0  0  0  0  0  0
  151.5266  141.0969  159.9045 H   0  0  0  0  0  0  0  0  0  0  0  0
  152.7042  140.1069  159.0697 H   0  0  0  0  0  0  0  0  0  0  0  0
  154.3005  140.5485  160.8462 H   0  0  0  0  0  0  0  0  0  0  0  0
  155.0023  142.1421  160.9723 H   0  0  0  0  0  0  0  0  0  0  0  0
  152.2770  141.2977  162.0893 H   0  0  0  0  0  0  0  0  0  0  0  0
  153.7032  141.6758  163.0160 H   0  0  0  0  0  0  0  0  0  0  0  0
  152.0826  143.5966  162.9503 H   0  0  0  0  0  0  0  0  0  0  0  0
  153.6438  144.0252  162.2886 H   0  0  0  0  0  0  0  0  0  0  0  0
  151.1407  143.2893  160.6953 H   0  0  0  0  0  0  0  0  0  0  0  0
  151.8785  144.8651  160.7971 H   0  0  0  0  0  0  0  0  0  0  0  0
  153.9261  144.0463  159.6991 H   0  0  0  0  0  0  0  0  0  0  0  0
  151.9988  144.8452  158.2595 H   0  0  0  0  0  0  0  0  0  0  0  0
  153.1238  143.7851  157.4415 H   0  0  0  0  0  0  0  0  0  0  0  0
  154.1317  141.9329  158.8924 H   0  0  0  0  0  0  0  0  0  0  0  0
  1  2  3  0  0  0  0
  2  3  1  0  0  0  0
  3  8  1  0  0  0  0
  3  4  2  0  0  0  0
  4  5  1  0  0  0  0
  5  6  2  0  0  0  0
  5 21  1  0  0  0  0
  6  7  1  0  0  0  0
  6 22  1  0  0  0  0
  7  8  2  0  0  0  0
  8  9  1  0  0  0  0
  9 10  1  0  0  0  0
  9 23  1  0  0  0  0
 10 11  1  0  0  0  0
 10 24  1  0  0  0  0
 10 25  1  0  0  0  0
 11 20  1  0  0  0  0
 11 12  1  0  0  0  0
 11 26  1  0  0  0  0
 12 13  1  0  0  0  0
 12 27  1  0  0  0  0
 12 28  1  0  0  0  0
 13 18  1  0  0  0  0
 13 14  1  0  0  0  0
 13 40  1  0  0  0  0
 14 15  1  0  0  0  0
 14 29  1  0  0  0  0
 14 30  1  0  0  0  0
 15 16  1  0  0  0  0
 15 31  1  0  0  0  0
 15 32  1  0  0  0  0
 16 17  1  0  0  0  0
 16 33  1  0  0  0  0
 16 34  1  0  0  0  0
 17 18  1  0  0  0  0
 17 35  1  0  0  0  0
 17 36  1  0  0  0  0
 18 19  1  0  0  0  0
 18 37  1  0  0  0  0
 19 20  1  0  0  0  0
 19 38  1  0  0  0  0
 19 39  1  0  0  0  0
M  CHG  1  13   1
M  END
> <s_m_source_file>
AV-unprocessed.smi

> <i_m_source_file_index>
3068

> <i_lp_mmshare_version>
43012

> <i_f3d_flags>
0

> <s_epik_input>
TiNDYzFuW2NIXVtjSF1uYzFbTkhdW0NIMl1bQ0BIXShbQ0gyXTIpT1tDSDJdW0NAQEhdKE4yMylbQ0gyXVtDSDJdW0NIMl1bQ0gyXTM=

> <s_epik_cmdline>
J2VwaWtfcHl0aG9uJywgJy1waCcsICc3LjAnLCAnLXRuJywgJzgnLCAnLW1hJywgJzIwMCcsICctbWV0YWxfYmluZGluZycsICctaW1hZScsICc8aW5maWxlLm1hZT4nLCAnLW9tYWUnLCAnPG91dGZpbGUubWFlPic=

> <r_epik_Ionization_Penalty>
0.0804321

> <r_epik_Ionization_Penalty_Charging>
0.0803403

> <r_epik_Ionization_Penalty_Neutral>
9.17277e-05

> <r_epik_State_Penalty>
0.0711481

> <r_epik_Charging_Adjusted_Penalty>
0.151488

> <i_epik_Tot_Q>
1

> <i_epik_Tot_abs_Q>
1

> <r_epik_Metal_State_Penalty>
0.0711481

> <b_epik_Metal_Only>
0

> <s_lp_Force_Field>
OPLS_2005

> <r_lp_Energy>
39.3749

> <b_lp_Chiralities_Consistent>
1

> <s_lp_Variant>
AV-unprocessed.smi:3068-5

> <Gold.Version>
5.8.1

> <Gold.Id.Protein>
6NUR|6NUR_protein|mol2

> <Gold.PLP.Fitness>
43.9370

> <Gold.PLP.PLP>
-38.3573

> <Gold.PLP.part.hbond>
-1.0000

> <Gold.PLP.part.metal>
0.0000

> <Gold.PLP.part.buried>
-6.8572

> <Gold.PLP.part.nonpolar>
-31.4309

> <Gold.PLP.part.repulsive>
0.4386

> <Gold.PLP.ligand.clash>
0.0000

> <Gold.PLP.ligand.torsion>
1.1690

> <Gold.PLP.Chemscore.Hbond>
0.6458

> <Gold.PLP.Chemscore.CHOScore>
1.9904

> <Gold.PLP.Chemscore.Metal>
0.0000

> <Gold.Chemscore.Hbonds>
donor molecule, donor type, donor heavy atom, donor atom, acceptor molecule, acceptor atom, score
      P1  H  6934  6946       L1     1  0.20
      L1  C     5    21       P1 10175  0.96
      L1  C     6    22       P1  7957  1.00

> <Gold.PLP.Chemscore.Internal.Correction>
0.0090

> <Gold.Rescore>
     Score         DG    S(hbond)    S(metal)    S(lipo)     H(rot)  DE(clash)    DE(int)     intcor
     16.25     -17.45       0.89        0.00     105.78       1.32       0.02       1.18       ----

> <Gold.Chemscore.Fitness>
16.2468

> <Gold.Chemscore.DG>
-17.4531

> <Gold.Chemscore.ZeroCoef>
-5.4800

> <Gold.Chemscore.Hbond>
0.8903

> <Gold.Chemscore.Metal>
0.0000

> <Gold.Chemscore.Lipo>
105.7842

> <Gold.Chemscore.Internal_Hbond>
0.0000

> <Gold.Chemscore.DEClash>
0.0224

> <Gold.Chemscore.DEInternal>
1.1839

> <Gold.Chemscore.Rot>
1.3193

> <Gold.Chemscore.Internal.Correction>
   9.000000E+99

> <Gold.Chemscore.Hbonds>
donor molecule, donor type, donor heavy atom, donor atom, acceptor molecule, acceptor atom, score
      P1  H  6934  6946       L1     1  0.20

> <Gold.Chemscore.Hbond.Weighted>
-2.9737

> <Gold.Chemscore.Metal.Weighted>
-0.0000

> <Gold.Chemscore.Lipo.Weighted>
-12.3767

> <Gold.Chemscore.Internal_Hbond.Weighted>
0.0000

> <Gold.Chemscore.DEClash.Weighted>
0.0224

> <Gold.Chemscore.DEInternal.Weighted>
1.1839

> <Gold.Chemscore.Rot.Weighted>
3.3774

> <Gold.Chemscore.Internal.Correction.Weighted>
   9.000000E+99

> <Gold.Protein.RotatedTorsions>
[ 6907 6896 6895 6894 ] final  -21.43 input  -60.11 | X-H torsion
[ 7974 7965 7964 7962 ] final  108.00 input  175.53 | X-H torsion
[ 8008 7997 7996 7995 ] final -149.64 input   59.86 | X-H torsion
[ 10167 10162 10161 10158 ] final    9.52 input  -65.29 | X-H torsion
[ 10718 10713 10712 10709 ] final  129.43 input   66.30 | X-H torsion
[ 10763 10752 10751 10750 ] final  -86.65 input  -60.55 | X-H torsion
[ 11005 11000 10999 10996 ] final  -50.81 input  -57.11 | X-H torsion

> <Gold.Protein.ActiveResidues>
 VAL166  LYS551  ARG553  GLY616  TRP617  ASP618  TYR619  PRO620  LYS621  CYS622 
 ASP623  PHE694  ASN695  SER759  ASP760  ASP761  ALA762  ILE779  LEU786  VAL792 
 PHE793  MET794  SER795  GLU796  ALA797  LYS798  CYS799  TRP800  GLU811  SER814 

> <Gold.Protein.RotatedAtoms>
  151.2335  135.0563  159.8996 H   0  0  0  0  0  0  0  0  0  0  0  0  # atno 6907 bound_to 6896
  152.5402  134.0512  159.8121 H   0  0  0  0  0  0  0  0  0  0  0  0  # atno 6908 bound_to 6896
  151.0695  133.5429  159.2659 H   0  0  0  0  0  0  0  0  0  0  0  0  # atno 6909 bound_to 6896
  145.2864  139.2615  143.3888 H   0  0  0  0  0  0  0  0  0  0  0  0  # atno 7974 bound_to 7965
  155.6108  140.0671  157.2706 H   0  0  0  0  0  0  0  0  0  0  0  0  # atno 8008 bound_to 7997
  154.4254  140.1801  156.1318 H   0  0  0  0  0  0  0  0  0  0  0  0  # atno 8009 bound_to 7997
  156.0086  140.3329  155.6921 H   0  0  0  0  0  0  0  0  0  0  0  0  # atno 8010 bound_to 7997
  140.6250  143.8121  150.7222 H   0  0  0  0  0  0  0  0  0  0  0  0  # atno 10167 bound_to 10162
  157.5155  131.1097  150.9231 H   0  0  0  0  0  0  0  0  0  0  0  0  # atno 10718 bound_to 10713
  154.6248  135.5442  153.7615 H   0  0  0  0  0  0  0  0  0  0  0  0  # atno 10763 bound_to 10752
  153.0255  135.6421  154.1388 H   0  0  0  0  0  0  0  0  0  0  0  0  # atno 10764 bound_to 10752
  154.1321  135.2913  155.3162 H   0  0  0  0  0  0  0  0  0  0  0  0  # atno 10765 bound_to 10752
  141.0836  133.6647  156.3785 H   0  0  0  0  0  0  0  0  0  0  0  0  # atno 11005 bound_to 11000
  146.3199  140.3344  142.8643 LP  0  0  0  0  0  0  0  0  0  0  0  0  # atno 17320 bound_to 7965
  144.9210  140.7868  143.5748 LP  0  0  0  0  0  0  0  0  0  0  0  0  # atno 17321 bound_to 7965
  140.1719  143.4187  152.1994 LP  0  0  0  0  0  0  0  0  0  0  0  0  # atno 17342 bound_to 10162
  139.5472  144.7308  151.4547 LP  0  0  0  0  0  0  0  0  0  0  0  0  # atno 17343 bound_to 10162
  156.9858  130.5544  149.5299 LP  0  0  0  0  0  0  0  0  0  0  0  0  # atno 17370 bound_to 10713
  156.0317  130.5408  150.8552 LP  0  0  0  0  0  0  0  0  0  0  0  0  # atno 17371 bound_to 10713
  140.5412  134.6118  157.5380 LP  0  0  0  0  0  0  0  0  0  0  0  0  # atno 17394 bound_to 11000
  139.9652  134.7384  156.0153 LP  0  0  0  0  0  0  0  0  0  0  0  0  # atno 17395 bound_to 11000

$$$$
