AV-unprocessed.smi:3058|AV-procd|sdf|11669|dock6
  -GOLD-   2272017 73D 1   1.00000     0.00000
 Structure written by MMmdl.
 38 40  0  0  0  0  0  0  0  0  1 V2000
  151.6805  141.5896  157.3460 O   0  0  0  0  0  0  0  0  0  0  0  0
  151.0042  142.5695  157.0321 C   0  0  0  0  0  0  0  0  0  0  0  0
  150.2988  142.6343  155.8921 N   0  0  0  0  0  0  0  0  0  0  0  0
  150.2346  141.5825  154.8848 C   0  0  0  0  0  0  0  0  0  0  0  0
  148.9326  140.7714  154.9934 C   0  0  0  0  0  0  0  0  0  0  0  0
  147.7039  141.6336  154.7810 C   0  0  0  0  0  0  0  0  0  0  0  0
  147.4689  142.2603  153.5398 C   0  0  0  0  0  0  0  0  0  0  0  0
  146.3125  143.0488  153.3864 C   0  0  0  0  0  0  0  0  0  0  0  0
  145.4387  143.1784  154.4845 C   0  0  0  0  0  0  0  0  0  0  0  0
  145.6535  142.5827  155.6774 N   0  0  0  0  0  0  0  0  0  0  0  0
  146.7644  141.8274  155.8159 C   0  0  0  0  0  0  0  0  0  0  0  0
  150.9278  143.8044  157.9469 C   0  0  2  0  0  0  0  0  0  0  0  0
  152.3105  144.4414  158.2311 C   0  0  0  0  0  0  0  0  0  0  0  0
  152.3745  144.4748  159.7705 C   0  0  1  0  0  0  0  0  0  0  0  0
  151.3541  145.4981  160.3052 C   0  0  0  0  0  0  0  0  0  0  0  0
  150.0059  144.7915  160.0637 C   0  0  0  0  0  0  0  0  0  0  0  0
  150.4323  143.4788  159.3793 C   0  0  2  0  0  0  0  0  0  0  0  0
  151.7165  143.1536  160.1420 C   0  0  0  0  0  0  0  0  0  0  0  0
  149.7676  143.4736  155.7102 H   0  0  0  0  0  0  0  0  0  0  0  0
  150.3360  142.0157  153.8881 H   0  0  0  0  0  0  0  0  0  0  0  0
  151.0936  140.9261  155.0267 H   0  0  0  0  0  0  0  0  0  0  0  0
  148.9344  139.9616  154.2625 H   0  0  0  0  0  0  0  0  0  0  0  0
  148.8592  140.2991  155.9740 H   0  0  0  0  0  0  0  0  0  0  0  0
  148.1607  142.1379  152.7192 H   0  0  0  0  0  0  0  0  0  0  0  0
  146.1001  143.5429  152.4498 H   0  0  0  0  0  0  0  0  0  0  0  0
  144.5431  143.7766  154.4021 H   0  0  0  0  0  0  0  0  0  0  0  0
  146.9056  141.3633  156.7809 H   0  0  0  0  0  0  0  0  0  0  0  0
  150.2659  144.5383  157.4835 H   0  0  0  0  0  0  0  0  0  0  0  0
  153.1307  143.8419  157.8322 H   0  0  0  0  0  0  0  0  0  0  0  0
  152.3981  145.4385  157.7980 H   0  0  0  0  0  0  0  0  0  0  0  0
  153.3819  144.6147  160.1639 H   0  0  0  0  0  0  0  0  0  0  0  0
  151.5054  145.6816  161.3697 H   0  0  0  0  0  0  0  0  0  0  0  0
  151.4210  146.4556  159.7873 H   0  0  0  0  0  0  0  0  0  0  0  0
  149.5062  144.5877  161.0117 H   0  0  0  0  0  0  0  0  0  0  0  0
  149.3259  145.3842  159.4507 H   0  0  0  0  0  0  0  0  0  0  0  0
  149.6691  142.7005  159.4227 H   0  0  0  0  0  0  0  0  0  0  0  0
  152.2548  142.2825  159.7674 H   0  0  0  0  0  0  0  0  0  0  0  0
  151.5626  143.0352  161.2161 H   0  0  0  0  0  0  0  0  0  0  0  0
  1  2  2  0  0  0  0
  2  3  1  0  0  0  0
  2 12  1  0  0  0  0
  3  4  1  0  0  0  0
  3 19  1  0  0  0  0
  4  5  1  0  0  0  0
  4 20  1  0  0  0  0
  4 21  1  0  0  0  0
  5  6  1  0  0  0  0
  5 22  1  0  0  0  0
  5 23  1  0  0  0  0
  6 11  1  0  0  0  0
  6  7  2  0  0  0  0
  7  8  1  0  0  0  0
  7 24  1  0  0  0  0
  8  9  2  0  0  0  0
  8 25  1  0  0  0  0
  9 10  1  0  0  0  0
  9 26  1  0  0  0  0
 10 11  2  0  0  0  0
 11 27  1  0  0  0  0
 12 17  1  0  0  0  0
 12 13  1  0  0  0  0
 12 28  1  0  0  0  0
 13 14  1  0  0  0  0
 13 29  1  0  0  0  0
 13 30  1  0  0  0  0
 14 18  1  0  0  0  0
 14 15  1  0  0  0  0
 14 31  1  0  0  0  0
 15 16  1  0  0  0  0
 15 32  1  0  0  0  0
 15 33  1  0  0  0  0
 16 17  1  0  0  0  0
 16 34  1  0  0  0  0
 16 35  1  0  0  0  0
 17 18  1  0  0  0  0
 17 36  1  0  0  0  0
 18 37  1  0  0  0  0
 18 38  1  0  0  0  0
M  END
> <s_m_source_file>
AV-unprocessed.smi

> <i_m_source_file_index>
3058

> <i_lp_mmshare_version>
43012

> <i_f3d_flags>
0

> <s_epik_input>
W0NIMl0xW0NIMl1bQ0BIXShbQ0gyXTIpW0NAQEhdKFtDSDJdW0NAQEhdMTIpQyg9TylbTkhdW0NIMl1bQ0gyXWMzW2NIXVtjSF1bY0hdbltjSF0z

> <s_epik_cmdline>
J2VwaWtfcHl0aG9uJywgJy1waCcsICc3LjAnLCAnLXRuJywgJzgnLCAnLW1hJywgJzIwMCcsICctbWV0YWxfYmluZGluZycsICctaW1hZScsICc8aW5maWxlLm1hZT4nLCAnLW9tYWUnLCAnPG91dGZpbGUubWFlPic=

> <r_epik_Ionization_Penalty>
0.0135821

> <r_epik_Ionization_Penalty_Charging>
0

> <r_epik_Ionization_Penalty_Neutral>
0.0135821

> <r_epik_State_Penalty>
0.0105782

> <r_epik_Charging_Adjusted_Penalty>
0.0105782

> <i_epik_Tot_Q>
0

> <i_epik_Tot_abs_Q>
0

> <r_epik_Metal_State_Penalty>
0.0103407

> <b_epik_Metal_Only>
0

> <s_lp_Force_Field>
OPLS_2005

> <r_lp_Energy>
46.4183

> <b_lp_Chiralities_Consistent>
1

> <s_lp_Variant>
AV-unprocessed.smi:3058-1

> <Gold.Version>
5.8.1

> <Gold.Id.Protein>
6NUR|6NUR_protein|mol2

> <Gold.PLP.Fitness>
45.3655

> <Gold.PLP.PLP>
-42.6485

> <Gold.PLP.part.hbond>
-1.0000

> <Gold.PLP.part.metal>
0.0000

> <Gold.PLP.part.buried>
-6.4345

> <Gold.PLP.part.nonpolar>
-35.7605

> <Gold.PLP.part.repulsive>
0.2821

> <Gold.PLP.ligand.clash>
0.0000

> <Gold.PLP.ligand.torsion>
0.1596

> <Gold.PLP.Chemscore.Hbond>
1.0000

> <Gold.PLP.Chemscore.CHOScore>
0.0000

> <Gold.PLP.Chemscore.Metal>
0.0000

> <Gold.Chemscore.Hbonds>
donor molecule, donor type, donor heavy atom, donor atom, acceptor molecule, acceptor atom, score
      L1  H     3    19       P1  8028  0.99

> <Gold.PLP.Chemscore.Internal.Correction>
0.0362

> <Gold.Rescore>
     Score         DG    S(hbond)    S(metal)    S(lipo)     H(rot)  DE(clash)    DE(int)     intcor
     18.86     -19.09       1.00        0.00     117.73       1.37       0.00       0.23       ----

> <Gold.Chemscore.Fitness>
18.8606

> <Gold.Chemscore.DG>
-19.0875

> <Gold.Chemscore.ZeroCoef>
-5.4800

> <Gold.Chemscore.Hbond>
0.9965

> <Gold.Chemscore.Metal>
0.0000

> <Gold.Chemscore.Lipo>
117.7291

> <Gold.Chemscore.Internal_Hbond>
0.0000

> <Gold.Chemscore.DEClash>
0.0015

> <Gold.Chemscore.DEInternal>
0.2255

> <Gold.Chemscore.Rot>
1.3653

> <Gold.Chemscore.Internal.Correction>
   9.000000E+99

> <Gold.Chemscore.Hbonds>
donor molecule, donor type, donor heavy atom, donor atom, acceptor molecule, acceptor atom, score
      L1  H     3    19       P1  8028  0.92

> <Gold.Chemscore.Hbond.Weighted>
-3.3283

> <Gold.Chemscore.Metal.Weighted>
-0.0000

> <Gold.Chemscore.Lipo.Weighted>
-13.7743

> <Gold.Chemscore.Internal_Hbond.Weighted>
0.0000

> <Gold.Chemscore.DEClash.Weighted>
0.0015

> <Gold.Chemscore.DEInternal.Weighted>
0.2255

> <Gold.Chemscore.Rot.Weighted>
3.4951

> <Gold.Chemscore.Internal.Correction.Weighted>
   9.000000E+99

> <Gold.Protein.RotatedTorsions>
[ 6907 6896 6895 6894 ] final   41.86 input  -60.11 | X-H torsion
[ 7974 7965 7964 7962 ] final   21.36 input  175.53 | X-H torsion
[ 8008 7997 7996 7995 ] final -162.59 input   59.86 | X-H torsion
[ 10167 10162 10161 10158 ] final  166.89 input  -65.29 | X-H torsion
[ 10718 10713 10712 10709 ] final -124.36 input   66.30 | X-H torsion
[ 10763 10752 10751 10750 ] final  -37.47 input  -60.55 | X-H torsion
[ 11005 11000 10999 10996 ] final   -9.59 input  -57.11 | X-H torsion

> <Gold.Protein.ActiveResidues>
 VAL166  LYS551  ARG553  GLY616  TRP617  ASP618  TYR619  PRO620  LYS621  CYS622 
 ASP623  PHE694  ASN695  SER759  ASP760  ASP761  ALA762  ILE779  LEU786  VAL792 
 PHE793  MET794  SER795  GLU796  ALA797  LYS798  CYS799  TRP800  GLU811  SER814 

> <Gold.Protein.RotatedAtoms>
  152.2006  134.8591  160.0508 H   0  0  0  0  0  0  0  0  0  0  0  0  # atno 6907 bound_to 6896
  151.9446  133.3643  159.3985 H   0  0  0  0  0  0  0  0  0  0  0  0  # atno 6908 bound_to 6896
  150.6954  134.4328  159.5300 H   0  0  0  0  0  0  0  0  0  0  0  0  # atno 6909 bound_to 6896
  146.2074  139.8038  142.8715 H   0  0  0  0  0  0  0  0  0  0  0  0  # atno 7974 bound_to 7965
  155.8091  140.0903  157.1914 H   0  0  0  0  0  0  0  0  0  0  0  0  # atno 8008 bound_to 7997
  154.3980  140.1458  156.3424 H   0  0  0  0  0  0  0  0  0  0  0  0  # atno 8009 bound_to 7997
  155.8384  140.3440  155.5619 H   0  0  0  0  0  0  0  0  0  0  0  0  # atno 8010 bound_to 7997
  139.4934  144.3980  151.9442 H   0  0  0  0  0  0  0  0  0  0  0  0  # atno 10167 bound_to 10162
  156.1581  130.6582  151.0010 H   0  0  0  0  0  0  0  0  0  0  0  0  # atno 10718 bound_to 10713
  153.8968  135.6806  153.4757 H   0  0  0  0  0  0  0  0  0  0  0  0  # atno 10763 bound_to 10752
  153.1151  135.4765  154.9098 H   0  0  0  0  0  0  0  0  0  0  0  0  # atno 10764 bound_to 10752
  154.7595  135.3206  154.8360 H   0  0  0  0  0  0  0  0  0  0  0  0  # atno 10765 bound_to 10752
  140.7357  133.8712  155.8928 H   0  0  0  0  0  0  0  0  0  0  0  0  # atno 11005 bound_to 11000
  145.3268  141.0257  143.3469 LP  0  0  0  0  0  0  0  0  0  0  0  0  # atno 17320 bound_to 7965
  144.8827  139.4881  143.6715 LP  0  0  0  0  0  0  0  0  0  0  0  0  # atno 17321 bound_to 7965
  140.3418  144.3194  150.5966 LP  0  0  0  0  0  0  0  0  0  0  0  0  # atno 17342 bound_to 10162
  140.5559  143.2199  151.7848 LP  0  0  0  0  0  0  0  0  0  0  0  0  # atno 17343 bound_to 10162
  157.6711  131.0861  150.7610 LP  0  0  0  0  0  0  0  0  0  0  0  0  # atno 17370 bound_to 10713
  156.7674  130.4818  149.5425 LP  0  0  0  0  0  0  0  0  0  0  0  0  # atno 17371 bound_to 10713
  140.9881  134.1315  157.4433 LP  0  0  0  0  0  0  0  0  0  0  0  0  # atno 17394 bound_to 11000
  139.8816  135.0032  156.6172 LP  0  0  0  0  0  0  0  0  0  0  0  0  # atno 17395 bound_to 11000

$$$$
