AV-unprocessed.smi:2946|AV-procd|sdf|11281|dock8
  -GOLD-   2272016173D 1   1.00000     0.00000
 Structure written by MMmdl.
 35 36  0  0  0  0  0  0  0  0  1 V2000
  151.0356  142.7649  158.6818 C   0  0  0  0  0  0  0  0  0  0  0  0
  152.0090  142.2225  159.6081 N   0  0  0  0  0  0  0  0  0  0  0  0
  152.7563  141.0624  159.3853 C   0  0  0  0  0  0  0  0  0  0  0  0
  152.5407  140.3730  158.1968 N   0  0  0  0  0  0  0  0  0  0  0  0
  151.6047  140.7365  157.1430 C   0  0  0  0  0  0  0  0  0  0  0  0
  151.7887  139.8692  155.8881 C   0  0  1  0  0  0  0  0  0  0  0  0
  151.8815  138.3616  156.1380 C   0  0  0  0  0  0  0  0  0  0  0  0
  151.4045  137.8076  154.8146 C   0  0  0  0  0  0  0  0  0  0  0  0
  150.3021  138.7951  154.4434 C   0  0  0  0  0  0  0  0  0  0  0  0
  150.7140  140.0538  154.9695 O   0  0  0  0  0  0  0  0  0  0  0  0
  153.6681  140.6318  160.3015 C   0  0  0  0  0  0  0  0  0  0  0  0
  154.5028  139.4888  160.1017 C   0  0  0  0  0  0  0  0  0  0  0  0
  155.1651  138.5548  159.9283 N   0  0  0  0  0  0  0  0  0  0  0  0
  153.8942  141.3378  161.5606 C   0  0  0  0  0  0  0  0  0  0  0  0
  154.7202  140.9861  162.4063 O   0  0  0  0  0  0  0  0  0  0  0  0
  153.0896  142.4796  161.7501 N   0  0  0  0  0  0  0  0  0  0  0  0
  153.2849  143.2089  162.9879 C   0  0  0  0  0  0  0  0  0  0  0  0
  152.1502  142.9562  160.8116 C   0  0  0  0  0  0  0  0  0  0  0  0
  151.4798  143.9714  161.0223 O   0  0  0  0  0  0  0  0  0  0  0  0
  151.0547  142.2186  157.7416 H   0  0  0  0  0  0  0  0  0  0  0  0
  151.2986  143.8072  158.4915 H   0  0  0  0  0  0  0  0  0  0  0  0
  150.0550  142.6728  159.1524 H   0  0  0  0  0  0  0  0  0  0  0  0
  153.3596  139.9096  157.8290 H   0  0  0  0  0  0  0  0  0  0  0  0
  150.5907  140.6268  157.5282 H   0  0  0  0  0  0  0  0  0  0  0  0
  151.7303  141.7831  156.8666 H   0  0  0  0  0  0  0  0  0  0  0  0
  152.6978  140.1848  155.3742 H   0  0  0  0  0  0  0  0  0  0  0  0
  152.8881  138.0358  156.4006 H   0  0  0  0  0  0  0  0  0  0  0  0
  151.2055  138.0453  156.9324 H   0  0  0  0  0  0  0  0  0  0  0  0
  152.2094  137.8478  154.0794 H   0  0  0  0  0  0  0  0  0  0  0  0
  151.0510  136.7783  154.8813 H   0  0  0  0  0  0  0  0  0  0  0  0
  150.1331  138.8479  153.3677 H   0  0  0  0  0  0  0  0  0  0  0  0
  149.3630  138.5110  154.9195 H   0  0  0  0  0  0  0  0  0  0  0  0
  152.5109  143.9620  163.1326 H   0  0  0  0  0  0  0  0  0  0  0  0
  154.2688  143.6771  162.9298 H   0  0  0  0  0  0  0  0  0  0  0  0
  153.2326  142.4918  163.8095 H   0  0  0  0  0  0  0  0  0  0  0  0
  1  2  1  0  0  0  0
  1 20  1  0  0  0  0
  1 21  1  0  0  0  0
  1 22  1  0  0  0  0
  2 18  1  0  0  0  0
  2  3  1  0  0  0  0
  3  4  1  0  0  0  0
  3 11  2  0  0  0  0
  4  5  1  0  0  0  0
  4 23  1  0  0  0  0
  5  6  1  0  0  0  0
  5 24  1  0  0  0  0
  5 25  1  0  0  0  0
  6 10  1  0  0  0  0
  6  7  1  0  0  0  0
  6 26  1  0  0  0  0
  7  8  1  0  0  0  0
  7 27  1  0  0  0  0
  7 28  1  0  0  0  0
  8  9  1  0  0  0  0
  8 29  1  0  0  0  0
  8 30  1  0  0  0  0
  9 10  1  0  0  0  0
  9 31  1  0  0  0  0
  9 32  1  0  0  0  0
 11 12  1  0  0  0  0
 11 14  1  0  0  0  0
 12 13  3  0  0  0  0
 14 15  2  0  0  0  0
 14 16  1  0  0  0  0
 16 17  1  0  0  0  0
 16 18  1  0  0  0  0
 17 33  1  0  0  0  0
 17 34  1  0  0  0  0
 17 35  1  0  0  0  0
 18 19  2  0  0  0  0
M  END
> <s_m_source_file>
AV-unprocessed.smi

> <i_m_source_file_index>
2946

> <i_lp_mmshare_version>
43012

> <i_f3d_flags>
0

> <s_epik_input>
Tz1jMW4oW0NIM10pYyg9TyljKEMjTiljKG4xW0NIM10pW05IXVtDSDJdW0NAQEhdMltDSDJdW0NIMl1bQ0gyXU8y

> <s_epik_cmdline>
J2VwaWtfcHl0aG9uJywgJy1waCcsICc3LjAnLCAnLXRuJywgJzgnLCAnLW1hJywgJzIwMCcsICctbWV0YWxfYmluZGluZycsICctaW1hZScsICc8aW5maWxlLm1hZT4nLCAnLW9tYWUnLCAnPG91dGZpbGUubWFlPic=

> <r_epik_Ionization_Penalty>
0.000541801

> <r_epik_Ionization_Penalty_Charging>
8.97317e-10

> <r_epik_Ionization_Penalty_Neutral>
0.000541801

> <r_epik_State_Penalty>
0.000338907

> <r_epik_Charging_Adjusted_Penalty>
0.000338908

> <i_epik_Tot_Q>
0

> <i_epik_Tot_abs_Q>
0

> <r_epik_Metal_State_Penalty>
-0

> <b_epik_Metal_Only>
0

> <s_lp_Force_Field>
OPLS_2005

> <r_lp_Energy>
39.9681

> <b_lp_Chiralities_Consistent>
1

> <s_lp_Variant>
AV-unprocessed.smi:2946-2

> <Gold.Version>
5.8.1

> <Gold.Id.Protein>
6NUR|6NUR_protein|mol2

> <Gold.PLP.Fitness>
42.9008

> <Gold.PLP.PLP>
-42.4069

> <Gold.PLP.part.hbond>
-2.0000

> <Gold.PLP.part.metal>
0.0000

> <Gold.PLP.part.buried>
-6.7501

> <Gold.PLP.part.nonpolar>
-34.1500

> <Gold.PLP.part.repulsive>
0.4029

> <Gold.PLP.ligand.clash>
12.1893

> <Gold.PLP.ligand.torsion>
0.1072

> <Gold.PLP.Chemscore.Hbond>
1.0000

> <Gold.PLP.Chemscore.CHOScore>
0.0000

> <Gold.PLP.Chemscore.Metal>
0.0000

> <Gold.Chemscore.Hbonds>
donor molecule, donor type, donor heavy atom, donor atom, acceptor molecule, acceptor atom, score
      P1  H  7989  7998       L1    10  1.00

> <Gold.PLP.Chemscore.Internal.Correction>
9.8975

> <Gold.Rescore>
     Score         DG    S(hbond)    S(metal)    S(lipo)     H(rot)  DE(clash)    DE(int)     intcor
     10.94     -12.78       0.90        0.00      65.12       1.29       0.14       1.70       ----

> <Gold.Chemscore.Fitness>
10.9418

> <Gold.Chemscore.DG>
-12.7779

> <Gold.Chemscore.ZeroCoef>
-5.4800

> <Gold.Chemscore.Hbond>
0.8962

> <Gold.Chemscore.Metal>
0.0000

> <Gold.Chemscore.Lipo>
65.1167

> <Gold.Chemscore.Internal_Hbond>
0.0000

> <Gold.Chemscore.DEClash>
0.1397

> <Gold.Chemscore.DEInternal>
1.6964

> <Gold.Chemscore.Rot>
1.2946

> <Gold.Chemscore.Internal.Correction>
   9.000000E+99

> <Gold.Chemscore.Hbonds>
donor molecule, donor type, donor heavy atom, donor atom, acceptor molecule, acceptor atom, score
      P1  H  7989  7998       L1    10  0.12

> <Gold.Chemscore.Hbond.Weighted>
-2.9933

> <Gold.Chemscore.Metal.Weighted>
-0.0000

> <Gold.Chemscore.Lipo.Weighted>
-7.6187

> <Gold.Chemscore.Internal_Hbond.Weighted>
0.0000

> <Gold.Chemscore.DEClash.Weighted>
0.1397

> <Gold.Chemscore.DEInternal.Weighted>
1.6964

> <Gold.Chemscore.Rot.Weighted>
3.3141

> <Gold.Chemscore.Internal.Correction.Weighted>
   9.000000E+99

> <Gold.Protein.RotatedTorsions>
[ 6907 6896 6895 6894 ] final  -36.10 input  -60.11 | X-H torsion
[ 7974 7965 7964 7962 ] final  -12.90 input  175.53 | X-H torsion
[ 8008 7997 7996 7995 ] final -101.12 input   59.86 | X-H torsion
[ 10167 10162 10161 10158 ] final   91.23 input  -65.29 | X-H torsion
[ 10718 10713 10712 10709 ] final  101.58 input   66.30 | X-H torsion
[ 10763 10752 10751 10750 ] final  -32.84 input  -60.55 | X-H torsion
[ 11005 11000 10999 10996 ] final  -68.88 input  -57.11 | X-H torsion

> <Gold.Protein.ActiveResidues>
 VAL166  LYS551  ARG553  GLY616  TRP617  ASP618  TYR619  PRO620  LYS621  CYS622 
 ASP623  PHE694  ASN695  SER759  ASP760  ASP761  ALA762  ILE779  LEU786  VAL792 
 PHE793  MET794  SER795  GLU796  ALA797  LYS798  CYS799  TRP800  GLU811  SER814 

> <Gold.Protein.RotatedAtoms>
  151.0314  134.9542  159.8112 H   0  0  0  0  0  0  0  0  0  0  0  0  # atno 6907 bound_to 6896
  152.5346  134.2775  159.9005 H   0  0  0  0  0  0  0  0  0  0  0  0  # atno 6908 bound_to 6896
  151.2785  133.4179  159.2659 H   0  0  0  0  0  0  0  0  0  0  0  0  # atno 6909 bound_to 6896
  146.2134  140.3125  142.8383 H   0  0  0  0  0  0  0  0  0  0  0  0  # atno 7974 bound_to 7965
  154.8381  140.0436  157.1523 H   0  0  0  0  0  0  0  0  0  0  0  0  # atno 8008 bound_to 7997
  154.9077  140.3009  155.5263 H   0  0  0  0  0  0  0  0  0  0  0  0  # atno 8009 bound_to 7997
  156.2991  140.2364  156.4112 H   0  0  0  0  0  0  0  0  0  0  0  0  # atno 8010 bound_to 7997
  139.8395  144.6648  150.9301 H   0  0  0  0  0  0  0  0  0  0  0  0  # atno 10167 bound_to 10162
  157.6825  131.0730  150.5273 H   0  0  0  0  0  0  0  0  0  0  0  0  # atno 10718 bound_to 10713
  153.8204  135.6875  153.4828 H   0  0  0  0  0  0  0  0  0  0  0  0  # atno 10763 bound_to 10752
  153.1573  135.4594  154.9720 H   0  0  0  0  0  0  0  0  0  0  0  0  # atno 10764 bound_to 10752
  154.7930  135.3308  154.7676 H   0  0  0  0  0  0  0  0  0  0  0  0  # atno 10765 bound_to 10752
  141.1542  133.6751  156.6514 H   0  0  0  0  0  0  0  0  0  0  0  0  # atno 11005 bound_to 11000
  144.8978  140.7605  143.5886 LP  0  0  0  0  0  0  0  0  0  0  0  0  # atno 17320 bound_to 7965
  145.3050  139.1837  143.4669 LP  0  0  0  0  0  0  0  0  0  0  0  0  # atno 17321 bound_to 7965
  140.7799  143.3926  151.1284 LP  0  0  0  0  0  0  0  0  0  0  0  0  # atno 17342 bound_to 10162
  139.7573  143.8688  152.3092 LP  0  0  0  0  0  0  0  0  0  0  0  0  # atno 17343 bound_to 10162
  156.5584  130.4249  149.6074 LP  0  0  0  0  0  0  0  0  0  0  0  0  # atno 17370 bound_to 10713
  156.2842  130.7088  151.1920 LP  0  0  0  0  0  0  0  0  0  0  0  0  # atno 17371 bound_to 10713
  140.3317  134.7923  157.4331 LP  0  0  0  0  0  0  0  0  0  0  0  0  # atno 17394 bound_to 11000
  140.1011  134.5471  155.8352 LP  0  0  0  0  0  0  0  0  0  0  0  0  # atno 17395 bound_to 11000

$$$$
