AV-unprocessed.smi:2799|AV-procd|sdf|10790|dock1
  -GOLD-   2272015223D 1   1.00000     0.00000
 Structure written by MMmdl.
 52 53  0  0  0  0  0  0  0  0  2 V2000
  144.7791  137.0864  153.5230 C   0  0  0  0  0  0  0  0  0  0  0  0
  145.5034  137.7832  152.3587 C   0  0  0  0  0  0  0  0  0  0  0  0
  145.9288  136.7544  151.3009 C   0  0  0  0  0  0  0  0  0  0  0  0
  146.7252  138.5999  152.8382 C   0  0  0  0  0  0  0  0  0  0  0  0
  146.3856  139.8263  153.6139 N   0  3  1  0  0  0  0  0  0  0  0  0
  145.8372  139.5001  154.9580 C   0  0  0  0  0  0  0  0  0  0  0  0
  145.2621  140.7479  155.6466 C   0  0  0  0  0  0  0  0  0  0  0  0
  146.3094  141.8632  155.7349 C   0  0  0  0  0  0  0  0  0  0  0  0
  146.8705  142.1598  154.3378 C   0  0  0  0  0  0  0  0  0  0  0  0
  147.4367  140.8919  153.6551 C   0  0  1  0  0  0  0  0  0  0  0  0
  148.7804  140.4079  154.2667 C   0  0  0  0  0  0  0  0  0  0  0  0
  149.5123  141.4852  154.9248 N   0  0  0  0  0  0  0  0  0  0  0  0
  149.9408  141.4508  156.1945 C   0  0  0  0  0  0  0  0  0  0  0  0
  149.7415  140.4947  156.9438 O   0  0  0  0  0  0  0  0  0  0  0  0
  150.6228  142.5687  156.5039 N   0  0  0  0  0  0  0  0  0  0  0  0
  151.2354  142.9298  157.7167 C   0  0  0  0  0  0  0  0  0  0  0  0
  151.2086  144.1761  158.2523 C   0  0  0  0  0  0  0  0  0  0  0  0
  151.8719  144.4611  159.5020 C   0  0  0  0  0  0  0  0  0  0  0  0
  152.5259  143.4664  160.1178 C   0  0  0  0  0  0  0  0  0  0  0  0
  152.5767  142.1709  159.5757 N   0  0  0  0  0  0  0  0  0  0  0  0
  153.3191  141.1523  160.3227 C   0  0  0  0  0  0  0  0  0  0  0  0
  151.9658  141.8430  158.3983 C   0  0  0  0  0  0  0  0  0  0  0  0
  152.0289  140.6980  157.9435 O   0  0  0  0  0  0  0  0  0  0  0  0
  145.4447  136.4052  154.0542 H   0  0  0  0  0  0  0  0  0  0  0  0
  143.9295  136.5053  153.1631 H   0  0  0  0  0  0  0  0  0  0  0  0
  144.3938  137.8066  154.2449 H   0  0  0  0  0  0  0  0  0  0  0  0
  144.7958  138.4482  151.8646 H   0  0  0  0  0  0  0  0  0  0  0  0
  146.6399  136.0347  151.7080 H   0  0  0  0  0  0  0  0  0  0  0  0
  146.3998  137.2410  150.4462 H   0  0  0  0  0  0  0  0  0  0  0  0
  145.0693  136.1973  150.9264 H   0  0  0  0  0  0  0  0  0  0  0  0
  147.3342  137.9538  153.4721 H   0  0  0  0  0  0  0  0  0  0  0  0
  147.3621  138.8620  151.9931 H   0  0  0  0  0  0  0  0  0  0  0  0
  145.0437  138.7582  154.8593 H   0  0  0  0  0  0  0  0  0  0  0  0
  146.6098  139.0443  155.5781 H   0  0  0  0  0  0  0  0  0  0  0  0
  144.3949  141.1049  155.0893 H   0  0  0  0  0  0  0  0  0  0  0  0
  144.9041  140.4925  156.6444 H   0  0  0  0  0  0  0  0  0  0  0  0
  145.8625  142.7632  156.1583 H   0  0  0  0  0  0  0  0  0  0  0  0
  147.1133  141.5696  156.4105 H   0  0  0  0  0  0  0  0  0  0  0  0
  146.0708  142.5673  153.7175 H   0  0  0  0  0  0  0  0  0  0  0  0
  147.6241  142.9455  154.3964 H   0  0  0  0  0  0  0  0  0  0  0  0
  147.6331  141.1891  152.6262 H   0  0  0  0  0  0  0  0  0  0  0  0
  148.6144  139.6242  155.0049 H   0  0  0  0  0  0  0  0  0  0  0  0
  149.4279  139.9746  153.5042 H   0  0  0  0  0  0  0  0  0  0  0  0
  149.7169  142.3056  154.3727 H   0  0  0  0  0  0  0  0  0  0  0  0
  150.7588  143.2327  155.7553 H   0  0  0  0  0  0  0  0  0  0  0  0
  150.7099  144.9967  157.7627 H   0  0  0  0  0  0  0  0  0  0  0  0
  151.8401  145.4518  159.9308 H   0  0  0  0  0  0  0  0  0  0  0  0
  153.0452  143.5990  161.0557 H   0  0  0  0  0  0  0  0  0  0  0  0
  152.6620  140.3272  160.6016 H   0  0  0  0  0  0  0  0  0  0  0  0
  153.7593  141.5408  161.2417 H   0  0  0  0  0  0  0  0  0  0  0  0
  154.1332  140.7503  159.7179 H   0  0  0  0  0  0  0  0  0  0  0  0
  145.6140  140.2426  153.1126 H   0  0  0  0  0  0  0  0  0  0  0  0
  1  2  1  0  0  0  0
  1 24  1  0  0  0  0
  1 25  1  0  0  0  0
  1 26  1  0  0  0  0
  2  3  1  0  0  0  0
  2  4  1  0  0  0  0
  2 27  1  0  0  0  0
  3 28  1  0  0  0  0
  3 29  1  0  0  0  0
  3 30  1  0  0  0  0
  4  5  1  0  0  0  0
  4 31  1  0  0  0  0
  4 32  1  0  0  0  0
  5 10  1  0  0  0  0
  5  6  1  0  0  0  0
  5 52  1  0  0  0  0
  6  7  1  0  0  0  0
  6 33  1  0  0  0  0
  6 34  1  0  0  0  0
  7  8  1  0  0  0  0
  7 35  1  0  0  0  0
  7 36  1  0  0  0  0
  8  9  1  0  0  0  0
  8 37  1  0  0  0  0
  8 38  1  0  0  0  0
  9 10  1  0  0  0  0
  9 39  1  0  0  0  0
  9 40  1  0  0  0  0
 10 11  1  0  0  0  0
 10 41  1  0  0  0  0
 11 12  1  0  0  0  0
 11 42  1  0  0  0  0
 11 43  1  0  0  0  0
 12 13  1  0  0  0  0
 12 44  1  0  0  0  0
 13 14  2  0  0  0  0
 13 15  1  0  0  0  0
 15 16  1  0  0  0  0
 15 45  1  0  0  0  0
 16 22  1  0  0  0  0
 16 17  2  0  0  0  0
 17 18  1  0  0  0  0
 17 46  1  0  0  0  0
 18 19  2  0  0  0  0
 18 47  1  0  0  0  0
 19 20  1  0  0  0  0
 19 48  1  0  0  0  0
 20 21  1  0  0  0  0
 20 22  1  0  0  0  0
 21 49  1  0  0  0  0
 21 50  1  0  0  0  0
 21 51  1  0  0  0  0
 22 23  2  0  0  0  0
M  CHG  1   5   1
M  END
> <s_m_source_file>
AV-unprocessed.smi

> <i_m_source_file_index>
2799

> <i_lp_mmshare_version>
43012

> <i_f3d_flags>
0

> <s_epik_input>
W0NIM11bQ0hdKFtDSDNdKVtDSDJdTjFbQ0gyXVtDSDJdW0NIMl1bQ0gyXVtDQEhdMVtDSDJdW05IXUMoPU8pW05IXWMyW2NIXVtjSF1bY0hdbihbQ0gzXSljMj1P

> <s_epik_cmdline>
J2VwaWtfcHl0aG9uJywgJy1waCcsICc3LjAnLCAnLXRuJywgJzgnLCAnLW1hJywgJzIwMCcsICctbWV0YWxfYmluZGluZycsICctaW1hZScsICc8aW5maWxlLm1hZT4nLCAnLW9tYWUnLCAnPG91dGZpbGUubWFlPic=

> <r_lp_tautomer_probability>
1

> <r_epik_Ionization_Penalty>
0.0010885

> <r_epik_Ionization_Penalty_Charging>
0.00106921

> <r_epik_Ionization_Penalty_Neutral>
1.92865e-05

> <r_epik_State_Penalty>
0.000697184

> <r_epik_Charging_Adjusted_Penalty>
0.0017664

> <i_epik_Tot_Q>
1

> <i_epik_Tot_abs_Q>
1

> <r_epik_Metal_State_Penalty>
-0

> <b_epik_Metal_Only>
0

> <s_lp_Force_Field>
OPLS_2005

> <r_lp_Energy>
35.5071

> <b_lp_Chiralities_Consistent>
1

> <s_lp_Variant>
AV-unprocessed.smi:2799-2

> <Gold.Version>
5.8.1

> <Gold.Id.Protein>
6NUR|6NUR_protein|mol2

> <Gold.PLP.Fitness>
50.7822

> <Gold.PLP.PLP>
-46.6311

> <Gold.PLP.part.hbond>
-2.0000

> <Gold.PLP.part.metal>
0.0000

> <Gold.PLP.part.buried>
-5.0340

> <Gold.PLP.part.nonpolar>
-41.9447

> <Gold.PLP.part.repulsive>
0.3383

> <Gold.PLP.ligand.clash>
0.0000

> <Gold.PLP.ligand.torsion>
0.9734

> <Gold.PLP.Chemscore.Hbond>
2.0000

> <Gold.PLP.Chemscore.CHOScore>
0.0000

> <Gold.PLP.Chemscore.Metal>
0.0000

> <Gold.Chemscore.Hbonds>
donor molecule, donor type, donor heavy atom, donor atom, acceptor molecule, acceptor atom, score
      L1  H     5    52       P1 10175  1.92
      L1  H    15    45       P1  8028  0.02

> <Gold.PLP.Chemscore.Internal.Correction>
0.0978

> <Gold.Rescore>
     Score         DG    S(hbond)    S(metal)    S(lipo)     H(rot)  DE(clash)    DE(int)     intcor
     14.36     -19.65       2.25        0.00      91.23       1.57       0.05       5.24       ----

> <Gold.Chemscore.Fitness>
14.3576

> <Gold.Chemscore.DG>
-19.6502

> <Gold.Chemscore.ZeroCoef>
-5.4800

> <Gold.Chemscore.Hbond>
2.2491

> <Gold.Chemscore.Metal>
0.0000

> <Gold.Chemscore.Lipo>
91.2333

> <Gold.Chemscore.Internal_Hbond>
0.0000

> <Gold.Chemscore.DEClash>
0.0489

> <Gold.Chemscore.DEInternal>
5.2437

> <Gold.Chemscore.Rot>
1.5688

> <Gold.Chemscore.Internal.Correction>
   9.000000E+99

> <Gold.Chemscore.Hbonds>
donor molecule, donor type, donor heavy atom, donor atom, acceptor molecule, acceptor atom, score
      L1  H     5    52       P1 10175  0.88
      L1  H    15    45       P1  8028  0.03

> <Gold.Chemscore.Hbond.Weighted>
-7.5120

> <Gold.Chemscore.Metal.Weighted>
-0.0000

> <Gold.Chemscore.Lipo.Weighted>
-10.6743

> <Gold.Chemscore.Internal_Hbond.Weighted>
0.0000

> <Gold.Chemscore.DEClash.Weighted>
0.0489

> <Gold.Chemscore.DEInternal.Weighted>
5.2437

> <Gold.Chemscore.Rot.Weighted>
4.0161

> <Gold.Chemscore.Internal.Correction.Weighted>
   9.000000E+99

> <Gold.Protein.RotatedTorsions>
[ 6907 6896 6895 6894 ] final  154.63 input  -60.11 | X-H torsion
[ 7974 7965 7964 7962 ] final  174.86 input  175.53 | X-H torsion
[ 8008 7997 7996 7995 ] final  116.32 input   59.86 | X-H torsion
[ 10167 10162 10161 10158 ] final   31.52 input  -65.29 | X-H torsion
[ 10718 10713 10712 10709 ] final  125.21 input   66.30 | X-H torsion
[ 10763 10752 10751 10750 ] final -122.66 input  -60.55 | X-H torsion
[ 11005 11000 10999 10996 ] final   28.35 input  -57.11 | X-H torsion

> <Gold.Protein.ActiveResidues>
 VAL166  LYS551  ARG553  GLY616  TRP617  ASP618  TYR619  PRO620  LYS621  CYS622 
 ASP623  PHE694  ASN695  SER759  ASP760  ASP761  ALA762  ILE779  LEU786  VAL792 
 PHE793  MET794  SER795  GLU796  ALA797  LYS798  CYS799  TRP800  GLU811  SER814 

> <Gold.Protein.RotatedAtoms>
  152.0557  133.4039  159.4395 H   0  0  0  0  0  0  0  0  0  0  0  0  # atno 6907 bound_to 6896
  150.6868  134.3257  159.4815 H   0  0  0  0  0  0  0  0  0  0  0  0  # atno 6908 bound_to 6896
  152.1072  134.9299  160.0618 H   0  0  0  0  0  0  0  0  0  0  0  0  # atno 6909 bound_to 6896
  144.7213  139.9860  143.6439 H   0  0  0  0  0  0  0  0  0  0  0  0  # atno 7974 bound_to 7965
  156.2432  140.2920  156.0505 H   0  0  0  0  0  0  0  0  0  0  0  0  # atno 8008 bound_to 7997
  155.1887  140.0406  157.2913 H   0  0  0  0  0  0  0  0  0  0  0  0  # atno 8009 bound_to 7997
  154.6209  140.2475  155.7557 H   0  0  0  0  0  0  0  0  0  0  0  0  # atno 8010 bound_to 7997
  140.4581  144.0948  150.6206 H   0  0  0  0  0  0  0  0  0  0  0  0  # atno 10167 bound_to 10162
  157.5522  131.1093  150.8682 H   0  0  0  0  0  0  0  0  0  0  0  0  # atno 10718 bound_to 10713
  154.8694  135.4125  154.2818 H   0  0  0  0  0  0  0  0  0  0  0  0  # atno 10763 bound_to 10752
  153.3710  135.7007  153.6644 H   0  0  0  0  0  0  0  0  0  0  0  0  # atno 10764 bound_to 10752
  153.5505  135.3630  155.2729 H   0  0  0  0  0  0  0  0  0  0  0  0  # atno 10765 bound_to 10752
  140.3165  134.2591  155.7724 H   0  0  0  0  0  0  0  0  0  0  0  0  # atno 11005 bound_to 11000
  146.0450  139.3457  143.0674 LP  0  0  0  0  0  0  0  0  0  0  0  0  # atno 17320 bound_to 7965
  145.8287  140.9642  143.0860 LP  0  0  0  0  0  0  0  0  0  0  0  0  # atno 17321 bound_to 7965
  140.4127  143.2649  151.9813 LP  0  0  0  0  0  0  0  0  0  0  0  0  # atno 17342 bound_to 10162
  139.4803  144.5901  151.7786 LP  0  0  0  0  0  0  0  0  0  0  0  0  # atno 17343 bound_to 10162
  156.9204  130.5313  149.5279 LP  0  0  0  0  0  0  0  0  0  0  0  0  # atno 17370 bound_to 10713
  156.0587  130.5643  150.9146 LP  0  0  0  0  0  0  0  0  0  0  0  0  # atno 17371 bound_to 10713
  141.2096  133.7743  156.9984 LP  0  0  0  0  0  0  0  0  0  0  0  0  # atno 17394 bound_to 11000
  140.0979  134.9553  157.1878 LP  0  0  0  0  0  0  0  0  0  0  0  0  # atno 17395 bound_to 11000

$$$$
