AV-unprocessed.smi:1203|AV-procd|sdf|5035|dock5
  -GOLD-   22720 4 63D 1   1.00000     0.00000
 Structure written by MMmdl.
 40 41  0  0  0  0  0  0  0  0  2 V2000
  149.3487  135.8123  156.6984 C   0  0  0  0  0  0  0  0  0  0  0  0
  150.7535  134.8278  156.0356 S   0  0  0  0  0  0  0  0  0  0  0  0
  150.9871  135.2315  154.6406 O   0  0  0  0  0  0  0  0  0  0  0  0
  151.8609  134.8598  157.0028 O   0  0  0  0  0  0  0  0  0  0  0  0
  150.1204  133.2180  156.0099 N   0  0  0  0  0  0  0  0  0  0  0  0
  150.7191  132.2116  156.8965 C   0  0  0  0  0  0  0  0  0  0  0  0
  150.3975  130.8619  156.2616 C   0  0  0  0  0  0  0  0  0  0  0  0
  150.3747  131.1816  154.7740 C   0  0  0  0  0  0  0  0  0  0  0  0
  149.8097  132.6113  154.7041 C   0  0  1  0  0  0  0  0  0  0  0  0
  148.3132  132.6564  154.3697 C   0  0  0  0  0  0  0  0  0  0  0  0
  147.6507  131.6202  154.3109 O   0  0  0  0  0  0  0  0  0  0  0  0
  147.7890  133.8753  154.1731 N   0  0  0  0  0  0  0  0  0  0  0  0
  146.3912  134.1537  153.8587 C   0  0  0  0  0  0  0  0  0  0  0  0
  146.1962  134.7643  152.4561 C   0  0  0  0  0  0  0  0  0  0  0  0
  145.4139  133.8756  151.5037 C   0  0  0  0  0  0  0  0  0  0  0  0
  145.9207  132.6162  151.1142 C   0  0  0  0  0  0  0  0  0  0  0  0
  145.1755  131.8159  150.2236 C   0  0  0  0  0  0  0  0  0  0  0  0
  143.9373  132.2913  149.7456 C   0  0  0  0  0  0  0  0  0  0  0  0
  143.4828  133.5000  150.1428 N   0  3  0  0  0  0  0  0  0  0  0  0
  144.1685  134.2984  150.9899 C   0  0  0  0  0  0  0  0  0  0  0  0
  149.6100  136.8703  156.6845 H   0  0  0  0  0  0  0  0  0  0  0  0
  149.1417  135.5084  157.7244 H   0  0  0  0  0  0  0  0  0  0  0  0
  148.4631  135.6455  156.0871 H   0  0  0  0  0  0  0  0  0  0  0  0
  151.7992  132.3588  156.9353 H   0  0  0  0  0  0  0  0  0  0  0  0
  150.3246  132.2999  157.9090 H   0  0  0  0  0  0  0  0  0  0  0  0
  151.1230  130.0896  156.5184 H   0  0  0  0  0  0  0  0  0  0  0  0
  149.4131  130.5220  156.5864 H   0  0  0  0  0  0  0  0  0  0  0  0
  151.3916  131.1705  154.3788 H   0  0  0  0  0  0  0  0  0  0  0  0
  149.7991  130.4506  154.2041 H   0  0  0  0  0  0  0  0  0  0  0  0
  150.3502  133.1493  153.9229 H   0  0  0  0  0  0  0  0  0  0  0  0
  148.4059  134.6713  154.2506 H   0  0  0  0  0  0  0  0  0  0  0  0
  145.8552  133.2063  153.9184 H   0  0  0  0  0  0  0  0  0  0  0  0
  145.9546  134.8014  154.6205 H   0  0  0  0  0  0  0  0  0  0  0  0
  145.6839  135.7231  152.5420 H   0  0  0  0  0  0  0  0  0  0  0  0
  147.1693  134.9845  152.0154 H   0  0  0  0  0  0  0  0  0  0  0  0
  146.8718  132.2679  151.4901 H   0  0  0  0  0  0  0  0  0  0  0  0
  145.5485  130.8514  149.9113 H   0  0  0  0  0  0  0  0  0  0  0  0
  143.3025  131.7466  149.0620 H   0  0  0  0  0  0  0  0  0  0  0  0
  143.7053  135.2457  151.2250 H   0  0  0  0  0  0  0  0  0  0  0  0
  142.5846  133.8254  149.7853 H   0  0  0  0  0  0  0  0  0  0  0  0
  1  2  1  0  0  0  0
  1 21  1  0  0  0  0
  1 22  1  0  0  0  0
  1 23  1  0  0  0  0
  2  3  2  0  0  0  0
  2  4  2  0  0  0  0
  2  5  1  0  0  0  0
  5  9  1  0  0  0  0
  5  6  1  0  0  0  0
  6  7  1  0  0  0  0
  6 24  1  0  0  0  0
  6 25  1  0  0  0  0
  7  8  1  0  0  0  0
  7 26  1  0  0  0  0
  7 27  1  0  0  0  0
  8  9  1  0  0  0  0
  8 28  1  0  0  0  0
  8 29  1  0  0  0  0
  9 10  1  0  0  0  0
  9 30  1  0  0  0  0
 10 11  2  0  0  0  0
 10 12  1  0  0  0  0
 12 13  1  0  0  0  0
 12 31  1  0  0  0  0
 13 14  1  0  0  0  0
 13 32  1  0  0  0  0
 13 33  1  0  0  0  0
 14 15  1  0  0  0  0
 14 34  1  0  0  0  0
 14 35  1  0  0  0  0
 15 20  1  0  0  0  0
 15 16  2  0  0  0  0
 16 17  1  0  0  0  0
 16 36  1  0  0  0  0
 17 18  2  0  0  0  0
 17 37  1  0  0  0  0
 18 19  1  0  0  0  0
 18 38  1  0  0  0  0
 19 20  2  0  0  0  0
 19 40  1  0  0  0  0
 20 39  1  0  0  0  0
M  CHG  1  19   1
M  END
> <s_m_source_file>
AV-unprocessed.smi

> <i_m_source_file_index>
1203

> <i_lp_mmshare_version>
43012

> <i_f3d_flags>
0

> <s_epik_input>
W0NIM11TKD1PKSg9TylOMVtDSDJdW0NIMl1bQ0gyXVtDQEhdMUMoPU8pW05IXVtDSDJdW0NIMl1jMltjSF1bY0hdW2NIXW5bY0hdMg==

> <s_epik_cmdline>
J2VwaWtfcHl0aG9uJywgJy1waCcsICc3LjAnLCAnLXRuJywgJzgnLCAnLW1hJywgJzIwMCcsICctbWV0YWxfYmluZGluZycsICctaW1hZScsICc8aW5maWxlLm1hZT4nLCAnLW9tYWUnLCAnPG91dGZpbGUubWFlPic=

> <r_epik_Ionization_Penalty>
2.2835

> <r_epik_Ionization_Penalty_Charging>
2.2835

> <r_epik_Ionization_Penalty_Neutral>
1.4017e-07

> <r_epik_State_Penalty>
2.43297

> <r_epik_Charging_Adjusted_Penalty>
4.71647

> <i_epik_Tot_Q>
1

> <i_epik_Tot_abs_Q>
1

> <r_epik_Metal_State_Penalty>
2.44558

> <b_epik_Metal_Only>
0

> <s_lp_Force_Field>
OPLS_2005

> <r_lp_Energy>
11.8017

> <b_lp_Chiralities_Consistent>
1

> <s_lp_Variant>
AV-unprocessed.smi:1203-3

> <Gold.Version>
5.8.1

> <Gold.Id.Protein>
6NUR|6NUR_protein|mol2

> <Gold.PLP.Fitness>
37.2223

> <Gold.PLP.PLP>
-29.1923

> <Gold.PLP.part.hbond>
-3.0000

> <Gold.PLP.part.metal>
0.0000

> <Gold.PLP.part.buried>
-4.3578

> <Gold.PLP.part.nonpolar>
-21.6538

> <Gold.PLP.part.repulsive>
0.2440

> <Gold.PLP.ligand.clash>
0.0000

> <Gold.PLP.ligand.torsion>
0.7378

> <Gold.PLP.Chemscore.Hbond>
3.0000

> <Gold.PLP.Chemscore.CHOScore>
0.0000

> <Gold.PLP.Chemscore.Metal>
0.0000

> <Gold.Chemscore.Hbonds>
donor molecule, donor type, donor heavy atom, donor atom, acceptor molecule, acceptor atom, score
      L1  H    19    40       P1 10186  2.00
      P1  H 10752 10765       L1     3  0.90

> <Gold.PLP.Chemscore.Internal.Correction>
0.5056

> <Gold.Rescore>
     Score         DG    S(hbond)    S(metal)    S(lipo)     H(rot)  DE(clash)    DE(int)     intcor
     13.69     -14.62       1.87        0.00      68.65       2.00       0.06       0.87       ----

> <Gold.Chemscore.Fitness>
13.6901

> <Gold.Chemscore.DG>
-14.6200

> <Gold.Chemscore.ZeroCoef>
-5.4800

> <Gold.Chemscore.Hbond>
1.8680

> <Gold.Chemscore.Metal>
0.0000

> <Gold.Chemscore.Lipo>
68.6474

> <Gold.Chemscore.Internal_Hbond>
0.0000

> <Gold.Chemscore.DEClash>
0.0578

> <Gold.Chemscore.DEInternal>
0.8721

> <Gold.Chemscore.Rot>
2.0043

> <Gold.Chemscore.Internal.Correction>
   9.000000E+99

> <Gold.Chemscore.Hbonds>
donor molecule, donor type, donor heavy atom, donor atom, acceptor molecule, acceptor atom, score
      L1  H    19    40       P1 10186  1.00
      P1  H 10752 10765       L1     3  0.34

> <Gold.Chemscore.Hbond.Weighted>
-6.2391

> <Gold.Chemscore.Metal.Weighted>
-0.0000

> <Gold.Chemscore.Lipo.Weighted>
-8.0317

> <Gold.Chemscore.Internal_Hbond.Weighted>
0.0000

> <Gold.Chemscore.DEClash.Weighted>
0.0578

> <Gold.Chemscore.DEInternal.Weighted>
0.8721

> <Gold.Chemscore.Rot.Weighted>
5.1309

> <Gold.Chemscore.Internal.Correction.Weighted>
   9.000000E+99

> <Gold.Protein.RotatedTorsions>
[ 6907 6896 6895 6894 ] final  138.44 input  -60.11 | X-H torsion
[ 7974 7965 7964 7962 ] final   24.07 input  175.53 | X-H torsion
[ 8008 7997 7996 7995 ] final  146.35 input   59.86 | X-H torsion
[ 10167 10162 10161 10158 ] final  -60.71 input  -65.29 | X-H torsion
[ 10718 10713 10712 10709 ] final  127.52 input   66.30 | X-H torsion
[ 10763 10752 10751 10750 ] final  179.98 input  -60.55 | X-H torsion
[ 11005 11000 10999 10996 ] final  -39.09 input  -57.11 | X-H torsion

> <Gold.Protein.ActiveResidues>
 VAL166  LYS551  ARG553  GLY616  TRP617  ASP618  TYR619  PRO620  LYS621  CYS622 
 ASP623  PHE694  ASN695  SER759  ASP760  ASP761  ALA762  ILE779  LEU786  VAL792 
 PHE793  MET794  SER795  GLU796  ALA797  LYS798  CYS799  TRP800  GLU811  SER814 

> <Gold.Protein.RotatedAtoms>
  152.2666  133.5344  159.5413 H   0  0  0  0  0  0  0  0  0  0  0  0  # atno 6907 bound_to 6896
  150.7144  134.0756  159.3889 H   0  0  0  0  0  0  0  0  0  0  0  0  # atno 6908 bound_to 6896
  151.8672  135.0503  160.0526 H   0  0  0  0  0  0  0  0  0  0  0  0  # atno 6909 bound_to 6896
  146.1955  139.7657  142.8800 H   0  0  0  0  0  0  0  0  0  0  0  0  # atno 7974 bound_to 7965
  156.2858  140.2185  156.5362 H   0  0  0  0  0  0  0  0  0  0  0  0  # atno 8008 bound_to 7997
  154.7408  140.0488  157.0831 H   0  0  0  0  0  0  0  0  0  0  0  0  # atno 8009 bound_to 7997
  155.0233  140.3126  155.4788 H   0  0  0  0  0  0  0  0  0  0  0  0  # atno 8010 bound_to 7997
  140.6053  143.2372  151.5834 H   0  0  0  0  0  0  0  0  0  0  0  0  # atno 10167 bound_to 10162
  157.5326  131.1098  150.8986 H   0  0  0  0  0  0  0  0  0  0  0  0  # atno 10718 bound_to 10713
  154.5277  135.2798  155.1208 H   0  0  0  0  0  0  0  0  0  0  0  0  # atno 10763 bound_to 10752
  154.2740  135.6298  153.5325 H   0  0  0  0  0  0  0  0  0  0  0  0  # atno 10764 bound_to 10752
  152.9950  135.5635  154.5782 H   0  0  0  0  0  0  0  0  0  0  0  0  # atno 10765 bound_to 10752
  141.0076  133.6924  156.2141 H   0  0  0  0  0  0  0  0  0  0  0  0  # atno 11005 bound_to 11000
  145.3657  141.0334  143.3259 LP  0  0  0  0  0  0  0  0  0  0  0  0  # atno 17320 bound_to 7965
  144.8572  139.5232  143.6829 LP  0  0  0  0  0  0  0  0  0  0  0  0  # atno 17321 bound_to 7965
  139.5321  144.2887  152.1170 LP  0  0  0  0  0  0  0  0  0  0  0  0  # atno 17342 bound_to 10162
  140.2075  144.4596  150.6401 LP  0  0  0  0  0  0  0  0  0  0  0  0  # atno 17343 bound_to 10162
  156.9563  130.5438  149.5284 LP  0  0  0  0  0  0  0  0  0  0  0  0  # atno 17370 bound_to 10713
  156.0434  130.5513  150.8823 LP  0  0  0  0  0  0  0  0  0  0  0  0  # atno 17371 bound_to 10713
  140.6786  134.4791  157.5588 LP  0  0  0  0  0  0  0  0  0  0  0  0  # atno 17394 bound_to 11000
  139.9072  134.8423  156.1662 LP  0  0  0  0  0  0  0  0  0  0  0  0  # atno 17395 bound_to 11000

$$$$
