AV-unprocessed.smi:3193|AV-procd|sdf|12202|dock1
  -GOLD-   2272018 33D 1   1.00000     0.00000
 Structure written by MMmdl.
 40 41  0  0  0  0  0  0  0  0  2 V2000
  148.3566  140.5513  156.5841 C   0  0  0  0  0  0  0  0  0  0  0  0
  149.0861  141.0915  155.3370 C   0  0  1  0  0  0  0  0  0  0  0  0
  150.5128  141.5727  155.6772 C   0  0  0  0  0  0  0  0  0  0  0  0
  151.4774  140.4047  155.9422 C   0  0  0  0  0  0  0  0  0  0  0  0
  151.4982  139.4235  154.7616 C   0  0  0  0  0  0  0  0  0  0  0  0
  150.0853  138.9257  154.4186 C   0  0  0  0  0  0  0  0  0  0  0  0
  149.1216  140.1018  154.1412 C   0  0  1  0  0  0  0  0  0  0  0  0
  147.7162  139.6251  153.7220 C   0  0  0  0  0  0  0  0  0  0  0  0
  147.7314  138.9899  152.3888 N   0  3  0  0  0  0  0  0  0  0  0  0
  146.4126  138.5023  151.9413 C   0  0  0  0  0  0  0  0  0  0  0  0
  145.9913  137.2523  152.7256 C   0  0  0  0  0  0  0  0  0  0  0  0
  145.5421  136.1973  151.8401 N   0  0  0  0  0  0  0  0  0  0  0  0
  144.3223  136.1182  151.1810 C   0  0  0  0  0  0  0  0  0  0  0  0
  144.3446  134.9503  150.4523 C   0  0  0  0  0  0  0  0  0  0  0  0
  145.5610  134.3001  150.6466 N   0  0  0  0  0  0  0  0  0  0  0  0
  146.2168  135.0968  151.4802 C   0  0  0  0  0  0  0  0  0  0  0  0
  148.8067  139.6329  156.9599 H   0  0  0  0  0  0  0  0  0  0  0  0
  147.3065  140.3457  156.3778 H   0  0  0  0  0  0  0  0  0  0  0  0
  148.3817  141.2812  157.3936 H   0  0  0  0  0  0  0  0  0  0  0  0
  148.5274  141.9717  155.0153 H   0  0  0  0  0  0  0  0  0  0  0  0
  150.8976  142.1672  154.8472 H   0  0  0  0  0  0  0  0  0  0  0  0
  150.4918  142.2410  156.5388 H   0  0  0  0  0  0  0  0  0  0  0  0
  152.4821  140.7892  156.1206 H   0  0  0  0  0  0  0  0  0  0  0  0
  151.1867  139.8795  156.8524 H   0  0  0  0  0  0  0  0  0  0  0  0
  151.9332  139.9138  153.8897 H   0  0  0  0  0  0  0  0  0  0  0  0
  152.1453  138.5770  154.9933 H   0  0  0  0  0  0  0  0  0  0  0  0
  150.1442  138.2718  153.5482 H   0  0  0  0  0  0  0  0  0  0  0  0
  149.7046  138.3096  155.2338 H   0  0  0  0  0  0  0  0  0  0  0  0
  149.5301  140.6592  153.2960 H   0  0  0  0  0  0  0  0  0  0  0  0
  147.3150  138.9196  154.4506 H   0  0  0  0  0  0  0  0  0  0  0  0
  147.0344  140.4761  153.6884 H   0  0  0  0  0  0  0  0  0  0  0  0
  148.0692  139.6642  151.7171 H   0  0  0  0  0  0  0  0  0  0  0  0
  145.6732  139.2935  152.0728 H   0  0  0  0  0  0  0  0  0  0  0  0
  146.4575  138.2759  150.8750 H   0  0  0  0  0  0  0  0  0  0  0  0
  146.8237  136.8749  153.3215 H   0  0  0  0  0  0  0  0  0  0  0  0
  145.1837  137.4889  153.4197 H   0  0  0  0  0  0  0  0  0  0  0  0
  143.5597  136.8766  151.2804 H   0  0  0  0  0  0  0  0  0  0  0  0
  143.5854  134.5316  149.8082 H   0  0  0  0  0  0  0  0  0  0  0  0
  147.2128  134.8751  151.8352 H   0  0  0  0  0  0  0  0  0  0  0  0
  148.3725  138.2096  152.4142 H   0  0  0  0  0  0  0  0  0  0  0  0
  1  2  1  0  0  0  0
  1 17  1  0  0  0  0
  1 18  1  0  0  0  0
  1 19  1  0  0  0  0
  2  7  1  0  0  0  0
  2  3  1  0  0  0  0
  2 20  1  0  0  0  0
  3  4  1  0  0  0  0
  3 21  1  0  0  0  0
  3 22  1  0  0  0  0
  4  5  1  0  0  0  0
  4 23  1  0  0  0  0
  4 24  1  0  0  0  0
  5  6  1  0  0  0  0
  5 25  1  0  0  0  0
  5 26  1  0  0  0  0
  6  7  1  0  0  0  0
  6 27  1  0  0  0  0
  6 28  1  0  0  0  0
  7  8  1  0  0  0  0
  7 29  1  0  0  0  0
  8  9  1  0  0  0  0
  8 30  1  0  0  0  0
  8 31  1  0  0  0  0
  9 10  1  0  0  0  0
  9 32  1  0  0  0  0
  9 40  1  0  0  0  0
 10 11  1  0  0  0  0
 10 33  1  0  0  0  0
 10 34  1  0  0  0  0
 11 12  1  0  0  0  0
 11 35  1  0  0  0  0
 11 36  1  0  0  0  0
 12 16  1  0  0  0  0
 12 13  1  0  0  0  0
 13 14  2  0  0  0  0
 13 37  1  0  0  0  0
 14 15  1  0  0  0  0
 14 38  1  0  0  0  0
 15 16  2  0  0  0  0
 16 39  1  0  0  0  0
M  CHG  1   9   1
M  END
> <s_m_source_file>
AV-unprocessed.smi

> <i_m_source_file_index>
3193

> <i_lp_mmshare_version>
43012

> <i_f3d_flags>
0

> <s_epik_input>
W0NIM11bQ0BASF0xW0NIMl1bQ0gyXVtDSDJdW0NIMl1bQ0BIXTFbQ0gyXVtOSF1bQ0gyXVtDSDJdbjJbY0hdW2NIXW5bY0hdMg==

> <s_epik_cmdline>
J2VwaWtfcHl0aG9uJywgJy1waCcsICc3LjAnLCAnLXRuJywgJzgnLCAnLW1hJywgJzIwMCcsICctbWV0YWxfYmluZGluZycsICctaW1hZScsICc8aW5maWxlLm1hZT4nLCAnLW9tYWUnLCAnPG91dGZpbGUubWFlPic=

> <r_lp_tautomer_probability>
1

> <r_epik_Ionization_Penalty>
0.0503046

> <r_epik_Ionization_Penalty_Charging>
0.0503046

> <r_epik_Ionization_Penalty_Neutral>
0

> <r_epik_State_Penalty>
0.0981804

> <r_epik_Charging_Adjusted_Penalty>
0.148485

> <i_epik_Tot_Q>
1

> <i_epik_Tot_abs_Q>
1

> <r_epik_Metal_State_Penalty>
0.000105854

> <b_epik_Metal_Only>
0

> <s_lp_Force_Field>
OPLS_2005

> <r_lp_Energy>
20.219

> <b_lp_Chiralities_Consistent>
1

> <s_lp_Variant>
AV-unprocessed.smi:3193-2

> <Gold.Version>
5.8.1

> <Gold.Id.Protein>
6NUR|6NUR_protein|mol2

> <Gold.PLP.Fitness>
46.1930

> <Gold.PLP.PLP>
-31.2062

> <Gold.PLP.part.hbond>
-2.0000

> <Gold.PLP.part.metal>
0.0000

> <Gold.PLP.part.buried>
1.7940

> <Gold.PLP.part.nonpolar>
-30.7541

> <Gold.PLP.part.repulsive>
0.2458

> <Gold.PLP.ligand.clash>
0.0000

> <Gold.PLP.ligand.torsion>
0.6722

> <Gold.PLP.Chemscore.Hbond>
2.8160

> <Gold.PLP.Chemscore.CHOScore>
2.5881

> <Gold.PLP.Chemscore.Metal>
0.0000

> <Gold.Chemscore.Hbonds>
donor molecule, donor type, donor heavy atom, donor atom, acceptor molecule, acceptor atom, score
      L1  H     9    32       P1  7957  0.67
      L1  H     9    40       P1  7948  1.62
      L1  C    13    37       P1 10171  0.65
      L1  C    14    38       P1 10186  0.86
      L1  C    16    39       P1  7948  0.95

> <Gold.PLP.Chemscore.Internal.Correction>
0.1188

> <Gold.Rescore>
     Score         DG    S(hbond)    S(metal)    S(lipo)     H(rot)  DE(clash)    DE(int)     intcor
     14.75     -15.57       1.81        0.00      75.91       1.89       0.29       0.53       ----

> <Gold.Chemscore.Fitness>
14.7499

> <Gold.Chemscore.DG>
-15.5716

> <Gold.Chemscore.ZeroCoef>
-5.4800

> <Gold.Chemscore.Hbond>
1.8106

> <Gold.Chemscore.Metal>
0.0000

> <Gold.Chemscore.Lipo>
75.9088

> <Gold.Chemscore.Internal_Hbond>
0.0000

> <Gold.Chemscore.DEClash>
0.2925

> <Gold.Chemscore.DEInternal>
0.5292

> <Gold.Chemscore.Rot>
1.8895

> <Gold.Chemscore.Internal.Correction>
   9.000000E+99

> <Gold.Chemscore.Hbonds>
donor molecule, donor type, donor heavy atom, donor atom, acceptor molecule, acceptor atom, score
      L1  H     9    32       P1  7957  0.68
      L1  H     9    40       P1  7948  0.77

> <Gold.Chemscore.Hbond.Weighted>
-6.0473

> <Gold.Chemscore.Metal.Weighted>
-0.0000

> <Gold.Chemscore.Lipo.Weighted>
-8.8813

> <Gold.Chemscore.Internal_Hbond.Weighted>
0.0000

> <Gold.Chemscore.DEClash.Weighted>
0.2925

> <Gold.Chemscore.DEInternal.Weighted>
0.5292

> <Gold.Chemscore.Rot.Weighted>
4.8371

> <Gold.Chemscore.Internal.Correction.Weighted>
   9.000000E+99

> <Gold.Protein.RotatedTorsions>
[ 6907 6896 6895 6894 ] final  120.62 input  -60.11 | X-H torsion
[ 7974 7965 7964 7962 ] final -106.34 input  175.53 | X-H torsion
[ 8008 7997 7996 7995 ] final -124.91 input   59.86 | X-H torsion
[ 10167 10162 10161 10158 ] final  -98.29 input  -65.29 | X-H torsion
[ 10718 10713 10712 10709 ] final   42.15 input   66.30 | X-H torsion
[ 10763 10752 10751 10750 ] final  -45.54 input  -60.55 | X-H torsion
[ 11005 11000 10999 10996 ] final  169.23 input  -57.11 | X-H torsion

> <Gold.Protein.ActiveResidues>
 VAL166  LYS551  ARG553  GLY616  TRP617  ASP618  TYR619  PRO620  LYS621  CYS622 
 ASP623  PHE694  ASN695  SER759  ASP760  ASP761  ALA762  ILE779  LEU786  VAL792 
 PHE793  MET794  SER795  GLU796  ALA797  LYS798  CYS799  TRP800  GLU811  SER814 

> <Gold.Protein.RotatedAtoms>
  152.4384  133.7403  159.6636 H   0  0  0  0  0  0  0  0  0  0  0  0  # atno 6907 bound_to 6896
  150.8271  133.8143  159.3120 H   0  0  0  0  0  0  0  0  0  0  0  0  # atno 6908 bound_to 6896
  151.5808  135.1061  160.0068 H   0  0  0  0  0  0  0  0  0  0  0  0  # atno 6909 bound_to 6896
  145.2191  140.9127  143.3270 H   0  0  0  0  0  0  0  0  0  0  0  0  # atno 7974 bound_to 7965
  155.2046  140.0417  157.2923 H   0  0  0  0  0  0  0  0  0  0  0  0  # atno 8008 bound_to 7997
  154.6052  140.2462  155.7712 H   0  0  0  0  0  0  0  0  0  0  0  0  # atno 8009 bound_to 7997
  156.2345  140.2926  156.0286 H   0  0  0  0  0  0  0  0  0  0  0  0  # atno 8010 bound_to 7997
  140.2745  143.3322  152.0502 H   0  0  0  0  0  0  0  0  0  0  0  0  # atno 10167 bound_to 10162
  157.4016  130.7863  149.7354 H   0  0  0  0  0  0  0  0  0  0  0  0  # atno 10718 bound_to 10713
  154.0302  135.6658  153.4780 H   0  0  0  0  0  0  0  0  0  0  0  0  # atno 10763 bound_to 10752
  153.0544  135.5065  154.7940 H   0  0  0  0  0  0  0  0  0  0  0  0  # atno 10764 bound_to 10752
  154.6883  135.3057  154.9481 H   0  0  0  0  0  0  0  0  0  0  0  0  # atno 10765 bound_to 10752
  140.2955  134.7638  157.3874 H   0  0  0  0  0  0  0  0  0  0  0  0  # atno 11005 bound_to 11000
  144.9782  139.3810  143.6275 LP  0  0  0  0  0  0  0  0  0  0  0  0  # atno 17320 bound_to 7965
  146.3380  139.8911  142.8809 LP  0  0  0  0  0  0  0  0  0  0  0  0  # atno 17321 bound_to 7965
  139.4979  144.6634  151.6413 LP  0  0  0  0  0  0  0  0  0  0  0  0  # atno 17342 bound_to 10162
  140.5862  143.9859  150.6297 LP  0  0  0  0  0  0  0  0  0  0  0  0  # atno 17343 bound_to 10162
  155.9825  130.4009  150.3414 LP  0  0  0  0  0  0  0  0  0  0  0  0  # atno 17370 bound_to 10713
  157.1542  131.0328  151.2871 LP  0  0  0  0  0  0  0  0  0  0  0  0  # atno 17371 bound_to 10713
  140.1156  134.5287  155.8228 LP  0  0  0  0  0  0  0  0  0  0  0  0  # atno 17394 bound_to 11000
  141.2138  133.6739  156.6771 LP  0  0  0  0  0  0  0  0  0  0  0  0  # atno 17395 bound_to 11000

$$$$
