AV-unprocessed.smi:1125|AV-procd|sdf|4835|dock7
  -GOLD-   22720 3403D 1   1.00000     0.00000
 Structure written by MMmdl.
 46 47  0  0  0  0  0  0  0  0  2 V2000
  148.1998  135.0980  155.0675 C   0  0  0  0  0  0  0  0  0  0  0  0
  148.8436  136.3019  154.4999 N   0  3  2  0  0  0  0  0  0  0  0  0
  150.2231  136.4966  155.0119 C   0  0  0  0  0  0  0  0  0  0  0  0
  150.9124  137.6829  154.3137 C   0  0  0  0  0  0  0  0  0  0  0  0
  150.0886  138.9793  154.4368 C   0  0  2  0  0  0  0  0  0  0  0  0
  150.0788  139.4773  155.8093 N   0  0  0  0  0  0  0  0  0  0  0  0
  151.1473  139.8862  156.5117 C   0  0  0  0  0  0  0  0  0  0  0  0
  152.2978  139.8502  156.0767 O   0  0  0  0  0  0  0  0  0  0  0  0
  150.8753  140.4032  157.9282 C   0  0  0  0  0  0  0  0  0  0  0  0
  151.2476  141.8549  158.0467 C   0  0  0  0  0  0  0  0  0  0  0  0
  151.7392  142.6638  157.0537 C   0  0  0  0  0  0  0  0  0  0  0  0
  152.0074  144.2901  157.6156 S   0  0  0  0  0  0  0  0  0  0  0  0
  151.4358  143.8109  159.2176 C   0  0  0  0  0  0  0  0  0  0  0  0
  151.3042  144.7334  160.4051 C   0  0  0  0  0  0  0  0  0  0  0  0
  149.8145  144.9185  160.7543 C   0  0  0  0  0  0  0  0  0  0  0  0
  151.8934  146.1276  160.1005 C   0  0  0  0  0  0  0  0  0  0  0  0
  152.0752  144.1546  161.6073 C   0  0  0  0  0  0  0  0  0  0  0  0
  151.0977  142.5180  159.2695 N   0  0  0  0  0  0  0  0  0  0  0  0
  148.6477  138.7287  153.9575 C   0  0  0  0  0  0  0  0  0  0  0  0
  148.0090  137.5183  154.6638 C   0  0  0  0  0  0  0  0  0  0  0  0
  148.0762  135.1923  156.1472 H   0  0  0  0  0  0  0  0  0  0  0  0
  148.8011  134.2104  154.8679 H   0  0  0  0  0  0  0  0  0  0  0  0
  147.2168  134.9401  154.6226 H   0  0  0  0  0  0  0  0  0  0  0  0
  150.1944  136.6563  156.0909 H   0  0  0  0  0  0  0  0  0  0  0  0
  150.8056  135.5900  154.8434 H   0  0  0  0  0  0  0  0  0  0  0  0
  151.9144  137.8259  154.7199 H   0  0  0  0  0  0  0  0  0  0  0  0
  151.0472  137.4446  153.2579 H   0  0  0  0  0  0  0  0  0  0  0  0
  150.5318  139.7447  153.7971 H   0  0  0  0  0  0  0  0  0  0  0  0
  149.1767  139.5547  156.2572 H   0  0  0  0  0  0  0  0  0  0  0  0
  149.8205  140.2538  158.1620 H   0  0  0  0  0  0  0  0  0  0  0  0
  151.4373  139.8043  158.6458 H   0  0  0  0  0  0  0  0  0  0  0  0
  151.9499  142.4051  156.0264 H   0  0  0  0  0  0  0  0  0  0  0  0
  149.6847  145.5947  161.6001 H   0  0  0  0  0  0  0  0  0  0  0  0
  149.3458  143.9707  161.0215 H   0  0  0  0  0  0  0  0  0  0  0  0
  149.2585  145.3327  159.9123 H   0  0  0  0  0  0  0  0  0  0  0  0
  151.3806  146.6095  159.2673 H   0  0  0  0  0  0  0  0  0  0  0  0
  152.9537  146.0702  159.8509 H   0  0  0  0  0  0  0  0  0  0  0  0
  151.8017  146.7923  160.9603 H   0  0  0  0  0  0  0  0  0  0  0  0
  152.0104  144.8114  162.4752 H   0  0  0  0  0  0  0  0  0  0  0  0
  153.1319  144.0204  161.3731 H   0  0  0  0  0  0  0  0  0  0  0  0
  151.6795  143.1834  161.9064 H   0  0  0  0  0  0  0  0  0  0  0  0
  148.0362  139.6184  154.1148 H   0  0  0  0  0  0  0  0  0  0  0  0
  148.6534  138.5517  152.8812 H   0  0  0  0  0  0  0  0  0  0  0  0
  147.0169  137.3390  154.2476 H   0  0  0  0  0  0  0  0  0  0  0  0
  147.8709  137.7270  155.7259 H   0  0  0  0  0  0  0  0  0  0  0  0
  148.9253  136.1407  153.5061 H   0  0  0  0  0  0  0  0  0  0  0  0
  1  2  1  0  0  0  0
  1 21  1  0  0  0  0
  1 22  1  0  0  0  0
  1 23  1  0  0  0  0
  2 20  1  0  0  0  0
  2  3  1  0  0  0  0
  2 46  1  0  0  0  0
  3  4  1  0  0  0  0
  3 24  1  0  0  0  0
  3 25  1  0  0  0  0
  4  5  1  0  0  0  0
  4 26  1  0  0  0  0
  4 27  1  0  0  0  0
  5  6  1  0  0  0  0
  5 19  1  0  0  0  0
  5 28  1  0  0  0  0
  6  7  1  0  0  0  0
  6 29  1  0  0  0  0
  7  8  2  0  0  0  0
  7  9  1  0  0  0  0
  9 10  1  0  0  0  0
  9 30  1  0  0  0  0
  9 31  1  0  0  0  0
 10 18  1  0  0  0  0
 10 11  2  0  0  0  0
 11 12  1  0  0  0  0
 11 32  1  0  0  0  0
 12 13  1  0  0  0  0
 13 14  1  0  0  0  0
 13 18  2  0  0  0  0
 14 15  1  0  0  0  0
 14 16  1  0  0  0  0
 14 17  1  0  0  0  0
 15 33  1  0  0  0  0
 15 34  1  0  0  0  0
 15 35  1  0  0  0  0
 16 36  1  0  0  0  0
 16 37  1  0  0  0  0
 16 38  1  0  0  0  0
 17 39  1  0  0  0  0
 17 40  1  0  0  0  0
 17 41  1  0  0  0  0
 19 20  1  0  0  0  0
 19 42  1  0  0  0  0
 19 43  1  0  0  0  0
 20 44  1  0  0  0  0
 20 45  1  0  0  0  0
M  CHG  1   2   1
M  END
> <s_m_source_file>
AV-unprocessed.smi

> <i_m_source_file_index>
1125

> <i_lp_mmshare_version>
43012

> <i_f3d_flags>
0

> <s_epik_input>
W0NIM11OMVtDSDJdW0NIMl1bQ0hdKFtDSDJdW0NIMl0xKVtOSF1DKD1PKVtDSDJdYzJbY0hdc2MobjIpQyhbQ0gzXSkoW0NIM10pW0NIM10=

> <s_epik_cmdline>
J2VwaWtfcHl0aG9uJywgJy1waCcsICc3LjAnLCAnLXRuJywgJzgnLCAnLW1hJywgJzIwMCcsICctbWV0YWxfYmluZGluZycsICctaW1hZScsICc8aW5maWxlLm1hZT4nLCAnLW9tYWUnLCAnPG91dGZpbGUubWFlPic=

> <r_epik_Ionization_Penalty>
0.00829478

> <r_epik_Ionization_Penalty_Charging>
0.0082618

> <r_epik_Ionization_Penalty_Neutral>
3.29858e-05

> <r_epik_State_Penalty>
0.00621662

> <r_epik_Charging_Adjusted_Penalty>
0.0144784

> <i_epik_Tot_Q>
1

> <i_epik_Tot_abs_Q>
1

> <r_epik_Metal_State_Penalty>
0.00621672

> <b_epik_Metal_Only>
0

> <s_lp_Force_Field>
OPLS_2005

> <r_lp_Energy>
6.26884

> <b_lp_Chiralities_Consistent>
1

> <s_lp_Variant>
AV-unprocessed.smi:1125-2

> <Gold.Version>
5.8.1

> <Gold.Id.Protein>
6NUR|6NUR_protein|mol2

> <Gold.PLP.Fitness>
44.6386

> <Gold.PLP.PLP>
-35.9174

> <Gold.PLP.part.hbond>
-2.0000

> <Gold.PLP.part.metal>
0.0000

> <Gold.PLP.part.buried>
-1.3395

> <Gold.PLP.part.nonpolar>
-32.3367

> <Gold.PLP.part.repulsive>
0.0529

> <Gold.PLP.ligand.clash>
0.0000

> <Gold.PLP.ligand.torsion>
0.1479

> <Gold.PLP.Chemscore.Hbond>
3.0000

> <Gold.PLP.Chemscore.CHOScore>
0.0000

> <Gold.PLP.Chemscore.Metal>
0.0000

> <Gold.Chemscore.Hbonds>
donor molecule, donor type, donor heavy atom, donor atom, acceptor molecule, acceptor atom, score
      L1  H     2    46       P1  7948  2.00
      P1  H  7997  8008       L1     8  0.89

> <Gold.PLP.Chemscore.Internal.Correction>
0.0170

> <Gold.Rescore>
     Score         DG    S(hbond)    S(metal)    S(lipo)     H(rot)  DE(clash)    DE(int)     intcor
     20.02     -22.95       1.96        0.00     123.99       1.40       1.76       1.16       ----

> <Gold.Chemscore.Fitness>
20.0223

> <Gold.Chemscore.DG>
-22.9480

> <Gold.Chemscore.ZeroCoef>
-5.4800

> <Gold.Chemscore.Hbond>
1.9620

> <Gold.Chemscore.Metal>
0.0000

> <Gold.Chemscore.Lipo>
123.9877

> <Gold.Chemscore.Internal_Hbond>
0.0000

> <Gold.Chemscore.DEClash>
1.7611

> <Gold.Chemscore.DEInternal>
1.1646

> <Gold.Chemscore.Rot>
1.4030

> <Gold.Chemscore.Internal.Correction>
   9.000000E+99

> <Gold.Chemscore.Hbonds>
donor molecule, donor type, donor heavy atom, donor atom, acceptor molecule, acceptor atom, score
      L1  H     2    46       P1  7948  0.98
      P1  H  7997  8008       L1     8  0.87

> <Gold.Chemscore.Hbond.Weighted>
-6.5532

> <Gold.Chemscore.Metal.Weighted>
-0.0000

> <Gold.Chemscore.Lipo.Weighted>
-14.5066

> <Gold.Chemscore.Internal_Hbond.Weighted>
0.0000

> <Gold.Chemscore.DEClash.Weighted>
1.7611

> <Gold.Chemscore.DEInternal.Weighted>
1.1646

> <Gold.Chemscore.Rot.Weighted>
3.5917

> <Gold.Chemscore.Internal.Correction.Weighted>
   9.000000E+99

> <Gold.Protein.RotatedTorsions>
[ 6907 6896 6895 6894 ] final   -9.45 input  -60.11 | X-H torsion
[ 7974 7965 7964 7962 ] final -109.23 input  175.53 | X-H torsion
[ 8008 7997 7996 7995 ] final  -35.46 input   59.86 | X-H torsion
[ 10167 10162 10161 10158 ] final   97.89 input  -65.29 | X-H torsion
[ 10718 10713 10712 10709 ] final   47.77 input   66.30 | X-H torsion
[ 10763 10752 10751 10750 ] final  -82.16 input  -60.55 | X-H torsion
[ 11005 11000 10999 10996 ] final  -43.53 input  -57.11 | X-H torsion

> <Gold.Protein.ActiveResidues>
 VAL166  LYS551  ARG553  GLY616  TRP617  ASP618  TYR619  PRO620  LYS621  CYS622 
 ASP623  PHE694  ASN695  SER759  ASP760  ASP761  ALA762  ILE779  LEU786  VAL792 
 PHE793  MET794  SER795  GLU796  ALA797  LYS798  CYS799  TRP800  GLU811  SER814 

> <Gold.Protein.RotatedAtoms>
  151.4176  135.0993  159.9603 H   0  0  0  0  0  0  0  0  0  0  0  0  # atno 6907 bound_to 6896
  152.4999  133.8738  159.7322 H   0  0  0  0  0  0  0  0  0  0  0  0  # atno 6908 bound_to 6896
  150.9246  133.6781  159.2852 H   0  0  0  0  0  0  0  0  0  0  0  0  # atno 6909 bound_to 6896
  145.1831  140.8980  143.3468 H   0  0  0  0  0  0  0  0  0  0  0  0  # atno 7974 bound_to 7965
  154.4095  140.1656  156.2216 H   0  0  0  0  0  0  0  0  0  0  0  0  # atno 8008 bound_to 7997
  155.9359  140.3411  155.6264 H   0  0  0  0  0  0  0  0  0  0  0  0  # atno 8009 bound_to 7997
  155.7049  140.0749  157.2386 H   0  0  0  0  0  0  0  0  0  0  0  0  # atno 8010 bound_to 7997
  139.7759  144.6906  151.0090 H   0  0  0  0  0  0  0  0  0  0  0  0  # atno 10167 bound_to 10162
  157.4618  130.8201  149.7895 H   0  0  0  0  0  0  0  0  0  0  0  0  # atno 10718 bound_to 10713
  154.5724  135.5601  153.7107 H   0  0  0  0  0  0  0  0  0  0  0  0  # atno 10763 bound_to 10752
  153.0053  135.6300  154.2096 H   0  0  0  0  0  0  0  0  0  0  0  0  # atno 10764 bound_to 10752
  154.2036  135.2877  155.2962 H   0  0  0  0  0  0  0  0  0  0  0  0  # atno 10765 bound_to 10752
  141.0390  133.6788  156.2746 H   0  0  0  0  0  0  0  0  0  0  0  0  # atno 11005 bound_to 11000
  145.0116  139.3505  143.6117 LP  0  0  0  0  0  0  0  0  0  0  0  0  # atno 17320 bound_to 7965
  146.3449  139.9380  142.8744 LP  0  0  0  0  0  0  0  0  0  0  0  0  # atno 17321 bound_to 7965
  140.7816  143.4536  151.0377 LP  0  0  0  0  0  0  0  0  0  0  0  0  # atno 17342 bound_to 10162
  139.8218  143.7809  152.3177 LP  0  0  0  0  0  0  0  0  0  0  0  0  # atno 17343 bound_to 10162
  156.0032  130.3869  150.2527 LP  0  0  0  0  0  0  0  0  0  0  0  0  # atno 17370 bound_to 10713
  157.0705  131.0115  151.3192 LP  0  0  0  0  0  0  0  0  0  0  0  0  # atno 17371 bound_to 10713
  140.6269  134.5304  157.5555 LP  0  0  0  0  0  0  0  0  0  0  0  0  # atno 17394 bound_to 11000
  139.9262  134.8052  156.1063 LP  0  0  0  0  0  0  0  0  0  0  0  0  # atno 17395 bound_to 11000

$$$$
