AV-unprocessed.smi:1410|AV-procd|sdf|5729|dock1
  -GOLD-   22720 5363D 1   1.00000     0.00000
 Structure written by MMmdl.
 39 40  0  0  0  0  0  0  0  0  1 V2000
  148.3270  142.7742  157.3325 N   0  0  0  0  0  0  0  0  0  0  0  0
  147.3478  141.9886  156.8775 C   0  0  0  0  0  0  0  0  0  0  0  0
  146.6921  141.2603  157.6194 O   0  0  0  0  0  0  0  0  0  0  0  0
  147.0558  142.0319  155.3725 C   0  0  0  0  0  0  0  0  0  0  0  0
  147.1580  140.7214  154.6907 N   0  0  0  0  0  0  0  0  0  0  0  0
  146.8054  140.8830  153.2761 C   0  0  0  0  0  0  0  0  0  0  0  0
  147.0297  139.5688  152.5077 C   0  0  0  0  0  0  0  0  0  0  0  0
  146.2018  138.4271  153.1132 C   0  0  0  0  0  0  0  0  0  0  0  0
  146.5174  137.1708  152.4399 N   0  0  0  0  0  0  0  0  0  0  0  0
  145.6172  136.2586  152.0454 C   0  0  0  0  0  0  0  0  0  0  0  0
  144.4044  136.3879  152.2122 O   0  0  0  0  0  0  0  0  0  0  0  0
  146.2181  135.1997  151.4749 N   0  0  0  0  0  0  0  0  0  0  0  0
  145.6269  134.0310  150.9218 C   0  0  0  0  0  0  0  0  0  0  0  0
  146.4843  132.9714  150.5597 C   0  0  0  0  0  0  0  0  0  0  0  0
  145.9256  131.8078  149.9939 C   0  0  0  0  0  0  0  0  0  0  0  0
  144.6040  131.6535  149.7690 N   0  0  0  0  0  0  0  0  0  0  0  0
  143.7860  132.6740  150.1027 C   0  0  0  0  0  0  0  0  0  0  0  0
  144.2410  133.8792  150.6743 C   0  0  0  0  0  0  0  0  0  0  0  0
  146.5057  138.3351  154.6175 C   0  0  0  0  0  0  0  0  0  0  0  0
  146.3093  139.6939  155.3124 C   0  0  0  0  0  0  0  0  0  0  0  0
  148.5478  142.7774  158.3176 H   0  0  0  0  0  0  0  0  0  0  0  0
  148.8400  143.3638  156.6933 H   0  0  0  0  0  0  0  0  0  0  0  0
  146.0660  142.4597  155.2002 H   0  0  0  0  0  0  0  0  0  0  0  0
  147.7725  142.7260  154.9307 H   0  0  0  0  0  0  0  0  0  0  0  0
  145.7676  141.2067  153.1770 H   0  0  0  0  0  0  0  0  0  0  0  0
  147.4243  141.6613  152.8276 H   0  0  0  0  0  0  0  0  0  0  0  0
  146.7655  139.7059  151.4586 H   0  0  0  0  0  0  0  0  0  0  0  0
  148.0908  139.3144  152.5292 H   0  0  0  0  0  0  0  0  0  0  0  0
  145.1435  138.6572  152.9740 H   0  0  0  0  0  0  0  0  0  0  0  0
  147.4942  136.9814  152.2686 H   0  0  0  0  0  0  0  0  0  0  0  0
  147.2275  135.2076  151.4836 H   0  0  0  0  0  0  0  0  0  0  0  0
  147.5510  133.0417  150.7152 H   0  0  0  0  0  0  0  0  0  0  0  0
  146.5589  130.9795  149.7123 H   0  0  0  0  0  0  0  0  0  0  0  0
  142.7347  132.5288  149.9023 H   0  0  0  0  0  0  0  0  0  0  0  0
  143.5261  134.6564  150.8959 H   0  0  0  0  0  0  0  0  0  0  0  0
  145.8622  137.5897  155.0863 H   0  0  0  0  0  0  0  0  0  0  0  0
  147.5316  137.9965  154.7704 H   0  0  0  0  0  0  0  0  0  0  0  0
  146.5558  139.5695  156.3668 H   0  0  0  0  0  0  0  0  0  0  0  0
  145.2610  139.9939  155.2668 H   0  0  0  0  0  0  0  0  0  0  0  0
  1  2  1  0  0  0  0
  1 21  1  0  0  0  0
  1 22  1  0  0  0  0
  2  3  2  0  0  0  0
  2  4  1  0  0  0  0
  4  5  1  0  0  0  0
  4 23  1  0  0  0  0
  4 24  1  0  0  0  0
  5 20  1  0  0  0  0
  5  6  1  0  0  0  0
  6  7  1  0  0  0  0
  6 25  1  0  0  0  0
  6 26  1  0  0  0  0
  7  8  1  0  0  0  0
  7 27  1  0  0  0  0
  7 28  1  0  0  0  0
  8  9  1  0  0  0  0
  8 19  1  0  0  0  0
  8 29  1  0  0  0  0
  9 10  1  0  0  0  0
  9 30  1  0  0  0  0
 10 11  2  0  0  0  0
 10 12  1  0  0  0  0
 12 13  1  0  0  0  0
 12 31  1  0  0  0  0
 13 18  1  0  0  0  0
 13 14  2  0  0  0  0
 14 15  1  0  0  0  0
 14 32  1  0  0  0  0
 15 16  2  0  0  0  0
 15 33  1  0  0  0  0
 16 17  1  0  0  0  0
 17 18  2  0  0  0  0
 17 34  1  0  0  0  0
 18 35  1  0  0  0  0
 19 20  1  0  0  0  0
 19 36  1  0  0  0  0
 19 37  1  0  0  0  0
 20 38  1  0  0  0  0
 20 39  1  0  0  0  0
M  END
> <s_m_source_file>
AV-unprocessed.smi

> <i_m_source_file_index>
1410

> <i_lp_mmshare_version>
43012

> <i_f3d_flags>
0

> <s_epik_input>
W05IMl1DKD1PKVtDSDJdTjFbQ0gyXVtDSDJdW0NIXShbQ0gyXVtDSDJdMSlbTkhdQyg9TylbTkhdYzJbY0hdW2NIXW5bY0hdW2NIXTI=

> <s_epik_cmdline>
J2VwaWtfcHl0aG9uJywgJy1waCcsICc3LjAnLCAnLXRuJywgJzgnLCAnLW1hJywgJzIwMCcsICctbWV0YWxfYmluZGluZycsICctaW1hZScsICc8aW5maWxlLm1hZT4nLCAnLW9tYWUnLCAnPG91dGZpbGUubWFlPic=

> <r_epik_Ionization_Penalty>
0.286942

> <r_epik_Ionization_Penalty_Charging>
0

> <r_epik_Ionization_Penalty_Neutral>
0.286942

> <r_epik_State_Penalty>
0.264061

> <r_epik_Charging_Adjusted_Penalty>
0.264061

> <i_epik_Tot_Q>
0

> <i_epik_Tot_abs_Q>
0

> <r_epik_Metal_State_Penalty>
0.256326

> <b_epik_Metal_Only>
0

> <s_lp_Force_Field>
OPLS_2005

> <r_lp_Energy>
16.89

> <b_lp_Chiralities_Consistent>
1

> <s_lp_Variant>
AV-unprocessed.smi:1410-1

> <Gold.Version>
5.8.1

> <Gold.Id.Protein>
6NUR|6NUR_protein|mol2

> <Gold.PLP.Fitness>
42.9417

> <Gold.PLP.PLP>
-28.4154

> <Gold.PLP.part.hbond>
-4.3336

> <Gold.PLP.part.metal>
0.0000

> <Gold.PLP.part.buried>
-0.9737

> <Gold.PLP.part.nonpolar>
-24.7330

> <Gold.PLP.part.repulsive>
0.6200

> <Gold.PLP.ligand.clash>
0.0000

> <Gold.PLP.ligand.torsion>
0.2560

> <Gold.PLP.Chemscore.Hbond>
3.1740

> <Gold.PLP.Chemscore.CHOScore>
1.8264

> <Gold.PLP.Chemscore.Metal>
0.0000

> <Gold.Chemscore.Hbonds>
donor molecule, donor type, donor heavy atom, donor atom, acceptor molecule, acceptor atom, score
      L1  H     1    22       P1  8028  0.98
      L1  H     9    30       P1  7948  1.00
      L1  H    12    31       P1  7948  0.99
      P1  H 10785 10796       L1    16  0.15
      L1  C    15    33       P1 10747  0.89
      L1  C    17    34       P1 10186  0.80
      L1  C    17    34       P1 10952  0.04

> <Gold.PLP.Chemscore.Internal.Correction>
0.0372

> <Gold.Rescore>
     Score         DG    S(hbond)    S(metal)    S(lipo)     H(rot)  DE(clash)    DE(int)     intcor
     14.65     -17.91       2.66        0.00      72.74       1.94       0.56       2.70       ----

> <Gold.Chemscore.Fitness>
14.6513

> <Gold.Chemscore.DG>
-17.9072

> <Gold.Chemscore.ZeroCoef>
-5.4800

> <Gold.Chemscore.Hbond>
2.6586

> <Gold.Chemscore.Metal>
0.0000

> <Gold.Chemscore.Lipo>
72.7429

> <Gold.Chemscore.Internal_Hbond>
0.0000

> <Gold.Chemscore.DEClash>
0.5550

> <Gold.Chemscore.DEInternal>
2.7008

> <Gold.Chemscore.Rot>
1.9389

> <Gold.Chemscore.Internal.Correction>
   9.000000E+99

> <Gold.Chemscore.Hbonds>
donor molecule, donor type, donor heavy atom, donor atom, acceptor molecule, acceptor atom, score
      L1  H     1    22       P1  8028  0.76
      L1  H     9    30       P1  7948  1.00
      L1  H    12    31       P1  7948  0.81
      P1  H 10785 10796       L1    16  0.08

> <Gold.Chemscore.Hbond.Weighted>
-8.8799

> <Gold.Chemscore.Metal.Weighted>
-0.0000

> <Gold.Chemscore.Lipo.Weighted>
-8.5109

> <Gold.Chemscore.Internal_Hbond.Weighted>
0.0000

> <Gold.Chemscore.DEClash.Weighted>
0.5550

> <Gold.Chemscore.DEInternal.Weighted>
2.7008

> <Gold.Chemscore.Rot.Weighted>
4.9636

> <Gold.Chemscore.Internal.Correction.Weighted>
   9.000000E+99

> <Gold.Protein.RotatedTorsions>
[ 6907 6896 6895 6894 ] final  -79.38 input  -60.11 | X-H torsion
[ 7974 7965 7964 7962 ] final   34.71 input  175.53 | X-H torsion
[ 8008 7997 7996 7995 ] final  -17.09 input   59.86 | X-H torsion
[ 10167 10162 10161 10158 ] final -116.22 input  -65.29 | X-H torsion
[ 10718 10713 10712 10709 ] final  119.74 input   66.30 | X-H torsion
[ 10763 10752 10751 10750 ] final  146.05 input  -60.55 | X-H torsion
[ 11005 11000 10999 10996 ] final -107.16 input  -57.11 | X-H torsion

> <Gold.Protein.ActiveResidues>
 VAL166  LYS551  ARG553  GLY616  TRP617  ASP618  TYR619  PRO620  LYS621  CYS622 
 ASP623  PHE694  ASN695  SER759  ASP760  ASP761  ALA762  ILE779  LEU786  VAL792 
 PHE793  MET794  SER795  GLU796  ALA797  LYS798  CYS799  TRP800  GLU811  SER814 

> <Gold.Protein.RotatedAtoms>
  150.6951  134.4130  159.5169 H   0  0  0  0  0  0  0  0  0  0  0  0  # atno 6907 bound_to 6896
  152.1885  134.8690  160.0529 H   0  0  0  0  0  0  0  0  0  0  0  0  # atno 6908 bound_to 6896
  151.9654  133.3673  159.4088 H   0  0  0  0  0  0  0  0  0  0  0  0  # atno 6909 bound_to 6896
  146.1334  139.6235  142.9211 H   0  0  0  0  0  0  0  0  0  0  0  0  # atno 7974 bound_to 7965
  154.5004  140.2152  155.9359 H   0  0  0  0  0  0  0  0  0  0  0  0  # atno 8008 bound_to 7997
  156.1426  140.3177  155.8486 H   0  0  0  0  0  0  0  0  0  0  0  0  # atno 8009 bound_to 7997
  155.4092  140.0489  157.3023 H   0  0  0  0  0  0  0  0  0  0  0  0  # atno 8010 bound_to 7997
  140.0815  143.4783  152.1923 H   0  0  0  0  0  0  0  0  0  0  0  0  # atno 10167 bound_to 10162
  157.5940  131.1060  150.7938 H   0  0  0  0  0  0  0  0  0  0  0  0  # atno 10718 bound_to 10713
  154.0155  135.2910  155.3387 H   0  0  0  0  0  0  0  0  0  0  0  0  # atno 10763 bound_to 10752
  154.7078  135.5162  153.8624 H   0  0  0  0  0  0  0  0  0  0  0  0  # atno 10764 bound_to 10752
  153.0704  135.6646  154.0382 H   0  0  0  0  0  0  0  0  0  0  0  0  # atno 10765 bound_to 10752
  141.0968  133.8956  157.1942 H   0  0  0  0  0  0  0  0  0  0  0  0  # atno 11005 bound_to 11000
  145.5210  141.0432  143.2435 LP  0  0  0  0  0  0  0  0  0  0  0  0  # atno 17320 bound_to 7965
  144.7714  139.6726  143.7193 LP  0  0  0  0  0  0  0  0  0  0  0  0  # atno 17321 bound_to 7965
  139.5777  144.7495  151.3723 LP  0  0  0  0  0  0  0  0  0  0  0  0  # atno 17342 bound_to 10162
  140.7075  143.7476  150.7508 LP  0  0  0  0  0  0  0  0  0  0  0  0  # atno 17343 bound_to 10162
  156.8353  130.5029  149.5327 LP  0  0  0  0  0  0  0  0  0  0  0  0  # atno 17370 bound_to 10713
  156.1000  130.5961  150.9877 LP  0  0  0  0  0  0  0  0  0  0  0  0  # atno 17371 bound_to 10713
  139.9807  135.0099  156.9743 LP  0  0  0  0  0  0  0  0  0  0  0  0  # atno 17394 bound_to 11000
  140.5120  134.0993  155.7272 LP  0  0  0  0  0  0  0  0  0  0  0  0  # atno 17395 bound_to 11000

$$$$
