AV-unprocessed.smi:1045|AV-procd|sdf|4544|dock4
  -GOLD-   22720 2573D 1   1.00000     0.00000
 Structure written by MMmdl.
 42 43  0  0  0  0  0  0  0  0  1 V2000
  150.4867  131.8743  156.4259 C   0  0  0  0  0  0  0  0  0  0  0  0
  149.4517  132.7228  155.9614 O   0  0  0  0  0  0  0  0  0  0  0  0
  149.0206  132.3892  154.6520 C   0  0  0  0  0  0  0  0  0  0  0  0
  147.9127  133.3641  154.2143 C   0  0  2  0  0  0  0  0  0  0  0  0
  147.2406  132.9219  152.9064 C   0  0  0  0  0  0  0  0  0  0  0  0
  148.4584  134.7070  154.0370 N   0  0  0  0  0  0  0  0  0  0  0  0
  148.9036  135.5017  155.0209 C   0  0  0  0  0  0  0  0  0  0  0  0
  148.9166  135.1721  156.2065 O   0  0  0  0  0  0  0  0  0  0  0  0
  149.3414  136.6746  154.5322 N   0  0  0  0  0  0  0  0  0  0  0  0
  149.8602  137.7960  155.2348 C   0  0  0  0  0  0  0  0  0  0  0  0
  149.9942  137.8712  156.6408 C   0  0  0  0  0  0  0  0  0  0  0  0
  150.5045  139.0511  157.2155 C   0  0  0  0  0  0  0  0  0  0  0  0
  150.8600  140.1319  156.3744 C   0  0  0  0  0  0  0  0  0  0  0  0
  151.3781  141.3279  156.9102 N   0  0  0  0  0  0  0  0  0  0  0  0
  151.1276  142.6180  156.2864 C   0  0  0  0  0  0  0  0  0  0  0  0
  151.7290  143.6373  157.2522 C   0  0  0  0  0  0  0  0  0  0  0  0
  151.5199  142.9840  158.6181 C   0  0  0  0  0  0  0  0  0  0  0  0
  151.6328  141.4812  158.3361 C   0  0  0  0  0  0  0  0  0  0  0  0
  150.7271  140.0587  155.0289 N   0  0  0  0  0  0  0  0  0  0  0  0
  150.2368  138.9265  154.4828 C   0  0  0  0  0  0  0  0  0  0  0  0
  150.7782  132.1708  157.4334 H   0  0  0  0  0  0  0  0  0  0  0  0
  151.3683  131.9406  155.7872 H   0  0  0  0  0  0  0  0  0  0  0  0
  150.1577  130.8351  156.4629 H   0  0  0  0  0  0  0  0  0  0  0  0
  149.8696  132.4511  153.9693 H   0  0  0  0  0  0  0  0  0  0  0  0
  148.6543  131.3614  154.6239 H   0  0  0  0  0  0  0  0  0  0  0  0
  147.1469  133.3957  154.9916 H   0  0  0  0  0  0  0  0  0  0  0  0
  146.7818  131.9383  153.0114 H   0  0  0  0  0  0  0  0  0  0  0  0
  147.9595  132.8671  152.0882 H   0  0  0  0  0  0  0  0  0  0  0  0
  146.4542  133.6186  152.6141 H   0  0  0  0  0  0  0  0  0  0  0  0
  148.4936  135.0589  153.0915 H   0  0  0  0  0  0  0  0  0  0  0  0
  149.3375  136.7623  153.5266 H   0  0  0  0  0  0  0  0  0  0  0  0
  149.7074  137.0600  157.2913 H   0  0  0  0  0  0  0  0  0  0  0  0
  150.6176  139.1083  158.2879 H   0  0  0  0  0  0  0  0  0  0  0  0
  151.5813  142.6830  155.2969 H   0  0  0  0  0  0  0  0  0  0  0  0
  150.0523  142.7713  156.1860 H   0  0  0  0  0  0  0  0  0  0  0  0
  152.7966  143.7478  157.0565 H   0  0  0  0  0  0  0  0  0  0  0  0
  151.2669  144.6216  157.1729 H   0  0  0  0  0  0  0  0  0  0  0  0
  152.2323  143.3283  159.3682 H   0  0  0  0  0  0  0  0  0  0  0  0
  150.5166  143.2131  158.9796 H   0  0  0  0  0  0  0  0  0  0  0  0
  150.9250  140.9179  158.9453 H   0  0  0  0  0  0  0  0  0  0  0  0
  152.6382  141.1207  158.5552 H   0  0  0  0  0  0  0  0  0  0  0  0
  150.1455  138.9244  153.4065 H   0  0  0  0  0  0  0  0  0  0  0  0
  1  2  1  0  0  0  0
  1 21  1  0  0  0  0
  1 22  1  0  0  0  0
  1 23  1  0  0  0  0
  2  3  1  0  0  0  0
  3  4  1  0  0  0  0
  3 24  1  0  0  0  0
  3 25  1  0  0  0  0
  4  5  1  0  0  0  0
  4  6  1  0  0  0  0
  4 26  1  0  0  0  0
  5 27  1  0  0  0  0
  5 28  1  0  0  0  0
  5 29  1  0  0  0  0
  6  7  1  0  0  0  0
  6 30  1  0  0  0  0
  7  8  2  0  0  0  0
  7  9  1  0  0  0  0
  9 10  1  0  0  0  0
  9 31  1  0  0  0  0
 10 20  1  0  0  0  0
 10 11  2  0  0  0  0
 11 12  1  0  0  0  0
 11 32  1  0  0  0  0
 12 13  2  0  0  0  0
 12 33  1  0  0  0  0
 13 14  1  0  0  0  0
 13 19  1  0  0  0  0
 14 18  1  0  0  0  0
 14 15  1  0  0  0  0
 15 16  1  0  0  0  0
 15 34  1  0  0  0  0
 15 35  1  0  0  0  0
 16 17  1  0  0  0  0
 16 36  1  0  0  0  0
 16 37  1  0  0  0  0
 17 18  1  0  0  0  0
 17 38  1  0  0  0  0
 17 39  1  0  0  0  0
 18 40  1  0  0  0  0
 18 41  1  0  0  0  0
 19 20  2  0  0  0  0
 20 42  1  0  0  0  0
M  END
> <s_m_source_file>
AV-unprocessed.smi

> <i_m_source_file_index>
1045

> <i_lp_mmshare_version>
43012

> <i_f3d_flags>
0

> <s_epik_input>
W0NIM11PW0NIMl1bQ0BIXShbQ0gzXSlbTkhdQyg9TylbTkhdYzFbY0hdW2NIXWMobltjSF0xKU4yW0NIMl1bQ0gyXVtDSDJdW0NIMl0y

> <s_epik_cmdline>
J2VwaWtfcHl0aG9uJywgJy1waCcsICc3LjAnLCAnLXRuJywgJzgnLCAnLW1hJywgJzIwMCcsICctbWV0YWxfYmluZGluZycsICctaW1hZScsICc8aW5maWxlLm1hZT4nLCAnLW9tYWUnLCAnPG91dGZpbGUubWFlPic=

> <r_lp_tautomer_probability>
1

> <r_epik_Ionization_Penalty>
0.10064

> <r_epik_Ionization_Penalty_Charging>
0

> <r_epik_Ionization_Penalty_Neutral>
0.10064

> <r_epik_State_Penalty>
0.0900987

> <r_epik_Charging_Adjusted_Penalty>
0.0900987

> <i_epik_Tot_Q>
0

> <i_epik_Tot_abs_Q>
0

> <r_epik_Metal_State_Penalty>
0.076945

> <b_epik_Metal_Only>
0

> <s_lp_Force_Field>
OPLS_2005

> <r_lp_Energy>
28.0744

> <b_lp_Chiralities_Consistent>
1

> <s_lp_Variant>
AV-unprocessed.smi:1045-1

> <Gold.Version>
5.8.1

> <Gold.Id.Protein>
6NUR|6NUR_protein|mol2

> <Gold.PLP.Fitness>
42.6727

> <Gold.PLP.PLP>
-31.4748

> <Gold.PLP.part.hbond>
-3.0000

> <Gold.PLP.part.metal>
0.0000

> <Gold.PLP.part.buried>
-3.7132

> <Gold.PLP.part.nonpolar>
-23.3296

> <Gold.PLP.part.repulsive>
0.1024

> <Gold.PLP.ligand.clash>
0.0000

> <Gold.PLP.ligand.torsion>
0.3596

> <Gold.PLP.Chemscore.Hbond>
3.0000

> <Gold.PLP.Chemscore.CHOScore>
0.9031

> <Gold.PLP.Chemscore.Metal>
0.0000

> <Gold.Chemscore.Hbonds>
donor molecule, donor type, donor heavy atom, donor atom, acceptor molecule, acceptor atom, score
      L1  H     6    30       P1  7948  1.00
      L1  H     9    31       P1  7948  1.00
      P1  H  7989  7998       L1    19  1.00
      L1  C    20    42       P1  7957  0.94

> <Gold.PLP.Chemscore.Internal.Correction>
0.2080

> <Gold.Rescore>
     Score         DG    S(hbond)    S(metal)    S(lipo)     H(rot)  DE(clash)    DE(int)     intcor
     14.38     -17.82       2.13        0.00      75.44       1.41       0.29       3.15       ----

> <Gold.Chemscore.Fitness>
14.3790

> <Gold.Chemscore.DG>
-17.8177

> <Gold.Chemscore.ZeroCoef>
-5.4800

> <Gold.Chemscore.Hbond>
2.1310

> <Gold.Chemscore.Metal>
0.0000

> <Gold.Chemscore.Lipo>
75.4387

> <Gold.Chemscore.Internal_Hbond>
0.0000

> <Gold.Chemscore.DEClash>
0.2925

> <Gold.Chemscore.DEInternal>
3.1462

> <Gold.Chemscore.Rot>
1.4086

> <Gold.Chemscore.Internal.Correction>
   9.000000E+99

> <Gold.Chemscore.Hbonds>
donor molecule, donor type, donor heavy atom, donor atom, acceptor molecule, acceptor atom, score
      L1  H     6    30       P1  7948  0.77
      L1  H     9    31       P1  7948  0.93
      P1  H  7989  7998       L1    19  0.34

> <Gold.Chemscore.Hbond.Weighted>
-7.1174

> <Gold.Chemscore.Metal.Weighted>
-0.0000

> <Gold.Chemscore.Lipo.Weighted>
-8.8263

> <Gold.Chemscore.Internal_Hbond.Weighted>
0.0000

> <Gold.Chemscore.DEClash.Weighted>
0.2925

> <Gold.Chemscore.DEInternal.Weighted>
3.1462

> <Gold.Chemscore.Rot.Weighted>
3.6060

> <Gold.Chemscore.Internal.Correction.Weighted>
   9.000000E+99

> <Gold.Protein.RotatedTorsions>
[ 6907 6896 6895 6894 ] final  159.15 input  -60.11 | X-H torsion
[ 7974 7965 7964 7962 ] final  -87.63 input  175.53 | X-H torsion
[ 8008 7997 7996 7995 ] final  -97.06 input   59.86 | X-H torsion
[ 10167 10162 10161 10158 ] final -173.46 input  -65.29 | X-H torsion
[ 10718 10713 10712 10709 ] final  -21.65 input   66.30 | X-H torsion
[ 10763 10752 10751 10750 ] final -102.48 input  -60.55 | X-H torsion
[ 11005 11000 10999 10996 ] final   10.51 input  -57.11 | X-H torsion

> <Gold.Protein.ActiveResidues>
 VAL166  LYS551  ARG553  GLY616  TRP617  ASP618  TYR619  PRO620  LYS621  CYS622 
 ASP623  PHE694  ASN695  SER759  ASP760  ASP761  ALA762  ILE779  LEU786  VAL792 
 PHE793  MET794  SER795  GLU796  ALA797  LYS798  CYS799  TRP800  GLU811  SER814 

> <Gold.Protein.RotatedAtoms>
  151.9898  133.3787  159.4139 H   0  0  0  0  0  0  0  0  0  0  0  0  # atno 6907 bound_to 6896
  150.6923  134.3949  159.5102 H   0  0  0  0  0  0  0  0  0  0  0  0  # atno 6908 bound_to 6896
  152.1680  134.8857  160.0587 H   0  0  0  0  0  0  0  0  0  0  0  0  # atno 6909 bound_to 6896
  145.4639  140.9560  143.1954 H   0  0  0  0  0  0  0  0  0  0  0  0  # atno 7974 bound_to 7965
  154.7827  140.0466  157.1139 H   0  0  0  0  0  0  0  0  0  0  0  0  # atno 8008 bound_to 7997
  154.9686  140.3086  155.4978 H   0  0  0  0  0  0  0  0  0  0  0  0  # atno 8009 bound_to 7997
  156.2939  140.2257  156.4777 H   0  0  0  0  0  0  0  0  0  0  0  0  # atno 8010 bound_to 7997
  139.5687  144.1694  152.1351 H   0  0  0  0  0  0  0  0  0  0  0  0  # atno 10167 bound_to 10162
  156.5153  130.4619  149.6626 H   0  0  0  0  0  0  0  0  0  0  0  0  # atno 10718 bound_to 10713
  154.7737  135.4859  153.9700 H   0  0  0  0  0  0  0  0  0  0  0  0  # atno 10763 bound_to 10752
  153.1401  135.6771  153.9049 H   0  0  0  0  0  0  0  0  0  0  0  0  # atno 10764 bound_to 10752
  153.8726  135.3142  155.3421 H   0  0  0  0  0  0  0  0  0  0  0  0  # atno 10765 bound_to 10752
  140.5136  134.0627  155.7825 H   0  0  0  0  0  0  0  0  0  0  0  0  # atno 11005 bound_to 11000
  144.7986  139.6185  143.7082 LP  0  0  0  0  0  0  0  0  0  0  0  0  # atno 17320 bound_to 7965
  146.2435  139.6050  142.9475 LP  0  0  0  0  0  0  0  0  0  0  0  0  # atno 17321 bound_to 7965
  140.1222  144.5363  150.6855 LP  0  0  0  0  0  0  0  0  0  0  0  0  # atno 17342 bound_to 10162
  140.6971  143.2411  151.4970 LP  0  0  0  0  0  0  0  0  0  0  0  0  # atno 17343 bound_to 10162
  156.3201  130.7276  151.2186 LP  0  0  0  0  0  0  0  0  0  0  0  0  # atno 17370 bound_to 10713
  157.7445  131.0458  150.4861 LP  0  0  0  0  0  0  0  0  0  0  0  0  # atno 17371 bound_to 10713
  141.1372  133.9201  157.2407 LP  0  0  0  0  0  0  0  0  0  0  0  0  # atno 17394 bound_to 11000
  139.9645  135.0145  156.9349 LP  0  0  0  0  0  0  0  0  0  0  0  0  # atno 17395 bound_to 11000

$$$$
