AV-unprocessed.smi:2274|AV-procd|sdf|9169|dock9
  -GOLD-   2272012383D 1   1.00000     0.00000
 Structure written by MMmdl.
 47 48  0  0  0  0  0  0  0  0  1 V2000
  150.3350  141.8618  157.4775 C   0  0  0  0  0  0  0  0  0  0  0  0
  150.9242  141.3561  156.1505 C   0  0  0  0  0  0  0  0  0  0  0  0
  149.9198  140.8668  155.2135 N   0  0  0  0  0  0  0  0  0  0  0  0
  148.8738  141.6662  154.8836 N   0  0  0  0  0  0  0  0  0  0  0  0
  148.1179  140.9476  154.0714 C   0  0  0  0  0  0  0  0  0  0  0  0
  146.8594  141.5396  153.5055 C   0  0  0  0  0  0  0  0  0  0  0  0
  148.6840  139.6628  153.8633 C   0  0  0  0  0  0  0  0  0  0  0  0
  148.0941  138.6466  153.0704 N   0  0  0  0  0  0  0  0  0  0  0  0
  146.7912  138.3321  153.0066 C   0  0  0  0  0  0  0  0  0  0  0  0
  145.9031  138.8747  153.6641 O   0  0  0  0  0  0  0  0  0  0  0  0
  146.5718  137.3321  152.1418 N   0  0  0  0  0  0  0  0  0  0  0  0
  145.2654  136.7625  151.8330 C   0  0  0  0  0  0  0  0  0  0  0  0
  145.3158  135.8805  150.5732 C   0  0  0  0  0  0  0  0  0  0  0  0
  144.7346  134.4763  150.8011 C   0  0  1  0  0  0  0  0  0  0  0  0
  144.4472  133.7505  149.4719 C   0  0  0  0  0  0  0  0  0  0  0  0
  143.9480  132.3248  149.7323 C   0  0  0  0  0  0  0  0  0  0  0  0
  144.9359  131.5919  150.6454 C   0  0  0  0  0  0  0  0  0  0  0  0
  145.2038  132.4193  151.9123 C   0  0  0  0  0  0  0  0  0  0  0  0
  145.6767  133.7144  151.5543 O   0  0  0  0  0  0  0  0  0  0  0  0
  149.8091  139.6060  154.6435 C   0  0  0  0  0  0  0  0  0  0  0  0
  150.7789  138.5024  154.9348 C   0  0  0  0  0  0  0  0  0  0  0  0
  151.1182  142.2756  158.1126 H   0  0  0  0  0  0  0  0  0  0  0  0
  149.8526  141.0595  158.0366 H   0  0  0  0  0  0  0  0  0  0  0  0
  149.5971  142.6463  157.3070 H   0  0  0  0  0  0  0  0  0  0  0  0
  151.4759  142.1706  155.6815 H   0  0  0  0  0  0  0  0  0  0  0  0
  151.6380  140.5530  156.3362 H   0  0  0  0  0  0  0  0  0  0  0  0
  146.2080  140.7695  153.0922 H   0  0  0  0  0  0  0  0  0  0  0  0
  147.0869  142.2451  152.7064 H   0  0  0  0  0  0  0  0  0  0  0  0
  146.2943  142.0726  154.2706 H   0  0  0  0  0  0  0  0  0  0  0  0
  148.7341  138.0400  152.5791 H   0  0  0  0  0  0  0  0  0  0  0  0
  147.3642  136.9432  151.6520 H   0  0  0  0  0  0  0  0  0  0  0  0
  144.9486  136.1710  152.6922 H   0  0  0  0  0  0  0  0  0  0  0  0
  144.5280  137.5581  151.7152 H   0  0  0  0  0  0  0  0  0  0  0  0
  144.7579  136.3691  149.7733 H   0  0  0  0  0  0  0  0  0  0  0  0
  146.3448  135.7968  150.2211 H   0  0  0  0  0  0  0  0  0  0  0  0
  143.8075  134.5668  151.3704 H   0  0  0  0  0  0  0  0  0  0  0  0
  143.7080  134.3027  148.8904 H   0  0  0  0  0  0  0  0  0  0  0  0
  145.3552  133.7132  148.8685 H   0  0  0  0  0  0  0  0  0  0  0  0
  142.9659  132.3593  150.2058 H   0  0  0  0  0  0  0  0  0  0  0  0
  143.8252  131.7857  148.7926 H   0  0  0  0  0  0  0  0  0  0  0  0
  144.5484  130.6077  150.9096 H   0  0  0  0  0  0  0  0  0  0  0  0
  145.8739  131.4277  150.1138 H   0  0  0  0  0  0  0  0  0  0  0  0
  144.3018  132.5054  152.5203 H   0  0  0  0  0  0  0  0  0  0  0  0
  145.9565  131.9277  152.5288 H   0  0  0  0  0  0  0  0  0  0  0  0
  150.3260  137.5259  154.7657 H   0  0  0  0  0  0  0  0  0  0  0  0
  151.1047  138.5244  155.9746 H   0  0  0  0  0  0  0  0  0  0  0  0
  151.6603  138.5835  154.2984 H   0  0  0  0  0  0  0  0  0  0  0  0
  1  2  1  0  0  0  0
  1 22  1  0  0  0  0
  1 23  1  0  0  0  0
  1 24  1  0  0  0  0
  2  3  1  0  0  0  0
  2 25  1  0  0  0  0
  2 26  1  0  0  0  0
  3 20  1  0  0  0  0
  3  4  1  0  0  0  0
  4  5  2  0  0  0  0
  5  6  1  0  0  0  0
  5  7  1  0  0  0  0
  6 27  1  0  0  0  0
  6 28  1  0  0  0  0
  6 29  1  0  0  0  0
  7  8  1  0  0  0  0
  7 20  2  0  0  0  0
  8  9  1  0  0  0  0
  8 30  1  0  0  0  0
  9 10  2  0  0  0  0
  9 11  1  0  0  0  0
 11 12  1  0  0  0  0
 11 31  1  0  0  0  0
 12 13  1  0  0  0  0
 12 32  1  0  0  0  0
 12 33  1  0  0  0  0
 13 14  1  0  0  0  0
 13 34  1  0  0  0  0
 13 35  1  0  0  0  0
 14 19  1  0  0  0  0
 14 15  1  0  0  0  0
 14 36  1  0  0  0  0
 15 16  1  0  0  0  0
 15 37  1  0  0  0  0
 15 38  1  0  0  0  0
 16 17  1  0  0  0  0
 16 39  1  0  0  0  0
 16 40  1  0  0  0  0
 17 18  1  0  0  0  0
 17 41  1  0  0  0  0
 17 42  1  0  0  0  0
 18 19  1  0  0  0  0
 18 43  1  0  0  0  0
 18 44  1  0  0  0  0
 20 21  1  0  0  0  0
 21 45  1  0  0  0  0
 21 46  1  0  0  0  0
 21 47  1  0  0  0  0
M  END
> <s_m_source_file>
AV-unprocessed.smi

> <i_m_source_file_index>
2274

> <i_lp_mmshare_version>
43012

> <i_f3d_flags>
0

> <s_epik_input>
W0NIM11bQ0gyXW4xbmMoW0NIM10pYyhjMVtDSDNdKVtOSF1DKD1PKVtOSF1bQ0gyXVtDSDJdW0NAQEhdMltDSDJdW0NIMl1bQ0gyXVtDSDJdTzI=

> <s_epik_cmdline>
J2VwaWtfcHl0aG9uJywgJy1waCcsICc3LjAnLCAnLXRuJywgJzgnLCAnLW1hJywgJzIwMCcsICctbWV0YWxfYmluZGluZycsICctaW1hZScsICc8aW5maWxlLm1hZT4nLCAnLW9tYWUnLCAnPG91dGZpbGUubWFlPic=

> <r_lp_tautomer_probability>
1

> <r_epik_Ionization_Penalty>
0.00368263

> <r_epik_Ionization_Penalty_Charging>
0

> <r_epik_Ionization_Penalty_Neutral>
0.00368263

> <r_epik_State_Penalty>
0.00259417

> <r_epik_Charging_Adjusted_Penalty>
0.00259417

> <i_epik_Tot_Q>
0

> <i_epik_Tot_abs_Q>
0

> <r_epik_Metal_State_Penalty>
-0

> <b_epik_Metal_Only>
0

> <s_lp_Force_Field>
OPLS_2005

> <r_lp_Energy>
13.1283

> <b_lp_Chiralities_Consistent>
1

> <s_lp_Variant>
AV-unprocessed.smi:2274-2

> <Gold.Version>
5.8.1

> <Gold.Id.Protein>
6NUR|6NUR_protein|mol2

> <Gold.PLP.Fitness>
46.1516

> <Gold.PLP.PLP>
-41.8776

> <Gold.PLP.part.hbond>
-3.0000

> <Gold.PLP.part.metal>
0.0000

> <Gold.PLP.part.buried>
-4.4338

> <Gold.PLP.part.nonpolar>
-35.5967

> <Gold.PLP.part.repulsive>
0.5122

> <Gold.PLP.ligand.clash>
0.0000

> <Gold.PLP.ligand.torsion>
0.9197

> <Gold.PLP.Chemscore.Hbond>
1.9360

> <Gold.PLP.Chemscore.CHOScore>
0.0000

> <Gold.PLP.Chemscore.Metal>
0.0000

> <Gold.Chemscore.Hbonds>
donor molecule, donor type, donor heavy atom, donor atom, acceptor molecule, acceptor atom, score
      L1  H     8    30       P1  7948  0.90
      L1  H    11    31       P1  7948  0.91

> <Gold.PLP.Chemscore.Internal.Correction>
0.3055

> <Gold.Rescore>
     Score         DG    S(hbond)    S(metal)    S(lipo)     H(rot)  DE(clash)    DE(int)     intcor
     18.04     -19.47       1.89        0.00      97.60       1.46       0.27       1.17       ----

> <Gold.Chemscore.Fitness>
18.0353

> <Gold.Chemscore.DG>
-19.4704

> <Gold.Chemscore.ZeroCoef>
-5.4800

> <Gold.Chemscore.Hbond>
1.8895

> <Gold.Chemscore.Metal>
0.0000

> <Gold.Chemscore.Lipo>
97.5966

> <Gold.Chemscore.Internal_Hbond>
0.0000

> <Gold.Chemscore.DEClash>
0.2690

> <Gold.Chemscore.DEInternal>
1.1662

> <Gold.Chemscore.Rot>
1.4606

> <Gold.Chemscore.Internal.Correction>
   9.000000E+99

> <Gold.Chemscore.Hbonds>
donor molecule, donor type, donor heavy atom, donor atom, acceptor molecule, acceptor atom, score
      L1  H     8    30       P1  7948  0.88
      L1  H    11    31       P1  7948  0.90

> <Gold.Chemscore.Hbond.Weighted>
-6.3109

> <Gold.Chemscore.Metal.Weighted>
-0.0000

> <Gold.Chemscore.Lipo.Weighted>
-11.4188

> <Gold.Chemscore.Internal_Hbond.Weighted>
0.0000

> <Gold.Chemscore.DEClash.Weighted>
0.2690

> <Gold.Chemscore.DEInternal.Weighted>
1.1662

> <Gold.Chemscore.Rot.Weighted>
3.7393

> <Gold.Chemscore.Internal.Correction.Weighted>
   9.000000E+99

> <Gold.Protein.RotatedTorsions>
[ 6907 6896 6895 6894 ] final -168.76 input  -60.11 | X-H torsion
[ 7974 7965 7964 7962 ] final   91.49 input  175.53 | X-H torsion
[ 8008 7997 7996 7995 ] final  130.49 input   59.86 | X-H torsion
[ 10167 10162 10161 10158 ] final   24.25 input  -65.29 | X-H torsion
[ 10718 10713 10712 10709 ] final -151.96 input   66.30 | X-H torsion
[ 10763 10752 10751 10750 ] final -172.03 input  -60.55 | X-H torsion
[ 11005 11000 10999 10996 ] final  154.64 input  -57.11 | X-H torsion

> <Gold.Protein.ActiveResidues>
 VAL166  LYS551  ARG553  GLY616  TRP617  ASP618  TYR619  PRO620  LYS621  CYS622 
 ASP623  PHE694  ASN695  SER759  ASP760  ASP761  ALA762  ILE779  LEU786  VAL792 
 PHE793  MET794  SER795  GLU796  ALA797  LYS798  CYS799  TRP800  GLU811  SER814 

> <Gold.Protein.RotatedAtoms>
  151.4807  133.3547  159.2837 H   0  0  0  0  0  0  0  0  0  0  0  0  # atno 6907 bound_to 6896
  150.8899  134.8304  159.7297 H   0  0  0  0  0  0  0  0  0  0  0  0  # atno 6908 bound_to 6896
  152.4816  134.4715  159.9689 H   0  0  0  0  0  0  0  0  0  0  0  0  # atno 6909 bound_to 6896
  145.5050  139.2276  143.2756 H   0  0  0  0  0  0  0  0  0  0  0  0  # atno 7974 bound_to 7965
  156.2955  140.2595  156.2770 H   0  0  0  0  0  0  0  0  0  0  0  0  # atno 8008 bound_to 7997
  154.9639  140.0392  157.2221 H   0  0  0  0  0  0  0  0  0  0  0  0  # atno 8009 bound_to 7997
  154.7921  140.2813  155.5988 H   0  0  0  0  0  0  0  0  0  0  0  0  # atno 8010 bound_to 7997
  140.5203  144.0013  150.6414 H   0  0  0  0  0  0  0  0  0  0  0  0  # atno 10167 bound_to 10162
  156.4662  130.8237  151.2467 H   0  0  0  0  0  0  0  0  0  0  0  0  # atno 10718 bound_to 10713
  154.6239  135.2878  155.0295 H   0  0  0  0  0  0  0  0  0  0  0  0  # atno 10763 bound_to 10752
  154.1480  135.6508  153.4961 H   0  0  0  0  0  0  0  0  0  0  0  0  # atno 10764 bound_to 10752
  153.0248  135.5348  154.7039 H   0  0  0  0  0  0  0  0  0  0  0  0  # atno 10765 bound_to 10752
  140.1508  134.8676  157.2452 H   0  0  0  0  0  0  0  0  0  0  0  0  # atno 11005 bound_to 11000
  146.2202  140.5853  142.9020 LP  0  0  0  0  0  0  0  0  0  0  0  0  # atno 17320 bound_to 7965
  144.7759  140.5738  143.6638 LP  0  0  0  0  0  0  0  0  0  0  0  0  # atno 17321 bound_to 7965
  140.3360  143.3048  152.0638 LP  0  0  0  0  0  0  0  0  0  0  0  0  # atno 17342 bound_to 10162
  139.4921  144.6476  151.6745 LP  0  0  0  0  0  0  0  0  0  0  0  0  # atno 17343 bound_to 10162
  157.7494  131.0091  150.3254 LP  0  0  0  0  0  0  0  0  0  0  0  0  # atno 17370 bound_to 10713
  156.3665  130.3856  149.7209 LP  0  0  0  0  0  0  0  0  0  0  0  0  # atno 17371 bound_to 10713
  140.2607  134.3574  155.7407 LP  0  0  0  0  0  0  0  0  0  0  0  0  # atno 17394 bound_to 11000
  141.2198  133.7368  156.9076 LP  0  0  0  0  0  0  0  0  0  0  0  0  # atno 17395 bound_to 11000

$$$$
