AV-unprocessed.smi:1600|AV-procd|sdf|6428|dock10
  -GOLD-   22720 7 73D 1   1.00000     0.00000
 Structure written by MMmdl.
 46 47  0  0  0  0  0  0  0  0  2 V2000
  149.4983  142.0042  155.2500 C   0  0  0  0  0  0  0  0  0  0  0  0
  149.9124  140.5884  154.9769 C   0  0  0  0  0  0  0  0  0  0  0  0
  149.0769  139.4692  154.6935 C   0  0  0  0  0  0  0  0  0  0  0  0
  149.9788  138.4527  154.5339 C   0  0  0  0  0  0  0  0  0  0  0  0
  149.7493  137.1443  154.2436 N   0  0  0  0  0  0  0  0  0  0  0  0
  149.8585  136.0753  155.0517 C   0  0  0  0  0  0  0  0  0  0  0  0
  150.1831  136.1068  156.2389 O   0  0  0  0  0  0  0  0  0  0  0  0
  149.5835  134.9394  154.3937 N   0  0  0  0  0  0  0  0  0  0  0  0
  149.6076  133.5978  154.9732 C   0  0  0  0  0  0  0  0  0  0  0  0
  149.2727  132.4787  153.9626 C   0  0  1  0  0  0  0  0  0  0  0  0
  149.0906  131.0819  154.5557 C   0  0  0  0  0  0  0  0  0  0  0  0
  148.2685  130.3233  153.5039 C   0  0  0  0  0  0  0  0  0  0  0  0
  147.7197  131.3316  152.5605 N   0  3  1  0  0  0  0  0  0  0  0  0
  146.3152  131.0911  152.1230 C   0  0  0  0  0  0  0  0  0  0  0  0
  146.1409  129.6585  151.5848 C   0  0  0  0  0  0  0  0  0  0  0  0
  145.8691  132.1009  151.0481 C   0  0  0  0  0  0  0  0  0  0  0  0
  147.9853  132.6590  153.1564 C   0  0  0  0  0  0  0  0  0  0  0  0
  151.2495  138.9538  154.7086 N   0  0  0  0  0  0  0  0  0  0  0  0
  152.5268  138.2718  154.6352 C   0  0  0  0  0  0  0  0  0  0  0  0
  151.2032  140.2747  154.9858 N   0  0  0  0  0  0  0  0  0  0  0  0
  148.4327  142.1447  155.0679 H   0  0  0  0  0  0  0  0  0  0  0  0
  150.0380  142.7032  154.6105 H   0  0  0  0  0  0  0  0  0  0  0  0
  149.6963  142.2770  156.2866 H   0  0  0  0  0  0  0  0  0  0  0  0
  148.0002  139.4413  154.6219 H   0  0  0  0  0  0  0  0  0  0  0  0
  149.4852  136.9563  153.2877 H   0  0  0  0  0  0  0  0  0  0  0  0
  149.3245  135.0071  153.4199 H   0  0  0  0  0  0  0  0  0  0  0  0
  150.5733  133.3991  155.4409 H   0  0  0  0  0  0  0  0  0  0  0  0
  148.8774  133.5782  155.7825 H   0  0  0  0  0  0  0  0  0  0  0  0
  150.0966  132.4263  153.2488 H   0  0  0  0  0  0  0  0  0  0  0  0
  150.0418  130.5953  154.7740 H   0  0  0  0  0  0  0  0  0  0  0  0
  148.5238  131.1280  155.4863 H   0  0  0  0  0  0  0  0  0  0  0  0
  148.8900  129.6207  152.9479 H   0  0  0  0  0  0  0  0  0  0  0  0
  147.4802  129.7518  153.9961 H   0  0  0  0  0  0  0  0  0  0  0  0
  145.6643  131.2145  152.9901 H   0  0  0  0  0  0  0  0  0  0  0  0
  145.1159  129.4879  151.2543 H   0  0  0  0  0  0  0  0  0  0  0  0
  146.3592  128.9044  152.3407 H   0  0  0  0  0  0  0  0  0  0  0  0
  146.7963  129.4744  150.7328 H   0  0  0  0  0  0  0  0  0  0  0  0
  144.8570  131.8830  150.7053 H   0  0  0  0  0  0  0  0  0  0  0  0
  146.5253  132.0705  150.1777 H   0  0  0  0  0  0  0  0  0  0  0  0
  145.8582  133.1234  151.4253 H   0  0  0  0  0  0  0  0  0  0  0  0
  147.1522  132.9235  153.8078 H   0  0  0  0  0  0  0  0  0  0  0  0
  148.0845  133.4346  152.3965 H   0  0  0  0  0  0  0  0  0  0  0  0
  152.5510  137.4599  155.3624 H   0  0  0  0  0  0  0  0  0  0  0  0
  153.3442  138.9621  154.8485 H   0  0  0  0  0  0  0  0  0  0  0  0
  152.6646  137.8600  153.6354 H   0  0  0  0  0  0  0  0  0  0  0  0
  148.2982  131.2831  151.7340 H   0  0  0  0  0  0  0  0  0  0  0  0
  1  2  1  0  0  0  0
  1 21  1  0  0  0  0
  1 22  1  0  0  0  0
  1 23  1  0  0  0  0
  2 20  2  0  0  0  0
  2  3  1  0  0  0  0
  3  4  2  0  0  0  0
  3 24  1  0  0  0  0
  4  5  1  0  0  0  0
  4 18  1  0  0  0  0
  5  6  1  0  0  0  0
  5 25  1  0  0  0  0
  6  7  2  0  0  0  0
  6  8  1  0  0  0  0
  8  9  1  0  0  0  0
  8 26  1  0  0  0  0
  9 10  1  0  0  0  0
  9 27  1  0  0  0  0
  9 28  1  0  0  0  0
 10 17  1  0  0  0  0
 10 11  1  0  0  0  0
 10 29  1  0  0  0  0
 11 12  1  0  0  0  0
 11 30  1  0  0  0  0
 11 31  1  0  0  0  0
 12 13  1  0  0  0  0
 12 32  1  0  0  0  0
 12 33  1  0  0  0  0
 13 14  1  0  0  0  0
 13 17  1  0  0  0  0
 13 46  1  0  0  0  0
 14 15  1  0  0  0  0
 14 16  1  0  0  0  0
 14 34  1  0  0  0  0
 15 35  1  0  0  0  0
 15 36  1  0  0  0  0
 15 37  1  0  0  0  0
 16 38  1  0  0  0  0
 16 39  1  0  0  0  0
 16 40  1  0  0  0  0
 17 41  1  0  0  0  0
 17 42  1  0  0  0  0
 18 19  1  0  0  0  0
 18 20  1  0  0  0  0
 19 43  1  0  0  0  0
 19 44  1  0  0  0  0
 19 45  1  0  0  0  0
M  CHG  1  13   1
M  END
> <s_m_source_file>
AV-unprocessed.smi

> <i_m_source_file_index>
1600

> <i_lp_mmshare_version>
43012

> <i_f3d_flags>
0

> <s_epik_input>
W0NIM11jMVtjSF1jKG4objEpW0NIM10pW05IXUMoPU8pW05IXVtDSDJdW0NAQEhdMltDSDJdW0NIMl1OKFtDSDJdMilbQ0hdKFtDSDNdKVtDSDNd

> <s_epik_cmdline>
J2VwaWtfcHl0aG9uJywgJy1waCcsICc3LjAnLCAnLXRuJywgJzgnLCAnLW1hJywgJzIwMCcsICctbWV0YWxfYmluZGluZycsICctaW1hZScsICc8aW5maWxlLm1hZT4nLCAnLW9tYWUnLCAnPG91dGZpbGUubWFlPic=

> <r_lp_tautomer_probability>
1

> <r_epik_Ionization_Penalty>
0.000297652

> <r_epik_Ionization_Penalty_Charging>
0.000213653

> <r_epik_Ionization_Penalty_Neutral>
8.3999e-05

> <r_epik_State_Penalty>
-0

> <r_epik_Charging_Adjusted_Penalty>
0.000213653

> <i_epik_Tot_Q>
1

> <i_epik_Tot_abs_Q>
1

> <r_epik_Metal_State_Penalty>
-0

> <b_epik_Metal_Only>
0

> <s_lp_Force_Field>
OPLS_2005

> <r_lp_Energy>
33.4544

> <b_lp_Chiralities_Consistent>
1

> <s_lp_Variant>
AV-unprocessed.smi:1600-2

> <Gold.Version>
5.8.1

> <Gold.Id.Protein>
6NUR|6NUR_protein|mol2

> <Gold.PLP.Fitness>
49.4789

> <Gold.PLP.PLP>
-39.9640

> <Gold.PLP.part.hbond>
-4.1427

> <Gold.PLP.part.metal>
0.0000

> <Gold.PLP.part.buried>
-2.2702

> <Gold.PLP.part.nonpolar>
-34.6191

> <Gold.PLP.part.repulsive>
0.1539

> <Gold.PLP.ligand.clash>
0.0000

> <Gold.PLP.ligand.torsion>
0.7447

> <Gold.PLP.Chemscore.Hbond>
3.6608

> <Gold.PLP.Chemscore.CHOScore>
0.0000

> <Gold.PLP.Chemscore.Metal>
0.0000

> <Gold.Chemscore.Hbonds>
donor molecule, donor type, donor heavy atom, donor atom, acceptor molecule, acceptor atom, score
      L1  H     5    25       P1  7948  1.00
      L1  H     8    26       P1  7948  0.66
      L1  H    13    46       P1 10747  1.00
      P1  H  7989  7998       L1    20  0.95

> <Gold.PLP.Chemscore.Internal.Correction>
0.0218

> <Gold.Rescore>
     Score         DG    S(hbond)    S(metal)    S(lipo)     H(rot)  DE(clash)    DE(int)     intcor
     18.45     -19.42       2.50        0.00      79.29       1.44       0.09       0.88       ----

> <Gold.Chemscore.Fitness>
18.4550

> <Gold.Chemscore.DG>
-19.4160

> <Gold.Chemscore.ZeroCoef>
-5.4800

> <Gold.Chemscore.Hbond>
2.4962

> <Gold.Chemscore.Metal>
0.0000

> <Gold.Chemscore.Lipo>
79.2921

> <Gold.Chemscore.Internal_Hbond>
0.0000

> <Gold.Chemscore.DEClash>
0.0853

> <Gold.Chemscore.DEInternal>
0.8757

> <Gold.Chemscore.Rot>
1.4369

> <Gold.Chemscore.Internal.Correction>
   9.000000E+99

> <Gold.Chemscore.Hbonds>
donor molecule, donor type, donor heavy atom, donor atom, acceptor molecule, acceptor atom, score
      L1  H     5    25       P1  7948  0.82
      L1  H     8    26       P1  7948  0.07
      L1  H    13    46       P1 10747  1.00
      P1  H  7989  7998       L1    20  0.05

> <Gold.Chemscore.Hbond.Weighted>
-8.3373

> <Gold.Chemscore.Metal.Weighted>
-0.0000

> <Gold.Chemscore.Lipo.Weighted>
-9.2772

> <Gold.Chemscore.Internal_Hbond.Weighted>
0.0000

> <Gold.Chemscore.DEClash.Weighted>
0.0853

> <Gold.Chemscore.DEInternal.Weighted>
0.8757

> <Gold.Chemscore.Rot.Weighted>
3.6785

> <Gold.Chemscore.Internal.Correction.Weighted>
   9.000000E+99

> <Gold.Protein.RotatedTorsions>
[ 6907 6896 6895 6894 ] final  133.70 input  -60.11 | X-H torsion
[ 7974 7965 7964 7962 ] final -113.88 input  175.53 | X-H torsion
[ 8008 7997 7996 7995 ] final  -68.77 input   59.86 | X-H torsion
[ 10167 10162 10161 10158 ] final -152.04 input  -65.29 | X-H torsion
[ 10718 10713 10712 10709 ] final   12.84 input   66.30 | X-H torsion
[ 10763 10752 10751 10750 ] final  169.54 input  -60.55 | X-H torsion
[ 11005 11000 10999 10996 ] final -173.50 input  -57.11 | X-H torsion

> <Gold.Protein.ActiveResidues>
 VAL166  LYS551  ARG553  GLY616  TRP617  ASP618  TYR619  PRO620  LYS621  CYS622 
 ASP623  PHE694  ASN695  SER759  ASP760  ASP761  ALA762  ILE779  LEU786  VAL792 
 PHE793  MET794  SER795  GLU796  ALA797  LYS798  CYS799  TRP800  GLU811  SER814 

> <Gold.Protein.RotatedAtoms>
  152.3191  133.5834  159.5732 H   0  0  0  0  0  0  0  0  0  0  0  0  # atno 6907 bound_to 6896
  150.7362  134.0038  159.3656 H   0  0  0  0  0  0  0  0  0  0  0  0  # atno 6908 bound_to 6896
  151.7924  135.0732  160.0440 H   0  0  0  0  0  0  0  0  0  0  0  0  # atno 6909 bound_to 6896
  145.1267  140.8701  143.3782 H   0  0  0  0  0  0  0  0  0  0  0  0  # atno 7974 bound_to 7965
  154.4891  140.0866  156.7555 H   0  0  0  0  0  0  0  0  0  0  0  0  # atno 8008 bound_to 7997
  155.4274  140.3448  155.4258 H   0  0  0  0  0  0  0  0  0  0  0  0  # atno 8009 bound_to 7997
  156.1305  140.1500  156.9061 H   0  0  0  0  0  0  0  0  0  0  0  0  # atno 8010 bound_to 7997
  139.7215  143.8949  152.2505 H   0  0  0  0  0  0  0  0  0  0  0  0  # atno 10167 bound_to 10162
  157.0160  130.6136  149.5714 H   0  0  0  0  0  0  0  0  0  0  0  0  # atno 10718 bound_to 10713
  154.3846  135.2753  155.2191 H   0  0  0  0  0  0  0  0  0  0  0  0  # atno 10763 bound_to 10752
  154.4283  135.5983  153.6056 H   0  0  0  0  0  0  0  0  0  0  0  0  # atno 10764 bound_to 10752
  152.9833  135.5989  154.4093 H   0  0  0  0  0  0  0  0  0  0  0  0  # atno 10765 bound_to 10752
  140.4851  134.6039  157.4934 H   0  0  0  0  0  0  0  0  0  0  0  0  # atno 11005 bound_to 11000
  145.0680  139.3054  143.5846 LP  0  0  0  0  0  0  0  0  0  0  0  0  # atno 17320 bound_to 7965
  146.3517  140.0145  142.8664 LP  0  0  0  0  0  0  0  0  0  0  0  0  # atno 17321 bound_to 7965
  139.8847  144.6999  150.8838 LP  0  0  0  0  0  0  0  0  0  0  0  0  # atno 17342 bound_to 10162
  140.7754  143.3633  151.1786 LP  0  0  0  0  0  0  0  0  0  0  0  0  # atno 17343 bound_to 10162
  156.0119  130.5211  150.8015 LP  0  0  0  0  0  0  0  0  0  0  0  0  # atno 17370 bound_to 10713
  157.5285  131.0935  150.9986 LP  0  0  0  0  0  0  0  0  0  0  0  0  # atno 17371 bound_to 10713
  139.9803  134.7148  155.9872 LP  0  0  0  0  0  0  0  0  0  0  0  0  # atno 17394 bound_to 11000
  141.1512  133.6548  156.4019 LP  0  0  0  0  0  0  0  0  0  0  0  0  # atno 17395 bound_to 11000

$$$$
