AV-unprocessed.smi:21|AV-procd|sdf|122|dock6
  -GOLD-   2262015293D 1   1.00000     0.00000
 Structure written by MMmdl.
 62 65  0  0  0  0  0  0  0  0  2 V2000
  144.5973  132.4552  150.2970 C   0  0  0  0  0  0  0  0  0  0  0  0
  145.6254  131.5951  150.7607 O   0  0  0  0  0  0  0  0  0  0  0  0
  146.2271  132.0305  151.9708 C   0  0  2  0  0  0  0  0  0  0  0  0
  147.0961  133.2587  151.7211 C   0  0  0  0  0  0  0  0  0  0  0  0
  148.1628  133.2270  152.8322 C   0  0  1  0  0  0  0  0  0  0  0  0
  147.9068  134.2435  153.9680 C   0  0  0  0  0  0  0  0  0  0  0  0
  149.1245  134.8787  154.4742 N   0  0  0  0  0  0  0  0  0  0  0  0
  150.2103  134.0310  154.9625 C   0  0  0  0  0  0  0  0  0  0  0  0
  149.1132  136.1980  154.8202 C   0  0  0  0  0  0  0  0  0  0  0  0
  147.9136  136.8305  154.9289 N   0  0  0  0  0  0  0  0  0  0  0  0
  147.8488  138.1310  155.2257 C   0  0  0  0  0  0  0  0  0  0  0  0
  148.8477  138.9844  155.4497 N   0  0  0  0  0  0  0  0  0  0  0  0
  150.0559  138.3609  155.3597 C   0  0  0  0  0  0  0  0  0  0  0  0
  150.2808  136.9854  155.0617 C   0  0  0  0  0  0  0  0  0  0  0  0
  151.6486  136.7287  155.0782 N   0  0  0  0  0  0  0  0  0  0  0  0
  152.1959  137.8798  155.3544 C   0  0  0  0  0  0  0  0  0  0  0  0
  151.3109  138.9183  155.5226 N   0  0  0  0  0  0  0  0  0  0  0  0
  151.6344  140.3024  155.8149 C   0  0  0  0  0  0  0  0  0  0  0  0
  150.4351  141.1201  156.3650 C   0  0  2  0  0  0  0  0  0  0  0  0
  149.5519  141.7066  155.2331 C   0  0  0  0  0  0  0  0  0  0  0  0
  148.3696  142.3029  155.7277 O   0  0  0  0  0  0  0  0  0  0  0  0
  150.9346  142.2393  157.3168 C   0  0  2  0  0  0  0  0  0  0  0  0
  152.0158  141.8119  158.2967 C   0  0  0  0  0  0  0  0  0  0  0  0
  151.9511  142.9092  159.3516 C   0  0  0  0  0  0  0  0  0  0  0  0
  150.5814  143.2827  159.4239 O   0  0  0  0  0  0  0  0  0  0  0  0
  149.8786  142.7768  158.2929 C   0  0  0  0  0  0  0  0  0  0  0  0
  148.1420  131.8467  153.3771 N   0  3  2  0  0  0  0  0  0  0  0  0
  149.4773  131.2428  153.5755 C   0  0  0  0  0  0  0  0  0  0  0  0
  147.2353  131.0350  152.5412 C   0  0  0  0  0  0  0  0  0  0  0  0
  145.4705  132.2756  152.7188 H   0  0  0  0  0  0  0  0  0  0  0  0
  149.1362  133.4154  152.3767 H   0  0  0  0  0  0  0  0  0  0  0  0
  144.2046  132.0762  149.3534 H   0  0  0  0  0  0  0  0  0  0  0  0
  144.9747  133.4634  150.1221 H   0  0  0  0  0  0  0  0  0  0  0  0
  143.7693  132.5086  151.0043 H   0  0  0  0  0  0  0  0  0  0  0  0
  147.5901  133.1636  150.7529 H   0  0  0  0  0  0  0  0  0  0  0  0
  146.5108  134.1767  151.6925 H   0  0  0  0  0  0  0  0  0  0  0  0
  147.2250  135.0144  153.6072 H   0  0  0  0  0  0  0  0  0  0  0  0
  147.3771  133.7728  154.7945 H   0  0  0  0  0  0  0  0  0  0  0  0
  151.1780  134.4577  154.6962 H   0  0  0  0  0  0  0  0  0  0  0  0
  150.1599  133.0336  154.5254 H   0  0  0  0  0  0  0  0  0  0  0  0
  150.1671  133.9259  156.0470 H   0  0  0  0  0  0  0  0  0  0  0  0
  146.8544  138.5483  155.2861 H   0  0  0  0  0  0  0  0  0  0  0  0
  153.2661  138.0071  155.4292 H   0  0  0  0  0  0  0  0  0  0  0  0
  152.4569  140.2915  156.5297 H   0  0  0  0  0  0  0  0  0  0  0  0
  152.0219  140.7674  154.9075 H   0  0  0  0  0  0  0  0  0  0  0  0
  149.8130  140.4494  156.9605 H   0  0  0  0  0  0  0  0  0  0  0  0
  150.0774  142.4894  154.6881 H   0  0  0  0  0  0  0  0  0  0  0  0
  149.2965  140.9375  154.5034 H   0  0  0  0  0  0  0  0  0  0  0  0
  148.5536  143.2080  155.9282 H   0  0  0  0  0  0  0  0  0  0  0  0
  151.3177  143.0734  156.7262 H   0  0  0  0  0  0  0  0  0  0  0  0
  151.7671  140.8479  158.7435 H   0  0  0  0  0  0  0  0  0  0  0  0
  153.0053  141.7351  157.8451 H   0  0  0  0  0  0  0  0  0  0  0  0
  152.3289  142.5822  160.3205 H   0  0  0  0  0  0  0  0  0  0  0  0
  152.5324  143.7760  159.0349 H   0  0  0  0  0  0  0  0  0  0  0  0
  149.2588  143.5561  157.8490 H   0  0  0  0  0  0  0  0  0  0  0  0
  149.2202  141.9760  158.6327 H   0  0  0  0  0  0  0  0  0  0  0  0
  150.0157  131.1561  152.6308 H   0  0  0  0  0  0  0  0  0  0  0  0
  149.3840  130.2473  154.0103 H   0  0  0  0  0  0  0  0  0  0  0  0
  150.0743  131.8512  154.2550 H   0  0  0  0  0  0  0  0  0  0  0  0
  146.7649  130.2382  153.1180 H   0  0  0  0  0  0  0  0  0  0  0  0
  147.7991  130.5766  151.7265 H   0  0  0  0  0  0  0  0  0  0  0  0
  147.7041  131.9128  154.2850 H   0  0  0  0  0  0  0  0  0  0  0  0
  1  2  1  0  0  0  0
  1 32  1  0  0  0  0
  1 33  1  0  0  0  0
  1 34  1  0  0  0  0
  2  3  1  0  0  0  0
  3 30  1  0  0  0  0
  3 29  1  0  0  0  0
  3  4  1  0  0  0  0
  4  5  1  0  0  0  0
  4 35  1  0  0  0  0
  4 36  1  0  0  0  0
  5 31  1  0  0  0  0
  5  6  1  0  0  0  0
  5 27  1  0  0  0  0
  6  7  1  0  0  0  0
  6 37  1  0  0  0  0
  6 38  1  0  0  0  0
  7  8  1  0  0  0  0
  7  9  1  0  0  0  0
  8 39  1  0  0  0  0
  8 40  1  0  0  0  0
  8 41  1  0  0  0  0
  9 14  1  0  0  0  0
  9 10  2  0  0  0  0
 10 11  1  0  0  0  0
 11 12  2  0  0  0  0
 11 42  1  0  0  0  0
 12 13  1  0  0  0  0
 13 17  1  0  0  0  0
 13 14  2  0  0  0  0
 14 15  1  0  0  0  0
 15 16  2  0  0  0  0
 16 17  1  0  0  0  0
 16 43  1  0  0  0  0
 17 18  1  0  0  0  0
 18 19  1  0  0  0  0
 18 44  1  0  0  0  0
 18 45  1  0  0  0  0
 19 20  1  0  0  0  0
 19 22  1  0  0  0  0
 19 46  1  0  0  0  0
 20 21  1  0  0  0  0
 20 47  1  0  0  0  0
 20 48  1  0  0  0  0
 21 49  1  0  0  0  0
 22 26  1  0  0  0  0
 22 23  1  0  0  0  0
 22 50  1  0  0  0  0
 23 24  1  0  0  0  0
 23 51  1  0  0  0  0
 23 52  1  0  0  0  0
 24 25  1  0  0  0  0
 24 53  1  0  0  0  0
 24 54  1  0  0  0  0
 25 26  1  0  0  0  0
 26 55  1  0  0  0  0
 26 56  1  0  0  0  0
 27 28  1  0  0  0  0
 27 29  1  0  0  0  0
 27 62  1  0  0  0  0
 28 57  1  0  0  0  0
 28 58  1  0  0  0  0
 28 59  1  0  0  0  0
 29 60  1  0  0  0  0
 29 61  1  0  0  0  0
M  CHG  1  27   1
M  END
> <s_m_source_file>
AV-unprocessed.smi

> <i_m_source_file_index>
21

> <i_lp_mmshare_version>
43012

> <i_f3d_flags>
0

> <s_epik_input>
W0NIM11PW0NASF0xW0NIMl1bQ0BIXShOKFtDSDNdKVtDSDJdMSlbQ0gyXU4oW0NIM10pYyhuW2NIXW4yKWMoYzIzKW5bY0hdbjNbQ0gyXVtDQEhdKFtDSDJdW09IXSlbQ0BASF00W0NIMl1bQ0gyXU9bQ0gyXTQ=

> <s_epik_cmdline>
J2VwaWtfcHl0aG9uJywgJy1waCcsICc3LjAnLCAnLXRuJywgJzgnLCAnLW1hJywgJzIwMCcsICctbWV0YWxfYmluZGluZycsICctaW1hZScsICc8aW5maWxlLm1hZT4nLCAnLW9tYWUnLCAnPG91dGZpbGUubWFlPic=

> <r_lp_tautomer_probability>
1

> <r_epik_Ionization_Penalty>
0.0157465

> <r_epik_Ionization_Penalty_Charging>
0.015354

> <r_epik_Ionization_Penalty_Neutral>
0.000392529

> <r_epik_State_Penalty>
0.0120612

> <r_epik_Charging_Adjusted_Penalty>
0.0274152

> <i_epik_Tot_Q>
1

> <i_epik_Tot_abs_Q>
1

> <r_epik_Metal_State_Penalty>
0.0121253

> <b_epik_Metal_Only>
0

> <s_lp_Force_Field>
OPLS_2005

> <r_lp_Energy>
59.339

> <b_lp_Chiralities_Consistent>
1

> <s_lp_Variant>
AV-unprocessed.smi:21-2

> <Gold.Version>
5.8.1

> <Gold.Id.Protein>
6NUR|6NUR_protein|mol2

> <Gold.PLP.Fitness>
47.1583

> <Gold.PLP.PLP>
-44.2194

> <Gold.PLP.part.hbond>
-2.0959

> <Gold.PLP.part.metal>
0.0000

> <Gold.PLP.part.buried>
-4.4539

> <Gold.PLP.part.nonpolar>
-37.8683

> <Gold.PLP.part.repulsive>
0.4010

> <Gold.PLP.ligand.clash>
0.0000

> <Gold.PLP.ligand.torsion>
1.8295

> <Gold.PLP.Chemscore.Hbond>
2.0000

> <Gold.PLP.Chemscore.CHOScore>
0.0000

> <Gold.PLP.Chemscore.Metal>
0.0000

> <Gold.Chemscore.Hbonds>
donor molecule, donor type, donor heavy atom, donor atom, acceptor molecule, acceptor atom, score
      L1  H    21    49       P1  8028  1.00
      P1  H 10752 10765       L1    15  1.00

> <Gold.PLP.Chemscore.Internal.Correction>
0.5979

> <Gold.Rescore>
     Score         DG    S(hbond)    S(metal)    S(lipo)     H(rot)  DE(clash)    DE(int)     intcor
      9.69     -15.23       1.44        0.00     109.54       3.08       0.32       5.22       ----

> <Gold.Chemscore.Fitness>
9.6893

> <Gold.Chemscore.DG>
-15.2297

> <Gold.Chemscore.ZeroCoef>
-5.4800

> <Gold.Chemscore.Hbond>
1.4396

> <Gold.Chemscore.Metal>
0.0000

> <Gold.Chemscore.Lipo>
109.5355

> <Gold.Chemscore.Internal_Hbond>
0.0000

> <Gold.Chemscore.DEClash>
0.3185

> <Gold.Chemscore.DEInternal>
5.2219

> <Gold.Chemscore.Rot>
3.0758

> <Gold.Chemscore.Internal.Correction>
   9.000000E+99

> <Gold.Chemscore.Hbonds>
donor molecule, donor type, donor heavy atom, donor atom, acceptor molecule, acceptor atom, score
      L1  H    21    49       P1  8028  0.93
      P1  H 10752 10765       L1    15  0.65

> <Gold.Chemscore.Hbond.Weighted>
-4.8082

> <Gold.Chemscore.Metal.Weighted>
-0.0000

> <Gold.Chemscore.Lipo.Weighted>
-12.8156

> <Gold.Chemscore.Internal_Hbond.Weighted>
0.0000

> <Gold.Chemscore.DEClash.Weighted>
0.3185

> <Gold.Chemscore.DEInternal.Weighted>
5.2219

> <Gold.Chemscore.Rot.Weighted>
7.8741

> <Gold.Chemscore.Internal.Correction.Weighted>
   9.000000E+99

> <Gold.Protein.RotatedTorsions>
[ 6907 6896 6895 6894 ] final  -54.47 input  -60.11 | X-H torsion
[ 7974 7965 7964 7962 ] final -167.95 input  175.53 | X-H torsion
[ 8008 7997 7996 7995 ] final   61.43 input   59.86 | X-H torsion
[ 10167 10162 10161 10158 ] final  137.00 input  -65.29 | X-H torsion
[ 10718 10713 10712 10709 ] final  165.16 input   66.30 | X-H torsion
[ 10763 10752 10751 10750 ] final -179.35 input  -60.55 | X-H torsion
[ 11005 11000 10999 10996 ] final  -28.30 input  -57.11 | X-H torsion

> <Gold.Protein.ActiveResidues>
 VAL166  LYS551  ARG553  GLY616  TRP617  ASP618  TYR619  PRO620  LYS621  CYS622 
 ASP623  PHE694  ASN695  SER759  ASP760  ASP761  ALA762  ILE779  LEU786  VAL792 
 PHE793  MET794  SER795  GLU796  ALA797  LYS798  CYS799  TRP800  GLU811  SER814 

> <Gold.Protein.RotatedAtoms>
  150.8335  134.7599  159.6873 H   0  0  0  0  0  0  0  0  0  0  0  0  # atno 6907 bound_to 6896
  152.4436  134.5537  159.9884 H   0  0  0  0  0  0  0  0  0  0  0  0  # atno 6908 bound_to 6896
  151.5693  133.3354  159.3022 H   0  0  0  0  0  0  0  0  0  0  0  0  # atno 6909 bound_to 6896
  144.7212  140.2442  143.6287 H   0  0  0  0  0  0  0  0  0  0  0  0  # atno 7974 bound_to 7965
  155.5982  140.3493  155.4586 H   0  0  0  0  0  0  0  0  0  0  0  0  # atno 8008 bound_to 7997
  156.0249  140.1262  157.0343 H   0  0  0  0  0  0  0  0  0  0  0  0  # atno 8009 bound_to 7997
  154.4329  140.1055  156.6002 H   0  0  0  0  0  0  0  0  0  0  0  0  # atno 8010 bound_to 7997
  139.5160  144.6434  151.5506 H   0  0  0  0  0  0  0  0  0  0  0  0  # atno 10167 bound_to 10162
  157.0841  131.0400  151.2563 H   0  0  0  0  0  0  0  0  0  0  0  0  # atno 10718 bound_to 10713
  154.5362  135.2803  155.1136 H   0  0  0  0  0  0  0  0  0  0  0  0  # atno 10763 bound_to 10752
  154.2637  135.6317  153.5288 H   0  0  0  0  0  0  0  0  0  0  0  0  # atno 10764 bound_to 10752
  152.9968  135.5611  154.5889 H   0  0  0  0  0  0  0  0  0  0  0  0  # atno 10765 bound_to 10752
  140.9196  133.7407  156.0783 H   0  0  0  0  0  0  0  0  0  0  0  0  # atno 11005 bound_to 11000
  145.8291  139.2077  143.1893 LP  0  0  0  0  0  0  0  0  0  0  0  0  # atno 17320 bound_to 7965
  146.0447  140.8130  142.9811 LP  0  0  0  0  0  0  0  0  0  0  0  0  # atno 17321 bound_to 7965
  140.6209  143.9259  150.6526 LP  0  0  0  0  0  0  0  0  0  0  0  0  # atno 17342 bound_to 10162
  140.2532  143.3577  152.1387 LP  0  0  0  0  0  0  0  0  0  0  0  0  # atno 17343 bound_to 10162
  157.4776  130.7746  149.7383 LP  0  0  0  0  0  0  0  0  0  0  0  0  # atno 17370 bound_to 10713
  155.9915  130.3937  150.2980 LP  0  0  0  0  0  0  0  0  0  0  0  0  # atno 17371 bound_to 10713
  140.8005  134.3514  157.5441 LP  0  0  0  0  0  0  0  0  0  0  0  0  # atno 17394 bound_to 11000
  139.8773  134.9194  156.3227 LP  0  0  0  0  0  0  0  0  0  0  0  0  # atno 17395 bound_to 11000

$$$$
