AV-unprocessed.smi:1703|AV-procd|sdf|6871|dock4
  -GOLD-   22720 8 73D 1   1.00000     0.00000
 Structure written by MMmdl.
 49 51  0  0  0  0  0  0  0  0  2 V2000
  144.6194  141.9883  158.9670 C   0  0  0  0  0  0  0  0  0  0  0  0
  145.2978  142.4091  157.6593 C   0  0  1  0  0  0  0  0  0  0  0  0
  146.6480  141.7000  157.4535 C   0  0  0  0  0  0  0  0  0  0  0  0
  147.2531  142.0442  156.1733 N   0  0  0  0  0  0  0  0  0  0  0  0
  148.5571  141.4017  156.0161 C   0  0  0  0  0  0  0  0  0  0  0  0
  149.5642  141.6845  157.1511 C   0  0  2  0  0  0  0  0  0  0  0  0
  149.3509  142.9927  157.6453 O   0  0  0  0  0  0  0  0  0  0  0  0
  151.0243  141.5639  156.6716 C   0  0  0  0  0  0  0  0  0  0  0  0
  151.9050  140.9495  157.6791 N   0  0  0  0  0  0  0  0  0  0  0  0
  152.4909  139.7175  157.6889 C   0  0  0  0  0  0  0  0  0  0  0  0
  152.3658  138.6647  156.6334 C   0  0  0  0  0  0  0  0  0  0  0  0
  153.4676  138.6248  155.7508 O   0  0  0  0  0  0  0  0  0  0  0  0
  153.2098  139.6236  158.8438 N   0  3  0  0  0  0  0  0  0  0  0  0
  153.0835  140.8021  159.5786 C   0  0  0  0  0  0  0  0  0  0  0  0
  153.6263  141.1718  160.8055 C   0  0  0  0  0  0  0  0  0  0  0  0
  153.2948  142.4566  161.2824 C   0  0  0  0  0  0  0  0  0  0  0  0
  152.4534  143.3172  160.5482 C   0  0  0  0  0  0  0  0  0  0  0  0
  151.9099  142.9316  159.3049 C   0  0  0  0  0  0  0  0  0  0  0  0
  152.2444  141.6600  158.8378 C   0  0  0  0  0  0  0  0  0  0  0  0
  146.3238  141.6981  155.1001 C   0  0  0  0  0  0  0  0  0  0  0  0
  144.9395  142.3540  155.2757 C   0  0  2  0  0  0  0  0  0  0  0  0
  144.9361  143.8597  154.9612 C   0  0  0  0  0  0  0  0  0  0  0  0
  144.4236  142.0834  156.5802 O   0  0  0  0  0  0  0  0  0  0  0  0
  145.2453  142.2252  159.8278 H   0  0  0  0  0  0  0  0  0  0  0  0
  144.4214  140.9161  158.9818 H   0  0  0  0  0  0  0  0  0  0  0  0
  143.6682  142.5051  159.0960 H   0  0  0  0  0  0  0  0  0  0  0  0
  145.4537  143.4880  157.6862 H   0  0  0  0  0  0  0  0  0  0  0  0
  147.3223  141.9746  158.2658 H   0  0  0  0  0  0  0  0  0  0  0  0
  146.5077  140.6195  157.5172 H   0  0  0  0  0  0  0  0  0  0  0  0
  148.3887  140.3242  155.9901 H   0  0  0  0  0  0  0  0  0  0  0  0
  148.9917  141.6474  155.0454 H   0  0  0  0  0  0  0  0  0  0  0  0
  149.4070  140.9768  157.9661 H   0  0  0  0  0  0  0  0  0  0  0  0
  149.3136  143.5880  156.9127 H   0  0  0  0  0  0  0  0  0  0  0  0
  151.0708  140.9331  155.7832 H   0  0  0  0  0  0  0  0  0  0  0  0
  151.4266  142.5319  156.3730 H   0  0  0  0  0  0  0  0  0  0  0  0
  152.2626  137.6903  157.1109 H   0  0  0  0  0  0  0  0  0  0  0  0
  151.4586  138.8418  156.0553 H   0  0  0  0  0  0  0  0  0  0  0  0
  154.0669  137.9570  156.0485 H   0  0  0  0  0  0  0  0  0  0  0  0
  154.2693  140.5129  161.3703 H   0  0  0  0  0  0  0  0  0  0  0  0
  153.6925  142.7881  162.2308 H   0  0  0  0  0  0  0  0  0  0  0  0
  152.2189  144.2937  160.9472 H   0  0  0  0  0  0  0  0  0  0  0  0
  151.2635  143.5998  158.7561 H   0  0  0  0  0  0  0  0  0  0  0  0
  146.7325  141.9897  154.1328 H   0  0  0  0  0  0  0  0  0  0  0  0
  146.1984  140.6147  155.0668 H   0  0  0  0  0  0  0  0  0  0  0  0
  144.2540  141.8821  154.5715 H   0  0  0  0  0  0  0  0  0  0  0  0
  145.2233  144.0388  153.9248 H   0  0  0  0  0  0  0  0  0  0  0  0
  145.6323  144.4130  155.5914 H   0  0  0  0  0  0  0  0  0  0  0  0
  143.9429  144.2849  155.1066 H   0  0  0  0  0  0  0  0  0  0  0  0
  153.7457  138.8056  159.1042 H   0  0  0  0  0  0  0  0  0  0  0  0
  1  2  1  0  0  0  0
  1 24  1  0  0  0  0
  1 25  1  0  0  0  0
  1 26  1  0  0  0  0
  2 23  1  0  0  0  0
  2  3  1  0  0  0  0
  2 27  1  0  0  0  0
  3  4  1  0  0  0  0
  3 28  1  0  0  0  0
  3 29  1  0  0  0  0
  4  5  1  0  0  0  0
  4 20  1  0  0  0  0
  5  6  1  0  0  0  0
  5 30  1  0  0  0  0
  5 31  1  0  0  0  0
  6  7  1  0  0  0  0
  6  8  1  0  0  0  0
  6 32  1  0  0  0  0
  7 33  1  0  0  0  0
  8  9  1  0  0  0  0
  8 34  1  0  0  0  0
  8 35  1  0  0  0  0
  9 19  1  0  0  0  0
  9 10  1  0  0  0  0
 10 11  1  0  0  0  0
 10 13  2  0  0  0  0
 11 12  1  0  0  0  0
 11 36  1  0  0  0  0
 11 37  1  0  0  0  0
 12 38  1  0  0  0  0
 13 14  1  0  0  0  0
 13 49  1  0  0  0  0
 14 19  2  0  0  0  0
 14 15  1  0  0  0  0
 15 16  2  0  0  0  0
 15 39  1  0  0  0  0
 16 17  1  0  0  0  0
 16 40  1  0  0  0  0
 17 18  2  0  0  0  0
 17 41  1  0  0  0  0
 18 19  1  0  0  0  0
 18 42  1  0  0  0  0
 20 21  1  0  0  0  0
 20 43  1  0  0  0  0
 20 44  1  0  0  0  0
 21 22  1  0  0  0  0
 21 23  1  0  0  0  0
 21 45  1  0  0  0  0
 22 46  1  0  0  0  0
 22 47  1  0  0  0  0
 22 48  1  0  0  0  0
M  CHG  1  13   1
M  END
> <s_m_source_file>
AV-unprocessed.smi

> <i_m_source_file_index>
1703

> <i_lp_mmshare_version>
43012

> <i_f3d_flags>
0

> <s_epik_input>
W0NIM11bQ0BASF0xW0NIMl1OKFtDSDJdW0NASF0oTzEpW0NIM10pW0NIMl1bQ0BIXShbT0hdKVtDSDJdbihjKG4yKVtDSDJdW09IXSljKGMyMylbY0hdW2NIXVtjSF1bY0hdMw==

> <s_epik_cmdline>
J2VwaWtfcHl0aG9uJywgJy1waCcsICc3LjAnLCAnLXRuJywgJzgnLCAnLW1hJywgJzIwMCcsICctbWV0YWxfYmluZGluZycsICctaW1hZScsICc8aW5maWxlLm1hZT4nLCAnLW9tYWUnLCAnPG91dGZpbGUubWFlPic=

> <r_epik_Ionization_Penalty>
1.7682

> <r_epik_Ionization_Penalty_Charging>
1.55298

> <r_epik_Ionization_Penalty_Neutral>
0.215215

> <r_epik_State_Penalty>
1.83821

> <r_epik_Charging_Adjusted_Penalty>
3.39119

> <i_epik_Tot_Q>
1

> <i_epik_Tot_abs_Q>
1

> <r_epik_Metal_State_Penalty>
5.89206

> <b_epik_Metal_Only>
0

> <s_lp_Force_Field>
OPLS_2005

> <r_lp_Energy>
35.0588

> <b_lp_Chiralities_Consistent>
1

> <s_lp_Variant>
AV-unprocessed.smi:1703-19

> <Gold.Version>
5.8.1

> <Gold.Id.Protein>
6NUR|6NUR_protein|mol2

> <Gold.PLP.Fitness>
40.6435

> <Gold.PLP.PLP>
-37.4703

> <Gold.PLP.part.hbond>
-2.1389

> <Gold.PLP.part.metal>
0.0000

> <Gold.PLP.part.buried>
-5.7175

> <Gold.PLP.part.nonpolar>
-29.9760

> <Gold.PLP.part.repulsive>
0.2763

> <Gold.PLP.ligand.clash>
0.0000

> <Gold.PLP.ligand.torsion>
1.2430

> <Gold.PLP.Chemscore.Hbond>
1.8800

> <Gold.PLP.Chemscore.CHOScore>
0.0000

> <Gold.PLP.Chemscore.Metal>
0.0000

> <Gold.Chemscore.Hbonds>
donor molecule, donor type, donor heavy atom, donor atom, acceptor molecule, acceptor atom, score
      L1  H     7    33       P1  8028  1.00
      P1  H  7997  8010       L1    12  0.88

> <Gold.PLP.Chemscore.Internal.Correction>
0.0192

> <Gold.Rescore>
     Score         DG    S(hbond)    S(metal)    S(lipo)     H(rot)  DE(clash)    DE(int)     intcor
     13.37     -14.66       1.39        0.00     103.40       2.96       0.03       1.26       ----

> <Gold.Chemscore.Fitness>
13.3716

> <Gold.Chemscore.DG>
-14.6572

> <Gold.Chemscore.ZeroCoef>
-5.4800

> <Gold.Chemscore.Hbond>
1.3909

> <Gold.Chemscore.Metal>
0.0000

> <Gold.Chemscore.Lipo>
103.3981

> <Gold.Chemscore.Internal_Hbond>
0.0000

> <Gold.Chemscore.DEClash>
0.0280

> <Gold.Chemscore.DEInternal>
1.2577

> <Gold.Chemscore.Rot>
2.9555

> <Gold.Chemscore.Internal.Correction>
   9.000000E+99

> <Gold.Chemscore.Hbonds>
donor molecule, donor type, donor heavy atom, donor atom, acceptor molecule, acceptor atom, score
      L1  H     7    33       P1  8028  0.88
      P1  H  7997  8010       L1    12  0.12

> <Gold.Chemscore.Hbond.Weighted>
-4.6456

> <Gold.Chemscore.Metal.Weighted>
-0.0000

> <Gold.Chemscore.Lipo.Weighted>
-12.0976

> <Gold.Chemscore.Internal_Hbond.Weighted>
0.0000

> <Gold.Chemscore.DEClash.Weighted>
0.0280

> <Gold.Chemscore.DEInternal.Weighted>
1.2577

> <Gold.Chemscore.Rot.Weighted>
7.5660

> <Gold.Chemscore.Internal.Correction.Weighted>
   9.000000E+99

> <Gold.Protein.RotatedTorsions>
[ 6907 6896 6895 6894 ] final -120.40 input  -60.11 | X-H torsion
[ 7974 7965 7964 7962 ] final -150.68 input  175.53 | X-H torsion
[ 8008 7997 7996 7995 ] final   89.50 input   59.86 | X-H torsion
[ 10167 10162 10161 10158 ] final  177.75 input  -65.29 | X-H torsion
[ 10718 10713 10712 10709 ] final -154.17 input   66.30 | X-H torsion
[ 10763 10752 10751 10750 ] final  132.97 input  -60.55 | X-H torsion
[ 11005 11000 10999 10996 ] final    5.91 input  -57.11 | X-H torsion

> <Gold.Protein.ActiveResidues>
 VAL166  LYS551  ARG553  GLY616  TRP617  ASP618  TYR619  PRO620  LYS621  CYS622 
 ASP623  PHE694  ASN695  SER759  ASP760  ASP761  ALA762  ILE779  LEU786  VAL792 
 PHE793  MET794  SER795  GLU796  ALA797  LYS798  CYS799  TRP800  GLU811  SER814 

> <Gold.Protein.RotatedAtoms>
  150.8390  133.7966  159.3067 H   0  0  0  0  0  0  0  0  0  0  0  0  # atno 6907 bound_to 6896
  151.5673  135.1062  159.9996 H   0  0  0  0  0  0  0  0  0  0  0  0  # atno 6908 bound_to 6896
  152.4457  133.7490  159.6740 H   0  0  0  0  0  0  0  0  0  0  0  0  # atno 6909 bound_to 6896
  144.7894  140.4900  143.5783 H   0  0  0  0  0  0  0  0  0  0  0  0  # atno 7974 bound_to 7965
  156.0007  140.3360  155.6842 H   0  0  0  0  0  0  0  0  0  0  0  0  # atno 8008 bound_to 7997
  155.6294  140.0683  157.2671 H   0  0  0  0  0  0  0  0  0  0  0  0  # atno 8009 bound_to 7997
  154.4248  140.1762  156.1444 H   0  0  0  0  0  0  0  0  0  0  0  0  # atno 8010 bound_to 7997
  139.5266  144.2762  152.0586 H   0  0  0  0  0  0  0  0  0  0  0  0  # atno 10167 bound_to 10162
  156.4957  130.8368  151.2588 H   0  0  0  0  0  0  0  0  0  0  0  0  # atno 10718 bound_to 10713
  153.7995  135.3144  155.3388 H   0  0  0  0  0  0  0  0  0  0  0  0  # atno 10763 bound_to 10752
  154.8094  135.4677  154.0480 H   0  0  0  0  0  0  0  0  0  0  0  0  # atno 10764 bound_to 10752
  153.1824  135.6895  153.8548 H   0  0  0  0  0  0  0  0  0  0  0  0  # atno 10765 bound_to 10752
  140.5654  134.0152  155.7988 H   0  0  0  0  0  0  0  0  0  0  0  0  # atno 11005 bound_to 11000
  145.5835  139.1490  143.3222 LP  0  0  0  0  0  0  0  0  0  0  0  0  # atno 17320 bound_to 7965
  146.2139  140.5964  142.9047 LP  0  0  0  0  0  0  0  0  0  0  0  0  # atno 17321 bound_to 7965
  140.2219  144.4457  150.6338 LP  0  0  0  0  0  0  0  0  0  0  0  0  # atno 17342 bound_to 10162
  140.6413  143.2204  151.6284 LP  0  0  0  0  0  0  0  0  0  0  0  0  # atno 17343 bound_to 10162
  157.7469  130.9999  150.2905 LP  0  0  0  0  0  0  0  0  0  0  0  0  # atno 17370 bound_to 10713
  156.3383  130.3811  149.7431 LP  0  0  0  0  0  0  0  0  0  0  0  0  # atno 17371 bound_to 10713
  141.1089  133.9649  157.2947 LP  0  0  0  0  0  0  0  0  0  0  0  0  # atno 17394 bound_to 11000
  139.9387  135.0193  156.8639 LP  0  0  0  0  0  0  0  0  0  0  0  0  # atno 17395 bound_to 11000

$$$$
