AV-unprocessed.smi:234|AV-procd|sdf|1787|dock10
  -GOLD-   2262020343D 1   1.00000     0.00000
 Structure written by MMmdl.
 59 62  0  0  0  0  0  0  0  0  1 V2000
  152.4645  144.4174  158.4011 C   0  0  0  0  0  0  0  0  0  0  0  0
  151.2678  143.4576  158.3702 C   0  0  0  0  0  0  0  0  0  0  0  0
  151.5227  142.3101  157.5732 O   0  0  0  0  0  0  0  0  0  0  0  0
  150.4149  141.4316  157.4235 C   0  0  2  0  0  0  0  0  0  0  0  0
  150.2654  140.4901  158.6166 C   0  0  0  0  0  0  0  0  0  0  0  0
  149.8657  139.4222  157.5891 C   0  0  2  0  0  0  0  0  0  0  0  0
  150.3534  138.0759  157.9021 N   0  0  0  0  0  0  0  0  0  0  0  0
  151.5287  137.9442  158.7556 C   0  0  0  0  0  0  0  0  0  0  0  0
  150.3391  137.1521  156.9118 C   0  0  0  0  0  0  0  0  0  0  0  0
  150.8013  137.5432  155.6973 N   0  0  0  0  0  0  0  0  0  0  0  0
  150.8214  136.6804  154.6771 C   0  0  0  0  0  0  0  0  0  0  0  0
  150.4266  135.4059  154.6535 N   0  0  0  0  0  0  0  0  0  0  0  0
  149.9455  135.0130  155.8677 C   0  0  0  0  0  0  0  0  0  0  0  0
  149.8585  135.8164  157.0403 C   0  0  0  0  0  0  0  0  0  0  0  0
  149.2912  135.0795  158.0739 N   0  0  0  0  0  0  0  0  0  0  0  0
  149.0722  133.9059  157.5484 C   0  0  0  0  0  0  0  0  0  0  0  0
  149.4469  133.7736  156.2307 N   0  0  0  0  0  0  0  0  0  0  0  0
  149.3286  132.5796  155.4070 C   0  0  0  0  0  0  0  0  0  0  0  0
  150.3438  131.4693  155.7872 C   0  0  1  0  0  0  0  0  0  0  0  0
  151.6275  132.0632  155.8820 O   0  0  0  0  0  0  0  0  0  0  0  0
  150.0409  130.8004  157.1260 C   0  0  0  0  0  0  0  0  0  0  0  0
  150.6065  129.4002  156.9479 C   0  0  0  0  0  0  0  0  0  0  0  0
  150.2584  129.1005  155.6084 O   0  0  0  0  0  0  0  0  0  0  0  0
  150.4534  130.2647  154.8095 C   0  0  1  0  0  0  0  0  0  0  0  0
  149.4418  130.2127  153.6541 C   0  0  0  0  0  0  0  0  0  0  0  0
  150.7070  140.1950  156.5337 C   0  0  0  0  0  0  0  0  0  0  0  0
  150.1257  140.2547  155.1203 C   0  0  0  0  0  0  0  0  0  0  0  0
  152.1912  139.8135  156.3947 C   0  0  0  0  0  0  0  0  0  0  0  0
  152.2853  145.2351  159.0994 H   0  0  0  0  0  0  0  0  0  0  0  0
  152.6494  144.8599  157.4228 H   0  0  0  0  0  0  0  0  0  0  0  0
  153.3717  143.9017  158.7166 H   0  0  0  0  0  0  0  0  0  0  0  0
  151.0629  143.1138  159.3842 H   0  0  0  0  0  0  0  0  0  0  0  0
  150.3657  143.9671  158.0277 H   0  0  0  0  0  0  0  0  0  0  0  0
  149.4669  141.9211  157.1860 H   0  0  0  0  0  0  0  0  0  0  0  0
  151.2083  140.2863  159.1277 H   0  0  0  0  0  0  0  0  0  0  0  0
  149.4790  140.7708  159.3175 H   0  0  0  0  0  0  0  0  0  0  0  0
  148.7995  139.4601  157.3581 H   0  0  0  0  0  0  0  0  0  0  0  0
  152.3945  137.5866  158.1956 H   0  0  0  0  0  0  0  0  0  0  0  0
  151.3277  137.2369  159.5604 H   0  0  0  0  0  0  0  0  0  0  0  0
  151.8016  138.8972  159.2059 H   0  0  0  0  0  0  0  0  0  0  0  0
  151.2102  137.0668  153.7462 H   0  0  0  0  0  0  0  0  0  0  0  0
  148.6330  133.0974  158.1144 H   0  0  0  0  0  0  0  0  0  0  0  0
  148.3066  132.2133  155.5070 H   0  0  0  0  0  0  0  0  0  0  0  0
  149.4524  132.8704  154.3630 H   0  0  0  0  0  0  0  0  0  0  0  0
  152.1785  131.6970  155.2075 H   0  0  0  0  0  0  0  0  0  0  0  0
  150.4557  131.3261  157.9874 H   0  0  0  0  0  0  0  0  0  0  0  0
  148.9627  130.7243  157.2717 H   0  0  0  0  0  0  0  0  0  0  0  0
  151.6918  129.3945  157.0602 H   0  0  0  0  0  0  0  0  0  0  0  0
  150.1798  128.6803  157.6465 H   0  0  0  0  0  0  0  0  0  0  0  0
  151.4586  130.2084  154.3872 H   0  0  0  0  0  0  0  0  0  0  0  0
  149.5468  131.0736  152.9938 H   0  0  0  0  0  0  0  0  0  0  0  0
  148.4154  130.1836  154.0202 H   0  0  0  0  0  0  0  0  0  0  0  0
  149.5968  129.3191  153.0493 H   0  0  0  0  0  0  0  0  0  0  0  0
  150.2088  139.2971  154.6070 H   0  0  0  0  0  0  0  0  0  0  0  0
  150.6409  140.9941  154.5073 H   0  0  0  0  0  0  0  0  0  0  0  0
  149.0695  140.5240  155.1336 H   0  0  0  0  0  0  0  0  0  0  0  0
  152.3169  138.8671  155.8683 H   0  0  0  0  0  0  0  0  0  0  0  0
  152.6823  139.7099  157.3623 H   0  0  0  0  0  0  0  0  0  0  0  0
  152.7444  140.5693  155.8361 H   0  0  0  0  0  0  0  0  0  0  0  0
  1  2  1  0  0  0  0
  1 29  1  0  0  0  0
  1 30  1  0  0  0  0
  1 31  1  0  0  0  0
  2  3  1  0  0  0  0
  2 32  1  0  0  0  0
  2 33  1  0  0  0  0
  3  4  1  0  0  0  0
  4 26  1  0  0  0  0
  4  5  1  0  0  0  0
  4 34  1  0  0  0  0
  5  6  1  0  0  0  0
  5 35  1  0  0  0  0
  5 36  1  0  0  0  0
  6  7  1  0  0  0  0
  6 26  1  0  0  0  0
  6 37  1  0  0  0  0
  7  8  1  0  0  0  0
  7  9  1  0  0  0  0
  8 38  1  0  0  0  0
  8 39  1  0  0  0  0
  8 40  1  0  0  0  0
  9 14  1  0  0  0  0
  9 10  2  0  0  0  0
 10 11  1  0  0  0  0
 11 12  2  0  0  0  0
 11 41  1  0  0  0  0
 12 13  1  0  0  0  0
 13 17  1  0  0  0  0
 13 14  2  0  0  0  0
 14 15  1  0  0  0  0
 15 16  2  0  0  0  0
 16 17  1  0  0  0  0
 16 42  1  0  0  0  0
 17 18  1  0  0  0  0
 18 19  1  0  0  0  0
 18 43  1  0  0  0  0
 18 44  1  0  0  0  0
 19 24  1  0  0  0  0
 19 20  1  0  0  0  0
 19 21  1  0  0  0  0
 20 45  1  0  0  0  0
 21 22  1  0  0  0  0
 21 46  1  0  0  0  0
 21 47  1  0  0  0  0
 22 23  1  0  0  0  0
 22 48  1  0  0  0  0
 22 49  1  0  0  0  0
 23 24  1  0  0  0  0
 24 25  1  0  0  0  0
 24 50  1  0  0  0  0
 25 51  1  0  0  0  0
 25 52  1  0  0  0  0
 25 53  1  0  0  0  0
 26 27  1  0  0  0  0
 26 28  1  0  0  0  0
 27 54  1  0  0  0  0
 27 55  1  0  0  0  0
 27 56  1  0  0  0  0
 28 57  1  0  0  0  0
 28 58  1  0  0  0  0
 28 59  1  0  0  0  0
M  END
> <s_m_source_file>
AV-unprocessed.smi

> <i_m_source_file_index>
234

> <i_lp_mmshare_version>
43012

> <i_f3d_flags>
0

> <s_epik_input>
W0NIM11bQ0gyXU9bQ0BASF0oQzEoW0NIM10pW0NIM10pW0NIMl1bQ0BIXTFOKFtDSDNdKWMobltjSF1uMiljKGMyMyluW2NIXW4zW0NIMl1bQ0BAXTQoW09IXSlbQ0gyXVtDSDJdT1tDQEhdNFtDSDNd

> <s_epik_cmdline>
J2VwaWtfcHl0aG9uJywgJy1waCcsICc3LjAnLCAnLXRuJywgJzgnLCAnLW1hJywgJzIwMCcsICctbWV0YWxfYmluZGluZycsICctaW1hZScsICc8aW5maWxlLm1hZT4nLCAnLW9tYWUnLCAnPG91dGZpbGUubWFlPic=

> <r_lp_tautomer_probability>
1

> <r_epik_Ionization_Penalty>
0.00349132

> <r_epik_Ionization_Penalty_Charging>
0

> <r_epik_Ionization_Penalty_Neutral>
0.00349132

> <r_epik_State_Penalty>
0.00242418

> <r_epik_Charging_Adjusted_Penalty>
0.00242418

> <i_epik_Tot_Q>
0

> <i_epik_Tot_abs_Q>
0

> <r_epik_Metal_State_Penalty>
-0

> <b_epik_Metal_Only>
0

> <s_lp_Force_Field>
OPLS_2005

> <r_lp_Energy>
50.018

> <b_lp_Chiralities_Consistent>
1

> <s_lp_Variant>
AV-unprocessed.smi:234-3

> <Gold.Version>
5.8.1

> <Gold.Id.Protein>
6NUR|6NUR_protein|mol2

> <Gold.PLP.Fitness>
36.3776

> <Gold.PLP.PLP>
-31.7144

> <Gold.PLP.part.hbond>
-1.0000

> <Gold.PLP.part.metal>
0.0000

> <Gold.PLP.part.buried>
-2.1098

> <Gold.PLP.part.nonpolar>
-29.0905

> <Gold.PLP.part.repulsive>
0.3021

> <Gold.PLP.ligand.clash>
0.0000

> <Gold.PLP.ligand.torsion>
1.2116

> <Gold.PLP.Chemscore.Hbond>
1.0000

> <Gold.PLP.Chemscore.CHOScore>
0.9994

> <Gold.PLP.Chemscore.Metal>
0.0000

> <Gold.Chemscore.Hbonds>
donor molecule, donor type, donor heavy atom, donor atom, acceptor molecule, acceptor atom, score
      P1  H  6896  6909       L1    15  0.81
      L1  C    11    41       P1  7949  0.96

> <Gold.PLP.Chemscore.Internal.Correction>
1.0884

> <Gold.Rescore>
     Score         DG    S(hbond)    S(metal)    S(lipo)     H(rot)  DE(clash)    DE(int)     intcor
      4.66     -10.96       0.62        0.00      86.42       2.62       0.23       6.06       ----

> <Gold.Chemscore.Fitness>
4.6642

> <Gold.Chemscore.DG>
-10.9613

> <Gold.Chemscore.ZeroCoef>
-5.4800

> <Gold.Chemscore.Hbond>
0.6235

> <Gold.Chemscore.Metal>
0.0000

> <Gold.Chemscore.Lipo>
86.4174

> <Gold.Chemscore.Internal_Hbond>
0.0000

> <Gold.Chemscore.DEClash>
0.2336

> <Gold.Chemscore.DEInternal>
6.0636

> <Gold.Chemscore.Rot>
2.6219

> <Gold.Chemscore.Internal.Correction>
   9.000000E+99

> <Gold.Chemscore.Hbonds>
donor molecule, donor type, donor heavy atom, donor atom, acceptor molecule, acceptor atom, score
      P1  H  6896  6909       L1    15  0.21

> <Gold.Chemscore.Hbond.Weighted>
-2.0826

> <Gold.Chemscore.Metal.Weighted>
-0.0000

> <Gold.Chemscore.Lipo.Weighted>
-10.1108

> <Gold.Chemscore.Internal_Hbond.Weighted>
0.0000

> <Gold.Chemscore.DEClash.Weighted>
0.2336

> <Gold.Chemscore.DEInternal.Weighted>
6.0636

> <Gold.Chemscore.Rot.Weighted>
6.7121

> <Gold.Chemscore.Internal.Correction.Weighted>
   9.000000E+99

> <Gold.Protein.RotatedTorsions>
[ 6907 6896 6895 6894 ] final   54.55 input  -60.11 | X-H torsion
[ 7974 7965 7964 7962 ] final  -27.90 input  175.53 | X-H torsion
[ 8008 7997 7996 7995 ] final  169.08 input   59.86 | X-H torsion
[ 10167 10162 10161 10158 ] final  -46.95 input  -65.29 | X-H torsion
[ 10718 10713 10712 10709 ] final  118.59 input   66.30 | X-H torsion
[ 10763 10752 10751 10750 ] final  164.33 input  -60.55 | X-H torsion
[ 11005 11000 10999 10996 ] final   96.99 input  -57.11 | X-H torsion

> <Gold.Protein.ActiveResidues>
 VAL166  LYS551  ARG553  GLY616  TRP617  ASP618  TYR619  PRO620  LYS621  CYS622 
 ASP623  PHE694  ASN695  SER759  ASP760  ASP761  ALA762  ILE779  LEU786  VAL792 
 PHE793  MET794  SER795  GLU796  ALA797  LYS798  CYS799  TRP800  GLU811  SER814 

> <Gold.Protein.RotatedAtoms>
  152.3450  134.7083  160.0252 H   0  0  0  0  0  0  0  0  0  0  0  0  # atno 6907 bound_to 6896
  151.7455  133.3319  159.3385 H   0  0  0  0  0  0  0  0  0  0  0  0  # atno 6908 bound_to 6896
  150.7503  134.6172  159.6161 H   0  0  0  0  0  0  0  0  0  0  0  0  # atno 6909 bound_to 6896
  146.1326  140.5212  142.8687 H   0  0  0  0  0  0  0  0  0  0  0  0  # atno 7974 bound_to 7965
  156.1490  140.1573  156.8800 H   0  0  0  0  0  0  0  0  0  0  0  0  # atno 8008 bound_to 7997
  154.5054  140.0814  156.7920 H   0  0  0  0  0  0  0  0  0  0  0  0  # atno 8009 bound_to 7997
  155.3933  140.3411  155.4255 H   0  0  0  0  0  0  0  0  0  0  0  0  # atno 8010 bound_to 7997
  140.6796  143.2807  151.3856 H   0  0  0  0  0  0  0  0  0  0  0  0  # atno 10167 bound_to 10162
  157.6020  131.1049  150.7777 H   0  0  0  0  0  0  0  0  0  0  0  0  # atno 10718 bound_to 10713
  154.3073  135.2758  155.2583 H   0  0  0  0  0  0  0  0  0  0  0  0  # atno 10763 bound_to 10752
  154.4993  135.5812  153.6522 H   0  0  0  0  0  0  0  0  0  0  0  0  # atno 10764 bound_to 10752
  152.9892  135.6154  154.3248 H   0  0  0  0  0  0  0  0  0  0  0  0  # atno 10765 bound_to 10752
  139.8778  134.8978  156.4241 H   0  0  0  0  0  0  0  0  0  0  0  0  # atno 11005 bound_to 11000
  144.7706  140.5629  143.6673 LP  0  0  0  0  0  0  0  0  0  0  0  0  # atno 17320 bound_to 7965
  145.5227  139.1476  143.3543 LP  0  0  0  0  0  0  0  0  0  0  0  0  # atno 17321 bound_to 7965
  139.6110  144.1099  152.2298 LP  0  0  0  0  0  0  0  0  0  0  0  0  # atno 17342 bound_to 10162
  140.0513  144.5930  150.7334 LP  0  0  0  0  0  0  0  0  0  0  0  0  # atno 17343 bound_to 10162
  156.8174  130.4972  149.5347 LP  0  0  0  0  0  0  0  0  0  0  0  0  # atno 17370 bound_to 10713
  156.1096  130.6030  151.0025 LP  0  0  0  0  0  0  0  0  0  0  0  0  # atno 17371 bound_to 10713
  140.9113  133.7710  155.9795 LP  0  0  0  0  0  0  0  0  0  0  0  0  # atno 17394 bound_to 11000
  140.8543  134.2917  157.5262 LP  0  0  0  0  0  0  0  0  0  0  0  0  # atno 17395 bound_to 11000

$$$$
