AV-unprocessed.smi:2441|AV-procd|sdf|9620|dock1
  -GOLD-   2272013253D 1   1.00000     0.00000
 Structure written by MMmdl.
 40 41  0  0  0  0  0  0  0  0  1 V2000
  145.2312  143.2283  155.8012 C   0  0  0  0  0  0  0  0  0  0  0  0
  145.8929  141.9758  155.2009 C   0  0  1  0  0  0  0  0  0  0  0  0
  146.5065  142.2662  153.8154 C   0  0  0  0  0  0  0  0  0  0  0  0
  147.1227  141.0031  153.1926 C   0  0  0  0  0  0  0  0  0  0  0  0
  148.1612  140.3653  154.1274 C   0  0  0  0  0  0  0  0  0  0  0  0
  147.5591  140.0718  155.5125 C   0  0  0  0  0  0  0  0  0  0  0  0
  146.9288  141.3252  156.1526 C   0  0  1  0  0  0  0  0  0  0  0  0
  147.9797  142.2714  156.5342 N   0  0  0  0  0  0  0  0  0  0  0  0
  148.8292  142.1424  157.5637 C   0  0  0  0  0  0  0  0  0  0  0  0
  148.8176  141.1866  158.3388 O   0  0  0  0  0  0  0  0  0  0  0  0
  149.6833  143.1817  157.6065 N   0  0  0  0  0  0  0  0  0  0  0  0
  150.7173  143.4537  158.5196 C   0  0  0  0  0  0  0  0  0  0  0  0
  150.9913  144.6796  159.0325 C   0  0  0  0  0  0  0  0  0  0  0  0
  152.0798  144.8684  159.9606 C   0  0  0  0  0  0  0  0  0  0  0  0
  152.8218  143.8041  160.2956 C   0  0  0  0  0  0  0  0  0  0  0  0
  152.5664  142.5279  159.7687 N   0  0  0  0  0  0  0  0  0  0  0  0
  153.4605  141.4599  160.2254 C   0  0  0  0  0  0  0  0  0  0  0  0
  151.5455  142.2886  158.8901 C   0  0  0  0  0  0  0  0  0  0  0  0
  151.3346  141.1603  158.4389 O   0  0  0  0  0  0  0  0  0  0  0  0
  145.9459  144.0414  155.9300 H   0  0  0  0  0  0  0  0  0  0  0  0
  144.7945  143.0109  156.7762 H   0  0  0  0  0  0  0  0  0  0  0  0
  144.4308  143.5935  155.1575 H   0  0  0  0  0  0  0  0  0  0  0  0
  145.0963  141.2450  155.0517 H   0  0  0  0  0  0  0  0  0  0  0  0
  145.7416  142.6624  153.1466 H   0  0  0  0  0  0  0  0  0  0  0  0
  147.2692  143.0415  153.9002 H   0  0  0  0  0  0  0  0  0  0  0  0
  146.3338  140.2808  152.9784 H   0  0  0  0  0  0  0  0  0  0  0  0
  147.5855  141.2485  152.2363 H   0  0  0  0  0  0  0  0  0  0  0  0
  148.5391  139.4427  153.6860 H   0  0  0  0  0  0  0  0  0  0  0  0
  149.0202  141.0296  154.2297 H   0  0  0  0  0  0  0  0  0  0  0  0
  146.7944  139.3006  155.4102 H   0  0  0  0  0  0  0  0  0  0  0  0
  148.3220  139.6545  156.1712 H   0  0  0  0  0  0  0  0  0  0  0  0
  146.3966  140.9960  157.0468 H   0  0  0  0  0  0  0  0  0  0  0  0
  148.0689  143.0932  155.9550 H   0  0  0  0  0  0  0  0  0  0  0  0
  149.6036  143.8539  156.8572 H   0  0  0  0  0  0  0  0  0  0  0  0
  150.4228  145.5532  158.7587 H   0  0  0  0  0  0  0  0  0  0  0  0
  152.2903  145.8430  160.3756 H   0  0  0  0  0  0  0  0  0  0  0  0
  153.6537  143.8560  160.9837 H   0  0  0  0  0  0  0  0  0  0  0  0
  153.3013  140.4999  159.7332 H   0  0  0  0  0  0  0  0  0  0  0  0
  153.3336  141.3022  161.2971 H   0  0  0  0  0  0  0  0  0  0  0  0
  154.4997  141.7403  160.0494 H   0  0  0  0  0  0  0  0  0  0  0  0
  1  2  1  0  0  0  0
  1 20  1  0  0  0  0
  1 21  1  0  0  0  0
  1 22  1  0  0  0  0
  2  7  1  0  0  0  0
  2  3  1  0  0  0  0
  2 23  1  0  0  0  0
  3  4  1  0  0  0  0
  3 24  1  0  0  0  0
  3 25  1  0  0  0  0
  4  5  1  0  0  0  0
  4 26  1  0  0  0  0
  4 27  1  0  0  0  0
  5  6  1  0  0  0  0
  5 28  1  0  0  0  0
  5 29  1  0  0  0  0
  6  7  1  0  0  0  0
  6 30  1  0  0  0  0
  6 31  1  0  0  0  0
  7  8  1  0  0  0  0
  7 32  1  0  0  0  0
  8  9  1  0  0  0  0
  8 33  1  0  0  0  0
  9 10  2  0  0  0  0
  9 11  1  0  0  0  0
 11 12  1  0  0  0  0
 11 34  1  0  0  0  0
 12 18  1  0  0  0  0
 12 13  2  0  0  0  0
 13 14  1  0  0  0  0
 13 35  1  0  0  0  0
 14 15  2  0  0  0  0
 14 36  1  0  0  0  0
 15 16  1  0  0  0  0
 15 37  1  0  0  0  0
 16 17  1  0  0  0  0
 16 18  1  0  0  0  0
 17 38  1  0  0  0  0
 17 39  1  0  0  0  0
 17 40  1  0  0  0  0
 18 19  2  0  0  0  0
M  END
> <s_m_source_file>
AV-unprocessed.smi

> <i_m_source_file_index>
2441

> <i_lp_mmshare_version>
43012

> <i_f3d_flags>
0

> <s_epik_input>
W0NIM11bQ0BASF0xW0NIMl1bQ0gyXVtDSDJdW0NIMl1bQ0BIXTFbTkhdQyg9TylbTkhdYzJbY0hdW2NIXVtjSF1uKFtDSDNdKWMyPU8=

> <s_epik_cmdline>
J2VwaWtfcHl0aG9uJywgJy1waCcsICc3LjAnLCAnLXRuJywgJzgnLCAnLW1hJywgJzIwMCcsICctbWV0YWxfYmluZGluZycsICctaW1hZScsICc8aW5maWxlLm1hZT4nLCAnLW9tYWUnLCAnPG91dGZpbGUubWFlPic=

> <r_lp_tautomer_probability>
1

> <r_epik_Ionization_Penalty>
2.64999e-05

> <r_epik_Ionization_Penalty_Charging>
5.09663e-06

> <r_epik_Ionization_Penalty_Neutral>
2.14032e-05

> <r_epik_State_Penalty>
-0

> <r_epik_Charging_Adjusted_Penalty>
5.09663e-06

> <i_epik_Tot_Q>
0

> <i_epik_Tot_abs_Q>
0

> <r_epik_Metal_State_Penalty>
-0

> <b_epik_Metal_Only>
0

> <s_lp_Force_Field>
OPLS_2005

> <r_lp_Energy>
23.2252

> <b_lp_Chiralities_Consistent>
1

> <s_lp_Variant>
AV-unprocessed.smi:2441-2

> <Gold.Version>
5.8.1

> <Gold.Id.Protein>
6NUR|6NUR_protein|mol2

> <Gold.PLP.Fitness>
43.4060

> <Gold.PLP.PLP>
-38.4615

> <Gold.PLP.part.hbond>
-2.7202

> <Gold.PLP.part.metal>
0.0000

> <Gold.PLP.part.buried>
-5.7894

> <Gold.PLP.part.nonpolar>
-29.0746

> <Gold.PLP.part.repulsive>
0.0611

> <Gold.PLP.ligand.clash>
0.0000

> <Gold.PLP.ligand.torsion>
0.5201

> <Gold.PLP.Chemscore.Hbond>
1.9920

> <Gold.PLP.Chemscore.CHOScore>
0.0000

> <Gold.PLP.Chemscore.Metal>
0.0000

> <Gold.Chemscore.Hbonds>
donor molecule, donor type, donor heavy atom, donor atom, acceptor molecule, acceptor atom, score
      L1  H     8    33       P1  8028  0.98
      L1  H    11    34       P1  8028  1.00

> <Gold.PLP.Chemscore.Internal.Correction>
0.0087

> <Gold.Rescore>
     Score         DG    S(hbond)    S(metal)    S(lipo)     H(rot)  DE(clash)    DE(int)     intcor
     18.32     -19.25       1.83        0.00      87.30       1.00       0.10       0.83       ----

> <Gold.Chemscore.Fitness>
18.3205

> <Gold.Chemscore.DG>
-19.2455

> <Gold.Chemscore.ZeroCoef>
-5.4800

> <Gold.Chemscore.Hbond>
1.8298

> <Gold.Chemscore.Metal>
0.0000

> <Gold.Chemscore.Lipo>
87.2972

> <Gold.Chemscore.Internal_Hbond>
0.0000

> <Gold.Chemscore.DEClash>
0.0983

> <Gold.Chemscore.DEInternal>
0.8267

> <Gold.Chemscore.Rot>
1.0000

> <Gold.Chemscore.Internal.Correction>
   9.000000E+99

> <Gold.Chemscore.Hbonds>
donor molecule, donor type, donor heavy atom, donor atom, acceptor molecule, acceptor atom, score
      L1  H     8    33       P1  8028  0.61
      L1  H    11    34       P1  8028  0.91

> <Gold.Chemscore.Hbond.Weighted>
-6.1117

> <Gold.Chemscore.Metal.Weighted>
-0.0000

> <Gold.Chemscore.Lipo.Weighted>
-10.2138

> <Gold.Chemscore.Internal_Hbond.Weighted>
0.0000

> <Gold.Chemscore.DEClash.Weighted>
0.0983

> <Gold.Chemscore.DEInternal.Weighted>
0.8267

> <Gold.Chemscore.Rot.Weighted>
2.5600

> <Gold.Chemscore.Internal.Correction.Weighted>
   9.000000E+99

> <Gold.Protein.RotatedTorsions>
[ 6907 6896 6895 6894 ] final  112.80 input  -60.11 | X-H torsion
[ 7974 7965 7964 7962 ] final  -67.67 input  175.53 | X-H torsion
[ 8008 7997 7996 7995 ] final   35.02 input   59.86 | X-H torsion
[ 10167 10162 10161 10158 ] final  -74.60 input  -65.29 | X-H torsion
[ 10718 10713 10712 10709 ] final  -72.13 input   66.30 | X-H torsion
[ 10763 10752 10751 10750 ] final  164.81 input  -60.55 | X-H torsion
[ 11005 11000 10999 10996 ] final  116.10 input  -57.11 | X-H torsion

> <Gold.Protein.ActiveResidues>
 VAL166  LYS551  ARG553  GLY616  TRP617  ASP618  TYR619  PRO620  LYS621  CYS622 
 ASP623  PHE694  ASN695  SER759  ASP760  ASP761  ALA762  ILE779  LEU786  VAL792 
 PHE793  MET794  SER795  GLU796  ALA797  LYS798  CYS799  TRP800  GLU811  SER814 

> <Gold.Protein.RotatedAtoms>
  152.4896  133.8465  159.7179 H   0  0  0  0  0  0  0  0  0  0  0  0  # atno 6907 bound_to 6896
  150.9014  133.7105  159.2885 H   0  0  0  0  0  0  0  0  0  0  0  0  # atno 6908 bound_to 6896
  151.4545  135.1037  159.9759 H   0  0  0  0  0  0  0  0  0  0  0  0  # atno 6909 bound_to 6896
  145.7262  140.9017  143.0604 H   0  0  0  0  0  0  0  0  0  0  0  0  # atno 7974 bound_to 7965
  155.1643  140.3286  155.4405 H   0  0  0  0  0  0  0  0  0  0  0  0  # atno 8008 bound_to 7997
  156.2532  140.1955  156.6699 H   0  0  0  0  0  0  0  0  0  0  0  0  # atno 8009 bound_to 7997
  154.6383  140.0573  156.9801 H   0  0  0  0  0  0  0  0  0  0  0  0  # atno 8010 bound_to 7997
  140.5013  143.2360  151.7747 H   0  0  0  0  0  0  0  0  0  0  0  0  # atno 10167 bound_to 10162
  156.0333  130.4366  150.2546 H   0  0  0  0  0  0  0  0  0  0  0  0  # atno 10718 bound_to 10713
  154.3145  135.2757  155.2550 H   0  0  0  0  0  0  0  0  0  0  0  0  # atno 10763 bound_to 10752
  154.4930  135.5828  153.6477 H   0  0  0  0  0  0  0  0  0  0  0  0  # atno 10764 bound_to 10752
  152.9884  135.6139  154.3325 H   0  0  0  0  0  0  0  0  0  0  0  0  # atno 10765 bound_to 10752
  139.9030  134.9593  156.7146 H   0  0  0  0  0  0  0  0  0  0  0  0  # atno 11005 bound_to 11000
  144.6904  139.9269  143.7470 LP  0  0  0  0  0  0  0  0  0  0  0  0  # atno 17320 bound_to 7965
  146.0580  139.3575  143.0599 LP  0  0  0  0  0  0  0  0  0  0  0  0  # atno 17321 bound_to 7965
  139.4873  144.4517  151.9646 LP  0  0  0  0  0  0  0  0  0  0  0  0  # atno 17342 bound_to 10162
  140.3606  144.2977  150.5934 LP  0  0  0  0  0  0  0  0  0  0  0  0  # atno 17343 bound_to 10162
  157.0647  131.0100  151.3210 LP  0  0  0  0  0  0  0  0  0  0  0  0  # atno 17370 bound_to 10713
  157.5044  130.7899  149.7638 LP  0  0  0  0  0  0  0  0  0  0  0  0  # atno 17371 bound_to 10713
  140.7049  133.9274  155.8047 LP  0  0  0  0  0  0  0  0  0  0  0  0  # atno 17394 bound_to 11000
  141.0344  134.0710  157.3976 LP  0  0  0  0  0  0  0  0  0  0  0  0  # atno 17395 bound_to 11000

$$$$
