AV-unprocessed.smi:2321|AV-procd|sdf|9283|dock5
  -GOLD-   2272012503D 1   1.00000     0.00000
 Structure written by MMmdl.
 36 37  0  0  0  0  0  0  0  0  1 V2000
  146.2682  136.9507  153.3707 O   0  0  0  0  0  0  0  0  0  0  0  0
  145.6752  138.0056  153.1565 C   0  0  0  0  0  0  0  0  0  0  0  0
  146.2086  139.2332  153.3107 N   0  0  0  0  0  0  0  0  0  0  0  0
  147.5151  139.5962  153.7358 C   0  0  0  0  0  0  0  0  0  0  0  0
  148.5820  138.6802  153.9020 C   0  0  0  0  0  0  0  0  0  0  0  0
  149.8269  139.1690  154.3469 C   0  0  0  0  0  0  0  0  0  0  0  0
  150.0575  140.4681  154.6331 N   0  0  0  0  0  0  0  0  0  0  0  0
  149.0338  141.3358  154.4872 C   0  0  0  0  0  0  0  0  0  0  0  0
  147.7506  140.9519  154.0487 C   0  0  0  0  0  0  0  0  0  0  0  0
  146.7645  141.8736  153.9273 F   0  0  0  0  0  0  0  0  0  0  0  0
  144.4055  138.0088  152.7096 N   0  0  0  0  0  0  0  0  0  0  0  0
  143.5331  136.8648  152.4338 C   0  0  2  0  0  0  0  0  0  0  0  0
  142.8058  136.4543  153.7265 C   0  0  0  0  0  0  0  0  0  0  0  0
  141.9163  135.2231  153.4988 C   0  0  0  0  0  0  0  0  0  0  0  0
  142.7269  134.0478  152.9306 C   0  0  0  0  0  0  0  0  0  0  0  0
  143.4573  134.4376  151.6283 C   0  0  2  0  0  0  0  0  0  0  0  0
  144.2597  133.2585  151.0400 C   0  0  0  0  0  0  0  0  0  0  0  0
  145.0968  132.7542  151.9471 F   0  0  0  0  0  0  0  0  0  0  0  0
  143.4290  132.2964  150.6384 F   0  0  0  0  0  0  0  0  0  0  0  0
  144.9632  133.6670  149.9838 F   0  0  0  0  0  0  0  0  0  0  0  0
  144.3437  135.6788  151.8680 C   0  0  0  0  0  0  0  0  0  0  0  0
  145.6241  140.0039  153.0215 H   0  0  0  0  0  0  0  0  0  0  0  0
  148.4708  137.6239  153.7127 H   0  0  0  0  0  0  0  0  0  0  0  0
  150.6596  138.4950  154.4827 H   0  0  0  0  0  0  0  0  0  0  0  0
  149.2428  142.3674  154.7292 H   0  0  0  0  0  0  0  0  0  0  0  0
  144.0031  138.9159  152.5223 H   0  0  0  0  0  0  0  0  0  0  0  0
  142.7722  137.1564  151.7074 H   0  0  0  0  0  0  0  0  0  0  0  0
  143.5336  136.2346  154.5091 H   0  0  0  0  0  0  0  0  0  0  0  0
  142.1976  137.2820  154.0935 H   0  0  0  0  0  0  0  0  0  0  0  0
  141.4437  134.9291  154.4364 H   0  0  0  0  0  0  0  0  0  0  0  0
  141.1079  135.4767  152.8121 H   0  0  0  0  0  0  0  0  0  0  0  0
  143.4508  133.7140  153.6750 H   0  0  0  0  0  0  0  0  0  0  0  0
  142.0603  133.2041  152.7494 H   0  0  0  0  0  0  0  0  0  0  0  0
  142.6986  134.7113  150.8934 H   0  0  0  0  0  0  0  0  0  0  0  0
  144.8235  135.9698  150.9332 H   0  0  0  0  0  0  0  0  0  0  0  0
  145.1496  135.4248  152.5580 H   0  0  0  0  0  0  0  0  0  0  0  0
  1  2  2  0  0  0  0
  2  3  1  0  0  0  0
  2 11  1  0  0  0  0
  3  4  1  0  0  0  0
  3 22  1  0  0  0  0
  4  9  1  0  0  0  0
  4  5  2  0  0  0  0
  5  6  1  0  0  0  0
  5 23  1  0  0  0  0
  6  7  2  0  0  0  0
  6 24  1  0  0  0  0
  7  8  1  0  0  0  0
  8  9  2  0  0  0  0
  8 25  1  0  0  0  0
  9 10  1  0  0  0  0
 11 12  1  0  0  0  0
 11 26  1  0  0  0  0
 12 21  1  0  0  0  0
 12 13  1  0  0  0  0
 12 27  1  0  0  0  0
 13 14  1  0  0  0  0
 13 28  1  0  0  0  0
 13 29  1  0  0  0  0
 14 15  1  0  0  0  0
 14 30  1  0  0  0  0
 14 31  1  0  0  0  0
 15 16  1  0  0  0  0
 15 32  1  0  0  0  0
 15 33  1  0  0  0  0
 16 17  1  0  0  0  0
 16 21  1  0  0  0  0
 16 34  1  0  0  0  0
 17 18  1  0  0  0  0
 17 19  1  0  0  0  0
 17 20  1  0  0  0  0
 21 35  1  0  0  0  0
 21 36  1  0  0  0  0
M  END
> <s_m_source_file>
AV-unprocessed.smi

> <i_m_source_file_index>
2321

> <i_lp_mmshare_version>
43012

> <i_f3d_flags>
0

> <s_epik_input>
RkMoRikoRilbQ0BASF0oW0NIMl0xKVtDSDJdW0NIMl1bQ0gyXVtDQEhdMVtOSF1DKD1PKVtOSF1jMltjSF1bY0hdbltjSF1jMkY=

> <s_epik_cmdline>
J2VwaWtfcHl0aG9uJywgJy1waCcsICc3LjAnLCAnLXRuJywgJzgnLCAnLW1hJywgJzIwMCcsICctbWV0YWxfYmluZGluZycsICctaW1hZScsICc8aW5maWxlLm1hZT4nLCAnLW9tYWUnLCAnPG91dGZpbGUubWFlPic=

> <r_epik_Ionization_Penalty>
0.00319438

> <r_epik_Ionization_Penalty_Charging>
0

> <r_epik_Ionization_Penalty_Neutral>
0.00319438

> <r_epik_State_Penalty>
0.00222511

> <r_epik_Charging_Adjusted_Penalty>
0.00222511

> <i_epik_Tot_Q>
0

> <i_epik_Tot_abs_Q>
0

> <r_epik_Metal_State_Penalty>
-0

> <b_epik_Metal_Only>
0

> <s_lp_Force_Field>
OPLS_2005

> <r_lp_Energy>
26.7556

> <b_lp_Chiralities_Consistent>
1

> <s_lp_Variant>
AV-unprocessed.smi:2321-3

> <Gold.Version>
5.8.1

> <Gold.Id.Protein>
6NUR|6NUR_protein|mol2

> <Gold.PLP.Fitness>
48.3833

> <Gold.PLP.PLP>
-38.3382

> <Gold.PLP.part.hbond>
-4.0000

> <Gold.PLP.part.metal>
0.0000

> <Gold.PLP.part.buried>
-0.7525

> <Gold.PLP.part.nonpolar>
-34.0950

> <Gold.PLP.part.repulsive>
0.2621

> <Gold.PLP.ligand.clash>
0.0000

> <Gold.PLP.ligand.torsion>
0.4825

> <Gold.PLP.Chemscore.Hbond>
2.6642

> <Gold.PLP.Chemscore.CHOScore>
1.0000

> <Gold.PLP.Chemscore.Metal>
0.0000

> <Gold.Chemscore.Hbonds>
donor molecule, donor type, donor heavy atom, donor atom, acceptor molecule, acceptor atom, score
      L1  H     3    22       P1 10175  0.76
      L1  H    11    26       P1 10175  1.00
      P1  H  7989  7998       L1     7  0.91
      L1  C     8    25       P1  8028  0.97

> <Gold.PLP.Chemscore.Internal.Correction>
0.0177

> <Gold.Rescore>
     Score         DG    S(hbond)    S(metal)    S(lipo)     H(rot)  DE(clash)    DE(int)     intcor
     12.47     -17.06       1.91        0.00      66.26       1.00       1.47       3.12       ----

> <Gold.Chemscore.Fitness>
12.4655

> <Gold.Chemscore.DG>
-17.0568

> <Gold.Chemscore.ZeroCoef>
-5.4800

> <Gold.Chemscore.Hbond>
1.9115

> <Gold.Chemscore.Metal>
0.0000

> <Gold.Chemscore.Lipo>
66.2595

> <Gold.Chemscore.Internal_Hbond>
0.0000

> <Gold.Chemscore.DEClash>
1.4708

> <Gold.Chemscore.DEInternal>
3.1205

> <Gold.Chemscore.Rot>
1.0000

> <Gold.Chemscore.Internal.Correction>
   9.000000E+99

> <Gold.Chemscore.Hbonds>
donor molecule, donor type, donor heavy atom, donor atom, acceptor molecule, acceptor atom, score
      L1  H     3    22       P1 10175  0.74
      L1  H    11    26       P1 10175  0.96
      P1  H  7989  7998       L1     7  0.26

> <Gold.Chemscore.Hbond.Weighted>
-6.3844

> <Gold.Chemscore.Metal.Weighted>
-0.0000

> <Gold.Chemscore.Lipo.Weighted>
-7.7524

> <Gold.Chemscore.Internal_Hbond.Weighted>
0.0000

> <Gold.Chemscore.DEClash.Weighted>
1.4708

> <Gold.Chemscore.DEInternal.Weighted>
3.1205

> <Gold.Chemscore.Rot.Weighted>
2.5600

> <Gold.Chemscore.Internal.Correction.Weighted>
   9.000000E+99

> <Gold.Protein.RotatedTorsions>
[ 6907 6896 6895 6894 ] final  -93.70 input  -60.11 | X-H torsion
[ 7974 7965 7964 7962 ] final  158.03 input  175.53 | X-H torsion
[ 8008 7997 7996 7995 ] final  -66.88 input   59.86 | X-H torsion
[ 10167 10162 10161 10158 ] final  122.07 input  -65.29 | X-H torsion
[ 10718 10713 10712 10709 ] final  -83.90 input   66.30 | X-H torsion
[ 10763 10752 10751 10750 ] final    2.63 input  -60.55 | X-H torsion
[ 11005 11000 10999 10996 ] final -175.31 input  -57.11 | X-H torsion

> <Gold.Protein.ActiveResidues>
 VAL166  LYS551  ARG553  GLY616  TRP617  ASP618  TYR619  PRO620  LYS621  CYS622 
 ASP623  PHE694  ASN695  SER759  ASP760  ASP761  ALA762  ILE779  LEU786  VAL792 
 PHE793  MET794  SER795  GLU796  ALA797  LYS798  CYS799  TRP800  GLU811  SER814 

> <Gold.Protein.RotatedAtoms>
  150.6927  134.1927  159.4291 H   0  0  0  0  0  0  0  0  0  0  0  0  # atno 6907 bound_to 6896
  151.9897  134.9983  160.0570 H   0  0  0  0  0  0  0  0  0  0  0  0  # atno 6908 bound_to 6896
  152.1679  133.4589  159.4931 H   0  0  0  0  0  0  0  0  0  0  0  0  # atno 6909 bound_to 6896
  144.7869  139.7421  143.6237 H   0  0  0  0  0  0  0  0  0  0  0  0  # atno 7974 bound_to 7965
  154.4763  140.0904  156.7270 H   0  0  0  0  0  0  0  0  0  0  0  0  # atno 8008 bound_to 7997
  155.4587  140.3460  155.4292 H   0  0  0  0  0  0  0  0  0  0  0  0  # atno 8009 bound_to 7997
  156.1122  140.1451  156.9311 H   0  0  0  0  0  0  0  0  0  0  0  0  # atno 8010 bound_to 7997
  139.5881  144.7014  151.3359 H   0  0  0  0  0  0  0  0  0  0  0  0  # atno 10167 bound_to 10162
  156.0012  130.4680  150.4328 H   0  0  0  0  0  0  0  0  0  0  0  0  # atno 10718 bound_to 10713
  153.2932  135.6950  153.7273 H   0  0  0  0  0  0  0  0  0  0  0  0  # atno 10763 bound_to 10752
  153.6216  135.3426  155.3013 H   0  0  0  0  0  0  0  0  0  0  0  0  # atno 10764 bound_to 10752
  154.8530  135.4387  154.2021 H   0  0  0  0  0  0  0  0  0  0  0  0  # atno 10765 bound_to 10752
  140.4647  134.6222  157.4857 H   0  0  0  0  0  0  0  0  0  0  0  0  # atno 11005 bound_to 11000
  146.2105  139.5458  142.9684 LP  0  0  0  0  0  0  0  0  0  0  0  0  # atno 17320 bound_to 7965
  145.5897  141.0371  143.2077 LP  0  0  0  0  0  0  0  0  0  0  0  0  # atno 17321 bound_to 7965
  140.7149  143.7293  150.7636 LP  0  0  0  0  0  0  0  0  0  0  0  0  # atno 17342 bound_to 10162
  140.0842  143.4939  152.2514 LP  0  0  0  0  0  0  0  0  0  0  0  0  # atno 17343 bound_to 10162
  157.2376  131.0518  151.2456 LP  0  0  0  0  0  0  0  0  0  0  0  0  # atno 17370 bound_to 10713
  157.3652  130.7152  149.6528 LP  0  0  0  0  0  0  0  0  0  0  0  0  # atno 17371 bound_to 10713
  139.9923  134.6966  155.9668 LP  0  0  0  0  0  0  0  0  0  0  0  0  # atno 17394 bound_to 11000
  141.1605  133.6539  156.4303 LP  0  0  0  0  0  0  0  0  0  0  0  0  # atno 17395 bound_to 11000

$$$$
