AV-unprocessed.smi:3067|AV-procd|sdf|11696|dock2
  -GOLD-   2272017 93D 1   1.00000     0.00000
 Structure written by MMmdl.
 34 35  0  0  0  0  0  0  0  0  1 V2000
  145.0406  132.0862  148.9738 C   0  0  0  0  0  0  0  0  0  0  0  0
  146.0022  132.5161  149.9244 O   0  0  0  0  0  0  0  0  0  0  0  0
  145.5571  132.4605  151.2768 C   0  0  2  0  0  0  0  0  0  0  0  0
  144.1324  133.0416  151.4010 C   0  0  0  0  0  0  0  0  0  0  0  0
  144.0943  134.5381  151.0483 C   0  0  0  0  0  0  0  0  0  0  0  0
  145.0924  135.3376  151.8995 C   0  0  0  0  0  0  0  0  0  0  0  0
  146.5136  134.7643  151.7817 C   0  0  0  0  0  0  0  0  0  0  0  0
  146.5453  133.2691  152.1526 C   0  0  2  0  0  0  0  0  0  0  0  0
  147.9048  132.7454  152.0697 N   0  0  0  0  0  0  0  0  0  0  0  0
  148.6856  132.5167  153.2132 C   0  0  0  0  0  0  0  0  0  0  0  0
  149.0835  131.2313  153.6501 C   0  0  0  0  0  0  0  0  0  0  0  0
  149.8691  131.1169  154.8130 C   0  0  0  0  0  0  0  0  0  0  0  0
  150.2304  132.2915  155.5052 C   0  0  0  0  0  0  0  0  0  0  0  0
  151.0408  132.1944  156.7072 C   0  0  0  0  0  0  0  0  0  0  0  0
  151.6863  132.1164  157.6645 N   0  0  0  0  0  0  0  0  0  0  0  0
  149.8530  133.5227  155.0987 N   0  0  0  0  0  0  0  0  0  0  0  0
  149.1001  133.6243  153.9826 C   0  0  0  0  0  0  0  0  0  0  0  0
  145.4705  132.1426  147.9738 H   0  0  0  0  0  0  0  0  0  0  0  0
  144.1477  132.7108  148.9869 H   0  0  0  0  0  0  0  0  0  0  0  0
  144.7471  131.0508  149.1518 H   0  0  0  0  0  0  0  0  0  0  0  0
  145.5477  131.4239  151.6163 H   0  0  0  0  0  0  0  0  0  0  0  0
  143.4310  132.4934  150.7730 H   0  0  0  0  0  0  0  0  0  0  0  0
  143.7819  132.9079  152.4253 H   0  0  0  0  0  0  0  0  0  0  0  0
  144.3261  134.6713  149.9908 H   0  0  0  0  0  0  0  0  0  0  0  0
  143.0869  134.9287  151.1941 H   0  0  0  0  0  0  0  0  0  0  0  0
  145.0870  136.3843  151.5939 H   0  0  0  0  0  0  0  0  0  0  0  0
  144.7781  135.3191  152.9438 H   0  0  0  0  0  0  0  0  0  0  0  0
  146.8819  134.9073  150.7648 H   0  0  0  0  0  0  0  0  0  0  0  0
  147.1846  135.3246  152.4338 H   0  0  0  0  0  0  0  0  0  0  0  0
  146.2241  133.2018  153.1919 H   0  0  0  0  0  0  0  0  0  0  0  0
  148.1641  132.2717  151.2159 H   0  0  0  0  0  0  0  0  0  0  0  0
  148.8032  130.3355  153.1177 H   0  0  0  0  0  0  0  0  0  0  0  0
  150.1844  130.1443  155.1626 H   0  0  0  0  0  0  0  0  0  0  0  0
  148.8215  134.6273  153.6934 H   0  0  0  0  0  0  0  0  0  0  0  0
  1  2  1  0  0  0  0
  1 18  1  0  0  0  0
  1 19  1  0  0  0  0
  1 20  1  0  0  0  0
  2  3  1  0  0  0  0
  3  8  1  0  0  0  0
  3  4  1  0  0  0  0
  3 21  1  0  0  0  0
  4  5  1  0  0  0  0
  4 22  1  0  0  0  0
  4 23  1  0  0  0  0
  5  6  1  0  0  0  0
  5 24  1  0  0  0  0
  5 25  1  0  0  0  0
  6  7  1  0  0  0  0
  6 26  1  0  0  0  0
  6 27  1  0  0  0  0
  7  8  1  0  0  0  0
  7 28  1  0  0  0  0
  7 29  1  0  0  0  0
  8  9  1  0  0  0  0
  8 30  1  0  0  0  0
  9 10  1  0  0  0  0
  9 31  1  0  0  0  0
 10 17  1  0  0  0  0
 10 11  2  0  0  0  0
 11 12  1  0  0  0  0
 11 32  1  0  0  0  0
 12 13  2  0  0  0  0
 12 33  1  0  0  0  0
 13 14  1  0  0  0  0
 13 16  1  0  0  0  0
 14 15  3  0  0  0  0
 16 17  2  0  0  0  0
 17 34  1  0  0  0  0
M  END
> <s_m_source_file>
AV-unprocessed.smi

> <i_m_source_file_index>
3067

> <i_lp_mmshare_version>
43012

> <i_f3d_flags>
0

> <s_epik_input>
W0NIM11PW0NAQEhdMVtDSDJdW0NIMl1bQ0gyXVtDSDJdW0NASF0xW05IXWMyW2NIXVtjSF1jKEMjTiluW2NIXTI=

> <s_epik_cmdline>
J2VwaWtfcHl0aG9uJywgJy1waCcsICc3LjAnLCAnLXRuJywgJzgnLCAnLW1hJywgJzIwMCcsICctbWV0YWxfYmluZGluZycsICctaW1hZScsICc8aW5maWxlLm1hZT4nLCAnLW9tYWUnLCAnPG91dGZpbGUubWFlPic=

> <r_lp_tautomer_probability>
1

> <r_epik_Ionization_Penalty>
2.01011e-07

> <r_epik_Ionization_Penalty_Charging>
0

> <r_epik_Ionization_Penalty_Neutral>
2.01011e-07

> <r_epik_State_Penalty>
-0

> <r_epik_Charging_Adjusted_Penalty>
0

> <i_epik_Tot_Q>
0

> <i_epik_Tot_abs_Q>
0

> <r_epik_Metal_State_Penalty>
-0

> <b_epik_Metal_Only>
0

> <s_lp_Force_Field>
OPLS_2005

> <r_lp_Energy>
17.9327

> <b_lp_Chiralities_Consistent>
1

> <s_lp_Variant>
AV-unprocessed.smi:3067-3

> <Gold.Version>
5.8.1

> <Gold.Id.Protein>
6NUR|6NUR_protein|mol2

> <Gold.PLP.Fitness>
37.2498

> <Gold.PLP.PLP>
-30.0802

> <Gold.PLP.part.hbond>
-2.0000

> <Gold.PLP.part.metal>
0.0000

> <Gold.PLP.part.buried>
-1.8167

> <Gold.PLP.part.nonpolar>
-26.8766

> <Gold.PLP.part.repulsive>
0.2583

> <Gold.PLP.ligand.clash>
0.0000

> <Gold.PLP.ligand.torsion>
0.9211

> <Gold.PLP.Chemscore.Hbond>
2.0000

> <Gold.PLP.Chemscore.CHOScore>
1.0000

> <Gold.PLP.Chemscore.Metal>
0.0000

> <Gold.Chemscore.Hbonds>
donor molecule, donor type, donor heavy atom, donor atom, acceptor molecule, acceptor atom, score
      L1  H     9    31       P1 10747  1.00
      P1  H  6896  6908       L1    15  0.99
      L1  C    17    34       P1  7948  1.00

> <Gold.PLP.Chemscore.Internal.Correction>
0.0117

> <Gold.Rescore>
     Score         DG    S(hbond)    S(metal)    S(lipo)     H(rot)  DE(clash)    DE(int)     intcor
     16.58     -17.98       1.98        0.00      76.44       1.20       0.77       0.63       ----

> <Gold.Chemscore.Fitness>
16.5803

> <Gold.Chemscore.DG>
-17.9752

> <Gold.Chemscore.ZeroCoef>
-5.4800

> <Gold.Chemscore.Hbond>
1.9840

> <Gold.Chemscore.Metal>
0.0000

> <Gold.Chemscore.Lipo>
76.4415

> <Gold.Chemscore.Internal_Hbond>
0.0000

> <Gold.Chemscore.DEClash>
0.7666

> <Gold.Chemscore.DEInternal>
0.6283

> <Gold.Chemscore.Rot>
1.2012

> <Gold.Chemscore.Internal.Correction>
   9.000000E+99

> <Gold.Chemscore.Hbonds>
donor molecule, donor type, donor heavy atom, donor atom, acceptor molecule, acceptor atom, score
      L1  H     9    31       P1 10747  0.96
      P1  H  6896  6908       L1    15  0.90

> <Gold.Chemscore.Hbond.Weighted>
-6.6265

> <Gold.Chemscore.Metal.Weighted>
-0.0000

> <Gold.Chemscore.Lipo.Weighted>
-8.9437

> <Gold.Chemscore.Internal_Hbond.Weighted>
0.0000

> <Gold.Chemscore.DEClash.Weighted>
0.7666

> <Gold.Chemscore.DEInternal.Weighted>
0.6283

> <Gold.Chemscore.Rot.Weighted>
3.0750

> <Gold.Chemscore.Internal.Correction.Weighted>
   9.000000E+99

> <Gold.Protein.RotatedTorsions>
[ 6907 6896 6895 6894 ] final   47.93 input  -60.11 | X-H torsion
[ 7974 7965 7964 7962 ] final   52.26 input  175.53 | X-H torsion
[ 8008 7997 7996 7995 ] final   81.90 input   59.86 | X-H torsion
[ 10167 10162 10161 10158 ] final   43.76 input  -65.29 | X-H torsion
[ 10718 10713 10712 10709 ] final  128.50 input   66.30 | X-H torsion
[ 10763 10752 10751 10750 ] final  -81.41 input  -60.55 | X-H torsion
[ 11005 11000 10999 10996 ] final  134.15 input  -57.11 | X-H torsion

> <Gold.Protein.ActiveResidues>
 VAL166  LYS551  ARG553  GLY616  TRP617  ASP618  TYR619  PRO620  LYS621  CYS622 
 ASP623  PHE694  ASN695  SER759  ASP760  ASP761  ALA762  ILE779  LEU786  VAL792 
 PHE793  MET794  SER795  GLU796  ALA797  LYS798  CYS799  TRP800  GLU811  SER814 

> <Gold.Protein.RotatedAtoms>
  152.2737  134.7905  160.0409 H   0  0  0  0  0  0  0  0  0  0  0  0  # atno 6907 bound_to 6896
  151.8508  133.3434  159.3681 H   0  0  0  0  0  0  0  0  0  0  0  0  # atno 6908 bound_to 6896
  150.7162  134.5228  159.5706 H   0  0  0  0  0  0  0  0  0  0  0  0  # atno 6909 bound_to 6896
  145.9832  139.4263  143.0119 H   0  0  0  0  0  0  0  0  0  0  0  0  # atno 7974 bound_to 7965
  155.9034  140.3432  155.6043 H   0  0  0  0  0  0  0  0  0  0  0  0  # atno 8008 bound_to 7997
  155.7473  140.0815  157.2236 H   0  0  0  0  0  0  0  0  0  0  0  0  # atno 8009 bound_to 7997
  154.4046  140.1559  156.2672 H   0  0  0  0  0  0  0  0  0  0  0  0  # atno 8010 bound_to 7997
  140.3411  144.2468  150.6155 H   0  0  0  0  0  0  0  0  0  0  0  0  # atno 10167 bound_to 10162
  157.5238  131.1098  150.9113 H   0  0  0  0  0  0  0  0  0  0  0  0  # atno 10718 bound_to 10713
  154.5632  135.5627  153.7026 H   0  0  0  0  0  0  0  0  0  0  0  0  # atno 10763 bound_to 10752
  153.0024  135.6279  154.2216 H   0  0  0  0  0  0  0  0  0  0  0  0  # atno 10764 bound_to 10752
  154.2154  135.2872  155.2923 H   0  0  0  0  0  0  0  0  0  0  0  0  # atno 10765 bound_to 10752
  139.9897  134.9519  156.9826 H   0  0  0  0  0  0  0  0  0  0  0  0  # atno 11005 bound_to 11000
  145.7740  140.9885  143.1134 LP  0  0  0  0  0  0  0  0  0  0  0  0  # atno 17320 bound_to 7965
  144.6867  139.9482  143.7477 LP  0  0  0  0  0  0  0  0  0  0  0  0  # atno 17321 bound_to 7965
  140.5308  143.2244  151.8242 LP  0  0  0  0  0  0  0  0  0  0  0  0  # atno 17342 bound_to 10162
  139.4840  144.4723  151.9410 LP  0  0  0  0  0  0  0  0  0  0  0  0  # atno 17343 bound_to 10162
  156.9715  130.5493  149.5291 LP  0  0  0  0  0  0  0  0  0  0  0  0  # atno 17370 bound_to 10713
  156.0372  130.5459  150.8684 LP  0  0  0  0  0  0  0  0  0  0  0  0  # atno 17371 bound_to 10713
  140.4933  134.1171  155.7236 LP  0  0  0  0  0  0  0  0  0  0  0  0  # atno 17394 bound_to 11000
  141.1555  133.8890  157.1988 LP  0  0  0  0  0  0  0  0  0  0  0  0  # atno 17395 bound_to 11000

$$$$
