AV-unprocessed.smi:227|AV-procd|sdf|1740|dock2
  -GOLD-   2262020243D 1   1.00000     0.00000
 Structure written by MMmdl.
 54 58  0  0  0  0  0  0  0  0  1 V2000
  147.9904  137.0044  163.1339 O   0  0  0  0  0  0  0  0  0  0  0  0
  146.7966  136.9944  162.3791 C   0  0  0  0  0  0  0  0  0  0  0  0
  146.6509  135.6742  161.5800 C   0  0  1  0  0  0  0  0  0  0  0  0
  147.8601  135.4780  160.6181 C   0  0  0  0  0  0  0  0  0  0  0  0
  147.9624  136.4822  159.5680 N   0  0  0  0  0  0  0  0  0  0  0  0
  146.9512  136.9252  158.7456 C   0  0  0  0  0  0  0  0  0  0  0  0
  147.2979  137.8323  157.8755 N   0  0  0  0  0  0  0  0  0  0  0  0
  148.6489  138.0464  158.1206 C   0  0  0  0  0  0  0  0  0  0  0  0
  149.6471  138.8835  157.5422 C   0  0  0  0  0  0  0  0  0  0  0  0
  149.4196  139.7160  156.4903 N   0  0  0  0  0  0  0  0  0  0  0  0
  150.4610  140.5981  155.9861 C   0  0  2  0  0  0  0  0  0  0  0  0
  149.6847  141.4813  154.9940 C   0  0  0  0  0  0  0  0  0  0  0  0
  148.6599  140.4790  154.4372 C   0  0  0  0  0  0  0  0  0  0  0  0
  149.0598  139.1914  155.1805 C   0  0  1  0  0  0  0  0  0  0  0  0
  150.3870  138.6680  154.5752 C   0  0  2  0  0  0  0  0  0  0  0  0
  150.6818  137.1865  154.8815 C   0  0  0  0  0  0  0  0  0  0  0  0
  151.6344  136.6819  153.9702 O   0  0  0  0  0  0  0  0  0  0  0  0
  151.3949  139.6542  155.2002 C   0  0  0  0  0  0  0  0  0  0  0  0
  150.8884  138.8440  158.0951 N   0  0  0  0  0  0  0  0  0  0  0  0
  151.1495  138.0261  159.1180 C   0  0  0  0  0  0  0  0  0  0  0  0
  150.3282  137.1771  159.7359 N   0  0  0  0  0  0  0  0  0  0  0  0
  149.0753  137.2201  159.1998 C   0  0  0  0  0  0  0  0  0  0  0  0
  146.4119  134.4581  162.5293 C   0  0  1  0  0  0  0  0  0  0  0  0
  144.9534  134.2278  162.9187 C   0  0  0  0  0  0  0  0  0  0  0  0
  144.3931  133.3935  161.7672 C   0  0  0  0  0  0  0  0  0  0  0  0
  145.5149  132.7622  161.1618 O   0  0  0  0  0  0  0  0  0  0  0  0
  146.6886  133.0877  161.8926 C   0  0  0  0  0  0  0  0  0  0  0  0
  148.5175  136.2649  162.8722 H   0  0  0  0  0  0  0  0  0  0  0  0
  145.9448  137.1521  163.0407 H   0  0  0  0  0  0  0  0  0  0  0  0
  146.8447  137.8636  161.7279 H   0  0  0  0  0  0  0  0  0  0  0  0
  145.7651  135.7754  160.9511 H   0  0  0  0  0  0  0  0  0  0  0  0
  148.7996  135.4639  161.1682 H   0  0  0  0  0  0  0  0  0  0  0  0
  147.8101  134.4975  160.1440 H   0  0  0  0  0  0  0  0  0  0  0  0
  145.9402  136.5509  158.8040 H   0  0  0  0  0  0  0  0  0  0  0  0
  150.9775  141.1829  156.7481 H   0  0  0  0  0  0  0  0  0  0  0  0
  149.1801  142.2992  155.5099 H   0  0  0  0  0  0  0  0  0  0  0  0
  150.3255  141.9088  154.2219 H   0  0  0  0  0  0  0  0  0  0  0  0
  147.6468  140.7808  154.7066 H   0  0  0  0  0  0  0  0  0  0  0  0
  148.7045  140.3803  153.3520 H   0  0  0  0  0  0  0  0  0  0  0  0
  148.2576  138.4557  155.1654 H   0  0  0  0  0  0  0  0  0  0  0  0
  150.3618  138.7867  153.4907 H   0  0  0  0  0  0  0  0  0  0  0  0
  151.0599  137.0480  155.8936 H   0  0  0  0  0  0  0  0  0  0  0  0
  149.7709  136.5935  154.7943 H   0  0  0  0  0  0  0  0  0  0  0  0
  151.2479  136.6671  153.1079 H   0  0  0  0  0  0  0  0  0  0  0  0
  151.9897  140.1784  154.4515 H   0  0  0  0  0  0  0  0  0  0  0  0
  152.0853  139.1450  155.8738 H   0  0  0  0  0  0  0  0  0  0  0  0
  152.1625  138.0529  159.4916 H   0  0  0  0  0  0  0  0  0  0  0  0
  147.0194  134.5874  163.4255 H   0  0  0  0  0  0  0  0  0  0  0  0
  144.9206  133.6361  163.8349 H   0  0  0  0  0  0  0  0  0  0  0  0
  144.3646  135.1228  163.1062 H   0  0  0  0  0  0  0  0  0  0  0  0
  143.6670  132.6579  162.1144 H   0  0  0  0  0  0  0  0  0  0  0  0
  143.9062  134.0275  161.0257 H   0  0  0  0  0  0  0  0  0  0  0  0
  147.5707  133.0394  161.2585 H   0  0  0  0  0  0  0  0  0  0  0  0
  146.8211  132.3384  162.6750 H   0  0  0  0  0  0  0  0  0  0  0  0
  1  2  1  0  0  0  0
  1 28  1  0  0  0  0
  2  3  1  0  0  0  0
  2 29  1  0  0  0  0
  2 30  1  0  0  0  0
  3  4  1  0  0  0  0
  3 23  1  0  0  0  0
  3 31  1  0  0  0  0
  4  5  1  0  0  0  0
  4 32  1  0  0  0  0
  4 33  1  0  0  0  0
  5 22  1  0  0  0  0
  5  6  1  0  0  0  0
  6  7  2  0  0  0  0
  6 34  1  0  0  0  0
  7  8  1  0  0  0  0
  8 22  2  0  0  0  0
  8  9  1  0  0  0  0
  9 10  1  0  0  0  0
  9 19  2  0  0  0  0
 10 14  1  0  0  0  0
 10 11  1  0  0  0  0
 11 18  1  0  0  0  0
 11 12  1  0  0  0  0
 11 35  1  0  0  0  0
 12 13  1  0  0  0  0
 12 36  1  0  0  0  0
 12 37  1  0  0  0  0
 13 14  1  0  0  0  0
 13 38  1  0  0  0  0
 13 39  1  0  0  0  0
 14 15  1  0  0  0  0
 14 40  1  0  0  0  0
 15 16  1  0  0  0  0
 15 18  1  0  0  0  0
 15 41  1  0  0  0  0
 16 17  1  0  0  0  0
 16 42  1  0  0  0  0
 16 43  1  0  0  0  0
 17 44  1  0  0  0  0
 18 45  1  0  0  0  0
 18 46  1  0  0  0  0
 19 20  1  0  0  0  0
 20 21  2  0  0  0  0
 20 47  1  0  0  0  0
 21 22  1  0  0  0  0
 23 27  1  0  0  0  0
 23 24  1  0  0  0  0
 23 48  1  0  0  0  0
 24 25  1  0  0  0  0
 24 49  1  0  0  0  0
 24 50  1  0  0  0  0
 25 26  1  0  0  0  0
 25 51  1  0  0  0  0
 25 52  1  0  0  0  0
 26 27  1  0  0  0  0
 27 53  1  0  0  0  0
 27 54  1  0  0  0  0
M  END
> <s_m_source_file>
AV-unprocessed.smi

> <i_m_source_file_index>
227

> <i_lp_mmshare_version>
43012

> <i_f3d_flags>
0

> <s_epik_input>
W0NIMl0xT1tDSDJdW0NIMl1bQ0BIXTFbQ0BIXShbQ0gyXVtPSF0pW0NIMl1uKFtjSF1uMiljKGMyMyluW2NIXW5jM04oW0NASF00NSlbQ0BASF0oW0NIMl1bQ0gyXTQpW0NASF0oW0NIMl01KVtDSDJdW09IXQ==

> <s_epik_cmdline>
J2VwaWtfcHl0aG9uJywgJy1waCcsICc3LjAnLCAnLXRuJywgJzgnLCAnLW1hJywgJzIwMCcsICctbWV0YWxfYmluZGluZycsICctaW1hZScsICc8aW5maWxlLm1hZT4nLCAnLW9tYWUnLCAnPG91dGZpbGUubWFlPic=

> <r_lp_tautomer_probability>
1

> <r_epik_Ionization_Penalty>
0.0055791

> <r_epik_Ionization_Penalty_Charging>
0

> <r_epik_Ionization_Penalty_Neutral>
0.0055791

> <r_epik_State_Penalty>
0.00401299

> <r_epik_Charging_Adjusted_Penalty>
0.00401299

> <i_epik_Tot_Q>
0

> <i_epik_Tot_abs_Q>
0

> <r_epik_Metal_State_Penalty>
-0

> <b_epik_Metal_Only>
0

> <s_lp_Force_Field>
OPLS_2005

> <r_lp_Energy>
90.2099

> <b_lp_Chiralities_Consistent>
1

> <s_lp_Variant>
AV-unprocessed.smi:227-14

> <Gold.Version>
5.8.1

> <Gold.Id.Protein>
6NUR|6NUR_protein|mol2

> <Gold.PLP.Fitness>
53.8661

> <Gold.PLP.PLP>
-47.2365

> <Gold.PLP.part.hbond>
-3.7609

> <Gold.PLP.part.metal>
0.0000

> <Gold.PLP.part.buried>
-5.7205

> <Gold.PLP.part.nonpolar>
-38.3701

> <Gold.PLP.part.repulsive>
0.0346

> <Gold.PLP.ligand.clash>
0.0000

> <Gold.PLP.ligand.torsion>
0.9550

> <Gold.PLP.Chemscore.Hbond>
2.7716

> <Gold.PLP.Chemscore.CHOScore>
0.0000

> <Gold.PLP.Chemscore.Metal>
0.0000

> <Gold.Chemscore.Hbonds>
donor molecule, donor type, donor heavy atom, donor atom, acceptor molecule, acceptor atom, score
      L1  H    17    44       P1  7949  0.99
      P1  H  6896  6909       L1    21  0.36
      P1  H  6931  6943       L1     1  0.39
      P1  H 10752 10765       L1    17  1.00

> <Gold.PLP.Chemscore.Internal.Correction>
0.2249

> <Gold.Rescore>
     Score         DG    S(hbond)    S(metal)    S(lipo)     H(rot)  DE(clash)    DE(int)     intcor
     13.12     -15.53       2.23        0.00     101.29       3.61       0.53       1.88       ----

> <Gold.Chemscore.Fitness>
13.1239

> <Gold.Chemscore.DG>
-15.5341

> <Gold.Chemscore.ZeroCoef>
-5.4800

> <Gold.Chemscore.Hbond>
2.2266

> <Gold.Chemscore.Metal>
0.0000

> <Gold.Chemscore.Lipo>
101.2940

> <Gold.Chemscore.Internal_Hbond>
0.0000

> <Gold.Chemscore.DEClash>
0.5294

> <Gold.Chemscore.DEInternal>
1.8808

> <Gold.Chemscore.Rot>
3.6071

> <Gold.Chemscore.Internal.Correction>
   9.000000E+99

> <Gold.Chemscore.Hbonds>
donor molecule, donor type, donor heavy atom, donor atom, acceptor molecule, acceptor atom, score
      L1  H    17    44       P1  7949  0.57
      P1  H  6896  6909       L1    21  0.25
      P1  H  6931  6943       L1     1  0.01
      P1  H 10752 10765       L1    17  0.57

> <Gold.Chemscore.Hbond.Weighted>
-7.4369

> <Gold.Chemscore.Metal.Weighted>
-0.0000

> <Gold.Chemscore.Lipo.Weighted>
-11.8514

> <Gold.Chemscore.Internal_Hbond.Weighted>
0.0000

> <Gold.Chemscore.DEClash.Weighted>
0.5294

> <Gold.Chemscore.DEInternal.Weighted>
1.8808

> <Gold.Chemscore.Rot.Weighted>
9.2342

> <Gold.Chemscore.Internal.Correction.Weighted>
   9.000000E+99

> <Gold.Protein.RotatedTorsions>
[ 6907 6896 6895 6894 ] final  110.24 input  -60.11 | X-H torsion
[ 7974 7965 7964 7962 ] final  119.88 input  175.53 | X-H torsion
[ 8008 7997 7996 7995 ] final  112.56 input   59.86 | X-H torsion
[ 10167 10162 10161 10158 ] final -176.45 input  -65.29 | X-H torsion
[ 10718 10713 10712 10709 ] final  108.37 input   66.30 | X-H torsion
[ 10763 10752 10751 10750 ] final  135.14 input  -60.55 | X-H torsion
[ 11005 11000 10999 10996 ] final  -98.30 input  -57.11 | X-H torsion

> <Gold.Protein.ActiveResidues>
 VAL166  LYS551  ARG553  GLY616  TRP617  ASP618  TYR619  PRO620  LYS621  CYS622 
 ASP623  PHE694  ASN695  SER759  ASP760  ASP761  ALA762  ILE779  LEU786  VAL792 
 PHE793  MET794  SER795  GLU796  ALA797  LYS798  CYS799  TRP800  GLU811  SER814 

> <Gold.Protein.RotatedAtoms>
  152.5029  133.8829  159.7355 H   0  0  0  0  0  0  0  0  0  0  0  0  # atno 6907 bound_to 6896
  150.9287  133.6784  159.2822 H   0  0  0  0  0  0  0  0  0  0  0  0  # atno 6908 bound_to 6896
  151.4136  135.0993  159.9645 H   0  0  0  0  0  0  0  0  0  0  0  0  # atno 6909 bound_to 6896
  145.1379  139.3286  143.4631 H   0  0  0  0  0  0  0  0  0  0  0  0  # atno 7974 bound_to 7965
  156.2201  140.2997  155.9931 H   0  0  0  0  0  0  0  0  0  0  0  0  # atno 8008 bound_to 7997
  155.2505  140.0426  157.3003 H   0  0  0  0  0  0  0  0  0  0  0  0  # atno 8009 bound_to 7997
  154.5827  140.2379  155.8039 H   0  0  0  0  0  0  0  0  0  0  0  0  # atno 8010 bound_to 7997
  139.5529  144.2063  152.1109 H   0  0  0  0  0  0  0  0  0  0  0  0  # atno 10167 bound_to 10162
  157.6589  131.0892  150.6296 H   0  0  0  0  0  0  0  0  0  0  0  0  # atno 10718 bound_to 10713
  153.8352  135.3098  155.3422 H   0  0  0  0  0  0  0  0  0  0  0  0  # atno 10763 bound_to 10752
  154.7956  135.4757  154.0157 H   0  0  0  0  0  0  0  0  0  0  0  0  # atno 10764 bound_to 10752
  153.1609  135.6861  153.8835 H   0  0  0  0  0  0  0  0  0  0  0  0  # atno 10765 bound_to 10752
  141.1349  133.8235  157.0821 H   0  0  0  0  0  0  0  0  0  0  0  0  # atno 11005 bound_to 11000
  146.3508  140.1404  142.8594 LP  0  0  0  0  0  0  0  0  0  0  0  0  # atno 17320 bound_to 7965
  145.0564  140.9056  143.4964 LP  0  0  0  0  0  0  0  0  0  0  0  0  # atno 17321 bound_to 7965
  140.1562  144.5069  150.6659 LP  0  0  0  0  0  0  0  0  0  0  0  0  # atno 17342 bound_to 10162
  140.6796  143.2320  151.5419 LP  0  0  0  0  0  0  0  0  0  0  0  0  # atno 17343 bound_to 10162
  156.6600  130.4509  149.5691 LP  0  0  0  0  0  0  0  0  0  0  0  0  # atno 17370 bound_to 10713
  156.2074  130.6657  151.1233 LP  0  0  0  0  0  0  0  0  0  0  0  0  # atno 17371 bound_to 10713
  140.0445  134.9837  157.1023 LP  0  0  0  0  0  0  0  0  0  0  0  0  # atno 17394 bound_to 11000
  140.4084  134.2007  155.7163 LP  0  0  0  0  0  0  0  0  0  0  0  0  # atno 17395 bound_to 11000

$$$$
