AV-unprocessed.smi:55|AV-procd|sdf|569|dock1
  -GOLD-   2262016473D 1   1.00000     0.00000
 Structure written by MMmdl.
 30 31  0  0  0  0  0  0  0  0  2 V2000
  149.5129  136.1324  158.3888 C   0  0  0  0  0  0  0  0  0  0  0  0
  150.3352  136.7395  157.2653 C   0  0  0  0  0  0  0  0  0  0  0  0
  150.6028  138.0628  157.2009 C   0  0  0  0  0  0  0  0  0  0  0  0
  151.3556  138.6185  156.1772 N   0  0  0  0  0  0  0  0  0  0  0  0
  151.5878  140.1169  156.0536 C   0  0  2  0  0  0  0  0  0  0  0  0
  151.1173  140.9448  157.2553 C   0  0  0  0  0  0  0  0  0  0  0  0
  149.7335  141.3877  156.8165 C   0  0  1  0  0  0  0  0  0  0  0  0
  149.3718  142.6007  157.4445 O   0  0  0  0  0  0  0  0  0  0  0  0
  149.9024  141.5442  155.3019 C   0  0  2  0  0  0  0  0  0  0  0  0
  148.6060  141.2952  154.5158 C   0  0  0  0  0  0  0  0  0  0  0  0
  148.7508  141.7376  153.1830 O   0  0  0  0  0  0  0  0  0  0  0  0
  150.8770  140.5670  154.9384 O   0  0  0  0  0  0  0  0  0  0  0  0
  151.8083  137.7793  155.1223 C   0  0  0  0  0  0  0  0  0  0  0  0
  152.4169  138.2985  154.1862 O   0  0  0  0  0  0  0  0  0  0  0  0
  151.5556  136.4410  155.1861 N   0  5  0  0  0  0  0  0  0  0  0  0
  150.8523  135.8697  156.2041 C   0  0  0  0  0  0  0  0  0  0  0  0
  150.6398  134.6587  156.2544 O   0  0  0  0  0  0  0  0  0  0  0  0
  152.6634  140.2290  155.9082 H   0  0  0  0  0  0  0  0  0  0  0  0
  148.9892  140.6246  157.0417 H   0  0  0  0  0  0  0  0  0  0  0  0
  150.3131  142.5323  155.0844 H   0  0  0  0  0  0  0  0  0  0  0  0
  149.1962  136.8914  159.1046 H   0  0  0  0  0  0  0  0  0  0  0  0
  150.0956  135.3839  158.9267 H   0  0  0  0  0  0  0  0  0  0  0  0
  148.6193  135.6519  157.9894 H   0  0  0  0  0  0  0  0  0  0  0  0
  150.2063  138.6855  157.9848 H   0  0  0  0  0  0  0  0  0  0  0  0
  151.1615  140.4036  158.2003 H   0  0  0  0  0  0  0  0  0  0  0  0
  151.7799  141.8081  157.3360 H   0  0  0  0  0  0  0  0  0  0  0  0
  149.1323  143.2239  156.7757 H   0  0  0  0  0  0  0  0  0  0  0  0
  148.3262  140.2415  154.5403 H   0  0  0  0  0  0  0  0  0  0  0  0
  147.7841  141.8590  154.9576 H   0  0  0  0  0  0  0  0  0  0  0  0
  148.9190  140.9873  152.6341 H   0  0  0  0  0  0  0  0  0  0  0  0
  1  2  1  0  0  0  0
  1 21  1  0  0  0  0
  1 22  1  0  0  0  0
  1 23  1  0  0  0  0
  2 16  1  0  0  0  0
  2  3  2  0  0  0  0
  3  4  1  0  0  0  0
  3 24  1  0  0  0  0
  4  5  1  0  0  0  0
  4 13  1  0  0  0  0
  5 18  1  0  0  0  0
  5 12  1  0  0  0  0
  5  6  1  0  0  0  0
  6  7  1  0  0  0  0
  6 25  1  0  0  0  0
  6 26  1  0  0  0  0
  7 19  1  0  0  0  0
  7  8  1  0  0  0  0
  7  9  1  0  0  0  0
  8 27  1  0  0  0  0
  9 20  1  0  0  0  0
  9 10  1  0  0  0  0
  9 12  1  0  0  0  0
 10 11  1  0  0  0  0
 10 28  1  0  0  0  0
 10 29  1  0  0  0  0
 11 30  1  0  0  0  0
 13 14  2  0  0  0  0
 13 15  1  0  0  0  0
 15 16  1  0  0  0  0
 16 17  2  0  0  0  0
M  CHG  1  15  -1
M  END
> <s_m_source_file>
AV-unprocessed.smi

> <i_m_source_file_index>
55

> <i_lp_mmshare_version>
43012

> <i_f3d_flags>
0

> <s_epik_input>
Tz1jMVtuSF1jKD1PKW4oW2NIXWMxW0NIM10pW0NAQEhdMltDSDJdW0NAQEhdKFtPSF0pW0NAQEhdKE8yKVtDSDJdW09IXQ==

> <s_epik_cmdline>
J2VwaWtfcHl0aG9uJywgJy1waCcsICc3LjAnLCAnLXRuJywgJzgnLCAnLW1hJywgJzIwMCcsICctbWV0YWxfYmluZGluZycsICctaW1hZScsICc8aW5maWxlLm1hZT4nLCAnLW9tYWUnLCAnPG91dGZpbGUubWFlPic=

> <r_lp_tautomer_probability>
0.999537

> <r_epik_Ionization_Penalty>
3.66603

> <r_epik_Ionization_Penalty_Charging>
1.09773e-07

> <r_epik_Ionization_Penalty_Neutral>
3.66603

> <r_epik_State_Penalty>
3.66562

> <r_epik_Charging_Adjusted_Penalty>
3.66562

> <i_epik_Tot_Q>
-1

> <i_epik_Tot_abs_Q>
1

> <r_epik_Metal_State_Penalty>
0.234536

> <b_epik_Metal_Only>
1

> <s_epik_Chemistry_Notes>
This compound contains an acetal/aminal-like group ( X-CH(R)-Y where X, Y are N, S, or O) that may be acid/base labile, releasing an aldehyde.

> <s_lp_Force_Field>
OPLS_2005

> <r_lp_Energy>
34.2807

> <b_lp_Chiralities_Consistent>
1

> <s_lp_Variant>
AV-unprocessed.smi:55-9

> <Gold.Version>
5.8.1

> <Gold.Id.Protein>
6NUR|6NUR_protein|mol2

> <Gold.PLP.Fitness>
41.9450

> <Gold.PLP.PLP>
-24.4222

> <Gold.PLP.part.hbond>
-6.9694

> <Gold.PLP.part.metal>
0.0000

> <Gold.PLP.part.buried>
-2.9146

> <Gold.PLP.part.nonpolar>
-15.0730

> <Gold.PLP.part.repulsive>
0.1158

> <Gold.PLP.ligand.clash>
0.0000

> <Gold.PLP.ligand.torsion>
0.1974

> <Gold.PLP.Chemscore.Hbond>
5.9552

> <Gold.PLP.Chemscore.CHOScore>
0.0000

> <Gold.PLP.Chemscore.Metal>
0.0000

> <Gold.Chemscore.Hbonds>
donor molecule, donor type, donor heavy atom, donor atom, acceptor molecule, acceptor atom, score
      L1  H     8    27       P1  8028  1.00
      L1  H    11    30       P1  7957  1.00
      P1  H  7989  7998       L1    12  0.99
      P1  H  8011  8017       L1    11  0.17
      P1  H 10752 10765       L1    15  2.00

> <Gold.PLP.Chemscore.Internal.Correction>
0.0520

> <Gold.Rescore>
     Score         DG    S(hbond)    S(metal)    S(lipo)     H(rot)  DE(clash)    DE(int)     intcor
     16.74     -17.81       4.53        0.00      34.69       2.69       0.28       0.78       ----

> <Gold.Chemscore.Fitness>
16.7430

> <Gold.Chemscore.DG>
-17.8052

> <Gold.Chemscore.ZeroCoef>
-5.4800

> <Gold.Chemscore.Hbond>
4.5348

> <Gold.Chemscore.Metal>
0.0000

> <Gold.Chemscore.Lipo>
34.6851

> <Gold.Chemscore.Internal_Hbond>
0.0000

> <Gold.Chemscore.DEClash>
0.2846

> <Gold.Chemscore.DEInternal>
0.7776

> <Gold.Chemscore.Rot>
2.6871

> <Gold.Chemscore.Internal.Correction>
   9.000000E+99

> <Gold.Chemscore.Hbonds>
donor molecule, donor type, donor heavy atom, donor atom, acceptor molecule, acceptor atom, score
      L1  H     8    27       P1  8028  0.96
      L1  H    11    30       P1  7957  0.98
      P1  H  7989  7998       L1    12  0.82
      P1  H 10752 10765       L1    15  0.63

> <Gold.Chemscore.Hbond.Weighted>
-15.1461

> <Gold.Chemscore.Metal.Weighted>
-0.0000

> <Gold.Chemscore.Lipo.Weighted>
-4.0582

> <Gold.Chemscore.Internal_Hbond.Weighted>
0.0000

> <Gold.Chemscore.DEClash.Weighted>
0.2846

> <Gold.Chemscore.DEInternal.Weighted>
0.7776

> <Gold.Chemscore.Rot.Weighted>
6.8791

> <Gold.Chemscore.Internal.Correction.Weighted>
   9.000000E+99

> <Gold.Protein.RotatedTorsions>
[ 6907 6896 6895 6894 ] final -104.75 input  -60.11 | X-H torsion
[ 7974 7965 7964 7962 ] final -177.73 input  175.53 | X-H torsion
[ 8008 7997 7996 7995 ] final  118.15 input   59.86 | X-H torsion
[ 10167 10162 10161 10158 ] final   67.62 input  -65.29 | X-H torsion
[ 10718 10713 10712 10709 ] final   -9.06 input   66.30 | X-H torsion
[ 10763 10752 10751 10750 ] final  178.37 input  -60.55 | X-H torsion
[ 11005 11000 10999 10996 ] final   -3.69 input  -57.11 | X-H torsion

> <Gold.Protein.ActiveResidues>
 VAL166  LYS551  ARG553  GLY616  TRP617  ASP618  TYR619  PRO620  LYS621  CYS622 
 ASP623  PHE694  ASN695  SER759  ASP760  ASP761  ALA762  ILE779  LEU786  VAL792 
 PHE793  MET794  SER795  GLU796  ALA797  LYS798  CYS799  TRP800  GLU811  SER814 

> <Gold.Protein.RotatedAtoms>
  150.7302  134.0231  159.3707 H   0  0  0  0  0  0  0  0  0  0  0  0  # atno 6907 bound_to 6896
  151.8196  135.0653  160.0433 H   0  0  0  0  0  0  0  0  0  0  0  0  # atno 6908 bound_to 6896
  152.3013  133.5622  159.5656 H   0  0  0  0  0  0  0  0  0  0  0  0  # atno 6909 bound_to 6896
  144.7128  140.0975  143.6418 H   0  0  0  0  0  0  0  0  0  0  0  0  # atno 7974 bound_to 7965
  156.2531  140.2881  156.0789 H   0  0  0  0  0  0  0  0  0  0  0  0  # atno 8008 bound_to 7997
  155.1588  140.0399  157.2855 H   0  0  0  0  0  0  0  0  0  0  0  0  # atno 8009 bound_to 7997
  154.6408  140.2521  155.7331 H   0  0  0  0  0  0  0  0  0  0  0  0  # atno 8010 bound_to 7997
  140.0876  144.5016  150.7120 H   0  0  0  0  0  0  0  0  0  0  0  0  # atno 10167 bound_to 10162
  156.6936  130.5072  149.5936 H   0  0  0  0  0  0  0  0  0  0  0  0  # atno 10718 bound_to 10713
  154.5067  135.2786  155.1376 H   0  0  0  0  0  0  0  0  0  0  0  0  # atno 10763 bound_to 10752
  154.2988  135.6252  153.5419 H   0  0  0  0  0  0  0  0  0  0  0  0  # atno 10764 bound_to 10752
  152.9911  135.5692  154.5523 H   0  0  0  0  0  0  0  0  0  0  0  0  # atno 10765 bound_to 10752
  140.6721  133.9227  155.8501 H   0  0  0  0  0  0  0  0  0  0  0  0  # atno 11005 bound_to 11000
  145.9567  139.2771  143.1180 LP  0  0  0  0  0  0  0  0  0  0  0  0  # atno 17320 bound_to 7965
  145.9265  140.9078  143.0378 LP  0  0  0  0  0  0  0  0  0  0  0  0  # atno 17321 bound_to 7965
  140.7045  143.2458  151.4766 LP  0  0  0  0  0  0  0  0  0  0  0  0  # atno 17342 bound_to 10162
  139.5743  144.1855  152.1881 LP  0  0  0  0  0  0  0  0  0  0  0  0  # atno 17343 bound_to 10162
  156.1780  130.6480  151.0917 LP  0  0  0  0  0  0  0  0  0  0  0  0  # atno 17370 bound_to 10713
  157.7000  131.0780  150.6851 LP  0  0  0  0  0  0  0  0  0  0  0  0  # atno 17371 bound_to 10713
  141.0384  134.0657  157.3932 LP  0  0  0  0  0  0  0  0  0  0  0  0  # atno 17394 bound_to 11000
  139.8978  135.0152  156.7118 LP  0  0  0  0  0  0  0  0  0  0  0  0  # atno 17395 bound_to 11000

$$$$
