AV-unprocessed.smi:20|AV-procd|sdf|113|dock3
  -GOLD-   2262015273D 1   1.00000     0.00000
 Structure written by MMmdl.
 57 61  0  0  0  0  0  0  0  0  1 V2000
  152.6150  145.3058  157.0522 O   0  0  0  0  0  0  0  0  0  0  0  0
  152.1995  144.3958  157.7655 C   0  0  0  0  0  0  0  0  0  0  0  0
  153.0413  143.6989  158.8206 C   0  0  0  0  0  0  0  0  0  0  0  0
  151.9956  142.9327  159.6666 C   0  0  2  0  0  0  0  0  0  0  0  0
  151.5521  143.7518  160.9085 C   0  0  0  0  0  0  0  0  0  0  0  0
  152.6423  143.7982  161.9934 C   0  0  0  0  0  0  0  0  0  0  0  0
  153.1196  142.3854  162.3567 C   0  0  0  0  0  0  0  0  0  0  0  0
  153.5296  141.6556  161.1589 N   0  0  0  0  0  0  0  0  0  0  0  0
  154.3146  140.5729  161.3919 C   0  0  0  0  0  0  0  0  0  0  0  0
  155.4397  140.6992  162.1461 N   0  0  0  0  0  0  0  0  0  0  0  0
  156.2221  139.6405  162.3750 C   0  0  0  0  0  0  0  0  0  0  0  0
  156.0700  138.3839  161.9537 N   0  0  0  0  0  0  0  0  0  0  0  0
  154.9414  138.2483  161.2003 C   0  0  0  0  0  0  0  0  0  0  0  0
  154.0159  139.2801  160.8754 C   0  0  0  0  0  0  0  0  0  0  0  0
  152.9815  138.7610  160.1057 N   0  0  0  0  0  0  0  0  0  0  0  0
  153.2846  137.4987  159.9732 C   0  0  0  0  0  0  0  0  0  0  0  0
  154.4567  137.1087  160.5812 N   0  0  0  0  0  0  0  0  0  0  0  0
  155.0196  135.7682  160.6036 C   0  0  0  0  0  0  0  0  0  0  0  0
  156.2107  135.5939  161.5852 C   0  0  2  0  0  0  0  0  0  0  0  0
  157.1492  134.4781  161.0680 C   0  0  0  0  0  0  0  0  0  0  0  0
  157.6420  134.7823  159.7789 O   0  0  0  0  0  0  0  0  0  0  0  0
  155.7599  135.2989  163.0451 C   0  0  2  0  0  0  0  0  0  0  0  0
  154.9765  134.0145  163.2625 C   0  0  0  0  0  0  0  0  0  0  0  0
  154.2964  134.2664  164.6011 C   0  0  0  0  0  0  0  0  0  0  0  0
  153.9952  135.6540  164.6100 O   0  0  0  0  0  0  0  0  0  0  0  0
  154.7692  136.3229  163.6194 C   0  0  0  0  0  0  0  0  0  0  0  0
  152.5017  141.5447  160.1217 C   0  0  0  0  0  0  0  0  0  0  0  0
  150.8070  142.7929  158.6856 C   0  0  0  0  0  0  0  0  0  0  0  0
  150.9746  143.8766  157.7372 N   0  0  0  0  0  0  0  0  0  0  0  0
  153.7306  143.0195  158.3179 H   0  0  0  0  0  0  0  0  0  0  0  0
  153.6303  144.4149  159.3926 H   0  0  0  0  0  0  0  0  0  0  0  0
  151.2680  144.7657  160.6236 H   0  0  0  0  0  0  0  0  0  0  0  0
  150.6597  143.2978  161.3417 H   0  0  0  0  0  0  0  0  0  0  0  0
  153.4905  144.3924  161.6533 H   0  0  0  0  0  0  0  0  0  0  0  0
  152.2596  144.2992  162.8827 H   0  0  0  0  0  0  0  0  0  0  0  0
  153.9271  142.4537  163.0849 H   0  0  0  0  0  0  0  0  0  0  0  0
  152.3112  141.8350  162.8400 H   0  0  0  0  0  0  0  0  0  0  0  0
  157.0971  139.8275  162.9798 H   0  0  0  0  0  0  0  0  0  0  0  0
  152.6579  136.8129  159.4216 H   0  0  0  0  0  0  0  0  0  0  0  0
  154.2328  135.0506  160.8385 H   0  0  0  0  0  0  0  0  0  0  0  0
  155.3284  135.5499  159.5812 H   0  0  0  0  0  0  0  0  0  0  0  0
  156.7917  136.5171  161.5981 H   0  0  0  0  0  0  0  0  0  0  0  0
  158.0181  134.3557  161.7132 H   0  0  0  0  0  0  0  0  0  0  0  0
  156.6333  133.5178  161.0426 H   0  0  0  0  0  0  0  0  0  0  0  0
  158.2985  135.4577  159.8591 H   0  0  0  0  0  0  0  0  0  0  0  0
  156.6386  135.2721  163.6919 H   0  0  0  0  0  0  0  0  0  0  0  0
  154.2295  133.8797  162.4791 H   0  0  0  0  0  0  0  0  0  0  0  0
  155.6045  133.1259  163.3008 H   0  0  0  0  0  0  0  0  0  0  0  0
  153.4010  133.6598  164.7382 H   0  0  0  0  0  0  0  0  0  0  0  0
  154.9822  134.0523  165.4218 H   0  0  0  0  0  0  0  0  0  0  0  0
  155.2733  137.1886  164.0493 H   0  0  0  0  0  0  0  0  0  0  0  0
  154.0876  136.6806  162.8464 H   0  0  0  0  0  0  0  0  0  0  0  0
  151.6698  140.9591  160.5162 H   0  0  0  0  0  0  0  0  0  0  0  0
  152.8931  140.9984  159.2619 H   0  0  0  0  0  0  0  0  0  0  0  0
  150.8498  141.8508  158.1368 H   0  0  0  0  0  0  0  0  0  0  0  0
  149.8356  142.8454  159.1783 H   0  0  0  0  0  0  0  0  0  0  0  0
  150.2397  144.1807  157.1151 H   0  0  0  0  0  0  0  0  0  0  0  0
  1  2  2  0  0  0  0
  2 29  1  0  0  0  0
  2  3  1  0  0  0  0
  3  4  1  0  0  0  0
  3 30  1  0  0  0  0
  3 31  1  0  0  0  0
  4 27  1  0  0  0  0
  4  5  1  0  0  0  0
  4 28  1  0  0  0  0
  5  6  1  0  0  0  0
  5 32  1  0  0  0  0
  5 33  1  0  0  0  0
  6  7  1  0  0  0  0
  6 34  1  0  0  0  0
  6 35  1  0  0  0  0
  7  8  1  0  0  0  0
  7 36  1  0  0  0  0
  7 37  1  0  0  0  0
  8  9  1  0  0  0  0
  8 27  1  0  0  0  0
  9 14  1  0  0  0  0
  9 10  2  0  0  0  0
 10 11  1  0  0  0  0
 11 12  2  0  0  0  0
 11 38  1  0  0  0  0
 12 13  1  0  0  0  0
 13 17  1  0  0  0  0
 13 14  2  0  0  0  0
 14 15  1  0  0  0  0
 15 16  2  0  0  0  0
 16 17  1  0  0  0  0
 16 39  1  0  0  0  0
 17 18  1  0  0  0  0
 18 19  1  0  0  0  0
 18 40  1  0  0  0  0
 18 41  1  0  0  0  0
 19 20  1  0  0  0  0
 19 22  1  0  0  0  0
 19 42  1  0  0  0  0
 20 21  1  0  0  0  0
 20 43  1  0  0  0  0
 20 44  1  0  0  0  0
 21 45  1  0  0  0  0
 22 26  1  0  0  0  0
 22 23  1  0  0  0  0
 22 46  1  0  0  0  0
 23 24  1  0  0  0  0
 23 47  1  0  0  0  0
 23 48  1  0  0  0  0
 24 25  1  0  0  0  0
 24 49  1  0  0  0  0
 24 50  1  0  0  0  0
 25 26  1  0  0  0  0
 26 51  1  0  0  0  0
 26 52  1  0  0  0  0
 27 53  1  0  0  0  0
 27 54  1  0  0  0  0
 28 29  1  0  0  0  0
 28 55  1  0  0  0  0
 28 56  1  0  0  0  0
 29 57  1  0  0  0  0
M  END
> <s_m_source_file>
AV-unprocessed.smi

> <i_m_source_file_index>
20

> <i_lp_mmshare_version>
43012

> <i_f3d_flags>
0

> <s_epik_input>
W0NIMl0xW05IXUMoPU8pW0NIMl1bQ0BAXTEyW0NIMl1bQ0gyXVtDSDJdTihbQ0gyXTIpYyhuW2NIXW4zKWMoYzM0KW5bY0hdbjRbQ0gyXVtDQEhdKFtDSDJdW09IXSlbQ0BASF01W0NIMl1bQ0gyXU9bQ0gyXTU=

> <s_epik_cmdline>
J2VwaWtfcHl0aG9uJywgJy1waCcsICc3LjAnLCAnLXRuJywgJzgnLCAnLW1hJywgJzIwMCcsICctbWV0YWxfYmluZGluZycsICctaW1hZScsICc8aW5maWxlLm1hZT4nLCAnLW9tYWUnLCAnPG91dGZpbGUubWFlPic=

> <r_lp_tautomer_probability>
1

> <r_epik_Ionization_Penalty>
0.0019697

> <r_epik_Ionization_Penalty_Charging>
0

> <r_epik_Ionization_Penalty_Neutral>
0.0019697

> <r_epik_State_Penalty>
0.00113613

> <r_epik_Charging_Adjusted_Penalty>
0.00113613

> <i_epik_Tot_Q>
0

> <i_epik_Tot_abs_Q>
0

> <r_epik_Metal_State_Penalty>
-0

> <b_epik_Metal_Only>
0

> <s_lp_Force_Field>
OPLS_2005

> <r_lp_Energy>
60.2496

> <b_lp_Chiralities_Consistent>
1

> <s_lp_Variant>
AV-unprocessed.smi:20-1

> <Gold.Version>
5.8.1

> <Gold.Id.Protein>
6NUR|6NUR_protein|mol2

> <Gold.PLP.Fitness>
45.7881

> <Gold.PLP.PLP>
-43.5824

> <Gold.PLP.part.hbond>
-1.9620

> <Gold.PLP.part.metal>
0.0000

> <Gold.PLP.part.buried>
-1.6657

> <Gold.PLP.part.nonpolar>
-40.4254

> <Gold.PLP.part.repulsive>
0.2341

> <Gold.PLP.ligand.clash>
0.0000

> <Gold.PLP.ligand.torsion>
0.6013

> <Gold.PLP.Chemscore.Hbond>
0.9913

> <Gold.PLP.Chemscore.CHOScore>
0.0000

> <Gold.PLP.Chemscore.Metal>
0.0000

> <Gold.Chemscore.Hbonds>
donor molecule, donor type, donor heavy atom, donor atom, acceptor molecule, acceptor atom, score
      L1  H    29    57       P1  8028  0.99

> <Gold.PLP.Chemscore.Internal.Correction>
0.4346

> <Gold.Rescore>
     Score         DG    S(hbond)    S(metal)    S(lipo)     H(rot)  DE(clash)    DE(int)     intcor
      8.28     -14.30       0.93        0.00     108.93       2.74       2.64       3.38       ----

> <Gold.Chemscore.Fitness>
8.2801

> <Gold.Chemscore.DG>
-14.3039

> <Gold.Chemscore.ZeroCoef>
-5.4800

> <Gold.Chemscore.Hbond>
0.9274

> <Gold.Chemscore.Metal>
0.0000

> <Gold.Chemscore.Lipo>
108.9269

> <Gold.Chemscore.Internal_Hbond>
0.0000

> <Gold.Chemscore.DEClash>
2.6447

> <Gold.Chemscore.DEInternal>
3.3790

> <Gold.Chemscore.Rot>
2.7415

> <Gold.Chemscore.Internal.Correction>
   9.000000E+99

> <Gold.Chemscore.Hbonds>
donor molecule, donor type, donor heavy atom, donor atom, acceptor molecule, acceptor atom, score
      L1  H    29    57       P1  8028  0.81

> <Gold.Chemscore.Hbond.Weighted>
-3.0976

> <Gold.Chemscore.Metal.Weighted>
-0.0000

> <Gold.Chemscore.Lipo.Weighted>
-12.7444

> <Gold.Chemscore.Internal_Hbond.Weighted>
0.0000

> <Gold.Chemscore.DEClash.Weighted>
2.6447

> <Gold.Chemscore.DEInternal.Weighted>
3.3790

> <Gold.Chemscore.Rot.Weighted>
7.0182

> <Gold.Chemscore.Internal.Correction.Weighted>
   9.000000E+99

> <Gold.Protein.RotatedTorsions>
[ 6907 6896 6895 6894 ] final -150.07 input  -60.11 | X-H torsion
[ 7974 7965 7964 7962 ] final -164.57 input  175.53 | X-H torsion
[ 8008 7997 7996 7995 ] final -103.49 input   59.86 | X-H torsion
[ 10167 10162 10161 10158 ] final  -38.14 input  -65.29 | X-H torsion
[ 10718 10713 10712 10709 ] final  -75.89 input   66.30 | X-H torsion
[ 10763 10752 10751 10750 ] final -152.17 input  -60.55 | X-H torsion
[ 11005 11000 10999 10996 ] final   82.27 input  -57.11 | X-H torsion

> <Gold.Protein.ActiveResidues>
 VAL166  LYS551  ARG553  GLY616  TRP617  ASP618  TYR619  PRO620  LYS621  CYS622 
 ASP623  PHE694  ASN695  SER759  ASP760  ASP761  ALA762  ILE779  LEU786  VAL792 
 PHE793  MET794  SER795  GLU796  ALA797  LYS798  CYS799  TRP800  GLU811  SER814 

> <Gold.Protein.RotatedAtoms>
  151.1933  133.4654  159.2594 H   0  0  0  0  0  0  0  0  0  0  0  0  # atno 6907 bound_to 6896
  151.1142  135.0043  159.8518 H   0  0  0  0  0  0  0  0  0  0  0  0  # atno 6908 bound_to 6896
  152.5452  134.1849  159.8703 H   0  0  0  0  0  0  0  0  0  0  0  0  # atno 6909 bound_to 6896
  144.7293  140.2941  143.6215 H   0  0  0  0  0  0  0  0  0  0  0  0  # atno 7974 bound_to 7965
  154.8717  140.0422  157.1729 H   0  0  0  0  0  0  0  0  0  0  0  0  # atno 8008 bound_to 7997
  154.8731  140.2961  155.5448 H   0  0  0  0  0  0  0  0  0  0  0  0  # atno 8009 bound_to 7997
  156.2999  140.2425  156.3723 H   0  0  0  0  0  0  0  0  0  0  0  0  # atno 8010 bound_to 7997
  140.7100  143.3296  151.2599 H   0  0  0  0  0  0  0  0  0  0  0  0  # atno 10167 bound_to 10162
  156.0192  130.4452  150.3111 H   0  0  0  0  0  0  0  0  0  0  0  0  # atno 10718 bound_to 10713
  154.8011  135.3242  154.7547 H   0  0  0  0  0  0  0  0  0  0  0  0  # atno 10763 bound_to 10752
  153.8215  135.6887  153.4831 H   0  0  0  0  0  0  0  0  0  0  0  0  # atno 10764 bound_to 10752
  153.1728  135.4616  154.9869 H   0  0  0  0  0  0  0  0  0  0  0  0  # atno 10765 bound_to 10752
  139.9069  134.8059  156.2153 H   0  0  0  0  0  0  0  0  0  0  0  0  # atno 11005 bound_to 11000
  145.7826  139.1897  143.2149 LP  0  0  0  0  0  0  0  0  0  0  0  0  # atno 17320 bound_to 7965
  146.0821  140.7752  142.9636 LP  0  0  0  0  0  0  0  0  0  0  0  0  # atno 17321 bound_to 7965
  139.6775  143.9913  152.2789 LP  0  0  0  0  0  0  0  0  0  0  0  0  # atno 17342 bound_to 10162
  139.9532  144.6607  150.8152 LP  0  0  0  0  0  0  0  0  0  0  0  0  # atno 17343 bound_to 10162
  157.1213  131.0247  151.3008 LP  0  0  0  0  0  0  0  0  0  0  0  0  # atno 17370 bound_to 10713
  157.4626  130.7662  149.7249 LP  0  0  0  0  0  0  0  0  0  0  0  0  # atno 17371 bound_to 10713
  141.0440  133.6923  156.1649 LP  0  0  0  0  0  0  0  0  0  0  0  0  # atno 17394 bound_to 11000
  140.6912  134.4663  157.5588 LP  0  0  0  0  0  0  0  0  0  0  0  0  # atno 17395 bound_to 11000

$$$$
