AV-unprocessed.smi:195|AV-procd|sdf|1526|dock5
  -GOLD-   2262019373D 1   1.00000     0.00000
 Structure written by MMmdl.
 45 48  0  0  0  0  0  0  0  0  1 V2000
  149.0712  135.1356  159.1741 N   0  0  0  0  0  0  0  0  0  0  0  0
  149.0754  135.5452  158.0922 C   0  0  0  0  0  0  0  0  0  0  0  0
  149.0799  136.0673  156.7165 C   0  0  0  0  0  0  0  0  0  0  0  0
  150.1057  135.3826  155.8083 C   0  0  0  0  0  0  0  0  0  0  0  0
  149.4478  134.2302  155.3248 O   0  0  0  0  0  0  0  0  0  0  0  0
  150.7826  136.2432  154.7371 C   0  0  0  0  0  0  0  0  0  0  0  0
  151.9524  136.3145  155.6091 N   0  0  0  0  0  0  0  0  0  0  0  0
  152.0674  137.5530  156.3157 C   0  0  0  0  0  0  0  0  0  0  0  0
  152.7774  137.6341  157.4739 N   0  0  0  0  0  0  0  0  0  0  0  0
  152.8925  138.7880  158.1374 C   0  0  0  0  0  0  0  0  0  0  0  0
  152.3928  139.9830  157.8225 N   0  0  0  0  0  0  0  0  0  0  0  0
  151.6969  139.9258  156.6526 C   0  0  0  0  0  0  0  0  0  0  0  0
  151.4926  138.7695  155.8467 C   0  0  0  0  0  0  0  0  0  0  0  0
  150.7413  139.1053  154.7260 N   0  0  0  0  0  0  0  0  0  0  0  0
  150.5090  140.3823  154.8657 C   0  0  0  0  0  0  0  0  0  0  0  0
  151.0442  140.9538  155.9972 N   0  0  0  0  0  0  0  0  0  0  0  0
  150.9409  142.3431  156.4073 C   0  0  0  0  0  0  0  0  0  0  0  0
  150.5022  142.4888  157.8781 C   0  0  2  0  0  0  0  0  0  0  0  0
  149.2526  143.1516  157.9246 O   0  0  0  0  0  0  0  0  0  0  0  0
  151.5195  143.2839  158.7179 C   0  0  1  0  0  0  0  0  0  0  0  0
  151.6067  144.7702  158.3627 C   0  0  0  0  0  0  0  0  0  0  0  0
  152.1125  145.3678  159.6549 C   0  0  0  0  0  0  0  0  0  0  0  0
  151.3502  144.5459  160.6883 C   0  0  0  0  0  0  0  0  0  0  0  0
  151.1529  143.2642  160.0970 O   0  0  0  0  0  0  0  0  0  0  0  0
  151.5134  135.1397  156.3631 C   0  0  0  0  0  0  0  0  0  0  0  0
  148.0707  135.9692  156.3153 H   0  0  0  0  0  0  0  0  0  0  0  0
  149.2766  137.1367  156.7882 H   0  0  0  0  0  0  0  0  0  0  0  0
  148.9761  133.8557  156.0531 H   0  0  0  0  0  0  0  0  0  0  0  0
  150.9966  135.7014  153.8148 H   0  0  0  0  0  0  0  0  0  0  0  0
  150.2781  137.1906  154.5429 H   0  0  0  0  0  0  0  0  0  0  0  0
  153.4686  138.7470  159.0502 H   0  0  0  0  0  0  0  0  0  0  0  0
  149.9336  140.9448  154.1448 H   0  0  0  0  0  0  0  0  0  0  0  0
  151.9133  142.8123  156.2530 H   0  0  0  0  0  0  0  0  0  0  0  0
  150.2408  142.8537  155.7445 H   0  0  0  0  0  0  0  0  0  0  0  0
  150.3736  141.4976  158.3154 H   0  0  0  0  0  0  0  0  0  0  0  0
  149.0881  143.5401  157.0789 H   0  0  0  0  0  0  0  0  0  0  0  0
  152.5121  142.8378  158.6340 H   0  0  0  0  0  0  0  0  0  0  0  0
  152.2639  144.9680  157.5154 H   0  0  0  0  0  0  0  0  0  0  0  0
  150.6189  145.1706  158.1296 H   0  0  0  0  0  0  0  0  0  0  0  0
  153.1855  145.1971  159.7527 H   0  0  0  0  0  0  0  0  0  0  0  0
  151.9257  146.4387  159.7377 H   0  0  0  0  0  0  0  0  0  0  0  0
  151.8827  144.4716  161.6369 H   0  0  0  0  0  0  0  0  0  0  0  0
  150.3732  144.9906  160.8820 H   0  0  0  0  0  0  0  0  0  0  0  0
  151.5945  135.1852  157.4488 H   0  0  0  0  0  0  0  0  0  0  0  0
  151.9714  134.2282  155.9760 H   0  0  0  0  0  0  0  0  0  0  0  0
  1  2  3  0  0  0  0
  2  3  1  0  0  0  0
  3  4  1  0  0  0  0
  3 26  1  0  0  0  0
  3 27  1  0  0  0  0
  4 25  1  0  0  0  0
  4  5  1  0  0  0  0
  4  6  1  0  0  0  0
  5 28  1  0  0  0  0
  6  7  1  0  0  0  0
  6 29  1  0  0  0  0
  6 30  1  0  0  0  0
  7  8  1  0  0  0  0
  7 25  1  0  0  0  0
  8 13  1  0  0  0  0
  8  9  2  0  0  0  0
  9 10  1  0  0  0  0
 10 11  2  0  0  0  0
 10 31  1  0  0  0  0
 11 12  1  0  0  0  0
 12 16  1  0  0  0  0
 12 13  2  0  0  0  0
 13 14  1  0  0  0  0
 14 15  2  0  0  0  0
 15 16  1  0  0  0  0
 15 32  1  0  0  0  0
 16 17  1  0  0  0  0
 17 18  1  0  0  0  0
 17 33  1  0  0  0  0
 17 34  1  0  0  0  0
 18 19  1  0  0  0  0
 18 20  1  0  0  0  0
 18 35  1  0  0  0  0
 19 36  1  0  0  0  0
 20 24  1  0  0  0  0
 20 21  1  0  0  0  0
 20 37  1  0  0  0  0
 21 22  1  0  0  0  0
 21 38  1  0  0  0  0
 21 39  1  0  0  0  0
 22 23  1  0  0  0  0
 22 40  1  0  0  0  0
 22 41  1  0  0  0  0
 23 24  1  0  0  0  0
 23 42  1  0  0  0  0
 23 43  1  0  0  0  0
 25 44  1  0  0  0  0
 25 45  1  0  0  0  0
M  END
> <s_m_source_file>
AV-unprocessed.smi

> <i_m_source_file_index>
195

> <i_lp_mmshare_version>
43012

> <i_f3d_flags>
0

> <s_epik_input>
TiNDW0NIMl1DMShbT0hdKVtDSDJdTihbQ0gyXTEpYyhuW2NIXW4yKWMoYzIzKW5bY0hdbjNbQ0gyXVtDQEhdKFtPSF0pW0NAQEhdNFtDSDJdW0NIMl1bQ0gyXU80

> <s_epik_cmdline>
J2VwaWtfcHl0aG9uJywgJy1waCcsICc3LjAnLCAnLXRuJywgJzgnLCAnLW1hJywgJzIwMCcsICctbWV0YWxfYmluZGluZycsICctaW1hZScsICc8aW5maWxlLm1hZT4nLCAnLW9tYWUnLCAnPG91dGZpbGUubWFlPic=

> <r_lp_tautomer_probability>
1

> <r_epik_Ionization_Penalty>
0.00307146

> <r_epik_Ionization_Penalty_Charging>
0

> <r_epik_Ionization_Penalty_Neutral>
0.00307146

> <r_epik_State_Penalty>
0.0020279

> <r_epik_Charging_Adjusted_Penalty>
0.0020279

> <i_epik_Tot_Q>
0

> <i_epik_Tot_abs_Q>
0

> <r_epik_Metal_State_Penalty>
-0

> <b_epik_Metal_Only>
0

> <s_lp_Force_Field>
OPLS_2005

> <r_lp_Energy>
44.1004

> <b_lp_Chiralities_Consistent>
1

> <s_lp_Variant>
AV-unprocessed.smi:195-3

> <Gold.Version>
5.8.1

> <Gold.Id.Protein>
6NUR|6NUR_protein|mol2

> <Gold.PLP.Fitness>
44.4767

> <Gold.PLP.PLP>
-38.7479

> <Gold.PLP.part.hbond>
-4.4100

> <Gold.PLP.part.metal>
0.0000

> <Gold.PLP.part.buried>
-2.4136

> <Gold.PLP.part.nonpolar>
-30.9668

> <Gold.PLP.part.repulsive>
0.2309

> <Gold.PLP.ligand.clash>
0.0000

> <Gold.PLP.ligand.torsion>
1.7669

> <Gold.PLP.Chemscore.Hbond>
2.9760

> <Gold.PLP.Chemscore.CHOScore>
0.0000

> <Gold.PLP.Chemscore.Metal>
0.0000

> <Gold.Chemscore.Hbonds>
donor molecule, donor type, donor heavy atom, donor atom, acceptor molecule, acceptor atom, score
      L1  H    19    36       P1  8028  1.00
      P1  H  6896  6908       L1     1  1.00
      P1  H 10752 10763       L1     7  0.60

> <Gold.PLP.Chemscore.Internal.Correction>
0.3347

> <Gold.Rescore>
     Score         DG    S(hbond)    S(metal)    S(lipo)     H(rot)  DE(clash)    DE(int)     intcor
      9.18     -13.47       2.16        0.00      87.93       3.72       0.99       3.29       ----

> <Gold.Chemscore.Fitness>
9.1817

> <Gold.Chemscore.DG>
-13.4665

> <Gold.Chemscore.ZeroCoef>
-5.4800

> <Gold.Chemscore.Hbond>
2.1629

> <Gold.Chemscore.Metal>
0.0000

> <Gold.Chemscore.Lipo>
87.9329

> <Gold.Chemscore.Internal_Hbond>
0.0000

> <Gold.Chemscore.DEClash>
0.9905

> <Gold.Chemscore.DEInternal>
3.2943

> <Gold.Chemscore.Rot>
3.7210

> <Gold.Chemscore.Internal.Correction>
   9.000000E+99

> <Gold.Chemscore.Hbonds>
donor molecule, donor type, donor heavy atom, donor atom, acceptor molecule, acceptor atom, score
      L1  H    19    36       P1  8028  0.60
      P1  H  6896  6908       L1     1  0.70
      P1  H 10752 10763       L1     7  0.02

> <Gold.Chemscore.Hbond.Weighted>
-7.2240

> <Gold.Chemscore.Metal.Weighted>
-0.0000

> <Gold.Chemscore.Lipo.Weighted>
-10.2881

> <Gold.Chemscore.Internal_Hbond.Weighted>
0.0000

> <Gold.Chemscore.DEClash.Weighted>
0.9905

> <Gold.Chemscore.DEInternal.Weighted>
3.2943

> <Gold.Chemscore.Rot.Weighted>
9.5256

> <Gold.Chemscore.Internal.Correction.Weighted>
   9.000000E+99

> <Gold.Protein.RotatedTorsions>
[ 6907 6896 6895 6894 ] final  163.84 input  -60.11 | X-H torsion
[ 7974 7965 7964 7962 ] final  -53.67 input  175.53 | X-H torsion
[ 8008 7997 7996 7995 ] final  -94.99 input   59.86 | X-H torsion
[ 10167 10162 10161 10158 ] final  -82.97 input  -65.29 | X-H torsion
[ 10718 10713 10712 10709 ] final   93.31 input   66.30 | X-H torsion
[ 10763 10752 10751 10750 ] final   52.95 input  -60.55 | X-H torsion
[ 11005 11000 10999 10996 ] final  -96.10 input  -57.11 | X-H torsion

> <Gold.Protein.ActiveResidues>
 VAL166  LYS551  ARG553  GLY616  TRP617  ASP618  TYR619  PRO620  LYS621  CYS622 
 ASP623  PHE694  ASN695  SER759  ASP760  ASP761  ALA762  ILE779  LEU786  VAL792 
 PHE793  MET794  SER795  GLU796  ALA797  LYS798  CYS799  TRP800  GLU811  SER814 

> <Gold.Protein.RotatedAtoms>
  151.9191  133.3581  159.3890 H   0  0  0  0  0  0  0  0  0  0  0  0  # atno 6907 bound_to 6896
  150.7041  134.4654  159.5409 H   0  0  0  0  0  0  0  0  0  0  0  0  # atno 6908 bound_to 6896
  152.2274  134.8355  160.0529 H   0  0  0  0  0  0  0  0  0  0  0  0  # atno 6909 bound_to 6896
  145.8942  140.8046  142.9776 H   0  0  0  0  0  0  0  0  0  0  0  0  # atno 7974 bound_to 7965
  154.7556  140.0484  157.0930 H   0  0  0  0  0  0  0  0  0  0  0  0  # atno 8008 bound_to 7997
  155.0002  140.3124  155.4851 H   0  0  0  0  0  0  0  0  0  0  0  0  # atno 8009 bound_to 7997
  156.2894  140.2203  156.5112 H   0  0  0  0  0  0  0  0  0  0  0  0  # atno 8010 bound_to 7997
  140.4270  143.2563  151.8812 H   0  0  0  0  0  0  0  0  0  0  0  0  # atno 10167 bound_to 10162
  157.6955  131.0473  150.4014 H   0  0  0  0  0  0  0  0  0  0  0  0  # atno 10718 bound_to 10713
  152.9792  135.5795  154.4661 H   0  0  0  0  0  0  0  0  0  0  0  0  # atno 10763 bound_to 10752
  154.4230  135.2772  155.1965 H   0  0  0  0  0  0  0  0  0  0  0  0  # atno 10764 bound_to 10752
  154.3705  135.6169  153.5791 H   0  0  0  0  0  0  0  0  0  0  0  0  # atno 10765 bound_to 10752
  141.1422  133.8073  157.0525 H   0  0  0  0  0  0  0  0  0  0  0  0  # atno 11005 bound_to 11000
  144.6732  140.1577  143.7425 LP  0  0  0  0  0  0  0  0  0  0  0  0  # atno 17320 bound_to 7965
  145.8871  139.2355  143.1571 LP  0  0  0  0  0  0  0  0  0  0  0  0  # atno 17321 bound_to 7965
  139.4784  144.5376  151.8576 LP  0  0  0  0  0  0  0  0  0  0  0  0  # atno 17342 bound_to 10162
  140.4470  144.1908  150.5895 LP  0  0  0  0  0  0  0  0  0  0  0  0  # atno 17343 bound_to 10162
  156.4407  130.3991  149.6699 LP  0  0  0  0  0  0  0  0  0  0  0  0  # atno 17370 bound_to 10713
  156.3884  130.7614  151.2613 LP  0  0  0  0  0  0  0  0  0  0  0  0  # atno 17371 bound_to 10713
  140.0622  134.9748  157.1325 LP  0  0  0  0  0  0  0  0  0  0  0  0  # atno 17394 bound_to 11000
  140.3831  134.2265  155.7170 LP  0  0  0  0  0  0  0  0  0  0  0  0  # atno 17395 bound_to 11000

$$$$
