AV-unprocessed.smi:2663|AV-procd|sdf|10325|dock1
  -GOLD-   2272014343D 1   1.00000     0.00000
 Structure written by MMmdl.
 38 39  0  0  0  0  0  0  0  0  2 V2000
  148.9872  140.1872  157.6040 C   0  0  0  0  0  0  0  0  0  0  0  0
  150.3784  139.6614  158.0426 C   0  0  2  0  0  0  0  0  0  0  0  0
  151.1954  139.2972  156.7683 C   0  0  0  0  0  0  0  0  0  0  0  0
  150.5070  138.3941  155.9253 O   0  0  0  0  0  0  0  0  0  0  0  0
  150.2218  138.4585  158.8766 N   0  0  0  0  0  0  0  0  0  0  0  0
  149.4158  137.3957  158.7145 C   0  0  0  0  0  0  0  0  0  0  0  0
  148.6572  137.3233  157.7458 O   0  0  0  0  0  0  0  0  0  0  0  0
  149.5426  136.4738  159.6960 N   0  5  0  0  0  0  0  0  0  0  0  0
  148.5113  136.2204  160.5189 C   0  0  0  0  0  0  0  0  0  0  0  0
  147.7719  137.1997  161.0645 N   0  0  0  0  0  0  0  0  0  0  0  0
  146.7594  136.7257  161.8879 N   0  0  0  0  0  0  0  0  0  0  0  0
  146.7669  135.3944  161.9496 C   0  0  0  0  0  0  0  0  0  0  0  0
  148.0126  134.5990  161.0104 S   0  0  0  0  0  0  0  0  0  0  0  0
  151.1136  140.7414  158.9143 C   0  0  0  0  0  0  0  0  0  0  0  0
  151.2455  142.1214  158.2147 C   0  0  0  0  0  0  0  0  0  0  0  0
  151.9186  143.1698  159.1152 C   0  0  0  0  0  0  0  0  0  0  0  0
  153.2970  142.6951  159.5913 C   0  0  0  0  0  0  0  0  0  0  0  0
  153.1861  141.3419  160.3045 C   0  0  0  0  0  0  0  0  0  0  0  0
  152.5170  140.2906  159.4050 C   0  0  0  0  0  0  0  0  0  0  0  0
  149.0608  141.1834  157.1669 H   0  0  0  0  0  0  0  0  0  0  0  0
  148.2864  140.2409  158.4370 H   0  0  0  0  0  0  0  0  0  0  0  0
  148.5277  139.5473  156.8509 H   0  0  0  0  0  0  0  0  0  0  0  0
  151.4454  140.1880  156.1921 H   0  0  0  0  0  0  0  0  0  0  0  0
  152.1478  138.8365  157.0301 H   0  0  0  0  0  0  0  0  0  0  0  0
  150.9450  138.3747  155.0883 H   0  0  0  0  0  0  0  0  0  0  0  0
  150.8076  138.4328  159.6983 H   0  0  0  0  0  0  0  0  0  0  0  0
  146.0368  134.8780  162.5547 H   0  0  0  0  0  0  0  0  0  0  0  0
  150.5129  140.8997  159.8113 H   0  0  0  0  0  0  0  0  0  0  0  0
  151.8166  142.0226  157.2909 H   0  0  0  0  0  0  0  0  0  0  0  0
  150.2672  142.5070  157.9314 H   0  0  0  0  0  0  0  0  0  0  0  0
  152.0175  144.1127  158.5768 H   0  0  0  0  0  0  0  0  0  0  0  0
  151.2829  143.3725  159.9781 H   0  0  0  0  0  0  0  0  0  0  0  0
  153.9709  142.6074  158.7379 H   0  0  0  0  0  0  0  0  0  0  0  0
  153.7366  143.4352  160.2604 H   0  0  0  0  0  0  0  0  0  0  0  0
  154.1770  140.9981  160.6024 H   0  0  0  0  0  0  0  0  0  0  0  0
  152.6093  141.4571  161.2231 H   0  0  0  0  0  0  0  0  0  0  0  0
  152.4504  139.3616  159.9693 H   0  0  0  0  0  0  0  0  0  0  0  0
  153.1685  140.0876  158.5543 H   0  0  0  0  0  0  0  0  0  0  0  0
  1  2  1  0  0  0  0
  1 20  1  0  0  0  0
  1 21  1  0  0  0  0
  1 22  1  0  0  0  0
  2  3  1  0  0  0  0
  2  5  1  0  0  0  0
  2 14  1  0  0  0  0
  3  4  1  0  0  0  0
  3 23  1  0  0  0  0
  3 24  1  0  0  0  0
  4 25  1  0  0  0  0
  5  6  1  0  0  0  0
  5 26  1  0  0  0  0
  6  7  2  0  0  0  0
  6  8  1  0  0  0  0
  8  9  1  0  0  0  0
  9 13  1  0  0  0  0
  9 10  2  0  0  0  0
 10 11  1  0  0  0  0
 11 12  2  0  0  0  0
 12 13  1  0  0  0  0
 12 27  1  0  0  0  0
 14 19  1  0  0  0  0
 14 15  1  0  0  0  0
 14 28  1  0  0  0  0
 15 16  1  0  0  0  0
 15 29  1  0  0  0  0
 15 30  1  0  0  0  0
 16 17  1  0  0  0  0
 16 31  1  0  0  0  0
 16 32  1  0  0  0  0
 17 18  1  0  0  0  0
 17 33  1  0  0  0  0
 17 34  1  0  0  0  0
 18 19  1  0  0  0  0
 18 35  1  0  0  0  0
 18 36  1  0  0  0  0
 19 37  1  0  0  0  0
 19 38  1  0  0  0  0
M  CHG  1   8  -1
M  END
> <s_m_source_file>
AV-unprocessed.smi

> <i_m_source_file_index>
2663

> <i_lp_mmshare_version>
43012

> <i_f3d_flags>
0

> <s_epik_input>
W0NIMl0xW0NIMl1bQ0gyXVtDSDJdW0NIMl1bQ0hdMVtDQF0oW0NIM10pKFtDSDJdW09IXSlbTkhdQyg9TylbTkhdYzJubltjSF1zMg==

> <s_epik_cmdline>
J2VwaWtfcHl0aG9uJywgJy1waCcsICc3LjAnLCAnLXRuJywgJzgnLCAnLW1hJywgJzIwMCcsICctbWV0YWxfYmluZGluZycsICctaW1hZScsICc8aW5maWxlLm1hZT4nLCAnLW9tYWUnLCAnPG91dGZpbGUubWFlPic=

> <r_lp_tautomer_probability>
1

> <r_epik_Ionization_Penalty>
4.39194

> <r_epik_Ionization_Penalty_Charging>
4.34423

> <r_epik_Ionization_Penalty_Neutral>
0.047714

> <r_epik_State_Penalty>
4.34384

> <r_epik_Charging_Adjusted_Penalty>
8.68806

> <i_epik_Tot_Q>
-1

> <i_epik_Tot_abs_Q>
1

> <r_epik_Metal_State_Penalty>
0.746645

> <b_epik_Metal_Only>
1

> <s_lp_Force_Field>
OPLS_2005

> <r_lp_Energy>
18.1486

> <b_lp_Chiralities_Consistent>
1

> <s_lp_Variant>
AV-unprocessed.smi:2663-4

> <Gold.Version>
5.8.1

> <Gold.Id.Protein>
6NUR|6NUR_protein|mol2

> <Gold.PLP.Fitness>
38.5118

> <Gold.PLP.PLP>
-29.8886

> <Gold.PLP.part.hbond>
-3.0000

> <Gold.PLP.part.metal>
0.0000

> <Gold.PLP.part.buried>
-5.0820

> <Gold.PLP.part.nonpolar>
-22.8570

> <Gold.PLP.part.repulsive>
0.2031

> <Gold.PLP.ligand.clash>
0.0000

> <Gold.PLP.ligand.torsion>
1.3403

> <Gold.PLP.Chemscore.Hbond>
3.7040

> <Gold.PLP.Chemscore.CHOScore>
0.0000

> <Gold.PLP.Chemscore.Metal>
0.0000

> <Gold.Chemscore.Hbonds>
donor molecule, donor type, donor heavy atom, donor atom, acceptor molecule, acceptor atom, score
      P1  H  6896  6908       L1     8  1.85
      P1  H  6931  6943       L1    10  0.93
      P1  H  6934  6947       L1    10  0.75

> <Gold.PLP.Chemscore.Internal.Correction>
0.1919

> <Gold.Rescore>
     Score         DG    S(hbond)    S(metal)    S(lipo)     H(rot)  DE(clash)    DE(int)     intcor
     10.24     -14.42       1.76        0.00      73.76       2.18       0.03       4.15       ----

> <Gold.Chemscore.Fitness>
10.2417

> <Gold.Chemscore.DG>
-14.4234

> <Gold.Chemscore.ZeroCoef>
-5.4800

> <Gold.Chemscore.Hbond>
1.7636

> <Gold.Chemscore.Metal>
0.0000

> <Gold.Chemscore.Lipo>
73.7573

> <Gold.Chemscore.Internal_Hbond>
0.0000

> <Gold.Chemscore.DEClash>
0.0280

> <Gold.Chemscore.DEInternal>
4.1536

> <Gold.Chemscore.Rot>
2.1783

> <Gold.Chemscore.Internal.Correction>
   9.000000E+99

> <Gold.Chemscore.Hbonds>
donor molecule, donor type, donor heavy atom, donor atom, acceptor molecule, acceptor atom, score
      P1  H  6896  6908       L1     8  0.62
      P1  H  6931  6943       L1    10  0.32
      P1  H  6934  6947       L1    10  0.15

> <Gold.Chemscore.Hbond.Weighted>
-5.8903

> <Gold.Chemscore.Metal.Weighted>
-0.0000

> <Gold.Chemscore.Lipo.Weighted>
-8.6296

> <Gold.Chemscore.Internal_Hbond.Weighted>
0.0000

> <Gold.Chemscore.DEClash.Weighted>
0.0280

> <Gold.Chemscore.DEInternal.Weighted>
4.1536

> <Gold.Chemscore.Rot.Weighted>
5.5765

> <Gold.Chemscore.Internal.Correction.Weighted>
   9.000000E+99

> <Gold.Protein.RotatedTorsions>
[ 6907 6896 6895 6894 ] final -169.49 input  -60.11 | X-H torsion
[ 7974 7965 7964 7962 ] final  169.28 input  175.53 | X-H torsion
[ 8008 7997 7996 7995 ] final   10.85 input   59.86 | X-H torsion
[ 10167 10162 10161 10158 ] final  -84.22 input  -65.29 | X-H torsion
[ 10718 10713 10712 10709 ] final  -71.83 input   66.30 | X-H torsion
[ 10763 10752 10751 10750 ] final   -4.36 input  -60.55 | X-H torsion
[ 11005 11000 10999 10996 ] final  -45.92 input  -57.11 | X-H torsion

> <Gold.Protein.ActiveResidues>
 VAL166  LYS551  ARG553  GLY616  TRP617  ASP618  TYR619  PRO620  LYS621  CYS622 
 ASP623  PHE694  ASN695  SER759  ASP760  ASP761  ALA762  ILE779  LEU786  VAL792 
 PHE793  MET794  SER795  GLU796  ALA797  LYS798  CYS799  TRP800  GLU811  SER814 

> <Gold.Protein.RotatedAtoms>
  151.4924  133.3522  159.2855 H   0  0  0  0  0  0  0  0  0  0  0  0  # atno 6907 bound_to 6896
  150.8826  134.8221  159.7247 H   0  0  0  0  0  0  0  0  0  0  0  0  # atno 6908 bound_to 6896
  152.4772  134.4824  159.9721 H   0  0  0  0  0  0  0  0  0  0  0  0  # atno 6909 bound_to 6896
  144.7360  139.9032  143.6410 H   0  0  0  0  0  0  0  0  0  0  0  0  # atno 7974 bound_to 7965
  154.7990  140.2849  155.5935 H   0  0  0  0  0  0  0  0  0  0  0  0  # atno 8008 bound_to 7997
  156.2974  140.2590  156.2783 H   0  0  0  0  0  0  0  0  0  0  0  0  # atno 8009 bound_to 7997
  154.9580  140.0378  157.2166 H   0  0  0  0  0  0  0  0  0  0  0  0  # atno 8010 bound_to 7997
  140.4153  143.2606  151.8963 H   0  0  0  0  0  0  0  0  0  0  0  0  # atno 10167 bound_to 10162
  156.0346  130.4359  150.2502 H   0  0  0  0  0  0  0  0  0  0  0  0  # atno 10718 bound_to 10713
  153.3838  135.6999  153.6546 H   0  0  0  0  0  0  0  0  0  0  0  0  # atno 10763 bound_to 10752
  153.5146  135.3624  155.2603 H   0  0  0  0  0  0  0  0  0  0  0  0  # atno 10764 bound_to 10752
  154.8695  135.4143  154.3141 H   0  0  0  0  0  0  0  0  0  0  0  0  # atno 10765 bound_to 10752
  141.0546  133.6730  156.3081 H   0  0  0  0  0  0  0  0  0  0  0  0  # atno 11005 bound_to 11000
  146.1056  139.4056  143.0319 LP  0  0  0  0  0  0  0  0  0  0  0  0  # atno 17320 bound_to 7965
  145.7516  140.9970  143.1247 LP  0  0  0  0  0  0  0  0  0  0  0  0  # atno 17321 bound_to 7965
  139.4782  144.5494  151.8408 LP  0  0  0  0  0  0  0  0  0  0  0  0  # atno 17342 bound_to 10162
  140.4593  144.1744  150.5904 LP  0  0  0  0  0  0  0  0  0  0  0  0  # atno 17343 bound_to 10162
  157.0602  131.0087  151.3225 LP  0  0  0  0  0  0  0  0  0  0  0  0  # atno 17370 bound_to 10713
  157.5076  130.7918  149.7671 LP  0  0  0  0  0  0  0  0  0  0  0  0  # atno 17371 bound_to 10713
  140.5989  134.5575  157.5514 LP  0  0  0  0  0  0  0  0  0  0  0  0  # atno 17394 bound_to 11000
  139.9379  134.7841  156.0754 LP  0  0  0  0  0  0  0  0  0  0  0  0  # atno 17395 bound_to 11000

$$$$
