AV-unprocessed.smi:1813|AV-procd|sdf|7344|dock1
  -GOLD-   22720 9 03D 1   1.00000     0.00000
 Structure written by MMmdl.
 39 40  0  0  0  0  0  0  0  0  3 V2000
  145.4056  136.0121  150.8234 C   0  0  0  0  0  0  0  0  0  0  0  0
  144.9831  136.1803  152.2089 N   0  5  0  0  0  0  0  0  0  0  0  0
  145.4590  137.1585  153.0250 C   0  0  0  0  0  0  0  0  0  0  0  0
  145.4425  137.2604  154.2562 O   0  0  0  0  0  0  0  0  0  0  0  0
  146.1385  138.2706  152.2180 C   0  0  0  0  0  0  0  0  0  0  0  0
  146.7906  139.2363  153.1370 N   0  3  2  0  0  0  0  0  0  0  0  0
  147.2990  140.4384  152.4295 C   0  0  0  0  0  0  0  0  0  0  0  0
  147.8218  141.4866  153.4257 C   0  0  0  0  0  0  0  0  0  0  0  0
  148.9106  140.8973  154.3369 C   0  0  1  0  0  0  0  0  0  0  0  0
  149.3109  141.8884  155.3314 N   0  0  0  0  0  0  0  0  0  0  0  0
  150.1866  141.6775  156.3247 C   0  0  0  0  0  0  0  0  0  0  0  0
  150.7614  140.6038  156.5063 O   0  0  0  0  0  0  0  0  0  0  0  0
  150.3395  142.7796  157.0796 N   0  0  0  0  0  0  0  0  0  0  0  0
  151.1895  142.9643  158.2014 C   0  0  0  0  0  0  0  0  0  0  0  0
  151.4272  144.1465  158.7815 N   0  0  0  0  0  0  0  0  0  0  0  0
  152.2970  144.0310  159.8686 C   0  0  0  0  0  0  0  0  0  0  0  0
  152.7154  142.7448  160.1031 C   0  0  0  0  0  0  0  0  0  0  0  0
  152.0285  141.6202  158.9617 S   0  0  0  0  0  0  0  0  0  0  0  0
  148.3797  139.6240  155.0206 C   0  0  0  0  0  0  0  0  0  0  0  0
  147.8428  138.6192  153.9885 C   0  0  0  0  0  0  0  0  0  0  0  0
  144.9721  135.1196  150.3729 H   0  0  0  0  0  0  0  0  0  0  0  0
  146.4870  135.9144  150.7239 H   0  0  0  0  0  0  0  0  0  0  0  0
  145.1053  136.8515  150.1954 H   0  0  0  0  0  0  0  0  0  0  0  0
  146.8556  137.8899  151.4872 H   0  0  0  0  0  0  0  0  0  0  0  0
  145.3543  138.7694  151.6466 H   0  0  0  0  0  0  0  0  0  0  0  0
  148.0896  140.1473  151.7359 H   0  0  0  0  0  0  0  0  0  0  0  0
  146.5001  140.8813  151.8337 H   0  0  0  0  0  0  0  0  0  0  0  0
  148.2136  142.3475  152.8828 H   0  0  0  0  0  0  0  0  0  0  0  0
  146.9907  141.8541  154.0296 H   0  0  0  0  0  0  0  0  0  0  0  0
  149.7716  140.6374  153.7178 H   0  0  0  0  0  0  0  0  0  0  0  0
  148.8888  142.8025  155.2579 H   0  0  0  0  0  0  0  0  0  0  0  0
  149.7895  143.5843  156.8178 H   0  0  0  0  0  0  0  0  0  0  0  0
  152.5661  144.9183  160.4224 H   0  0  0  0  0  0  0  0  0  0  0  0
  153.3822  142.3921  160.8757 H   0  0  0  0  0  0  0  0  0  0  0  0
  149.1682  139.1553  155.6107 H   0  0  0  0  0  0  0  0  0  0  0  0
  147.5832  139.8819  155.7205 H   0  0  0  0  0  0  0  0  0  0  0  0
  147.4446  137.7523  154.5157 H   0  0  0  0  0  0  0  0  0  0  0  0
  148.6563  138.2567  153.3580 H   0  0  0  0  0  0  0  0  0  0  0  0
  146.0609  139.5578  153.7572 H   0  0  0  0  0  0  0  0  0  0  0  0
  1  2  1  0  0  0  0
  1 21  1  0  0  0  0
  1 22  1  0  0  0  0
  1 23  1  0  0  0  0
  2  3  1  0  0  0  0
  3  4  2  0  0  0  0
  3  5  1  0  0  0  0
  5  6  1  0  0  0  0
  5 24  1  0  0  0  0
  5 25  1  0  0  0  0
  6 20  1  0  0  0  0
  6  7  1  0  0  0  0
  6 39  1  0  0  0  0
  7  8  1  0  0  0  0
  7 26  1  0  0  0  0
  7 27  1  0  0  0  0
  8  9  1  0  0  0  0
  8 28  1  0  0  0  0
  8 29  1  0  0  0  0
  9 10  1  0  0  0  0
  9 19  1  0  0  0  0
  9 30  1  0  0  0  0
 10 11  1  0  0  0  0
 10 31  1  0  0  0  0
 11 12  2  0  0  0  0
 11 13  1  0  0  0  0
 13 14  1  0  0  0  0
 13 32  1  0  0  0  0
 14 18  1  0  0  0  0
 14 15  2  0  0  0  0
 15 16  1  0  0  0  0
 16 17  2  0  0  0  0
 16 33  1  0  0  0  0
 17 18  1  0  0  0  0
 17 34  1  0  0  0  0
 19 20  1  0  0  0  0
 19 35  1  0  0  0  0
 19 36  1  0  0  0  0
 20 37  1  0  0  0  0
 20 38  1  0  0  0  0
M  CHG  1   2  -1
M  CHG  1   6   1
M  END
> <s_m_source_file>
AV-unprocessed.smi

> <i_m_source_file_index>
1813

> <i_lp_mmshare_version>
43012

> <i_f3d_flags>
0

> <s_epik_input>
W0NIM11bTkhdQyg9TylbQ0gyXU4xW0NIMl1bQ0gyXVtDSF0oW0NIMl1bQ0gyXTEpW05IXUMoPU8pW05IXWMybltjSF1bY0hdczI=

> <s_epik_cmdline>
J2VwaWtfcHl0aG9uJywgJy1waCcsICc3LjAnLCAnLXRuJywgJzgnLCAnLW1hJywgJzIwMCcsICctbWV0YWxfYmluZGluZycsICctaW1hZScsICc8aW5maWxlLm1hZT4nLCAnLW9tYWUnLCAnPG91dGZpbGUubWFlPic=

> <r_lp_tautomer_probability>
0.999

> <r_epik_Ionization_Penalty>
6.14232

> <r_epik_Ionization_Penalty_Charging>
6.14218

> <r_epik_Ionization_Penalty_Neutral>
0.000139308

> <r_epik_State_Penalty>
6.98503

> <r_epik_Charging_Adjusted_Penalty>
13.1272

> <i_epik_Tot_Q>
0

> <i_epik_Tot_abs_Q>
2

> <r_epik_Metal_State_Penalty>
2.95036

> <b_epik_Metal_Only>
1

> <s_lp_Force_Field>
OPLS_2005

> <r_lp_Energy>
7.46639

> <b_lp_Chiralities_Consistent>
1

> <s_lp_Variant>
AV-unprocessed.smi:1813-5

> <Gold.Version>
5.8.1

> <Gold.Id.Protein>
6NUR|6NUR_protein|mol2

> <Gold.PLP.Fitness>
39.8964

> <Gold.PLP.PLP>
-34.3349

> <Gold.PLP.part.hbond>
-2.0000

> <Gold.PLP.part.metal>
0.0000

> <Gold.PLP.part.buried>
-4.6056

> <Gold.PLP.part.nonpolar>
-29.0284

> <Gold.PLP.part.repulsive>
0.5340

> <Gold.PLP.ligand.clash>
0.0000

> <Gold.PLP.ligand.torsion>
0.1690

> <Gold.PLP.Chemscore.Hbond>
1.9280

> <Gold.PLP.Chemscore.CHOScore>
0.0000

> <Gold.PLP.Chemscore.Metal>
0.0000

> <Gold.Chemscore.Hbonds>
donor molecule, donor type, donor heavy atom, donor atom, acceptor molecule, acceptor atom, score
      L1  H    10    31       P1  8028  1.00
      L1  H    13    32       P1  8028  1.00

> <Gold.PLP.Chemscore.Internal.Correction>
0.1155

> <Gold.Rescore>
     Score         DG    S(hbond)    S(metal)    S(lipo)     H(rot)  DE(clash)    DE(int)     intcor
     13.69     -16.69       1.94        0.00      78.44       1.73       0.11       2.89       ----

> <Gold.Chemscore.Fitness>
13.6946

> <Gold.Chemscore.DG>
-16.6946

> <Gold.Chemscore.ZeroCoef>
-5.4800

> <Gold.Chemscore.Hbond>
1.9367

> <Gold.Chemscore.Metal>
0.0000

> <Gold.Chemscore.Lipo>
78.4438

> <Gold.Chemscore.Internal_Hbond>
0.0000

> <Gold.Chemscore.DEClash>
0.1129

> <Gold.Chemscore.DEInternal>
2.8871

> <Gold.Chemscore.Rot>
1.7312

> <Gold.Chemscore.Internal.Correction>
   9.000000E+99

> <Gold.Chemscore.Hbonds>
donor molecule, donor type, donor heavy atom, donor atom, acceptor molecule, acceptor atom, score
      L1  H    10    31       P1  8028  0.95
      L1  H    13    32       P1  8028  0.98

> <Gold.Chemscore.Hbond.Weighted>
-6.4686

> <Gold.Chemscore.Metal.Weighted>
-0.0000

> <Gold.Chemscore.Lipo.Weighted>
-9.1779

> <Gold.Chemscore.Internal_Hbond.Weighted>
0.0000

> <Gold.Chemscore.DEClash.Weighted>
0.1129

> <Gold.Chemscore.DEInternal.Weighted>
2.8871

> <Gold.Chemscore.Rot.Weighted>
4.4319

> <Gold.Chemscore.Internal.Correction.Weighted>
   9.000000E+99

> <Gold.Protein.RotatedTorsions>
[ 6907 6896 6895 6894 ] final   55.15 input  -60.11 | X-H torsion
[ 7974 7965 7964 7962 ] final -143.31 input  175.53 | X-H torsion
[ 8008 7997 7996 7995 ] final  -31.38 input   59.86 | X-H torsion
[ 10167 10162 10161 10158 ] final  -85.41 input  -65.29 | X-H torsion
[ 10718 10713 10712 10709 ] final   31.04 input   66.30 | X-H torsion
[ 10763 10752 10751 10750 ] final -158.01 input  -60.55 | X-H torsion
[ 11005 11000 10999 10996 ] final   47.47 input  -57.11 | X-H torsion

> <Gold.Protein.ActiveResidues>
 VAL166  LYS551  ARG553  GLY616  TRP617  ASP618  TYR619  PRO620  LYS621  CYS622 
 ASP623  PHE694  ASN695  SER759  ASP760  ASP761  ALA762  ILE779  LEU786  VAL792 
 PHE793  MET794  SER795  GLU796  ALA797  LYS798  CYS799  TRP800  GLU811  SER814 

> <Gold.Protein.RotatedAtoms>
  152.3510  134.7005  160.0235 H   0  0  0  0  0  0  0  0  0  0  0  0  # atno 6907 bound_to 6896
  151.7359  133.3314  159.3360 H   0  0  0  0  0  0  0  0  0  0  0  0  # atno 6908 bound_to 6896
  150.7540  134.6255  159.6203 H   0  0  0  0  0  0  0  0  0  0  0  0  # atno 6909 bound_to 6896
  144.8378  140.5850  143.5472 H   0  0  0  0  0  0  0  0  0  0  0  0  # atno 7974 bound_to 7965
  154.4216  140.1766  156.1557 H   0  0  0  0  0  0  0  0  0  0  0  0  # atno 8008 bound_to 7997
  155.9879  140.3371  155.6700 H   0  0  0  0  0  0  0  0  0  0  0  0  # atno 8009 bound_to 7997
  155.6412  140.0680  157.2608 H   0  0  0  0  0  0  0  0  0  0  0  0  # atno 8010 bound_to 7997
  140.4040  143.2650  151.9105 H   0  0  0  0  0  0  0  0  0  0  0  0  # atno 10167 bound_to 10162
  157.2673  130.7191  149.6485 H   0  0  0  0  0  0  0  0  0  0  0  0  # atno 10718 bound_to 10713
  154.7591  135.3113  154.8413 H   0  0  0  0  0  0  0  0  0  0  0  0  # atno 10763 bound_to 10752
  153.9179  135.6799  153.4753 H   0  0  0  0  0  0  0  0  0  0  0  0  # atno 10764 bound_to 10752
  153.1190  135.4831  154.9095 H   0  0  0  0  0  0  0  0  0  0  0  0  # atno 10765 bound_to 10752
  140.1276  134.4747  155.8547 H   0  0  0  0  0  0  0  0  0  0  0  0  # atno 11005 bound_to 11000
  145.4757  139.1499  143.3789 LP  0  0  0  0  0  0  0  0  0  0  0  0  # atno 17320 bound_to 7965
  146.2675  140.4892  142.8828 LP  0  0  0  0  0  0  0  0  0  0  0  0  # atno 17321 bound_to 7965
  139.4784  144.5604  151.8247 LP  0  0  0  0  0  0  0  0  0  0  0  0  # atno 17342 bound_to 10162
  140.4709  144.1588  150.5918 LP  0  0  0  0  0  0  0  0  0  0  0  0  # atno 17343 bound_to 10162
  155.9663  130.4378  150.5193 LP  0  0  0  0  0  0  0  0  0  0  0  0  # atno 17370 bound_to 10713
  157.3110  131.0663  151.2001 LP  0  0  0  0  0  0  0  0  0  0  0  0  # atno 17371 bound_to 10713
  141.2164  133.6784  156.7009 LP  0  0  0  0  0  0  0  0  0  0  0  0  # atno 17394 bound_to 11000
  140.2883  134.8261  157.3994 LP  0  0  0  0  0  0  0  0  0  0  0  0  # atno 17395 bound_to 11000

$$$$
