AV-unprocessed.smi:3334|AV-procd|sdf|12835|dock1
  -GOLD-   2272019213D 1   1.00000     0.00000
 Structure written by MMmdl.
 41 42  0  0  0  0  0  0  0  0  1 V2000
  151.1774  144.4906  160.8954 C   0  0  0  0  0  0  0  0  0  0  0  0
  151.8038  143.7359  159.7144 C   0  0  0  0  0  0  0  0  0  0  0  0
  151.0682  143.9734  158.3877 C   0  0  0  0  0  0  0  0  0  0  0  0
  151.9781  142.2797  160.0104 C   0  0  0  0  0  0  0  0  0  0  0  0
  151.3911  141.3059  159.3087 N   0  0  0  0  0  0  0  0  0  0  0  0
  151.6885  140.0292  159.7968 C   0  0  0  0  0  0  0  0  0  0  0  0
  151.1021  138.8123  159.1389 C   0  0  0  0  0  0  0  0  0  0  0  0
  151.7308  138.4904  157.7718 C   0  0  0  0  0  0  0  0  0  0  0  0
  150.7909  138.7227  156.6820 N   0  0  0  0  0  0  0  0  0  0  0  0
  150.9616  139.6117  155.6945 C   0  0  0  0  0  0  0  0  0  0  0  0
  151.9328  140.3645  155.6223 O   0  0  0  0  0  0  0  0  0  0  0  0
  149.8661  139.6535  154.6246 C   0  0  0  0  0  0  0  0  0  0  0  0
  149.1972  141.0372  154.4959 C   0  0  2  0  0  0  0  0  0  0  0  0
  148.5057  141.4559  155.7675 C   0  0  0  0  0  0  0  0  0  0  0  0
  147.2488  141.8457  155.5662 C   0  0  0  0  0  0  0  0  0  0  0  0
  146.8474  141.7665  154.1197 C   0  0  0  0  0  0  0  0  0  0  0  0
  148.0662  141.1090  153.4350 C   0  0  0  0  0  0  0  0  0  0  0  0
  152.5251  140.0506  160.8847 C   0  0  0  0  0  0  0  0  0  0  0  0
  152.9638  141.6748  161.3371 S   0  0  0  0  0  0  0  0  0  0  0  0
  151.7850  144.3772  161.7936 H   0  0  0  0  0  0  0  0  0  0  0  0
  150.1766  144.1205  161.1202 H   0  0  0  0  0  0  0  0  0  0  0  0
  151.0979  145.5573  160.6839 H   0  0  0  0  0  0  0  0  0  0  0  0
  152.8068  144.1447  159.5853 H   0  0  0  0  0  0  0  0  0  0  0  0
  151.5855  143.4881  157.5597 H   0  0  0  0  0  0  0  0  0  0  0  0
  151.0044  145.0375  158.1594 H   0  0  0  0  0  0  0  0  0  0  0  0
  150.0516  143.5802  158.4225 H   0  0  0  0  0  0  0  0  0  0  0  0
  151.2108  137.9483  159.7958 H   0  0  0  0  0  0  0  0  0  0  0  0
  150.0277  138.9457  159.0088 H   0  0  0  0  0  0  0  0  0  0  0  0
  152.6152  139.1086  157.6135 H   0  0  0  0  0  0  0  0  0  0  0  0
  152.0621  137.4506  157.7596 H   0  0  0  0  0  0  0  0  0  0  0  0
  149.9666  138.1394  156.6593 H   0  0  0  0  0  0  0  0  0  0  0  0
  150.2800  139.3527  153.6603 H   0  0  0  0  0  0  0  0  0  0  0  0
  149.1170  138.9050  154.8845 H   0  0  0  0  0  0  0  0  0  0  0  0
  149.9517  141.7957  154.2819 H   0  0  0  0  0  0  0  0  0  0  0  0
  149.0069  141.4467  156.7241 H   0  0  0  0  0  0  0  0  0  0  0  0
  146.5757  142.2002  156.3330 H   0  0  0  0  0  0  0  0  0  0  0  0
  145.9408  141.1728  153.9998 H   0  0  0  0  0  0  0  0  0  0  0  0
  146.6618  142.7694  153.7343 H   0  0  0  0  0  0  0  0  0  0  0  0
  148.3812  141.6677  152.5529 H   0  0  0  0  0  0  0  0  0  0  0  0
  147.7922  140.1091  153.0961 H   0  0  0  0  0  0  0  0  0  0  0  0
  152.9063  139.2119  161.4480 H   0  0  0  0  0  0  0  0  0  0  0  0
  1  2  1  0  0  0  0
  1 20  1  0  0  0  0
  1 21  1  0  0  0  0
  1 22  1  0  0  0  0
  2  3  1  0  0  0  0
  2  4  1  0  0  0  0
  2 23  1  0  0  0  0
  3 24  1  0  0  0  0
  3 25  1  0  0  0  0
  3 26  1  0  0  0  0
  4 19  1  0  0  0  0
  4  5  2  0  0  0  0
  5  6  1  0  0  0  0
  6  7  1  0  0  0  0
  6 18  2  0  0  0  0
  7  8  1  0  0  0  0
  7 27  1  0  0  0  0
  7 28  1  0  0  0  0
  8  9  1  0  0  0  0
  8 29  1  0  0  0  0
  8 30  1  0  0  0  0
  9 10  1  0  0  0  0
  9 31  1  0  0  0  0
 10 11  2  0  0  0  0
 10 12  1  0  0  0  0
 12 13  1  0  0  0  0
 12 32  1  0  0  0  0
 12 33  1  0  0  0  0
 13 17  1  0  0  0  0
 13 14  1  0  0  0  0
 13 34  1  0  0  0  0
 14 15  2  0  0  0  0
 14 35  1  0  0  0  0
 15 16  1  0  0  0  0
 15 36  1  0  0  0  0
 16 17  1  0  0  0  0
 16 37  1  0  0  0  0
 16 38  1  0  0  0  0
 17 39  1  0  0  0  0
 17 40  1  0  0  0  0
 18 19  1  0  0  0  0
 18 41  1  0  0  0  0
M  END
> <s_m_source_file>
AV-unprocessed.smi

> <i_m_source_file_index>
3334

> <i_lp_mmshare_version>
43012

> <i_f3d_flags>
0

> <s_epik_input>
W0NIM11bQ0hdKFtDSDNdKWMxbmMoW2NIXXMxKVtDSDJdW0NIMl1bTkhdQyg9TylbQ0gyXVtDQEBIXTJbQ0hdPVtDSF1bQ0gyXVtDSDJdMg==

> <s_epik_cmdline>
J2VwaWtfcHl0aG9uJywgJy1waCcsICc3LjAnLCAnLXRuJywgJzgnLCAnLW1hJywgJzIwMCcsICctbWV0YWxfYmluZGluZycsICctaW1hZScsICc8aW5maWxlLm1hZT4nLCAnLW9tYWUnLCAnPG91dGZpbGUubWFlPic=

> <r_epik_Ionization_Penalty>
0.000771592

> <r_epik_Ionization_Penalty_Charging>
0

> <r_epik_Ionization_Penalty_Neutral>
0.000771592

> <r_epik_State_Penalty>
0.000494253

> <r_epik_Charging_Adjusted_Penalty>
0.000494253

> <i_epik_Tot_Q>
0

> <i_epik_Tot_abs_Q>
0

> <r_epik_Metal_State_Penalty>
-0

> <b_epik_Metal_Only>
0

> <s_lp_Force_Field>
OPLS_2005

> <r_lp_Energy>
4.8696

> <b_lp_Chiralities_Consistent>
1

> <s_lp_Variant>
AV-unprocessed.smi:3334-1

> <Gold.Version>
5.8.1

> <Gold.Id.Protein>
6NUR|6NUR_protein|mol2

> <Gold.PLP.Fitness>
45.2036

> <Gold.PLP.PLP>
-43.5566

> <Gold.PLP.part.hbond>
-1.0000

> <Gold.PLP.part.metal>
0.0000

> <Gold.PLP.part.buried>
-4.3181

> <Gold.PLP.part.nonpolar>
-39.2662

> <Gold.PLP.part.repulsive>
0.0669

> <Gold.PLP.ligand.clash>
0.0000

> <Gold.PLP.ligand.torsion>
0.5779

> <Gold.PLP.Chemscore.Hbond>
0.8320

> <Gold.PLP.Chemscore.CHOScore>
0.0000

> <Gold.PLP.Chemscore.Metal>
0.0000

> <Gold.Chemscore.Hbonds>
donor molecule, donor type, donor heavy atom, donor atom, acceptor molecule, acceptor atom, score
      P1  H  7989  7998       L1    11  0.35

> <Gold.PLP.Chemscore.Internal.Correction>
0.3069

> <Gold.Rescore>
     Score         DG    S(hbond)    S(metal)    S(lipo)     H(rot)  DE(clash)    DE(int)     intcor
     17.92     -18.81       0.89        0.00     121.57       1.52       0.05       0.84       ----

> <Gold.Chemscore.Fitness>
17.9237

> <Gold.Chemscore.DG>
-18.8050

> <Gold.Chemscore.ZeroCoef>
-5.4800

> <Gold.Chemscore.Hbond>
0.8932

> <Gold.Chemscore.Metal>
0.0000

> <Gold.Chemscore.Lipo>
121.5673

> <Gold.Chemscore.Internal_Hbond>
0.0000

> <Gold.Chemscore.DEClash>
0.0451

> <Gold.Chemscore.DEInternal>
0.8363

> <Gold.Chemscore.Rot>
1.5162

> <Gold.Chemscore.Internal.Correction>
   9.000000E+99

> <Gold.Chemscore.Hbonds>
donor molecule, donor type, donor heavy atom, donor atom, acceptor molecule, acceptor atom, score
      P1  H  7989  7998       L1    11  0.05

> <Gold.Chemscore.Hbond.Weighted>
-2.9832

> <Gold.Chemscore.Metal.Weighted>
-0.0000

> <Gold.Chemscore.Lipo.Weighted>
-14.2234

> <Gold.Chemscore.Internal_Hbond.Weighted>
0.0000

> <Gold.Chemscore.DEClash.Weighted>
0.0451

> <Gold.Chemscore.DEInternal.Weighted>
0.8363

> <Gold.Chemscore.Rot.Weighted>
3.8815

> <Gold.Chemscore.Internal.Correction.Weighted>
   9.000000E+99

> <Gold.Protein.RotatedTorsions>
[ 6907 6896 6895 6894 ] final  -33.11 input  -60.11 | X-H torsion
[ 7974 7965 7964 7962 ] final  -47.24 input  175.53 | X-H torsion
[ 8008 7997 7996 7995 ] final  -64.90 input   59.86 | X-H torsion
[ 10167 10162 10161 10158 ] final  -47.51 input  -65.29 | X-H torsion
[ 10718 10713 10712 10709 ] final -140.69 input   66.30 | X-H torsion
[ 10763 10752 10751 10750 ] final   45.69 input  -60.55 | X-H torsion
[ 11005 11000 10999 10996 ] final   40.86 input  -57.11 | X-H torsion

> <Gold.Protein.ActiveResidues>
 VAL166  LYS551  ARG553  GLY616  TRP617  ASP618  TYR619  PRO620  LYS621  CYS622 
 ASP623  PHE694  ASN695  SER759  ASP760  ASP761  ALA762  ILE779  LEU786  VAL792 
 PHE793  MET794  SER795  GLU796  ALA797  LYS798  CYS799  TRP800  GLU811  SER814 

> <Gold.Protein.RotatedAtoms>
  151.0699  134.9792  159.8303 H   0  0  0  0  0  0  0  0  0  0  0  0  # atno 6907 bound_to 6896
  152.5407  134.2312  159.8835 H   0  0  0  0  0  0  0  0  0  0  0  0  # atno 6908 bound_to 6896
  151.2336  133.4394  159.2638 H   0  0  0  0  0  0  0  0  0  0  0  0  # atno 6909 bound_to 6896
  145.9637  140.7454  142.9445 H   0  0  0  0  0  0  0  0  0  0  0  0  # atno 7974 bound_to 7965
  154.4639  140.0944  156.6968 H   0  0  0  0  0  0  0  0  0  0  0  0  # atno 8008 bound_to 7997
  155.4914  140.3471  155.4337 H   0  0  0  0  0  0  0  0  0  0  0  0  # atno 8009 bound_to 7997
  156.0921  140.1400  156.9567 H   0  0  0  0  0  0  0  0  0  0  0  0  # atno 8010 bound_to 7997
  140.6772  143.2781  151.3937 H   0  0  0  0  0  0  0  0  0  0  0  0  # atno 10167 bound_to 10162
  156.3253  130.7556  151.1663 H   0  0  0  0  0  0  0  0  0  0  0  0  # atno 10718 bound_to 10713
  152.9821  135.6031  154.3478 H   0  0  0  0  0  0  0  0  0  0  0  0  # atno 10763 bound_to 10752
  154.3170  135.2770  155.2540 H   0  0  0  0  0  0  0  0  0  0  0  0  # atno 10764 bound_to 10752
  154.4724  135.5938  153.6387 H   0  0  0  0  0  0  0  0  0  0  0  0  # atno 10765 bound_to 10752
  140.1889  134.4011  155.8157 H   0  0  0  0  0  0  0  0  0  0  0  0  # atno 11005 bound_to 11000
  144.6820  140.2633  143.7316 LP  0  0  0  0  0  0  0  0  0  0  0  0  # atno 17320 bound_to 7965
  145.8004  139.1962  143.2051 LP  0  0  0  0  0  0  0  0  0  0  0  0  # atno 17321 bound_to 7965
  139.6071  144.1174  152.2261 LP  0  0  0  0  0  0  0  0  0  0  0  0  # atno 17342 bound_to 10162
  140.0576  144.5882  150.7287 LP  0  0  0  0  0  0  0  0  0  0  0  0  # atno 17343 bound_to 10162
  157.7420  131.0496  150.5057 LP  0  0  0  0  0  0  0  0  0  0  0  0  # atno 17370 bound_to 10713
  156.5215  130.4163  149.6248 LP  0  0  0  0  0  0  0  0  0  0  0  0  # atno 17371 bound_to 10713
  141.2226  133.7037  156.8061 LP  0  0  0  0  0  0  0  0  0  0  0  0  # atno 17394 bound_to 11000
  140.2182  134.8777  157.3348 LP  0  0  0  0  0  0  0  0  0  0  0  0  # atno 17395 bound_to 11000

$$$$
