AV-unprocessed.smi:49|AV-procd|sdf|472|dock7
  -GOLD-   2262016333D 1   1.00000     0.00000
 Structure written by MMmdl.
 27 28  0  0  0  0  0  0  0  0  1 V2000
  150.7682  145.9647  159.6622 C   0  0  0  0  0  0  0  0  0  0  0  0
  152.2037  145.4487  159.5163 C   0  0  0  0  0  0  0  0  0  0  0  0
  152.2752  143.9576  159.4736 C   0  0  0  0  0  0  0  0  0  0  0  0
  151.6562  143.1868  158.5859 N   0  0  0  0  0  0  0  0  0  0  0  0
  152.0738  141.9526  159.0012 C   0  0  0  0  0  0  0  0  0  0  0  0
  151.6844  140.6972  158.2818 C   0  0  1  0  0  0  0  0  0  0  0  0
  150.7545  140.9670  157.0904 C   0  0  0  0  0  0  0  0  0  0  0  0
  151.0749  139.8147  156.1494 C   0  0  1  0  0  0  0  0  0  0  0  0
  150.7371  140.0900  154.8066 O   0  0  0  0  0  0  0  0  0  0  0  0
  152.5786  139.6505  156.3489 C   0  0  0  0  0  0  0  0  0  0  0  0
  152.8217  139.9252  157.7629 N   0  0  0  0  0  0  0  0  0  0  0  0
  152.9073  141.9408  160.0428 N   0  0  0  0  0  0  0  0  0  0  0  0
  153.0141  143.2540  160.3335 N   0  0  0  0  0  0  0  0  0  0  0  0
  151.1456  140.0625  158.9867 H   0  0  0  0  0  0  0  0  0  0  0  0
  150.5552  138.9128  156.4758 H   0  0  0  0  0  0  0  0  0  0  0  0
  153.5846  143.6075  161.0881 H   0  0  0  0  0  0  0  0  0  0  0  0
  150.7475  147.0542  159.6890 H   0  0  0  0  0  0  0  0  0  0  0  0
  150.3114  145.6003  160.5828 H   0  0  0  0  0  0  0  0  0  0  0  0
  150.1465  145.6389  158.8278 H   0  0  0  0  0  0  0  0  0  0  0  0
  152.6531  145.8534  158.6087 H   0  0  0  0  0  0  0  0  0  0  0  0
  152.8119  145.8031  160.3493 H   0  0  0  0  0  0  0  0  0  0  0  0
  149.7027  141.0224  157.3722 H   0  0  0  0  0  0  0  0  0  0  0  0
  151.0227  141.9109  156.6115 H   0  0  0  0  0  0  0  0  0  0  0  0
  150.7985  139.2880  154.3107 H   0  0  0  0  0  0  0  0  0  0  0  0
  152.9362  138.6627  156.0579 H   0  0  0  0  0  0  0  0  0  0  0  0
  153.1115  140.3865  155.7451 H   0  0  0  0  0  0  0  0  0  0  0  0
  152.8626  139.0426  158.2619 H   0  0  0  0  0  0  0  0  0  0  0  0
  1  2  1  0  0  0  0
  1 17  1  0  0  0  0
  1 18  1  0  0  0  0
  1 19  1  0  0  0  0
  2  3  1  0  0  0  0
  2 20  1  0  0  0  0
  2 21  1  0  0  0  0
  3 13  1  0  0  0  0
  3  4  2  0  0  0  0
  4  5  1  0  0  0  0
  5  6  1  0  0  0  0
  5 12  2  0  0  0  0
  6 14  1  0  0  0  0
  6 11  1  0  0  0  0
  6  7  1  0  0  0  0
  7  8  1  0  0  0  0
  7 22  1  0  0  0  0
  7 23  1  0  0  0  0
  8 15  1  0  0  0  0
  8  9  1  0  0  0  0
  8 10  1  0  0  0  0
  9 24  1  0  0  0  0
 10 11  1  0  0  0  0
 10 25  1  0  0  0  0
 10 26  1  0  0  0  0
 11 27  1  0  0  0  0
 12 13  1  0  0  0  0
 13 16  1  0  0  0  0
M  END
> <s_m_source_file>
AV-unprocessed.smi

> <i_m_source_file_index>
49

> <i_lp_mmshare_version>
43012

> <i_f3d_flags>
0

> <s_epik_input>
W0NIM11bQ0gyXWMxbmMobltuSF0xKVtDQEBIXTJbQ0gyXVtDQEBIXShbT0hdKVtDSDJdW05IXTI=

> <s_epik_cmdline>
J2VwaWtfcHl0aG9uJywgJy1waCcsICc3LjAnLCAnLXRuJywgJzgnLCAnLW1hJywgJzIwMCcsICctbWV0YWxfYmluZGluZycsICctaW1hZScsICc8aW5maWxlLm1hZT4nLCAnLW9tYWUnLCAnPG91dGZpbGUubWFlPic=

> <r_lp_tautomer_probability>
0.948284

> <r_epik_Ionization_Penalty>
1.6657

> <r_epik_Ionization_Penalty_Charging>
0

> <r_epik_Ionization_Penalty_Neutral>
1.6657

> <r_epik_State_Penalty>
2.01417

> <r_epik_Charging_Adjusted_Penalty>
2.01417

> <i_epik_Tot_Q>
0

> <i_epik_Tot_abs_Q>
0

> <r_epik_Metal_State_Penalty>
2.28256

> <b_epik_Metal_Only>
0

> <s_lp_Force_Field>
OPLS_2005

> <r_lp_Energy>
18.9273

> <b_lp_Chiralities_Consistent>
1

> <s_lp_Variant>
AV-unprocessed.smi:49-10

> <Gold.Version>
5.8.1

> <Gold.Id.Protein>
6NUR|6NUR_protein|mol2

> <Gold.PLP.Fitness>
34.4242

> <Gold.PLP.PLP>
-28.4755

> <Gold.PLP.part.hbond>
-2.8553

> <Gold.PLP.part.metal>
0.0000

> <Gold.PLP.part.buried>
-4.0889

> <Gold.PLP.part.nonpolar>
-21.9752

> <Gold.PLP.part.repulsive>
0.0994

> <Gold.PLP.ligand.clash>
0.0000

> <Gold.PLP.ligand.torsion>
0.0180

> <Gold.PLP.Chemscore.Hbond>
1.9888

> <Gold.PLP.Chemscore.CHOScore>
0.0000

> <Gold.PLP.Chemscore.Metal>
0.0000

> <Gold.Chemscore.Hbonds>
donor molecule, donor type, donor heavy atom, donor atom, acceptor molecule, acceptor atom, score
      P1  H  7989  7998       L1     9  0.35

> <Gold.PLP.Chemscore.Internal.Correction>
0.0182

> <Gold.Rescore>
     Score         DG    S(hbond)    S(metal)    S(lipo)     H(rot)  DE(clash)    DE(int)     intcor
     10.22     -10.30       1.10        0.00      50.37       1.86       0.05       0.03       ----

> <Gold.Chemscore.Fitness>
10.2239

> <Gold.Chemscore.DG>
-10.2955

> <Gold.Chemscore.ZeroCoef>
-5.4800

> <Gold.Chemscore.Hbond>
1.0995

> <Gold.Chemscore.Metal>
0.0000

> <Gold.Chemscore.Lipo>
50.3744

> <Gold.Chemscore.Internal_Hbond>
0.0000

> <Gold.Chemscore.DEClash>
0.0460

> <Gold.Chemscore.DEInternal>
0.0255

> <Gold.Chemscore.Rot>
1.8558

> <Gold.Chemscore.Internal.Correction>
   9.000000E+99

> <Gold.Chemscore.Hbonds>
donor molecule, donor type, donor heavy atom, donor atom, acceptor molecule, acceptor atom, score
      P1  H  7989  7998       L1     9  0.01

> <Gold.Chemscore.Hbond.Weighted>
-3.6724

> <Gold.Chemscore.Metal.Weighted>
-0.0000

> <Gold.Chemscore.Lipo.Weighted>
-5.8938

> <Gold.Chemscore.Internal_Hbond.Weighted>
0.0000

> <Gold.Chemscore.DEClash.Weighted>
0.0460

> <Gold.Chemscore.DEInternal.Weighted>
0.0255

> <Gold.Chemscore.Rot.Weighted>
4.7507

> <Gold.Chemscore.Internal.Correction.Weighted>
   9.000000E+99

> <Gold.Protein.RotatedTorsions>
[ 6907 6896 6895 6894 ] final   -7.09 input  -60.11 | X-H torsion
[ 7974 7965 7964 7962 ] final   79.05 input  175.53 | X-H torsion
[ 8008 7997 7996 7995 ] final  -61.87 input   59.86 | X-H torsion
[ 10167 10162 10161 10158 ] final   64.64 input  -65.29 | X-H torsion
[ 10718 10713 10712 10709 ] final  -63.10 input   66.30 | X-H torsion
[ 10763 10752 10751 10750 ] final  172.32 input  -60.55 | X-H torsion
[ 11005 11000 10999 10996 ] final -133.88 input  -57.11 | X-H torsion

> <Gold.Protein.ActiveResidues>
 VAL166  LYS551  ARG553  GLY616  TRP617  ASP618  TYR619  PRO620  LYS621  CYS622 
 ASP623  PHE694  ASN695  SER759  ASP760  ASP761  ALA762  ILE779  LEU786  VAL792 
 PHE793  MET794  SER795  GLU796  ALA797  LYS798  CYS799  TRP800  GLU811  SER814 

> <Gold.Protein.RotatedAtoms>
  151.4551  135.1033  159.9708 H   0  0  0  0  0  0  0  0  0  0  0  0  # atno 6907 bound_to 6896
  152.4874  133.8404  159.7160 H   0  0  0  0  0  0  0  0  0  0  0  0  # atno 6908 bound_to 6896
  150.8995  133.7077  159.2910 H   0  0  0  0  0  0  0  0  0  0  0  0  # atno 6909 bound_to 6896
  145.6693  139.2492  143.1878 H   0  0  0  0  0  0  0  0  0  0  0  0  # atno 7974 bound_to 7965
  154.4470  140.1008  156.6498 H   0  0  0  0  0  0  0  0  0  0  0  0  # atno 8008 bound_to 7997
  155.5409  140.3483  155.4428 H   0  0  0  0  0  0  0  0  0  0  0  0  # atno 8009 bound_to 7997
  156.0597  140.1323  156.9944 H   0  0  0  0  0  0  0  0  0  0  0  0  # atno 8010 bound_to 7997
  140.1200  144.4740  150.6926 H   0  0  0  0  0  0  0  0  0  0  0  0  # atno 10167 bound_to 10162
  156.0812  130.4217  150.1229 H   0  0  0  0  0  0  0  0  0  0  0  0  # atno 10718 bound_to 10713
  154.4244  135.2758  155.1954 H   0  0  0  0  0  0  0  0  0  0  0  0  # atno 10763 bound_to 10752
  154.3887  135.6071  153.5834 H   0  0  0  0  0  0  0  0  0  0  0  0  # atno 10764 bound_to 10752
  152.9834  135.5898  154.4545 H   0  0  0  0  0  0  0  0  0  0  0  0  # atno 10765 bound_to 10752
  140.9041  134.1653  157.4439 H   0  0  0  0  0  0  0  0  0  0  0  0  # atno 11005 bound_to 11000
  146.1059  140.7487  142.9526 LP  0  0  0  0  0  0  0  0  0  0  0  0  # atno 17320 bound_to 7965
  144.7062  140.3862  143.7116 LP  0  0  0  0  0  0  0  0  0  0  0  0  # atno 17321 bound_to 7965
  140.6877  143.2359  151.5215 LP  0  0  0  0  0  0  0  0  0  0  0  0  # atno 17342 bound_to 10162
  139.5574  144.2242  152.1634 LP  0  0  0  0  0  0  0  0  0  0  0  0  # atno 17343 bound_to 10162
  156.9260  130.9698  151.3541 LP  0  0  0  0  0  0  0  0  0  0  0  0  # atno 17370 bound_to 10713
  157.5930  130.8457  149.8687 LP  0  0  0  0  0  0  0  0  0  0  0  0  # atno 17371 bound_to 10713
  139.8746  134.9910  156.5527 LP  0  0  0  0  0  0  0  0  0  0  0  0  # atno 17394 bound_to 11000
  140.8193  133.8366  155.8881 LP  0  0  0  0  0  0  0  0  0  0  0  0  # atno 17395 bound_to 11000

$$$$
