AV-unprocessed.smi:1774|AV-procd|sdf|7165|dock5
  -GOLD-   22720 8403D 1   1.00000     0.00000
 Structure written by MMmdl.
 45 46  0  0  0  0  0  0  0  0  1 V2000
  146.9400  133.1789  151.9828 C   0  0  0  0  0  0  0  0  0  0  0  0
  145.7552  132.9870  151.0500 C   0  0  0  0  0  0  0  0  0  0  0  0
  144.8567  134.0558  150.8466 C   0  0  0  0  0  0  0  0  0  0  0  0
  143.7622  133.8777  149.9834 C   0  0  0  0  0  0  0  0  0  0  0  0
  143.6117  132.6293  149.3558 C   0  0  0  0  0  0  0  0  0  0  0  0
  144.4648  131.6022  149.5446 N   0  0  0  0  0  0  0  0  0  0  0  0
  145.5266  131.7576  150.3753 C   0  0  0  0  0  0  0  0  0  0  0  0
  146.4699  130.7195  150.6187 N   0  0  0  0  0  0  0  0  0  0  0  0
  146.2980  129.5766  151.3060 C   0  0  0  0  0  0  0  0  0  0  0  0
  145.2678  129.2471  151.8947 O   0  0  0  0  0  0  0  0  0  0  0  0
  147.4053  128.8204  151.2694 N   0  0  0  0  0  0  0  0  0  0  0  0
  147.5419  127.4925  151.8605 C   0  0  0  0  0  0  0  0  0  0  0  0
  148.9614  126.9273  151.6558 C   0  0  0  0  0  0  0  0  0  0  0  0
  149.0325  125.4893  151.3999 N   0  0  0  0  0  0  0  0  0  0  0  0
  148.1780  125.0688  150.2942 C   0  0  0  0  0  0  0  0  0  0  0  0
  148.3145  123.5623  150.0115 C   0  0  2  0  0  0  0  0  0  0  0  0
  147.3601  123.0938  148.9086 C   0  0  0  0  0  0  0  0  0  0  0  0
  148.0187  122.8276  151.1985 O   0  0  0  0  0  0  0  0  0  0  0  0
  148.7810  123.1969  152.3492 C   0  0  1  0  0  0  0  0  0  0  0  0
  150.2298  122.6868  152.2617 C   0  0  0  0  0  0  0  0  0  0  0  0
  148.6845  124.7172  152.5866 C   0  0  0  0  0  0  0  0  0  0  0  0
  146.9562  134.1850  152.4028 H   0  0  0  0  0  0  0  0  0  0  0  0
  147.8770  133.0251  151.4468 H   0  0  0  0  0  0  0  0  0  0  0  0
  146.8931  132.4705  152.8103 H   0  0  0  0  0  0  0  0  0  0  0  0
  145.0018  135.0034  151.3444 H   0  0  0  0  0  0  0  0  0  0  0  0
  143.0573  134.6765  149.8070 H   0  0  0  0  0  0  0  0  0  0  0  0
  142.7853  132.4498  148.6839 H   0  0  0  0  0  0  0  0  0  0  0  0
  147.3780  130.8557  150.2004 H   0  0  0  0  0  0  0  0  0  0  0  0
  148.2046  129.1745  150.7647 H   0  0  0  0  0  0  0  0  0  0  0  0
  147.3545  127.5942  152.9294 H   0  0  0  0  0  0  0  0  0  0  0  0
  146.7746  126.8115  151.4914 H   0  0  0  0  0  0  0  0  0  0  0  0
  149.4101  127.4613  150.8169 H   0  0  0  0  0  0  0  0  0  0  0  0
  149.5750  127.1722  152.5238 H   0  0  0  0  0  0  0  0  0  0  0  0
  147.1374  125.3074  150.5203 H   0  0  0  0  0  0  0  0  0  0  0  0
  148.4314  125.6162  149.3873 H   0  0  0  0  0  0  0  0  0  0  0  0
  149.3351  123.3445  149.6953 H   0  0  0  0  0  0  0  0  0  0  0  0
  147.5547  123.6192  147.9734 H   0  0  0  0  0  0  0  0  0  0  0  0
  146.3202  123.2723  149.1838 H   0  0  0  0  0  0  0  0  0  0  0  0
  147.4771  122.0261  148.7205 H   0  0  0  0  0  0  0  0  0  0  0  0
  148.3168  122.6944  153.1982 H   0  0  0  0  0  0  0  0  0  0  0  0
  150.7647  122.8800  153.1917 H   0  0  0  0  0  0  0  0  0  0  0  0
  150.7880  123.1704  151.4601 H   0  0  0  0  0  0  0  0  0  0  0  0
  150.2530  121.6115  152.0842 H   0  0  0  0  0  0  0  0  0  0  0  0
  149.3325  124.9965  153.4183 H   0  0  0  0  0  0  0  0  0  0  0  0
  147.6670  124.9644  152.8942 H   0  0  0  0  0  0  0  0  0  0  0  0
  1  2  1  0  0  0  0
  1 22  1  0  0  0  0
  1 23  1  0  0  0  0
  1 24  1  0  0  0  0
  2  7  1  0  0  0  0
  2  3  2  0  0  0  0
  3  4  1  0  0  0  0
  3 25  1  0  0  0  0
  4  5  2  0  0  0  0
  4 26  1  0  0  0  0
  5  6  1  0  0  0  0
  5 27  1  0  0  0  0
  6  7  2  0  0  0  0
  7  8  1  0  0  0  0
  8  9  1  0  0  0  0
  8 28  1  0  0  0  0
  9 10  2  0  0  0  0
  9 11  1  0  0  0  0
 11 12  1  0  0  0  0
 11 29  1  0  0  0  0
 12 13  1  0  0  0  0
 12 30  1  0  0  0  0
 12 31  1  0  0  0  0
 13 14  1  0  0  0  0
 13 32  1  0  0  0  0
 13 33  1  0  0  0  0
 14 21  1  0  0  0  0
 14 15  1  0  0  0  0
 15 16  1  0  0  0  0
 15 34  1  0  0  0  0
 15 35  1  0  0  0  0
 16 17  1  0  0  0  0
 16 18  1  0  0  0  0
 16 36  1  0  0  0  0
 17 37  1  0  0  0  0
 17 38  1  0  0  0  0
 17 39  1  0  0  0  0
 18 19  1  0  0  0  0
 19 20  1  0  0  0  0
 19 21  1  0  0  0  0
 19 40  1  0  0  0  0
 20 41  1  0  0  0  0
 20 42  1  0  0  0  0
 20 43  1  0  0  0  0
 21 44  1  0  0  0  0
 21 45  1  0  0  0  0
M  END
> <s_m_source_file>
AV-unprocessed.smi

> <i_m_source_file_index>
1774

> <i_lp_mmshare_version>
43012

> <i_f3d_flags>
0

> <s_epik_input>
W0NIM11jMVtjSF1bY0hdW2NIXW5jMVtOSF1DKD1PKVtOSF1bQ0gyXVtDSDJdTjJbQ0gyXVtDQEBIXShbQ0gzXSlPW0NAQEhdKFtDSDNdKVtDSDJdMg==

> <s_epik_cmdline>
J2VwaWtfcHl0aG9uJywgJy1waCcsICc3LjAnLCAnLXRuJywgJzgnLCAnLW1hJywgJzIwMCcsICctbWV0YWxfYmluZGluZycsICctaW1hZScsICc8aW5maWxlLm1hZT4nLCAnLW9tYWUnLCAnPG91dGZpbGUubWFlPic=

> <r_epik_Ionization_Penalty>
0.266047

> <r_epik_Ionization_Penalty_Charging>
0

> <r_epik_Ionization_Penalty_Neutral>
0.266047

> <r_epik_State_Penalty>
0.257924

> <r_epik_Charging_Adjusted_Penalty>
0.257924

> <i_epik_Tot_Q>
0

> <i_epik_Tot_abs_Q>
0

> <r_epik_Metal_State_Penalty>
0.257922

> <b_epik_Metal_Only>
0

> <s_lp_Force_Field>
OPLS_2005

> <r_lp_Energy>
29.5878

> <b_lp_Chiralities_Consistent>
1

> <s_lp_Variant>
AV-unprocessed.smi:1774-2

> <Gold.Version>
5.8.1

> <Gold.Id.Protein>
6NUR|6NUR_protein|mol2

> <Gold.PLP.Fitness>
42.7756

> <Gold.PLP.PLP>
-37.1663

> <Gold.PLP.part.hbond>
-2.6809

> <Gold.PLP.part.metal>
0.0000

> <Gold.PLP.part.buried>
-4.7913

> <Gold.PLP.part.nonpolar>
-31.3813

> <Gold.PLP.part.repulsive>
0.6184

> <Gold.PLP.ligand.clash>
0.0000

> <Gold.PLP.ligand.torsion>
0.9568

> <Gold.PLP.Chemscore.Hbond>
1.7996

> <Gold.PLP.Chemscore.CHOScore>
0.7022

> <Gold.PLP.Chemscore.Metal>
0.0000

> <Gold.Chemscore.Hbonds>
donor molecule, donor type, donor heavy atom, donor atom, acceptor molecule, acceptor atom, score
      L1  H     8    28       P1 10747  1.00
      L1  H    11    29       P1 10747  0.69
      P1  H 10785 10796       L1     6  0.33
      L1  C     5    27       P1 10186  0.16

> <Gold.PLP.Chemscore.Internal.Correction>
0.0177

> <Gold.Rescore>
     Score         DG    S(hbond)    S(metal)    S(lipo)     H(rot)  DE(clash)    DE(int)     intcor
     14.69     -17.16       1.64        0.00      84.79       1.46       1.48       0.99       ----

> <Gold.Chemscore.Fitness>
14.6877

> <Gold.Chemscore.DG>
-17.1583

> <Gold.Chemscore.ZeroCoef>
-5.4800

> <Gold.Chemscore.Hbond>
1.6425

> <Gold.Chemscore.Metal>
0.0000

> <Gold.Chemscore.Lipo>
84.7877

> <Gold.Chemscore.Internal_Hbond>
0.0000

> <Gold.Chemscore.DEClash>
1.4810

> <Gold.Chemscore.DEInternal>
0.9896

> <Gold.Chemscore.Rot>
1.4562

> <Gold.Chemscore.Internal.Correction>
   9.000000E+99

> <Gold.Chemscore.Hbonds>
donor molecule, donor type, donor heavy atom, donor atom, acceptor molecule, acceptor atom, score
      L1  H     8    28       P1 10747  0.95
      L1  H    11    29       P1 10747  0.12
      P1  H 10785 10796       L1     6  0.05

> <Gold.Chemscore.Hbond.Weighted>
-5.4860

> <Gold.Chemscore.Metal.Weighted>
-0.0000

> <Gold.Chemscore.Lipo.Weighted>
-9.9202

> <Gold.Chemscore.Internal_Hbond.Weighted>
0.0000

> <Gold.Chemscore.DEClash.Weighted>
1.4810

> <Gold.Chemscore.DEInternal.Weighted>
0.9896

> <Gold.Chemscore.Rot.Weighted>
3.7278

> <Gold.Chemscore.Internal.Correction.Weighted>
   9.000000E+99

> <Gold.Protein.RotatedTorsions>
[ 6907 6896 6895 6894 ] final -178.93 input  -60.11 | X-H torsion
[ 7974 7965 7964 7962 ] final -175.36 input  175.53 | X-H torsion
[ 8008 7997 7996 7995 ] final  -22.33 input   59.86 | X-H torsion
[ 10167 10162 10161 10158 ] final  -93.37 input  -65.29 | X-H torsion
[ 10718 10713 10712 10709 ] final -151.30 input   66.30 | X-H torsion
[ 10763 10752 10751 10750 ] final  -22.44 input  -60.55 | X-H torsion
[ 11005 11000 10999 10996 ] final -168.29 input  -57.11 | X-H torsion

> <Gold.Protein.ActiveResidues>
 VAL166  LYS551  ARG553  GLY616  TRP617  ASP618  TYR619  PRO620  LYS621  CYS622 
 ASP623  PHE694  ASN695  SER759  ASP760  ASP761  ALA762  ILE779  LEU786  VAL792 
 PHE793  MET794  SER795  GLU796  ALA797  LYS798  CYS799  TRP800  GLU811  SER814 

> <Gold.Protein.RotatedAtoms>
  151.6453  133.3324  159.3139 H   0  0  0  0  0  0  0  0  0  0  0  0  # atno 6907 bound_to 6896
  150.7987  134.7070  159.6591 H   0  0  0  0  0  0  0  0  0  0  0  0  # atno 6908 bound_to 6896
  152.4077  134.6182  160.0095 H   0  0  0  0  0  0  0  0  0  0  0  0  # atno 6909 bound_to 6896
  144.7128  140.1332  143.6397 H   0  0  0  0  0  0  0  0  0  0  0  0  # atno 7974 bound_to 7965
  154.4651  140.2010  156.0141 H   0  0  0  0  0  0  0  0  0  0  0  0  # atno 8008 bound_to 7997
  156.0911  140.3258  155.7788 H   0  0  0  0  0  0  0  0  0  0  0  0  # atno 8009 bound_to 7997
  155.4954  140.0549  157.2938 H   0  0  0  0  0  0  0  0  0  0  0  0  # atno 8010 bound_to 7997
  140.3253  143.3026  152.0002 H   0  0  0  0  0  0  0  0  0  0  0  0  # atno 10167 bound_to 10162
  156.4574  130.8197  151.2428 H   0  0  0  0  0  0  0  0  0  0  0  0  # atno 10718 bound_to 10713
  153.6520  135.6980  153.5205 H   0  0  0  0  0  0  0  0  0  0  0  0  # atno 10763 bound_to 10752
  153.2699  135.4218  155.0976 H   0  0  0  0  0  0  0  0  0  0  0  0  # atno 10764 bound_to 10752
  154.8474  135.3576  154.6065 H   0  0  0  0  0  0  0  0  0  0  0  0  # atno 10765 bound_to 10752
  140.5436  134.5498  157.5106 H   0  0  0  0  0  0  0  0  0  0  0  0  # atno 11005 bound_to 11000
  145.9268  139.2580  143.1349 LP  0  0  0  0  0  0  0  0  0  0  0  0  # atno 17320 bound_to 7965
  145.9564  140.8869  143.0233 LP  0  0  0  0  0  0  0  0  0  0  0  0  # atno 17321 bound_to 7965
  139.4866  144.6278  151.7129 LP  0  0  0  0  0  0  0  0  0  0  0  0  # atno 17342 bound_to 10162
  140.5447  144.0523  150.6102 LP  0  0  0  0  0  0  0  0  0  0  0  0  # atno 17343 bound_to 10162
  157.7500  131.0118  150.3360 LP  0  0  0  0  0  0  0  0  0  0  0  0  # atno 17370 bound_to 10713
  156.3752  130.3870  149.7144 LP  0  0  0  0  0  0  0  0  0  0  0  0  # atno 17371 bound_to 10713
  139.9491  134.7649  156.0491 LP  0  0  0  0  0  0  0  0  0  0  0  0  # atno 17394 bound_to 11000
  141.1213  133.6612  156.3221 LP  0  0  0  0  0  0  0  0  0  0  0  0  # atno 17395 bound_to 11000

$$$$
