AV-unprocessed.smi:3349|AV-procd|sdf|12933|dock3
  -GOLD-   2272019363D 1   1.00000     0.00000
 Structure written by MMmdl.
 40 41  0  0  0  0  0  0  0  0  1 V2000
  153.2660  142.1659  161.9563 C   0  0  0  0  0  0  0  0  0  0  0  0
  152.4684  141.7508  160.6923 C   0  0  2  0  0  0  0  0  0  0  0  0
  153.3563  140.8177  159.8233 C   0  0  0  0  0  0  0  0  0  0  0  0
  152.5938  139.7210  159.2385 N   0  0  0  0  0  0  0  0  0  0  0  0
  151.5424  139.8653  158.4178 C   0  0  0  0  0  0  0  0  0  0  0  0
  151.0741  140.9637  158.1165 O   0  0  0  0  0  0  0  0  0  0  0  0
  150.9364  138.5660  157.8590 C   0  0  1  0  0  0  0  0  0  0  0  0
  149.5545  138.2354  158.4593 C   0  0  0  0  0  0  0  0  0  0  0  0
  150.9002  138.6064  156.4013 N   0  0  0  0  0  0  0  0  0  0  0  0
  151.1706  139.6099  155.5635 C   0  0  0  0  0  0  0  0  0  0  0  0
  150.9844  139.3103  154.2857 N   0  0  0  0  0  0  0  0  0  0  0  0
  150.5621  138.0177  154.4140 C   0  0  0  0  0  0  0  0  0  0  0  0
  150.4849  137.5493  155.6595 N   0  0  0  0  0  0  0  0  0  0  0  0
  151.9344  142.9138  159.9457 N   0  0  0  0  0  0  0  0  0  0  0  0
  151.5641  144.0316  160.8219 C   0  0  0  0  0  0  0  0  0  0  0  0
  151.0395  145.2523  160.0458 C   0  0  0  0  0  0  0  0  0  0  0  0
  152.0118  145.6737  159.0995 O   0  0  0  0  0  0  0  0  0  0  0  0
  152.3402  144.6428  158.1789 C   0  0  0  0  0  0  0  0  0  0  0  0
  152.8778  143.4197  158.9418 C   0  0  0  0  0  0  0  0  0  0  0  0
  153.7010  141.3137  162.4777 H   0  0  0  0  0  0  0  0  0  0  0  0
  152.6393  142.6591  162.6981 H   0  0  0  0  0  0  0  0  0  0  0  0
  154.0824  142.8423  161.7015 H   0  0  0  0  0  0  0  0  0  0  0  0
  151.6206  141.1542  161.0334 H   0  0  0  0  0  0  0  0  0  0  0  0
  153.7990  141.3480  158.9818 H   0  0  0  0  0  0  0  0  0  0  0  0
  154.1781  140.4267  160.4262 H   0  0  0  0  0  0  0  0  0  0  0  0
  152.9132  138.7853  159.4424 H   0  0  0  0  0  0  0  0  0  0  0  0
  151.6129  137.7572  158.1396 H   0  0  0  0  0  0  0  0  0  0  0  0
  149.6110  138.1300  159.5433 H   0  0  0  0  0  0  0  0  0  0  0  0
  149.1736  137.2947  158.0609 H   0  0  0  0  0  0  0  0  0  0  0  0
  148.8173  139.0091  158.2399 H   0  0  0  0  0  0  0  0  0  0  0  0
  151.5036  140.5824  155.8956 H   0  0  0  0  0  0  0  0  0  0  0  0
  150.2982  137.4051  153.5644 H   0  0  0  0  0  0  0  0  0  0  0  0
  150.7763  143.7361  161.5119 H   0  0  0  0  0  0  0  0  0  0  0  0
  152.4227  144.3286  161.4262 H   0  0  0  0  0  0  0  0  0  0  0  0
  150.1041  145.0137  159.5368 H   0  0  0  0  0  0  0  0  0  0  0  0
  150.8302  146.0745  160.7303 H   0  0  0  0  0  0  0  0  0  0  0  0
  151.4617  144.3757  157.5894 H   0  0  0  0  0  0  0  0  0  0  0  0
  153.0919  145.0145  157.4825 H   0  0  0  0  0  0  0  0  0  0  0  0
  153.8233  143.6794  159.4204 H   0  0  0  0  0  0  0  0  0  0  0  0
  153.0975  142.6539  158.2001 H   0  0  0  0  0  0  0  0  0  0  0  0
  1  2  1  0  0  0  0
  1 20  1  0  0  0  0
  1 21  1  0  0  0  0
  1 22  1  0  0  0  0
  2  3  1  0  0  0  0
  2 14  1  0  0  0  0
  2 23  1  0  0  0  0
  3  4  1  0  0  0  0
  3 24  1  0  0  0  0
  3 25  1  0  0  0  0
  4  5  1  0  0  0  0
  4 26  1  0  0  0  0
  5  6  2  0  0  0  0
  5  7  1  0  0  0  0
  7  8  1  0  0  0  0
  7  9  1  0  0  0  0
  7 27  1  0  0  0  0
  8 28  1  0  0  0  0
  8 29  1  0  0  0  0
  8 30  1  0  0  0  0
  9 13  1  0  0  0  0
  9 10  1  0  0  0  0
 10 11  2  0  0  0  0
 10 31  1  0  0  0  0
 11 12  1  0  0  0  0
 12 13  2  0  0  0  0
 12 32  1  0  0  0  0
 14 19  1  0  0  0  0
 14 15  1  0  0  0  0
 15 16  1  0  0  0  0
 15 33  1  0  0  0  0
 15 34  1  0  0  0  0
 16 17  1  0  0  0  0
 16 35  1  0  0  0  0
 16 36  1  0  0  0  0
 17 18  1  0  0  0  0
 18 19  1  0  0  0  0
 18 37  1  0  0  0  0
 18 38  1  0  0  0  0
 19 39  1  0  0  0  0
 19 40  1  0  0  0  0
M  END
> <s_m_source_file>
AV-unprocessed.smi

> <i_m_source_file_index>
3349

> <i_lp_mmshare_version>
43012

> <i_f3d_flags>
0

> <s_epik_input>
W0NIMl0xW0NIMl1PW0NIMl1bQ0gyXU4xW0NASF0oW0NIM10pW0NIMl1bTkhdQyg9TylbQ0BIXShbQ0gzXSluMltjSF1uW2NIXW4y

> <s_epik_cmdline>
J2VwaWtfcHl0aG9uJywgJy1waCcsICc3LjAnLCAnLXRuJywgJzgnLCAnLW1hJywgJzIwMCcsICctbWV0YWxfYmluZGluZycsICctaW1hZScsICc8aW5maWxlLm1hZT4nLCAnLW9tYWUnLCAnPG91dGZpbGUubWFlPic=

> <r_lp_tautomer_probability>
1

> <r_epik_Ionization_Penalty>
0.211373

> <r_epik_Ionization_Penalty_Charging>
0

> <r_epik_Ionization_Penalty_Neutral>
0.211373

> <r_epik_State_Penalty>
0.201459

> <r_epik_Charging_Adjusted_Penalty>
0.201459

> <i_epik_Tot_Q>
0

> <i_epik_Tot_abs_Q>
0

> <r_epik_Metal_State_Penalty>
0.201458

> <b_epik_Metal_Only>
0

> <s_lp_Force_Field>
OPLS_2005

> <r_lp_Energy>
35.2026

> <b_lp_Chiralities_Consistent>
1

> <s_lp_Variant>
AV-unprocessed.smi:3349-3

> <Gold.Version>
5.8.1

> <Gold.Id.Protein>
6NUR|6NUR_protein|mol2

> <Gold.PLP.Fitness>
44.8955

> <Gold.PLP.PLP>
-40.9919

> <Gold.PLP.part.hbond>
-2.0000

> <Gold.PLP.part.metal>
0.0000

> <Gold.PLP.part.buried>
-5.5216

> <Gold.PLP.part.nonpolar>
-34.7269

> <Gold.PLP.part.repulsive>
0.3885

> <Gold.PLP.ligand.clash>
0.0000

> <Gold.PLP.ligand.torsion>
1.2630

> <Gold.PLP.Chemscore.Hbond>
1.0000

> <Gold.PLP.Chemscore.CHOScore>
1.0921

> <Gold.PLP.Chemscore.Metal>
0.0000

> <Gold.Chemscore.Hbonds>
donor molecule, donor type, donor heavy atom, donor atom, acceptor molecule, acceptor atom, score
      P1  H  7989  7998       L1    11  1.00
      L1  C    12    32       P1  7948  0.89
      L1  C    12    32       P1  7949  0.23

> <Gold.PLP.Chemscore.Internal.Correction>
0.1534

> <Gold.Rescore>
     Score         DG    S(hbond)    S(metal)    S(lipo)     H(rot)  DE(clash)    DE(int)     intcor
      7.58     -12.39       0.95        0.00      87.87       2.56       0.01       4.80       ----

> <Gold.Chemscore.Fitness>
7.5778

> <Gold.Chemscore.DG>
-12.3869

> <Gold.Chemscore.ZeroCoef>
-5.4800

> <Gold.Chemscore.Hbond>
0.9498

> <Gold.Chemscore.Metal>
0.0000

> <Gold.Chemscore.Lipo>
87.8666

> <Gold.Chemscore.Internal_Hbond>
0.0000

> <Gold.Chemscore.DEClash>
0.0076

> <Gold.Chemscore.DEInternal>
4.8015

> <Gold.Chemscore.Rot>
2.5570

> <Gold.Chemscore.Internal.Correction>
   9.000000E+99

> <Gold.Chemscore.Hbonds>
donor molecule, donor type, donor heavy atom, donor atom, acceptor molecule, acceptor atom, score
      P1  H  7989  7998       L1    11  0.30

> <Gold.Chemscore.Hbond.Weighted>
-3.1724

> <Gold.Chemscore.Metal.Weighted>
-0.0000

> <Gold.Chemscore.Lipo.Weighted>
-10.2804

> <Gold.Chemscore.Internal_Hbond.Weighted>
0.0000

> <Gold.Chemscore.DEClash.Weighted>
0.0076

> <Gold.Chemscore.DEInternal.Weighted>
4.8015

> <Gold.Chemscore.Rot.Weighted>
6.5459

> <Gold.Chemscore.Internal.Correction.Weighted>
   9.000000E+99

> <Gold.Protein.RotatedTorsions>
[ 6907 6896 6895 6894 ] final  144.12 input  -60.11 | X-H torsion
[ 7974 7965 7964 7962 ] final    3.45 input  175.53 | X-H torsion
[ 8008 7997 7996 7995 ] final  173.93 input   59.86 | X-H torsion
[ 10167 10162 10161 10158 ] final  146.75 input  -65.29 | X-H torsion
[ 10718 10713 10712 10709 ] final   41.53 input   66.30 | X-H torsion
[ 10763 10752 10751 10750 ] final   -9.92 input  -60.55 | X-H torsion
[ 11005 11000 10999 10996 ] final  108.96 input  -57.11 | X-H torsion

> <Gold.Protein.ActiveResidues>
 VAL166  LYS551  ARG553  GLY616  TRP617  ASP618  TYR619  PRO620  LYS621  CYS622 
 ASP623  PHE694  ASN695  SER759  ASP760  ASP761  ALA762  ILE779  LEU786  VAL792 
 PHE793  MET794  SER795  GLU796  ALA797  LYS798  CYS799  TRP800  GLU811  SER814 

> <Gold.Protein.RotatedAtoms>
  152.1977  133.4818  159.5041 H   0  0  0  0  0  0  0  0  0  0  0  0  # atno 6907 bound_to 6896
  150.6963  134.1631  159.4193 H   0  0  0  0  0  0  0  0  0  0  0  0  # atno 6908 bound_to 6896
  151.9548  135.0152  160.0595 H   0  0  0  0  0  0  0  0  0  0  0  0  # atno 6909 bound_to 6896
  146.2445  140.0684  142.8364 H   0  0  0  0  0  0  0  0  0  0  0  0  # atno 7974 bound_to 7965
  156.1025  140.1447  156.9448 H   0  0  0  0  0  0  0  0  0  0  0  0  # atno 8008 bound_to 7997
  154.4712  140.0909  156.7194 H   0  0  0  0  0  0  0  0  0  0  0  0  # atno 8009 bound_to 7997
  155.4735  140.3442  155.4331 H   0  0  0  0  0  0  0  0  0  0  0  0  # atno 8010 bound_to 7997
  139.4902  144.5807  151.6878 H   0  0  0  0  0  0  0  0  0  0  0  0  # atno 10167 bound_to 10162
  157.3946  130.7826  149.7298 H   0  0  0  0  0  0  0  0  0  0  0  0  # atno 10718 bound_to 10713
  153.4617  135.7016  153.6046 H   0  0  0  0  0  0  0  0  0  0  0  0  # atno 10763 bound_to 10752
  153.4338  135.3796  155.2187 H   0  0  0  0  0  0  0  0  0  0  0  0  # atno 10764 bound_to 10752
  154.8727  135.3957  154.4043 H   0  0  0  0  0  0  0  0  0  0  0  0  # atno 10765 bound_to 10752
  139.8853  134.9445  156.6052 H   0  0  0  0  0  0  0  0  0  0  0  0  # atno 11005 bound_to 11000
  145.0838  140.9239  143.4810 LP  0  0  0  0  0  0  0  0  0  0  0  0  # atno 17320 bound_to 7965
  145.0842  139.2937  143.5768 LP  0  0  0  0  0  0  0  0  0  0  0  0  # atno 17321 bound_to 7965
  140.5412  144.0576  150.6089 LP  0  0  0  0  0  0  0  0  0  0  0  0  # atno 17342 bound_to 10162
  140.3599  143.2914  152.0395 LP  0  0  0  0  0  0  0  0  0  0  0  0  # atno 17343 bound_to 10162
  155.9807  130.4027  150.3513 LP  0  0  0  0  0  0  0  0  0  0  0  0  # atno 17370 bound_to 10713
  157.1633  131.0350  151.2830 LP  0  0  0  0  0  0  0  0  0  0  0  0  # atno 17371 bound_to 10713
  140.7853  133.8626  155.8601 LP  0  0  0  0  0  0  0  0  0  0  0  0  # atno 17394 bound_to 11000
  140.9725  134.1513  157.4564 LP  0  0  0  0  0  0  0  0  0  0  0  0  # atno 17395 bound_to 11000

$$$$
