AV-unprocessed.smi:232|AV-procd|sdf|1782|dock10
  -GOLD-   2262020333D 1   1.00000     0.00000
 Structure written by MMmdl.
 52 55  0  0  0  0  0  0  0  0  1 V2000
  150.3097  133.1405  155.2597 C   0  0  0  0  0  0  0  0  0  0  0  0
  150.7319  134.5168  155.7885 C   0  0  0  0  0  0  0  0  0  0  0  0
  149.6428  135.1953  156.6480 C   0  0  1  0  0  0  0  0  0  0  0  0
  149.2461  134.3713  157.8886 C   0  0  0  0  0  0  0  0  0  0  0  0
  149.2820  135.3519  159.0667 C   0  0  0  0  0  0  0  0  0  0  0  0
  149.3475  136.7371  158.4217 C   0  0  2  0  0  0  0  0  0  0  0  0
  147.9404  137.3343  158.2096 C   0  0  0  0  0  0  0  0  0  0  0  0
  150.0623  136.4947  157.1730 N   0  0  0  0  0  0  0  0  0  0  0  0
  150.2455  137.5618  156.3501 C   0  0  0  0  0  0  0  0  0  0  0  0
  149.9591  137.4567  155.0247 N   0  0  0  0  0  0  0  0  0  0  0  0
  150.1094  138.5076  154.2139 C   0  0  0  0  0  0  0  0  0  0  0  0
  150.5189  139.7409  154.5148 N   0  0  0  0  0  0  0  0  0  0  0  0
  150.8092  139.8543  155.8423 C   0  0  0  0  0  0  0  0  0  0  0  0
  150.7068  138.8240  156.8196 C   0  0  0  0  0  0  0  0  0  0  0  0
  151.1029  139.3105  158.0599 N   0  0  0  0  0  0  0  0  0  0  0  0
  151.4068  140.5586  157.8324 C   0  0  0  0  0  0  0  0  0  0  0  0
  151.2356  140.9761  156.5320 N   0  0  0  0  0  0  0  0  0  0  0  0
  151.4852  142.3074  156.0073 C   0  0  0  0  0  0  0  0  0  0  0  0
  150.7190  143.4223  156.7564 C   0  0  1  0  0  0  0  0  0  0  0  0
  149.5305  142.8195  157.2265 O   0  0  0  0  0  0  0  0  0  0  0  0
  151.4436  144.0232  157.9843 C   0  0  1  0  0  0  0  0  0  0  0  0
  150.7795  145.2391  158.6369 C   0  0  0  0  0  0  0  0  0  0  0  0
  151.2648  145.1975  160.0759 C   0  0  0  0  0  0  0  0  0  0  0  0
  151.7832  143.7693  160.2463 C   0  0  0  0  0  0  0  0  0  0  0  0
  151.3940  143.0946  159.0587 O   0  0  0  0  0  0  0  0  0  0  0  0
  151.0891  132.7139  154.6282 H   0  0  0  0  0  0  0  0  0  0  0  0
  149.4006  133.2124  154.6624 H   0  0  0  0  0  0  0  0  0  0  0  0
  150.1231  132.4384  156.0724 H   0  0  0  0  0  0  0  0  0  0  0  0
  151.6522  134.4214  156.3662 H   0  0  0  0  0  0  0  0  0  0  0  0
  150.9814  135.1421  154.9321 H   0  0  0  0  0  0  0  0  0  0  0  0
  148.7505  135.3458  156.0384 H   0  0  0  0  0  0  0  0  0  0  0  0
  148.2471  133.9542  157.7579 H   0  0  0  0  0  0  0  0  0  0  0  0
  149.9258  133.5385  158.0728 H   0  0  0  0  0  0  0  0  0  0  0  0
  148.4372  135.2314  159.7457 H   0  0  0  0  0  0  0  0  0  0  0  0
  150.1911  135.1818  159.6454 H   0  0  0  0  0  0  0  0  0  0  0  0
  149.9217  137.3993  159.0690 H   0  0  0  0  0  0  0  0  0  0  0  0
  147.4194  137.4438  159.1609 H   0  0  0  0  0  0  0  0  0  0  0  0
  147.3246  136.7046  157.5667 H   0  0  0  0  0  0  0  0  0  0  0  0
  147.9910  138.3246  157.7561 H   0  0  0  0  0  0  0  0  0  0  0  0
  149.8603  138.3367  153.1773 H   0  0  0  0  0  0  0  0  0  0  0  0
  151.7550  141.2163  158.6157 H   0  0  0  0  0  0  0  0  0  0  0  0
  152.5599  142.4801  156.0803 H   0  0  0  0  0  0  0  0  0  0  0  0
  151.2416  142.3282  154.9444 H   0  0  0  0  0  0  0  0  0  0  0  0
  150.4437  144.2151  156.0599 H   0  0  0  0  0  0  0  0  0  0  0  0
  148.7955  143.2358  156.8029 H   0  0  0  0  0  0  0  0  0  0  0  0
  152.4838  144.2569  157.7482 H   0  0  0  0  0  0  0  0  0  0  0  0
  151.0372  146.1766  158.1452 H   0  0  0  0  0  0  0  0  0  0  0  0
  149.6941  145.1320  158.6213 H   0  0  0  0  0  0  0  0  0  0  0  0
  152.0650  145.9182  160.2469 H   0  0  0  0  0  0  0  0  0  0  0  0
  150.4541  145.4228  160.7697 H   0  0  0  0  0  0  0  0  0  0  0  0
  152.8711  143.7615  160.3272 H   0  0  0  0  0  0  0  0  0  0  0  0
  151.3714  143.2765  161.1273 H   0  0  0  0  0  0  0  0  0  0  0  0
  1  2  1  0  0  0  0
  1 26  1  0  0  0  0
  1 27  1  0  0  0  0
  1 28  1  0  0  0  0
  2  3  1  0  0  0  0
  2 29  1  0  0  0  0
  2 30  1  0  0  0  0
  3  8  1  0  0  0  0
  3  4  1  0  0  0  0
  3 31  1  0  0  0  0
  4  5  1  0  0  0  0
  4 32  1  0  0  0  0
  4 33  1  0  0  0  0
  5  6  1  0  0  0  0
  5 34  1  0  0  0  0
  5 35  1  0  0  0  0
  6  7  1  0  0  0  0
  6  8  1  0  0  0  0
  6 36  1  0  0  0  0
  7 37  1  0  0  0  0
  7 38  1  0  0  0  0
  7 39  1  0  0  0  0
  8  9  1  0  0  0  0
  9 14  1  0  0  0  0
  9 10  2  0  0  0  0
 10 11  1  0  0  0  0
 11 12  2  0  0  0  0
 11 40  1  0  0  0  0
 12 13  1  0  0  0  0
 13 17  1  0  0  0  0
 13 14  2  0  0  0  0
 14 15  1  0  0  0  0
 15 16  2  0  0  0  0
 16 17  1  0  0  0  0
 16 41  1  0  0  0  0
 17 18  1  0  0  0  0
 18 19  1  0  0  0  0
 18 42  1  0  0  0  0
 18 43  1  0  0  0  0
 19 20  1  0  0  0  0
 19 21  1  0  0  0  0
 19 44  1  0  0  0  0
 20 45  1  0  0  0  0
 21 25  1  0  0  0  0
 21 22  1  0  0  0  0
 21 46  1  0  0  0  0
 22 23  1  0  0  0  0
 22 47  1  0  0  0  0
 22 48  1  0  0  0  0
 23 24  1  0  0  0  0
 23 49  1  0  0  0  0
 23 50  1  0  0  0  0
 24 25  1  0  0  0  0
 24 51  1  0  0  0  0
 24 52  1  0  0  0  0
M  END
> <s_m_source_file>
AV-unprocessed.smi

> <i_m_source_file_index>
232

> <i_lp_mmshare_version>
43012

> <i_f3d_flags>
0

> <s_epik_input>
W0NIM11bQ0gyXVtDQEBIXTFbQ0gyXVtDSDJdW0NAQEhdKFtDSDNdKU4xYyhuW2NIXW4yKWMoYzIzKW5bY0hdbjNbQ0gyXVtDQEhdKFtPSF0pW0NAQEhdNFtDSDJdW0NIMl1bQ0gyXU80

> <s_epik_cmdline>
J2VwaWtfcHl0aG9uJywgJy1waCcsICc3LjAnLCAnLXRuJywgJzgnLCAnLW1hJywgJzIwMCcsICctbWV0YWxfYmluZGluZycsICctaW1hZScsICc8aW5maWxlLm1hZT4nLCAnLW9tYWUnLCAnPG91dGZpbGUubWFlPic=

> <r_lp_tautomer_probability>
1

> <r_epik_Ionization_Penalty>
0.00258048

> <r_epik_Ionization_Penalty_Charging>
0

> <r_epik_Ionization_Penalty_Neutral>
0.00258048

> <r_epik_State_Penalty>
0.00168551

> <r_epik_Charging_Adjusted_Penalty>
0.00168551

> <i_epik_Tot_Q>
0

> <i_epik_Tot_abs_Q>
0

> <r_epik_Metal_State_Penalty>
-0

> <b_epik_Metal_Only>
0

> <s_lp_Force_Field>
OPLS_2005

> <r_lp_Energy>
55.4366

> <b_lp_Chiralities_Consistent>
1

> <s_lp_Variant>
AV-unprocessed.smi:232-16

> <Gold.Version>
5.8.1

> <Gold.Id.Protein>
6NUR|6NUR_protein|mol2

> <Gold.PLP.Fitness>
42.5561

> <Gold.PLP.PLP>
-32.7210

> <Gold.PLP.part.hbond>
-2.0000

> <Gold.PLP.part.metal>
0.0000

> <Gold.PLP.part.buried>
-6.6392

> <Gold.PLP.part.nonpolar>
-24.0484

> <Gold.PLP.part.repulsive>
0.2605

> <Gold.PLP.ligand.clash>
0.0023

> <Gold.PLP.ligand.torsion>
0.6962

> <Gold.PLP.Chemscore.Hbond>
1.9920

> <Gold.PLP.Chemscore.CHOScore>
1.6489

> <Gold.PLP.Chemscore.Metal>
0.0000

> <Gold.Chemscore.Hbonds>
donor molecule, donor type, donor heavy atom, donor atom, acceptor molecule, acceptor atom, score
      L1  H    20    45       P1  8028  0.53
      P1  H  7989  7998       L1    12  1.00
      L1  C    11    40       P1  7948  0.83
      L1  C    11    40       P1  7957  0.74

> <Gold.PLP.Chemscore.Internal.Correction>
0.3073

> <Gold.Rescore>
     Score         DG    S(hbond)    S(metal)    S(lipo)     H(rot)  DE(clash)    DE(int)     intcor
     12.01     -16.04       1.84        0.00      90.77       2.43       2.37       1.66       ----

> <Gold.Chemscore.Fitness>
12.0050

> <Gold.Chemscore.DG>
-16.0377

> <Gold.Chemscore.ZeroCoef>
-5.4800

> <Gold.Chemscore.Hbond>
1.8410

> <Gold.Chemscore.Metal>
0.0000

> <Gold.Chemscore.Lipo>
90.7655

> <Gold.Chemscore.Internal_Hbond>
0.0000

> <Gold.Chemscore.DEClash>
2.3709

> <Gold.Chemscore.DEInternal>
1.6618

> <Gold.Chemscore.Rot>
2.4260

> <Gold.Chemscore.Internal.Correction>
   9.000000E+99

> <Gold.Chemscore.Hbonds>
donor molecule, donor type, donor heavy atom, donor atom, acceptor molecule, acceptor atom, score
      L1  H    20    45       P1  8028  0.41
      P1  H  7989  7998       L1    12  0.78

> <Gold.Chemscore.Hbond.Weighted>
-6.1488

> <Gold.Chemscore.Metal.Weighted>
-0.0000

> <Gold.Chemscore.Lipo.Weighted>
-10.6196

> <Gold.Chemscore.Internal_Hbond.Weighted>
0.0000

> <Gold.Chemscore.DEClash.Weighted>
2.3709

> <Gold.Chemscore.DEInternal.Weighted>
1.6618

> <Gold.Chemscore.Rot.Weighted>
6.2107

> <Gold.Chemscore.Internal.Correction.Weighted>
   9.000000E+99

> <Gold.Protein.RotatedTorsions>
[ 6907 6896 6895 6894 ] final    1.04 input  -60.11 | X-H torsion
[ 7974 7965 7964 7962 ] final   96.57 input  175.53 | X-H torsion
[ 8008 7997 7996 7995 ] final  119.09 input   59.86 | X-H torsion
[ 10167 10162 10161 10158 ] final  170.96 input  -65.29 | X-H torsion
[ 10718 10713 10712 10709 ] final -127.51 input   66.30 | X-H torsion
[ 10763 10752 10751 10750 ] final -140.36 input  -60.55 | X-H torsion
[ 11005 11000 10999 10996 ] final -104.36 input  -57.11 | X-H torsion

> <Gold.Protein.ActiveResidues>
 VAL166  LYS551  ARG553  GLY616  TRP617  ASP618  TYR619  PRO620  LYS621  CYS622 
 ASP623  PHE694  ASN695  SER759  ASP760  ASP761  ALA762  ILE779  LEU786  VAL792 
 PHE793  MET794  SER795  GLU796  ALA797  LYS798  CYS799  TRP800  GLU811  SER814 

> <Gold.Protein.RotatedAtoms>
  151.5861  135.1056  160.0028 H   0  0  0  0  0  0  0  0  0  0  0  0  # atno 6907 bound_to 6896
  152.4330  133.7306  159.6596 H   0  0  0  0  0  0  0  0  0  0  0  0  # atno 6908 bound_to 6896
  150.8224  133.8159  159.3156 H   0  0  0  0  0  0  0  0  0  0  0  0  # atno 6909 bound_to 6896
  145.4370  139.2305  143.3113 H   0  0  0  0  0  0  0  0  0  0  0  0  # atno 7974 bound_to 7965
  156.2578  140.2860  156.0936 H   0  0  0  0  0  0  0  0  0  0  0  0  # atno 8008 bound_to 7997
  155.1436  140.0396  157.2822 H   0  0  0  0  0  0  0  0  0  0  0  0  # atno 8009 bound_to 7997
  154.6512  140.2545  155.7218 H   0  0  0  0  0  0  0  0  0  0  0  0  # atno 8010 bound_to 7997
  139.5033  144.3539  151.9894 H   0  0  0  0  0  0  0  0  0  0  0  0  # atno 10167 bound_to 10162
  156.1864  130.6766  151.0369 H   0  0  0  0  0  0  0  0  0  0  0  0  # atno 10718 bound_to 10713
  154.8581  135.3555  154.5695 H   0  0  0  0  0  0  0  0  0  0  0  0  # atno 10763 bound_to 10752
  153.6308  135.7002  153.5281 H   0  0  0  0  0  0  0  0  0  0  0  0  # atno 10764 bound_to 10752
  153.3051  135.4195  155.1246 H   0  0  0  0  0  0  0  0  0  0  0  0  # atno 10765 bound_to 10752
  141.1104  133.8717  157.1602 H   0  0  0  0  0  0  0  0  0  0  0  0  # atno 11005 bound_to 11000
  146.2576  140.5114  142.8867 LP  0  0  0  0  0  0  0  0  0  0  0  0  # atno 17320 bound_to 7965
  144.8146  140.6445  143.6393 LP  0  0  0  0  0  0  0  0  0  0  0  0  # atno 17321 bound_to 7965
  140.2975  144.3684  150.6070 LP  0  0  0  0  0  0  0  0  0  0  0  0  # atno 17342 bound_to 10162
  140.5899  143.2168  151.7273 LP  0  0  0  0  0  0  0  0  0  0  0  0  # atno 17343 bound_to 10162
  157.6901  131.0812  150.7131 LP  0  0  0  0  0  0  0  0  0  0  0  0  # atno 17370 bound_to 10713
  156.7188  130.4674  149.5528 LP  0  0  0  0  0  0  0  0  0  0  0  0  # atno 17371 bound_to 10713
  139.9994  135.0033  157.0157 LP  0  0  0  0  0  0  0  0  0  0  0  0  # atno 17394 bound_to 11000
  140.4791  134.1308  155.7214 LP  0  0  0  0  0  0  0  0  0  0  0  0  # atno 17395 bound_to 11000

$$$$
