AV-unprocessed.smi:3191|AV-procd|sdf|12198|dock1
  -GOLD-   2272018 33D 1   1.00000     0.00000
 Structure written by MMmdl.
 35 36  0  0  0  0  0  0  0  0  1 V2000
  152.2806  143.7931  161.9492 C   0  0  0  0  0  0  0  0  0  0  0  0
  152.2101  144.3544  160.6143 N   0  0  0  0  0  0  0  0  0  0  0  0
  151.8951  145.6155  160.2890 C   0  0  0  0  0  0  0  0  0  0  0  0
  151.9015  145.8661  158.9865 N   0  0  0  0  0  0  0  0  0  0  0  0
  152.2547  144.6460  158.4166 C   0  0  0  0  0  0  0  0  0  0  0  0
  152.4484  143.7062  159.4049 C   0  0  0  0  0  0  0  0  0  0  0  0
  152.8443  142.2689  159.2958 C   0  0  0  0  0  0  0  0  0  0  0  0
  153.9097  141.8628  160.3265 C   0  0  0  0  0  0  0  0  0  0  0  0
  153.7404  140.4793  160.7539 N   0  0  0  0  0  0  0  0  0  0  0  0
  153.9085  139.4063  159.9661 C   0  0  0  0  0  0  0  0  0  0  0  0
  154.2200  139.4945  158.7775 O   0  0  0  0  0  0  0  0  0  0  0  0
  153.6786  138.1040  160.6683 C   0  0  1  0  0  0  0  0  0  0  0  0
  154.8058  137.0919  160.6821 C   0  0  0  0  0  0  0  0  0  0  0  0
  154.4172  137.7885  161.9673 C   0  0  0  0  0  0  0  0  0  0  0  0
  155.3989  138.7556  162.6182 C   0  0  0  0  0  0  0  0  0  0  0  0
  153.6674  137.0199  163.0413 C   0  0  0  0  0  0  0  0  0  0  0  0
  152.6676  137.7064  160.5899 H   0  0  0  0  0  0  0  0  0  0  0  0
  152.0512  144.5569  162.6929 H   0  0  0  0  0  0  0  0  0  0  0  0
  153.2828  143.4079  162.1372 H   0  0  0  0  0  0  0  0  0  0  0  0
  151.5606  142.9802  162.0453 H   0  0  0  0  0  0  0  0  0  0  0  0
  151.6547  146.3696  161.0241 H   0  0  0  0  0  0  0  0  0  0  0  0
  152.3447  144.5382  157.3458 H   0  0  0  0  0  0  0  0  0  0  0  0
  151.9602  141.6399  159.4039 H   0  0  0  0  0  0  0  0  0  0  0  0
  153.2224  142.0769  158.2910 H   0  0  0  0  0  0  0  0  0  0  0  0
  154.9042  141.9677  159.8922 H   0  0  0  0  0  0  0  0  0  0  0  0
  153.8810  142.5247  161.1935 H   0  0  0  0  0  0  0  0  0  0  0  0
  153.4821  140.3264  161.7181 H   0  0  0  0  0  0  0  0  0  0  0  0
  154.5277  136.0471  160.5596 H   0  0  0  0  0  0  0  0  0  0  0  0
  155.7575  137.3631  160.2280 H   0  0  0  0  0  0  0  0  0  0  0  0
  155.9787  138.2474  163.3892 H   0  0  0  0  0  0  0  0  0  0  0  0
  154.8619  139.5844  163.0800 H   0  0  0  0  0  0  0  0  0  0  0  0
  156.1061  139.1599  161.8950 H   0  0  0  0  0  0  0  0  0  0  0  0
  154.3621  136.4441  163.6536 H   0  0  0  0  0  0  0  0  0  0  0  0
  152.9534  136.3267  162.5955 H   0  0  0  0  0  0  0  0  0  0  0  0
  153.1199  137.7072  163.6870 H   0  0  0  0  0  0  0  0  0  0  0  0
  1  2  1  0  0  0  0
  1 18  1  0  0  0  0
  1 19  1  0  0  0  0
  1 20  1  0  0  0  0
  2  6  1  0  0  0  0
  2  3  1  0  0  0  0
  3  4  2  0  0  0  0
  3 21  1  0  0  0  0
  4  5  1  0  0  0  0
  5  6  2  0  0  0  0
  5 22  1  0  0  0  0
  6  7  1  0  0  0  0
  7  8  1  0  0  0  0
  7 23  1  0  0  0  0
  7 24  1  0  0  0  0
  8  9  1  0  0  0  0
  8 25  1  0  0  0  0
  8 26  1  0  0  0  0
  9 10  1  0  0  0  0
  9 27  1  0  0  0  0
 10 11  2  0  0  0  0
 10 12  1  0  0  0  0
 12 17  1  0  0  0  0
 12 14  1  0  0  0  0
 12 13  1  0  0  0  0
 13 14  1  0  0  0  0
 13 28  1  0  0  0  0
 13 29  1  0  0  0  0
 14 15  1  0  0  0  0
 14 16  1  0  0  0  0
 15 30  1  0  0  0  0
 15 31  1  0  0  0  0
 15 32  1  0  0  0  0
 16 33  1  0  0  0  0
 16 34  1  0  0  0  0
 16 35  1  0  0  0  0
M  END
> <s_m_source_file>
AV-unprocessed.smi

> <i_m_source_file_index>
3191

> <i_lp_mmshare_version>
43012

> <i_f3d_flags>
0

> <s_epik_input>
W0NIM11uMVtjSF1uW2NIXWMxW0NIMl1bQ0gyXVtOSF1DKD1PKVtDQEBIXShbQ0gyXTIpQzIoW0NIM10pW0NIM10=

> <s_epik_cmdline>
J2VwaWtfcHl0aG9uJywgJy1waCcsICc3LjAnLCAnLXRuJywgJzgnLCAnLW1hJywgJzIwMCcsICctbWV0YWxfYmluZGluZycsICctaW1hZScsICc8aW5maWxlLm1hZT4nLCAnLW9tYWUnLCAnPG91dGZpbGUubWFlPic=

> <r_lp_tautomer_probability>
1

> <r_epik_Ionization_Penalty>
0.874249

> <r_epik_Ionization_Penalty_Charging>
0.874249

> <r_epik_Ionization_Penalty_Neutral>
1.97773e-08

> <r_epik_State_Penalty>
0.911868

> <r_epik_Charging_Adjusted_Penalty>
1.78612

> <i_epik_Tot_Q>
0

> <i_epik_Tot_abs_Q>
0

> <r_epik_Metal_State_Penalty>
0.361186

> <b_epik_Metal_Only>
0

> <s_lp_Force_Field>
OPLS_2005

> <r_lp_Energy>
11.7772

> <b_lp_Chiralities_Consistent>
1

> <s_lp_Variant>
AV-unprocessed.smi:3191-3

> <Gold.Version>
5.8.1

> <Gold.Id.Protein>
6NUR|6NUR_protein|mol2

> <Gold.PLP.Fitness>
43.6155

> <Gold.PLP.PLP>
-41.5319

> <Gold.PLP.part.hbond>
-2.0000

> <Gold.PLP.part.metal>
0.0000

> <Gold.PLP.part.buried>
-2.8296

> <Gold.PLP.part.nonpolar>
-36.0016

> <Gold.PLP.part.repulsive>
0.1569

> <Gold.PLP.ligand.clash>
0.0000

> <Gold.PLP.ligand.torsion>
0.5066

> <Gold.PLP.Chemscore.Hbond>
1.0000

> <Gold.PLP.Chemscore.CHOScore>
0.0000

> <Gold.PLP.Chemscore.Metal>
0.0000

> <Gold.Chemscore.Hbonds>
donor molecule, donor type, donor heavy atom, donor atom, acceptor molecule, acceptor atom, score
      P1  H  7997  8010       L1    11  1.00

> <Gold.PLP.Chemscore.Internal.Correction>
0.0968

> <Gold.Rescore>
     Score         DG    S(hbond)    S(metal)    S(lipo)     H(rot)  DE(clash)    DE(int)     intcor
     12.74     -15.09       0.99        0.00      90.80       1.69       1.17       1.18       ----

> <Gold.Chemscore.Fitness>
12.7442

> <Gold.Chemscore.DG>
-15.0911

> <Gold.Chemscore.ZeroCoef>
-5.4800

> <Gold.Chemscore.Hbond>
0.9937

> <Gold.Chemscore.Metal>
0.0000

> <Gold.Chemscore.Lipo>
90.7969

> <Gold.Chemscore.Internal_Hbond>
0.0000

> <Gold.Chemscore.DEClash>
1.1666

> <Gold.Chemscore.DEInternal>
1.1803

> <Gold.Chemscore.Rot>
1.6919

> <Gold.Chemscore.Internal.Correction>
   9.000000E+99

> <Gold.Chemscore.Hbonds>
donor molecule, donor type, donor heavy atom, donor atom, acceptor molecule, acceptor atom, score
      P1  H  7997  8010       L1    11  0.99

> <Gold.Chemscore.Hbond.Weighted>
-3.3190

> <Gold.Chemscore.Metal.Weighted>
-0.0000

> <Gold.Chemscore.Lipo.Weighted>
-10.6232

> <Gold.Chemscore.Internal_Hbond.Weighted>
0.0000

> <Gold.Chemscore.DEClash.Weighted>
1.1666

> <Gold.Chemscore.DEInternal.Weighted>
1.1803

> <Gold.Chemscore.Rot.Weighted>
4.3312

> <Gold.Chemscore.Internal.Correction.Weighted>
   9.000000E+99

> <Gold.Protein.RotatedTorsions>
[ 6907 6896 6895 6894 ] final   78.54 input  -60.11 | X-H torsion
[ 7974 7965 7964 7962 ] final -123.73 input  175.53 | X-H torsion
[ 8008 7997 7996 7995 ] final   -0.42 input   59.86 | X-H torsion
[ 10167 10162 10161 10158 ] final   59.17 input  -65.29 | X-H torsion
[ 10718 10713 10712 10709 ] final   91.21 input   66.30 | X-H torsion
[ 10763 10752 10751 10750 ] final  -18.55 input  -60.55 | X-H torsion
[ 11005 11000 10999 10996 ] final -155.22 input  -57.11 | X-H torsion

> <Gold.Protein.ActiveResidues>
 VAL166  LYS551  ARG553  GLY616  TRP617  ASP618  TYR619  PRO620  LYS621  CYS622 
 ASP623  PHE694  ASN695  SER759  ASP760  ASP761  ALA762  ILE779  LEU786  VAL792 
 PHE793  MET794  SER795  GLU796  ALA797  LYS798  CYS799  TRP800  GLU811  SER814 

> <Gold.Protein.RotatedAtoms>
  152.5163  134.3648  159.9297 H   0  0  0  0  0  0  0  0  0  0  0  0  # atno 6907 bound_to 6896
  151.3601  133.3886  159.2696 H   0  0  0  0  0  0  0  0  0  0  0  0  # atno 6908 bound_to 6896
  150.9658  134.9058  159.7816 H   0  0  0  0  0  0  0  0  0  0  0  0  # atno 6909 bound_to 6896
  145.0155  140.7943  143.4412 H   0  0  0  0  0  0  0  0  0  0  0  0  # atno 7974 bound_to 7965
  154.6583  140.2584  155.7137 H   0  0  0  0  0  0  0  0  0  0  0  0  # atno 8008 bound_to 7997
  156.2607  140.2854  156.0966 H   0  0  0  0  0  0  0  0  0  0  0  0  # atno 8009 bound_to 7997
  155.1347  140.0379  157.2774 H   0  0  0  0  0  0  0  0  0  0  0  0  # atno 8010 bound_to 7997
  140.1793  144.4198  150.6623 H   0  0  0  0  0  0  0  0  0  0  0  0  # atno 10167 bound_to 10162
  157.6960  131.0399  150.3695 H   0  0  0  0  0  0  0  0  0  0  0  0  # atno 10718 bound_to 10713
  153.5911  135.7002  153.5423 H   0  0  0  0  0  0  0  0  0  0  0  0  # atno 10763 bound_to 10752
  153.3178  135.4083  155.1390 H   0  0  0  0  0  0  0  0  0  0  0  0  # atno 10764 bound_to 10752
  154.8600  135.3688  154.5442 H   0  0  0  0  0  0  0  0  0  0  0  0  # atno 10765 bound_to 10752
  140.6888  134.4064  157.5221 H   0  0  0  0  0  0  0  0  0  0  0  0  # atno 11005 bound_to 11000
  145.1965  139.2274  143.5215 LP  0  0  0  0  0  0  0  0  0  0  0  0  # atno 17320 bound_to 7965
  146.3477  140.1773  142.8589 LP  0  0  0  0  0  0  0  0  0  0  0  0  # atno 17321 bound_to 7965
  140.6530  143.2230  151.6033 LP  0  0  0  0  0  0  0  0  0  0  0  0  # atno 17342 bound_to 10162
  139.5303  144.2935  152.1132 LP  0  0  0  0  0  0  0  0  0  0  0  0  # atno 17343 bound_to 10162
  156.4122  130.3936  149.6884 LP  0  0  0  0  0  0  0  0  0  0  0  0  # atno 17370 bound_to 10713
  156.4164  130.7747  151.2762 LP  0  0  0  0  0  0  0  0  0  0  0  0  # atno 17371 bound_to 10713
  139.8929  134.8742  156.2246 LP  0  0  0  0  0  0  0  0  0  0  0  0  # atno 17394 bound_to 11000
  141.0258  133.7016  156.1345 LP  0  0  0  0  0  0  0  0  0  0  0  0  # atno 17395 bound_to 11000

$$$$
