AV-unprocessed.smi:314|AV-procd|sdf|2314|dock6
  -GOLD-   2262022213D 1   1.00000     0.00000
 Structure written by MMmdl.
 48 49  0  0  0  0  0  0  0  0  1 V2000
  143.4149  132.7102  148.4462 C   0  0  0  0  0  0  0  0  0  0  0  0
  143.8321  131.8537  149.5037 O   0  0  0  0  0  0  0  0  0  0  0  0
  144.8903  132.2554  150.2931 C   0  0  0  0  0  0  0  0  0  0  0  0
  145.3202  131.4025  151.3291 C   0  0  0  0  0  0  0  0  0  0  0  0
  146.4035  131.8017  152.1348 C   0  0  0  0  0  0  0  0  0  0  0  0
  147.0284  133.0438  151.8727 C   0  0  0  0  0  0  0  0  0  0  0  0
  148.1146  133.5610  152.6274 N   0  0  0  0  0  0  0  0  0  0  0  0
  148.3140  133.4811  153.9538 C   0  0  0  0  0  0  0  0  0  0  0  0
  147.5744  132.9028  154.7501 O   0  0  0  0  0  0  0  0  0  0  0  0
  149.4511  134.0944  154.3115 N   0  0  0  0  0  0  0  0  0  0  0  0
  149.9733  134.1564  155.6719 C   0  0  0  0  0  0  0  0  0  0  0  0
  149.9549  135.6001  156.2133 C   0  0  0  0  0  0  0  0  0  0  0  0
  151.2792  136.3572  156.0158 C   0  0  0  0  0  0  0  0  0  0  0  0
  152.2906  135.9545  156.5927 O   0  0  0  0  0  0  0  0  0  0  0  0
  151.2958  137.4423  155.2050 N   0  0  0  0  0  0  0  0  0  0  0  0
  152.4527  138.2991  154.9277 C   0  0  0  0  0  0  0  0  0  0  0  0
  152.1918  139.7062  155.5053 C   0  0  2  0  0  0  0  0  0  0  0  0
  152.2356  139.7676  157.0428 C   0  0  0  0  0  0  0  0  0  0  0  0
  150.9563  140.2179  154.9951 O   0  0  0  0  0  0  0  0  0  0  0  0
  149.8147  139.3761  155.1763 C   0  0  1  0  0  0  0  0  0  0  0  0
  148.6119  140.0621  154.5192 C   0  0  0  0  0  0  0  0  0  0  0  0
  150.0965  137.9887  154.5673 C   0  0  0  0  0  0  0  0  0  0  0  0
  146.5101  133.8326  150.8251 C   0  0  0  0  0  0  0  0  0  0  0  0
  145.4743  133.4543  150.0470 N   0  0  0  0  0  0  0  0  0  0  0  0
  142.5813  132.2495  147.9161 H   0  0  0  0  0  0  0  0  0  0  0  0
  144.2166  132.8719  147.7242 H   0  0  0  0  0  0  0  0  0  0  0  0
  143.0735  133.6747  148.8247 H   0  0  0  0  0  0  0  0  0  0  0  0
  144.8254  130.4587  151.5053 H   0  0  0  0  0  0  0  0  0  0  0  0
  146.7232  131.1593  152.9407 H   0  0  0  0  0  0  0  0  0  0  0  0
  148.8567  133.9824  152.0884 H   0  0  0  0  0  0  0  0  0  0  0  0
  149.9992  134.5428  153.5920 H   0  0  0  0  0  0  0  0  0  0  0  0
  149.3544  133.5123  156.2976 H   0  0  0  0  0  0  0  0  0  0  0  0
  150.9830  133.7419  155.6989 H   0  0  0  0  0  0  0  0  0  0  0  0
  149.1633  136.1598  155.7136 H   0  0  0  0  0  0  0  0  0  0  0  0
  149.7163  135.5802  157.2774 H   0  0  0  0  0  0  0  0  0  0  0  0
  153.3954  137.9100  155.3092 H   0  0  0  0  0  0  0  0  0  0  0  0
  152.5852  138.3663  153.8469 H   0  0  0  0  0  0  0  0  0  0  0  0
  152.9737  140.3702  155.1359 H   0  0  0  0  0  0  0  0  0  0  0  0
  153.2166  139.4696  157.4134 H   0  0  0  0  0  0  0  0  0  0  0  0
  151.5011  139.1100  157.5067 H   0  0  0  0  0  0  0  0  0  0  0  0
  152.0446  140.7813  157.3954 H   0  0  0  0  0  0  0  0  0  0  0  0
  149.6048  139.2717  156.2412 H   0  0  0  0  0  0  0  0  0  0  0  0
  147.7058  139.4682  154.6419 H   0  0  0  0  0  0  0  0  0  0  0  0
  148.7752  140.2082  153.4511 H   0  0  0  0  0  0  0  0  0  0  0  0
  148.4303  141.0400  154.9655 H   0  0  0  0  0  0  0  0  0  0  0  0
  150.2637  138.0704  153.4922 H   0  0  0  0  0  0  0  0  0  0  0  0
  149.2239  137.3455  154.6879 H   0  0  0  0  0  0  0  0  0  0  0  0
  146.9438  134.7954  150.5971 H   0  0  0  0  0  0  0  0  0  0  0  0
  1  2  1  0  0  0  0
  1 25  1  0  0  0  0
  1 26  1  0  0  0  0
  1 27  1  0  0  0  0
  2  3  1  0  0  0  0
  3 24  1  0  0  0  0
  3  4  2  0  0  0  0
  4  5  1  0  0  0  0
  4 28  1  0  0  0  0
  5  6  2  0  0  0  0
  5 29  1  0  0  0  0
  6  7  1  0  0  0  0
  6 23  1  0  0  0  0
  7  8  1  0  0  0  0
  7 30  1  0  0  0  0
  8  9  2  0  0  0  0
  8 10  1  0  0  0  0
 10 11  1  0  0  0  0
 10 31  1  0  0  0  0
 11 12  1  0  0  0  0
 11 32  1  0  0  0  0
 11 33  1  0  0  0  0
 12 13  1  0  0  0  0
 12 34  1  0  0  0  0
 12 35  1  0  0  0  0
 13 14  2  0  0  0  0
 13 15  1  0  0  0  0
 15 22  1  0  0  0  0
 15 16  1  0  0  0  0
 16 17  1  0  0  0  0
 16 36  1  0  0  0  0
 16 37  1  0  0  0  0
 17 18  1  0  0  0  0
 17 19  1  0  0  0  0
 17 38  1  0  0  0  0
 18 39  1  0  0  0  0
 18 40  1  0  0  0  0
 18 41  1  0  0  0  0
 19 20  1  0  0  0  0
 20 21  1  0  0  0  0
 20 22  1  0  0  0  0
 20 42  1  0  0  0  0
 21 43  1  0  0  0  0
 21 44  1  0  0  0  0
 21 45  1  0  0  0  0
 22 46  1  0  0  0  0
 22 47  1  0  0  0  0
 23 24  2  0  0  0  0
 23 48  1  0  0  0  0
M  END
> <s_m_source_file>
AV-unprocessed.smi

> <i_m_source_file_index>
314

> <i_lp_mmshare_version>
43012

> <i_f3d_flags>
0

> <s_epik_input>
W0NIM11PYzFbY0hdW2NIXWMoW2NIXW4xKVtOSF1DKD1PKVtOSF1bQ0gyXVtDSDJdQyg9TylOMltDSDJdW0NAQEhdKFtDSDNdKU9bQ0BASF0oW0NIM10pW0NIMl0y

> <s_epik_cmdline>
J2VwaWtfcHl0aG9uJywgJy1waCcsICc3LjAnLCAnLXRuJywgJzgnLCAnLW1hJywgJzIwMCcsICctbWV0YWxfYmluZGluZycsICctaW1hZScsICc8aW5maWxlLm1hZT4nLCAnLW9tYWUnLCAnPG91dGZpbGUubWFlPic=

> <r_lp_tautomer_probability>
1

> <r_epik_Ionization_Penalty>
8.55977e-05

> <r_epik_Ionization_Penalty_Charging>
0

> <r_epik_Ionization_Penalty_Neutral>
8.55977e-05

> <r_epik_State_Penalty>
-0

> <r_epik_Charging_Adjusted_Penalty>
0

> <i_epik_Tot_Q>
0

> <i_epik_Tot_abs_Q>
0

> <r_epik_Metal_State_Penalty>
-0

> <b_epik_Metal_Only>
0

> <s_lp_Force_Field>
OPLS_2005

> <r_lp_Energy>
25.8744

> <b_lp_Chiralities_Consistent>
1

> <s_lp_Variant>
AV-unprocessed.smi:314-2

> <Gold.Version>
5.8.1

> <Gold.Id.Protein>
6NUR|6NUR_protein|mol2

> <Gold.PLP.Fitness>
50.0360

> <Gold.PLP.PLP>
-41.8746

> <Gold.PLP.part.hbond>
-4.3815

> <Gold.PLP.part.metal>
0.0000

> <Gold.PLP.part.buried>
-4.9164

> <Gold.PLP.part.nonpolar>
-34.6337

> <Gold.PLP.part.repulsive>
2.4236

> <Gold.PLP.ligand.clash>
0.0000

> <Gold.PLP.ligand.torsion>
0.5714

> <Gold.PLP.Chemscore.Hbond>
2.6556

> <Gold.PLP.Chemscore.CHOScore>
0.4373

> <Gold.PLP.Chemscore.Metal>
0.0000

> <Gold.Chemscore.Hbonds>
donor molecule, donor type, donor heavy atom, donor atom, acceptor molecule, acceptor atom, score
      P1  H  7989  7998       L1    19  0.80
      P1  H 10752 10765       L1    14  0.95
      P1  H 10785 10796       L1     2  0.73
      L1  C    23    48       P1  7948  0.54

> <Gold.PLP.Chemscore.Internal.Correction>
0.0254

> <Gold.Rescore>
     Score         DG    S(hbond)    S(metal)    S(lipo)     H(rot)  DE(clash)    DE(int)     intcor
     13.79     -17.03       1.48        0.00      96.02       1.81       1.95       1.28       ----

> <Gold.Chemscore.Fitness>
13.7934

> <Gold.Chemscore.DG>
-17.0251

> <Gold.Chemscore.ZeroCoef>
-5.4800

> <Gold.Chemscore.Hbond>
1.4779

> <Gold.Chemscore.Metal>
0.0000

> <Gold.Chemscore.Lipo>
96.0174

> <Gold.Chemscore.Internal_Hbond>
0.0000

> <Gold.Chemscore.DEClash>
1.9468

> <Gold.Chemscore.DEInternal>
1.2849

> <Gold.Chemscore.Rot>
1.8067

> <Gold.Chemscore.Internal.Correction>
   9.000000E+99

> <Gold.Chemscore.Hbonds>
donor molecule, donor type, donor heavy atom, donor atom, acceptor molecule, acceptor atom, score
      P1  H  7989  7998       L1    19  0.12
      P1  H 10752 10765       L1    14  0.22
      P1  H 10785 10796       L1     2  0.14

> <Gold.Chemscore.Hbond.Weighted>
-4.9362

> <Gold.Chemscore.Metal.Weighted>
-0.0000

> <Gold.Chemscore.Lipo.Weighted>
-11.2340

> <Gold.Chemscore.Internal_Hbond.Weighted>
0.0000

> <Gold.Chemscore.DEClash.Weighted>
1.9468

> <Gold.Chemscore.DEInternal.Weighted>
1.2849

> <Gold.Chemscore.Rot.Weighted>
4.6252

> <Gold.Chemscore.Internal.Correction.Weighted>
   9.000000E+99

> <Gold.Protein.RotatedTorsions>
[ 6907 6896 6895 6894 ] final   49.63 input  -60.11 | X-H torsion
[ 7974 7965 7964 7962 ] final   69.89 input  175.53 | X-H torsion
[ 8008 7997 7996 7995 ] final   52.67 input   59.86 | X-H torsion
[ 10167 10162 10161 10158 ] final   19.68 input  -65.29 | X-H torsion
[ 10718 10713 10712 10709 ] final  153.01 input   66.30 | X-H torsion
[ 10763 10752 10751 10750 ] final -141.95 input  -60.55 | X-H torsion
[ 11005 11000 10999 10996 ] final  101.51 input  -57.11 | X-H torsion

> <Gold.Protein.ActiveResidues>
 VAL166  LYS551  ARG553  GLY616  TRP617  ASP618  TYR619  PRO620  LYS621  CYS622 
 ASP623  PHE694  ASN695  SER759  ASP760  ASP761  ALA762  ILE779  LEU786  VAL792 
 PHE793  MET794  SER795  GLU796  ALA797  LYS798  CYS799  TRP800  GLU811  SER814 

> <Gold.Protein.RotatedAtoms>
  152.2929  134.7700  160.0373 H   0  0  0  0  0  0  0  0  0  0  0  0  # atno 6907 bound_to 6896
  151.8240  133.3393  159.3601 H   0  0  0  0  0  0  0  0  0  0  0  0  # atno 6908 bound_to 6896
  150.7238  134.5476  159.5822 H   0  0  0  0  0  0  0  0  0  0  0  0  # atno 6909 bound_to 6896
  145.7849  139.2905  143.1244 H   0  0  0  0  0  0  0  0  0  0  0  0  # atno 7974 bound_to 7965
  155.4557  140.3460  155.4306 H   0  0  0  0  0  0  0  0  0  0  0  0  # atno 8008 bound_to 7997
  156.1192  140.1482  156.9258 H   0  0  0  0  0  0  0  0  0  0  0  0  # atno 8009 bound_to 7997
  154.4811  140.0869  156.7359 H   0  0  0  0  0  0  0  0  0  0  0  0  # atno 8010 bound_to 7997
  140.5561  143.9422  150.6610 H   0  0  0  0  0  0  0  0  0  0  0  0  # atno 10167 bound_to 10162
  157.2504  131.0777  151.1734 H   0  0  0  0  0  0  0  0  0  0  0  0  # atno 10718 bound_to 10713
  154.8527  135.3510  154.5949 H   0  0  0  0  0  0  0  0  0  0  0  0  # atno 10763 bound_to 10752
  153.6558  135.6992  153.5198 H   0  0  0  0  0  0  0  0  0  0  0  0  # atno 10764 bound_to 10752
  153.2857  135.4250  155.1078 H   0  0  0  0  0  0  0  0  0  0  0  0  # atno 10765 bound_to 10752
  139.8773  134.9186  156.4918 H   0  0  0  0  0  0  0  0  0  0  0  0  # atno 11005 bound_to 11000
  146.0037  140.8498  143.0006 LP  0  0  0  0  0  0  0  0  0  0  0  0  # atno 17320 bound_to 7965
  144.6790  140.2388  143.7346 LP  0  0  0  0  0  0  0  0  0  0  0  0  # atno 17321 bound_to 7965
  140.2861  143.3356  152.1106 LP  0  0  0  0  0  0  0  0  0  0  0  0  # atno 17342 bound_to 10162
  139.5048  144.6783  151.6072 LP  0  0  0  0  0  0  0  0  0  0  0  0  # atno 17343 bound_to 10162
  157.3284  130.6972  149.6310 LP  0  0  0  0  0  0  0  0  0  0  0  0  # atno 17370 bound_to 10713
  155.9666  130.4315  150.4921 LP  0  0  0  0  0  0  0  0  0  0  0  0  # atno 17371 bound_to 10713
  140.8653  133.8029  155.9307 LP  0  0  0  0  0  0  0  0  0  0  0  0  # atno 17394 bound_to 11000
  140.9008  134.2381  157.5043 LP  0  0  0  0  0  0  0  0  0  0  0  0  # atno 17395 bound_to 11000

$$$$
