AV-unprocessed.smi:1843|AV-procd|sdf|7504|dock2
  -GOLD-   22720 9203D 1   1.00000     0.00000
 Structure written by MMmdl.
 36 38  0  0  0  0  0  0  0  0  2 V2000
  151.8749  137.1390  154.5339 O   0  0  0  0  0  0  0  0  0  0  0  0
  151.2656  138.0320  155.1273 C   0  0  0  0  0  0  0  0  0  0  0  0
  151.4914  139.3614  155.0226 N   0  5  0  0  0  0  0  0  0  0  0  0
  151.6432  140.1066  156.1300 C   0  0  0  0  0  0  0  0  0  0  0  0
  152.4320  139.7302  157.1462 N   0  0  0  0  0  0  0  0  0  0  0  0
  152.4492  140.6442  158.1895 N   0  0  0  0  0  0  0  0  0  0  0  0
  151.6773  141.7052  157.9426 C   0  0  0  0  0  0  0  0  0  0  0  0
  151.5281  142.8276  158.9145 C   0  0  0  0  0  0  0  0  0  0  0  0
  151.8759  144.2436  158.5170 C   0  0  0  0  0  0  0  0  0  0  0  0
  152.7307  143.5158  159.5228 C   0  0  0  0  0  0  0  0  0  0  0  0
  150.8631  141.6671  156.3866 S   0  0  0  0  0  0  0  0  0  0  0  0
  150.2728  137.7187  155.9720 N   0  0  0  0  0  0  0  0  0  0  0  0
  149.8114  136.3701  156.2975 C   0  0  2  0  0  0  0  0  0  0  0  0
  151.0083  135.5373  156.8091 C   0  0  0  0  0  0  0  0  0  0  0  0
  150.6406  134.0626  157.0272 C   0  0  0  0  0  0  0  0  0  0  0  0
  150.0691  133.4451  155.7445 C   0  0  0  0  0  0  0  0  0  0  0  0
  148.8472  134.2376  155.2614 C   0  0  0  0  0  0  0  0  0  0  0  0
  149.1820  135.7252  155.0402 C   0  0  1  0  0  0  0  0  0  0  0  0
  147.9746  136.3870  154.7186 O   0  0  0  0  0  0  0  0  0  0  0  0
  150.6556  142.6747  159.5467 H   0  0  0  0  0  0  0  0  0  0  0  0
  152.2944  144.4019  157.5250 H   0  0  0  0  0  0  0  0  0  0  0  0
  151.2315  145.0396  158.8844 H   0  0  0  0  0  0  0  0  0  0  0  0
  152.6575  143.8269  160.5627 H   0  0  0  0  0  0  0  0  0  0  0  0
  153.7214  143.2030  159.1994 H   0  0  0  0  0  0  0  0  0  0  0  0
  149.8058  138.4823  156.4385 H   0  0  0  0  0  0  0  0  0  0  0  0
  149.0544  136.4153  157.0832 H   0  0  0  0  0  0  0  0  0  0  0  0
  151.8285  135.5955  156.0918 H   0  0  0  0  0  0  0  0  0  0  0  0
  151.3874  135.9586  157.7409 H   0  0  0  0  0  0  0  0  0  0  0  0
  151.5198  133.5045  157.3497 H   0  0  0  0  0  0  0  0  0  0  0  0
  149.9094  133.9822  157.8326 H   0  0  0  0  0  0  0  0  0  0  0  0
  150.8337  133.4344  154.9665 H   0  0  0  0  0  0  0  0  0  0  0  0
  149.7918  132.4057  155.9228 H   0  0  0  0  0  0  0  0  0  0  0  0
  148.4662  133.7991  154.3382 H   0  0  0  0  0  0  0  0  0  0  0  0
  148.0489  134.1442  155.9994 H   0  0  0  0  0  0  0  0  0  0  0  0
  149.8650  135.8156  154.1940 H   0  0  0  0  0  0  0  0  0  0  0  0
  147.9213  136.4720  153.7790 H   0  0  0  0  0  0  0  0  0  0  0  0
  1  2  2  0  0  0  0
  2  3  1  0  0  0  0
  2 12  1  0  0  0  0
  3  4  1  0  0  0  0
  4 11  1  0  0  0  0
  4  5  2  0  0  0  0
  5  6  1  0  0  0  0
  6  7  2  0  0  0  0
  7  8  1  0  0  0  0
  7 11  1  0  0  0  0
  8 10  1  0  0  0  0
  8  9  1  0  0  0  0
  8 20  1  0  0  0  0
  9 10  1  0  0  0  0
  9 21  1  0  0  0  0
  9 22  1  0  0  0  0
 10 23  1  0  0  0  0
 10 24  1  0  0  0  0
 12 13  1  0  0  0  0
 12 25  1  0  0  0  0
 13 18  1  0  0  0  0
 13 14  1  0  0  0  0
 13 26  1  0  0  0  0
 14 15  1  0  0  0  0
 14 27  1  0  0  0  0
 14 28  1  0  0  0  0
 15 16  1  0  0  0  0
 15 29  1  0  0  0  0
 15 30  1  0  0  0  0
 16 17  1  0  0  0  0
 16 31  1  0  0  0  0
 16 32  1  0  0  0  0
 17 18  1  0  0  0  0
 17 33  1  0  0  0  0
 17 34  1  0  0  0  0
 18 19  1  0  0  0  0
 18 35  1  0  0  0  0
 19 36  1  0  0  0  0
M  CHG  1   3  -1
M  END
> <s_m_source_file>
AV-unprocessed.smi

> <i_m_source_file_index>
1843

> <i_lp_mmshare_version>
43012

> <i_f3d_flags>
0

> <s_epik_input>
W09IXVtDQEBIXTFbQ0gyXVtDSDJdW0NIMl1bQ0gyXVtDQEhdMVtOSF1DKD1PKVtOSF1jMm5uYyhzMilbQ0hdM1tDSDJdW0NIMl0z

> <s_epik_cmdline>
J2VwaWtfcHl0aG9uJywgJy1waCcsICc3LjAnLCAnLXRuJywgJzgnLCAnLW1hJywgJzIwMCcsICctbWV0YWxfYmluZGluZycsICctaW1hZScsICc8aW5maWxlLm1hZT4nLCAnLW9tYWUnLCAnPG91dGZpbGUubWFlPic=

> <r_lp_tautomer_probability>
1

> <r_epik_Ionization_Penalty>
4.7996

> <r_epik_Ionization_Penalty_Charging>
4.64516

> <r_epik_Ionization_Penalty_Neutral>
0.154442

> <r_epik_State_Penalty>
4.64493

> <r_epik_Charging_Adjusted_Penalty>
9.29009

> <i_epik_Tot_Q>
-1

> <i_epik_Tot_abs_Q>
1

> <r_epik_Metal_State_Penalty>
0.896144

> <b_epik_Metal_Only>
1

> <s_lp_Force_Field>
OPLS_2005

> <r_lp_Energy>
6.98885

> <b_lp_Chiralities_Consistent>
1

> <s_lp_Variant>
AV-unprocessed.smi:1843-5

> <Gold.Version>
5.8.1

> <Gold.Id.Protein>
6NUR|6NUR_protein|mol2

> <Gold.PLP.Fitness>
42.7376

> <Gold.PLP.PLP>
-32.9126

> <Gold.PLP.part.hbond>
-4.4369

> <Gold.PLP.part.metal>
0.0000

> <Gold.PLP.part.buried>
-3.0202

> <Gold.PLP.part.nonpolar>
-26.1516

> <Gold.PLP.part.repulsive>
0.2478

> <Gold.PLP.ligand.clash>
0.0000

> <Gold.PLP.ligand.torsion>
0.9394

> <Gold.PLP.Chemscore.Hbond>
3.8560

> <Gold.PLP.Chemscore.CHOScore>
0.0000

> <Gold.PLP.Chemscore.Metal>
0.0000

> <Gold.Chemscore.Hbonds>
donor molecule, donor type, donor heavy atom, donor atom, acceptor molecule, acceptor atom, score
      L1  H    19    36       P1  7948  0.56
      P1  H  7989  7998       L1     3  0.71
      P1  H  7997  8009       L1     5  0.66
      P1  H 10752 10764       L1     1  0.94

> <Gold.PLP.Chemscore.Internal.Correction>
0.1358

> <Gold.Rescore>
     Score         DG    S(hbond)    S(metal)    S(lipo)     H(rot)  DE(clash)    DE(int)     intcor
     15.74     -19.26       2.76        0.00      76.59       1.72       0.40       3.13       ----

> <Gold.Chemscore.Fitness>
15.7358

> <Gold.Chemscore.DG>
-19.2597

> <Gold.Chemscore.ZeroCoef>
-5.4800

> <Gold.Chemscore.Hbond>
2.7580

> <Gold.Chemscore.Metal>
0.0000

> <Gold.Chemscore.Lipo>
76.5897

> <Gold.Chemscore.Internal_Hbond>
0.0000

> <Gold.Chemscore.DEClash>
0.3970

> <Gold.Chemscore.DEInternal>
3.1268

> <Gold.Chemscore.Rot>
1.7160

> <Gold.Chemscore.Internal.Correction>
   9.000000E+99

> <Gold.Chemscore.Hbonds>
donor molecule, donor type, donor heavy atom, donor atom, acceptor molecule, acceptor atom, score
      L1  H    19    36       P1  7948  0.54
      P1  H  7989  7998       L1     3  0.21
      P1  H  7997  8009       L1     5  0.04
      P1  H 10752 10764       L1     1  0.91

> <Gold.Chemscore.Hbond.Weighted>
-9.2116

> <Gold.Chemscore.Metal.Weighted>
-0.0000

> <Gold.Chemscore.Lipo.Weighted>
-8.9610

> <Gold.Chemscore.Internal_Hbond.Weighted>
0.0000

> <Gold.Chemscore.DEClash.Weighted>
0.3970

> <Gold.Chemscore.DEInternal.Weighted>
3.1268

> <Gold.Chemscore.Rot.Weighted>
4.3930

> <Gold.Chemscore.Internal.Correction.Weighted>
   9.000000E+99

> <Gold.Protein.RotatedTorsions>
[ 6907 6896 6895 6894 ] final -150.01 input  -60.11 | X-H torsion
[ 7974 7965 7964 7962 ] final   38.34 input  175.53 | X-H torsion
[ 8008 7997 7996 7995 ] final -157.44 input   59.86 | X-H torsion
[ 10167 10162 10161 10158 ] final  100.57 input  -65.29 | X-H torsion
[ 10718 10713 10712 10709 ] final   77.58 input   66.30 | X-H torsion
[ 10763 10752 10751 10750 ] final  -86.26 input  -60.55 | X-H torsion
[ 11005 11000 10999 10996 ] final  -22.03 input  -57.11 | X-H torsion

> <Gold.Protein.ActiveResidues>
 VAL166  LYS551  ARG553  GLY616  TRP617  ASP618  TYR619  PRO620  LYS621  CYS622 
 ASP623  PHE694  ASN695  SER759  ASP760  ASP761  ALA762  ILE779  LEU786  VAL792 
 PHE793  MET794  SER795  GLU796  ALA797  LYS798  CYS799  TRP800  GLU811  SER814 

> <Gold.Protein.RotatedAtoms>
  151.1924  133.4659  159.2594 H   0  0  0  0  0  0  0  0  0  0  0  0  # atno 6907 bound_to 6896
  151.1151  135.0048  159.8522 H   0  0  0  0  0  0  0  0  0  0  0  0  # atno 6908 bound_to 6896
  152.5453  134.1840  159.8700 H   0  0  0  0  0  0  0  0  0  0  0  0  # atno 6909 bound_to 6896
  146.1069  139.5784  142.9378 H   0  0  0  0  0  0  0  0  0  0  0  0  # atno 7974 bound_to 7965
  155.7325  140.0804  157.2282 H   0  0  0  0  0  0  0  0  0  0  0  0  # atno 8008 bound_to 7997
  154.4031  140.1592  156.2579 H   0  0  0  0  0  0  0  0  0  0  0  0  # atno 8009 bound_to 7997
  155.9096  140.3405  155.6091 H   0  0  0  0  0  0  0  0  0  0  0  0  # atno 8010 bound_to 7997
  139.7515  144.6982  151.0424 H   0  0  0  0  0  0  0  0  0  0  0  0  # atno 10167 bound_to 10162
  157.6715  130.9828  150.1661 H   0  0  0  0  0  0  0  0  0  0  0  0  # atno 10718 bound_to 10713
  154.6204  135.5455  153.7569 H   0  0  0  0  0  0  0  0  0  0  0  0  # atno 10763 bound_to 10752
  153.0236  135.6411  154.1448 H   0  0  0  0  0  0  0  0  0  0  0  0  # atno 10764 bound_to 10752
  154.1383  135.2910  155.3147 H   0  0  0  0  0  0  0  0  0  0  0  0  # atno 10765 bound_to 10752
  140.8618  133.7782  156.0084 H   0  0  0  0  0  0  0  0  0  0  0  0  # atno 11005 bound_to 11000
  145.5743  141.0390  143.2157 LP  0  0  0  0  0  0  0  0  0  0  0  0  # atno 17320 bound_to 7965
  144.7478  139.7273  143.7285 LP  0  0  0  0  0  0  0  0  0  0  0  0  # atno 17321 bound_to 7965
  140.7798  143.4803  151.0027 LP  0  0  0  0  0  0  0  0  0  0  0  0  # atno 17342 bound_to 10162
  139.8490  143.7463  152.3178 LP  0  0  0  0  0  0  0  0  0  0  0  0  # atno 17343 bound_to 10162
  156.2426  130.3692  149.8320 LP  0  0  0  0  0  0  0  0  0  0  0  0  # atno 17370 bound_to 10713
  156.6115  130.8589  151.3455 LP  0  0  0  0  0  0  0  0  0  0  0  0  # atno 17371 bound_to 10713
  140.8674  134.2768  157.5207 LP  0  0  0  0  0  0  0  0  0  0  0  0  # atno 17394 bound_to 11000
  139.8707  134.9549  156.4191 LP  0  0  0  0  0  0  0  0  0  0  0  0  # atno 17395 bound_to 11000

$$$$
