AV-unprocessed.smi:2772|AV-procd|sdf|10673|dock7
  -GOLD-   2272015123D 1   1.00000     0.00000
 Structure written by MMmdl.
 56 58  0  0  0  0  0  0  0  0  4 V2000
  143.6487  132.3677  149.5541 C   0  0  0  0  0  0  0  0  0  0  0  0
  144.4403  133.4240  150.2956 C   0  0  0  0  0  0  0  0  0  0  0  0
  145.7893  133.2376  150.6630 C   0  0  0  0  0  0  0  0  0  0  0  0
  146.4631  134.2667  151.3523 C   0  0  0  0  0  0  0  0  0  0  0  0
  145.7855  135.4679  151.6564 C   0  0  0  0  0  0  0  0  0  0  0  0
  146.5030  136.4720  152.3625 N   0  0  0  0  0  0  0  0  0  0  0  0
  146.0751  137.6833  152.7591 C   0  0  0  0  0  0  0  0  0  0  0  0
  144.9521  138.1417  152.5532 O   0  0  0  0  0  0  0  0  0  0  0  0
  147.0434  138.3502  153.4036 N   0  0  0  0  0  0  0  0  0  0  0  0
  146.9296  139.6973  153.9575 C   0  0  2  0  0  0  0  0  0  0  0  0
  147.9723  140.6226  153.3026 C   0  0  0  0  0  0  0  0  0  0  0  0
  148.0064  142.0007  153.9917 C   0  0  0  0  0  0  0  0  0  0  0  0
  148.2719  141.8835  155.4547 N   0  3  2  0  0  0  0  0  0  0  0  0
  149.6739  141.4826  155.8249 C   0  0  2  0  0  0  0  0  0  0  0  0
  150.0729  140.1123  155.2198 C   0  0  0  0  0  0  0  0  0  0  0  0
  151.4747  139.6571  155.6604 C   0  0  0  0  0  0  0  0  0  0  0  0
  151.5793  139.5994  157.1362 N   0  3  1  0  0  0  0  0  0  0  0  0
  152.8736  139.0459  157.5899 C   0  0  0  0  0  0  0  0  0  0  0  0
  151.2803  140.9140  157.7481 C   0  0  0  0  0  0  0  0  0  0  0  0
  149.8734  141.4008  157.3599 C   0  0  0  0  0  0  0  0  0  0  0  0
  147.1878  141.0719  156.0796 C   0  0  0  0  0  0  0  0  0  0  0  0
  147.1205  139.6518  155.4849 C   0  0  0  0  0  0  0  0  0  0  0  0
  144.4269  135.5901  151.2715 C   0  0  0  0  0  0  0  0  0  0  0  0
  143.8171  134.5799  150.6137 N   0  3  0  0  0  0  0  0  0  0  0  0
  144.2638  131.4930  149.3410 H   0  0  0  0  0  0  0  0  0  0  0  0
  143.2805  132.7630  148.6069 H   0  0  0  0  0  0  0  0  0  0  0  0
  142.7937  132.0459  150.1492 H   0  0  0  0  0  0  0  0  0  0  0  0
  146.3042  132.3188  150.4221 H   0  0  0  0  0  0  0  0  0  0  0  0
  147.4962  134.1327  151.6392 H   0  0  0  0  0  0  0  0  0  0  0  0
  147.4740  136.2636  152.5440 H   0  0  0  0  0  0  0  0  0  0  0  0
  147.9337  137.8884  153.5194 H   0  0  0  0  0  0  0  0  0  0  0  0
  145.9404  140.1131  153.7570 H   0  0  0  0  0  0  0  0  0  0  0  0
  148.9613  140.1644  153.3380 H   0  0  0  0  0  0  0  0  0  0  0  0
  147.7368  140.7492  152.2451 H   0  0  0  0  0  0  0  0  0  0  0  0
  148.7083  142.6678  153.4964 H   0  0  0  0  0  0  0  0  0  0  0  0
  147.0362  142.4827  153.8619 H   0  0  0  0  0  0  0  0  0  0  0  0
  150.3666  142.2303  155.4385 H   0  0  0  0  0  0  0  0  0  0  0  0
  149.3391  139.3552  155.5005 H   0  0  0  0  0  0  0  0  0  0  0  0
  150.0829  140.1522  154.1317 H   0  0  0  0  0  0  0  0  0  0  0  0
  151.6847  138.6719  155.2415 H   0  0  0  0  0  0  0  0  0  0  0  0
  152.2319  140.3366  155.2657 H   0  0  0  0  0  0  0  0  0  0  0  0
  153.7033  139.6842  157.2828 H   0  0  0  0  0  0  0  0  0  0  0  0
  153.0344  138.0511  157.1730 H   0  0  0  0  0  0  0  0  0  0  0  0
  152.8945  138.9564  158.6766 H   0  0  0  0  0  0  0  0  0  0  0  0
  151.3502  140.8348  158.8339 H   0  0  0  0  0  0  0  0  0  0  0  0
  152.0297  141.6429  157.4352 H   0  0  0  0  0  0  0  0  0  0  0  0
  149.7378  142.3756  157.8261 H   0  0  0  0  0  0  0  0  0  0  0  0
  149.1254  140.7371  157.7962 H   0  0  0  0  0  0  0  0  0  0  0  0
  147.2688  141.0387  157.1640 H   0  0  0  0  0  0  0  0  0  0  0  0
  146.2379  141.5762  155.8945 H   0  0  0  0  0  0  0  0  0  0  0  0
  146.2952  139.1038  155.9413 H   0  0  0  0  0  0  0  0  0  0  0  0
  148.0258  139.0992  155.7380 H   0  0  0  0  0  0  0  0  0  0  0  0
  143.7971  136.4439  151.4694 H   0  0  0  0  0  0  0  0  0  0  0  0
  148.1578  142.8164  155.8257 H   0  0  0  0  0  0  0  0  0  0  0  0
  150.8677  138.9576  157.4564 H   0  0  0  0  0  0  0  0  0  0  0  0
  142.8391  134.6955  150.3471 H   0  0  0  0  0  0  0  0  0  0  0  0
  1  2  1  0  0  0  0
  1 25  1  0  0  0  0
  1 26  1  0  0  0  0
  1 27  1  0  0  0  0
  2 24  1  0  0  0  0
  2  3  2  0  0  0  0
  3  4  1  0  0  0  0
  3 28  1  0  0  0  0
  4  5  2  0  0  0  0
  4 29  1  0  0  0  0
  5  6  1  0  0  0  0
  5 23  1  0  0  0  0
  6  7  1  0  0  0  0
  6 30  1  0  0  0  0
  7  8  2  0  0  0  0
  7  9  1  0  0  0  0
  9 10  1  0  0  0  0
  9 31  1  0  0  0  0
 10 22  1  0  0  0  0
 10 11  1  0  0  0  0
 10 32  1  0  0  0  0
 11 12  1  0  0  0  0
 11 33  1  0  0  0  0
 11 34  1  0  0  0  0
 12 13  1  0  0  0  0
 12 35  1  0  0  0  0
 12 36  1  0  0  0  0
 13 14  1  0  0  0  0
 13 21  1  0  0  0  0
 13 54  1  0  0  0  0
 14 20  1  0  0  0  0
 14 15  1  0  0  0  0
 14 37  1  0  0  0  0
 15 16  1  0  0  0  0
 15 38  1  0  0  0  0
 15 39  1  0  0  0  0
 16 17  1  0  0  0  0
 16 40  1  0  0  0  0
 16 41  1  0  0  0  0
 17 18  1  0  0  0  0
 17 19  1  0  0  0  0
 17 55  1  0  0  0  0
 18 42  1  0  0  0  0
 18 43  1  0  0  0  0
 18 44  1  0  0  0  0
 19 20  1  0  0  0  0
 19 45  1  0  0  0  0
 19 46  1  0  0  0  0
 20 47  1  0  0  0  0
 20 48  1  0  0  0  0
 21 22  1  0  0  0  0
 21 49  1  0  0  0  0
 21 50  1  0  0  0  0
 22 51  1  0  0  0  0
 22 52  1  0  0  0  0
 23 24  2  0  0  0  0
 23 53  1  0  0  0  0
 24 56  1  0  0  0  0
M  CHG  1  13   1
M  CHG  1  17   1
M  CHG  1  24   1
M  END
> <s_m_source_file>
AV-unprocessed.smi

> <i_m_source_file_index>
2772

> <i_lp_mmshare_version>
43012

> <i_f3d_flags>
0

> <s_epik_input>
W0NIM11jMVtjSF1bY0hdYyhbY0hdbjEpW05IXUMoPU8pW05IXVtDSF0yW0NIMl1bQ0gyXU4oW0NIMl1bQ0gyXTIpW0NIXTNbQ0gyXVtDSDJdTihbQ0gzXSlbQ0gyXVtDSDJdMw==

> <s_epik_cmdline>
J2VwaWtfcHl0aG9uJywgJy1waCcsICc3LjAnLCAnLXRuJywgJzgnLCAnLW1hJywgJzIwMCcsICctbWV0YWxfYmluZGluZycsICctaW1hZScsICc8aW5maWxlLm1hZT4nLCAnLW9tYWUnLCAnPG91dGZpbGUubWFlPic=

> <r_epik_Ionization_Penalty>
2.34117

> <r_epik_Ionization_Penalty_Charging>
2.34115

> <r_epik_Ionization_Penalty_Neutral>
2.22786e-05

> <r_epik_State_Penalty>
2.43944

> <r_epik_Charging_Adjusted_Penalty>
4.78059

> <i_epik_Tot_Q>
3

> <i_epik_Tot_abs_Q>
3

> <r_epik_Metal_State_Penalty>
2.45906

> <b_epik_Metal_Only>
0

> <s_lp_Force_Field>
OPLS_2005

> <r_lp_Energy>
52.8488

> <b_lp_Chiralities_Consistent>
1

> <s_lp_Variant>
AV-unprocessed.smi:2772-10

> <Gold.Version>
5.8.1

> <Gold.Id.Protein>
6NUR|6NUR_protein|mol2

> <Gold.PLP.Fitness>
43.6391

> <Gold.PLP.PLP>
-33.5759

> <Gold.PLP.part.hbond>
-3.2316

> <Gold.PLP.part.metal>
0.0000

> <Gold.PLP.part.buried>
-0.5264

> <Gold.PLP.part.nonpolar>
-33.1679

> <Gold.PLP.part.repulsive>
4.2948

> <Gold.PLP.ligand.clash>
3.6259

> <Gold.PLP.ligand.torsion>
0.0407

> <Gold.PLP.Chemscore.Hbond>
4.5760

> <Gold.PLP.Chemscore.CHOScore>
0.0000

> <Gold.PLP.Chemscore.Metal>
0.0000

> <Gold.Chemscore.Hbonds>
donor molecule, donor type, donor heavy atom, donor atom, acceptor molecule, acceptor atom, score
      L1  H     6    30       P1  7948  0.85
      L1  H    13    54       P1  8028  1.70
      L1  H    24    56       P1 10186  2.00

> <Gold.PLP.Chemscore.Internal.Correction>
0.0425

> <Gold.Rescore>
     Score         DG    S(hbond)    S(metal)    S(lipo)     H(rot)  DE(clash)    DE(int)     intcor
     14.13     -20.97       1.98        0.00     102.60       1.22       3.20       3.64       ----

> <Gold.Chemscore.Fitness>
14.1275

> <Gold.Chemscore.DG>
-20.9678

> <Gold.Chemscore.ZeroCoef>
-5.4800

> <Gold.Chemscore.Hbond>
1.9798

> <Gold.Chemscore.Metal>
0.0000

> <Gold.Chemscore.Lipo>
102.5984

> <Gold.Chemscore.Internal_Hbond>
0.0000

> <Gold.Chemscore.DEClash>
3.2041

> <Gold.Chemscore.DEInternal>
3.6362

> <Gold.Chemscore.Rot>
1.2222

> <Gold.Chemscore.Internal.Correction>
   9.000000E+99

> <Gold.Chemscore.Hbonds>
donor molecule, donor type, donor heavy atom, donor atom, acceptor molecule, acceptor atom, score
      L1  H     6    30       P1  7948  0.84
      L1  H    13    54       P1  8028  0.70
      L1  H    24    56       P1 10186  0.38

> <Gold.Chemscore.Hbond.Weighted>
-6.6126

> <Gold.Chemscore.Metal.Weighted>
-0.0000

> <Gold.Chemscore.Lipo.Weighted>
-12.0040

> <Gold.Chemscore.Internal_Hbond.Weighted>
0.0000

> <Gold.Chemscore.DEClash.Weighted>
3.2041

> <Gold.Chemscore.DEInternal.Weighted>
3.6362

> <Gold.Chemscore.Rot.Weighted>
3.1289

> <Gold.Chemscore.Internal.Correction.Weighted>
   9.000000E+99

> <Gold.Protein.RotatedTorsions>
[ 6907 6896 6895 6894 ] final   55.21 input  -60.11 | X-H torsion
[ 7974 7965 7964 7962 ] final -132.54 input  175.53 | X-H torsion
[ 8008 7997 7996 7995 ] final -105.56 input   59.86 | X-H torsion
[ 10167 10162 10161 10158 ] final  -57.29 input  -65.29 | X-H torsion
[ 10718 10713 10712 10709 ] final   -7.81 input   66.30 | X-H torsion
[ 10763 10752 10751 10750 ] final  164.97 input  -60.55 | X-H torsion
[ 11005 11000 10999 10996 ] final    5.25 input  -57.11 | X-H torsion

> <Gold.Protein.ActiveResidues>
 VAL166  LYS551  ARG553  GLY616  TRP617  ASP618  TYR619  PRO620  LYS621  CYS622 
 ASP623  PHE694  ASN695  SER759  ASP760  ASP761  ALA762  ILE779  LEU786  VAL792 
 PHE793  MET794  SER795  GLU796  ALA797  LYS798  CYS799  TRP800  GLU811  SER814 

> <Gold.Protein.RotatedAtoms>
  152.3516  134.6997  160.0234 H   0  0  0  0  0  0  0  0  0  0  0  0  # atno 6907 bound_to 6896
  151.7349  133.3314  159.3358 H   0  0  0  0  0  0  0  0  0  0  0  0  # atno 6908 bound_to 6896
  150.7544  134.6263  159.6207 H   0  0  0  0  0  0  0  0  0  0  0  0  # atno 6909 bound_to 6896
  144.9276  140.7089  143.4926 H   0  0  0  0  0  0  0  0  0  0  0  0  # atno 7974 bound_to 7965
  154.9016  140.0412  157.1896 H   0  0  0  0  0  0  0  0  0  0  0  0  # atno 8008 bound_to 7997
  154.8438  140.2918  155.5621 H   0  0  0  0  0  0  0  0  0  0  0  0  # atno 8009 bound_to 7997
  156.2993  140.2477  156.3385 H   0  0  0  0  0  0  0  0  0  0  0  0  # atno 8010 bound_to 7997
  140.6267  143.2441  151.5346 H   0  0  0  0  0  0  0  0  0  0  0  0  # atno 10167 bound_to 10162
  156.7118  130.5124  149.5890 H   0  0  0  0  0  0  0  0  0  0  0  0  # atno 10718 bound_to 10713
  154.3170  135.2756  155.2538 H   0  0  0  0  0  0  0  0  0  0  0  0  # atno 10763 bound_to 10752
  154.4908  135.5834  153.6461 H   0  0  0  0  0  0  0  0  0  0  0  0  # atno 10764 bound_to 10752
  152.9881  135.6134  154.3352 H   0  0  0  0  0  0  0  0  0  0  0  0  # atno 10765 bound_to 10752
  140.5728  134.0086  155.8016 H   0  0  0  0  0  0  0  0  0  0  0  0  # atno 11005 bound_to 11000
  145.3194  139.1793  143.4596 LP  0  0  0  0  0  0  0  0  0  0  0  0  # atno 17320 bound_to 7965
  146.3233  140.3210  142.8633 LP  0  0  0  0  0  0  0  0  0  0  0  0  # atno 17321 bound_to 7965
  139.5486  144.2454  152.1489 LP  0  0  0  0  0  0  0  0  0  0  0  0  # atno 17342 bound_to 10162
  140.1688  144.4956  150.6591 LP  0  0  0  0  0  0  0  0  0  0  0  0  # atno 17343 bound_to 10162
  156.1656  130.6403  151.0773 LP  0  0  0  0  0  0  0  0  0  0  0  0  # atno 17370 bound_to 10713
  157.6933  131.0802  150.7044 LP  0  0  0  0  0  0  0  0  0  0  0  0  # atno 17371 bound_to 10713
  141.1045  133.9715  157.3021 LP  0  0  0  0  0  0  0  0  0  0  0  0  # atno 17394 bound_to 11000
  139.9353  135.0197  156.8536 LP  0  0  0  0  0  0  0  0  0  0  0  0  # atno 17395 bound_to 11000

$$$$
