AV-unprocessed.smi:2692|AV-procd|sdf|10394|dock6
  -GOLD-   2272014433D 1   1.00000     0.00000
 Structure written by MMmdl.
 21 21  0  0  0  0  0  0  0  0  4 V2000
  143.3395  133.5821  148.0464 N   0  3  0  0  0  0  0  0  0  0  0  0
  144.0710  132.5046  148.7339 C   0  0  0  0  0  0  0  0  0  0  0  0
  143.8438  132.5533  150.2519 C   0  0  0  0  0  0  0  0  0  0  0  0
  145.1460  132.6399  151.0244 C   0  0  0  0  0  0  0  0  0  0  0  0
  145.8990  133.8347  151.0412 C   0  0  0  0  0  0  0  0  0  0  0  0
  147.0552  133.8942  151.7386 N   0  3  0  0  0  0  0  0  0  0  0  0
  147.5424  132.8475  152.4396 C   0  0  0  0  0  0  0  0  0  0  0  0
  146.8342  131.6293  152.4599 C   0  0  0  0  0  0  0  0  0  0  0  0
  147.3125  130.5655  153.1652 O   0  5  0  0  0  0  0  0  0  0  0  0
  145.6250  131.5224  151.7430 C   0  0  0  0  0  0  0  0  0  0  0  0
  142.8769  133.2075  147.2302 H   0  0  0  0  0  0  0  0  0  0  0  0
  143.9879  134.3026  147.7619 H   0  0  0  0  0  0  0  0  0  0  0  0
  143.7425  131.5457  148.3315 H   0  0  0  0  0  0  0  0  0  0  0  0
  145.1323  132.6040  148.5036 H   0  0  0  0  0  0  0  0  0  0  0  0
  143.2278  133.4154  150.5120 H   0  0  0  0  0  0  0  0  0  0  0  0
  143.2921  131.6700  150.5771 H   0  0  0  0  0  0  0  0  0  0  0  0
  145.6162  134.7391  150.5224 H   0  0  0  0  0  0  0  0  0  0  0  0
  148.4751  133.0152  152.9583 H   0  0  0  0  0  0  0  0  0  0  0  0
  147.5846  134.7661  151.7374 H   0  0  0  0  0  0  0  0  0  0  0  0
  145.0713  130.5945  151.7474 H   0  0  0  0  0  0  0  0  0  0  0  0
  142.6510  133.9769  148.6710 H   0  0  0  0  0  0  0  0  0  0  0  0
  1  2  1  0  0  0  0
  1 11  1  0  0  0  0
  1 12  1  0  0  0  0
  1 21  1  0  0  0  0
  2  3  1  0  0  0  0
  2 13  1  0  0  0  0
  2 14  1  0  0  0  0
  3 15  1  0  0  0  0
  3 16  1  0  0  0  0
  3  4  1  0  0  0  0
  4  5  1  0  0  0  0
  4 10  2  0  0  0  0
  5  6  2  0  0  0  0
  5 17  1  0  0  0  0
  6  7  1  0  0  0  0
  6 19  1  0  0  0  0
  7  8  2  0  0  0  0
  7 18  1  0  0  0  0
  8  9  1  0  0  0  0
  8 10  1  0  0  0  0
 10 20  1  0  0  0  0
M  CHG  1   1   1
M  CHG  1   6   1
M  CHG  1   9  -1
M  END
> <s_m_source_file>
AV-unprocessed.smi

> <i_m_source_file_index>
2692

> <i_lp_mmshare_version>
43012

> <i_f3d_flags>
0

> <s_epik_input>
W05IMl1bQ0gyXVtDSDJdYzFbY0hdbltjSF1jKFtPSF0pW2NIXTE=

> <s_epik_cmdline>
J2VwaWtfcHl0aG9uJywgJy1waCcsICc3LjAnLCAnLXRuJywgJzgnLCAnLW1hJywgJzIwMCcsICctbWV0YWxfYmluZGluZycsICctaW1hZScsICc8aW5maWxlLm1hZT4nLCAnLW9tYWUnLCAnPG91dGZpbGUubWFlPic=

> <r_lp_tautomer_probability>
0.56342

> <r_epik_Ionization_Penalty>
0.0470523

> <r_epik_Ionization_Penalty_Charging>
0.0470523

> <r_epik_Ionization_Penalty_Neutral>
0

> <r_epik_State_Penalty>
0.376149

> <r_epik_Charging_Adjusted_Penalty>
0.423201

> <i_epik_Tot_Q>
1

> <i_epik_Tot_abs_Q>
3

> <r_epik_Metal_State_Penalty>
2.7829

> <b_epik_Metal_Only>
0

> <s_lp_Force_Field>
OPLS_2005

> <r_lp_Energy>
5.09983

> <b_lp_Chiralities_Consistent>
1

> <s_lp_Variant>
AV-unprocessed.smi:2692-1

> <Gold.Version>
5.8.1

> <Gold.Id.Protein>
6NUR|6NUR_protein|mol2

> <Gold.PLP.Fitness>
39.3446

> <Gold.PLP.PLP>
-22.6694

> <Gold.PLP.part.hbond>
-4.0000

> <Gold.PLP.part.metal>
0.0000

> <Gold.PLP.part.buried>
-3.6087

> <Gold.PLP.part.nonpolar>
-15.7658

> <Gold.PLP.part.repulsive>
0.3737

> <Gold.PLP.ligand.clash>
0.0000

> <Gold.PLP.ligand.torsion>
0.5163

> <Gold.PLP.Chemscore.Hbond>
5.9025

> <Gold.PLP.Chemscore.CHOScore>
0.0000

> <Gold.PLP.Chemscore.Metal>
0.0000

> <Gold.Chemscore.Hbonds>
donor molecule, donor type, donor heavy atom, donor atom, acceptor molecule, acceptor atom, score
      L1  H     1    11       P1 10195  1.00
      L1  H     1    12       P1  7921  0.54
      L1  H     1    21       P1 10186  2.00
      L1  H     6    19       P1  7948  2.00

> <Gold.PLP.Chemscore.Internal.Correction>
0.0002

> <Gold.Rescore>
     Score         DG    S(hbond)    S(metal)    S(lipo)     H(rot)  DE(clash)    DE(int)     intcor
     19.52     -20.11       3.53        0.00      54.08       1.36       0.05       0.55       ----

> <Gold.Chemscore.Fitness>
19.5178

> <Gold.Chemscore.DG>
-20.1146

> <Gold.Chemscore.ZeroCoef>
-5.4800

> <Gold.Chemscore.Hbond>
3.5330

> <Gold.Chemscore.Metal>
0.0000

> <Gold.Chemscore.Lipo>
54.0843

> <Gold.Chemscore.Internal_Hbond>
0.0000

> <Gold.Chemscore.DEClash>
0.0515

> <Gold.Chemscore.DEInternal>
0.5453

> <Gold.Chemscore.Rot>
1.3646

> <Gold.Chemscore.Internal.Correction>
   9.000000E+99

> <Gold.Chemscore.Hbonds>
donor molecule, donor type, donor heavy atom, donor atom, acceptor molecule, acceptor atom, score
      L1  H     1    11       P1 10195  0.94
      L1  H     1    12       P1  7921  0.54
      L1  H     1    21       P1 10186  1.00
      L1  H     6    19       P1  7948  0.49

> <Gold.Chemscore.Hbond.Weighted>
-11.8001

> <Gold.Chemscore.Metal.Weighted>
-0.0000

> <Gold.Chemscore.Lipo.Weighted>
-6.3279

> <Gold.Chemscore.Internal_Hbond.Weighted>
0.0000

> <Gold.Chemscore.DEClash.Weighted>
0.0515

> <Gold.Chemscore.DEInternal.Weighted>
0.5453

> <Gold.Chemscore.Rot.Weighted>
3.4934

> <Gold.Chemscore.Internal.Correction.Weighted>
   9.000000E+99

> <Gold.Protein.RotatedTorsions>
[ 6907 6896 6895 6894 ] final   71.04 input  -60.11 | X-H torsion
[ 7974 7965 7964 7962 ] final  103.96 input  175.53 | X-H torsion
[ 8008 7997 7996 7995 ] final -150.20 input   59.86 | X-H torsion
[ 10167 10162 10161 10158 ] final   92.26 input  -65.29 | X-H torsion
[ 10718 10713 10712 10709 ] final  -30.74 input   66.30 | X-H torsion
[ 10763 10752 10751 10750 ] final -132.22 input  -60.55 | X-H torsion
[ 11005 11000 10999 10996 ] final -128.49 input  -57.11 | X-H torsion

> <Gold.Protein.ActiveResidues>
 VAL166  LYS551  ARG553  GLY616  TRP617  ASP618  TYR619  PRO620  LYS621  CYS622 
 ASP623  PHE694  ASN695  SER759  ASP760  ASP761  ALA762  ILE779  LEU786  VAL792 
 PHE793  MET794  SER795  GLU796  ALA797  LYS798  CYS799  TRP800  GLU811  SER814 

> <Gold.Protein.RotatedAtoms>
  152.4786  134.4778  159.9655 H   0  0  0  0  0  0  0  0  0  0  0  0  # atno 6907 bound_to 6896
  151.4789  133.3545  159.2843 H   0  0  0  0  0  0  0  0  0  0  0  0  # atno 6908 bound_to 6896
  150.8842  134.8264  159.7308 H   0  0  0  0  0  0  0  0  0  0  0  0  # atno 6909 bound_to 6896
  145.3390  139.2467  143.3620 H   0  0  0  0  0  0  0  0  0  0  0  0  # atno 7974 bound_to 7965
  155.6197  140.0680  157.2682 H   0  0  0  0  0  0  0  0  0  0  0  0  # atno 8008 bound_to 7997
  154.4232  140.1786  156.1407 H   0  0  0  0  0  0  0  0  0  0  0  0  # atno 8009 bound_to 7997
  156.0019  140.3335  155.6857 H   0  0  0  0  0  0  0  0  0  0  0  0  # atno 8010 bound_to 7997
  139.8294  144.6694  150.9419 H   0  0  0  0  0  0  0  0  0  0  0  0  # atno 10167 bound_to 10162
  156.3960  130.4381  149.7358 H   0  0  0  0  0  0  0  0  0  0  0  0  # atno 10718 bound_to 10713
  154.8745  135.3805  154.4374 H   0  0  0  0  0  0  0  0  0  0  0  0  # atno 10763 bound_to 10752
  153.5062  135.7030  153.5810 H   0  0  0  0  0  0  0  0  0  0  0  0  # atno 10764 bound_to 10752
  153.4120  135.3922  155.2023 H   0  0  0  0  0  0  0  0  0  0  0  0  # atno 10765 bound_to 10752
  140.9511  134.1063  157.4060 H   0  0  0  0  0  0  0  0  0  0  0  0  # atno 11005 bound_to 11000
  146.3015  140.3984  142.8702 LP  0  0  0  0  0  0  0  0  0  0  0  0  # atno 17320 bound_to 7965
  144.8805  140.7394  143.5990 LP  0  0  0  0  0  0  0  0  0  0  0  0  # atno 17321 bound_to 7965
  140.7808  143.4015  151.1140 LP  0  0  0  0  0  0  0  0  0  0  0  0  # atno 17342 bound_to 10162
  139.7670  143.8550  152.3113 LP  0  0  0  0  0  0  0  0  0  0  0  0  # atno 17343 bound_to 10162
  156.4393  130.7853  151.2874 LP  0  0  0  0  0  0  0  0  0  0  0  0  # atno 17370 bound_to 10713
  157.7501  131.0130  150.3406 LP  0  0  0  0  0  0  0  0  0  0  0  0  # atno 17371 bound_to 10713
  139.8848  135.0066  156.6392 LP  0  0  0  0  0  0  0  0  0  0  0  0  # atno 17394 bound_to 11000
  140.7600  133.8825  155.8411 LP  0  0  0  0  0  0  0  0  0  0  0  0  # atno 17395 bound_to 11000

$$$$
