AV-unprocessed.smi:298|AV-procd|sdf|2261|dock1
  -GOLD-   2262022143D 1   1.00000     0.00000
 Structure written by MMmdl.
 38 40  0  0  0  0  0  0  0  0  1 V2000
  153.2177  142.8355  161.6532 C   0  0  0  0  0  0  0  0  0  0  0  0
  152.6232  142.4688  160.3048 C   0  0  0  0  0  0  0  0  0  0  0  0
  152.9701  141.2326  159.7143 C   0  0  0  0  0  0  0  0  0  0  0  0
  152.4389  140.8538  158.4620 C   0  0  0  0  0  0  0  0  0  0  0  0
  152.6392  139.7087  157.7102 N   0  0  0  0  0  0  0  0  0  0  0  0
  151.8750  139.9486  156.6486 C   0  0  0  0  0  0  0  0  0  0  0  0
  151.2024  141.1155  156.6235 N   0  0  0  0  0  0  0  0  0  0  0  0
  150.3204  141.5978  155.5756 C   0  0  0  0  0  0  0  0  0  0  0  0
  149.5282  140.4640  154.8976 C   0  0  2  0  0  0  0  0  0  0  0  0
  150.3504  139.8014  153.9542 O   0  0  0  0  0  0  0  0  0  0  0  0
  148.2578  140.9899  154.2029 C   0  0  0  0  0  0  0  0  0  0  0  0
  147.2287  141.3849  155.1468 N   0  0  0  0  0  0  0  0  0  0  0  0
  145.9360  141.6684  154.9575 C   0  0  0  0  0  0  0  0  0  0  0  0
  145.2878  141.9979  156.0681 N   0  0  0  0  0  0  0  0  0  0  0  0
  146.3185  141.8854  156.9556 C   0  0  0  0  0  0  0  0  0  0  0  0
  146.1335  142.1521  158.3718 C   0  0  0  0  0  0  0  0  0  0  0  0
  145.9863  142.3648  159.4998 N   0  0  0  0  0  0  0  0  0  0  0  0
  147.5028  141.5241  156.4664 N   0  0  0  0  0  0  0  0  0  0  0  0
  151.5456  141.7535  157.8105 C   0  0  0  0  0  0  0  0  0  0  0  0
  151.1924  142.9860  158.3876 C   0  0  0  0  0  0  0  0  0  0  0  0
  151.7302  143.3479  159.6405 C   0  0  0  0  0  0  0  0  0  0  0  0
  151.3392  144.6789  160.2579 C   0  0  0  0  0  0  0  0  0  0  0  0
  153.8999  142.0637  162.0106 H   0  0  0  0  0  0  0  0  0  0  0  0
  152.4301  142.9568  162.3971 H   0  0  0  0  0  0  0  0  0  0  0  0
  153.7770  143.7685  161.5842 H   0  0  0  0  0  0  0  0  0  0  0  0
  153.6498  140.5622  160.2197 H   0  0  0  0  0  0  0  0  0  0  0  0
  151.7990  139.2344  155.8418 H   0  0  0  0  0  0  0  0  0  0  0  0
  149.6354  142.3221  156.0179 H   0  0  0  0  0  0  0  0  0  0  0  0
  150.9153  142.1408  154.8395 H   0  0  0  0  0  0  0  0  0  0  0  0
  149.2401  139.7330  155.6544 H   0  0  0  0  0  0  0  0  0  0  0  0
  149.8787  139.7326  153.1384 H   0  0  0  0  0  0  0  0  0  0  0  0
  148.4991  141.8532  153.5809 H   0  0  0  0  0  0  0  0  0  0  0  0
  147.8443  140.2317  153.5362 H   0  0  0  0  0  0  0  0  0  0  0  0
  145.4601  141.6316  153.9887 H   0  0  0  0  0  0  0  0  0  0  0  0
  150.5119  143.6460  157.8703 H   0  0  0  0  0  0  0  0  0  0  0  0
  150.6610  145.2347  159.6098 H   0  0  0  0  0  0  0  0  0  0  0  0
  152.2214  145.2970  160.4262 H   0  0  0  0  0  0  0  0  0  0  0  0
  150.8371  144.5233  161.2130 H   0  0  0  0  0  0  0  0  0  0  0  0
  1  2  1  0  0  0  0
  1 23  1  0  0  0  0
  1 24  1  0  0  0  0
  1 25  1  0  0  0  0
  2 21  1  0  0  0  0
  2  3  2  0  0  0  0
  3  4  1  0  0  0  0
  3 26  1  0  0  0  0
  4 19  2  0  0  0  0
  4  5  1  0  0  0  0
  5  6  2  0  0  0  0
  6  7  1  0  0  0  0
  6 27  1  0  0  0  0
  7  8  1  0  0  0  0
  7 19  1  0  0  0  0
  8  9  1  0  0  0  0
  8 28  1  0  0  0  0
  8 29  1  0  0  0  0
  9 10  1  0  0  0  0
  9 11  1  0  0  0  0
  9 30  1  0  0  0  0
 10 31  1  0  0  0  0
 11 12  1  0  0  0  0
 11 32  1  0  0  0  0
 11 33  1  0  0  0  0
 12 18  1  0  0  0  0
 12 13  1  0  0  0  0
 13 14  2  0  0  0  0
 13 34  1  0  0  0  0
 14 15  1  0  0  0  0
 15 16  1  0  0  0  0
 15 18  2  0  0  0  0
 16 17  3  0  0  0  0
 19 20  1  0  0  0  0
 20 21  2  0  0  0  0
 20 35  1  0  0  0  0
 21 22  1  0  0  0  0
 22 36  1  0  0  0  0
 22 37  1  0  0  0  0
 22 38  1  0  0  0  0
M  END
> <s_m_source_file>
AV-unprocessed.smi

> <i_m_source_file_index>
298

> <i_lp_mmshare_version>
43012

> <i_f3d_flags>
0

> <s_epik_input>
W0NIM11jKFtjSF0xKWMoW0NIM10pW2NIXWMoYzEyKW4oW2NIXW4yKVtDSDJdW0NASF0oW09IXSlbQ0gyXW4zW2NIXW5jKG4zKUMjTg==

> <s_epik_cmdline>
J2VwaWtfcHl0aG9uJywgJy1waCcsICc3LjAnLCAnLXRuJywgJzgnLCAnLW1hJywgJzIwMCcsICctbWV0YWxfYmluZGluZycsICctaW1hZScsICc8aW5maWxlLm1hZT4nLCAnLW9tYWUnLCAnPG91dGZpbGUubWFlPic=

> <r_epik_Ionization_Penalty>
0.0968684

> <r_epik_Ionization_Penalty_Charging>
0

> <r_epik_Ionization_Penalty_Neutral>
0.0968684

> <r_epik_State_Penalty>
0.0870047

> <r_epik_Charging_Adjusted_Penalty>
0.0870047

> <i_epik_Tot_Q>
0

> <i_epik_Tot_abs_Q>
0

> <r_epik_Metal_State_Penalty>
0.0746849

> <b_epik_Metal_Only>
0

> <s_lp_Force_Field>
OPLS_2005

> <r_lp_Energy>
11.7232

> <b_lp_Chiralities_Consistent>
1

> <s_lp_Variant>
AV-unprocessed.smi:298-1

> <Gold.Version>
5.8.1

> <Gold.Id.Protein>
6NUR|6NUR_protein|mol2

> <Gold.PLP.Fitness>
56.2810

> <Gold.PLP.PLP>
-42.8174

> <Gold.PLP.part.hbond>
-3.9904

> <Gold.PLP.part.metal>
0.0000

> <Gold.PLP.part.buried>
-5.1660

> <Gold.PLP.part.nonpolar>
-33.9238

> <Gold.PLP.part.repulsive>
0.1776

> <Gold.PLP.ligand.clash>
0.0000

> <Gold.PLP.ligand.torsion>
0.7821

> <Gold.PLP.Chemscore.Hbond>
4.0000

> <Gold.PLP.Chemscore.CHOScore>
1.0000

> <Gold.PLP.Chemscore.Metal>
0.0000

> <Gold.Chemscore.Hbonds>
donor molecule, donor type, donor heavy atom, donor atom, acceptor molecule, acceptor atom, score
      L1  H    10    31       P1  7957  1.00
      P1  H  6934  6946       L1    17  0.73
      P1  H  7989  7998       L1    10  1.00
      P1  H  7997  8010       L1     5  0.94
      L1  C    13    34       P1 10175  0.86

> <Gold.PLP.Chemscore.Internal.Correction>
0.0278

> <Gold.Rescore>
     Score         DG    S(hbond)    S(metal)    S(lipo)     H(rot)  DE(clash)    DE(int)     intcor
     16.54     -18.37       2.63        0.00     101.41       3.03       0.04       1.79       ----

> <Gold.Chemscore.Fitness>
16.5390

> <Gold.Chemscore.DG>
-18.3699

> <Gold.Chemscore.ZeroCoef>
-5.4800

> <Gold.Chemscore.Hbond>
2.6304

> <Gold.Chemscore.Metal>
0.0000

> <Gold.Chemscore.Lipo>
101.4117

> <Gold.Chemscore.Internal_Hbond>
0.0000

> <Gold.Chemscore.DEClash>
0.0401

> <Gold.Chemscore.DEInternal>
1.7908

> <Gold.Chemscore.Rot>
3.0316

> <Gold.Chemscore.Internal.Correction>
   9.000000E+99

> <Gold.Chemscore.Hbonds>
donor molecule, donor type, donor heavy atom, donor atom, acceptor molecule, acceptor atom, score
      L1  H    10    31       P1  7957  0.92
      P1  H  6934  6946       L1    17  0.57
      P1  H  7989  7998       L1    10  0.17
      P1  H  7997  8010       L1     5  0.08

> <Gold.Chemscore.Hbond.Weighted>
-8.7856

> <Gold.Chemscore.Metal.Weighted>
-0.0000

> <Gold.Chemscore.Lipo.Weighted>
-11.8652

> <Gold.Chemscore.Internal_Hbond.Weighted>
0.0000

> <Gold.Chemscore.DEClash.Weighted>
0.0401

> <Gold.Chemscore.DEInternal.Weighted>
1.7908

> <Gold.Chemscore.Rot.Weighted>
7.7609

> <Gold.Chemscore.Internal.Correction.Weighted>
   9.000000E+99

> <Gold.Protein.RotatedTorsions>
[ 6907 6896 6895 6894 ] final -167.57 input  -60.11 | X-H torsion
[ 7974 7965 7964 7962 ] final   80.45 input  175.53 | X-H torsion
[ 8008 7997 7996 7995 ] final   43.19 input   59.86 | X-H torsion
[ 10167 10162 10161 10158 ] final    2.06 input  -65.29 | X-H torsion
[ 10718 10713 10712 10709 ] final   59.75 input   66.30 | X-H torsion
[ 10763 10752 10751 10750 ] final  -95.53 input  -60.55 | X-H torsion
[ 11005 11000 10999 10996 ] final  -86.48 input  -57.11 | X-H torsion

> <Gold.Protein.ActiveResidues>
 VAL166  LYS551  ARG553  GLY616  TRP617  ASP618  TYR619  PRO620  LYS621  CYS622 
 ASP623  PHE694  ASN695  SER759  ASP760  ASP761  ALA762  ILE779  LEU786  VAL792 
 PHE793  MET794  SER795  GLU796  ALA797  LYS798  CYS799  TRP800  GLU811  SER814 

> <Gold.Protein.RotatedAtoms>
  151.4616  133.3591  159.2809 H   0  0  0  0  0  0  0  0  0  0  0  0  # atno 6907 bound_to 6896
  150.9021  134.8436  159.7378 H   0  0  0  0  0  0  0  0  0  0  0  0  # atno 6908 bound_to 6896
  152.4885  134.4538  159.9635 H   0  0  0  0  0  0  0  0  0  0  0  0  # atno 6909 bound_to 6896
  145.6510  139.2447  143.1977 H   0  0  0  0  0  0  0  0  0  0  0  0  # atno 7974 bound_to 7965
  155.2986  140.3383  155.4249 H   0  0  0  0  0  0  0  0  0  0  0  0  # atno 8008 bound_to 7997
  156.2012  140.1733  156.7935 H   0  0  0  0  0  0  0  0  0  0  0  0  # atno 8009 bound_to 7997
  154.5561  140.0696  156.8730 H   0  0  0  0  0  0  0  0  0  0  0  0  # atno 8010 bound_to 7997
  140.6653  143.7196  150.7815 H   0  0  0  0  0  0  0  0  0  0  0  0  # atno 10167 bound_to 10162
  157.5700  130.8900  149.9251 H   0  0  0  0  0  0  0  0  0  0  0  0  # atno 10718 bound_to 10713
  154.7157  135.5117  153.8733 H   0  0  0  0  0  0  0  0  0  0  0  0  # atno 10763 bound_to 10752
  153.0818  135.6633  154.0038 H   0  0  0  0  0  0  0  0  0  0  0  0  # atno 10764 bound_to 10752
  153.9871  135.3023  155.3394 H   0  0  0  0  0  0  0  0  0  0  0  0  # atno 10765 bound_to 10752
  141.1629  133.7457  156.9167 H   0  0  0  0  0  0  0  0  0  0  0  0  # atno 11005 bound_to 11000
  146.1204  140.7317  142.9460 LP  0  0  0  0  0  0  0  0  0  0  0  0  # atno 17320 bound_to 7965
  144.7122  140.4082  143.7071 LP  0  0  0  0  0  0  0  0  0  0  0  0  # atno 17321 bound_to 7965
  140.0872  143.4912  152.2498 LP  0  0  0  0  0  0  0  0  0  0  0  0  # atno 17342 bound_to 10162
  139.5900  144.7546  151.3425 LP  0  0  0  0  0  0  0  0  0  0  0  0  # atno 17343 bound_to 10162
  156.0746  130.3680  150.0705 LP  0  0  0  0  0  0  0  0  0  0  0  0  # atno 17370 bound_to 10713
  156.8859  130.9572  151.3594 LP  0  0  0  0  0  0  0  0  0  0  0  0  # atno 17371 bound_to 10713
  140.1479  134.9249  157.2554 LP  0  0  0  0  0  0  0  0  0  0  0  0  # atno 17394 bound_to 11000
  140.2757  134.3408  155.7359 LP  0  0  0  0  0  0  0  0  0  0  0  0  # atno 17395 bound_to 11000

$$$$
