AV-unprocessed.smi:2408|AV-procd|sdf|9521|dock2
  -GOLD-   2272013153D 1   1.00000     0.00000
 Structure written by MMmdl.
 48 50  0  0  0  0  0  0  0  0  2 V2000
  146.4424  142.4158  153.5197 C   0  0  0  0  0  0  0  0  0  0  0  0
  147.6515  141.6592  154.0390 C   0  0  0  0  0  0  0  0  0  0  0  0
  148.5488  142.3492  154.7794 N   0  3  0  0  0  0  0  0  0  0  0  0
  149.6640  141.7919  155.2974 C   0  0  0  0  0  0  0  0  0  0  0  0
  149.9366  140.4299  155.0667 C   0  0  0  0  0  0  0  0  0  0  0  0
  149.0303  139.6678  154.3019 C   0  0  0  0  0  0  0  0  0  0  0  0
  147.8594  140.2805  153.7870 C   0  0  0  0  0  0  0  0  0  0  0  0
  146.9106  139.5781  152.9939 N   0  0  0  0  0  0  0  0  0  0  0  0
  146.4715  138.3192  153.1605 C   0  0  0  0  0  0  0  0  0  0  0  0
  146.8459  137.5539  154.0486 O   0  0  0  0  0  0  0  0  0  0  0  0
  145.5344  138.0053  152.2484 N   0  0  0  0  0  0  0  0  0  0  0  0
  144.7883  136.7396  152.1174 C   0  0  0  0  0  0  0  0  0  0  0  0
  143.3808  136.7914  152.7790 C   0  0  0  0  0  0  0  0  0  0  0  0
  142.7159  135.7607  152.8936 O   0  0  0  0  0  0  0  0  0  0  0  0
  142.9195  137.9829  153.1936 N   0  0  0  0  0  0  0  0  0  0  0  0
  141.6303  138.2044  153.8293 C   0  0  0  0  0  0  0  0  0  0  0  0
  140.4757  137.5330  153.1164 C   0  0  0  0  0  0  0  0  0  0  0  0
  139.0915  137.5413  153.7210 C   0  0  0  0  0  0  0  0  0  0  0  0
  139.8736  136.2517  153.6430 C   0  0  0  0  0  0  0  0  0  0  0  0
  144.6128  136.4344  150.6102 C   0  0  0  0  0  0  0  0  0  0  0  0
  144.7267  134.9186  150.4620 C   0  0  0  0  0  0  0  0  0  0  0  0
  145.7834  134.5304  151.4875 C   0  0  0  0  0  0  0  0  0  0  0  0
  145.6305  135.5329  152.6391 C   0  0  0  0  0  0  0  0  0  0  0  0
  145.5226  141.9579  153.8851 H   0  0  0  0  0  0  0  0  0  0  0  0
  146.4252  142.4014  152.4297 H   0  0  0  0  0  0  0  0  0  0  0  0
  146.4536  143.4570  153.8446 H   0  0  0  0  0  0  0  0  0  0  0  0
  150.3020  142.4490  155.8702 H   0  0  0  0  0  0  0  0  0  0  0  0
  150.8312  139.9748  155.4665 H   0  0  0  0  0  0  0  0  0  0  0  0
  149.2550  138.6291  154.1115 H   0  0  0  0  0  0  0  0  0  0  0  0
  146.4438  140.1233  152.2838 H   0  0  0  0  0  0  0  0  0  0  0  0
  145.3017  138.7152  151.5695 H   0  0  0  0  0  0  0  0  0  0  0  0
  143.5111  138.7906  153.0649 H   0  0  0  0  0  0  0  0  0  0  0  0
  141.6752  137.8521  154.8609 H   0  0  0  0  0  0  0  0  0  0  0  0
  141.4272  139.2757  153.8680 H   0  0  0  0  0  0  0  0  0  0  0  0
  140.5131  137.6353  152.0332 H   0  0  0  0  0  0  0  0  0  0  0  0
  138.9686  137.9940  154.7031 H   0  0  0  0  0  0  0  0  0  0  0  0
  138.2485  137.6605  153.0436 H   0  0  0  0  0  0  0  0  0  0  0  0
  139.5527  135.5114  152.9130 H   0  0  0  0  0  0  0  0  0  0  0  0
  140.2717  135.8485  154.5722 H   0  0  0  0  0  0  0  0  0  0  0  0
  143.6737  136.8080  150.1978 H   0  0  0  0  0  0  0  0  0  0  0  0
  145.4120  136.9008  150.0313 H   0  0  0  0  0  0  0  0  0  0  0  0
  143.7757  134.4468  150.7117 H   0  0  0  0  0  0  0  0  0  0  0  0
  144.9929  134.6139  149.4495 H   0  0  0  0  0  0  0  0  0  0  0  0
  145.6803  133.4964  151.8180 H   0  0  0  0  0  0  0  0  0  0  0  0
  146.7741  134.6363  151.0435 H   0  0  0  0  0  0  0  0  0  0  0  0
  146.6217  135.8280  152.9845 H   0  0  0  0  0  0  0  0  0  0  0  0
  145.1578  135.0445  153.4924 H   0  0  0  0  0  0  0  0  0  0  0  0
  148.3749  143.3390  154.9550 H   0  0  0  0  0  0  0  0  0  0  0  0
  1  2  1  0  0  0  0
  1 24  1  0  0  0  0
  1 25  1  0  0  0  0
  1 26  1  0  0  0  0
  2  7  1  0  0  0  0
  2  3  2  0  0  0  0
  3  4  1  0  0  0  0
  3 48  1  0  0  0  0
  4  5  2  0  0  0  0
  4 27  1  0  0  0  0
  5  6  1  0  0  0  0
  5 28  1  0  0  0  0
  6  7  2  0  0  0  0
  6 29  1  0  0  0  0
  7  8  1  0  0  0  0
  8  9  1  0  0  0  0
  8 30  1  0  0  0  0
  9 10  2  0  0  0  0
  9 11  1  0  0  0  0
 11 12  1  0  0  0  0
 11 31  1  0  0  0  0
 12 23  1  0  0  0  0
 12 13  1  0  0  0  0
 12 20  1  0  0  0  0
 13 14  2  0  0  0  0
 13 15  1  0  0  0  0
 15 16  1  0  0  0  0
 15 32  1  0  0  0  0
 16 17  1  0  0  0  0
 16 33  1  0  0  0  0
 16 34  1  0  0  0  0
 17 19  1  0  0  0  0
 17 18  1  0  0  0  0
 17 35  1  0  0  0  0
 18 19  1  0  0  0  0
 18 36  1  0  0  0  0
 18 37  1  0  0  0  0
 19 38  1  0  0  0  0
 19 39  1  0  0  0  0
 20 21  1  0  0  0  0
 20 40  1  0  0  0  0
 20 41  1  0  0  0  0
 21 22  1  0  0  0  0
 21 42  1  0  0  0  0
 21 43  1  0  0  0  0
 22 23  1  0  0  0  0
 22 44  1  0  0  0  0
 22 45  1  0  0  0  0
 23 46  1  0  0  0  0
 23 47  1  0  0  0  0
M  CHG  1   3   1
M  END
> <s_m_source_file>
AV-unprocessed.smi

> <i_m_source_file_index>
2408

> <i_lp_mmshare_version>
43012

> <i_f3d_flags>
0

> <s_epik_input>
W0NIM11jMW5bY0hdW2NIXVtjSF1jMVtOSF1DKD1PKVtOSF1DMihbQ0gyXVtDSDJdW0NIMl1bQ0gyXTIpQyg9TylbTkhdW0NIMl1bQ0hdM1tDSDJdW0NIMl0z

> <s_epik_cmdline>
J2VwaWtfcHl0aG9uJywgJy1waCcsICc3LjAnLCAnLXRuJywgJzgnLCAnLW1hJywgJzIwMCcsICctbWV0YWxfYmluZGluZycsICctaW1hZScsICc8aW5maWxlLm1hZT4nLCAnLW9tYWUnLCAnPG91dGZpbGUubWFlPic=

> <r_epik_Ionization_Penalty>
2.1018

> <r_epik_Ionization_Penalty_Charging>
2.10178

> <r_epik_Ionization_Penalty_Neutral>
1.99712e-05

> <r_epik_State_Penalty>
2.23801

> <r_epik_Charging_Adjusted_Penalty>
4.33979

> <i_epik_Tot_Q>
1

> <i_epik_Tot_abs_Q>
1

> <r_epik_Metal_State_Penalty>
2.25493

> <b_epik_Metal_Only>
0

> <s_lp_Force_Field>
OPLS_2005

> <r_lp_Energy>
38.4503

> <b_lp_Chiralities_Consistent>
1

> <s_lp_Variant>
AV-unprocessed.smi:2408-2

> <Gold.Version>
5.8.1

> <Gold.Id.Protein>
6NUR|6NUR_protein|mol2

> <Gold.PLP.Fitness>
45.8441

> <Gold.PLP.PLP>
-39.2625

> <Gold.PLP.part.hbond>
-3.7184

> <Gold.PLP.part.metal>
0.0000

> <Gold.PLP.part.buried>
0.6273

> <Gold.PLP.part.nonpolar>
-35.8060

> <Gold.PLP.part.repulsive>
0.5460

> <Gold.PLP.ligand.clash>
0.0934

> <Gold.PLP.ligand.torsion>
1.5576

> <Gold.PLP.Chemscore.Hbond>
3.0480

> <Gold.PLP.Chemscore.CHOScore>
0.0000

> <Gold.PLP.Chemscore.Metal>
0.0000

> <Gold.Chemscore.Hbonds>
donor molecule, donor type, donor heavy atom, donor atom, acceptor molecule, acceptor atom, score
      L1  H     3    48       P1  8028  1.98
      L1  H    11    31       P1 10171  0.25
      L1  H    15    32       P1 10175  0.93

> <Gold.PLP.Chemscore.Internal.Correction>
0.6464

> <Gold.Rescore>
     Score         DG    S(hbond)    S(metal)    S(lipo)     H(rot)  DE(clash)    DE(int)     intcor
     12.04     -17.76       1.70        0.00      92.06       1.63       1.72       4.00       ----

> <Gold.Chemscore.Fitness>
12.0370

> <Gold.Chemscore.DG>
-17.7584

> <Gold.Chemscore.ZeroCoef>
-5.4800

> <Gold.Chemscore.Hbond>
1.6995

> <Gold.Chemscore.Metal>
0.0000

> <Gold.Chemscore.Lipo>
92.0621

> <Gold.Chemscore.Internal_Hbond>
0.0000

> <Gold.Chemscore.DEClash>
1.7171

> <Gold.Chemscore.DEInternal>
4.0043

> <Gold.Chemscore.Rot>
1.6286

> <Gold.Chemscore.Internal.Correction>
   9.000000E+99

> <Gold.Chemscore.Hbonds>
donor molecule, donor type, donor heavy atom, donor atom, acceptor molecule, acceptor atom, score
      L1  H     3    48       P1  8028  0.91
      L1  H    11    31       P1 10171  0.26
      L1  H    15    32       P1 10175  0.90

> <Gold.Chemscore.Hbond.Weighted>
-5.6763

> <Gold.Chemscore.Metal.Weighted>
-0.0000

> <Gold.Chemscore.Lipo.Weighted>
-10.7713

> <Gold.Chemscore.Internal_Hbond.Weighted>
0.0000

> <Gold.Chemscore.DEClash.Weighted>
1.7171

> <Gold.Chemscore.DEInternal.Weighted>
4.0043

> <Gold.Chemscore.Rot.Weighted>
4.1692

> <Gold.Chemscore.Internal.Correction.Weighted>
   9.000000E+99

> <Gold.Protein.RotatedTorsions>
[ 6907 6896 6895 6894 ] final  179.54 input  -60.11 | X-H torsion
[ 7974 7965 7964 7962 ] final    8.60 input  175.53 | X-H torsion
[ 8008 7997 7996 7995 ] final   45.39 input   59.86 | X-H torsion
[ 10167 10162 10161 10158 ] final  142.24 input  -65.29 | X-H torsion
[ 10718 10713 10712 10709 ] final   87.89 input   66.30 | X-H torsion
[ 10763 10752 10751 10750 ] final  168.54 input  -60.55 | X-H torsion
[ 11005 11000 10999 10996 ] final  -82.27 input  -57.11 | X-H torsion

> <Gold.Protein.ActiveResidues>
 VAL166  LYS551  ARG553  GLY616  TRP617  ASP618  TYR619  PRO620  LYS621  CYS622 
 ASP623  PHE694  ASN695  SER759  ASP760  ASP761  ALA762  ILE779  LEU786  VAL792 
 PHE793  MET794  SER795  GLU796  ALA797  LYS798  CYS799  TRP800  GLU811  SER814 

> <Gold.Protein.RotatedAtoms>
  151.6700  133.3314  159.3193 H   0  0  0  0  0  0  0  0  0  0  0  0  # atno 6907 bound_to 6896
  150.7872  134.6871  159.6485 H   0  0  0  0  0  0  0  0  0  0  0  0  # atno 6908 bound_to 6896
  152.3944  134.6392  160.0147 H   0  0  0  0  0  0  0  0  0  0  0  0  # atno 6909 bound_to 6896
  146.2414  139.9909  142.8426 H   0  0  0  0  0  0  0  0  0  0  0  0  # atno 7974 bound_to 7965
  155.3351  140.3405  155.4239 H   0  0  0  0  0  0  0  0  0  0  0  0  # atno 8008 bound_to 7997
  156.1842  140.1674  156.8254 H   0  0  0  0  0  0  0  0  0  0  0  0  # atno 8009 bound_to 7997
  154.5367  140.0733  156.8423 H   0  0  0  0  0  0  0  0  0  0  0  0  # atno 8010 bound_to 7997
  139.4999  144.6119  151.6251 H   0  0  0  0  0  0  0  0  0  0  0  0  # atno 10167 bound_to 10162
  157.6944  131.0273  150.3191 H   0  0  0  0  0  0  0  0  0  0  0  0  # atno 10718 bound_to 10713
  154.3701  135.2753  155.2271 H   0  0  0  0  0  0  0  0  0  0  0  0  # atno 10763 bound_to 10752
  154.4423  135.5951  153.6140 H   0  0  0  0  0  0  0  0  0  0  0  0  # atno 10764 bound_to 10752
  152.9839  135.6021  154.3931 H   0  0  0  0  0  0  0  0  0  0  0  0  # atno 10765 bound_to 10752
  141.1664  133.7236  156.8547 H   0  0  0  0  0  0  0  0  0  0  0  0  # atno 11005 bound_to 11000
  145.1504  140.9620  143.4436 LP  0  0  0  0  0  0  0  0  0  0  0  0  # atno 17320 bound_to 7965
  145.0211  139.3423  143.6072 LP  0  0  0  0  0  0  0  0  0  0  0  0  # atno 17321 bound_to 7965
  140.5797  143.9968  150.6261 LP  0  0  0  0  0  0  0  0  0  0  0  0  # atno 17342 bound_to 10162
  140.3113  143.3196  152.0876 LP  0  0  0  0  0  0  0  0  0  0  0  0  # atno 17343 bound_to 10162
  156.3681  130.3858  149.7197 LP  0  0  0  0  0  0  0  0  0  0  0  0  # atno 17370 bound_to 10713
  156.4621  130.7956  151.2976 LP  0  0  0  0  0  0  0  0  0  0  0  0  # atno 17371 bound_to 10713
  140.1891  134.8979  157.3039 LP  0  0  0  0  0  0  0  0  0  0  0  0  # atno 17394 bound_to 11000
  140.2310  134.3909  155.7522 LP  0  0  0  0  0  0  0  0  0  0  0  0  # atno 17395 bound_to 11000

$$$$
