AV-unprocessed.smi:2124|AV-procd|sdf|8668|dock9
  -GOLD-   2272011423D 1   1.00000     0.00000
 Structure written by MMmdl.
 46 48  0  0  0  0  0  0  0  0  2 V2000
  147.7356  136.3040  161.0445 C   0  0  0  0  0  0  0  0  0  0  0  0
  148.4146  136.9861  159.8759 C   0  0  0  0  0  0  0  0  0  0  0  0
  147.7526  137.8221  159.1705 N   0  0  0  0  0  0  0  0  0  0  0  0
  148.3777  138.4588  158.0851 C   0  0  0  0  0  0  0  0  0  0  0  0
  147.5167  139.4352  157.3031 C   0  0  0  0  0  0  0  0  0  0  0  0
  149.6794  138.2014  157.7701 C   0  0  0  0  0  0  0  0  0  0  0  0
  150.4045  138.8657  156.5990 C   0  0  0  0  0  0  0  0  0  0  0  0
  151.6029  139.7496  156.9545 C   0  0  0  0  0  0  0  0  0  0  0  0
  152.4872  139.9760  156.1279 O   0  0  0  0  0  0  0  0  0  0  0  0
  151.6192  140.2400  158.2034 N   0  0  0  0  0  0  0  0  0  0  0  0
  152.6600  141.1000  158.7629 C   0  0  2  0  0  0  0  0  0  0  0  0
  153.4482  140.3109  159.8245 C   0  0  0  0  0  0  0  0  0  0  0  0
  152.0280  142.3898  159.3417 C   0  0  1  0  0  0  0  0  0  0  0  0
  153.0674  143.4840  159.6895 C   0  0  0  0  0  0  0  0  0  0  0  0
  152.5548  144.7179  158.9262 C   0  0  2  0  0  0  0  0  0  0  0  0
  151.2551  145.2230  159.5777 C   0  0  0  0  0  0  0  0  0  0  0  0
  150.2329  144.1467  159.1678 C   0  0  0  0  0  0  0  0  0  0  0  0
  151.0911  143.1491  158.3659 C   0  0  1  0  0  0  0  0  0  0  0  0
  152.0437  144.0903  157.6365 C   0  0  0  0  0  0  0  0  0  0  0  0
  150.4093  137.2366  158.6118 C   0  0  0  0  0  0  0  0  0  0  0  0
  151.5906  136.9811  158.3813 O   0  0  0  0  0  0  0  0  0  0  0  0
  149.7300  136.6539  159.6408 N   0  5  0  0  0  0  0  0  0  0  0  0
  146.7783  136.7752  161.2713 H   0  0  0  0  0  0  0  0  0  0  0  0
  148.3615  136.3615  161.9357 H   0  0  0  0  0  0  0  0  0  0  0  0
  147.5555  135.2537  160.8142 H   0  0  0  0  0  0  0  0  0  0  0  0
  147.3540  139.0715  156.2884 H   0  0  0  0  0  0  0  0  0  0  0  0
  147.9947  140.4135  157.2501 H   0  0  0  0  0  0  0  0  0  0  0  0
  146.5416  139.5657  157.7740 H   0  0  0  0  0  0  0  0  0  0  0  0
  150.7278  138.1164  155.8759 H   0  0  0  0  0  0  0  0  0  0  0  0
  149.6870  139.4816  156.0563 H   0  0  0  0  0  0  0  0  0  0  0  0
  150.8485  140.0045  158.8118 H   0  0  0  0  0  0  0  0  0  0  0  0
  153.3481  141.3836  157.9646 H   0  0  0  0  0  0  0  0  0  0  0  0
  154.2616  140.9019  160.2443 H   0  0  0  0  0  0  0  0  0  0  0  0
  153.8927  139.4112  159.3975 H   0  0  0  0  0  0  0  0  0  0  0  0
  152.8036  140.0026  160.6482 H   0  0  0  0  0  0  0  0  0  0  0  0
  151.4679  142.1164  160.2375 H   0  0  0  0  0  0  0  0  0  0  0  0
  153.1400  143.6599  160.7634 H   0  0  0  0  0  0  0  0  0  0  0  0
  154.0632  143.2204  159.3311 H   0  0  0  0  0  0  0  0  0  0  0  0
  153.3090  145.4941  158.7933 H   0  0  0  0  0  0  0  0  0  0  0  0
  151.3473  145.3205  160.6600 H   0  0  0  0  0  0  0  0  0  0  0  0
  150.9697  146.1959  159.1758 H   0  0  0  0  0  0  0  0  0  0  0  0
  149.7452  143.6846  160.0268 H   0  0  0  0  0  0  0  0  0  0  0  0
  149.4552  144.5803  158.5379 H   0  0  0  0  0  0  0  0  0  0  0  0
  150.4951  142.5104  157.7137 H   0  0  0  0  0  0  0  0  0  0  0  0
  151.5343  144.7997  156.9820 H   0  0  0  0  0  0  0  0  0  0  0  0
  152.8179  143.5736  157.0672 H   0  0  0  0  0  0  0  0  0  0  0  0
  1  2  1  0  0  0  0
  1 23  1  0  0  0  0
  1 24  1  0  0  0  0
  1 25  1  0  0  0  0
  2 22  1  0  0  0  0
  2  3  2  0  0  0  0
  3  4  1  0  0  0  0
  4  5  1  0  0  0  0
  4  6  2  0  0  0  0
  5 26  1  0  0  0  0
  5 27  1  0  0  0  0
  5 28  1  0  0  0  0
  6  7  1  0  0  0  0
  6 20  1  0  0  0  0
  7  8  1  0  0  0  0
  7 29  1  0  0  0  0
  7 30  1  0  0  0  0
  8  9  2  0  0  0  0
  8 10  1  0  0  0  0
 10 11  1  0  0  0  0
 10 31  1  0  0  0  0
 11 12  1  0  0  0  0
 11 13  1  0  0  0  0
 11 32  1  0  0  0  0
 12 33  1  0  0  0  0
 12 34  1  0  0  0  0
 12 35  1  0  0  0  0
 13 18  1  0  0  0  0
 13 14  1  0  0  0  0
 13 36  1  0  0  0  0
 14 15  1  0  0  0  0
 14 37  1  0  0  0  0
 14 38  1  0  0  0  0
 15 19  1  0  0  0  0
 15 16  1  0  0  0  0
 15 39  1  0  0  0  0
 16 17  1  0  0  0  0
 16 40  1  0  0  0  0
 16 41  1  0  0  0  0
 17 18  1  0  0  0  0
 17 42  1  0  0  0  0
 17 43  1  0  0  0  0
 18 19  1  0  0  0  0
 18 44  1  0  0  0  0
 19 45  1  0  0  0  0
 19 46  1  0  0  0  0
 20 21  2  0  0  0  0
 20 22  1  0  0  0  0
M  CHG  1  22  -1
M  END
> <s_m_source_file>
AV-unprocessed.smi

> <i_m_source_file_index>
2124

> <i_lp_mmshare_version>
43012

> <i_f3d_flags>
0

> <s_epik_input>
W0NIM11jMW5jKFtDSDNdKWMoYyg9TylbbkhdMSlbQ0gyXUMoPU8pW05IXVtDQEhdKFtDSDNdKVtDQEhdKFtDSDJdW0NASF0yMylbQ0BIXShbQ0gyXTMpW0NIMl1bQ0gyXTI=

> <s_epik_cmdline>
J2VwaWtfcHl0aG9uJywgJy1waCcsICc3LjAnLCAnLXRuJywgJzgnLCAnLW1hJywgJzIwMCcsICctbWV0YWxfYmluZGluZycsICctaW1hZScsICc8aW5maWxlLm1hZT4nLCAnLW9tYWUnLCAnPG91dGZpbGUubWFlPic=

> <r_lp_tautomer_probability>
0.839158

> <r_epik_Ionization_Penalty>
6.63797

> <r_epik_Ionization_Penalty_Charging>
7.48558e-08

> <r_epik_Ionization_Penalty_Neutral>
6.63797

> <r_epik_State_Penalty>
4.49496

> <r_epik_Charging_Adjusted_Penalty>
4.49496

> <i_epik_Tot_Q>
-1

> <i_epik_Tot_abs_Q>
1

> <r_epik_Metal_State_Penalty>
0.841241

> <b_epik_Metal_Only>
1

> <s_lp_Force_Field>
OPLS_2005

> <r_lp_Energy>
55.6811

> <b_lp_Chiralities_Consistent>
1

> <s_lp_Variant>
AV-unprocessed.smi:2124-19

> <Gold.Version>
5.8.1

> <Gold.Id.Protein>
6NUR|6NUR_protein|mol2

> <Gold.PLP.Fitness>
50.1355

> <Gold.PLP.PLP>
-41.2256

> <Gold.PLP.part.hbond>
-3.3129

> <Gold.PLP.part.metal>
0.0000

> <Gold.PLP.part.buried>
-5.0045

> <Gold.PLP.part.nonpolar>
-32.7486

> <Gold.PLP.part.repulsive>
0.0995

> <Gold.PLP.ligand.clash>
0.0000

> <Gold.PLP.ligand.torsion>
0.4817

> <Gold.PLP.Chemscore.Hbond>
3.2833

> <Gold.PLP.Chemscore.CHOScore>
0.0000

> <Gold.PLP.Chemscore.Metal>
0.0000

> <Gold.Chemscore.Hbonds>
donor molecule, donor type, donor heavy atom, donor atom, acceptor molecule, acceptor atom, score
      P1  H  6896  6908       L1    22  1.46
      P1  H  6934  6947       L1     3  0.21
      P1  H  7997  8010       L1     9  1.00

> <Gold.PLP.Chemscore.Internal.Correction>
0.0235

> <Gold.Rescore>
     Score         DG    S(hbond)    S(metal)    S(lipo)     H(rot)  DE(clash)    DE(int)     intcor
     19.19     -19.88       1.87        0.00     104.98       1.61       0.17       0.52       ----

> <Gold.Chemscore.Fitness>
19.1863

> <Gold.Chemscore.DG>
-19.8828

> <Gold.Chemscore.ZeroCoef>
-5.4800

> <Gold.Chemscore.Hbond>
1.8652

> <Gold.Chemscore.Metal>
0.0000

> <Gold.Chemscore.Lipo>
104.9751

> <Gold.Chemscore.Internal_Hbond>
0.0000

> <Gold.Chemscore.DEClash>
0.1736

> <Gold.Chemscore.DEInternal>
0.5229

> <Gold.Chemscore.Rot>
1.6051

> <Gold.Chemscore.Internal.Correction>
   9.000000E+99

> <Gold.Chemscore.Hbonds>
donor molecule, donor type, donor heavy atom, donor atom, acceptor molecule, acceptor atom, score
      P1  H  6896  6908       L1    22  0.12
      P1  H  6934  6947       L1     3  0.02
      P1  H  7997  8010       L1     9  0.98

> <Gold.Chemscore.Hbond.Weighted>
-6.2297

> <Gold.Chemscore.Metal.Weighted>
-0.0000

> <Gold.Chemscore.Lipo.Weighted>
-12.2821

> <Gold.Chemscore.Internal_Hbond.Weighted>
0.0000

> <Gold.Chemscore.DEClash.Weighted>
0.1736

> <Gold.Chemscore.DEInternal.Weighted>
0.5229

> <Gold.Chemscore.Rot.Weighted>
4.1090

> <Gold.Chemscore.Internal.Correction.Weighted>
   9.000000E+99

> <Gold.Protein.RotatedTorsions>
[ 6907 6896 6895 6894 ] final -166.70 input  -60.11 | X-H torsion
[ 7974 7965 7964 7962 ] final -117.01 input  175.53 | X-H torsion
[ 8008 7997 7996 7995 ] final   67.28 input   59.86 | X-H torsion
[ 10167 10162 10161 10158 ] final  -93.32 input  -65.29 | X-H torsion
[ 10718 10713 10712 10709 ] final   97.16 input   66.30 | X-H torsion
[ 10763 10752 10751 10750 ] final   88.26 input  -60.55 | X-H torsion
[ 11005 11000 10999 10996 ] final -125.24 input  -57.11 | X-H torsion

> <Gold.Protein.ActiveResidues>
 VAL166  LYS551  ARG553  GLY616  TRP617  ASP618  TYR619  PRO620  LYS621  CYS622 
 ASP623  PHE694  ASN695  SER759  ASP760  ASP761  ALA762  ILE779  LEU786  VAL792 
 PHE793  MET794  SER795  GLU796  ALA797  LYS798  CYS799  TRP800  GLU811  SER814 

> <Gold.Protein.RotatedAtoms>
  151.4478  133.3626  159.2790 H   0  0  0  0  0  0  0  0  0  0  0  0  # atno 6907 bound_to 6896
  150.9112  134.8531  159.7437 H   0  0  0  0  0  0  0  0  0  0  0  0  # atno 6908 bound_to 6896
  152.4933  134.4407  159.9594 H   0  0  0  0  0  0  0  0  0  0  0  0  # atno 6909 bound_to 6896
  145.0901  140.8484  143.3987 H   0  0  0  0  0  0  0  0  0  0  0  0  # atno 7974 bound_to 7965
  155.6905  140.3496  155.4891 H   0  0  0  0  0  0  0  0  0  0  0  0  # atno 8008 bound_to 7997
  155.9528  140.1122  157.0984 H   0  0  0  0  0  0  0  0  0  0  0  0  # atno 8009 bound_to 7997
  154.4125  140.1191  156.5062 H   0  0  0  0  0  0  0  0  0  0  0  0  # atno 8010 bound_to 7997
  140.3258  143.3023  151.9996 H   0  0  0  0  0  0  0  0  0  0  0  0  # atno 10167 bound_to 10162
  157.6916  131.0601  150.4602 H   0  0  0  0  0  0  0  0  0  0  0  0  # atno 10718 bound_to 10713
  153.1751  135.4513  154.9954 H   0  0  0  0  0  0  0  0  0  0  0  0  # atno 10763 bound_to 10752
  154.7992  135.3249  154.7594 H   0  0  0  0  0  0  0  0  0  0  0  0  # atno 10764 bound_to 10752
  153.8065  135.6958  153.4902 H   0  0  0  0  0  0  0  0  0  0  0  0  # atno 10765 bound_to 10752
  140.9778  134.0716  157.3799 H   0  0  0  0  0  0  0  0  0  0  0  0  # atno 11005 bound_to 11000
  145.1076  139.2779  143.5654 LP  0  0  0  0  0  0  0  0  0  0  0  0  # atno 17320 bound_to 7965
  146.3531  140.0662  142.8626 LP  0  0  0  0  0  0  0  0  0  0  0  0  # atno 17321 bound_to 7965
  139.4865  144.6274  151.7137 LP  0  0  0  0  0  0  0  0  0  0  0  0  # atno 17342 bound_to 10162
  140.5442  144.0530  150.6100 LP  0  0  0  0  0  0  0  0  0  0  0  0  # atno 17343 bound_to 10162
  156.4947  130.4103  149.6387 LP  0  0  0  0  0  0  0  0  0  0  0  0  # atno 17370 bound_to 10713
  156.3384  130.7369  151.2310 LP  0  0  0  0  0  0  0  0  0  0  0  0  # atno 17371 bound_to 10713
  139.8937  135.0132  156.6915 LP  0  0  0  0  0  0  0  0  0  0  0  0  # atno 17394 bound_to 11000
  140.7233  133.9122  155.8161 LP  0  0  0  0  0  0  0  0  0  0  0  0  # atno 17395 bound_to 11000

$$$$
