AV-unprocessed.smi:1101|AV-procd|sdf|4765|dock9
  -GOLD-   22720 3303D 1   1.00000     0.00000
 Structure written by MMmdl.
 41 42  0  0  0  0  0  0  0  0  1 V2000
  151.0376  144.7453  158.4378 C   0  0  0  0  0  0  0  0  0  0  0  0
  152.5459  144.4962  158.3129 C   0  0  0  0  0  0  0  0  0  0  0  0
  153.1090  143.6405  159.4585 C   0  0  2  0  0  0  0  0  0  0  0  0
  152.8400  142.1363  159.2449 C   0  0  0  0  0  0  0  0  0  0  0  0
  153.3759  141.4029  160.4012 N   0  0  0  0  0  0  0  0  0  0  0  0
  154.4688  140.6001  160.4175 C   0  0  0  0  0  0  0  0  0  0  0  0
  155.2970  140.5649  159.5063 O   0  0  0  0  0  0  0  0  0  0  0  0
  154.6032  139.8634  161.5307 N   0  0  0  0  0  0  0  0  0  0  0  0
  155.7152  138.9642  161.8111 C   0  0  0  0  0  0  0  0  0  0  0  0
  155.5297  138.2549  163.1625 C   0  0  0  0  0  0  0  0  0  0  0  0
  155.6185  139.2042  164.3286 C   0  0  0  0  0  0  0  0  0  0  0  0
  155.7303  140.6235  164.2930 C   0  0  0  0  0  0  0  0  0  0  0  0
  155.7727  141.1667  165.4986 N   0  0  0  0  0  0  0  0  0  0  0  0
  155.6915  140.1178  166.3426 N   0  0  0  0  0  0  0  0  0  0  0  0
  155.7091  140.3495  167.7711 C   0  0  0  0  0  0  0  0  0  0  0  0
  155.5998  138.9210  165.6654 C   0  0  0  0  0  0  0  0  0  0  0  0
  152.6933  141.8276  161.6253 C   0  0  0  0  0  0  0  0  0  0  0  0
  152.9492  143.3318  161.8213 C   0  0  0  0  0  0  0  0  0  0  0  0
  152.4865  144.0473  160.6780 O   0  0  0  0  0  0  0  0  0  0  0  0
  150.6774  145.3626  157.6147 H   0  0  0  0  0  0  0  0  0  0  0  0
  150.7987  145.2596  159.3688 H   0  0  0  0  0  0  0  0  0  0  0  0
  150.4787  143.8094  158.4186 H   0  0  0  0  0  0  0  0  0  0  0  0
  152.7585  144.0170  157.3566 H   0  0  0  0  0  0  0  0  0  0  0  0
  153.0582  145.4587  158.2946 H   0  0  0  0  0  0  0  0  0  0  0  0
  154.1854  143.8092  159.5305 H   0  0  0  0  0  0  0  0  0  0  0  0
  151.7669  141.9529  159.1718 H   0  0  0  0  0  0  0  0  0  0  0  0
  153.2558  141.8180  158.2889 H   0  0  0  0  0  0  0  0  0  0  0  0
  153.8947  139.9494  162.2448 H   0  0  0  0  0  0  0  0  0  0  0  0
  155.8054  138.2284  161.0106 H   0  0  0  0  0  0  0  0  0  0  0  0
  156.6420  139.5402  161.8225 H   0  0  0  0  0  0  0  0  0  0  0  0
  154.5661  137.7440  163.1619 H   0  0  0  0  0  0  0  0  0  0  0  0
  156.2774  137.4664  163.2536 H   0  0  0  0  0  0  0  0  0  0  0  0
  155.7762  141.2710  163.4298 H   0  0  0  0  0  0  0  0  0  0  0  0
  155.5647  139.4094  168.3046 H   0  0  0  0  0  0  0  0  0  0  0  0
  154.9087  141.0380  168.0440 H   0  0  0  0  0  0  0  0  0  0  0  0
  156.6679  140.7797  168.0627 H   0  0  0  0  0  0  0  0  0  0  0  0
  155.5246  137.9766  166.1842 H   0  0  0  0  0  0  0  0  0  0  0  0
  151.6234  141.6368  161.5295 H   0  0  0  0  0  0  0  0  0  0  0  0
  153.0194  141.2747  162.5073 H   0  0  0  0  0  0  0  0  0  0  0  0
  152.4198  143.6939  162.7029 H   0  0  0  0  0  0  0  0  0  0  0  0
  154.0104  143.5294  161.9808 H   0  0  0  0  0  0  0  0  0  0  0  0
  1  2  1  0  0  0  0
  1 20  1  0  0  0  0
  1 21  1  0  0  0  0
  1 22  1  0  0  0  0
  2  3  1  0  0  0  0
  2 23  1  0  0  0  0
  2 24  1  0  0  0  0
  3 19  1  0  0  0  0
  3  4  1  0  0  0  0
  3 25  1  0  0  0  0
  4  5  1  0  0  0  0
  4 26  1  0  0  0  0
  4 27  1  0  0  0  0
  5  6  1  0  0  0  0
  5 17  1  0  0  0  0
  6  7  2  0  0  0  0
  6  8  1  0  0  0  0
  8  9  1  0  0  0  0
  8 28  1  0  0  0  0
  9 10  1  0  0  0  0
  9 29  1  0  0  0  0
  9 30  1  0  0  0  0
 10 11  1  0  0  0  0
 10 31  1  0  0  0  0
 10 32  1  0  0  0  0
 11 16  2  0  0  0  0
 11 12  1  0  0  0  0
 12 13  2  0  0  0  0
 12 33  1  0  0  0  0
 13 14  1  0  0  0  0
 14 15  1  0  0  0  0
 14 16  1  0  0  0  0
 15 34  1  0  0  0  0
 15 35  1  0  0  0  0
 15 36  1  0  0  0  0
 16 37  1  0  0  0  0
 17 18  1  0  0  0  0
 17 38  1  0  0  0  0
 17 39  1  0  0  0  0
 18 19  1  0  0  0  0
 18 40  1  0  0  0  0
 18 41  1  0  0  0  0
M  END
> <s_m_source_file>
AV-unprocessed.smi

> <i_m_source_file_index>
1101

> <i_lp_mmshare_version>
43012

> <i_f3d_flags>
0

> <s_epik_input>
W0NIM11bQ0gyXVtDQEBIXTFbQ0gyXU4oW0NIMl1bQ0gyXU8xKUMoPU8pW05IXVtDSDJdW0NIMl1jMltjSF1ubihbQ0gzXSlbY0hdMg==

> <s_epik_cmdline>
J2VwaWtfcHl0aG9uJywgJy1waCcsICc3LjAnLCAnLXRuJywgJzgnLCAnLW1hJywgJzIwMCcsICctbWV0YWxfYmluZGluZycsICctaW1hZScsICc8aW5maWxlLm1hZT4nLCAnLW9tYWUnLCAnPG91dGZpbGUubWFlPic=

> <r_lp_tautomer_probability>
1

> <r_epik_Ionization_Penalty>
0.000536373

> <r_epik_Ionization_Penalty_Charging>
0

> <r_epik_Ionization_Penalty_Neutral>
0.000536373

> <r_epik_State_Penalty>
-0

> <r_epik_Charging_Adjusted_Penalty>
0

> <i_epik_Tot_Q>
0

> <i_epik_Tot_abs_Q>
0

> <r_epik_Metal_State_Penalty>
-0

> <b_epik_Metal_Only>
0

> <s_lp_Force_Field>
OPLS_2005

> <r_lp_Energy>
25.5817

> <b_lp_Chiralities_Consistent>
1

> <s_lp_Variant>
AV-unprocessed.smi:1101-1

> <Gold.Version>
5.8.1

> <Gold.Id.Protein>
6NUR|6NUR_protein|mol2

> <Gold.PLP.Fitness>
41.5567

> <Gold.PLP.PLP>
-41.0337

> <Gold.PLP.part.hbond>
-1.0000

> <Gold.PLP.part.metal>
0.0000

> <Gold.PLP.part.buried>
-4.3133

> <Gold.PLP.part.nonpolar>
-34.6769

> <Gold.PLP.part.repulsive>
0.0715

> <Gold.PLP.ligand.clash>
0.3147

> <Gold.PLP.ligand.torsion>
0.3820

> <Gold.PLP.Chemscore.Hbond>
0.5096

> <Gold.PLP.Chemscore.CHOScore>
0.0000

> <Gold.PLP.Chemscore.Metal>
0.0000

> <Gold.Chemscore.Hbonds>
donor molecule, donor type, donor heavy atom, donor atom, acceptor molecule, acceptor atom, score
      P1  H  7997  8009       L1     7  0.46

> <Gold.PLP.Chemscore.Internal.Correction>
0.0728

> <Gold.Rescore>
     Score         DG    S(hbond)    S(metal)    S(lipo)     H(rot)  DE(clash)    DE(int)     intcor
     16.31     -16.59       0.80        0.00     105.05       1.51       0.17       0.11       ----

> <Gold.Chemscore.Fitness>
16.3108

> <Gold.Chemscore.DG>
-16.5912

> <Gold.Chemscore.ZeroCoef>
-5.4800

> <Gold.Chemscore.Hbond>
0.8014

> <Gold.Chemscore.Metal>
0.0000

> <Gold.Chemscore.Lipo>
105.0461

> <Gold.Chemscore.Internal_Hbond>
0.0000

> <Gold.Chemscore.DEClash>
0.1725

> <Gold.Chemscore.DEInternal>
0.1079

> <Gold.Chemscore.Rot>
1.5062

> <Gold.Chemscore.Internal.Correction>
   9.000000E+99

> <Gold.Chemscore.Hbonds>
donor molecule, donor type, donor heavy atom, donor atom, acceptor molecule, acceptor atom, score
      P1  H  7997  8009       L1     7  0.46

> <Gold.Chemscore.Hbond.Weighted>
-2.6766

> <Gold.Chemscore.Metal.Weighted>
-0.0000

> <Gold.Chemscore.Lipo.Weighted>
-12.2904

> <Gold.Chemscore.Internal_Hbond.Weighted>
0.0000

> <Gold.Chemscore.DEClash.Weighted>
0.1725

> <Gold.Chemscore.DEInternal.Weighted>
0.1079

> <Gold.Chemscore.Rot.Weighted>
3.8558

> <Gold.Chemscore.Internal.Correction.Weighted>
   9.000000E+99

> <Gold.Protein.RotatedTorsions>
[ 6907 6896 6895 6894 ] final  172.97 input  -60.11 | X-H torsion
[ 7974 7965 7964 7962 ] final -166.38 input  175.53 | X-H torsion
[ 8008 7997 7996 7995 ] final  107.43 input   59.86 | X-H torsion
[ 10167 10162 10161 10158 ] final  100.50 input  -65.29 | X-H torsion
[ 10718 10713 10712 10709 ] final  146.75 input   66.30 | X-H torsion
[ 10763 10752 10751 10750 ] final  133.16 input  -60.55 | X-H torsion
[ 11005 11000 10999 10996 ] final   76.74 input  -57.11 | X-H torsion

> <Gold.Protein.ActiveResidues>
 VAL166  LYS551  ARG553  GLY616  TRP617  ASP618  TYR619  PRO620  LYS621  CYS622 
 ASP623  PHE694  ASN695  SER759  ASP760  ASP761  ALA762  ILE779  LEU786  VAL792 
 PHE793  MET794  SER795  GLU796  ALA797  LYS798  CYS799  TRP800  GLU811  SER814 

> <Gold.Protein.RotatedAtoms>
  151.7758  133.3345  159.3457 H   0  0  0  0  0  0  0  0  0  0  0  0  # atno 6907 bound_to 6896
  150.7444  134.5977  159.6029 H   0  0  0  0  0  0  0  0  0  0  0  0  # atno 6908 bound_to 6896
  152.3310  134.7261  160.0341 H   0  0  0  0  0  0  0  0  0  0  0  0  # atno 6909 bound_to 6896
  144.7247  140.2675  143.6256 H   0  0  0  0  0  0  0  0  0  0  0  0  # atno 7974 bound_to 7965
  156.1823  140.3095  155.9172 H   0  0  0  0  0  0  0  0  0  0  0  0  # atno 8008 bound_to 7997
  155.3357  140.0463  157.3061 H   0  0  0  0  0  0  0  0  0  0  0  0  # atno 8009 bound_to 7997
  154.5356  140.2245  155.8738 H   0  0  0  0  0  0  0  0  0  0  0  0  # atno 8010 bound_to 7997
  139.7522  144.6980  151.0416 H   0  0  0  0  0  0  0  0  0  0  0  0  # atno 10167 bound_to 10162
  157.3294  131.0917  151.1175 H   0  0  0  0  0  0  0  0  0  0  0  0  # atno 10718 bound_to 10713
  153.8025  135.3140  155.3392 H   0  0  0  0  0  0  0  0  0  0  0  0  # atno 10763 bound_to 10752
  154.8083  135.4683  154.0453 H   0  0  0  0  0  0  0  0  0  0  0  0  # atno 10764 bound_to 10752
  153.1805  135.6893  153.8572 H   0  0  0  0  0  0  0  0  0  0  0  0  # atno 10765 bound_to 10752
  139.9285  134.7625  156.1433 H   0  0  0  0  0  0  0  0  0  0  0  0  # atno 11005 bound_to 11000
  145.8076  139.1990  143.2012 LP  0  0  0  0  0  0  0  0  0  0  0  0  # atno 17320 bound_to 7965
  146.0624  140.7957  142.9728 LP  0  0  0  0  0  0  0  0  0  0  0  0  # atno 17321 bound_to 7965
  140.7799  143.4796  151.0036 LP  0  0  0  0  0  0  0  0  0  0  0  0  # atno 17342 bound_to 10162
  139.8483  143.7472  152.3179 LP  0  0  0  0  0  0  0  0  0  0  0  0  # atno 17343 bound_to 10162
  157.2430  130.6578  149.5898 LP  0  0  0  0  0  0  0  0  0  0  0  0  # atno 17370 bound_to 10713
  155.9694  130.4562  150.5918 LP  0  0  0  0  0  0  0  0  0  0  0  0  # atno 17371 bound_to 10713
  141.0859  133.6734  156.2434 LP  0  0  0  0  0  0  0  0  0  0  0  0  # atno 17394 bound_to 11000
  140.6268  134.5305  157.5554 LP  0  0  0  0  0  0  0  0  0  0  0  0  # atno 17395 bound_to 11000

$$$$
