AV-unprocessed.smi:2923|AV-procd|sdf|11214|dock7
  -GOLD-   2272016103D 1   1.00000     0.00000
 Structure written by MMmdl.
 46 48  0  0  0  0  0  0  0  0  1 V2000
  143.6397  132.0948  150.7336 C   0  0  0  0  0  0  0  0  0  0  0  0
  144.8064  132.7854  150.2069 N   0  0  0  0  0  0  0  0  0  0  0  0
  145.9007  131.9426  149.7498 C   0  0  0  0  0  0  0  0  0  0  0  0
  145.2290  133.8392  151.0276 C   0  0  0  0  0  0  0  0  0  0  0  0
  145.6905  133.6069  152.3431 C   0  0  0  0  0  0  0  0  0  0  0  0
  146.0995  134.7057  153.1227 C   0  0  0  0  0  0  0  0  0  0  0  0
  146.0272  136.0043  152.5647 C   0  0  0  0  0  0  0  0  0  0  0  0
  146.4245  137.1903  153.2390 N   0  0  0  0  0  0  0  0  0  0  0  0
  146.7051  138.3971  152.7185 C   0  0  0  0  0  0  0  0  0  0  0  0
  146.6654  138.6850  151.5226 O   0  0  0  0  0  0  0  0  0  0  0  0
  147.0576  139.2622  153.6777 N   0  0  0  0  0  0  0  0  0  0  0  0
  147.4316  140.6615  153.4615 C   0  0  2  0  0  0  0  0  0  0  0  0
  148.8586  140.9862  153.9578 C   0  0  2  0  0  0  0  0  0  0  0  0
  149.8499  139.9215  154.3604 C   0  0  0  0  0  0  0  0  0  0  0  0
  149.6975  139.8758  155.8835 C   0  0  0  0  0  0  0  0  0  0  0  0
  148.4132  140.4411  156.1389 O   0  0  0  0  0  0  0  0  0  0  0  0
  148.2263  141.5247  155.2310 C   0  0  2  0  0  0  0  0  0  0  0  0
  146.8496  141.6136  154.5391 C   0  0  0  0  0  0  0  0  0  0  0  0
  146.5013  143.0110  154.0176 C   0  0  0  0  0  0  0  0  0  0  0  0
  145.6405  141.1478  155.3619 C   0  0  0  0  0  0  0  0  0  0  0  0
  145.5643  136.1232  151.2379 C   0  0  0  0  0  0  0  0  0  0  0  0
  145.1687  135.0746  150.4857 N   0  0  0  0  0  0  0  0  0  0  0  0
  142.8732  132.8066  151.0427 H   0  0  0  0  0  0  0  0  0  0  0  0
  143.9060  131.4786  151.5931 H   0  0  0  0  0  0  0  0  0  0  0  0
  143.2088  131.4478  149.9693 H   0  0  0  0  0  0  0  0  0  0  0  0
  146.7195  132.5489  149.3600 H   0  0  0  0  0  0  0  0  0  0  0  0
  145.5593  131.2848  148.9502 H   0  0  0  0  0  0  0  0  0  0  0  0
  146.2848  131.3229  150.5609 H   0  0  0  0  0  0  0  0  0  0  0  0
  145.7346  132.6073  152.7500 H   0  0  0  0  0  0  0  0  0  0  0  0
  146.4696  134.5273  154.1200 H   0  0  0  0  0  0  0  0  0  0  0  0
  146.5713  137.0924  154.2331 H   0  0  0  0  0  0  0  0  0  0  0  0
  147.0661  138.9367  154.6334 H   0  0  0  0  0  0  0  0  0  0  0  0
  147.2595  141.0204  152.4450 H   0  0  0  0  0  0  0  0  0  0  0  0
  149.2983  141.7931  153.3693 H   0  0  0  0  0  0  0  0  0  0  0  0
  149.6227  138.9558  153.9092 H   0  0  0  0  0  0  0  0  0  0  0  0
  150.8702  140.1801  154.0759 H   0  0  0  0  0  0  0  0  0  0  0  0
  149.7771  138.8653  156.2845 H   0  0  0  0  0  0  0  0  0  0  0  0
  150.4578  140.4942  156.3629 H   0  0  0  0  0  0  0  0  0  0  0  0
  148.6547  142.4660  155.5786 H   0  0  0  0  0  0  0  0  0  0  0  0
  146.3329  143.7133  154.8345 H   0  0  0  0  0  0  0  0  0  0  0  0
  145.5996  142.9955  153.4044 H   0  0  0  0  0  0  0  0  0  0  0  0
  147.3015  143.4225  153.4016 H   0  0  0  0  0  0  0  0  0  0  0  0
  145.3880  141.8658  156.1427 H   0  0  0  0  0  0  0  0  0  0  0  0
  145.8221  140.1959  155.8612 H   0  0  0  0  0  0  0  0  0  0  0  0
  144.7577  141.0197  154.7347 H   0  0  0  0  0  0  0  0  0  0  0  0
  145.5035  137.0918  150.7633 H   0  0  0  0  0  0  0  0  0  0  0  0
  1  2  1  0  0  0  0
  1 23  1  0  0  0  0
  1 24  1  0  0  0  0
  1 25  1  0  0  0  0
  2  3  1  0  0  0  0
  2  4  1  0  0  0  0
  3 26  1  0  0  0  0
  3 27  1  0  0  0  0
  3 28  1  0  0  0  0
  4 22  1  0  0  0  0
  4  5  2  0  0  0  0
  5  6  1  0  0  0  0
  5 29  1  0  0  0  0
  6  7  2  0  0  0  0
  6 30  1  0  0  0  0
  7  8  1  0  0  0  0
  7 21  1  0  0  0  0
  8  9  1  0  0  0  0
  8 31  1  0  0  0  0
  9 10  2  0  0  0  0
  9 11  1  0  0  0  0
 11 12  1  0  0  0  0
 11 32  1  0  0  0  0
 12 18  1  0  0  0  0
 12 13  1  0  0  0  0
 12 33  1  0  0  0  0
 13 17  1  0  0  0  0
 13 14  1  0  0  0  0
 13 34  1  0  0  0  0
 14 15  1  0  0  0  0
 14 35  1  0  0  0  0
 14 36  1  0  0  0  0
 15 16  1  0  0  0  0
 15 37  1  0  0  0  0
 15 38  1  0  0  0  0
 16 17  1  0  0  0  0
 17 18  1  0  0  0  0
 17 39  1  0  0  0  0
 18 19  1  0  0  0  0
 18 20  1  0  0  0  0
 19 40  1  0  0  0  0
 19 41  1  0  0  0  0
 19 42  1  0  0  0  0
 20 43  1  0  0  0  0
 20 44  1  0  0  0  0
 20 45  1  0  0  0  0
 21 22  2  0  0  0  0
 21 46  1  0  0  0  0
M  END
> <s_m_source_file>
AV-unprocessed.smi

> <i_m_source_file_index>
2923

> <i_lp_mmshare_version>
43012

> <i_f3d_flags>
0

> <s_epik_input>
W0NIM11OKFtDSDNdKWMxW2NIXVtjSF1jKFtjSF1uMSlbTkhdQyg9TylbTkhdW0NASF0yQyhbQ0gzXSkoW0NIM10pW0NAQEhdKFtDQEhdMjMpT1tDSDJdW0NIMl0z

> <s_epik_cmdline>
J2VwaWtfcHl0aG9uJywgJy1waCcsICc3LjAnLCAnLXRuJywgJzgnLCAnLW1hJywgJzIwMCcsICctbWV0YWxfYmluZGluZycsICctaW1hZScsICc8aW5maWxlLm1hZT4nLCAnLW9tYWUnLCAnPG91dGZpbGUubWFlPic=

> <r_lp_tautomer_probability>
1

> <r_epik_Ionization_Penalty>
0.628785

> <r_epik_Ionization_Penalty_Charging>
0

> <r_epik_Ionization_Penalty_Neutral>
0.628785

> <r_epik_State_Penalty>
0.644286

> <r_epik_Charging_Adjusted_Penalty>
0.644286

> <i_epik_Tot_Q>
0

> <i_epik_Tot_abs_Q>
0

> <r_epik_Metal_State_Penalty>
0.308404

> <b_epik_Metal_Only>
0

> <s_lp_Force_Field>
OPLS_2005

> <r_lp_Energy>
44.9088

> <b_lp_Chiralities_Consistent>
1

> <s_lp_Variant>
AV-unprocessed.smi:2923-13

> <Gold.Version>
5.8.1

> <Gold.Id.Protein>
6NUR|6NUR_protein|mol2

> <Gold.PLP.Fitness>
39.2202

> <Gold.PLP.PLP>
-35.6954

> <Gold.PLP.part.hbond>
-1.2141

> <Gold.PLP.part.metal>
0.0000

> <Gold.PLP.part.buried>
-1.9662

> <Gold.PLP.part.nonpolar>
-34.5582

> <Gold.PLP.part.repulsive>
2.3773

> <Gold.PLP.ligand.clash>
0.0000

> <Gold.PLP.ligand.torsion>
0.3259

> <Gold.PLP.Chemscore.Hbond>
0.2600

> <Gold.PLP.Chemscore.CHOScore>
1.0000

> <Gold.PLP.Chemscore.Metal>
0.0000

> <Gold.Chemscore.Hbonds>
donor molecule, donor type, donor heavy atom, donor atom, acceptor molecule, acceptor atom, score
      P1  H  7954  7966       L1    10  0.19
      L1  C    21    46       P1 10171  1.00

> <Gold.PLP.Chemscore.Internal.Correction>
0.3967

> <Gold.Rescore>
     Score         DG    S(hbond)    S(metal)    S(lipo)     H(rot)  DE(clash)    DE(int)     intcor
     10.92     -13.36       0.29        0.00      85.28       1.19       0.80       1.64       ----

> <Gold.Chemscore.Fitness>
10.9223

> <Gold.Chemscore.DG>
-13.3629

> <Gold.Chemscore.ZeroCoef>
-5.4800

> <Gold.Chemscore.Hbond>
0.2879

> <Gold.Chemscore.Metal>
0.0000

> <Gold.Chemscore.Lipo>
85.2756

> <Gold.Chemscore.Internal_Hbond>
0.0000

> <Gold.Chemscore.DEClash>
0.7987

> <Gold.Chemscore.DEInternal>
1.6419

> <Gold.Chemscore.Rot>
1.1937

> <Gold.Chemscore.Internal.Correction>
   9.000000E+99

> <Gold.Chemscore.Hbonds>
donor molecule, donor type, donor heavy atom, donor atom, acceptor molecule, acceptor atom, score
      P1  H  7954  7966       L1    10  0.19

> <Gold.Chemscore.Hbond.Weighted>
-0.9616

> <Gold.Chemscore.Metal.Weighted>
-0.0000

> <Gold.Chemscore.Lipo.Weighted>
-9.9772

> <Gold.Chemscore.Internal_Hbond.Weighted>
0.0000

> <Gold.Chemscore.DEClash.Weighted>
0.7987

> <Gold.Chemscore.DEInternal.Weighted>
1.6419

> <Gold.Chemscore.Rot.Weighted>
3.0559

> <Gold.Chemscore.Internal.Correction.Weighted>
   9.000000E+99

> <Gold.Protein.RotatedTorsions>
[ 6907 6896 6895 6894 ] final -118.50 input  -60.11 | X-H torsion
[ 7974 7965 7964 7962 ] final    5.12 input  175.53 | X-H torsion
[ 8008 7997 7996 7995 ] final   56.91 input   59.86 | X-H torsion
[ 10167 10162 10161 10158 ] final  110.30 input  -65.29 | X-H torsion
[ 10718 10713 10712 10709 ] final   -0.74 input   66.30 | X-H torsion
[ 10763 10752 10751 10750 ] final  -32.26 input  -60.55 | X-H torsion
[ 11005 11000 10999 10996 ] final  133.54 input  -57.11 | X-H torsion

> <Gold.Protein.ActiveResidues>
 VAL166  LYS551  ARG553  GLY616  TRP617  ASP618  TYR619  PRO620  LYS621  CYS622 
 ASP623  PHE694  ASN695  SER759  ASP760  ASP761  ALA762  ILE779  LEU786  VAL792 
 PHE793  MET794  SER795  GLU796  ALA797  LYS798  CYS799  TRP800  GLU811  SER814 

> <Gold.Protein.RotatedAtoms>
  150.8225  133.8229  159.3132 H   0  0  0  0  0  0  0  0  0  0  0  0  # atno 6907 bound_to 6896
  151.5983  135.1047  160.0064 H   0  0  0  0  0  0  0  0  0  0  0  0  # atno 6908 bound_to 6896
  152.4313  133.7241  159.6606 H   0  0  0  0  0  0  0  0  0  0  0  0  # atno 6909 bound_to 6896
  146.2442  140.0431  142.8380 H   0  0  0  0  0  0  0  0  0  0  0  0  # atno 7974 bound_to 7965
  155.5252  140.3480  155.4415 H   0  0  0  0  0  0  0  0  0  0  0  0  # atno 8008 bound_to 7997
  156.0757  140.1374  156.9801 H   0  0  0  0  0  0  0  0  0  0  0  0  # atno 8009 bound_to 7997
  154.4552  140.0956  156.6711 H   0  0  0  0  0  0  0  0  0  0  0  0  # atno 8010 bound_to 7997
  139.6699  144.7126  151.1708 H   0  0  0  0  0  0  0  0  0  0  0  0  # atno 10167 bound_to 10162
  156.8159  130.5440  149.5703 H   0  0  0  0  0  0  0  0  0  0  0  0  # atno 10718 bound_to 10713
  153.8108  135.6882  153.4841 H   0  0  0  0  0  0  0  0  0  0  0  0  # atno 10763 bound_to 10752
  153.1629  135.4572  154.9796 H   0  0  0  0  0  0  0  0  0  0  0  0  # atno 10764 bound_to 10752
  154.7968  135.3322  154.7589 H   0  0  0  0  0  0  0  0  0  0  0  0  # atno 10765 bound_to 10752
  139.9858  134.9532  156.9740 H   0  0  0  0  0  0  0  0  0  0  0  0  # atno 11005 bound_to 11000
  145.1051  140.9370  143.4690 LP  0  0  0  0  0  0  0  0  0  0  0  0  # atno 17320 bound_to 7965
  145.0633  139.3088  143.5869 LP  0  0  0  0  0  0  0  0  0  0  0  0  # atno 17321 bound_to 7965
  140.7614  143.5861  150.8844 LP  0  0  0  0  0  0  0  0  0  0  0  0  # atno 17342 bound_to 10162
  139.9525  143.6255  152.3025 LP  0  0  0  0  0  0  0  0  0  0  0  0  # atno 17343 bound_to 10162
  156.1017  130.5974  150.9904 LP  0  0  0  0  0  0  0  0  0  0  0  0  # atno 17370 bound_to 10713
  157.6482  131.0901  150.8109 LP  0  0  0  0  0  0  0  0  0  0  0  0  # atno 17371 bound_to 10713
  140.5005  134.1102  155.7249 LP  0  0  0  0  0  0  0  0  0  0  0  0  # atno 17394 bound_to 11000
  141.1523  133.8946  157.2066 LP  0  0  0  0  0  0  0  0  0  0  0  0  # atno 17395 bound_to 11000

$$$$
