AV-unprocessed.smi:2506|AV-procd|sdf|9861|dock2
  -GOLD-   2272013493D 1   1.00000     0.00000
 Structure written by MMmdl.
 38 39  0  0  0  0  0  0  0  0  1 V2000
  151.1965  137.8540  154.2241 C   0  0  0  0  0  0  0  0  0  0  0  0
  150.6030  139.2054  154.5810 C   0  0  0  0  0  0  0  0  0  0  0  0
  151.4302  140.0555  155.2340 N   0  0  0  0  0  0  0  0  0  0  0  0
  151.0044  141.2701  155.5956 N   0  0  0  0  0  0  0  0  0  0  0  0
  149.7394  141.6538  155.3151 C   0  0  0  0  0  0  0  0  0  0  0  0
  148.8251  140.8254  154.6394 C   0  0  0  0  0  0  0  0  0  0  0  0
  149.2726  139.5453  154.2415 C   0  0  0  0  0  0  0  0  0  0  0  0
  148.4576  138.5922  153.5681 N   0  0  0  0  0  0  0  0  0  0  0  0
  147.1173  138.4963  153.5522 C   0  0  0  0  0  0  0  0  0  0  0  0
  146.3422  139.2480  154.1428 O   0  0  0  0  0  0  0  0  0  0  0  0
  146.7171  137.4774  152.7781 N   0  0  0  0  0  0  0  0  0  0  0  0
  145.3296  137.1035  152.5114 C   0  0  0  0  0  0  0  0  0  0  0  0
  145.1516  135.5818  152.2809 C   0  0  0  0  0  0  0  0  0  0  0  0
  146.1693  134.7771  153.1219 C   0  0  0  0  0  0  0  0  0  0  0  0
  143.7149  135.1138  152.5732 C   0  0  0  0  0  0  0  0  0  0  0  0
  143.4964  133.8572  151.7231 C   0  0  0  0  0  0  0  0  0  0  0  0
  144.5046  133.9405  150.5692 C   0  0  0  0  0  0  0  0  0  0  0  0
  145.3064  135.2293  150.7913 C   0  0  0  0  0  0  0  0  0  0  0  0
  151.1723  137.7020  153.1445 H   0  0  0  0  0  0  0  0  0  0  0  0
  150.6295  137.0528  154.6991 H   0  0  0  0  0  0  0  0  0  0  0  0
  152.2334  137.7731  154.5530 H   0  0  0  0  0  0  0  0  0  0  0  0
  149.4495  142.6410  155.6432 H   0  0  0  0  0  0  0  0  0  0  0  0
  147.8212  141.1765  154.4580 H   0  0  0  0  0  0  0  0  0  0  0  0
  148.9536  137.9480  152.9698 H   0  0  0  0  0  0  0  0  0  0  0  0
  147.4271  136.9186  152.3281 H   0  0  0  0  0  0  0  0  0  0  0  0
  144.7435  137.4207  153.3746 H   0  0  0  0  0  0  0  0  0  0  0  0
  144.9294  137.6624  151.6635 H   0  0  0  0  0  0  0  0  0  0  0  0
  146.1168  133.7086  152.9124 H   0  0  0  0  0  0  0  0  0  0  0  0
  145.9964  134.8997  154.1909 H   0  0  0  0  0  0  0  0  0  0  0  0
  147.1907  135.0987  152.9158 H   0  0  0  0  0  0  0  0  0  0  0  0
  143.5337  134.9332  153.6336 H   0  0  0  0  0  0  0  0  0  0  0  0
  143.0055  135.8787  152.2534 H   0  0  0  0  0  0  0  0  0  0  0  0
  143.6904  132.9632  152.3171 H   0  0  0  0  0  0  0  0  0  0  0  0
  142.4687  133.7921  151.3645 H   0  0  0  0  0  0  0  0  0  0  0  0
  145.1663  133.0739  150.5931 H   0  0  0  0  0  0  0  0  0  0  0  0
  144.0101  133.9450  149.5974 H   0  0  0  0  0  0  0  0  0  0  0  0
  144.8709  136.0173  150.1749 H   0  0  0  0  0  0  0  0  0  0  0  0
  146.3484  135.1278  150.4858 H   0  0  0  0  0  0  0  0  0  0  0  0
  1  2  1  0  0  0  0
  1 19  1  0  0  0  0
  1 20  1  0  0  0  0
  1 21  1  0  0  0  0
  2  7  1  0  0  0  0
  2  3  2  0  0  0  0
  3  4  1  0  0  0  0
  4  5  2  0  0  0  0
  5  6  1  0  0  0  0
  5 22  1  0  0  0  0
  6  7  2  0  0  0  0
  6 23  1  0  0  0  0
  7  8  1  0  0  0  0
  8  9  1  0  0  0  0
  8 24  1  0  0  0  0
  9 10  2  0  0  0  0
  9 11  1  0  0  0  0
 11 12  1  0  0  0  0
 11 25  1  0  0  0  0
 12 13  1  0  0  0  0
 12 26  1  0  0  0  0
 12 27  1  0  0  0  0
 13 18  1  0  0  0  0
 13 14  1  0  0  0  0
 13 15  1  0  0  0  0
 14 28  1  0  0  0  0
 14 29  1  0  0  0  0
 14 30  1  0  0  0  0
 15 16  1  0  0  0  0
 15 31  1  0  0  0  0
 15 32  1  0  0  0  0
 16 17  1  0  0  0  0
 16 33  1  0  0  0  0
 16 34  1  0  0  0  0
 17 18  1  0  0  0  0
 17 35  1  0  0  0  0
 17 36  1  0  0  0  0
 18 37  1  0  0  0  0
 18 38  1  0  0  0  0
M  END
> <s_m_source_file>
AV-unprocessed.smi

> <i_m_source_file_index>
2506

> <i_lp_mmshare_version>
43012

> <i_f3d_flags>
0

> <s_epik_input>
W0NIM11jMW5uW2NIXVtjSF1jMVtOSF1DKD1PKVtOSF1bQ0gyXUMyKFtDSDNdKVtDSDJdW0NIMl1bQ0gyXVtDSDJdMg==

> <s_epik_cmdline>
J2VwaWtfcHl0aG9uJywgJy1waCcsICc3LjAnLCAnLXRuJywgJzgnLCAnLW1hJywgJzIwMCcsICctbWV0YWxfYmluZGluZycsICctaW1hZScsICc8aW5maWxlLm1hZT4nLCAnLW9tYWUnLCAnPG91dGZpbGUubWFlPic=

> <r_lp_tautomer_probability>
1

> <r_epik_Ionization_Penalty>
0.0953638

> <r_epik_Ionization_Penalty_Charging>
0

> <r_epik_Ionization_Penalty_Neutral>
0.0953638

> <r_epik_State_Penalty>
0.0189073

> <r_epik_Charging_Adjusted_Penalty>
0.0189073

> <i_epik_Tot_Q>
0

> <i_epik_Tot_abs_Q>
0

> <r_epik_Metal_State_Penalty>
0.0138022

> <b_epik_Metal_Only>
0

> <s_lp_Force_Field>
OPLS_2005

> <r_lp_Energy>
34.7898

> <b_lp_Chiralities_Consistent>
1

> <s_lp_Variant>
AV-unprocessed.smi:2506-1

> <Gold.Version>
5.8.1

> <Gold.Id.Protein>
6NUR|6NUR_protein|mol2

> <Gold.PLP.Fitness>
40.4962

> <Gold.PLP.PLP>
-32.9111

> <Gold.PLP.part.hbond>
-5.0000

> <Gold.PLP.part.metal>
0.0000

> <Gold.PLP.part.buried>
-2.7023

> <Gold.PLP.part.nonpolar>
-26.4358

> <Gold.PLP.part.repulsive>
0.2930

> <Gold.PLP.ligand.clash>
0.0000

> <Gold.PLP.ligand.torsion>
0.7896

> <Gold.PLP.Chemscore.Hbond>
2.0500

> <Gold.PLP.Chemscore.CHOScore>
1.0000

> <Gold.PLP.Chemscore.Metal>
0.0000

> <Gold.Chemscore.Hbonds>
donor molecule, donor type, donor heavy atom, donor atom, acceptor molecule, acceptor atom, score
      L1  H     8    24       P1  7948  1.00
      L1  H    11    25       P1  7948  1.00
      P1  H  7989  7998       L1     3  0.05
      L1  C     5    22       P1  8028  1.00

> <Gold.PLP.Chemscore.Internal.Correction>
0.0143

> <Gold.Rescore>
     Score         DG    S(hbond)    S(metal)    S(lipo)     H(rot)  DE(clash)    DE(int)     intcor
     15.44     -17.36       1.93        0.00      72.84       1.21       0.05       1.86       ----

> <Gold.Chemscore.Fitness>
15.4428

> <Gold.Chemscore.DG>
-17.3575

> <Gold.Chemscore.ZeroCoef>
-5.4800

> <Gold.Chemscore.Hbond>
1.9291

> <Gold.Chemscore.Metal>
0.0000

> <Gold.Chemscore.Lipo>
72.8431

> <Gold.Chemscore.Internal_Hbond>
0.0000

> <Gold.Chemscore.DEClash>
0.0541

> <Gold.Chemscore.DEInternal>
1.8606

> <Gold.Chemscore.Rot>
1.2063

> <Gold.Chemscore.Internal.Correction>
   9.000000E+99

> <Gold.Chemscore.Hbonds>
donor molecule, donor type, donor heavy atom, donor atom, acceptor molecule, acceptor atom, score
      L1  H     8    24       P1  7948  0.89
      L1  H    11    25       P1  7948  1.00

> <Gold.Chemscore.Hbond.Weighted>
-6.4431

> <Gold.Chemscore.Metal.Weighted>
-0.0000

> <Gold.Chemscore.Lipo.Weighted>
-8.5226

> <Gold.Chemscore.Internal_Hbond.Weighted>
0.0000

> <Gold.Chemscore.DEClash.Weighted>
0.0541

> <Gold.Chemscore.DEInternal.Weighted>
1.8606

> <Gold.Chemscore.Rot.Weighted>
3.0883

> <Gold.Chemscore.Internal.Correction.Weighted>
   9.000000E+99

> <Gold.Protein.RotatedTorsions>
[ 6907 6896 6895 6894 ] final  -36.68 input  -60.11 | X-H torsion
[ 7974 7965 7964 7962 ] final -126.97 input  175.53 | X-H torsion
[ 8008 7997 7996 7995 ] final  -12.61 input   59.86 | X-H torsion
[ 10167 10162 10161 10158 ] final   30.69 input  -65.29 | X-H torsion
[ 10718 10713 10712 10709 ] final -123.70 input   66.30 | X-H torsion
[ 10763 10752 10751 10750 ] final   29.36 input  -60.55 | X-H torsion
[ 11005 11000 10999 10996 ] final  101.34 input  -57.11 | X-H torsion

> <Gold.Protein.ActiveResidues>
 VAL166  LYS551  ARG553  GLY616  TRP617  ASP618  TYR619  PRO620  LYS621  CYS622 
 ASP623  PHE694  ASN695  SER759  ASP760  ASP761  ALA762  ILE779  LEU786  VAL792 
 PHE793  MET794  SER795  GLU796  ALA797  LYS798  CYS799  TRP800  GLU811  SER814 

> <Gold.Protein.RotatedAtoms>
  151.0242  134.9491  159.8075 H   0  0  0  0  0  0  0  0  0  0  0  0  # atno 6907 bound_to 6896
  152.5331  134.2864  159.9037 H   0  0  0  0  0  0  0  0  0  0  0  0  # atno 6908 bound_to 6896
  151.2872  133.4140  159.2665 H   0  0  0  0  0  0  0  0  0  0  0  0  # atno 6909 bound_to 6896
  144.9818  140.7648  143.4607 H   0  0  0  0  0  0  0  0  0  0  0  0  # atno 7974 bound_to 7965
  154.5363  140.2271  155.8717 H   0  0  0  0  0  0  0  0  0  0  0  0  # atno 8008 bound_to 7997
  156.1814  140.3099  155.9119 H   0  0  0  0  0  0  0  0  0  0  0  0  # atno 8009 bound_to 7997
  155.3348  140.0447  157.3034 H   0  0  0  0  0  0  0  0  0  0  0  0  # atno 8010 bound_to 7997
  140.4655  144.0841  150.6223 H   0  0  0  0  0  0  0  0  0  0  0  0  # atno 10167 bound_to 10162
  156.1524  130.6544  150.9933 H   0  0  0  0  0  0  0  0  0  0  0  0  # atno 10718 bound_to 10713
  153.0435  135.6491  154.0878 H   0  0  0  0  0  0  0  0  0  0  0  0  # atno 10763 bound_to 10752
  154.0580  135.2890  155.3331 H   0  0  0  0  0  0  0  0  0  0  0  0  # atno 10764 bound_to 10752
  154.6676  135.5368  153.8162 H   0  0  0  0  0  0  0  0  0  0  0  0  # atno 10765 bound_to 10752
  139.8773  134.9179  156.4892 H   0  0  0  0  0  0  0  0  0  0  0  0  # atno 11005 bound_to 11000
  145.2409  139.2073  143.4993 LP  0  0  0  0  0  0  0  0  0  0  0  0  # atno 17320 bound_to 7965
  146.3410  140.2304  142.8593 LP  0  0  0  0  0  0  0  0  0  0  0  0  # atno 17321 bound_to 7965
  140.4041  143.2689  151.9912 LP  0  0  0  0  0  0  0  0  0  0  0  0  # atno 17342 bound_to 10162
  139.4811  144.5972  151.7669 LP  0  0  0  0  0  0  0  0  0  0  0  0  # atno 17343 bound_to 10162
  157.6668  131.0870  150.7709 LP  0  0  0  0  0  0  0  0  0  0  0  0  # atno 17370 bound_to 10713
  156.7776  130.4849  149.5407 LP  0  0  0  0  0  0  0  0  0  0  0  0  # atno 17371 bound_to 10713
  140.8671  133.8016  155.9325 LP  0  0  0  0  0  0  0  0  0  0  0  0  # atno 17394 bound_to 11000
  140.8990  134.2401  157.5052 LP  0  0  0  0  0  0  0  0  0  0  0  0  # atno 17395 bound_to 11000

$$$$
