AV-unprocessed.smi:767|AV-procd|sdf|3667|dock10
  -GOLD-   22720 1 73D 1   1.00000     0.00000
 Structure written by MMmdl.
 48 50  0  0  0  0  0  0  0  0  2 V2000
  143.7996  132.5524  149.0902 C   0  0  0  0  0  0  0  0  0  0  0  0
  144.3908  133.5213  150.0920 C   0  0  0  0  0  0  0  0  0  0  0  0
  145.7406  133.4532  150.4979 C   0  0  0  0  0  0  0  0  0  0  0  0
  146.2255  134.3901  151.4331 C   0  0  0  0  0  0  0  0  0  0  0  0
  145.3541  135.3791  151.9405 C   0  0  0  0  0  0  0  0  0  0  0  0
  145.8564  136.4186  152.9283 C   0  0  0  0  0  0  0  0  0  0  0  0
  146.6703  135.8216  154.0952 C   0  0  0  0  0  0  0  0  0  0  0  0
  147.9211  136.5314  154.3485 N   0  0  0  0  0  0  0  0  0  0  0  0
  148.1673  137.3083  155.4120 C   0  0  0  0  0  0  0  0  0  0  0  0
  147.3555  137.5279  156.3106 O   0  0  0  0  0  0  0  0  0  0  0  0
  149.4138  137.7962  155.3882 N   0  0  0  0  0  0  0  0  0  0  0  0
  149.9981  138.6507  156.4232 C   0  0  2  0  0  0  0  0  0  0  0  0
  149.4634  140.1004  156.3727 C   0  0  2  0  0  0  0  0  0  0  0  0
  148.2794  140.5096  155.5308 C   0  0  0  0  0  0  0  0  0  0  0  0
  148.9388  141.0568  154.2609 C   0  0  0  0  0  0  0  0  0  0  0  0
  150.2469  140.4882  154.2543 O   0  0  0  0  0  0  0  0  0  0  0  0
  150.7189  140.4703  155.6001 C   0  0  2  0  0  0  0  0  0  0  0  0
  151.4164  139.1762  156.0675 C   0  0  0  0  0  0  0  0  0  0  0  0
  152.3348  139.3652  157.2785 C   0  0  0  0  0  0  0  0  0  0  0  0
  152.2468  138.4346  155.0118 C   0  0  0  0  0  0  0  0  0  0  0  0
  144.0126  135.3939  151.5036 C   0  0  0  0  0  0  0  0  0  0  0  0
  143.5855  134.4772  150.6077 N   0  3  0  0  0  0  0  0  0  0  0  0
  144.5843  132.0638  148.5116 H   0  0  0  0  0  0  0  0  0  0  0  0
  143.1400  133.0716  148.3944 H   0  0  0  0  0  0  0  0  0  0  0  0
  143.2229  131.7830  149.6040 H   0  0  0  0  0  0  0  0  0  0  0  0
  146.3993  132.6967  150.0966 H   0  0  0  0  0  0  0  0  0  0  0  0
  147.2584  134.3548  151.7481 H   0  0  0  0  0  0  0  0  0  0  0  0
  146.4641  137.1491  152.3932 H   0  0  0  0  0  0  0  0  0  0  0  0
  145.0040  136.9728  153.3236 H   0  0  0  0  0  0  0  0  0  0  0  0
  146.0814  135.8790  155.0110 H   0  0  0  0  0  0  0  0  0  0  0  0
  146.8656  134.7623  153.9219 H   0  0  0  0  0  0  0  0  0  0  0  0
  148.6560  136.4160  153.6660 H   0  0  0  0  0  0  0  0  0  0  0  0
  150.0105  137.5525  154.6111 H   0  0  0  0  0  0  0  0  0  0  0  0
  149.9353  138.2256  157.4264 H   0  0  0  0  0  0  0  0  0  0  0  0
  149.4700  140.5501  157.3669 H   0  0  0  0  0  0  0  0  0  0  0  0
  147.6223  139.6692  155.3080 H   0  0  0  0  0  0  0  0  0  0  0  0
  147.6728  141.2738  156.0173 H   0  0  0  0  0  0  0  0  0  0  0  0
  148.3863  140.8020  153.3564 H   0  0  0  0  0  0  0  0  0  0  0  0
  149.0258  142.1431  154.3130 H   0  0  0  0  0  0  0  0  0  0  0  0
  151.1778  141.4085  155.9158 H   0  0  0  0  0  0  0  0  0  0  0  0
  153.2212  139.9470  157.0232 H   0  0  0  0  0  0  0  0  0  0  0  0
  152.6714  138.4080  157.6779 H   0  0  0  0  0  0  0  0  0  0  0  0
  151.8298  139.8914  158.0889 H   0  0  0  0  0  0  0  0  0  0  0  0
  153.1634  138.9746  154.7730 H   0  0  0  0  0  0  0  0  0  0  0  0
  151.7046  138.3092  154.0747 H   0  0  0  0  0  0  0  0  0  0  0  0
  152.5322  137.4409  155.3582 H   0  0  0  0  0  0  0  0  0  0  0  0
  143.2751  136.1105  151.8348 H   0  0  0  0  0  0  0  0  0  0  0  0
  142.6120  134.5096  150.3039 H   0  0  0  0  0  0  0  0  0  0  0  0
  1  2  1  0  0  0  0
  1 23  1  0  0  0  0
  1 24  1  0  0  0  0
  1 25  1  0  0  0  0
  2 22  1  0  0  0  0
  2  3  2  0  0  0  0
  3  4  1  0  0  0  0
  3 26  1  0  0  0  0
  4  5  2  0  0  0  0
  4 27  1  0  0  0  0
  5  6  1  0  0  0  0
  5 21  1  0  0  0  0
  6  7  1  0  0  0  0
  6 28  1  0  0  0  0
  6 29  1  0  0  0  0
  7  8  1  0  0  0  0
  7 30  1  0  0  0  0
  7 31  1  0  0  0  0
  8  9  1  0  0  0  0
  8 32  1  0  0  0  0
  9 10  2  0  0  0  0
  9 11  1  0  0  0  0
 11 12  1  0  0  0  0
 11 33  1  0  0  0  0
 12 18  1  0  0  0  0
 12 13  1  0  0  0  0
 12 34  1  0  0  0  0
 13 17  1  0  0  0  0
 13 14  1  0  0  0  0
 13 35  1  0  0  0  0
 14 15  1  0  0  0  0
 14 36  1  0  0  0  0
 14 37  1  0  0  0  0
 15 16  1  0  0  0  0
 15 38  1  0  0  0  0
 15 39  1  0  0  0  0
 16 17  1  0  0  0  0
 17 18  1  0  0  0  0
 17 40  1  0  0  0  0
 18 19  1  0  0  0  0
 18 20  1  0  0  0  0
 19 41  1  0  0  0  0
 19 42  1  0  0  0  0
 19 43  1  0  0  0  0
 20 44  1  0  0  0  0
 20 45  1  0  0  0  0
 20 46  1  0  0  0  0
 21 22  2  0  0  0  0
 21 47  1  0  0  0  0
 22 48  1  0  0  0  0
M  CHG  1  22   1
M  END
> <s_m_source_file>
AV-unprocessed.smi

> <i_m_source_file_index>
767

> <i_lp_mmshare_version>
43012

> <i_f3d_flags>
0

> <s_epik_input>
W0NIM11jMVtjSF1bY0hdYyhbY0hdbjEpW0NIMl1bQ0gyXVtOSF1DKD1PKVtOSF1bQ0BIXTJDKFtDSDNdKShbQ0gzXSlbQ0BIXShbQ0BASF0yMylPW0NIMl1bQ0gyXTM=

> <s_epik_cmdline>
J2VwaWtfcHl0aG9uJywgJy1waCcsICc3LjAnLCAnLXRuJywgJzgnLCAnLW1hJywgJzIwMCcsICctbWV0YWxfYmluZGluZycsICctaW1hZScsICc8aW5maWxlLm1hZT4nLCAnLW9tYWUnLCAnPG91dGZpbGUubWFlPic=

> <r_epik_Ionization_Penalty>
1.41853

> <r_epik_Ionization_Penalty_Charging>
1.41848

> <r_epik_Ionization_Penalty_Neutral>
5.17407e-05

> <r_epik_State_Penalty>
1.50205

> <r_epik_Charging_Adjusted_Penalty>
2.92053

> <i_epik_Tot_Q>
1

> <i_epik_Tot_abs_Q>
1

> <r_epik_Metal_State_Penalty>
1.5544

> <b_epik_Metal_Only>
0

> <s_lp_Force_Field>
OPLS_2005

> <r_lp_Energy>
40.587

> <b_lp_Chiralities_Consistent>
1

> <s_lp_Variant>
AV-unprocessed.smi:767-11

> <Gold.Version>
5.8.1

> <Gold.Id.Protein>
6NUR|6NUR_protein|mol2

> <Gold.PLP.Fitness>
42.7672

> <Gold.PLP.PLP>
-32.5607

> <Gold.PLP.part.hbond>
-2.9417

> <Gold.PLP.part.metal>
0.0000

> <Gold.PLP.part.buried>
-2.6756

> <Gold.PLP.part.nonpolar>
-27.0959

> <Gold.PLP.part.repulsive>
0.1522

> <Gold.PLP.ligand.clash>
0.0000

> <Gold.PLP.ligand.torsion>
0.6328

> <Gold.PLP.Chemscore.Hbond>
3.7600

> <Gold.PLP.Chemscore.CHOScore>
0.0000

> <Gold.PLP.Chemscore.Metal>
0.0000

> <Gold.Chemscore.Hbonds>
donor molecule, donor type, donor heavy atom, donor atom, acceptor molecule, acceptor atom, score
      L1  H     8    32       P1  7948  0.86
      L1  H    22    48       P1 10186  2.00
      P1  H  7989  7998       L1    16  0.88

> <Gold.PLP.Chemscore.Internal.Correction>
0.1920

> <Gold.Rescore>
     Score         DG    S(hbond)    S(metal)    S(lipo)     H(rot)  DE(clash)    DE(int)     intcor
     19.41     -20.06       2.43        0.00      88.60       1.52       0.05       0.60       ----

> <Gold.Chemscore.Fitness>
19.4090

> <Gold.Chemscore.DG>
-20.0615

> <Gold.Chemscore.ZeroCoef>
-5.4800

> <Gold.Chemscore.Hbond>
2.4296

> <Gold.Chemscore.Metal>
0.0000

> <Gold.Chemscore.Lipo>
88.6003

> <Gold.Chemscore.Internal_Hbond>
0.0000

> <Gold.Chemscore.DEClash>
0.0533

> <Gold.Chemscore.DEInternal>
0.5992

> <Gold.Chemscore.Rot>
1.5233

> <Gold.Chemscore.Internal.Correction>
   9.000000E+99

> <Gold.Chemscore.Hbonds>
donor molecule, donor type, donor heavy atom, donor atom, acceptor molecule, acceptor atom, score
      L1  H     8    32       P1  7948  0.85
      L1  H    22    48       P1 10186  0.55
      P1  H  7989  7998       L1    16  0.22

> <Gold.Chemscore.Hbond.Weighted>
-8.1148

> <Gold.Chemscore.Metal.Weighted>
-0.0000

> <Gold.Chemscore.Lipo.Weighted>
-10.3662

> <Gold.Chemscore.Internal_Hbond.Weighted>
0.0000

> <Gold.Chemscore.DEClash.Weighted>
0.0533

> <Gold.Chemscore.DEInternal.Weighted>
0.5992

> <Gold.Chemscore.Rot.Weighted>
3.8995

> <Gold.Chemscore.Internal.Correction.Weighted>
   9.000000E+99

> <Gold.Protein.RotatedTorsions>
[ 6907 6896 6895 6894 ] final  -29.79 input  -60.11 | X-H torsion
[ 7974 7965 7964 7962 ] final   69.40 input  175.53 | X-H torsion
[ 8008 7997 7996 7995 ] final -110.99 input   59.86 | X-H torsion
[ 10167 10162 10161 10158 ] final -172.79 input  -65.29 | X-H torsion
[ 10718 10713 10712 10709 ] final  -67.95 input   66.30 | X-H torsion
[ 10763 10752 10751 10750 ] final   -5.35 input  -60.55 | X-H torsion
[ 11005 11000 10999 10996 ] final   58.68 input  -57.11 | X-H torsion

> <Gold.Protein.ActiveResidues>
 VAL166  LYS551  ARG553  GLY616  TRP617  ASP618  TYR619  PRO620  LYS621  CYS622 
 ASP623  PHE694  ASN695  SER759  ASP760  ASP761  ALA762  ILE779  LEU786  VAL792 
 PHE793  MET794  SER795  GLU796  ALA797  LYS798  CYS799  TRP800  GLU811  SER814 

> <Gold.Protein.RotatedAtoms>
  151.1143  135.0044  159.8508 H   0  0  0  0  0  0  0  0  0  0  0  0  # atno 6907 bound_to 6896
  152.5445  134.1798  159.8641 H   0  0  0  0  0  0  0  0  0  0  0  0  # atno 6908 bound_to 6896
  151.1851  133.4656  159.2627 H   0  0  0  0  0  0  0  0  0  0  0  0  # atno 6909 bound_to 6896
  145.7909  139.2933  143.1211 H   0  0  0  0  0  0  0  0  0  0  0  0  # atno 7974 bound_to 7965
  154.9830  140.0396  157.2286 H   0  0  0  0  0  0  0  0  0  0  0  0  # atno 8008 bound_to 7997
  154.7697  140.2799  155.6125 H   0  0  0  0  0  0  0  0  0  0  0  0  # atno 8009 bound_to 7997
  156.2919  140.2612  156.2497 H   0  0  0  0  0  0  0  0  0  0  0  0  # atno 8010 bound_to 7997
  139.5724  144.1610  152.1403 H   0  0  0  0  0  0  0  0  0  0  0  0  # atno 10167 bound_to 10162
  156.0531  130.4286  150.1929 H   0  0  0  0  0  0  0  0  0  0  0  0  # atno 10718 bound_to 10713
  153.3974  135.7004  153.6451 H   0  0  0  0  0  0  0  0  0  0  0  0  # atno 10763 bound_to 10752
  153.4998  135.3654  155.2535 H   0  0  0  0  0  0  0  0  0  0  0  0  # atno 10764 bound_to 10752
  154.8707  135.4109  154.3302 H   0  0  0  0  0  0  0  0  0  0  0  0  # atno 10765 bound_to 10752
  140.0359  134.5943  155.9444 H   0  0  0  0  0  0  0  0  0  0  0  0  # atno 11005 bound_to 11000
  145.9977  140.8547  143.0034 LP  0  0  0  0  0  0  0  0  0  0  0  0  # atno 17320 bound_to 7965
  144.6782  140.2307  143.7355 LP  0  0  0  0  0  0  0  0  0  0  0  0  # atno 17321 bound_to 7965
  140.1145  144.5427  150.6903 LP  0  0  0  0  0  0  0  0  0  0  0  0  # atno 17342 bound_to 10162
  140.7008  143.2434  151.4868 LP  0  0  0  0  0  0  0  0  0  0  0  0  # atno 17343 bound_to 10162
  157.0009  130.9922  151.3391 LP  0  0  0  0  0  0  0  0  0  0  0  0  # atno 17370 bound_to 10713
  157.5475  130.8160  149.8104 LP  0  0  0  0  0  0  0  0  0  0  0  0  # atno 17371 bound_to 10713
  141.1857  133.6555  156.5209 LP  0  0  0  0  0  0  0  0  0  0  0  0  # atno 17394 bound_to 11000
  140.4148  134.7240  157.4856 LP  0  0  0  0  0  0  0  0  0  0  0  0  # atno 17395 bound_to 11000

$$$$
