AV-unprocessed.smi:249|AV-procd|sdf|1908|dock4
  -GOLD-   2262020593D 1   1.00000     0.00000
 Structure written by MMmdl.
 64 67  0  0  0  0  0  0  0  0  2 V2000
  145.9111  132.9263  150.5020 C   0  0  0  0  0  0  0  0  0  0  0  0
  144.9317  133.1915  151.6571 C   0  0  0  0  0  0  0  0  0  0  0  0
  144.6147  134.6361  151.8530 N   0  3  2  0  0  0  0  0  0  0  0  0
  145.8440  135.4431  152.1014 C   0  0  0  0  0  0  0  0  0  0  0  0
  145.5395  136.9437  152.2304 C   0  0  0  0  0  0  0  0  0  0  0  0
  144.5286  137.2224  153.3621 C   0  0  2  0  0  0  0  0  0  0  0  0
  145.0455  136.9304  154.7098 N   0  0  0  0  0  0  0  0  0  0  0  0
  144.1765  136.1899  155.6185 C   0  0  0  0  0  0  0  0  0  0  0  0
  145.6374  137.9596  155.3559 C   0  0  0  0  0  0  0  0  0  0  0  0
  145.1453  138.2913  156.5746 N   0  0  0  0  0  0  0  0  0  0  0  0
  145.7048  139.2857  157.2706 C   0  0  0  0  0  0  0  0  0  0  0  0
  146.7447  140.0543  156.9395 N   0  0  0  0  0  0  0  0  0  0  0  0
  147.2341  139.7265  155.7093 C   0  0  0  0  0  0  0  0  0  0  0  0
  146.7369  138.7078  154.8500 C   0  0  0  0  0  0  0  0  0  0  0  0
  147.4757  138.6742  153.6738 N   0  0  0  0  0  0  0  0  0  0  0  0
  148.3697  139.6115  153.8343 C   0  0  0  0  0  0  0  0  0  0  0  0
  148.3151  140.2732  155.0409 N   0  0  0  0  0  0  0  0  0  0  0  0
  149.1926  141.3405  155.4857 C   0  0  0  0  0  0  0  0  0  0  0  0
  150.1574  140.9527  156.6420 C   0  0  2  0  0  0  0  0  0  0  0  0
  151.0404  142.1749  156.9942 C   0  0  0  0  0  0  0  0  0  0  0  0
  150.2736  143.2220  157.5529 O   0  0  0  0  0  0  0  0  0  0  0  0
  151.0196  139.6912  156.3286 C   0  0  1  0  0  0  0  0  0  0  0  0
  151.7190  139.7046  154.9769 C   0  0  0  0  0  0  0  0  0  0  0  0
  152.7936  138.6419  155.1535 C   0  0  0  0  0  0  0  0  0  0  0  0
  153.2405  138.8121  156.4887 O   0  0  0  0  0  0  0  0  0  0  0  0
  152.2275  139.4577  157.2547 C   0  0  0  0  0  0  0  0  0  0  0  0
  143.2704  136.3996  153.0306 C   0  0  0  0  0  0  0  0  0  0  0  0
  143.5628  134.8867  152.8929 C   0  0  1  0  0  0  0  0  0  0  0  0
  142.2363  134.1556  152.5991 C   0  0  0  0  0  0  0  0  0  0  0  0
  145.9760  131.8575  150.2975 H   0  0  0  0  0  0  0  0  0  0  0  0
  146.9220  133.2633  150.7294 H   0  0  0  0  0  0  0  0  0  0  0  0
  145.5842  133.4162  149.5843 H   0  0  0  0  0  0  0  0  0  0  0  0
  144.0289  132.6367  151.4121 H   0  0  0  0  0  0  0  0  0  0  0  0
  145.3158  132.7661  152.5852 H   0  0  0  0  0  0  0  0  0  0  0  0
  146.3436  135.0783  152.9998 H   0  0  0  0  0  0  0  0  0  0  0  0
  146.5499  135.3243  151.2815 H   0  0  0  0  0  0  0  0  0  0  0  0
  146.4645  137.5039  152.3686 H   0  0  0  0  0  0  0  0  0  0  0  0
  145.1272  137.3034  151.2865 H   0  0  0  0  0  0  0  0  0  0  0  0
  144.2574  138.2781  153.3343 H   0  0  0  0  0  0  0  0  0  0  0  0
  144.5177  136.2505  156.6536 H   0  0  0  0  0  0  0  0  0  0  0  0
  144.1576  135.1349  155.3460 H   0  0  0  0  0  0  0  0  0  0  0  0
  143.1569  136.5744  155.5750 H   0  0  0  0  0  0  0  0  0  0  0  0
  145.2597  139.4916  158.2330 H   0  0  0  0  0  0  0  0  0  0  0  0
  149.1104  139.8337  153.0798 H   0  0  0  0  0  0  0  0  0  0  0  0
  149.7675  141.6930  154.6285 H   0  0  0  0  0  0  0  0  0  0  0  0
  148.5519  142.1708  155.7833 H   0  0  0  0  0  0  0  0  0  0  0  0
  149.5620  140.7292  157.5284 H   0  0  0  0  0  0  0  0  0  0  0  0
  151.7971  141.9220  157.7353 H   0  0  0  0  0  0  0  0  0  0  0  0
  151.5650  142.5422  156.1116 H   0  0  0  0  0  0  0  0  0  0  0  0
  149.8082  143.6596  156.8563 H   0  0  0  0  0  0  0  0  0  0  0  0
  150.3811  138.8069  156.3607 H   0  0  0  0  0  0  0  0  0  0  0  0
  151.0529  139.4767  154.1443 H   0  0  0  0  0  0  0  0  0  0  0  0
  152.1820  140.6755  154.7937 H   0  0  0  0  0  0  0  0  0  0  0  0
  152.3669  137.6439  155.0459 H   0  0  0  0  0  0  0  0  0  0  0  0
  153.6110  138.7448  154.4396 H   0  0  0  0  0  0  0  0  0  0  0  0
  152.6361  140.4006  157.6194 H   0  0  0  0  0  0  0  0  0  0  0  0
  151.9744  138.8429  158.1171 H   0  0  0  0  0  0  0  0  0  0  0  0
  142.4968  136.5716  153.7793 H   0  0  0  0  0  0  0  0  0  0  0  0
  142.8468  136.7660  152.0941 H   0  0  0  0  0  0  0  0  0  0  0  0
  143.9415  134.5206  153.8487 H   0  0  0  0  0  0  0  0  0  0  0  0
  141.4515  134.4842  153.2812 H   0  0  0  0  0  0  0  0  0  0  0  0
  142.3161  133.0776  152.7338 H   0  0  0  0  0  0  0  0  0  0  0  0
  141.8897  134.3508  151.5837 H   0  0  0  0  0  0  0  0  0  0  0  0
  144.2282  134.9644  150.9795 H   0  0  0  0  0  0  0  0  0  0  0  0
  1  2  1  0  0  0  0
  1 30  1  0  0  0  0
  1 31  1  0  0  0  0
  1 32  1  0  0  0  0
  2  3  1  0  0  0  0
  2 33  1  0  0  0  0
  2 34  1  0  0  0  0
  3 28  1  0  0  0  0
  3  4  1  0  0  0  0
  3 64  1  0  0  0  0
  4  5  1  0  0  0  0
  4 35  1  0  0  0  0
  4 36  1  0  0  0  0
  5  6  1  0  0  0  0
  5 37  1  0  0  0  0
  5 38  1  0  0  0  0
  6  7  1  0  0  0  0
  6 27  1  0  0  0  0
  6 39  1  0  0  0  0
  7  8  1  0  0  0  0
  7  9  1  0  0  0  0
  8 40  1  0  0  0  0
  8 41  1  0  0  0  0
  8 42  1  0  0  0  0
  9 14  1  0  0  0  0
  9 10  2  0  0  0  0
 10 11  1  0  0  0  0
 11 12  2  0  0  0  0
 11 43  1  0  0  0  0
 12 13  1  0  0  0  0
 13 17  1  0  0  0  0
 13 14  2  0  0  0  0
 14 15  1  0  0  0  0
 15 16  2  0  0  0  0
 16 17  1  0  0  0  0
 16 44  1  0  0  0  0
 17 18  1  0  0  0  0
 18 19  1  0  0  0  0
 18 45  1  0  0  0  0
 18 46  1  0  0  0  0
 19 20  1  0  0  0  0
 19 22  1  0  0  0  0
 19 47  1  0  0  0  0
 20 21  1  0  0  0  0
 20 48  1  0  0  0  0
 20 49  1  0  0  0  0
 21 50  1  0  0  0  0
 22 26  1  0  0  0  0
 22 23  1  0  0  0  0
 22 51  1  0  0  0  0
 23 24  1  0  0  0  0
 23 52  1  0  0  0  0
 23 53  1  0  0  0  0
 24 25  1  0  0  0  0
 24 54  1  0  0  0  0
 24 55  1  0  0  0  0
 25 26  1  0  0  0  0
 26 56  1  0  0  0  0
 26 57  1  0  0  0  0
 27 28  1  0  0  0  0
 27 58  1  0  0  0  0
 27 59  1  0  0  0  0
 28 29  1  0  0  0  0
 28 60  1  0  0  0  0
 29 61  1  0  0  0  0
 29 62  1  0  0  0  0
 29 63  1  0  0  0  0
M  CHG  1   3   1
M  END
> <s_m_source_file>
AV-unprocessed.smi

> <i_m_source_file_index>
249

> <i_lp_mmshare_version>
43012

> <i_f3d_flags>
0

> <s_epik_input>
W0NIM11bQ0gyXU4xW0NIMl1bQ0gyXVtDQEhdKFtDSDJdW0NASF0xW0NIM10pTihbQ0gzXSljKG5bY0hdbjIpYyhjMjMpbltjSF1uM1tDSDJdW0NASF0oW0NIMl1bT0hdKVtDQEBIXTRbQ0gyXVtDSDJdT1tDSDJdNA==

> <s_epik_cmdline>
J2VwaWtfcHl0aG9uJywgJy1waCcsICc3LjAnLCAnLXRuJywgJzgnLCAnLW1hJywgJzIwMCcsICctbWV0YWxfYmluZGluZycsICctaW1hZScsICc8aW5maWxlLm1hZT4nLCAnLW9tYWUnLCAnPG91dGZpbGUubWFlPic=

> <r_lp_tautomer_probability>
1

> <r_epik_Ionization_Penalty>
0.00294688

> <r_epik_Ionization_Penalty_Charging>
0.00169971

> <r_epik_Ionization_Penalty_Neutral>
0.00124717

> <r_epik_State_Penalty>
-0

> <r_epik_Charging_Adjusted_Penalty>
0.00169971

> <i_epik_Tot_Q>
1

> <i_epik_Tot_abs_Q>
1

> <r_epik_Metal_State_Penalty>
-0

> <b_epik_Metal_Only>
0

> <s_lp_Force_Field>
OPLS_2005

> <r_lp_Energy>
57.0978

> <b_lp_Chiralities_Consistent>
1

> <s_lp_Variant>
AV-unprocessed.smi:249-11

> <Gold.Version>
5.8.1

> <Gold.Id.Protein>
6NUR|6NUR_protein|mol2

> <Gold.PLP.Fitness>
39.8894

> <Gold.PLP.PLP>
-33.5016

> <Gold.PLP.part.hbond>
-2.0000

> <Gold.PLP.part.metal>
0.0000

> <Gold.PLP.part.buried>
-2.8696

> <Gold.PLP.part.nonpolar>
-29.7618

> <Gold.PLP.part.repulsive>
0.2388

> <Gold.PLP.ligand.clash>
0.0012

> <Gold.PLP.ligand.torsion>
1.6208

> <Gold.PLP.Chemscore.Hbond>
2.0000

> <Gold.PLP.Chemscore.CHOScore>
0.9949

> <Gold.PLP.Chemscore.Metal>
0.0000

> <Gold.Chemscore.Hbonds>
donor molecule, donor type, donor heavy atom, donor atom, acceptor molecule, acceptor atom, score
      L1  H    21    50       P1  8028  1.00
      P1  H  7997  8009       L1    25  0.90
      L1  C    16    44       P1  7957  0.91

> <Gold.PLP.Chemscore.Internal.Correction>
0.6459

> <Gold.Rescore>
     Score         DG    S(hbond)    S(metal)    S(lipo)     H(rot)  DE(clash)    DE(int)     intcor
      9.11     -13.43       1.48        0.00      89.17       2.90       1.08       3.24       ----

> <Gold.Chemscore.Fitness>
9.1107

> <Gold.Chemscore.DG>
-13.4325

> <Gold.Chemscore.ZeroCoef>
-5.4800

> <Gold.Chemscore.Hbond>
1.4807

> <Gold.Chemscore.Metal>
0.0000

> <Gold.Chemscore.Lipo>
89.1687

> <Gold.Chemscore.Internal_Hbond>
0.0000

> <Gold.Chemscore.DEClash>
1.0830

> <Gold.Chemscore.DEInternal>
3.2388

> <Gold.Chemscore.Rot>
2.9006

> <Gold.Chemscore.Internal.Correction>
   9.000000E+99

> <Gold.Chemscore.Hbonds>
donor molecule, donor type, donor heavy atom, donor atom, acceptor molecule, acceptor atom, score
      L1  H    21    50       P1  8028  0.99
      P1  H  7997  8009       L1    25  0.10

> <Gold.Chemscore.Hbond.Weighted>
-4.9454

> <Gold.Chemscore.Metal.Weighted>
-0.0000

> <Gold.Chemscore.Lipo.Weighted>
-10.4327

> <Gold.Chemscore.Internal_Hbond.Weighted>
0.0000

> <Gold.Chemscore.DEClash.Weighted>
1.0830

> <Gold.Chemscore.DEInternal.Weighted>
3.2388

> <Gold.Chemscore.Rot.Weighted>
7.4256

> <Gold.Chemscore.Internal.Correction.Weighted>
   9.000000E+99

> <Gold.Protein.RotatedTorsions>
[ 6907 6896 6895 6894 ] final  -25.27 input  -60.11 | X-H torsion
[ 7974 7965 7964 7962 ] final   86.88 input  175.53 | X-H torsion
[ 8008 7997 7996 7995 ] final -169.59 input   59.86 | X-H torsion
[ 10167 10162 10161 10158 ] final  -72.16 input  -65.29 | X-H torsion
[ 10718 10713 10712 10709 ] final  122.13 input   66.30 | X-H torsion
[ 10763 10752 10751 10750 ] final -170.04 input  -60.55 | X-H torsion
[ 11005 11000 10999 10996 ] final   24.58 input  -57.11 | X-H torsion

> <Gold.Protein.ActiveResidues>
 VAL166  LYS551  ARG553  GLY616  TRP617  ASP618  TYR619  PRO620  LYS621  CYS622 
 ASP623  PHE694  ASN695  SER759  ASP760  ASP761  ALA762  ILE779  LEU786  VAL792 
 PHE793  MET794  SER795  GLU796  ALA797  LYS798  CYS799  TRP800  GLU811  SER814 

> <Gold.Protein.RotatedAtoms>
  151.1776  135.0346  159.8778 H   0  0  0  0  0  0  0  0  0  0  0  0  # atno 6907 bound_to 6896
  152.5446  134.1099  159.8364 H   0  0  0  0  0  0  0  0  0  0  0  0  # atno 6908 bound_to 6896
  151.1212  133.5056  159.2634 H   0  0  0  0  0  0  0  0  0  0  0  0  # atno 6909 bound_to 6896
  145.5664  139.2309  143.2431 H   0  0  0  0  0  0  0  0  0  0  0  0  # atno 7974 bound_to 7965
  155.9070  140.1051  157.1307 H   0  0  0  0  0  0  0  0  0  0  0  0  # atno 8008 bound_to 7997
  154.4034  140.1281  156.4573 H   0  0  0  0  0  0  0  0  0  0  0  0  # atno 8009 bound_to 7997
  155.7355  140.3468  155.5082 H   0  0  0  0  0  0  0  0  0  0  0  0  # atno 8010 bound_to 7997
  140.5214  143.2331  151.7423 H   0  0  0  0  0  0  0  0  0  0  0  0  # atno 10167 bound_to 10162
  157.5765  131.1079  150.8268 H   0  0  0  0  0  0  0  0  0  0  0  0  # atno 10718 bound_to 10713
  154.6458  135.2904  155.0048 H   0  0  0  0  0  0  0  0  0  0  0  0  # atno 10763 bound_to 10752
  154.1159  135.6555  153.4897 H   0  0  0  0  0  0  0  0  0  0  0  0  # atno 10764 bound_to 10752
  153.0350  135.5276  154.7344 H   0  0  0  0  0  0  0  0  0  0  0  0  # atno 10765 bound_to 10752
  140.3571  134.2165  155.7675 H   0  0  0  0  0  0  0  0  0  0  0  0  # atno 11005 bound_to 11000
  146.1815  140.6489  142.9187 LP  0  0  0  0  0  0  0  0  0  0  0  0  # atno 17320 bound_to 7965
  144.7458  140.5065  143.6836 LP  0  0  0  0  0  0  0  0  0  0  0  0  # atno 17321 bound_to 7965
  139.4925  144.4249  151.9937 LP  0  0  0  0  0  0  0  0  0  0  0  0  # atno 17342 bound_to 10162
  140.3345  144.3276  150.5980 LP  0  0  0  0  0  0  0  0  0  0  0  0  # atno 17343 bound_to 10162
  156.8726  130.5151  149.5296 LP  0  0  0  0  0  0  0  0  0  0  0  0  # atno 17370 bound_to 10713
  156.0810  130.5821  150.9563 LP  0  0  0  0  0  0  0  0  0  0  0  0  # atno 17371 bound_to 10713
  141.1995  133.8010  157.0533 LP  0  0  0  0  0  0  0  0  0  0  0  0  # atno 17394 bound_to 11000
  140.0656  134.9731  157.1380 LP  0  0  0  0  0  0  0  0  0  0  0  0  # atno 17395 bound_to 11000

$$$$
