AV-unprocessed.smi:103|AV-procd|sdf|984|dock1
  -GOLD-   2262017553D 1   1.00000     0.00000
 Structure written by MMmdl.
 53 55  0  0  0  0  0  0  0  0  1 V2000
  145.3128  133.0812  158.0146 C   0  0  0  0  0  0  0  0  0  0  0  0
  146.2598  133.1745  159.2036 C   0  0  0  0  0  0  0  0  0  0  0  0
  146.5654  132.1814  159.8639 O   0  0  0  0  0  0  0  0  0  0  0  0
  146.6931  134.4263  159.4138 O   0  0  0  0  0  0  0  0  0  0  0  0
  147.5721  134.6951  160.4950 C   0  0  0  0  0  0  0  0  0  0  0  0
  148.5110  135.8618  160.1304 C   0  0  1  0  0  0  0  0  0  0  0  0
  149.2920  135.4727  159.0101 O   0  0  0  0  0  0  0  0  0  0  0  0
  148.5848  135.7485  157.8415 C   0  0  2  0  0  0  0  0  0  0  0  0
  149.5689  136.1201  156.7725 N   0  0  0  0  0  0  0  0  0  0  0  0
  149.8364  135.4994  155.5687 C   0  0  0  0  0  0  0  0  0  0  0  0
  149.0976  133.9877  154.9619 S   0  0  0  0  0  0  0  0  0  0  0  0
  150.2429  132.7158  155.6318 C   0  0  0  0  0  0  0  0  0  0  0  0
  147.7862  133.8476  155.6131 O   0  0  0  0  0  0  0  0  0  0  0  0
  149.2038  134.0179  153.4947 O   0  0  0  0  0  0  0  0  0  0  0  0
  150.7968  136.0108  154.8473 N   0  0  0  0  0  0  0  0  0  0  0  0
  151.1746  137.1302  155.5754 C   0  0  0  0  0  0  0  0  0  0  0  0
  152.1294  138.1589  155.3760 C   0  0  0  0  0  0  0  0  0  0  0  0
  152.9322  138.2145  154.3042 N   0  0  0  0  0  0  0  0  0  0  0  0
  152.2357  139.1324  156.3101 N   0  0  0  0  0  0  0  0  0  0  0  0
  151.4464  139.0999  157.3885 C   0  0  0  0  0  0  0  0  0  0  0  0
  150.5138  138.2011  157.7148 N   0  0  0  0  0  0  0  0  0  0  0  0
  150.4081  137.2177  156.7729 C   0  0  0  0  0  0  0  0  0  0  0  0
  147.5799  136.8786  158.1578 C   0  0  2  0  0  0  0  0  0  0  0  0
  147.8317  138.0688  157.4153 O   0  0  0  0  0  0  0  0  0  0  0  0
  147.2495  139.2289  157.7594 C   0  0  0  0  0  0  0  0  0  0  0  0
  147.5494  140.3400  156.7634 C   0  0  0  0  0  0  0  0  0  0  0  0
  146.5412  139.4237  158.7466 O   0  0  0  0  0  0  0  0  0  0  0  0
  147.8136  137.1381  159.6414 C   0  0  1  0  0  0  0  0  0  0  0  0
  146.5909  137.3768  160.3285 O   0  0  0  0  0  0  0  0  0  0  0  0
  146.5248  137.2678  161.6655 C   0  0  0  0  0  0  0  0  0  0  0  0
  145.1191  137.5165  162.1952 C   0  0  0  0  0  0  0  0  0  0  0  0
  147.4600  137.0031  162.4207 O   0  0  0  0  0  0  0  0  0  0  0  0
  145.8107  133.4264  157.1085 H   0  0  0  0  0  0  0  0  0  0  0  0
  144.4306  133.6988  158.1832 H   0  0  0  0  0  0  0  0  0  0  0  0
  144.9903  132.0514  157.8607 H   0  0  0  0  0  0  0  0  0  0  0  0
  146.9704  134.9630  161.3643 H   0  0  0  0  0  0  0  0  0  0  0  0
  148.1496  133.8084  160.7612 H   0  0  0  0  0  0  0  0  0  0  0  0
  149.1742  136.0727  160.9698 H   0  0  0  0  0  0  0  0  0  0  0  0
  148.1057  134.8334  157.4984 H   0  0  0  0  0  0  0  0  0  0  0  0
  149.9073  131.7265  155.3225 H   0  0  0  0  0  0  0  0  0  0  0  0
  150.2558  132.7727  156.7199 H   0  0  0  0  0  0  0  0  0  0  0  0
  151.2467  132.8950  155.2472 H   0  0  0  0  0  0  0  0  0  0  0  0
  152.8719  137.5008  153.5922 H   0  0  0  0  0  0  0  0  0  0  0  0
  153.5964  138.9693  154.2109 H   0  0  0  0  0  0  0  0  0  0  0  0
  151.5836  139.9078  158.0923 H   0  0  0  0  0  0  0  0  0  0  0  0
  146.5745  136.4849  158.0001 H   0  0  0  0  0  0  0  0  0  0  0  0
  147.1519  140.0829  155.7814 H   0  0  0  0  0  0  0  0  0  0  0  0
  148.6256  140.4876  156.6745 H   0  0  0  0  0  0  0  0  0  0  0  0
  147.0966  141.2776  157.0858 H   0  0  0  0  0  0  0  0  0  0  0  0
  148.5086  137.9702  159.7681 H   0  0  0  0  0  0  0  0  0  0  0  0
  144.4226  136.7912  161.7745 H   0  0  0  0  0  0  0  0  0  0  0  0
  144.7834  138.5172  161.9236 H   0  0  0  0  0  0  0  0  0  0  0  0
  145.0973  137.4278  163.2815 H   0  0  0  0  0  0  0  0  0  0  0  0
  1  2  1  0  0  0  0
  1 33  1  0  0  0  0
  1 34  1  0  0  0  0
  1 35  1  0  0  0  0
  2  3  2  0  0  0  0
  2  4  1  0  0  0  0
  4  5  1  0  0  0  0
  5  6  1  0  0  0  0
  5 36  1  0  0  0  0
  5 37  1  0  0  0  0
  6 28  1  0  0  0  0
  6  7  1  0  0  0  0
  6 38  1  0  0  0  0
  7  8  1  0  0  0  0
  8  9  1  0  0  0  0
  8 23  1  0  0  0  0
  8 39  1  0  0  0  0
  9 22  1  0  0  0  0
  9 10  1  0  0  0  0
 10 11  1  0  0  0  0
 10 15  2  0  0  0  0
 11 12  1  0  0  0  0
 11 13  2  0  0  0  0
 11 14  2  0  0  0  0
 12 40  1  0  0  0  0
 12 41  1  0  0  0  0
 12 42  1  0  0  0  0
 15 16  1  0  0  0  0
 16 22  2  0  0  0  0
 16 17  1  0  0  0  0
 17 18  1  0  0  0  0
 17 19  2  0  0  0  0
 18 43  1  0  0  0  0
 18 44  1  0  0  0  0
 19 20  1  0  0  0  0
 20 21  2  0  0  0  0
 20 45  1  0  0  0  0
 21 22  1  0  0  0  0
 23 24  1  0  0  0  0
 23 28  1  0  0  0  0
 23 46  1  0  0  0  0
 24 25  1  0  0  0  0
 25 26  1  0  0  0  0
 25 27  2  0  0  0  0
 26 47  1  0  0  0  0
 26 48  1  0  0  0  0
 26 49  1  0  0  0  0
 28 29  1  0  0  0  0
 28 50  1  0  0  0  0
 29 30  1  0  0  0  0
 30 31  1  0  0  0  0
 30 32  2  0  0  0  0
 31 51  1  0  0  0  0
 31 52  1  0  0  0  0
 31 53  1  0  0  0  0
M  END
> <s_m_source_file>
AV-unprocessed.smi

> <i_m_source_file_index>
103

> <i_lp_mmshare_version>
43012

> <i_f3d_flags>
0

> <s_epik_input>
W0NIM11DKD1PKU9bQ0gyXVtDQEBIXTFPW0NASF0oW0NAQEhdKE9DKD1PKVtDSDNdKVtDQEhdMU9DKD1PKVtDSDNdKW4oYyhuMilTKD1PKSg9TylbQ0gzXSljKGMyMyluW2NIXW5jM1tOSDJd

> <s_epik_cmdline>
J2VwaWtfcHl0aG9uJywgJy1waCcsICc3LjAnLCAnLXRuJywgJzgnLCAnLW1hJywgJzIwMCcsICctbWV0YWxfYmluZGluZycsICctaW1hZScsICc8aW5maWxlLm1hZT4nLCAnLW9tYWUnLCAnPG91dGZpbGUubWFlPic=

> <r_lp_tautomer_probability>
1

> <r_epik_Ionization_Penalty>
1.51338e-05

> <r_epik_Ionization_Penalty_Charging>
0

> <r_epik_Ionization_Penalty_Neutral>
1.51338e-05

> <r_epik_State_Penalty>
-0

> <r_epik_Charging_Adjusted_Penalty>
0

> <i_epik_Tot_Q>
0

> <i_epik_Tot_abs_Q>
0

> <r_epik_Metal_State_Penalty>
-0

> <b_epik_Metal_Only>
0

> <s_epik_Chemistry_Notes>
This compound has an ester and may undergo hydrolysis at high or low pH. This compound contains an acetal/aminal-like group ( X-CH(R)-Y where X, Y are N, S, or O) that may be acid/base labile, releasing an aldehyde.

> <s_lp_Force_Field>
OPLS_2005

> <r_lp_Energy>
18.7929

> <b_lp_Chiralities_Consistent>
1

> <s_lp_Variant>
AV-unprocessed.smi:103-8

> <Gold.Version>
5.8.1

> <Gold.Id.Protein>
6NUR|6NUR_protein|mol2

> <Gold.PLP.Fitness>
35.1967

> <Gold.PLP.PLP>
-25.6287

> <Gold.PLP.part.hbond>
-6.1267

> <Gold.PLP.part.metal>
0.0000

> <Gold.PLP.part.buried>
-2.1787

> <Gold.PLP.part.nonpolar>
-18.2356

> <Gold.PLP.part.repulsive>
1.1948

> <Gold.PLP.ligand.clash>
0.0000

> <Gold.PLP.ligand.torsion>
1.4737

> <Gold.PLP.Chemscore.Hbond>
3.3523

> <Gold.PLP.Chemscore.CHOScore>
0.0000

> <Gold.PLP.Chemscore.Metal>
0.0000

> <Gold.Chemscore.Hbonds>
donor molecule, donor type, donor heavy atom, donor atom, acceptor molecule, acceptor atom, score
      P1  H  6896  6908       L1     7  1.00
      P1  H  6931  6943       L1    32  0.84
      P1  H  7997  8008       L1    19  0.28
      P1  H 10752 10764       L1    15  0.28

> <Gold.PLP.Chemscore.Internal.Correction>
2.4587

> <Gold.Rescore>
     Score         DG    S(hbond)    S(metal)    S(lipo)     H(rot)  DE(clash)    DE(int)     intcor
     -7.07      -6.27       2.39        0.00      31.48       4.25       1.95      11.40       ----

> <Gold.Chemscore.Fitness>
-7.0738

> <Gold.Chemscore.DG>
-6.2685

> <Gold.Chemscore.ZeroCoef>
-5.4800

> <Gold.Chemscore.Hbond>
2.3873

> <Gold.Chemscore.Metal>
0.0000

> <Gold.Chemscore.Lipo>
31.4846

> <Gold.Chemscore.Internal_Hbond>
0.0000

> <Gold.Chemscore.DEClash>
1.9472

> <Gold.Chemscore.DEInternal>
11.3951

> <Gold.Chemscore.Rot>
4.2456

> <Gold.Chemscore.Internal.Correction>
   9.000000E+99

> <Gold.Chemscore.Hbonds>
donor molecule, donor type, donor heavy atom, donor atom, acceptor molecule, acceptor atom, score
      P1  H  6896  6908       L1     7  0.78
      P1  H  6931  6943       L1    32  0.52
      P1  H  6934  6947       L1    27  0.01
      P1  H  7997  8008       L1    19  0.22
      P1  H 10752 10764       L1    15  0.01

> <Gold.Chemscore.Hbond.Weighted>
-7.9734

> <Gold.Chemscore.Metal.Weighted>
-0.0000

> <Gold.Chemscore.Lipo.Weighted>
-3.6837

> <Gold.Chemscore.Internal_Hbond.Weighted>
0.0000

> <Gold.Chemscore.DEClash.Weighted>
1.9472

> <Gold.Chemscore.DEInternal.Weighted>
11.3951

> <Gold.Chemscore.Rot.Weighted>
10.8687

> <Gold.Chemscore.Internal.Correction.Weighted>
   9.000000E+99

> <Gold.Protein.RotatedTorsions>
[ 6907 6896 6895 6894 ] final  162.98 input  -60.11 | X-H torsion
[ 7974 7965 7964 7962 ] final -150.63 input  175.53 | X-H torsion
[ 8008 7997 7996 7995 ] final  -42.12 input   59.86 | X-H torsion
[ 10167 10162 10161 10158 ] final  129.00 input  -65.29 | X-H torsion
[ 10718 10713 10712 10709 ] final  177.65 input   66.30 | X-H torsion
[ 10763 10752 10751 10750 ] final  -73.57 input  -60.55 | X-H torsion
[ 11005 11000 10999 10996 ] final  103.98 input  -57.11 | X-H torsion

> <Gold.Protein.ActiveResidues>
 VAL166  LYS551  ARG553  GLY616  TRP617  ASP618  TYR619  PRO620  LYS621  CYS622 
 ASP623  PHE694  ASN695  SER759  ASP760  ASP761  ALA762  ILE779  LEU786  VAL792 
 PHE793  MET794  SER795  GLU796  ALA797  LYS798  CYS799  TRP800  GLU811  SER814 

> <Gold.Protein.RotatedAtoms>
  151.9322  133.3614  159.3934 H   0  0  0  0  0  0  0  0  0  0  0  0  # atno 6907 bound_to 6896
  150.7015  134.4526  159.5352 H   0  0  0  0  0  0  0  0  0  0  0  0  # atno 6908 bound_to 6896
  152.2168  134.8450  160.0541 H   0  0  0  0  0  0  0  0  0  0  0  0  # atno 6909 bound_to 6896
  144.7896  140.4906  143.5782 H   0  0  0  0  0  0  0  0  0  0  0  0  # atno 7974 bound_to 7965
  154.4000  140.1481  156.3303 H   0  0  0  0  0  0  0  0  0  0  0  0  # atno 8008 bound_to 7997
  155.8449  140.3460  155.5634 H   0  0  0  0  0  0  0  0  0  0  0  0  # atno 8009 bound_to 7997
  155.8047  140.0875  157.1928 H   0  0  0  0  0  0  0  0  0  0  0  0  # atno 8010 bound_to 7997
  139.5499  144.6805  151.4355 H   0  0  0  0  0  0  0  0  0  0  0  0  # atno 10167 bound_to 10162
  156.9022  130.9882  151.3034 H   0  0  0  0  0  0  0  0  0  0  0  0  # atno 10718 bound_to 10713
  154.4612  135.5893  153.6257 H   0  0  0  0  0  0  0  0  0  0  0  0  # atno 10763 bound_to 10752
  152.9823  135.6044  154.3483 H   0  0  0  0  0  0  0  0  0  0  0  0  # atno 10764 bound_to 10752
  154.3355  135.2842  155.2429 H   0  0  0  0  0  0  0  0  0  0  0  0  # atno 10765 bound_to 10752
  139.8788  134.9283  156.5292 H   0  0  0  0  0  0  0  0  0  0  0  0  # atno 11005 bound_to 11000
  145.5829  139.1490  143.3225 LP  0  0  0  0  0  0  0  0  0  0  0  0  # atno 17320 bound_to 7965
  146.2143  140.5958  142.9045 LP  0  0  0  0  0  0  0  0  0  0  0  0  # atno 17321 bound_to 7965
  140.6759  143.8191  150.7058 LP  0  0  0  0  0  0  0  0  0  0  0  0  # atno 17342 bound_to 10162
  140.1629  143.4260  152.2054 LP  0  0  0  0  0  0  0  0  0  0  0  0  # atno 17343 bound_to 10162
  157.6019  130.8519  149.8815 LP  0  0  0  0  0  0  0  0  0  0  0  0  # atno 17370 bound_to 10713
  156.0576  130.3705  150.1055 LP  0  0  0  0  0  0  0  0  0  0  0  0  # atno 17371 bound_to 10713
  140.8393  133.8217  155.9059 LP  0  0  0  0  0  0  0  0  0  0  0  0  # atno 17394 bound_to 11000
  140.9253  134.2090  157.4900 LP  0  0  0  0  0  0  0  0  0  0  0  0  # atno 17395 bound_to 11000

$$$$
