AV-unprocessed.smi:2806|AV-procd|sdf|10815|dock10
  -GOLD-   2272015253D 1   1.00000     0.00000
 Structure written by MMmdl.
 47 48  0  0  0  0  0  0  0  0  1 V2000
  148.3269  134.0194  160.9579 C   0  0  0  0  0  0  0  0  0  0  0  0
  147.8841  135.4052  161.4575 C   0  0  0  0  0  0  0  0  0  0  0  0
  146.5290  135.2603  162.1721 C   0  0  0  0  0  0  0  0  0  0  0  0
  148.9447  135.9424  162.4359 C   0  0  0  0  0  0  0  0  0  0  0  0
  147.7542  136.5015  159.9985 S   0  0  0  0  0  0  0  0  0  0  0  0
  149.4585  136.7211  159.3907 C   0  0  0  0  0  0  0  0  0  0  0  0
  149.5492  137.3922  158.0195 C   0  0  0  0  0  0  0  0  0  0  0  0
  148.7384  137.1152  157.1354 O   0  0  0  0  0  0  0  0  0  0  0  0
  150.5360  138.2869  157.8592 N   0  0  0  0  0  0  0  0  0  0  0  0
  150.7438  139.0843  156.6568 C   0  0  0  0  0  0  0  0  0  0  0  0
  150.4625  140.5605  156.8773 C   0  0  0  0  0  0  0  0  0  0  0  0
  149.7524  141.3074  155.9176 C   0  0  0  0  0  0  0  0  0  0  0  0
  149.5177  142.6706  156.1742 C   0  0  0  0  0  0  0  0  0  0  0  0
  149.9404  143.2968  157.2924 N   0  0  0  0  0  0  0  0  0  0  0  0
  150.6223  142.5869  158.2254 C   0  0  0  0  0  0  0  0  0  0  0  0
  151.0616  143.2582  159.3871 N   0  0  0  0  0  0  0  0  0  0  0  0
  152.3644  142.8942  159.9412 C   0  0  0  0  0  0  0  0  0  0  0  0
  152.5333  143.4920  161.3481 C   0  0  0  0  0  0  0  0  0  0  0  0
  152.3296  144.9003  161.2994 O   0  0  0  0  0  0  0  0  0  0  0  0
  151.0167  145.2311  160.8590 C   0  0  0  0  0  0  0  0  0  0  0  0
  150.7951  144.6933  159.4352 C   0  0  0  0  0  0  0  0  0  0  0  0
  150.9055  141.2116  158.0478 C   0  0  0  0  0  0  0  0  0  0  0  0
  148.4340  133.3123  161.7813 H   0  0  0  0  0  0  0  0  0  0  0  0
  149.2873  134.0710  160.4434 H   0  0  0  0  0  0  0  0  0  0  0  0
  147.6019  133.6009  160.2586 H   0  0  0  0  0  0  0  0  0  0  0  0
  145.7351  134.9880  161.4756 H   0  0  0  0  0  0  0  0  0  0  0  0
  146.2356  136.1815  162.6731 H   0  0  0  0  0  0  0  0  0  0  0  0
  146.5726  134.4860  162.9379 H   0  0  0  0  0  0  0  0  0  0  0  0
  149.1077  135.2460  163.2592 H   0  0  0  0  0  0  0  0  0  0  0  0
  148.6506  136.8931  162.8782 H   0  0  0  0  0  0  0  0  0  0  0  0
  149.9034  136.0913  161.9379 H   0  0  0  0  0  0  0  0  0  0  0  0
  150.0586  137.2539  160.1268 H   0  0  0  0  0  0  0  0  0  0  0  0
  149.9014  135.7297  159.2941 H   0  0  0  0  0  0  0  0  0  0  0  0
  151.1603  138.4548  158.6347 H   0  0  0  0  0  0  0  0  0  0  0  0
  151.7833  138.9732  156.3476 H   0  0  0  0  0  0  0  0  0  0  0  0
  150.1354  138.6972  155.8375 H   0  0  0  0  0  0  0  0  0  0  0  0
  149.3916  140.8505  155.0080 H   0  0  0  0  0  0  0  0  0  0  0  0
  148.9771  143.2756  155.4615 H   0  0  0  0  0  0  0  0  0  0  0  0
  152.4631  141.8093  159.9963 H   0  0  0  0  0  0  0  0  0  0  0  0
  153.1524  143.2614  159.2821 H   0  0  0  0  0  0  0  0  0  0  0  0
  151.8336  143.0365  162.0507 H   0  0  0  0  0  0  0  0  0  0  0  0
  153.5369  143.2907  161.7232 H   0  0  0  0  0  0  0  0  0  0  0  0
  150.2756  144.8232  161.5486 H   0  0  0  0  0  0  0  0  0  0  0  0
  150.9010  146.3150  160.8722 H   0  0  0  0  0  0  0  0  0  0  0  0
  151.4708  145.1956  158.7422 H   0  0  0  0  0  0  0  0  0  0  0  0
  149.7804  144.9296  159.1188 H   0  0  0  0  0  0  0  0  0  0  0  0
  151.4661  140.6571  158.7857 H   0  0  0  0  0  0  0  0  0  0  0  0
  1  2  1  0  0  0  0
  1 23  1  0  0  0  0
  1 24  1  0  0  0  0
  1 25  1  0  0  0  0
  2  3  1  0  0  0  0
  2  4  1  0  0  0  0
  2  5  1  0  0  0  0
  3 26  1  0  0  0  0
  3 27  1  0  0  0  0
  3 28  1  0  0  0  0
  4 29  1  0  0  0  0
  4 30  1  0  0  0  0
  4 31  1  0  0  0  0
  5  6  1  0  0  0  0
  6  7  1  0  0  0  0
  6 32  1  0  0  0  0
  6 33  1  0  0  0  0
  7  8  2  0  0  0  0
  7  9  1  0  0  0  0
  9 10  1  0  0  0  0
  9 34  1  0  0  0  0
 10 11  1  0  0  0  0
 10 35  1  0  0  0  0
 10 36  1  0  0  0  0
 11 22  1  0  0  0  0
 11 12  2  0  0  0  0
 12 13  1  0  0  0  0
 12 37  1  0  0  0  0
 13 14  2  0  0  0  0
 13 38  1  0  0  0  0
 14 15  1  0  0  0  0
 15 16  1  0  0  0  0
 15 22  2  0  0  0  0
 16 21  1  0  0  0  0
 16 17  1  0  0  0  0
 17 18  1  0  0  0  0
 17 39  1  0  0  0  0
 17 40  1  0  0  0  0
 18 19  1  0  0  0  0
 18 41  1  0  0  0  0
 18 42  1  0  0  0  0
 19 20  1  0  0  0  0
 20 21  1  0  0  0  0
 20 43  1  0  0  0  0
 20 44  1  0  0  0  0
 21 45  1  0  0  0  0
 21 46  1  0  0  0  0
 22 47  1  0  0  0  0
M  END
> <s_m_source_file>
AV-unprocessed.smi

> <i_m_source_file_index>
2806

> <i_lp_mmshare_version>
43012

> <i_f3d_flags>
0

> <s_epik_input>
W0NIM11DKFtDSDNdKShbQ0gzXSlTW0NIMl1DKD1PKVtOSF1bQ0gyXWMxW2NIXVtjSF1uYyhbY0hdMSlOMltDSDJdW0NIMl1PW0NIMl1bQ0gyXTI=

> <s_epik_cmdline>
J2VwaWtfcHl0aG9uJywgJy1waCcsICc3LjAnLCAnLXRuJywgJzgnLCAnLW1hJywgJzIwMCcsICctbWV0YWxfYmluZGluZycsICctaW1hZScsICc8aW5maWxlLm1hZT4nLCAnLW9tYWUnLCAnPG91dGZpbGUubWFlPic=

> <r_lp_tautomer_probability>
1

> <r_epik_Ionization_Penalty>
0.00423361

> <r_epik_Ionization_Penalty_Charging>
0

> <r_epik_Ionization_Penalty_Neutral>
0.00423361

> <r_epik_State_Penalty>
0.00304279

> <r_epik_Charging_Adjusted_Penalty>
0.00304279

> <i_epik_Tot_Q>
0

> <i_epik_Tot_abs_Q>
0

> <r_epik_Metal_State_Penalty>
-0

> <b_epik_Metal_Only>
0

> <s_lp_Force_Field>
OPLS_2005

> <r_lp_Energy>
13.38

> <b_lp_Chiralities_Consistent>
1

> <s_lp_Variant>
AV-unprocessed.smi:2806-1

> <Gold.Version>
5.8.1

> <Gold.Id.Protein>
6NUR|6NUR_protein|mol2

> <Gold.PLP.Fitness>
42.0476

> <Gold.PLP.PLP>
-43.5920

> <Gold.PLP.part.hbond>
0.0000

> <Gold.PLP.part.metal>
0.0000

> <Gold.PLP.part.buried>
-4.7154

> <Gold.PLP.part.nonpolar>
-38.5645

> <Gold.PLP.part.repulsive>
0.4588

> <Gold.PLP.ligand.clash>
0.0000

> <Gold.PLP.ligand.torsion>
0.9679

> <Gold.PLP.Chemscore.Hbond>
0.0000

> <Gold.PLP.Chemscore.CHOScore>
0.0000

> <Gold.PLP.Chemscore.Metal>
0.0000

> <Gold.PLP.Chemscore.Internal.Correction>
0.3915

> <Gold.Rescore>
     Score         DG    S(hbond)    S(metal)    S(lipo)     H(rot)  DE(clash)    DE(int)     intcor
     14.11     -14.68       0.00        0.00     116.47       1.73       0.02       0.54       ----

> <Gold.Chemscore.Fitness>
14.1120

> <Gold.Chemscore.DG>
-14.6763

> <Gold.Chemscore.ZeroCoef>
-5.4800

> <Gold.Chemscore.Hbond>
0.0000

> <Gold.Chemscore.Metal>
0.0000

> <Gold.Chemscore.Lipo>
116.4716

> <Gold.Chemscore.Internal_Hbond>
0.0000

> <Gold.Chemscore.DEClash>
0.0234

> <Gold.Chemscore.DEInternal>
0.5408

> <Gold.Chemscore.Rot>
1.7308

> <Gold.Chemscore.Internal.Correction>
   9.000000E+99

> <Gold.Chemscore.Hbond.Weighted>
-0.0000

> <Gold.Chemscore.Metal.Weighted>
-0.0000

> <Gold.Chemscore.Lipo.Weighted>
-13.6272

> <Gold.Chemscore.Internal_Hbond.Weighted>
0.0000

> <Gold.Chemscore.DEClash.Weighted>
0.0234

> <Gold.Chemscore.DEInternal.Weighted>
0.5408

> <Gold.Chemscore.Rot.Weighted>
4.4309

> <Gold.Chemscore.Internal.Correction.Weighted>
   9.000000E+99

> <Gold.Protein.RotatedTorsions>
[ 6907 6896 6895 6894 ] final   11.76 input  -60.11 | X-H torsion
[ 7974 7965 7964 7962 ] final -165.43 input  175.53 | X-H torsion
[ 8008 7997 7996 7995 ] final  -16.76 input   59.86 | X-H torsion
[ 10167 10162 10161 10158 ] final   47.85 input  -65.29 | X-H torsion
[ 10718 10713 10712 10709 ] final  101.00 input   66.30 | X-H torsion
[ 10763 10752 10751 10750 ] final -136.17 input  -60.55 | X-H torsion
[ 11005 11000 10999 10996 ] final -133.36 input  -57.11 | X-H torsion

> <Gold.Protein.ActiveResidues>
 VAL166  LYS551  ARG553  GLY616  TRP617  ASP618  TYR619  PRO620  LYS621  CYS622 
 ASP623  PHE694  ASN695  SER759  ASP760  ASP761  ALA762  ILE779  LEU786  VAL792 
 PHE793  MET794  SER795  GLU796  ALA797  LYS798  CYS799  TRP800  GLU811  SER814 

> <Gold.Protein.RotatedAtoms>
  151.7596  135.0813  160.0343 H   0  0  0  0  0  0  0  0  0  0  0  0  # atno 6907 bound_to 6896
  152.3362  133.6010  159.5853 H   0  0  0  0  0  0  0  0  0  0  0  0  # atno 6908 bound_to 6896
  150.7452  133.9708  159.3587 H   0  0  0  0  0  0  0  0  0  0  0  0  # atno 6909 bound_to 6896
  144.7270  140.2816  143.6235 H   0  0  0  0  0  0  0  0  0  0  0  0  # atno 7974 bound_to 7965
  154.5028  140.2161  155.9311 H   0  0  0  0  0  0  0  0  0  0  0  0  # atno 8008 bound_to 7997
  156.1456  140.3171  155.8532 H   0  0  0  0  0  0  0  0  0  0  0  0  # atno 8009 bound_to 7997
  155.4037  140.0486  157.3026 H   0  0  0  0  0  0  0  0  0  0  0  0  # atno 8010 bound_to 7997
  140.2993  144.2953  150.6222 H   0  0  0  0  0  0  0  0  0  0  0  0  # atno 10167 bound_to 10162
  157.6840  131.0714  150.5186 H   0  0  0  0  0  0  0  0  0  0  0  0  # atno 10718 bound_to 10713
  154.8689  135.3681  154.5017 H   0  0  0  0  0  0  0  0  0  0  0  0  # atno 10763 bound_to 10752
  153.5657  135.7022  153.5532 H   0  0  0  0  0  0  0  0  0  0  0  0  # atno 10764 bound_to 10752
  153.3587  135.4052  155.1665 H   0  0  0  0  0  0  0  0  0  0  0  0  # atno 10765 bound_to 10752
  140.9088  134.1595  157.4405 H   0  0  0  0  0  0  0  0  0  0  0  0  # atno 11005 bound_to 11000
  145.7944  139.1939  143.2084 LP  0  0  0  0  0  0  0  0  0  0  0  0  # atno 17320 bound_to 7965
  146.0729  140.7849  142.9679 LP  0  0  0  0  0  0  0  0  0  0  0  0  # atno 17321 bound_to 7965
  140.5665  143.2185  151.7675 LP  0  0  0  0  0  0  0  0  0  0  0  0  # atno 17342 bound_to 10162
  139.4919  144.4277  151.9907 LP  0  0  0  0  0  0  0  0  0  0  0  0  # atno 17343 bound_to 10162
  156.5500  130.4229  149.6112 LP  0  0  0  0  0  0  0  0  0  0  0  0  # atno 17370 bound_to 10713
  156.2911  130.7124  151.1973 LP  0  0  0  0  0  0  0  0  0  0  0  0  # atno 17371 bound_to 10713
  139.8754  134.9927  156.5611 LP  0  0  0  0  0  0  0  0  0  0  0  0  # atno 17394 bound_to 11000
  140.8137  133.8409  155.8833 LP  0  0  0  0  0  0  0  0  0  0  0  0  # atno 17395 bound_to 11000

$$$$
