AV-unprocessed.smi:221|AV-procd|sdf|1686|dock6
  -GOLD-   2262020123D 1   1.00000     0.00000
 Structure written by MMmdl.
 50 53  0  0  0  0  0  0  0  0  1 V2000
  147.8447  135.4064  158.7306 N   0  0  0  0  0  0  0  0  0  0  0  0
  149.1048  135.2011  158.3408 C   0  0  0  0  0  0  0  0  0  0  0  0
  150.0550  135.3189  159.1126 O   0  0  0  0  0  0  0  0  0  0  0  0
  149.3172  134.7870  156.8775 C   0  0  2  0  0  0  0  0  0  0  0  0
  149.0084  133.3010  156.6531 C   0  0  0  0  0  0  0  0  0  0  0  0
  149.8105  132.9675  155.4002 C   0  0  1  0  0  0  0  0  0  0  0  0
  149.1257  133.3438  154.3190 F   0  0  0  0  0  0  0  0  0  0  0  0
  151.0628  133.8363  155.5409 C   0  0  0  0  0  0  0  0  0  0  0  0
  150.7136  134.9198  156.4562 N   0  0  0  0  0  0  0  0  0  0  0  0
  151.1006  136.1564  156.0727 C   0  0  0  0  0  0  0  0  0  0  0  0
  151.3644  136.3427  154.7565 N   0  0  0  0  0  0  0  0  0  0  0  0
  151.7565  137.5430  154.3181 C   0  0  0  0  0  0  0  0  0  0  0  0
  151.9434  138.6672  155.0140 N   0  0  0  0  0  0  0  0  0  0  0  0
  151.6772  138.4795  156.3386 C   0  0  0  0  0  0  0  0  0  0  0  0
  151.2513  137.2672  156.9493 C   0  0  0  0  0  0  0  0  0  0  0  0
  151.0760  137.4583  158.3146 N   0  0  0  0  0  0  0  0  0  0  0  0
  151.3846  138.7126  158.5013 C   0  0  0  0  0  0  0  0  0  0  0  0
  151.7645  139.3978  157.3691 N   0  0  0  0  0  0  0  0  0  0  0  0
  152.1630  140.7912  157.2850 C   0  0  0  0  0  0  0  0  0  0  0  0
  151.5816  141.6767  158.4159 C   0  0  2  0  0  0  0  0  0  0  0  0
  150.7306  142.8576  157.8801 C   0  0  0  0  0  0  0  0  0  0  0  0
  149.6729  142.4107  157.0568 O   0  0  0  0  0  0  0  0  0  0  0  0
  152.7238  142.1127  159.3705 C   0  0  2  0  0  0  0  0  0  0  0  0
  153.5361  140.9971  160.0029 C   0  0  0  0  0  0  0  0  0  0  0  0
  154.2667  141.7491  161.1106 C   0  0  0  0  0  0  0  0  0  0  0  0
  153.3641  142.7605  161.5494 O   0  0  0  0  0  0  0  0  0  0  0  0
  152.3188  142.9383  160.5963 C   0  0  0  0  0  0  0  0  0  0  0  0
  148.6724  135.3875  156.2328 H   0  0  0  0  0  0  0  0  0  0  0  0
  150.0315  131.9051  155.2955 H   0  0  0  0  0  0  0  0  0  0  0  0
  147.6545  135.6841  159.6825 H   0  0  0  0  0  0  0  0  0  0  0  0
  147.0875  135.2877  158.0735 H   0  0  0  0  0  0  0  0  0  0  0  0
  149.3707  132.6972  157.4872 H   0  0  0  0  0  0  0  0  0  0  0  0
  147.9425  133.1028  156.5351 H   0  0  0  0  0  0  0  0  0  0  0  0
  151.8641  133.2614  156.0059 H   0  0  0  0  0  0  0  0  0  0  0  0
  151.4315  134.1761  154.5713 H   0  0  0  0  0  0  0  0  0  0  0  0
  151.9486  137.6126  153.2575 H   0  0  0  0  0  0  0  0  0  0  0  0
  151.3509  139.1729  159.4782 H   0  0  0  0  0  0  0  0  0  0  0  0
  153.2529  140.8231  157.3025 H   0  0  0  0  0  0  0  0  0  0  0  0
  151.8596  141.1773  156.3111 H   0  0  0  0  0  0  0  0  0  0  0  0
  150.9230  141.0461  159.0155 H   0  0  0  0  0  0  0  0  0  0  0  0
  150.2750  143.4237  158.6900 H   0  0  0  0  0  0  0  0  0  0  0  0
  151.3488  143.5589  157.3190 H   0  0  0  0  0  0  0  0  0  0  0  0
  149.3144  143.1551  156.5980 H   0  0  0  0  0  0  0  0  0  0  0  0
  153.4321  142.7109  158.7939 H   0  0  0  0  0  0  0  0  0  0  0  0
  152.9016  140.2279  160.4408 H   0  0  0  0  0  0  0  0  0  0  0  0
  154.2176  140.5153  159.3012 H   0  0  0  0  0  0  0  0  0  0  0  0
  154.5674  141.0976  161.9313 H   0  0  0  0  0  0  0  0  0  0  0  0
  155.1622  142.2309  160.7155 H   0  0  0  0  0  0  0  0  0  0  0  0
  152.1812  143.9927  160.3560 H   0  0  0  0  0  0  0  0  0  0  0  0
  151.3955  142.5735  161.0452 H   0  0  0  0  0  0  0  0  0  0  0  0
  1  2  1  0  0  0  0
  1 30  1  0  0  0  0
  1 31  1  0  0  0  0
  2  3  2  0  0  0  0
  2  4  1  0  0  0  0
  4 28  1  0  0  0  0
  4  9  1  0  0  0  0
  4  5  1  0  0  0  0
  5  6  1  0  0  0  0
  5 32  1  0  0  0  0
  5 33  1  0  0  0  0
  6 29  1  0  0  0  0
  6  7  1  0  0  0  0
  6  8  1  0  0  0  0
  8  9  1  0  0  0  0
  8 34  1  0  0  0  0
  8 35  1  0  0  0  0
  9 10  1  0  0  0  0
 10 15  1  0  0  0  0
 10 11  2  0  0  0  0
 11 12  1  0  0  0  0
 12 13  2  0  0  0  0
 12 36  1  0  0  0  0
 13 14  1  0  0  0  0
 14 18  1  0  0  0  0
 14 15  2  0  0  0  0
 15 16  1  0  0  0  0
 16 17  2  0  0  0  0
 17 18  1  0  0  0  0
 17 37  1  0  0  0  0
 18 19  1  0  0  0  0
 19 20  1  0  0  0  0
 19 38  1  0  0  0  0
 19 39  1  0  0  0  0
 20 21  1  0  0  0  0
 20 23  1  0  0  0  0
 20 40  1  0  0  0  0
 21 22  1  0  0  0  0
 21 41  1  0  0  0  0
 21 42  1  0  0  0  0
 22 43  1  0  0  0  0
 23 27  1  0  0  0  0
 23 24  1  0  0  0  0
 23 44  1  0  0  0  0
 24 25  1  0  0  0  0
 24 45  1  0  0  0  0
 24 46  1  0  0  0  0
 25 26  1  0  0  0  0
 25 47  1  0  0  0  0
 25 48  1  0  0  0  0
 26 27  1  0  0  0  0
 27 49  1  0  0  0  0
 27 50  1  0  0  0  0
M  END
> <s_m_source_file>
AV-unprocessed.smi

> <i_m_source_file_index>
221

> <i_lp_mmshare_version>
43012

> <i_f3d_flags>
0

> <s_epik_input>
W05IMl1DKD1PKVtDQEBIXTFbQ0gyXVtDQEBIXShGKVtDSDJdTjFjKG5bY0hdbjIpYyhjMjMpbltjSF1uM1tDSDJdW0NASF0oW0NIMl1bT0hdKVtDQEBIXTRbQ0gyXVtDSDJdT1tDSDJdNA==

> <s_epik_cmdline>
J2VwaWtfcHl0aG9uJywgJy1waCcsICc3LjAnLCAnLXRuJywgJzgnLCAnLW1hJywgJzIwMCcsICctbWV0YWxfYmluZGluZycsICctaW1hZScsICc8aW5maWxlLm1hZT4nLCAnLW9tYWUnLCAnPG91dGZpbGUubWFlPic=

> <r_lp_tautomer_probability>
1

> <r_epik_Ionization_Penalty>
0.000818822

> <r_epik_Ionization_Penalty_Charging>
0

> <r_epik_Ionization_Penalty_Neutral>
0.000818822

> <r_epik_State_Penalty>
0.000440551

> <r_epik_Charging_Adjusted_Penalty>
0.000440551

> <i_epik_Tot_Q>
0

> <i_epik_Tot_abs_Q>
0

> <r_epik_Metal_State_Penalty>
-0

> <b_epik_Metal_Only>
0

> <s_lp_Force_Field>
OPLS_2005

> <r_lp_Energy>
52.3399

> <b_lp_Chiralities_Consistent>
1

> <s_lp_Variant>
AV-unprocessed.smi:221-1

> <Gold.Version>
5.8.1

> <Gold.Id.Protein>
6NUR|6NUR_protein|mol2

> <Gold.PLP.Fitness>
42.1840

> <Gold.PLP.PLP>
-37.0596

> <Gold.PLP.part.hbond>
-3.0000

> <Gold.PLP.part.metal>
0.0000

> <Gold.PLP.part.buried>
-6.3899

> <Gold.PLP.part.nonpolar>
-28.6503

> <Gold.PLP.part.repulsive>
0.2653

> <Gold.PLP.ligand.clash>
0.0000

> <Gold.PLP.ligand.torsion>
1.9307

> <Gold.PLP.Chemscore.Hbond>
2.0000

> <Gold.PLP.Chemscore.CHOScore>
0.8840

> <Gold.PLP.Chemscore.Metal>
0.0000

> <Gold.Chemscore.Hbonds>
donor molecule, donor type, donor heavy atom, donor atom, acceptor molecule, acceptor atom, score
      L1  H    22    43       P1  8028  1.00
      P1  H  6896  6909       L1     3  0.06
      L1  C    12    36       P1  7949  0.94

> <Gold.PLP.Chemscore.Internal.Correction>
0.3337

> <Gold.Rescore>
     Score         DG    S(hbond)    S(metal)    S(lipo)     H(rot)  DE(clash)    DE(int)     intcor
      8.44     -12.31       2.00        0.00      82.83       3.72       0.04       3.83       ----

> <Gold.Chemscore.Fitness>
8.4356

> <Gold.Chemscore.DG>
-12.3113

> <Gold.Chemscore.ZeroCoef>
-5.4800

> <Gold.Chemscore.Hbond>
1.9953

> <Gold.Chemscore.Metal>
0.0000

> <Gold.Chemscore.Lipo>
82.8260

> <Gold.Chemscore.Internal_Hbond>
0.0000

> <Gold.Chemscore.DEClash>
0.0445

> <Gold.Chemscore.DEInternal>
3.8312

> <Gold.Chemscore.Rot>
3.7202

> <Gold.Chemscore.Internal.Correction>
   9.000000E+99

> <Gold.Chemscore.Hbonds>
donor molecule, donor type, donor heavy atom, donor atom, acceptor molecule, acceptor atom, score
      L1  H    22    43       P1  8028  1.00
      P1  H  6896  6909       L1     3  0.09

> <Gold.Chemscore.Hbond.Weighted>
-6.6644

> <Gold.Chemscore.Metal.Weighted>
-0.0000

> <Gold.Chemscore.Lipo.Weighted>
-9.6906

> <Gold.Chemscore.Internal_Hbond.Weighted>
0.0000

> <Gold.Chemscore.DEClash.Weighted>
0.0445

> <Gold.Chemscore.DEInternal.Weighted>
3.8312

> <Gold.Chemscore.Rot.Weighted>
9.5237

> <Gold.Chemscore.Internal.Correction.Weighted>
   9.000000E+99

> <Gold.Protein.RotatedTorsions>
[ 6907 6896 6895 6894 ] final   35.03 input  -60.11 | X-H torsion
[ 7974 7965 7964 7962 ] final  -28.03 input  175.53 | X-H torsion
[ 8008 7997 7996 7995 ] final  -36.75 input   59.86 | X-H torsion
[ 10167 10162 10161 10158 ] final -159.05 input  -65.29 | X-H torsion
[ 10718 10713 10712 10709 ] final  107.89 input   66.30 | X-H torsion
[ 10763 10752 10751 10750 ] final   -0.44 input  -60.55 | X-H torsion
[ 11005 11000 10999 10996 ] final   58.57 input  -57.11 | X-H torsion

> <Gold.Protein.ActiveResidues>
 VAL166  LYS551  ARG553  GLY616  TRP617  ASP618  TYR619  PRO620  LYS621  CYS622 
 ASP623  PHE694  ASN695  SER759  ASP760  ASP761  ALA762  ILE779  LEU786  VAL792 
 PHE793  MET794  SER795  GLU796  ALA797  LYS798  CYS799  TRP800  GLU811  SER814 

> <Gold.Protein.RotatedAtoms>
  152.1105  134.9277  160.0566 H   0  0  0  0  0  0  0  0  0  0  0  0  # atno 6907 bound_to 6896
  152.0457  133.3992  159.4364 H   0  0  0  0  0  0  0  0  0  0  0  0  # atno 6908 bound_to 6896
  150.6843  134.3286  159.4861 H   0  0  0  0  0  0  0  0  0  0  0  0  # atno 6909 bound_to 6896
  146.1317  140.5229  142.8690 H   0  0  0  0  0  0  0  0  0  0  0  0  # atno 7974 bound_to 7965
  154.4067  140.1622  156.2424 H   0  0  0  0  0  0  0  0  0  0  0  0  # atno 8008 bound_to 7997
  155.9189  140.3422  155.6134 H   0  0  0  0  0  0  0  0  0  0  0  0  # atno 8009 bound_to 7997
  155.7246  140.0772  157.2306 H   0  0  0  0  0  0  0  0  0  0  0  0  # atno 8010 bound_to 7997
  139.6645  143.9854  152.2246 H   0  0  0  0  0  0  0  0  0  0  0  0  # atno 10167 bound_to 10162
  157.6609  131.0882  150.6223 H   0  0  0  0  0  0  0  0  0  0  0  0  # atno 10718 bound_to 10713
  153.3320  135.6975  153.6940 H   0  0  0  0  0  0  0  0  0  0  0  0  # atno 10763 bound_to 10752
  153.5739  135.3511  155.2849 H   0  0  0  0  0  0  0  0  0  0  0  0  # atno 10764 bound_to 10752
  154.8620  135.4279  154.2511 H   0  0  0  0  0  0  0  0  0  0  0  0  # atno 10765 bound_to 10752
  140.0368  134.5931  155.9434 H   0  0  0  0  0  0  0  0  0  0  0  0  # atno 11005 bound_to 11000
  144.7697  140.5610  143.6679 LP  0  0  0  0  0  0  0  0  0  0  0  0  # atno 17320 bound_to 7965
  145.5247  139.1476  143.3533 LP  0  0  0  0  0  0  0  0  0  0  0  0  # atno 17321 bound_to 7965
  139.9601  144.6563  150.8087 LP  0  0  0  0  0  0  0  0  0  0  0  0  # atno 17342 bound_to 10162
  140.7594  143.3127  151.2806 LP  0  0  0  0  0  0  0  0  0  0  0  0  # atno 17343 bound_to 10162
  156.6526  130.4489  149.5714 LP  0  0  0  0  0  0  0  0  0  0  0  0  # atno 17370 bound_to 10713
  156.2126  130.6688  151.1285 LP  0  0  0  0  0  0  0  0  0  0  0  0  # atno 17371 bound_to 10713
  141.1861  133.6556  156.5228 LP  0  0  0  0  0  0  0  0  0  0  0  0  # atno 17394 bound_to 11000
  140.4134  134.7251  157.4849 LP  0  0  0  0  0  0  0  0  0  0  0  0  # atno 17395 bound_to 11000

$$$$
