AV-unprocessed.smi:774|AV-procd|sdf|3692|dock2
  -GOLD-   22720 1113D 1   1.00000     0.00000
 Structure written by MMmdl.
 37 38  0  0  0  0  0  0  0  0  1 V2000
  145.2512  132.1083  149.3427 C   0  0  0  0  0  0  0  0  0  0  0  0
  144.3962  133.2586  149.8810 C   0  0  0  0  0  0  0  0  0  0  0  0
  144.4016  133.2984  151.6943 S   0  0  0  0  0  0  0  0  0  0  0  0
  144.1396  135.0728  151.9818 C   0  0  1  0  0  0  0  0  0  0  0  0
  144.1874  135.4374  153.4637 C   0  0  0  0  0  0  0  0  0  0  0  0
  144.4524  136.9430  153.4684 C   0  0  0  0  0  0  0  0  0  0  0  0
  145.3064  137.2227  152.2189 C   0  0  1  0  0  0  0  0  0  0  0  0
  146.6919  137.5031  152.5909 N   0  0  0  0  0  0  0  0  0  0  0  0
  147.1002  138.4682  153.4272 C   0  0  0  0  0  0  0  0  0  0  0  0
  146.3325  139.2395  154.0002 O   0  0  0  0  0  0  0  0  0  0  0  0
  148.4397  138.4647  153.5434 N   0  0  0  0  0  0  0  0  0  0  0  0
  149.2907  139.3355  154.2802 C   0  0  0  0  0  0  0  0  0  0  0  0
  148.7258  140.5329  154.7672 C   0  0  0  0  0  0  0  0  0  0  0  0
  149.5269  141.4230  155.5069 C   0  0  0  0  0  0  0  0  0  0  0  0
  150.8731  141.0798  155.7337 C   0  0  0  0  0  0  0  0  0  0  0  0
  151.4324  139.9407  155.2756 N   0  0  0  0  0  0  0  0  0  0  0  0
  150.6581  139.0909  154.5664 C   0  0  0  0  0  0  0  0  0  0  0  0
  145.2214  135.9544  151.3478 C   0  0  0  0  0  0  0  0  0  0  0  0
  145.2375  132.0907  148.2528 H   0  0  0  0  0  0  0  0  0  0  0  0
  144.8821  131.1450  149.6954 H   0  0  0  0  0  0  0  0  0  0  0  0
  146.2892  132.2081  149.6612 H   0  0  0  0  0  0  0  0  0  0  0  0
  144.7720  134.2088  149.5012 H   0  0  0  0  0  0  0  0  0  0  0  0
  143.3686  133.1547  149.5325 H   0  0  0  0  0  0  0  0  0  0  0  0
  143.1642  135.3553  151.5831 H   0  0  0  0  0  0  0  0  0  0  0  0
  143.2712  135.1720  153.9919 H   0  0  0  0  0  0  0  0  0  0  0  0
  145.0156  134.9207  153.9508 H   0  0  0  0  0  0  0  0  0  0  0  0
  143.5034  137.4737  153.3799 H   0  0  0  0  0  0  0  0  0  0  0  0
  144.9187  137.2758  154.3968 H   0  0  0  0  0  0  0  0  0  0  0  0
  144.8706  138.0621  151.6740 H   0  0  0  0  0  0  0  0  0  0  0  0
  147.3966  136.9144  152.1711 H   0  0  0  0  0  0  0  0  0  0  0  0
  148.9190  137.7511  153.0143 H   0  0  0  0  0  0  0  0  0  0  0  0
  147.6885  140.7694  154.5794 H   0  0  0  0  0  0  0  0  0  0  0  0
  149.1188  142.3457  155.8919 H   0  0  0  0  0  0  0  0  0  0  0  0
  151.5174  141.7371  156.2988 H   0  0  0  0  0  0  0  0  0  0  0  0
  151.1721  138.2033  154.2363 H   0  0  0  0  0  0  0  0  0  0  0  0
  146.1752  135.4237  151.3510 H   0  0  0  0  0  0  0  0  0  0  0  0
  144.9920  136.1916  150.3084 H   0  0  0  0  0  0  0  0  0  0  0  0
  1  2  1  0  0  0  0
  1 19  1  0  0  0  0
  1 20  1  0  0  0  0
  1 21  1  0  0  0  0
  2  3  1  0  0  0  0
  2 22  1  0  0  0  0
  2 23  1  0  0  0  0
  3  4  1  0  0  0  0
  4 18  1  0  0  0  0
  4  5  1  0  0  0  0
  4 24  1  0  0  0  0
  5  6  1  0  0  0  0
  5 25  1  0  0  0  0
  5 26  1  0  0  0  0
  6  7  1  0  0  0  0
  6 27  1  0  0  0  0
  6 28  1  0  0  0  0
  7  8  1  0  0  0  0
  7 18  1  0  0  0  0
  7 29  1  0  0  0  0
  8  9  1  0  0  0  0
  8 30  1  0  0  0  0
  9 10  2  0  0  0  0
  9 11  1  0  0  0  0
 11 12  1  0  0  0  0
 11 31  1  0  0  0  0
 12 17  1  0  0  0  0
 12 13  2  0  0  0  0
 13 14  1  0  0  0  0
 13 32  1  0  0  0  0
 14 15  2  0  0  0  0
 14 33  1  0  0  0  0
 15 16  1  0  0  0  0
 15 34  1  0  0  0  0
 16 17  2  0  0  0  0
 17 35  1  0  0  0  0
 18 36  1  0  0  0  0
 18 37  1  0  0  0  0
M  END
> <s_m_source_file>
AV-unprocessed.smi

> <i_m_source_file_index>
774

> <i_lp_mmshare_version>
43012

> <i_f3d_flags>
0

> <s_epik_input>
W0NIM11bQ0gyXVNbQ0BASF0xW0NIMl1bQ0gyXVtDQEhdKFtDSDJdMSlbTkhdQyg9TylbTkhdYzJbY0hdW2NIXVtjSF1uW2NIXTI=

> <s_epik_cmdline>
J2VwaWtfcHl0aG9uJywgJy1waCcsICc3LjAnLCAnLXRuJywgJzgnLCAnLW1hJywgJzIwMCcsICctbWV0YWxfYmluZGluZycsICctaW1hZScsICc8aW5maWxlLm1hZT4nLCAnLW9tYWUnLCAnPG91dGZpbGUubWFlPic=

> <r_epik_Ionization_Penalty>
0.00485718

> <r_epik_Ionization_Penalty_Charging>
0

> <r_epik_Ionization_Penalty_Neutral>
0.00485718

> <r_epik_State_Penalty>
0.00349461

> <r_epik_Charging_Adjusted_Penalty>
0.00349461

> <i_epik_Tot_Q>
0

> <i_epik_Tot_abs_Q>
0

> <r_epik_Metal_State_Penalty>
-0

> <b_epik_Metal_Only>
0

> <s_lp_Force_Field>
OPLS_2005

> <r_lp_Energy>
20.4228

> <b_lp_Chiralities_Consistent>
1

> <s_lp_Variant>
AV-unprocessed.smi:774-2

> <Gold.Version>
5.8.1

> <Gold.Id.Protein>
6NUR|6NUR_protein|mol2

> <Gold.PLP.Fitness>
38.7523

> <Gold.PLP.PLP>
-32.9773

> <Gold.PLP.part.hbond>
-3.8404

> <Gold.PLP.part.metal>
0.0000

> <Gold.PLP.part.buried>
-3.5652

> <Gold.PLP.part.nonpolar>
-26.7445

> <Gold.PLP.part.repulsive>
0.2485

> <Gold.PLP.ligand.clash>
0.0000

> <Gold.PLP.ligand.torsion>
0.2393

> <Gold.PLP.Chemscore.Hbond>
2.0800

> <Gold.PLP.Chemscore.CHOScore>
0.0000

> <Gold.PLP.Chemscore.Metal>
0.0000

> <Gold.Chemscore.Hbonds>
donor molecule, donor type, donor heavy atom, donor atom, acceptor molecule, acceptor atom, score
      L1  H     8    30       P1  7948  1.00
      L1  H    11    31       P1  7948  1.00
      P1  H  7989  7998       L1    16  0.07

> <Gold.PLP.Chemscore.Internal.Correction>
0.0136

> <Gold.Rescore>
     Score         DG    S(hbond)    S(metal)    S(lipo)     H(rot)  DE(clash)    DE(int)     intcor
     16.22     -18.64       1.97        0.00      84.77       1.30       0.11       2.31       ----

> <Gold.Chemscore.Fitness>
16.2219

> <Gold.Chemscore.DG>
-18.6391

> <Gold.Chemscore.ZeroCoef>
-5.4800

> <Gold.Chemscore.Hbond>
1.9698

> <Gold.Chemscore.Metal>
0.0000

> <Gold.Chemscore.Lipo>
84.7737

> <Gold.Chemscore.Internal_Hbond>
0.0000

> <Gold.Chemscore.DEClash>
0.1100

> <Gold.Chemscore.DEInternal>
2.3073

> <Gold.Chemscore.Rot>
1.3041

> <Gold.Chemscore.Internal.Correction>
   9.000000E+99

> <Gold.Chemscore.Hbonds>
donor molecule, donor type, donor heavy atom, donor atom, acceptor molecule, acceptor atom, score
      L1  H     8    30       P1  7948  1.00
      L1  H    11    31       P1  7948  0.97

> <Gold.Chemscore.Hbond.Weighted>
-6.5790

> <Gold.Chemscore.Metal.Weighted>
-0.0000

> <Gold.Chemscore.Lipo.Weighted>
-9.9185

> <Gold.Chemscore.Internal_Hbond.Weighted>
0.0000

> <Gold.Chemscore.DEClash.Weighted>
0.1100

> <Gold.Chemscore.DEInternal.Weighted>
2.3073

> <Gold.Chemscore.Rot.Weighted>
3.3384

> <Gold.Chemscore.Internal.Correction.Weighted>
   9.000000E+99

> <Gold.Protein.RotatedTorsions>
[ 6907 6896 6895 6894 ] final  132.00 input  -60.11 | X-H torsion
[ 7974 7965 7964 7962 ] final   45.17 input  175.53 | X-H torsion
[ 8008 7997 7996 7995 ] final  -23.21 input   59.86 | X-H torsion
[ 10167 10162 10161 10158 ] final -100.63 input  -65.29 | X-H torsion
[ 10718 10713 10712 10709 ] final   46.60 input   66.30 | X-H torsion
[ 10763 10752 10751 10750 ] final    5.45 input  -60.55 | X-H torsion
[ 11005 11000 10999 10996 ] final -153.33 input  -57.11 | X-H torsion

> <Gold.Protein.ActiveResidues>
 VAL166  LYS551  ARG553  GLY616  TRP617  ASP618  TYR619  PRO620  LYS621  CYS622 
 ASP623  PHE694  ASN695  SER759  ASP760  ASP761  ALA762  ILE779  LEU786  VAL792 
 PHE793  MET794  SER795  GLU796  ALA797  LYS798  CYS799  TRP800  GLU811  SER814 

> <Gold.Protein.RotatedAtoms>
  152.3369  133.6022  159.5848 H   0  0  0  0  0  0  0  0  0  0  0  0  # atno 6907 bound_to 6896
  150.7455  133.9782  159.3576 H   0  0  0  0  0  0  0  0  0  0  0  0  # atno 6908 bound_to 6896
  151.7651  135.0801  160.0402 H   0  0  0  0  0  0  0  0  0  0  0  0  # atno 6909 bound_to 6896
  146.0504  139.4994  142.9722 H   0  0  0  0  0  0  0  0  0  0  0  0  # atno 7974 bound_to 7965
  154.4599  140.1987  156.0275 H   0  0  0  0  0  0  0  0  0  0  0  0  # atno 8008 bound_to 7997
  156.0819  140.3270  155.7676 H   0  0  0  0  0  0  0  0  0  0  0  0  # atno 8009 bound_to 7997
  155.5098  140.0561  157.2916 H   0  0  0  0  0  0  0  0  0  0  0  0  # atno 8010 bound_to 7997
  140.2499  143.3480  152.0725 H   0  0  0  0  0  0  0  0  0  0  0  0  # atno 10167 bound_to 10162
  157.4498  130.8132  149.7777 H   0  0  0  0  0  0  0  0  0  0  0  0  # atno 10718 bound_to 10713
  153.2593  135.6921  153.7595 H   0  0  0  0  0  0  0  0  0  0  0  0  # atno 10763 bound_to 10752
  153.6661  135.3352  155.3141 H   0  0  0  0  0  0  0  0  0  0  0  0  # atno 10764 bound_to 10752
  154.8424  135.4488  154.1577 H   0  0  0  0  0  0  0  0  0  0  0  0  # atno 10765 bound_to 10752
  140.7093  134.3850  157.5200 H   0  0  0  0  0  0  0  0  0  0  0  0  # atno 11005 bound_to 11000
  145.6734  141.0210  143.1645 LP  0  0  0  0  0  0  0  0  0  0  0  0  # atno 17320 bound_to 7965
  144.7120  139.8337  143.7411 LP  0  0  0  0  0  0  0  0  0  0  0  0  # atno 17321 bound_to 7965
  139.5050  144.6786  151.6066 LP  0  0  0  0  0  0  0  0  0  0  0  0  # atno 17342 bound_to 10162
  140.6049  143.9543  150.6411 LP  0  0  0  0  0  0  0  0  0  0  0  0  # atno 17343 bound_to 10162
  155.9982  130.3895  150.2709 LP  0  0  0  0  0  0  0  0  0  0  0  0  # atno 17370 bound_to 10713
  157.0880  131.0162  151.3132 LP  0  0  0  0  0  0  0  0  0  0  0  0  # atno 17371 bound_to 10713
  139.8876  134.8879  156.2521 LP  0  0  0  0  0  0  0  0  0  0  0  0  # atno 17394 bound_to 11000
  141.0098  133.7102  156.1093 LP  0  0  0  0  0  0  0  0  0  0  0  0  # atno 17395 bound_to 11000

$$$$
