AV-unprocessed.smi:776|AV-procd|sdf|3700|dock6
  -GOLD-   22720 1123D 1   1.00000     0.00000
 Structure written by MMmdl.
 44 45  0  0  0  0  0  0  0  0  1 V2000
  146.7299  134.7090  161.2553 C   0  0  0  0  0  0  0  0  0  0  0  0
  147.9257  135.6219  161.5652 C   0  0  0  0  0  0  0  0  0  0  0  0
  147.7360  136.4466  162.8475 C   0  0  0  0  0  0  0  0  0  0  0  0
  148.2896  136.4823  160.3937 C   0  0  0  0  0  0  0  0  0  0  0  0
  147.4888  137.4535  159.9670 N   0  0  0  0  0  0  0  0  0  0  0  0
  148.1802  137.9875  158.8706 O   0  0  0  0  0  0  0  0  0  0  0  0
  149.3299  137.2776  158.7778 C   0  0  0  0  0  0  0  0  0  0  0  0
  150.2730  137.5767  157.6613 C   0  0  0  0  0  0  0  0  0  0  0  0
  151.5475  138.2862  158.1459 C   0  0  0  0  0  0  0  0  0  0  0  0
  151.2889  139.6801  158.4878 N   0  0  0  0  0  0  0  0  0  0  0  0
  152.1873  140.5281  159.0166 C   0  0  0  0  0  0  0  0  0  0  0  0
  153.3332  140.1772  159.2985 O   0  0  0  0  0  0  0  0  0  0  0  0
  151.6687  141.7453  159.3203 N   0  0  0  0  0  0  0  0  0  0  0  0
  150.5988  142.3423  158.4994 C   0  0  0  0  0  0  0  0  0  0  0  0
  151.2340  143.2437  157.4220 C   0  0  0  0  0  0  0  0  0  0  0  0
  152.1359  144.3183  158.0572 C   0  0  0  0  0  0  0  0  0  0  0  0
  153.1220  143.7123  159.0738 C   0  0  0  0  0  0  0  0  0  0  0  0
  152.3829  142.7997  160.0743 C   0  0  2  0  0  0  0  0  0  0  0  0
  153.3028  142.2973  161.2075 C   0  0  0  0  0  0  0  0  0  0  0  0
  149.4435  136.3154  159.6897 N   0  0  0  0  0  0  0  0  0  0  0  0
  146.9308  134.0830  160.3852 H   0  0  0  0  0  0  0  0  0  0  0  0
  145.8293  135.2885  161.0494 H   0  0  0  0  0  0  0  0  0  0  0  0
  146.5139  134.0475  162.0944 H   0  0  0  0  0  0  0  0  0  0  0  0
  148.7746  134.9619  161.7497 H   0  0  0  0  0  0  0  0  0  0  0  0
  148.6315  137.0241  163.0790 H   0  0  0  0  0  0  0  0  0  0  0  0
  147.5294  135.8013  163.7017 H   0  0  0  0  0  0  0  0  0  0  0  0
  146.9037  137.1448  162.7517 H   0  0  0  0  0  0  0  0  0  0  0  0
  150.5299  136.6409  157.1637 H   0  0  0  0  0  0  0  0  0  0  0  0
  149.7524  138.1898  156.9245 H   0  0  0  0  0  0  0  0  0  0  0  0
  151.9754  137.7626  159.0026 H   0  0  0  0  0  0  0  0  0  0  0  0
  152.3039  138.2673  157.3608 H   0  0  0  0  0  0  0  0  0  0  0  0
  150.3544  140.0249  158.3234 H   0  0  0  0  0  0  0  0  0  0  0  0
  149.9577  141.6019  158.0198 H   0  0  0  0  0  0  0  0  0  0  0  0
  149.9341  142.9290  159.1350 H   0  0  0  0  0  0  0  0  0  0  0  0
  151.8229  142.6328  156.7364 H   0  0  0  0  0  0  0  0  0  0  0  0
  150.4564  143.7178  156.8225 H   0  0  0  0  0  0  0  0  0  0  0  0
  152.6776  144.8631  157.2834 H   0  0  0  0  0  0  0  0  0  0  0  0
  151.5085  145.0509  158.5663 H   0  0  0  0  0  0  0  0  0  0  0  0
  153.8887  143.1412  158.5481 H   0  0  0  0  0  0  0  0  0  0  0  0
  153.6404  144.5129  159.6025 H   0  0  0  0  0  0  0  0  0  0  0  0
  151.6214  143.4013  160.5738 H   0  0  0  0  0  0  0  0  0  0  0  0
  153.6135  143.1284  161.8410 H   0  0  0  0  0  0  0  0  0  0  0  0
  154.2149  141.8337  160.8324 H   0  0  0  0  0  0  0  0  0  0  0  0
  152.7892  141.5774  161.8455 H   0  0  0  0  0  0  0  0  0  0  0  0
  1  2  1  0  0  0  0
  1 21  1  0  0  0  0
  1 22  1  0  0  0  0
  1 23  1  0  0  0  0
  2  3  1  0  0  0  0
  2  4  1  0  0  0  0
  2 24  1  0  0  0  0
  3 25  1  0  0  0  0
  3 26  1  0  0  0  0
  3 27  1  0  0  0  0
  4 20  1  0  0  0  0
  4  5  2  0  0  0  0
  5  6  1  0  0  0  0
  6  7  1  0  0  0  0
  7  8  1  0  0  0  0
  7 20  2  0  0  0  0
  8  9  1  0  0  0  0
  8 28  1  0  0  0  0
  8 29  1  0  0  0  0
  9 10  1  0  0  0  0
  9 30  1  0  0  0  0
  9 31  1  0  0  0  0
 10 11  1  0  0  0  0
 10 32  1  0  0  0  0
 11 12  2  0  0  0  0
 11 13  1  0  0  0  0
 13 18  1  0  0  0  0
 13 14  1  0  0  0  0
 14 15  1  0  0  0  0
 14 33  1  0  0  0  0
 14 34  1  0  0  0  0
 15 16  1  0  0  0  0
 15 35  1  0  0  0  0
 15 36  1  0  0  0  0
 16 17  1  0  0  0  0
 16 37  1  0  0  0  0
 16 38  1  0  0  0  0
 17 18  1  0  0  0  0
 17 39  1  0  0  0  0
 17 40  1  0  0  0  0
 18 19  1  0  0  0  0
 18 41  1  0  0  0  0
 19 42  1  0  0  0  0
 19 43  1  0  0  0  0
 19 44  1  0  0  0  0
M  END
> <s_m_source_file>
AV-unprocessed.smi

> <i_m_source_file_index>
776

> <i_lp_mmshare_version>
43012

> <i_f3d_flags>
0

> <s_epik_input>
W0NIM11bQ0hdKFtDSDNdKWMxbm9jKG4xKVtDSDJdW0NIMl1bTkhdQyg9TylOMltDSDJdW0NIMl1bQ0gyXVtDSDJdW0NASF0yW0NIM10=

> <s_epik_cmdline>
J2VwaWtfcHl0aG9uJywgJy1waCcsICc3LjAnLCAnLXRuJywgJzgnLCAnLW1hJywgJzIwMCcsICctbWV0YWxfYmluZGluZycsICctaW1hZScsICc8aW5maWxlLm1hZT4nLCAnLW9tYWUnLCAnPG91dGZpbGUubWFlPic=

> <r_lp_tautomer_probability>
1

> <r_epik_Ionization_Penalty>
6.23032e-05

> <r_epik_Ionization_Penalty_Charging>
0

> <r_epik_Ionization_Penalty_Neutral>
6.23032e-05

> <r_epik_State_Penalty>
-0

> <r_epik_Charging_Adjusted_Penalty>
0

> <i_epik_Tot_Q>
0

> <i_epik_Tot_abs_Q>
0

> <r_epik_Metal_State_Penalty>
-0

> <b_epik_Metal_Only>
0

> <s_lp_Force_Field>
OPLS_2005

> <r_lp_Energy>
25.3462

> <b_lp_Chiralities_Consistent>
1

> <s_lp_Variant>
AV-unprocessed.smi:776-2

> <Gold.Version>
5.8.1

> <Gold.Id.Protein>
6NUR|6NUR_protein|mol2

> <Gold.PLP.Fitness>
48.7448

> <Gold.PLP.PLP>
-43.6230

> <Gold.PLP.part.hbond>
-3.3451

> <Gold.PLP.part.metal>
0.0000

> <Gold.PLP.part.buried>
-4.7109

> <Gold.PLP.part.nonpolar>
-35.2408

> <Gold.PLP.part.repulsive>
0.1377

> <Gold.PLP.ligand.clash>
0.0000

> <Gold.PLP.ligand.torsion>
0.4938

> <Gold.PLP.Chemscore.Hbond>
1.8640

> <Gold.PLP.Chemscore.CHOScore>
0.0000

> <Gold.PLP.Chemscore.Metal>
0.0000

> <Gold.Chemscore.Hbonds>
donor molecule, donor type, donor heavy atom, donor atom, acceptor molecule, acceptor atom, score
      P1  H  6896  6908       L1    20  1.00
      P1  H  6934  6947       L1     5  0.79

> <Gold.PLP.Chemscore.Internal.Correction>
0.5175

> <Gold.Rescore>
     Score         DG    S(hbond)    S(metal)    S(lipo)     H(rot)  DE(clash)    DE(int)     intcor
     16.44     -18.33       1.48        0.00     103.67       1.65       0.05       1.84       ----

> <Gold.Chemscore.Fitness>
16.4413

> <Gold.Chemscore.DG>
-18.3344

> <Gold.Chemscore.ZeroCoef>
-5.4800

> <Gold.Chemscore.Hbond>
1.4794

> <Gold.Chemscore.Metal>
0.0000

> <Gold.Chemscore.Lipo>
103.6718

> <Gold.Chemscore.Internal_Hbond>
0.0000

> <Gold.Chemscore.DEClash>
0.0490

> <Gold.Chemscore.DEInternal>
1.8441

> <Gold.Chemscore.Rot>
1.6470

> <Gold.Chemscore.Internal.Correction>
   9.000000E+99

> <Gold.Chemscore.Hbonds>
donor molecule, donor type, donor heavy atom, donor atom, acceptor molecule, acceptor atom, score
      P1  H  6896  6908       L1    20  0.96
      P1  H  6934  6947       L1     5  0.15

> <Gold.Chemscore.Hbond.Weighted>
-4.9412

> <Gold.Chemscore.Metal.Weighted>
-0.0000

> <Gold.Chemscore.Lipo.Weighted>
-12.1296

> <Gold.Chemscore.Internal_Hbond.Weighted>
0.0000

> <Gold.Chemscore.DEClash.Weighted>
0.0490

> <Gold.Chemscore.DEInternal.Weighted>
1.8441

> <Gold.Chemscore.Rot.Weighted>
4.2164

> <Gold.Chemscore.Internal.Correction.Weighted>
   9.000000E+99

> <Gold.Protein.RotatedTorsions>
[ 6907 6896 6895 6894 ] final -170.00 input  -60.11 | X-H torsion
[ 7974 7965 7964 7962 ] final  -18.06 input  175.53 | X-H torsion
[ 8008 7997 7996 7995 ] final  -96.79 input   59.86 | X-H torsion
[ 10167 10162 10161 10158 ] final  -85.55 input  -65.29 | X-H torsion
[ 10718 10713 10712 10709 ] final   55.31 input   66.30 | X-H torsion
[ 10763 10752 10751 10750 ] final  175.59 input  -60.55 | X-H torsion
[ 11005 11000 10999 10996 ] final  -77.45 input  -57.11 | X-H torsion

> <Gold.Protein.ActiveResidues>
 VAL166  LYS551  ARG553  GLY616  TRP617  ASP618  TYR619  PRO620  LYS621  CYS622 
 ASP623  PHE694  ASN695  SER759  ASP760  ASP761  ALA762  ILE779  LEU786  VAL792 
 PHE793  MET794  SER795  GLU796  ALA797  LYS798  CYS799  TRP800  GLU811  SER814 

> <Gold.Protein.RotatedAtoms>
  151.5006  133.3505  159.2868 H   0  0  0  0  0  0  0  0  0  0  0  0  # atno 6907 bound_to 6896
  150.8775  134.8163  159.7212 H   0  0  0  0  0  0  0  0  0  0  0  0  # atno 6908 bound_to 6896
  152.4741  134.4899  159.9744 H   0  0  0  0  0  0  0  0  0  0  0  0  # atno 6909 bound_to 6896
  146.1911  140.3867  142.8458 H   0  0  0  0  0  0  0  0  0  0  0  0  # atno 7974 bound_to 7965
  154.7791  140.0468  157.1113 H   0  0  0  0  0  0  0  0  0  0  0  0  # atno 8008 bound_to 7997
  154.9726  140.3091  155.4961 H   0  0  0  0  0  0  0  0  0  0  0  0  # atno 8009 bound_to 7997
  156.2933  140.2250  156.4820 H   0  0  0  0  0  0  0  0  0  0  0  0  # atno 8010 bound_to 7997
  140.4026  143.2656  151.9122 H   0  0  0  0  0  0  0  0  0  0  0  0  # atno 10167 bound_to 10162
  157.5334  130.8646  149.8719 H   0  0  0  0  0  0  0  0  0  0  0  0  # atno 10718 bound_to 10713
  154.4697  135.2770  155.1652 H   0  0  0  0  0  0  0  0  0  0  0  0  # atno 10763 bound_to 10752
  154.3406  135.6171  153.5598 H   0  0  0  0  0  0  0  0  0  0  0  0  # atno 10764 bound_to 10752
  152.9863  135.5787  154.5076 H   0  0  0  0  0  0  0  0  0  0  0  0  # atno 10765 bound_to 10752
  141.1660  133.7023  156.7822 H   0  0  0  0  0  0  0  0  0  0  0  0  # atno 11005 bound_to 11000
  144.8488  140.6970  143.6181 LP  0  0  0  0  0  0  0  0  0  0  0  0  # atno 17320 bound_to 7965
  145.3790  139.1641  143.4291 LP  0  0  0  0  0  0  0  0  0  0  0  0  # atno 17321 bound_to 7965
  139.4784  144.5618  151.8227 LP  0  0  0  0  0  0  0  0  0  0  0  0  # atno 17342 bound_to 10162
  140.4723  144.1568  150.5920 LP  0  0  0  0  0  0  0  0  0  0  0  0  # atno 17343 bound_to 10162
  156.0439  130.3732  150.1365 LP  0  0  0  0  0  0  0  0  0  0  0  0  # atno 17370 bound_to 10713
  156.9549  130.9786  151.3491 LP  0  0  0  0  0  0  0  0  0  0  0  0  # atno 17371 bound_to 10713
  140.2386  134.8631  157.3551 LP  0  0  0  0  0  0  0  0  0  0  0  0  # atno 17394 bound_to 11000
  140.1818  134.4480  155.7767 LP  0  0  0  0  0  0  0  0  0  0  0  0  # atno 17395 bound_to 11000

$$$$
