AV-unprocessed.smi:221|AV-procd|sdf|1701|dock8
  -GOLD-   2262020153D 1   1.00000     0.00000
 Structure written by MMmdl.
 50 53  0  0  0  0  0  0  0  0  1 V2000
  148.2405  131.7425  152.8735 N   0  0  0  0  0  0  0  0  0  0  0  0
  147.3158  132.6108  153.2980 C   0  0  0  0  0  0  0  0  0  0  0  0
  146.9722  132.6529  154.4773 O   0  0  0  0  0  0  0  0  0  0  0  0
  146.6616  133.5625  152.2762 C   0  0  1  0  0  0  0  0  0  0  0  0
  145.9337  132.8032  151.1491 C   0  0  0  0  0  0  0  0  0  0  0  0
  144.4773  132.7906  151.5985 C   0  0  2  0  0  0  0  0  0  0  0  0
  143.6294  132.6105  150.5861 F   0  0  0  0  0  0  0  0  0  0  0  0
  144.3321  134.1598  152.2521 C   0  0  0  0  0  0  0  0  0  0  0  0
  145.6240  134.4117  152.8781 N   0  0  0  0  0  0  0  0  0  0  0  0
  145.9219  135.7126  153.0859 C   0  0  0  0  0  0  0  0  0  0  0  0
  145.4251  136.6677  152.2570 N   0  0  0  0  0  0  0  0  0  0  0  0
  145.7188  137.9537  152.4730 C   0  0  0  0  0  0  0  0  0  0  0  0
  146.4717  138.4884  153.4378 N   0  0  0  0  0  0  0  0  0  0  0  0
  146.9663  137.5275  154.2709 C   0  0  0  0  0  0  0  0  0  0  0  0
  146.7403  136.1272  154.1674 C   0  0  0  0  0  0  0  0  0  0  0  0
  147.4040  135.4571  155.1868 N   0  0  0  0  0  0  0  0  0  0  0  0
  147.9948  136.4099  155.8560 C   0  0  0  0  0  0  0  0  0  0  0  0
  147.7900  137.6827  155.3720 N   0  0  0  0  0  0  0  0  0  0  0  0
  148.3283  138.9146  155.9232 C   0  0  0  0  0  0  0  0  0  0  0  0
  148.9407  139.8514  154.8510 C   0  0  1  0  0  0  0  0  0  0  0  0
  148.8703  141.3334  155.3026 C   0  0  0  0  0  0  0  0  0  0  0  0
  148.8187  142.2197  154.2051 O   0  0  0  0  0  0  0  0  0  0  0  0
  150.3913  139.4094  154.5081 C   0  0  1  0  0  0  0  0  0  0  0  0
  151.3832  139.5193  155.6552 C   0  0  0  0  0  0  0  0  0  0  0  0
  152.5286  138.6260  155.1919 C   0  0  0  0  0  0  0  0  0  0  0  0
  151.9283  137.6074  154.4017 O   0  0  0  0  0  0  0  0  0  0  0  0
  150.5641  137.9281  154.1512 C   0  0  0  0  0  0  0  0  0  0  0  0
  147.4693  134.1542  151.8423 H   0  0  0  0  0  0  0  0  0  0  0  0
  144.3078  131.9947  152.3253 H   0  0  0  0  0  0  0  0  0  0  0  0
  148.6741  131.1102  153.5304 H   0  0  0  0  0  0  0  0  0  0  0  0
  148.4982  131.7192  151.8971 H   0  0  0  0  0  0  0  0  0  0  0  0
  146.0265  133.3644  150.2182 H   0  0  0  0  0  0  0  0  0  0  0  0
  146.3204  131.8003  150.9624 H   0  0  0  0  0  0  0  0  0  0  0  0
  144.1121  134.9194  151.4991 H   0  0  0  0  0  0  0  0  0  0  0  0
  143.5275  134.1714  152.9880 H   0  0  0  0  0  0  0  0  0  0  0  0
  145.2894  138.6547  151.7725 H   0  0  0  0  0  0  0  0  0  0  0  0
  148.6044  136.2100  156.7253 H   0  0  0  0  0  0  0  0  0  0  0  0
  147.5376  139.4322  156.4676 H   0  0  0  0  0  0  0  0  0  0  0  0
  149.0757  138.6291  156.6630 H   0  0  0  0  0  0  0  0  0  0  0  0
  148.3319  139.7466  153.9513 H   0  0  0  0  0  0  0  0  0  0  0  0
  147.9741  141.5325  155.8880 H   0  0  0  0  0  0  0  0  0  0  0  0
  149.7203  141.5849  155.9377 H   0  0  0  0  0  0  0  0  0  0  0  0
  148.7617  143.1035  154.5353 H   0  0  0  0  0  0  0  0  0  0  0  0
  150.7634  140.0104  153.6769 H   0  0  0  0  0  0  0  0  0  0  0  0
  151.7136  140.5407  155.8466 H   0  0  0  0  0  0  0  0  0  0  0  0
  150.9484  139.1221  156.5737 H   0  0  0  0  0  0  0  0  0  0  0  0
  153.2216  139.1882  154.5649 H   0  0  0  0  0  0  0  0  0  0  0  0
  153.0910  138.2047  156.0256 H   0  0  0  0  0  0  0  0  0  0  0  0
  149.9446  137.3010  154.7936 H   0  0  0  0  0  0  0  0  0  0  0  0
  150.3040  137.7137  153.1144 H   0  0  0  0  0  0  0  0  0  0  0  0
  1  2  1  0  0  0  0
  1 30  1  0  0  0  0
  1 31  1  0  0  0  0
  2  3  2  0  0  0  0
  2  4  1  0  0  0  0
  4 28  1  0  0  0  0
  4  9  1  0  0  0  0
  4  5  1  0  0  0  0
  5  6  1  0  0  0  0
  5 32  1  0  0  0  0
  5 33  1  0  0  0  0
  6 29  1  0  0  0  0
  6  7  1  0  0  0  0
  6  8  1  0  0  0  0
  8  9  1  0  0  0  0
  8 34  1  0  0  0  0
  8 35  1  0  0  0  0
  9 10  1  0  0  0  0
 10 15  1  0  0  0  0
 10 11  2  0  0  0  0
 11 12  1  0  0  0  0
 12 13  2  0  0  0  0
 12 36  1  0  0  0  0
 13 14  1  0  0  0  0
 14 18  1  0  0  0  0
 14 15  2  0  0  0  0
 15 16  1  0  0  0  0
 16 17  2  0  0  0  0
 17 18  1  0  0  0  0
 17 37  1  0  0  0  0
 18 19  1  0  0  0  0
 19 20  1  0  0  0  0
 19 38  1  0  0  0  0
 19 39  1  0  0  0  0
 20 21  1  0  0  0  0
 20 23  1  0  0  0  0
 20 40  1  0  0  0  0
 21 22  1  0  0  0  0
 21 41  1  0  0  0  0
 21 42  1  0  0  0  0
 22 43  1  0  0  0  0
 23 27  1  0  0  0  0
 23 24  1  0  0  0  0
 23 44  1  0  0  0  0
 24 25  1  0  0  0  0
 24 45  1  0  0  0  0
 24 46  1  0  0  0  0
 25 26  1  0  0  0  0
 25 47  1  0  0  0  0
 25 48  1  0  0  0  0
 26 27  1  0  0  0  0
 27 49  1  0  0  0  0
 27 50  1  0  0  0  0
M  END
> <s_m_source_file>
AV-unprocessed.smi

> <i_m_source_file_index>
221

> <i_lp_mmshare_version>
43012

> <i_f3d_flags>
0

> <s_epik_input>
W05IMl1DKD1PKVtDQEBIXTFbQ0gyXVtDQEBIXShGKVtDSDJdTjFjKG5bY0hdbjIpYyhjMjMpbltjSF1uM1tDSDJdW0NASF0oW0NIMl1bT0hdKVtDQEBIXTRbQ0gyXVtDSDJdT1tDSDJdNA==

> <s_epik_cmdline>
J2VwaWtfcHl0aG9uJywgJy1waCcsICc3LjAnLCAnLXRuJywgJzgnLCAnLW1hJywgJzIwMCcsICctbWV0YWxfYmluZGluZycsICctaW1hZScsICc8aW5maWxlLm1hZT4nLCAnLW9tYWUnLCAnPG91dGZpbGUubWFlPic=

> <r_lp_tautomer_probability>
1

> <r_epik_Ionization_Penalty>
0.000818822

> <r_epik_Ionization_Penalty_Charging>
0

> <r_epik_Ionization_Penalty_Neutral>
0.000818822

> <r_epik_State_Penalty>
0.000440551

> <r_epik_Charging_Adjusted_Penalty>
0.000440551

> <i_epik_Tot_Q>
0

> <i_epik_Tot_abs_Q>
0

> <r_epik_Metal_State_Penalty>
-0

> <b_epik_Metal_Only>
0

> <s_lp_Force_Field>
OPLS_2005

> <r_lp_Energy>
50.9528

> <b_lp_Chiralities_Consistent>
1

> <s_lp_Variant>
AV-unprocessed.smi:221-16

> <Gold.Version>
5.8.1

> <Gold.Id.Protein>
6NUR|6NUR_protein|mol2

> <Gold.PLP.Fitness>
48.8905

> <Gold.PLP.PLP>
-36.3461

> <Gold.PLP.part.hbond>
-4.0000

> <Gold.PLP.part.metal>
0.0000

> <Gold.PLP.part.buried>
-4.1699

> <Gold.PLP.part.nonpolar>
-30.3323

> <Gold.PLP.part.repulsive>
0.7598

> <Gold.PLP.ligand.clash>
0.0000

> <Gold.PLP.ligand.torsion>
1.3367

> <Gold.PLP.Chemscore.Hbond>
3.1992

> <Gold.PLP.Chemscore.CHOScore>
1.7351

> <Gold.PLP.Chemscore.Metal>
0.0000

> <Gold.Chemscore.Hbonds>
donor molecule, donor type, donor heavy atom, donor atom, acceptor molecule, acceptor atom, score
      L1  H     1    31       P1 10747  1.00
      L1  H    22    43       P1  8028  1.00
      P1  H  8011  8017       L1    22  0.23
      P1  H 10752 10765       L1    26  0.54
      L1  C    12    36       P1 10171  1.00
      L1  C    12    36       P1 10175  0.87

> <Gold.PLP.Chemscore.Internal.Correction>
0.4150

> <Gold.Rescore>
     Score         DG    S(hbond)    S(metal)    S(lipo)     H(rot)  DE(clash)    DE(int)     intcor
     10.53     -13.00       2.77        0.00      66.46       3.72       0.03       2.44       ----

> <Gold.Chemscore.Fitness>
10.5322

> <Gold.Chemscore.DG>
-12.9979

> <Gold.Chemscore.ZeroCoef>
-5.4800

> <Gold.Chemscore.Hbond>
2.7743

> <Gold.Chemscore.Metal>
0.0000

> <Gold.Chemscore.Lipo>
66.4577

> <Gold.Chemscore.Internal_Hbond>
0.0000

> <Gold.Chemscore.DEClash>
0.0279

> <Gold.Chemscore.DEInternal>
2.4377

> <Gold.Chemscore.Rot>
3.7202

> <Gold.Chemscore.Internal.Correction>
   9.000000E+99

> <Gold.Chemscore.Hbonds>
donor molecule, donor type, donor heavy atom, donor atom, acceptor molecule, acceptor atom, score
      L1  H     1    31       P1 10747  0.97
      L1  H    22    43       P1  8028  0.99
      P1  H  8011  8017       L1    22  0.09
      P1  H 10752 10765       L1    26  0.51

> <Gold.Chemscore.Hbond.Weighted>
-9.2661

> <Gold.Chemscore.Metal.Weighted>
-0.0000

> <Gold.Chemscore.Lipo.Weighted>
-7.7756

> <Gold.Chemscore.Internal_Hbond.Weighted>
0.0000

> <Gold.Chemscore.DEClash.Weighted>
0.0279

> <Gold.Chemscore.DEInternal.Weighted>
2.4377

> <Gold.Chemscore.Rot.Weighted>
9.5237

> <Gold.Chemscore.Internal.Correction.Weighted>
   9.000000E+99

> <Gold.Protein.RotatedTorsions>
[ 6907 6896 6895 6894 ] final  106.42 input  -60.11 | X-H torsion
[ 7974 7965 7964 7962 ] final  -38.42 input  175.53 | X-H torsion
[ 8008 7997 7996 7995 ] final -105.52 input   59.86 | X-H torsion
[ 10167 10162 10161 10158 ] final   10.65 input  -65.29 | X-H torsion
[ 10718 10713 10712 10709 ] final -127.55 input   66.30 | X-H torsion
[ 10763 10752 10751 10750 ] final  157.02 input  -60.55 | X-H torsion
[ 11005 11000 10999 10996 ] final -167.39 input  -57.11 | X-H torsion

> <Gold.Protein.ActiveResidues>
 VAL166  LYS551  ARG553  GLY616  TRP617  ASP618  TYR619  PRO620  LYS621  CYS622 
 ASP623  PHE694  ASN695  SER759  ASP760  ASP761  ALA762  ILE779  LEU786  VAL792 
 PHE793  MET794  SER795  GLU796  ALA797  LYS798  CYS799  TRP800  GLU811  SER814 

> <Gold.Protein.RotatedAtoms>
  152.5194  133.9384  159.7614 H   0  0  0  0  0  0  0  0  0  0  0  0  # atno 6907 bound_to 6896
  150.9719  133.6326  159.2743 H   0  0  0  0  0  0  0  0  0  0  0  0  # atno 6908 bound_to 6896
  151.3534  135.0895  159.9463 H   0  0  0  0  0  0  0  0  0  0  0  0  # atno 6909 bound_to 6896
  146.0488  140.6509  142.9052 H   0  0  0  0  0  0  0  0  0  0  0  0  # atno 7974 bound_to 7965
  154.9011  140.0413  157.1893 H   0  0  0  0  0  0  0  0  0  0  0  0  # atno 8008 bound_to 7997
  154.8443  140.2919  155.5618 H   0  0  0  0  0  0  0  0  0  0  0  0  # atno 8009 bound_to 7997
  156.2993  140.2477  156.3391 H   0  0  0  0  0  0  0  0  0  0  0  0  # atno 8010 bound_to 7997
  140.6181  143.8264  150.7142 H   0  0  0  0  0  0  0  0  0  0  0  0  # atno 10167 bound_to 10162
  156.1868  130.6768  151.0374 H   0  0  0  0  0  0  0  0  0  0  0  0  # atno 10718 bound_to 10713
  154.1936  135.2793  155.3014 H   0  0  0  0  0  0  0  0  0  0  0  0  # atno 10763 bound_to 10752
  154.5909  135.5560  153.7281 H   0  0  0  0  0  0  0  0  0  0  0  0  # atno 10764 bound_to 10752
  153.0106  135.6368  154.2074 H   0  0  0  0  0  0  0  0  0  0  0  0  # atno 10765 bound_to 10752
  140.5537  134.5402  157.5128 H   0  0  0  0  0  0  0  0  0  0  0  0  # atno 11005 bound_to 11000
  144.7112  140.4044  143.7079 LP  0  0  0  0  0  0  0  0  0  0  0  0  # atno 17320 bound_to 7965
  145.6759  139.1608  143.2728 LP  0  0  0  0  0  0  0  0  0  0  0  0  # atno 17321 bound_to 7965
  140.1848  143.4085  152.1907 LP  0  0  0  0  0  0  0  0  0  0  0  0  # atno 17342 bound_to 10162
  139.5415  144.7261  151.4717 LP  0  0  0  0  0  0  0  0  0  0  0  0  # atno 17343 bound_to 10162
  157.6904  131.0812  150.7125 LP  0  0  0  0  0  0  0  0  0  0  0  0  # atno 17370 bound_to 10713
  156.7181  130.4672  149.5530 LP  0  0  0  0  0  0  0  0  0  0  0  0  # atno 17371 bound_to 10713
  139.9442  134.7732  156.0603 LP  0  0  0  0  0  0  0  0  0  0  0  0  # atno 17394 bound_to 11000
  141.1156  133.6629  156.3086 LP  0  0  0  0  0  0  0  0  0  0  0  0  # atno 17395 bound_to 11000

$$$$
