AV-unprocessed.smi:1475|AV-procd|sdf|5977|dock7
  -GOLD-   22720 6 73D 1   1.00000     0.00000
 Structure written by MMmdl.
 50 51  0  0  0  0  0  0  0  0  2 V2000
  152.4240  144.3010  162.8928 C   0  0  0  0  0  0  0  0  0  0  0  0
  152.9455  143.1650  162.0632 C   0  0  0  0  0  0  0  0  0  0  0  0
  153.6990  142.0361  162.4896 C   0  0  0  0  0  0  0  0  0  0  0  0
  153.9088  141.3179  161.3462 C   0  0  0  0  0  0  0  0  0  0  0  0
  154.6338  140.0284  161.1392 C   0  0  0  0  0  0  0  0  0  0  0  0
  153.3002  142.0155  160.3173 N   0  0  0  0  0  0  0  0  0  0  0  0
  153.2174  141.6822  158.9044 C   0  0  0  0  0  0  0  0  0  0  0  0
  151.7625  141.5050  158.4686 C   0  0  0  0  0  0  0  0  0  0  0  0
  150.8528  141.9868  159.1433 O   0  0  0  0  0  0  0  0  0  0  0  0
  151.5561  140.8162  157.3354 N   0  0  0  0  0  0  0  0  0  0  0  0
  150.2529  140.5753  156.7283 C   0  0  0  0  0  0  0  0  0  0  0  0
  149.9430  141.5971  155.6157 C   0  0  0  0  0  0  0  0  0  0  0  0
  148.5274  142.0436  155.6281 N   0  3  1  0  0  0  0  0  0  0  0  0
  147.6973  141.2870  154.6543 C   0  0  0  0  0  0  0  0  0  0  0  0
  146.2659  141.8511  154.5617 C   0  0  2  0  0  0  0  0  0  0  0  0
  146.2200  143.2016  153.8257 C   0  0  0  0  0  0  0  0  0  0  0  0
  145.6143  141.9040  155.9558 C   0  0  0  0  0  0  0  0  0  0  0  0
  146.5039  142.6411  156.9729 C   0  0  1  0  0  0  0  0  0  0  0  0
  145.8771  142.6308  158.3746 C   0  0  0  0  0  0  0  0  0  0  0  0
  147.9193  142.0317  156.9856 C   0  0  0  0  0  0  0  0  0  0  0  0
  152.7095  143.1468  160.7616 N   0  0  0  0  0  0  0  0  0  0  0  0
  152.7281  144.1996  163.9348 H   0  0  0  0  0  0  0  0  0  0  0  0
  151.3347  144.3380  162.8674 H   0  0  0  0  0  0  0  0  0  0  0  0
  152.7998  145.2578  162.5295 H   0  0  0  0  0  0  0  0  0  0  0  0
  154.0342  141.7897  163.4862 H   0  0  0  0  0  0  0  0  0  0  0  0
  154.9990  139.6306  162.0861 H   0  0  0  0  0  0  0  0  0  0  0  0
  155.4921  140.1661  160.4814 H   0  0  0  0  0  0  0  0  0  0  0  0
  153.9796  139.2791  160.6936 H   0  0  0  0  0  0  0  0  0  0  0  0
  153.6956  142.4684  158.3175 H   0  0  0  0  0  0  0  0  0  0  0  0
  153.7771  140.7651  158.7173 H   0  0  0  0  0  0  0  0  0  0  0  0
  152.3649  140.4648  156.8424 H   0  0  0  0  0  0  0  0  0  0  0  0
  150.2272  139.5509  156.3563 H   0  0  0  0  0  0  0  0  0  0  0  0
  149.4982  140.6399  157.5127 H   0  0  0  0  0  0  0  0  0  0  0  0
  150.5930  142.4606  155.7643 H   0  0  0  0  0  0  0  0  0  0  0  0
  150.1859  141.1969  154.6302 H   0  0  0  0  0  0  0  0  0  0  0  0
  148.1607  141.3119  153.6671 H   0  0  0  0  0  0  0  0  0  0  0  0
  147.6642  140.2389  154.9560 H   0  0  0  0  0  0  0  0  0  0  0  0
  145.6804  141.1560  153.9584 H   0  0  0  0  0  0  0  0  0  0  0  0
  146.8112  143.9637  154.3331 H   0  0  0  0  0  0  0  0  0  0  0  0
  145.1971  143.5712  153.7484 H   0  0  0  0  0  0  0  0  0  0  0  0
  146.6092  143.1059  152.8115 H   0  0  0  0  0  0  0  0  0  0  0  0
  144.6331  142.3764  155.8951 H   0  0  0  0  0  0  0  0  0  0  0  0
  145.4390  140.8851  156.3044 H   0  0  0  0  0  0  0  0  0  0  0  0
  146.5875  143.6844  156.6657 H   0  0  0  0  0  0  0  0  0  0  0  0
  145.7658  141.6139  158.7527 H   0  0  0  0  0  0  0  0  0  0  0  0
  144.8892  143.0925  158.3660 H   0  0  0  0  0  0  0  0  0  0  0  0
  146.4923  143.1843  159.0848 H   0  0  0  0  0  0  0  0  0  0  0  0
  147.8888  141.0073  157.3608 H   0  0  0  0  0  0  0  0  0  0  0  0
  148.5370  142.5993  157.6803 H   0  0  0  0  0  0  0  0  0  0  0  0
  148.5275  143.0030  155.3124 H   0  0  0  0  0  0  0  0  0  0  0  0
  1  2  1  0  0  0  0
  1 22  1  0  0  0  0
  1 23  1  0  0  0  0
  1 24  1  0  0  0  0
  2 21  2  0  0  0  0
  2  3  1  0  0  0  0
  3  4  2  0  0  0  0
  3 25  1  0  0  0  0
  4  5  1  0  0  0  0
  4  6  1  0  0  0  0
  5 26  1  0  0  0  0
  5 27  1  0  0  0  0
  5 28  1  0  0  0  0
  6  7  1  0  0  0  0
  6 21  1  0  0  0  0
  7  8  1  0  0  0  0
  7 29  1  0  0  0  0
  7 30  1  0  0  0  0
  8  9  2  0  0  0  0
  8 10  1  0  0  0  0
 10 11  1  0  0  0  0
 10 31  1  0  0  0  0
 11 12  1  0  0  0  0
 11 32  1  0  0  0  0
 11 33  1  0  0  0  0
 12 13  1  0  0  0  0
 12 34  1  0  0  0  0
 12 35  1  0  0  0  0
 13 20  1  0  0  0  0
 13 14  1  0  0  0  0
 13 50  1  0  0  0  0
 14 15  1  0  0  0  0
 14 36  1  0  0  0  0
 14 37  1  0  0  0  0
 15 16  1  0  0  0  0
 15 17  1  0  0  0  0
 15 38  1  0  0  0  0
 16 39  1  0  0  0  0
 16 40  1  0  0  0  0
 16 41  1  0  0  0  0
 17 18  1  0  0  0  0
 17 42  1  0  0  0  0
 17 43  1  0  0  0  0
 18 19  1  0  0  0  0
 18 20  1  0  0  0  0
 18 44  1  0  0  0  0
 19 45  1  0  0  0  0
 19 46  1  0  0  0  0
 19 47  1  0  0  0  0
 20 48  1  0  0  0  0
 20 49  1  0  0  0  0
M  CHG  1  13   1
M  END
> <s_m_source_file>
AV-unprocessed.smi

> <i_m_source_file_index>
1475

> <i_lp_mmshare_version>
43012

> <i_f3d_flags>
0

> <s_epik_input>
W0NIM11jMVtjSF1jKFtDSDNdKW4objEpW0NIMl1DKD1PKVtOSF1bQ0gyXVtDSDJdTjJbQ0gyXVtDQEBIXShbQ0gzXSlbQ0gyXVtDQEBIXShbQ0gzXSlbQ0gyXTI=

> <s_epik_cmdline>
J2VwaWtfcHl0aG9uJywgJy1waCcsICc3LjAnLCAnLXRuJywgJzgnLCAnLW1hJywgJzIwMCcsICctbWV0YWxfYmluZGluZycsICctaW1hZScsICc8aW5maWxlLm1hZT4nLCAnLW9tYWUnLCAnPG91dGZpbGUubWFlPic=

> <r_lp_tautomer_probability>
1

> <r_epik_Ionization_Penalty>
0.00206431

> <r_epik_Ionization_Penalty_Charging>
0.00187095

> <r_epik_Ionization_Penalty_Neutral>
0.000193364

> <r_epik_State_Penalty>
-0

> <r_epik_Charging_Adjusted_Penalty>
0.00187095

> <i_epik_Tot_Q>
1

> <i_epik_Tot_abs_Q>
1

> <r_epik_Metal_State_Penalty>
-0

> <b_epik_Metal_Only>
0

> <s_lp_Force_Field>
OPLS_2005

> <r_lp_Energy>
16.4698

> <b_lp_Chiralities_Consistent>
1

> <s_lp_Variant>
AV-unprocessed.smi:1475-2

> <Gold.Version>
5.8.1

> <Gold.Id.Protein>
6NUR|6NUR_protein|mol2

> <Gold.PLP.Fitness>
42.7322

> <Gold.PLP.PLP>
-39.0038

> <Gold.PLP.part.hbond>
-1.6691

> <Gold.PLP.part.metal>
0.0000

> <Gold.PLP.part.buried>
-1.2492

> <Gold.PLP.part.nonpolar>
-35.2114

> <Gold.PLP.part.repulsive>
0.2292

> <Gold.PLP.ligand.clash>
0.0000

> <Gold.PLP.ligand.torsion>
1.1669

> <Gold.PLP.Chemscore.Hbond>
2.0000

> <Gold.PLP.Chemscore.CHOScore>
0.0000

> <Gold.PLP.Chemscore.Metal>
0.0000

> <Gold.Chemscore.Hbonds>
donor molecule, donor type, donor heavy atom, donor atom, acceptor molecule, acceptor atom, score
      L1  H    13    50       P1  8028  1.98

> <Gold.PLP.Chemscore.Internal.Correction>
0.0622

> <Gold.Rescore>
     Score         DG    S(hbond)    S(metal)    S(lipo)     H(rot)  DE(clash)    DE(int)     intcor
     12.20     -15.51       0.97        0.00      93.93       1.64       0.85       2.45       ----

> <Gold.Chemscore.Fitness>
12.2028

> <Gold.Chemscore.DG>
-15.5062

> <Gold.Chemscore.ZeroCoef>
-5.4800

> <Gold.Chemscore.Hbond>
0.9684

> <Gold.Chemscore.Metal>
0.0000

> <Gold.Chemscore.Lipo>
93.9297

> <Gold.Chemscore.Internal_Hbond>
0.0000

> <Gold.Chemscore.DEClash>
0.8549

> <Gold.Chemscore.DEInternal>
2.4485

> <Gold.Chemscore.Rot>
1.6399

> <Gold.Chemscore.Internal.Correction>
   9.000000E+99

> <Gold.Chemscore.Hbonds>
donor molecule, donor type, donor heavy atom, donor atom, acceptor molecule, acceptor atom, score
      L1  H    13    50       P1  8028  0.94

> <Gold.Chemscore.Hbond.Weighted>
-3.2346

> <Gold.Chemscore.Metal.Weighted>
-0.0000

> <Gold.Chemscore.Lipo.Weighted>
-10.9898

> <Gold.Chemscore.Internal_Hbond.Weighted>
0.0000

> <Gold.Chemscore.DEClash.Weighted>
0.8549

> <Gold.Chemscore.DEInternal.Weighted>
2.4485

> <Gold.Chemscore.Rot.Weighted>
4.1982

> <Gold.Chemscore.Internal.Correction.Weighted>
   9.000000E+99

> <Gold.Protein.RotatedTorsions>
[ 6907 6896 6895 6894 ] final  -55.42 input  -60.11 | X-H torsion
[ 7974 7965 7964 7962 ] final  -48.86 input  175.53 | X-H torsion
[ 8008 7997 7996 7995 ] final -143.44 input   59.86 | X-H torsion
[ 10167 10162 10161 10158 ] final -175.10 input  -65.29 | X-H torsion
[ 10718 10713 10712 10709 ] final   19.02 input   66.30 | X-H torsion
[ 10763 10752 10751 10750 ] final -156.95 input  -60.55 | X-H torsion
[ 11005 11000 10999 10996 ] final  114.33 input  -57.11 | X-H torsion

> <Gold.Protein.ActiveResidues>
 VAL166  LYS551  ARG553  GLY616  TRP617  ASP618  TYR619  PRO620  LYS621  CYS622 
 ASP623  PHE694  ASN695  SER759  ASP760  ASP761  ALA762  ILE779  LEU786  VAL792 
 PHE793  MET794  SER795  GLU796  ALA797  LYS798  CYS799  TRP800  GLU811  SER814 

> <Gold.Protein.RotatedAtoms>
  150.8253  134.7481  159.6807 H   0  0  0  0  0  0  0  0  0  0  0  0  # atno 6907 bound_to 6896
  152.4364  134.5674  159.9921 H   0  0  0  0  0  0  0  0  0  0  0  0  # atno 6908 bound_to 6896
  151.5848  133.3336  159.3051 H   0  0  0  0  0  0  0  0  0  0  0  0  # atno 6909 bound_to 6896
  145.9467  140.7611  142.9525 H   0  0  0  0  0  0  0  0  0  0  0  0  # atno 7974 bound_to 7965
  155.5106  140.0583  157.2924 H   0  0  0  0  0  0  0  0  0  0  0  0  # atno 8008 bound_to 7997
  154.4553  140.1970  156.0346 H   0  0  0  0  0  0  0  0  0  0  0  0  # atno 8009 bound_to 7997
  156.0787  140.3250  155.7670 H   0  0  0  0  0  0  0  0  0  0  0  0  # atno 8010 bound_to 7997
  139.5598  144.1897  152.1221 H   0  0  0  0  0  0  0  0  0  0  0  0  # atno 10167 bound_to 10162
  157.1045  130.6482  149.5881 H   0  0  0  0  0  0  0  0  0  0  0  0  # atno 10718 bound_to 10713
  154.7674  135.3135  154.8259 H   0  0  0  0  0  0  0  0  0  0  0  0  # atno 10763 bound_to 10752
  153.9003  135.6816  153.4760 H   0  0  0  0  0  0  0  0  0  0  0  0  # atno 10764 bound_to 10752
  153.1282  135.4792  154.9240 H   0  0  0  0  0  0  0  0  0  0  0  0  # atno 10765 bound_to 10752
  139.8977  134.9566  156.6875 H   0  0  0  0  0  0  0  0  0  0  0  0  # atno 11005 bound_to 11000
  144.6788  140.2368  143.7348 LP  0  0  0  0  0  0  0  0  0  0  0  0  # atno 17320 bound_to 7965
  145.8226  139.2050  143.1929 LP  0  0  0  0  0  0  0  0  0  0  0  0  # atno 17321 bound_to 7965
  140.1408  144.5203  150.6745 LP  0  0  0  0  0  0  0  0  0  0  0  0  # atno 17342 bound_to 10162
  140.6877  143.2359  151.5216 LP  0  0  0  0  0  0  0  0  0  0  0  0  # atno 17343 bound_to 10162
  155.9865  130.4900  150.7083 LP  0  0  0  0  0  0  0  0  0  0  0  0  # atno 17370 bound_to 10713
  157.4612  131.0883  151.0743 LP  0  0  0  0  0  0  0  0  0  0  0  0  # atno 17371 bound_to 10713
  140.7251  133.9107  155.8173 LP  0  0  0  0  0  0  0  0  0  0  0  0  # atno 17394 bound_to 11000
  141.0197  134.0906  157.4133 LP  0  0  0  0  0  0  0  0  0  0  0  0  # atno 17395 bound_to 11000

$$$$
