AV-unprocessed.smi:996|AV-procd|sdf|4347|dock1
  -GOLD-   22720 2243D 1   1.00000     0.00000
 Structure written by MMmdl.
 22 23  0  0  0  0  0  0  0  0  1 V2000
  153.1108  142.1973  163.1253 O   0  0  0  0  0  0  0  0  0  0  0  0
  152.7768  142.7129  162.0600 C   0  0  0  0  0  0  0  0  0  0  0  0
  152.1823  143.9421  161.9311 O   0  0  0  0  0  0  0  0  0  0  0  0
  151.9403  144.1793  160.6096 C   0  0  0  0  0  0  0  0  0  0  0  0
  151.3430  145.2954  159.9999 C   0  0  0  0  0  0  0  0  0  0  0  0
  151.2050  145.2791  158.5919 C   0  0  0  0  0  0  0  0  0  0  0  0
  151.6571  144.1701  157.8312 C   0  0  0  0  0  0  0  0  0  0  0  0
  152.2564  143.0568  158.4643 C   0  0  0  0  0  0  0  0  0  0  0  0
  152.3794  143.1062  159.8634 C   0  0  0  0  0  0  0  0  0  0  0  0
  152.9094  142.1922  160.7702 N   0  0  0  0  0  0  0  0  0  0  0  0
  153.4816  140.8910  160.4402 C   0  0  0  0  0  0  0  0  0  0  0  0
  154.8957  140.7467  161.0195 C   0  0  0  0  0  0  0  0  0  0  0  0
  155.4128  139.4731  160.7021 O   0  0  0  0  0  0  0  0  0  0  0  0
  150.9999  146.1351  160.5859 H   0  0  0  0  0  0  0  0  0  0  0  0
  150.7496  146.1204  158.0904 H   0  0  0  0  0  0  0  0  0  0  0  0
  151.5423  144.1758  156.7573 H   0  0  0  0  0  0  0  0  0  0  0  0
  152.6021  142.2073  157.8942 H   0  0  0  0  0  0  0  0  0  0  0  0
  152.8328  140.1026  160.8238 H   0  0  0  0  0  0  0  0  0  0  0  0
  153.5048  140.7660  159.3564 H   0  0  0  0  0  0  0  0  0  0  0  0
  155.5599  141.5114  160.6154 H   0  0  0  0  0  0  0  0  0  0  0  0
  154.8823  140.8630  162.1036 H   0  0  0  0  0  0  0  0  0  0  0  0
  154.6916  138.8680  160.6182 H   0  0  0  0  0  0  0  0  0  0  0  0
  1  2  2  0  0  0  0
  2 10  1  0  0  0  0
  2  3  1  0  0  0  0
  3  4  1  0  0  0  0
  4  9  2  0  0  0  0
  4  5  1  0  0  0  0
  5  6  2  0  0  0  0
  5 14  1  0  0  0  0
  6  7  1  0  0  0  0
  6 15  1  0  0  0  0
  7  8  2  0  0  0  0
  7 16  1  0  0  0  0
  8  9  1  0  0  0  0
  8 17  1  0  0  0  0
  9 10  1  0  0  0  0
 10 11  1  0  0  0  0
 11 12  1  0  0  0  0
 11 18  1  0  0  0  0
 11 19  1  0  0  0  0
 12 13  1  0  0  0  0
 12 20  1  0  0  0  0
 12 21  1  0  0  0  0
 13 22  1  0  0  0  0
M  END
> <s_m_source_file>
AV-unprocessed.smi

> <i_m_source_file_index>
996

> <i_lp_mmshare_version>
43012

> <i_f3d_flags>
0

> <s_epik_input>
W09IXVtDSDJdW0NIMl1uKGMoPU8pbzEpYyhjMTIpW2NIXVtjSF1bY0hdW2NIXTI=

> <s_epik_cmdline>
J2VwaWtfcHl0aG9uJywgJy1waCcsICc3LjAnLCAnLXRuJywgJzgnLCAnLW1hJywgJzIwMCcsICctbWV0YWxfYmluZGluZycsICctaW1hZScsICc8aW5maWxlLm1hZT4nLCAnLW9tYWUnLCAnPG91dGZpbGUubWFlPic=

> <r_lp_tautomer_probability>
1

> <r_epik_Ionization_Penalty>
1.98202e-07

> <r_epik_Ionization_Penalty_Charging>
1.40767e-14

> <r_epik_Ionization_Penalty_Neutral>
1.98202e-07

> <r_epik_State_Penalty>
-0

> <r_epik_Charging_Adjusted_Penalty>
1.40767e-14

> <i_epik_Tot_Q>
0

> <i_epik_Tot_abs_Q>
0

> <r_epik_Metal_State_Penalty>
-0

> <b_epik_Metal_Only>
0

> <s_lp_Force_Field>
OPLS_2005

> <r_lp_Energy>
24.1442

> <b_lp_Chiralities_Consistent>
1

> <s_lp_Variant>
AV-unprocessed.smi:996-1

> <Gold.Version>
5.8.1

> <Gold.Id.Protein>
6NUR|6NUR_protein|mol2

> <Gold.PLP.Fitness>
36.2864

> <Gold.PLP.PLP>
-36.3476

> <Gold.PLP.part.hbond>
0.0000

> <Gold.PLP.part.metal>
0.0000

> <Gold.PLP.part.buried>
-3.0540

> <Gold.PLP.part.nonpolar>
-33.0727

> <Gold.PLP.part.repulsive>
0.2429

> <Gold.PLP.ligand.clash>
0.0000

> <Gold.PLP.ligand.torsion>
0.0312

> <Gold.PLP.Chemscore.Hbond>
0.0000

> <Gold.PLP.Chemscore.CHOScore>
0.0000

> <Gold.PLP.Chemscore.Metal>
0.0000

> <Gold.PLP.Chemscore.Internal.Correction>
0.0013

> <Gold.Rescore>
     Score         DG    S(hbond)    S(metal)    S(lipo)     H(rot)  DE(clash)    DE(int)     intcor
     11.34     -11.47       0.00        0.00      90.37       1.79       0.11       0.02       ----

> <Gold.Chemscore.Fitness>
11.3431

> <Gold.Chemscore.DG>
-11.4697

> <Gold.Chemscore.ZeroCoef>
-5.4800

> <Gold.Chemscore.Hbond>
0.0000

> <Gold.Chemscore.Metal>
0.0000

> <Gold.Chemscore.Lipo>
90.3675

> <Gold.Chemscore.Internal_Hbond>
0.0000

> <Gold.Chemscore.DEClash>
0.1110

> <Gold.Chemscore.DEInternal>
0.0157

> <Gold.Chemscore.Rot>
1.7903

> <Gold.Chemscore.Internal.Correction>
   9.000000E+99

> <Gold.Chemscore.Hbond.Weighted>
-0.0000

> <Gold.Chemscore.Metal.Weighted>
-0.0000

> <Gold.Chemscore.Lipo.Weighted>
-10.5730

> <Gold.Chemscore.Internal_Hbond.Weighted>
0.0000

> <Gold.Chemscore.DEClash.Weighted>
0.1110

> <Gold.Chemscore.DEInternal.Weighted>
0.0157

> <Gold.Chemscore.Rot.Weighted>
4.5833

> <Gold.Chemscore.Internal.Correction.Weighted>
   9.000000E+99

> <Gold.Protein.RotatedTorsions>
[ 6907 6896 6895 6894 ] final  -17.10 input  -60.11 | X-H torsion
[ 7974 7965 7964 7962 ] final -126.44 input  175.53 | X-H torsion
[ 8008 7997 7996 7995 ] final  -51.74 input   59.86 | X-H torsion
[ 10167 10162 10161 10158 ] final -148.65 input  -65.29 | X-H torsion
[ 10718 10713 10712 10709 ] final -166.25 input   66.30 | X-H torsion
[ 10763 10752 10751 10750 ] final -151.00 input  -60.55 | X-H torsion
[ 11005 11000 10999 10996 ] final  -68.03 input  -57.11 | X-H torsion

> <Gold.Protein.ActiveResidues>
 VAL166  LYS551  ARG553  GLY616  TRP617  ASP618  TYR619  PRO620  LYS621  CYS622 
 ASP623  PHE694  ASN695  SER759  ASP760  ASP761  ALA762  ILE779  LEU786  VAL792 
 PHE793  MET794  SER795  GLU796  ALA797  LYS798  CYS799  TRP800  GLU811  SER814 

> <Gold.Protein.RotatedAtoms>
  151.2984  135.0762  159.9229 H   0  0  0  0  0  0  0  0  0  0  0  0  # atno 6907 bound_to 6896
  152.5302  133.9859  159.7838 H   0  0  0  0  0  0  0  0  0  0  0  0  # atno 6908 bound_to 6896
  151.0141  133.5886  159.2709 H   0  0  0  0  0  0  0  0  0  0  0  0  # atno 6909 bound_to 6896
  144.9872  140.7697  143.4576 H   0  0  0  0  0  0  0  0  0  0  0  0  # atno 7974 bound_to 7965
  154.4090  140.1241  156.4878 H   0  0  0  0  0  0  0  0  0  0  0  0  # atno 8008 bound_to 7997
  155.7021  140.3494  155.4918 H   0  0  0  0  0  0  0  0  0  0  0  0  # atno 8009 bound_to 7997
  155.9376  140.1081  157.1072 H   0  0  0  0  0  0  0  0  0  0  0  0  # atno 8010 bound_to 7997
  139.7513  143.8514  152.2587 H   0  0  0  0  0  0  0  0  0  0  0  0  # atno 10167 bound_to 10162
  156.6652  130.9062  151.3035 H   0  0  0  0  0  0  0  0  0  0  0  0  # atno 10718 bound_to 10713
  154.8085  135.3270  154.7369 H   0  0  0  0  0  0  0  0  0  0  0  0  # atno 10763 bound_to 10752
  153.8022  135.6902  153.4858 H   0  0  0  0  0  0  0  0  0  0  0  0  # atno 10764 bound_to 10752
  153.1846  135.4573  155.0018 H   0  0  0  0  0  0  0  0  0  0  0  0  # atno 10765 bound_to 10752
  141.1522  133.6732  156.6384 H   0  0  0  0  0  0  0  0  0  0  0  0  # atno 11005 bound_to 11000
  145.2337  139.2103  143.5029 LP  0  0  0  0  0  0  0  0  0  0  0  0  # atno 17320 bound_to 7965
  146.3423  140.2218  142.8591 LP  0  0  0  0  0  0  0  0  0  0  0  0  # atno 17321 bound_to 7965
  139.8493  144.7172  150.9233 LP  0  0  0  0  0  0  0  0  0  0  0  0  # atno 17342 bound_to 10162
  140.7798  143.3913  151.1305 LP  0  0  0  0  0  0  0  0  0  0  0  0  # atno 17343 bound_to 10162
  157.7096  130.9425  150.1045 LP  0  0  0  0  0  0  0  0  0  0  0  0  # atno 17370 bound_to 10713
  156.1981  130.3658  149.8823 LP  0  0  0  0  0  0  0  0  0  0  0  0  # atno 17371 bound_to 10713
  140.3412  134.7847  157.4399 LP  0  0  0  0  0  0  0  0  0  0  0  0  # atno 17394 bound_to 11000
  140.0936  134.5567  155.8420 LP  0  0  0  0  0  0  0  0  0  0  0  0  # atno 17395 bound_to 11000

$$$$
