AV-unprocessed.smi:1560|AV-procd|sdf|6276|dock6
  -GOLD-   22720 6473D 1   1.00000     0.00000
 Structure written by MMmdl.
 47 48  0  0  0  0  0  0  0  0  1 V2000
  145.7378  139.1923  156.3826 C   0  0  0  0  0  0  0  0  0  0  0  0
  145.7943  139.5863  154.8956 C   0  0  0  0  0  0  0  0  0  0  0  0
  146.9628  138.9534  154.0737 C   0  0  2  0  0  0  0  0  0  0  0  0
  146.7946  139.4591  152.6140 C   0  0  0  0  0  0  0  0  0  0  0  0
  146.7772  137.4033  154.0800 C   0  0  0  0  0  0  0  0  0  0  0  0
  145.5313  136.9901  153.4436 N   0  0  0  0  0  0  0  0  0  0  0  0
  145.0032  135.7562  153.4586 C   0  0  0  0  0  0  0  0  0  0  0  0
  145.5540  134.7993  154.0015 O   0  0  0  0  0  0  0  0  0  0  0  0
  143.6456  135.5496  152.7636 C   0  0  0  0  0  0  0  0  0  0  0  0
  143.6998  134.7057  151.5572 N   0  0  0  0  0  0  0  0  0  0  0  0
  143.0069  133.5040  151.5154 C   0  0  0  0  0  0  0  0  0  0  0  0
  143.0362  132.6627  150.4550 C   0  0  0  0  0  0  0  0  0  0  0  0
  143.8236  132.9924  149.2720 C   0  0  0  0  0  0  0  0  0  0  0  0
  143.9163  132.2948  148.2646 O   0  0  0  0  0  0  0  0  0  0  0  0
  144.5052  134.2097  149.3513 N   0  0  0  0  0  0  0  0  0  0  0  0
  144.4786  135.0820  150.4404 C   0  0  0  0  0  0  0  0  0  0  0  0
  145.1269  136.1271  150.4115 O   0  0  0  0  0  0  0  0  0  0  0  0
  148.2874  139.3626  154.6211 N   0  0  0  0  0  0  0  0  0  0  0  0
  148.5344  140.8091  154.6450 C   0  0  0  0  0  0  0  0  0  0  0  0
  149.8554  141.1561  155.3525 C   0  0  0  0  0  0  0  0  0  0  0  0
  150.9326  140.4773  154.7185 O   0  0  0  0  0  0  0  0  0  0  0  0
  150.7612  139.0650  154.7204 C   0  0  0  0  0  0  0  0  0  0  0  0
  149.4467  138.7010  154.0093 C   0  0  0  0  0  0  0  0  0  0  0  0
  145.0643  134.4795  148.5548 H   0  0  0  0  0  0  0  0  0  0  0  0
  144.8926  139.6760  156.8725 H   0  0  0  0  0  0  0  0  0  0  0  0
  146.6372  139.4964  156.9168 H   0  0  0  0  0  0  0  0  0  0  0  0
  145.6166  138.1170  156.5134 H   0  0  0  0  0  0  0  0  0  0  0  0
  144.8358  139.3509  154.4331 H   0  0  0  0  0  0  0  0  0  0  0  0
  145.8532  140.6743  154.8522 H   0  0  0  0  0  0  0  0  0  0  0  0
  145.7614  139.3910  152.2707 H   0  0  0  0  0  0  0  0  0  0  0  0
  147.3905  138.8776  151.9102 H   0  0  0  0  0  0  0  0  0  0  0  0
  147.0968  140.5017  152.5116 H   0  0  0  0  0  0  0  0  0  0  0  0
  147.5873  136.9067  153.5463 H   0  0  0  0  0  0  0  0  0  0  0  0
  146.7975  137.0235  155.1019 H   0  0  0  0  0  0  0  0  0  0  0  0
  145.0076  137.7140  152.9733 H   0  0  0  0  0  0  0  0  0  0  0  0
  142.9577  135.1146  153.4900 H   0  0  0  0  0  0  0  0  0  0  0  0
  143.2228  136.5270  152.5244 H   0  0  0  0  0  0  0  0  0  0  0  0
  142.4154  133.2158  152.3730 H   0  0  0  0  0  0  0  0  0  0  0  0
  142.4763  131.7391  150.4833 H   0  0  0  0  0  0  0  0  0  0  0  0
  148.5674  141.2051  153.6302 H   0  0  0  0  0  0  0  0  0  0  0  0
  147.7334  141.3327  155.1640 H   0  0  0  0  0  0  0  0  0  0  0  0
  150.0375  142.2301  155.3092 H   0  0  0  0  0  0  0  0  0  0  0  0
  149.8120  140.8803  156.4074 H   0  0  0  0  0  0  0  0  0  0  0  0
  151.6073  138.6044  154.2105 H   0  0  0  0  0  0  0  0  0  0  0  0
  150.7625  138.6909  155.7454 H   0  0  0  0  0  0  0  0  0  0  0  0
  149.3403  137.6182  154.0392 H   0  0  0  0  0  0  0  0  0  0  0  0
  149.5318  138.9814  152.9595 H   0  0  0  0  0  0  0  0  0  0  0  0
  1  2  1  0  0  0  0
  1 25  1  0  0  0  0
  1 26  1  0  0  0  0
  1 27  1  0  0  0  0
  2  3  1  0  0  0  0
  2 28  1  0  0  0  0
  2 29  1  0  0  0  0
  3  4  1  0  0  0  0
  3  5  1  0  0  0  0
  3 18  1  0  0  0  0
  4 30  1  0  0  0  0
  4 31  1  0  0  0  0
  4 32  1  0  0  0  0
  5  6  1  0  0  0  0
  5 33  1  0  0  0  0
  5 34  1  0  0  0  0
  6  7  1  0  0  0  0
  6 35  1  0  0  0  0
  7  8  2  0  0  0  0
  7  9  1  0  0  0  0
  9 10  1  0  0  0  0
  9 36  1  0  0  0  0
  9 37  1  0  0  0  0
 10 16  1  0  0  0  0
 10 11  1  0  0  0  0
 11 12  2  0  0  0  0
 11 38  1  0  0  0  0
 12 13  1  0  0  0  0
 12 39  1  0  0  0  0
 13 14  2  0  0  0  0
 13 15  1  0  0  0  0
 15 24  1  0  0  0  0
 15 16  1  0  0  0  0
 16 17  2  0  0  0  0
 18 23  1  0  0  0  0
 18 19  1  0  0  0  0
 19 20  1  0  0  0  0
 19 40  1  0  0  0  0
 19 41  1  0  0  0  0
 20 21  1  0  0  0  0
 20 42  1  0  0  0  0
 20 43  1  0  0  0  0
 21 22  1  0  0  0  0
 22 23  1  0  0  0  0
 22 44  1  0  0  0  0
 22 45  1  0  0  0  0
 23 46  1  0  0  0  0
 23 47  1  0  0  0  0
M  END
> <s_m_source_file>
AV-unprocessed.smi

> <i_m_source_file_index>
1560

> <i_lp_mmshare_version>
43012

> <i_f3d_flags>
0

> <s_epik_input>
W0NIMl0xW0NIMl1PW0NIMl1bQ0gyXU4xW0NAQF0oW0NIM10pKFtDSDJdW0NIM10pW0NIMl1bTkhdQyg9TylbQ0gyXW4yW2NIXVtjSF1jKD1PKVtuSF1jMj1P

> <s_epik_cmdline>
J2VwaWtfcHl0aG9uJywgJy1waCcsICc3LjAnLCAnLXRuJywgJzgnLCAnLW1hJywgJzIwMCcsICctbWV0YWxfYmluZGluZycsICctaW1hZScsICc8aW5maWxlLm1hZT4nLCAnLW9tYWUnLCAnPG91dGZpbGUubWFlPic=

> <r_lp_tautomer_probability>
0.999537

> <r_epik_Ionization_Penalty>
0.321965

> <r_epik_Ionization_Penalty_Charging>
0.00329831

> <r_epik_Ionization_Penalty_Neutral>
0.318667

> <r_epik_State_Penalty>
0.288097

> <r_epik_Charging_Adjusted_Penalty>
0.291396

> <i_epik_Tot_Q>
0

> <i_epik_Tot_abs_Q>
0

> <r_epik_Metal_State_Penalty>
0.654595

> <b_epik_Metal_Only>
0

> <s_lp_Force_Field>
OPLS_2005

> <r_lp_Energy>
43.0709

> <b_lp_Chiralities_Consistent>
1

> <s_lp_Variant>
AV-unprocessed.smi:1560-2

> <Gold.Version>
5.8.1

> <Gold.Id.Protein>
6NUR|6NUR_protein|mol2

> <Gold.PLP.Fitness>
43.0124

> <Gold.PLP.PLP>
-33.4593

> <Gold.PLP.part.hbond>
-3.0197

> <Gold.PLP.part.metal>
0.0000

> <Gold.PLP.part.buried>
-6.0474

> <Gold.PLP.part.nonpolar>
-26.4748

> <Gold.PLP.part.repulsive>
0.8404

> <Gold.PLP.ligand.clash>
0.0000

> <Gold.PLP.ligand.torsion>
0.1719

> <Gold.PLP.Chemscore.Hbond>
2.2639

> <Gold.PLP.Chemscore.CHOScore>
1.0000

> <Gold.PLP.Chemscore.Metal>
0.0000

> <Gold.Chemscore.Hbonds>
donor molecule, donor type, donor heavy atom, donor atom, acceptor molecule, acceptor atom, score
      L1  H    15    24       P1  7921  0.80
      P1  H  7989  7998       L1    21  0.81
      P1  H 10785 10796       L1    14  0.17
      L1  C    11    38       P1 10957  0.33

> <Gold.PLP.Chemscore.Internal.Correction>
0.1051

> <Gold.Rescore>
     Score         DG    S(hbond)    S(metal)    S(lipo)     H(rot)  DE(clash)    DE(int)     intcor
     12.94     -13.30       2.20        0.00      58.56       2.49       0.04       0.33       ----

> <Gold.Chemscore.Fitness>
12.9358

> <Gold.Chemscore.DG>
-13.3028

> <Gold.Chemscore.ZeroCoef>
-5.4800

> <Gold.Chemscore.Hbond>
2.1964

> <Gold.Chemscore.Metal>
0.0000

> <Gold.Chemscore.Lipo>
58.5589

> <Gold.Chemscore.Internal_Hbond>
0.0000

> <Gold.Chemscore.DEClash>
0.0414

> <Gold.Chemscore.DEInternal>
0.3256

> <Gold.Chemscore.Rot>
2.4862

> <Gold.Chemscore.Internal.Correction>
   9.000000E+99

> <Gold.Chemscore.Hbonds>
donor molecule, donor type, donor heavy atom, donor atom, acceptor molecule, acceptor atom, score
      L1  H    15    24       P1  7921  0.79
      P1  H  7989  7998       L1    21  0.59
      P1  H 10785 10796       L1    14  0.12

> <Gold.Chemscore.Hbond.Weighted>
-7.3360

> <Gold.Chemscore.Metal.Weighted>
-0.0000

> <Gold.Chemscore.Lipo.Weighted>
-6.8514

> <Gold.Chemscore.Internal_Hbond.Weighted>
0.0000

> <Gold.Chemscore.DEClash.Weighted>
0.0414

> <Gold.Chemscore.DEInternal.Weighted>
0.3256

> <Gold.Chemscore.Rot.Weighted>
6.3646

> <Gold.Chemscore.Internal.Correction.Weighted>
   9.000000E+99

> <Gold.Protein.RotatedTorsions>
[ 6907 6896 6895 6894 ] final  136.09 input  -60.11 | X-H torsion
[ 7974 7965 7964 7962 ] final   57.08 input  175.53 | X-H torsion
[ 8008 7997 7996 7995 ] final   35.13 input   59.86 | X-H torsion
[ 10167 10162 10161 10158 ] final  -34.66 input  -65.29 | X-H torsion
[ 10718 10713 10712 10709 ] final -112.48 input   66.30 | X-H torsion
[ 10763 10752 10751 10750 ] final  -72.59 input  -60.55 | X-H torsion
[ 11005 11000 10999 10996 ] final   66.16 input  -57.11 | X-H torsion

> <Gold.Protein.ActiveResidues>
 VAL166  LYS551  ARG553  GLY616  TRP617  ASP618  TYR619  PRO620  LYS621  CYS622 
 ASP623  PHE694  ASN695  SER759  ASP760  ASP761  ALA762  ILE779  LEU786  VAL792 
 PHE793  MET794  SER795  GLU796  ALA797  LYS798  CYS799  TRP800  GLU811  SER814 

> <Gold.Protein.RotatedAtoms>
  152.2932  133.5582  159.5570 H   0  0  0  0  0  0  0  0  0  0  0  0  # atno 6907 bound_to 6896
  150.7244  134.0399  159.3771 H   0  0  0  0  0  0  0  0  0  0  0  0  # atno 6908 bound_to 6896
  151.8303  135.0624  160.0487 H   0  0  0  0  0  0  0  0  0  0  0  0  # atno 6909 bound_to 6896
  145.9329  139.3823  143.0410 H   0  0  0  0  0  0  0  0  0  0  0  0  # atno 7974 bound_to 7965
  155.1661  140.3287  155.4401 H   0  0  0  0  0  0  0  0  0  0  0  0  # atno 8008 bound_to 7997
  156.2526  140.1951  156.6717 H   0  0  0  0  0  0  0  0  0  0  0  0  # atno 8009 bound_to 7997
  154.6370  140.0575  156.9787 H   0  0  0  0  0  0  0  0  0  0  0  0  # atno 8010 bound_to 7997
  140.7181  143.3532  151.2112 H   0  0  0  0  0  0  0  0  0  0  0  0  # atno 10167 bound_to 10162
  156.0708  130.5922  150.8514 H   0  0  0  0  0  0  0  0  0  0  0  0  # atno 10718 bound_to 10713
  154.4478  135.5925  153.6171 H   0  0  0  0  0  0  0  0  0  0  0  0  # atno 10763 bound_to 10752
  152.9811  135.6013  154.3642 H   0  0  0  0  0  0  0  0  0  0  0  0  # atno 10764 bound_to 10752
  154.3500  135.2841  155.2356 H   0  0  0  0  0  0  0  0  0  0  0  0  # atno 10765 bound_to 10752
  139.9849  134.6684  156.0194 H   0  0  0  0  0  0  0  0  0  0  0  0  # atno 11005 bound_to 11000
  145.8402  140.9585  143.0803 LP  0  0  0  0  0  0  0  0  0  0  0  0  # atno 17320 bound_to 7965
  144.6767  140.0274  143.7483 LP  0  0  0  0  0  0  0  0  0  0  0  0  # atno 17321 bound_to 7965
  139.7068  143.9442  152.2930 LP  0  0  0  0  0  0  0  0  0  0  0  0  # atno 17342 bound_to 10162
  139.9154  144.6831  150.8518 LP  0  0  0  0  0  0  0  0  0  0  0  0  # atno 17343 bound_to 10162
  157.5778  131.0946  150.9319 LP  0  0  0  0  0  0  0  0  0  0  0  0  # atno 17370 bound_to 10713
  156.9521  130.5424  149.5283 LP  0  0  0  0  0  0  0  0  0  0  0  0  # atno 17371 bound_to 10713
  141.1515  133.6548  156.4029 LP  0  0  0  0  0  0  0  0  0  0  0  0  # atno 17394 bound_to 11000
  140.5022  134.6474  157.5253 LP  0  0  0  0  0  0  0  0  0  0  0  0  # atno 17395 bound_to 11000

$$$$
