AV-unprocessed.smi:283|AV-procd|sdf|2133|dock8
  -GOLD-   2262021453D 1   1.00000     0.00000
 Structure written by MMmdl.
 48 51  0  0  0  0  0  0  0  0  1 V2000
  152.1200  139.4613  155.8677 C   0  0  0  0  0  0  0  0  0  0  0  0
  151.0036  140.4036  156.3375 C   0  0  2  0  0  0  0  0  0  0  0  0
  150.4356  141.1115  155.1912 N   0  0  0  0  0  0  0  0  0  0  0  0
  149.2963  140.6839  154.6019 C   0  0  0  0  0  0  0  0  0  0  0  0
  148.5861  141.4929  153.7730 N   0  0  0  0  0  0  0  0  0  0  0  0
  147.4611  141.0461  153.2075 C   0  0  0  0  0  0  0  0  0  0  0  0
  146.8805  139.8520  153.3375 N   0  0  0  0  0  0  0  0  0  0  0  0
  147.5860  139.0354  154.1725 C   0  0  0  0  0  0  0  0  0  0  0  0
  148.7968  139.3771  154.8378 C   0  0  0  0  0  0  0  0  0  0  0  0
  149.2349  138.3032  155.6011 N   0  0  0  0  0  0  0  0  0  0  0  0
  148.3313  137.3828  155.3975 C   0  0  0  0  0  0  0  0  0  0  0  0
  147.3019  137.7385  154.5544 N   0  0  0  0  0  0  0  0  0  0  0  0
  146.1288  136.9004  154.1568 C   0  0  2  0  0  0  0  0  0  0  0  0
  146.5979  135.7058  153.6092 O   0  0  0  0  0  0  0  0  0  0  0  0
  145.8126  135.3901  152.4710 C   0  0  2  0  0  0  0  0  0  0  0  0
  146.4342  134.2896  151.5848 C   0  0  0  0  0  0  0  0  0  0  0  0
  145.6048  133.8839  150.5164 O   0  0  0  0  0  0  0  0  0  0  0  0
  145.4007  136.7388  151.8609 C   0  0  2  0  0  0  0  0  0  0  0  0
  146.3692  137.2762  150.9826 O   0  0  0  0  0  0  0  0  0  0  0  0
  145.2757  137.6280  153.0954 C   0  0  1  0  0  0  0  0  0  0  0  0
  143.9214  137.6991  153.4960 O   0  0  0  0  0  0  0  0  0  0  0  0
  151.5099  141.3161  157.4571 C   0  0  0  0  0  0  0  0  0  0  0  0
  151.4007  142.7201  157.3244 C   0  0  0  0  0  0  0  0  0  0  0  0
  151.8654  143.5758  158.3406 C   0  0  0  0  0  0  0  0  0  0  0  0
  152.4523  143.0367  159.4993 C   0  0  0  0  0  0  0  0  0  0  0  0
  152.5760  141.6420  159.6375 C   0  0  0  0  0  0  0  0  0  0  0  0
  152.1110  140.7803  158.6239 C   0  0  0  0  0  0  0  0  0  0  0  0
  152.3009  139.0757  158.8426 Cl  0  0  0  0  0  0  0  0  0  0  0  0
  145.5979  136.7099  155.0908 H   0  0  0  0  0  0  0  0  0  0  0  0
  144.9010  134.9543  152.8848 H   0  0  0  0  0  0  0  0  0  0  0  0
  144.4659  136.6529  151.3052 H   0  0  0  0  0  0  0  0  0  0  0  0
  145.6401  138.6423  152.9214 H   0  0  0  0  0  0  0  0  0  0  0  0
  152.5006  138.8619  156.6953 H   0  0  0  0  0  0  0  0  0  0  0  0
  152.9584  140.0170  155.4464 H   0  0  0  0  0  0  0  0  0  0  0  0
  151.7583  138.7724  155.1037 H   0  0  0  0  0  0  0  0  0  0  0  0
  150.2017  139.7795  156.7306 H   0  0  0  0  0  0  0  0  0  0  0  0
  150.8626  141.9995  154.9704 H   0  0  0  0  0  0  0  0  0  0  0  0
  146.9528  141.7444  152.5593 H   0  0  0  0  0  0  0  0  0  0  0  0
  148.3882  136.4113  155.8665 H   0  0  0  0  0  0  0  0  0  0  0  0
  147.3870  134.6314  151.1797 H   0  0  0  0  0  0  0  0  0  0  0  0
  146.6478  133.4100  152.1925 H   0  0  0  0  0  0  0  0  0  0  0  0
  146.0524  134.0624  149.7034 H   0  0  0  0  0  0  0  0  0  0  0  0
  147.2244  136.9984  151.2740 H   0  0  0  0  0  0  0  0  0  0  0  0
  143.5944  138.5623  153.2939 H   0  0  0  0  0  0  0  0  0  0  0  0
  150.9579  143.1515  156.4388 H   0  0  0  0  0  0  0  0  0  0  0  0
  151.7726  144.6460  158.2298 H   0  0  0  0  0  0  0  0  0  0  0  0
  152.8104  143.6919  160.2796 H   0  0  0  0  0  0  0  0  0  0  0  0
  153.0320  141.2314  160.5265 H   0  0  0  0  0  0  0  0  0  0  0  0
  1  2  1  0  0  0  0
  1 33  1  0  0  0  0
  1 34  1  0  0  0  0
  1 35  1  0  0  0  0
  2  3  1  0  0  0  0
  2 22  1  0  0  0  0
  2 36  1  0  0  0  0
  3  4  1  0  0  0  0
  3 37  1  0  0  0  0
  4  9  1  0  0  0  0
  4  5  2  0  0  0  0
  5  6  1  0  0  0  0
  6  7  2  0  0  0  0
  6 38  1  0  0  0  0
  7  8  1  0  0  0  0
  8 12  1  0  0  0  0
  8  9  2  0  0  0  0
  9 10  1  0  0  0  0
 10 11  2  0  0  0  0
 11 12  1  0  0  0  0
 11 39  1  0  0  0  0
 12 13  1  0  0  0  0
 13 29  1  0  0  0  0
 13 20  1  0  0  0  0
 13 14  1  0  0  0  0
 14 15  1  0  0  0  0
 15 30  1  0  0  0  0
 15 16  1  0  0  0  0
 15 18  1  0  0  0  0
 16 17  1  0  0  0  0
 16 40  1  0  0  0  0
 16 41  1  0  0  0  0
 17 42  1  0  0  0  0
 18 31  1  0  0  0  0
 18 19  1  0  0  0  0
 18 20  1  0  0  0  0
 19 43  1  0  0  0  0
 20 32  1  0  0  0  0
 20 21  1  0  0  0  0
 21 44  1  0  0  0  0
 22 27  1  0  0  0  0
 22 23  2  0  0  0  0
 23 24  1  0  0  0  0
 23 45  1  0  0  0  0
 24 25  2  0  0  0  0
 24 46  1  0  0  0  0
 25 26  1  0  0  0  0
 25 47  1  0  0  0  0
 26 27  2  0  0  0  0
 26 48  1  0  0  0  0
 27 28  1  0  0  0  0
M  END
> <s_m_source_file>
AV-unprocessed.smi

> <i_m_source_file_index>
283

> <i_lp_mmshare_version>
43012

> <i_f3d_flags>
0

> <s_epik_input>
Q2xjMVtjSF1bY0hdW2NIXVtjSF1jMVtDQEhdKFtDSDNdKVtOSF1jKG5bY0hdbjIpYyhjMjMpbltjSF1uM1tDQEBIXTRPW0NASF0oW0NIMl1bT0hdKVtDQEBIXShbT0hdKVtDQEhdNFtPSF0=

> <s_epik_cmdline>
J2VwaWtfcHl0aG9uJywgJy1waCcsICc3LjAnLCAnLXRuJywgJzgnLCAnLW1hJywgJzIwMCcsICctbWV0YWxfYmluZGluZycsICctaW1hZScsICc8aW5maWxlLm1hZT4nLCAnLW9tYWUnLCAnPG91dGZpbGUubWFlPic=

> <r_lp_tautomer_probability>
1

> <r_epik_Ionization_Penalty>
0.000266407

> <r_epik_Ionization_Penalty_Charging>
0

> <r_epik_Ionization_Penalty_Neutral>
0.000266407

> <r_epik_State_Penalty>
-0

> <r_epik_Charging_Adjusted_Penalty>
0

> <i_epik_Tot_Q>
0

> <i_epik_Tot_abs_Q>
0

> <r_epik_Metal_State_Penalty>
-0

> <b_epik_Metal_Only>
0

> <s_epik_Chemistry_Notes>
This compound contains an acetal/aminal-like group ( X-CH(R)-Y where X, Y are N, S, or O) that may be acid/base labile, releasing an aldehyde.

> <s_lp_Force_Field>
OPLS_2005

> <r_lp_Energy>
46.8878

> <b_lp_Chiralities_Consistent>
1

> <s_lp_Variant>
AV-unprocessed.smi:283-9

> <Gold.Version>
5.8.1

> <Gold.Id.Protein>
6NUR|6NUR_protein|mol2

> <Gold.PLP.Fitness>
51.4082

> <Gold.PLP.PLP>
-41.3679

> <Gold.PLP.part.hbond>
-5.9780

> <Gold.PLP.part.metal>
0.0000

> <Gold.PLP.part.buried>
-4.1063

> <Gold.PLP.part.nonpolar>
-33.1200

> <Gold.PLP.part.repulsive>
3.3027

> <Gold.PLP.ligand.clash>
0.0000

> <Gold.PLP.ligand.torsion>
0.4200

> <Gold.PLP.Chemscore.Hbond>
3.6037

> <Gold.PLP.Chemscore.CHOScore>
0.0000

> <Gold.PLP.Chemscore.Metal>
0.0000

> <Gold.Chemscore.Hbonds>
donor molecule, donor type, donor heavy atom, donor atom, acceptor molecule, acceptor atom, score
      L1  H    17    42       P1  7921  0.56
      L1  H    19    43       P1  7948  1.00
      L1  H    21    44       P1 10175  0.96
      P1  H  8011  8017       L1     5  0.59

> <Gold.PLP.Chemscore.Internal.Correction>
0.0691

> <Gold.Rescore>
     Score         DG    S(hbond)    S(metal)    S(lipo)     H(rot)  DE(clash)    DE(int)     intcor
      9.16     -13.53       2.26        0.00      93.75       4.10       0.30       4.07       ----

> <Gold.Chemscore.Fitness>
9.1621

> <Gold.Chemscore.DG>
-13.5251

> <Gold.Chemscore.ZeroCoef>
-5.4800

> <Gold.Chemscore.Hbond>
2.2648

> <Gold.Chemscore.Metal>
0.0000

> <Gold.Chemscore.Lipo>
93.7498

> <Gold.Chemscore.Internal_Hbond>
0.0000

> <Gold.Chemscore.DEClash>
0.2956

> <Gold.Chemscore.DEInternal>
4.0674

> <Gold.Chemscore.Rot>
4.0968

> <Gold.Chemscore.Internal.Correction>
   9.000000E+99

> <Gold.Chemscore.Hbonds>
donor molecule, donor type, donor heavy atom, donor atom, acceptor molecule, acceptor atom, score
      L1  H    17    42       P1  7921  0.12
      L1  H    19    43       P1  7948  0.99
      L1  H    21    44       P1 10175  0.89
      P1  H  8011  8017       L1     5  0.37

> <Gold.Chemscore.Hbond.Weighted>
-7.5643

> <Gold.Chemscore.Metal.Weighted>
-0.0000

> <Gold.Chemscore.Lipo.Weighted>
-10.9687

> <Gold.Chemscore.Internal_Hbond.Weighted>
0.0000

> <Gold.Chemscore.DEClash.Weighted>
0.2956

> <Gold.Chemscore.DEInternal.Weighted>
4.0674

> <Gold.Chemscore.Rot.Weighted>
10.4879

> <Gold.Chemscore.Internal.Correction.Weighted>
   9.000000E+99

> <Gold.Protein.RotatedTorsions>
[ 6907 6896 6895 6894 ] final  -59.17 input  -60.11 | X-H torsion
[ 7974 7965 7964 7962 ] final -165.29 input  175.53 | X-H torsion
[ 8008 7997 7996 7995 ] final   83.64 input   59.86 | X-H torsion
[ 10167 10162 10161 10158 ] final -119.61 input  -65.29 | X-H torsion
[ 10718 10713 10712 10709 ] final   72.18 input   66.30 | X-H torsion
[ 10763 10752 10751 10750 ] final   64.77 input  -60.55 | X-H torsion
[ 11005 11000 10999 10996 ] final  -31.46 input  -57.11 | X-H torsion

> <Gold.Protein.ActiveResidues>
 VAL166  LYS551  ARG553  GLY616  TRP617  ASP618  TYR619  PRO620  LYS621  CYS622 
 ASP623  PHE694  ASN695  SER759  ASP760  ASP761  ALA762  ILE779  LEU786  VAL792 
 PHE793  MET794  SER795  GLU796  ALA797  LYS798  CYS799  TRP800  GLU811  SER814 

> <Gold.Protein.RotatedAtoms>
  150.7951  134.7004  159.6546 H   0  0  0  0  0  0  0  0  0  0  0  0  # atno 6907 bound_to 6896
  152.4062  134.6200  160.0058 H   0  0  0  0  0  0  0  0  0  0  0  0  # atno 6908 bound_to 6896
  151.6457  133.3286  159.3176 H   0  0  0  0  0  0  0  0  0  0  0  0  # atno 6909 bound_to 6896
  144.7274  140.2835  143.6232 H   0  0  0  0  0  0  0  0  0  0  0  0  # atno 7974 bound_to 7965
  155.9266  140.3417  155.6215 H   0  0  0  0  0  0  0  0  0  0  0  0  # atno 8008 bound_to 7997
  155.7208  140.0783  157.2350 H   0  0  0  0  0  0  0  0  0  0  0  0  # atno 8009 bound_to 7997
  154.4078  140.1606  156.2387 H   0  0  0  0  0  0  0  0  0  0  0  0  # atno 8010 bound_to 7997
  140.0448  143.5118  152.2112 H   0  0  0  0  0  0  0  0  0  0  0  0  # atno 10167 bound_to 10162
  157.6488  130.9565  150.0892 H   0  0  0  0  0  0  0  0  0  0  0  0  # atno 10718 bound_to 10713
  153.0069  135.5381  154.6562 H   0  0  0  0  0  0  0  0  0  0  0  0  # atno 10763 bound_to 10752
  154.5782  135.2847  155.0761 H   0  0  0  0  0  0  0  0  0  0  0  0  # atno 10764 bound_to 10752
  154.1901  135.6501  153.5110 H   0  0  0  0  0  0  0  0  0  0  0  0  # atno 10765 bound_to 10752
  140.9470  133.7244  156.1162 H   0  0  0  0  0  0  0  0  0  0  0  0  # atno 11005 bound_to 11000
  145.7926  139.1933  143.2094 LP  0  0  0  0  0  0  0  0  0  0  0  0  # atno 17320 bound_to 7965
  146.0743  140.7834  142.9672 LP  0  0  0  0  0  0  0  0  0  0  0  0  # atno 17321 bound_to 7965
  139.5991  144.7577  151.3215 LP  0  0  0  0  0  0  0  0  0  0  0  0  # atno 17342 bound_to 10162
  140.7244  143.7046  150.7818 LP  0  0  0  0  0  0  0  0  0  0  0  0  # atno 17343 bound_to 10162
  156.1846  130.3651  149.8990 LP  0  0  0  0  0  0  0  0  0  0  0  0  # atno 17370 bound_to 10713
  156.6933  130.8904  151.3591 LP  0  0  0  0  0  0  0  0  0  0  0  0  # atno 17371 bound_to 10713
  140.7655  134.3891  157.5517 LP  0  0  0  0  0  0  0  0  0  0  0  0  # atno 17394 bound_to 11000
  139.8836  134.8989  156.2755 LP  0  0  0  0  0  0  0  0  0  0  0  0  # atno 17395 bound_to 11000

$$$$
