AV-unprocessed.smi:1845|AV-procd|sdf|7512|dock2
  -GOLD-   22720 9223D 1   1.00000     0.00000
 Structure written by MMmdl.
 45 46  0  0  0  0  0  0  0  0  1 V2000
  151.2470  130.3840  156.3694 C   0  0  0  0  0  0  0  0  0  0  0  0
  150.7645  131.9214  157.2588 S   0  0  0  0  0  0  0  0  0  0  0  0
  149.4592  131.6922  157.8959 O   0  0  0  0  0  0  0  0  0  0  0  0
  151.9091  132.3883  158.0559 O   0  0  0  0  0  0  0  0  0  0  0  0
  150.5186  133.0517  155.9795 N   0  0  0  0  0  0  0  0  0  0  0  0
  150.1966  134.4501  156.2791 C   0  0  0  0  0  0  0  0  0  0  0  0
  150.2968  135.3482  155.0299 C   0  0  0  0  0  0  0  0  0  0  0  0
  149.8168  136.7805  155.2836 C   0  0  0  0  0  0  0  0  0  0  0  0
  149.7797  137.2255  156.4309 O   0  0  0  0  0  0  0  0  0  0  0  0
  149.4388  137.4828  154.2041 N   0  0  0  0  0  0  0  0  0  0  0  0
  148.8370  138.8123  154.2244 C   0  0  0  0  0  0  0  0  0  0  0  0
  149.5433  139.7525  155.1871 C   0  0  0  0  0  0  0  0  0  0  0  0
  148.8342  140.4107  156.2110 C   0  0  0  0  0  0  0  0  0  0  0  0
  149.5363  141.2525  157.0952 C   0  0  0  0  0  0  0  0  0  0  0  0
  150.9329  141.4154  156.9321 C   0  0  0  0  0  0  0  0  0  0  0  0
  151.6612  142.2397  157.8163 N   0  0  0  0  0  0  0  0  0  0  0  0
  151.6981  141.7990  159.2083 C   0  0  0  0  0  0  0  0  0  0  0  0
  152.7579  142.5926  159.9923 C   0  0  0  0  0  0  0  0  0  0  0  0
  152.5140  143.9889  159.8576 O   0  0  0  0  0  0  0  0  0  0  0  0
  152.5984  144.4119  158.5012 C   0  0  0  0  0  0  0  0  0  0  0  0
  151.5277  143.6881  157.6684 C   0  0  0  0  0  0  0  0  0  0  0  0
  151.6093  140.7845  155.9411 N   0  0  0  0  0  0  0  0  0  0  0  0
  150.9308  139.9848  155.0934 C   0  0  0  0  0  0  0  0  0  0  0  0
  151.4178  129.5877  157.0937 H   0  0  0  0  0  0  0  0  0  0  0  0
  152.1598  130.5500  155.7988 H   0  0  0  0  0  0  0  0  0  0  0  0
  150.4443  130.0873  155.6953 H   0  0  0  0  0  0  0  0  0  0  0  0
  151.1498  132.9185  155.1889 H   0  0  0  0  0  0  0  0  0  0  0  0
  149.1908  134.4955  156.6971 H   0  0  0  0  0  0  0  0  0  0  0  0
  150.8723  134.8199  157.0506 H   0  0  0  0  0  0  0  0  0  0  0  0
  151.3298  135.3837  154.6815 H   0  0  0  0  0  0  0  0  0  0  0  0
  149.7171  134.9080  154.2173 H   0  0  0  0  0  0  0  0  0  0  0  0
  149.5222  137.0387  153.3008 H   0  0  0  0  0  0  0  0  0  0  0  0
  148.8324  139.2573  153.2282 H   0  0  0  0  0  0  0  0  0  0  0  0
  147.7916  138.7062  154.5154 H   0  0  0  0  0  0  0  0  0  0  0  0
  147.7702  140.2668  156.3285 H   0  0  0  0  0  0  0  0  0  0  0  0
  149.0027  141.7433  157.8954 H   0  0  0  0  0  0  0  0  0  0  0  0
  150.7138  141.9535  159.6519 H   0  0  0  0  0  0  0  0  0  0  0  0
  151.9189  140.7357  159.2894 H   0  0  0  0  0  0  0  0  0  0  0  0
  152.7204  142.3263  161.0487 H   0  0  0  0  0  0  0  0  0  0  0  0
  153.7620  142.3523  159.6395 H   0  0  0  0  0  0  0  0  0  0  0  0
  152.4454  145.4900  158.4546 H   0  0  0  0  0  0  0  0  0  0  0  0
  153.5971  144.2148  158.1081 H   0  0  0  0  0  0  0  0  0  0  0  0
  151.6319  143.9723  156.6205 H   0  0  0  0  0  0  0  0  0  0  0  0
  150.5324  143.9943  157.9929 H   0  0  0  0  0  0  0  0  0  0  0  0
  151.5199  139.5119  154.3225 H   0  0  0  0  0  0  0  0  0  0  0  0
  1  2  1  0  0  0  0
  1 24  1  0  0  0  0
  1 25  1  0  0  0  0
  1 26  1  0  0  0  0
  2  3  2  0  0  0  0
  2  4  2  0  0  0  0
  2  5  1  0  0  0  0
  5  6  1  0  0  0  0
  5 27  1  0  0  0  0
  6  7  1  0  0  0  0
  6 28  1  0  0  0  0
  6 29  1  0  0  0  0
  7  8  1  0  0  0  0
  7 30  1  0  0  0  0
  7 31  1  0  0  0  0
  8  9  2  0  0  0  0
  8 10  1  0  0  0  0
 10 11  1  0  0  0  0
 10 32  1  0  0  0  0
 11 12  1  0  0  0  0
 11 33  1  0  0  0  0
 11 34  1  0  0  0  0
 12 23  1  0  0  0  0
 12 13  2  0  0  0  0
 13 14  1  0  0  0  0
 13 35  1  0  0  0  0
 14 15  2  0  0  0  0
 14 36  1  0  0  0  0
 15 16  1  0  0  0  0
 15 22  1  0  0  0  0
 16 21  1  0  0  0  0
 16 17  1  0  0  0  0
 17 18  1  0  0  0  0
 17 37  1  0  0  0  0
 17 38  1  0  0  0  0
 18 19  1  0  0  0  0
 18 39  1  0  0  0  0
 18 40  1  0  0  0  0
 19 20  1  0  0  0  0
 20 21  1  0  0  0  0
 20 41  1  0  0  0  0
 20 42  1  0  0  0  0
 21 43  1  0  0  0  0
 21 44  1  0  0  0  0
 22 23  2  0  0  0  0
 23 45  1  0  0  0  0
M  END
> <s_m_source_file>
AV-unprocessed.smi

> <i_m_source_file_index>
1845

> <i_lp_mmshare_version>
43012

> <i_f3d_flags>
0

> <s_epik_input>
W0NIM11TKD1PKSg9TylbTkhdW0NIMl1bQ0gyXUMoPU8pW05IXVtDSDJdYzFbY0hdW2NIXWMobltjSF0xKU4yW0NIMl1bQ0gyXU9bQ0gyXVtDSDJdMg==

> <s_epik_cmdline>
J2VwaWtfcHl0aG9uJywgJy1waCcsICc3LjAnLCAnLXRuJywgJzgnLCAnLW1hJywgJzIwMCcsICctbWV0YWxfYmluZGluZycsICctaW1hZScsICc8aW5maWxlLm1hZT4nLCAnLW9tYWUnLCAnPG91dGZpbGUubWFlPic=

> <r_lp_tautomer_probability>
1

> <r_epik_Ionization_Penalty>
0.00479915

> <r_epik_Ionization_Penalty_Charging>
0

> <r_epik_Ionization_Penalty_Neutral>
0.00479915

> <r_epik_State_Penalty>
0.00346804

> <r_epik_Charging_Adjusted_Penalty>
0.00346804

> <i_epik_Tot_Q>
0

> <i_epik_Tot_abs_Q>
0

> <r_epik_Metal_State_Penalty>
0.0135183

> <b_epik_Metal_Only>
0

> <s_lp_Force_Field>
OPLS_2005

> <r_lp_Energy>
4.60417

> <b_lp_Chiralities_Consistent>
1

> <s_lp_Variant>
AV-unprocessed.smi:1845-1

> <Gold.Version>
5.8.1

> <Gold.Id.Protein>
6NUR|6NUR_protein|mol2

> <Gold.PLP.Fitness>
40.5065

> <Gold.PLP.PLP>
-35.3963

> <Gold.PLP.part.hbond>
-2.7932

> <Gold.PLP.part.metal>
0.0000

> <Gold.PLP.part.buried>
-1.1441

> <Gold.PLP.part.nonpolar>
-31.6550

> <Gold.PLP.part.repulsive>
0.0953

> <Gold.PLP.ligand.clash>
0.0000

> <Gold.PLP.ligand.torsion>
0.7238

> <Gold.PLP.Chemscore.Hbond>
2.0000

> <Gold.PLP.Chemscore.CHOScore>
0.0000

> <Gold.PLP.Chemscore.Metal>
0.0000

> <Gold.Chemscore.Hbonds>
donor molecule, donor type, donor heavy atom, donor atom, acceptor molecule, acceptor atom, score
      L1  H    10    32       P1  7948  1.00
      P1  H  6896  6909       L1     4  1.00

> <Gold.PLP.Chemscore.Internal.Correction>
0.5577

> <Gold.Rescore>
     Score         DG    S(hbond)    S(metal)    S(lipo)     H(rot)  DE(clash)    DE(int)     intcor
     11.78     -14.25       1.98        0.00      81.96       2.90       0.35       2.12       ----

> <Gold.Chemscore.Fitness>
11.7783

> <Gold.Chemscore.DG>
-14.2453

> <Gold.Chemscore.ZeroCoef>
-5.4800

> <Gold.Chemscore.Hbond>
1.9773

> <Gold.Chemscore.Metal>
0.0000

> <Gold.Chemscore.Lipo>
81.9572

> <Gold.Chemscore.Internal_Hbond>
0.0000

> <Gold.Chemscore.DEClash>
0.3498

> <Gold.Chemscore.DEInternal>
2.1171

> <Gold.Chemscore.Rot>
2.9015

> <Gold.Chemscore.Internal.Correction>
   9.000000E+99

> <Gold.Chemscore.Hbonds>
donor molecule, donor type, donor heavy atom, donor atom, acceptor molecule, acceptor atom, score
      L1  H    10    32       P1  7948  0.81
      P1  H  6896  6909       L1     4  0.85

> <Gold.Chemscore.Hbond.Weighted>
-6.6041

> <Gold.Chemscore.Metal.Weighted>
-0.0000

> <Gold.Chemscore.Lipo.Weighted>
-9.5890

> <Gold.Chemscore.Internal_Hbond.Weighted>
0.0000

> <Gold.Chemscore.DEClash.Weighted>
0.3498

> <Gold.Chemscore.DEInternal.Weighted>
2.1171

> <Gold.Chemscore.Rot.Weighted>
7.4278

> <Gold.Chemscore.Internal.Correction.Weighted>
   9.000000E+99

> <Gold.Protein.RotatedTorsions>
[ 6907 6896 6895 6894 ] final  -51.27 input  -60.11 | X-H torsion
[ 7974 7965 7964 7962 ] final   29.99 input  175.53 | X-H torsion
[ 8008 7997 7996 7995 ] final  160.63 input   59.86 | X-H torsion
[ 10167 10162 10161 10158 ] final   38.45 input  -65.29 | X-H torsion
[ 10718 10713 10712 10709 ] final  -21.77 input   66.30 | X-H torsion
[ 10763 10752 10751 10750 ] final   93.43 input  -60.55 | X-H torsion
[ 11005 11000 10999 10996 ] final -130.99 input  -57.11 | X-H torsion

> <Gold.Protein.ActiveResidues>
 VAL166  LYS551  ARG553  GLY616  TRP617  ASP618  TYR619  PRO620  LYS621  CYS622 
 ASP623  PHE694  ASN695  SER759  ASP760  ASP761  ALA762  ILE779  LEU786  VAL792 
 PHE793  MET794  SER795  GLU796  ALA797  LYS798  CYS799  TRP800  GLU811  SER814 

> <Gold.Protein.RotatedAtoms>
  150.8627  134.7983  159.7094 H   0  0  0  0  0  0  0  0  0  0  0  0  # atno 6907 bound_to 6896
  152.4659  134.5073  159.9753 H   0  0  0  0  0  0  0  0  0  0  0  0  # atno 6908 bound_to 6896
  151.5174  133.3434  159.2931 H   0  0  0  0  0  0  0  0  0  0  0  0  # atno 6909 bound_to 6896
  146.1638  139.6847  142.9015 H   0  0  0  0  0  0  0  0  0  0  0  0  # atno 7974 bound_to 7965
  156.2159  140.1799  156.7590 H   0  0  0  0  0  0  0  0  0  0  0  0  # atno 8008 bound_to 7997
  154.5791  140.0669  156.9106 H   0  0  0  0  0  0  0  0  0  0  0  0  # atno 8009 bound_to 7997
  155.2535  140.3330  155.4282 H   0  0  0  0  0  0  0  0  0  0  0  0  # atno 8010 bound_to 7997
  140.3935  144.1820  150.6131 H   0  0  0  0  0  0  0  0  0  0  0  0  # atno 10167 bound_to 10162
  156.5136  130.4616  149.6635 H   0  0  0  0  0  0  0  0  0  0  0  0  # atno 10718 bound_to 10713
  153.2302  135.4326  155.0587 H   0  0  0  0  0  0  0  0  0  0  0  0  # atno 10763 bound_to 10752
  154.8293  135.3377  154.6798 H   0  0  0  0  0  0  0  0  0  0  0  0  # atno 10764 bound_to 10752
  153.7226  135.7016  153.5065 H   0  0  0  0  0  0  0  0  0  0  0  0  # atno 10765 bound_to 10752
  140.9298  134.1335  157.4244 H   0  0  0  0  0  0  0  0  0  0  0  0  # atno 11005 bound_to 11000
  145.4519  141.0429  143.2799 LP  0  0  0  0  0  0  0  0  0  0  0  0  # atno 17320 bound_to 7965
  144.8064  139.6043  143.7049 LP  0  0  0  0  0  0  0  0  0  0  0  0  # atno 17321 bound_to 7965
  140.4815  143.2377  151.8948 LP  0  0  0  0  0  0  0  0  0  0  0  0  # atno 17342 bound_to 10162
  139.4788  144.5264  151.8729 LP  0  0  0  0  0  0  0  0  0  0  0  0  # atno 17343 bound_to 10162
  156.3217  130.7284  151.2197 LP  0  0  0  0  0  0  0  0  0  0  0  0  # atno 17370 bound_to 10713
  157.7447  131.0454  150.4841 LP  0  0  0  0  0  0  0  0  0  0  0  0  # atno 17371 bound_to 10713
  139.8793  135.0001  156.5991 LP  0  0  0  0  0  0  0  0  0  0  0  0  # atno 17394 bound_to 11000
  140.7878  133.8607  155.8620 LP  0  0  0  0  0  0  0  0  0  0  0  0  # atno 17395 bound_to 11000

$$$$
