AV-unprocessed.smi:618|AV-procd|sdf|3084|dock5
  -GOLD-   22720 0 03D 1   1.00000     0.00000
 Structure written by MMmdl.
 40 42  0  0  0  0  0  0  0  0  1 V2000
  145.7481  138.6972  153.9013 O   0  0  0  0  0  0  0  0  0  0  0  0
  146.6452  138.0613  153.3480 C   0  0  0  0  0  0  0  0  0  0  0  0
  146.4318  136.9375  152.6502 N   0  0  0  0  0  0  0  0  0  0  0  0
  145.1282  136.3153  152.4448 C   0  0  0  0  0  0  0  0  0  0  0  0
  145.0853  134.8777  153.0061 C   0  0  2  0  0  0  0  0  0  0  0  0
  146.0379  133.9150  152.2584 C   0  0  0  0  0  0  0  0  0  0  0  0
  145.4917  133.5544  150.9632 N   0  0  0  0  0  0  0  0  0  0  0  0
  146.2330  132.5824  150.1935 C   0  0  0  0  0  0  0  0  0  0  0  0
  145.2374  132.1033  149.1227 C   0  0  0  0  0  0  0  0  0  0  0  0
  143.8508  132.4730  149.6940 C   0  0  0  0  0  0  0  0  0  0  0  0
  144.1849  132.9719  151.1012 C   0  0  2  0  0  0  0  0  0  0  0  0
  143.2127  133.9678  151.7467 C   0  0  0  0  0  0  0  0  0  0  0  0
  143.7451  134.3587  153.0164 O   0  0  0  0  0  0  0  0  0  0  0  0
  147.9453  138.4015  153.3377 N   0  0  0  0  0  0  0  0  0  0  0  0
  148.5701  139.5000  153.9869 C   0  0  0  0  0  0  0  0  0  0  0  0
  147.8140  140.6736  154.1857 C   0  0  0  0  0  0  0  0  0  0  0  0
  148.4190  141.7812  154.8096 C   0  0  0  0  0  0  0  0  0  0  0  0
  149.7673  141.6749  155.2022 C   0  0  0  0  0  0  0  0  0  0  0  0
  150.5104  140.5658  155.0048 N   0  0  0  0  0  0  0  0  0  0  0  0
  149.9229  139.5060  154.4085 C   0  0  0  0  0  0  0  0  0  0  0  0
  147.2246  136.4837  152.2206 H   0  0  0  0  0  0  0  0  0  0  0  0
  144.3725  136.9409  152.9190 H   0  0  0  0  0  0  0  0  0  0  0  0
  144.8867  136.3091  151.3806 H   0  0  0  0  0  0  0  0  0  0  0  0
  145.4116  134.9180  154.0459 H   0  0  0  0  0  0  0  0  0  0  0  0
  147.0228  134.3677  152.1399 H   0  0  0  0  0  0  0  0  0  0  0  0
  146.1791  133.0146  152.8582 H   0  0  0  0  0  0  0  0  0  0  0  0
  147.1373  133.0142  149.7641 H   0  0  0  0  0  0  0  0  0  0  0  0
  146.5257  131.7439  150.8277 H   0  0  0  0  0  0  0  0  0  0  0  0
  145.4060  132.6145  148.1742 H   0  0  0  0  0  0  0  0  0  0  0  0
  145.3351  131.0314  148.9480 H   0  0  0  0  0  0  0  0  0  0  0  0
  143.3998  133.2683  149.0987 H   0  0  0  0  0  0  0  0  0  0  0  0
  143.1623  131.6277  149.7093 H   0  0  0  0  0  0  0  0  0  0  0  0
  144.2560  132.0989  151.7535 H   0  0  0  0  0  0  0  0  0  0  0  0
  143.0627  134.8417  151.1118 H   0  0  0  0  0  0  0  0  0  0  0  0
  142.2356  133.5083  151.8949 H   0  0  0  0  0  0  0  0  0  0  0  0
  148.5494  137.8372  152.7582 H   0  0  0  0  0  0  0  0  0  0  0  0
  146.7824  140.7258  153.8694 H   0  0  0  0  0  0  0  0  0  0  0  0
  147.8640  142.6915  154.9822 H   0  0  0  0  0  0  0  0  0  0  0  0
  150.2639  142.5049  155.6828 H   0  0  0  0  0  0  0  0  0  0  0  0
  150.5721  138.6583  154.2528 H   0  0  0  0  0  0  0  0  0  0  0  0
  1  2  2  0  0  0  0
  2  3  1  0  0  0  0
  2 14  1  0  0  0  0
  3  4  1  0  0  0  0
  3 21  1  0  0  0  0
  4  5  1  0  0  0  0
  4 22  1  0  0  0  0
  4 23  1  0  0  0  0
  5 13  1  0  0  0  0
  5  6  1  0  0  0  0
  5 24  1  0  0  0  0
  6  7  1  0  0  0  0
  6 25  1  0  0  0  0
  6 26  1  0  0  0  0
  7 11  1  0  0  0  0
  7  8  1  0  0  0  0
  8  9  1  0  0  0  0
  8 27  1  0  0  0  0
  8 28  1  0  0  0  0
  9 10  1  0  0  0  0
  9 29  1  0  0  0  0
  9 30  1  0  0  0  0
 10 11  1  0  0  0  0
 10 31  1  0  0  0  0
 10 32  1  0  0  0  0
 11 12  1  0  0  0  0
 11 33  1  0  0  0  0
 12 13  1  0  0  0  0
 12 34  1  0  0  0  0
 12 35  1  0  0  0  0
 14 15  1  0  0  0  0
 14 36  1  0  0  0  0
 15 20  1  0  0  0  0
 15 16  2  0  0  0  0
 16 17  1  0  0  0  0
 16 37  1  0  0  0  0
 17 18  2  0  0  0  0
 17 38  1  0  0  0  0
 18 19  1  0  0  0  0
 18 39  1  0  0  0  0
 19 20  2  0  0  0  0
 20 40  1  0  0  0  0
M  END
> <s_m_source_file>
AV-unprocessed.smi

> <i_m_source_file_index>
618

> <i_lp_mmshare_version>
43012

> <i_f3d_flags>
0

> <s_epik_input>
W2NIXTFuW2NIXVtjSF1bY0hdYzFbTkhdQyg9TylbTkhdW0NIMl1bQ0BIXShbQ0gyXTIpT1tDSDJdW0NAQEhdKE4yMylbQ0gyXVtDSDJdW0NIMl0z

> <s_epik_cmdline>
J2VwaWtfcHl0aG9uJywgJy1waCcsICc3LjAnLCAnLXRuJywgJzgnLCAnLW1hJywgJzIwMCcsICctbWV0YWxfYmluZGluZycsICctaW1hZScsICc8aW5maWxlLm1hZT4nLCAnLW9tYWUnLCAnPG91dGZpbGUubWFlPic=

> <r_epik_Ionization_Penalty>
1.07277

> <r_epik_Ionization_Penalty_Charging>
0

> <r_epik_Ionization_Penalty_Neutral>
1.07277

> <r_epik_State_Penalty>
1.13623

> <r_epik_Charging_Adjusted_Penalty>
1.13623

> <i_epik_Tot_Q>
0

> <i_epik_Tot_abs_Q>
0

> <r_epik_Metal_State_Penalty>
1.13277

> <b_epik_Metal_Only>
0

> <s_lp_Force_Field>
OPLS_2005

> <r_lp_Energy>
52.4513

> <b_lp_Chiralities_Consistent>
1

> <s_lp_Variant>
AV-unprocessed.smi:618-11

> <Gold.Version>
5.8.1

> <Gold.Id.Protein>
6NUR|6NUR_protein|mol2

> <Gold.PLP.Fitness>
42.2358

> <Gold.PLP.PLP>
-33.1464

> <Gold.PLP.part.hbond>
-3.5219

> <Gold.PLP.part.metal>
0.0000

> <Gold.PLP.part.buried>
-0.7668

> <Gold.PLP.part.nonpolar>
-29.1396

> <Gold.PLP.part.repulsive>
0.8686

> <Gold.PLP.ligand.clash>
0.0000

> <Gold.PLP.ligand.torsion>
0.2073

> <Gold.PLP.Chemscore.Hbond>
2.6344

> <Gold.PLP.Chemscore.CHOScore>
0.5310

> <Gold.PLP.Chemscore.Metal>
0.0000

> <Gold.Chemscore.Hbonds>
donor molecule, donor type, donor heavy atom, donor atom, acceptor molecule, acceptor atom, score
      L1  H     3    21       P1  7948  1.00
      L1  H    14    36       P1  7948  1.00
      P1  H  7989  7998       L1    19  0.59
      L1  C    18    39       P1  8028  0.55

> <Gold.PLP.Chemscore.Internal.Correction>
0.0077

> <Gold.Rescore>
     Score         DG    S(hbond)    S(metal)    S(lipo)     H(rot)  DE(clash)    DE(int)     intcor
     17.97     -19.49       1.97        0.00      90.92       1.25       0.03       1.50       ----

> <Gold.Chemscore.Fitness>
17.9694

> <Gold.Chemscore.DG>
-19.4916

> <Gold.Chemscore.ZeroCoef>
-5.4800

> <Gold.Chemscore.Hbond>
1.9653

> <Gold.Chemscore.Metal>
0.0000

> <Gold.Chemscore.Lipo>
90.9185

> <Gold.Chemscore.Internal_Hbond>
0.0000

> <Gold.Chemscore.DEClash>
0.0257

> <Gold.Chemscore.DEInternal>
1.4964

> <Gold.Chemscore.Rot>
1.2461

> <Gold.Chemscore.Internal.Correction>
   9.000000E+99

> <Gold.Chemscore.Hbonds>
donor molecule, donor type, donor heavy atom, donor atom, acceptor molecule, acceptor atom, score
      L1  H     3    21       P1  7948  0.99
      L1  H    14    36       P1  7948  0.97
      P1  H  7989  7998       L1    19  0.02

> <Gold.Chemscore.Hbond.Weighted>
-6.5642

> <Gold.Chemscore.Metal.Weighted>
-0.0000

> <Gold.Chemscore.Lipo.Weighted>
-10.6375

> <Gold.Chemscore.Internal_Hbond.Weighted>
0.0000

> <Gold.Chemscore.DEClash.Weighted>
0.0257

> <Gold.Chemscore.DEInternal.Weighted>
1.4964

> <Gold.Chemscore.Rot.Weighted>
3.1901

> <Gold.Chemscore.Internal.Correction.Weighted>
   9.000000E+99

> <Gold.Protein.RotatedTorsions>
[ 6907 6896 6895 6894 ] final  127.88 input  -60.11 | X-H torsion
[ 7974 7965 7964 7962 ] final  140.34 input  175.53 | X-H torsion
[ 8008 7997 7996 7995 ] final   21.11 input   59.86 | X-H torsion
[ 10167 10162 10161 10158 ] final  -77.07 input  -65.29 | X-H torsion
[ 10718 10713 10712 10709 ] final  -39.26 input   66.30 | X-H torsion
[ 10763 10752 10751 10750 ] final   63.79 input  -60.55 | X-H torsion
[ 11005 11000 10999 10996 ] final  -53.98 input  -57.11 | X-H torsion

> <Gold.Protein.ActiveResidues>
 VAL166  LYS551  ARG553  GLY616  TRP617  ASP618  TYR619  PRO620  LYS621  CYS622 
 ASP623  PHE694  ASN695  SER759  ASP760  ASP761  ALA762  ILE779  LEU786  VAL792 
 PHE793  MET794  SER795  GLU796  ALA797  LYS798  CYS799  TRP800  GLU811  SER814 

> <Gold.Protein.RotatedAtoms>
  152.3771  133.6496  159.6131 H   0  0  0  0  0  0  0  0  0  0  0  0  # atno 6907 bound_to 6896
  150.7712  133.9175  159.3397 H   0  0  0  0  0  0  0  0  0  0  0  0  # atno 6908 bound_to 6896
  151.6987  135.0935  160.0298 H   0  0  0  0  0  0  0  0  0  0  0  0  # atno 6909 bound_to 6896
  144.9195  139.5186  143.5670 H   0  0  0  0  0  0  0  0  0  0  0  0  # atno 7974 bound_to 7965
  154.9456  140.3059  155.5099 H   0  0  0  0  0  0  0  0  0  0  0  0  # atno 8008 bound_to 7997
  156.2992  140.2328  156.4467 H   0  0  0  0  0  0  0  0  0  0  0  0  # atno 8009 bound_to 7997
  154.8103  140.0429  157.1326 H   0  0  0  0  0  0  0  0  0  0  0  0  # atno 8010 bound_to 7997
  140.4802  143.2404  151.8070 H   0  0  0  0  0  0  0  0  0  0  0  0  # atno 10167 bound_to 10162
  156.2944  130.4232  149.8205 H   0  0  0  0  0  0  0  0  0  0  0  0  # atno 10718 bound_to 10713
  153.0031  135.5416  154.6407 H   0  0  0  0  0  0  0  0  0  0  0  0  # atno 10763 bound_to 10752
  154.5663  135.2838  155.0873 H   0  0  0  0  0  0  0  0  0  0  0  0  # atno 10764 bound_to 10752
  154.2056  135.6476  153.5152 H   0  0  0  0  0  0  0  0  0  0  0  0  # atno 10765 bound_to 10752
  141.1003  133.6619  156.4253 H   0  0  0  0  0  0  0  0  0  0  0  0  # atno 11005 bound_to 11000
  146.3198  139.8064  142.8955 LP  0  0  0  0  0  0  0  0  0  0  0  0  # atno 17320 bound_to 7965
  145.3319  141.0268  143.3441 LP  0  0  0  0  0  0  0  0  0  0  0  0  # atno 17321 bound_to 7965
  139.4832  144.4782  151.9340 LP  0  0  0  0  0  0  0  0  0  0  0  0  # atno 17342 bound_to 10162
  140.3867  144.2667  150.5903 LP  0  0  0  0  0  0  0  0  0  0  0  0  # atno 17343 bound_to 10162
  156.5607  130.8382  151.3327 LP  0  0  0  0  0  0  0  0  0  0  0  0  # atno 17370 bound_to 10713
  157.7351  130.9757  150.2065 LP  0  0  0  0  0  0  0  0  0  0  0  0  # atno 17371 bound_to 10713
  140.5038  134.6460  157.5258 LP  0  0  0  0  0  0  0  0  0  0  0  0  # atno 17394 bound_to 11000
  139.9853  134.7072  155.9786 LP  0  0  0  0  0  0  0  0  0  0  0  0  # atno 17395 bound_to 11000

$$$$
