AV-unprocessed.smi:3141|AV-procd|sdf|11962|dock1
  -GOLD-   2272017363D 1   1.00000     0.00000
 Structure written by MMmdl.
 36 38  0  0  0  0  0  0  0  0  2 V2000
  150.9825  142.1596  158.4114 O   0  0  0  0  0  0  0  0  0  0  0  0
  151.0589  142.7843  157.3527 C   0  0  0  0  0  0  0  0  0  0  0  0
  151.6130  143.9974  157.2308 N   0  0  0  0  0  0  0  0  0  0  0  0
  152.1992  144.7477  158.2936 C   0  0  0  0  0  0  0  0  0  0  0  0
  152.7476  143.9807  159.4772 C   0  0  0  0  0  0  0  0  0  0  0  0
  151.4736  144.7671  159.6216 C   0  0  0  0  0  0  0  0  0  0  0  0
  150.5913  142.3303  156.1814 N   0  0  0  0  0  0  0  0  0  0  0  0
  149.9369  141.0387  155.9928 C   0  0  2  0  0  0  0  0  0  0  0  0
  150.8578  139.8896  156.4475 C   0  0  0  0  0  0  0  0  0  0  0  0
  151.2255  139.1051  155.1853 C   0  0  0  0  0  0  0  0  0  0  0  0
  150.0370  139.3085  154.2510 C   0  0  0  0  0  0  0  0  0  0  0  0
  149.6299  140.7647  154.5004 C   0  0  1  0  0  0  0  0  0  0  0  0
  148.2451  141.0689  154.1091 N   0  0  0  0  0  0  0  0  0  0  0  0
  147.6260  142.2917  154.1670 C   0  0  0  0  0  0  0  0  0  0  0  0
  146.3435  142.1050  153.7201 C   0  0  0  0  0  0  0  0  0  0  0  0
  146.2324  140.7776  153.4055 N   0  3  0  0  0  0  0  0  0  0  0  0
  147.3886  140.1497  153.6407 C   0  0  0  0  0  0  0  0  0  0  0  0
  151.6258  144.4239  156.3158 H   0  0  0  0  0  0  0  0  0  0  0  0
  152.7319  145.6598  158.0272 H   0  0  0  0  0  0  0  0  0  0  0  0
  152.6686  142.8952  159.4620 H   0  0  0  0  0  0  0  0  0  0  0  0
  153.6389  144.3756  159.9606 H   0  0  0  0  0  0  0  0  0  0  0  0
  151.5137  145.6879  160.1998 H   0  0  0  0  0  0  0  0  0  0  0  0
  150.5442  144.2060  159.7034 H   0  0  0  0  0  0  0  0  0  0  0  0
  150.6981  142.9137  155.3641 H   0  0  0  0  0  0  0  0  0  0  0  0
  149.0315  141.0069  156.6018 H   0  0  0  0  0  0  0  0  0  0  0  0
  151.7445  140.2309  156.9840 H   0  0  0  0  0  0  0  0  0  0  0  0
  150.3076  139.2380  157.1276 H   0  0  0  0  0  0  0  0  0  0  0  0
  152.1225  139.5328  154.7355 H   0  0  0  0  0  0  0  0  0  0  0  0
  151.4251  138.0527  155.3892 H   0  0  0  0  0  0  0  0  0  0  0  0
  150.2877  139.1165  153.2073 H   0  0  0  0  0  0  0  0  0  0  0  0
  149.2365  138.6234  154.5327 H   0  0  0  0  0  0  0  0  0  0  0  0
  150.2794  141.3890  153.8829 H   0  0  0  0  0  0  0  0  0  0  0  0
  148.1289  143.1807  154.5189 H   0  0  0  0  0  0  0  0  0  0  0  0
  145.5229  142.7986  153.6072 H   0  0  0  0  0  0  0  0  0  0  0  0
  147.5883  139.1038  153.4886 H   0  0  0  0  0  0  0  0  0  0  0  0
  145.3957  140.3322  153.0501 H   0  0  0  0  0  0  0  0  0  0  0  0
  1  2  2  0  0  0  0
  2  3  1  0  0  0  0
  2  7  1  0  0  0  0
  3  4  1  0  0  0  0
  3 18  1  0  0  0  0
  4  6  1  0  0  0  0
  4  5  1  0  0  0  0
  4 19  1  0  0  0  0
  5  6  1  0  0  0  0
  5 20  1  0  0  0  0
  5 21  1  0  0  0  0
  6 22  1  0  0  0  0
  6 23  1  0  0  0  0
  7  8  1  0  0  0  0
  7 24  1  0  0  0  0
  8 12  1  0  0  0  0
  8  9  1  0  0  0  0
  8 25  1  0  0  0  0
  9 10  1  0  0  0  0
  9 26  1  0  0  0  0
  9 27  1  0  0  0  0
 10 11  1  0  0  0  0
 10 28  1  0  0  0  0
 10 29  1  0  0  0  0
 11 12  1  0  0  0  0
 11 30  1  0  0  0  0
 11 31  1  0  0  0  0
 12 13  1  0  0  0  0
 12 32  1  0  0  0  0
 13 17  1  0  0  0  0
 13 14  1  0  0  0  0
 14 15  2  0  0  0  0
 14 33  1  0  0  0  0
 15 16  1  0  0  0  0
 15 34  1  0  0  0  0
 16 17  2  0  0  0  0
 16 36  1  0  0  0  0
 17 35  1  0  0  0  0
M  CHG  1  16   1
M  END
> <s_m_source_file>
AV-unprocessed.smi

> <i_m_source_file_index>
3141

> <i_lp_mmshare_version>
43012

> <i_f3d_flags>
0

> <s_epik_input>
W0NIMl0xW0NIMl1bQ0hdMVtOSF1DKD1PKVtOSF1bQ0BASF0yW0NIMl1bQ0gyXVtDSDJdW0NASF0ybjNbY0hdW2NIXW5bY0hdMw==

> <s_epik_cmdline>
J2VwaWtfcHl0aG9uJywgJy1waCcsICc3LjAnLCAnLXRuJywgJzgnLCAnLW1hJywgJzIwMCcsICctbWV0YWxfYmluZGluZycsICctaW1hZScsICc8aW5maWxlLm1hZT4nLCAnLW9tYWUnLCAnPG91dGZpbGUubWFlPic=

> <r_lp_tautomer_probability>
1

> <r_epik_Ionization_Penalty>
0.205063

> <r_epik_Ionization_Penalty_Charging>
0

> <r_epik_Ionization_Penalty_Neutral>
0.205063

> <r_epik_State_Penalty>
0.194948

> <r_epik_Charging_Adjusted_Penalty>
0.194948

> <i_epik_Tot_Q>
1

> <i_epik_Tot_abs_Q>
1

> <r_epik_Metal_State_Penalty>
0.500882

> <b_epik_Metal_Only>
0

> <s_lp_Force_Field>
OPLS_2005

> <r_lp_Energy>
34.6624

> <b_lp_Chiralities_Consistent>
1

> <s_lp_Variant>
AV-unprocessed.smi:3141-1

> <Gold.Version>
5.8.1

> <Gold.Id.Protein>
6NUR|6NUR_protein|mol2

> <Gold.PLP.Fitness>
48.5550

> <Gold.PLP.PLP>
-40.4570

> <Gold.PLP.part.hbond>
-2.5108

> <Gold.PLP.part.metal>
0.0000

> <Gold.PLP.part.buried>
-2.3680

> <Gold.PLP.part.nonpolar>
-36.5929

> <Gold.PLP.part.repulsive>
0.1661

> <Gold.PLP.ligand.clash>
0.0000

> <Gold.PLP.ligand.torsion>
0.3272

> <Gold.PLP.Chemscore.Hbond>
1.9200

> <Gold.PLP.Chemscore.CHOScore>
0.9832

> <Gold.PLP.Chemscore.Metal>
0.0000

> <Gold.Chemscore.Hbonds>
donor molecule, donor type, donor heavy atom, donor atom, acceptor molecule, acceptor atom, score
      L1  H    16    36       P1 10175  1.95
      L1  C    14    33       P1  8028  0.98

> <Gold.PLP.Chemscore.Internal.Correction>
0.0428

> <Gold.Rescore>
     Score         DG    S(hbond)    S(metal)    S(lipo)     H(rot)  DE(clash)    DE(int)     intcor
     11.28     -14.35       0.96        0.00      83.65       1.61       0.05       3.02       ----

> <Gold.Chemscore.Fitness>
11.2830

> <Gold.Chemscore.DG>
-14.3544

> <Gold.Chemscore.ZeroCoef>
-5.4800

> <Gold.Chemscore.Hbond>
0.9600

> <Gold.Chemscore.Metal>
0.0000

> <Gold.Chemscore.Lipo>
83.6469

> <Gold.Chemscore.Internal_Hbond>
0.0000

> <Gold.Chemscore.DEClash>
0.0531

> <Gold.Chemscore.DEInternal>
3.0184

> <Gold.Chemscore.Rot>
1.6088

> <Gold.Chemscore.Internal.Correction>
   9.000000E+99

> <Gold.Chemscore.Hbonds>
donor molecule, donor type, donor heavy atom, donor atom, acceptor molecule, acceptor atom, score
      L1  H    16    36       P1 10175  0.89

> <Gold.Chemscore.Hbond.Weighted>
-3.2063

> <Gold.Chemscore.Metal.Weighted>
-0.0000

> <Gold.Chemscore.Lipo.Weighted>
-9.7867

> <Gold.Chemscore.Internal_Hbond.Weighted>
0.0000

> <Gold.Chemscore.DEClash.Weighted>
0.0531

> <Gold.Chemscore.DEInternal.Weighted>
3.0184

> <Gold.Chemscore.Rot.Weighted>
4.1186

> <Gold.Chemscore.Internal.Correction.Weighted>
   9.000000E+99

> <Gold.Protein.RotatedTorsions>
[ 6907 6896 6895 6894 ] final  166.17 input  -60.11 | X-H torsion
[ 7974 7965 7964 7962 ] final   33.74 input  175.53 | X-H torsion
[ 8008 7997 7996 7995 ] final -173.87 input   59.86 | X-H torsion
[ 10167 10162 10161 10158 ] final  128.40 input  -65.29 | X-H torsion
[ 10718 10713 10712 10709 ] final -138.00 input   66.30 | X-H torsion
[ 10763 10752 10751 10750 ] final -105.67 input  -60.55 | X-H torsion
[ 11005 11000 10999 10996 ] final   50.55 input  -57.11 | X-H torsion

> <Gold.Protein.ActiveResidues>
 VAL166  LYS551  ARG553  GLY616  TRP617  ASP618  TYR619  PRO620  LYS621  CYS622 
 ASP623  PHE694  ASN695  SER759  ASP760  ASP761  ALA762  ILE779  LEU786  VAL792 
 PHE793  MET794  SER795  GLU796  ALA797  LYS798  CYS799  TRP800  GLU811  SER814 

> <Gold.Protein.RotatedAtoms>
  151.8831  133.3499  159.3772 H   0  0  0  0  0  0  0  0  0  0  0  0  # atno 6907 bound_to 6896
  150.7122  134.4999  159.5565 H   0  0  0  0  0  0  0  0  0  0  0  0  # atno 6908 bound_to 6896
  152.2554  134.8090  160.0490 H   0  0  0  0  0  0  0  0  0  0  0  0  # atno 6909 bound_to 6896
  146.1400  139.6358  142.9169 H   0  0  0  0  0  0  0  0  0  0  0  0  # atno 7974 bound_to 7965
  155.9629  140.1148  157.0880 H   0  0  0  0  0  0  0  0  0  0  0  0  # atno 8008 bound_to 7997
  154.4136  140.1178  156.5270 H   0  0  0  0  0  0  0  0  0  0  0  0  # atno 8009 bound_to 7997
  155.6697  140.3473  155.4816 H   0  0  0  0  0  0  0  0  0  0  0  0  # atno 8010 bound_to 7997
  139.5529  144.6827  151.4270 H   0  0  0  0  0  0  0  0  0  0  0  0  # atno 10167 bound_to 10162
  156.2944  130.7393  151.1428 H   0  0  0  0  0  0  0  0  0  0  0  0  # atno 10718 bound_to 10713
  154.7962  135.4740  154.0166 H   0  0  0  0  0  0  0  0  0  0  0  0  # atno 10763 bound_to 10752
  153.1707  135.6824  153.8619 H   0  0  0  0  0  0  0  0  0  0  0  0  # atno 10764 bound_to 10752
  153.8203  135.3205  155.3387 H   0  0  0  0  0  0  0  0  0  0  0  0  # atno 10765 bound_to 10752
  140.1007  134.5085  155.8765 H   0  0  0  0  0  0  0  0  0  0  0  0  # atno 11005 bound_to 11000
  145.5068  141.0436  143.2510 LP  0  0  0  0  0  0  0  0  0  0  0  0  # atno 17320 bound_to 7965
  144.7782  139.6583  143.7166 LP  0  0  0  0  0  0  0  0  0  0  0  0  # atno 17321 bound_to 7965
  140.6795  143.8113  150.7103 LP  0  0  0  0  0  0  0  0  0  0  0  0  # atno 17342 bound_to 10162
  140.1562  143.4315  152.2098 LP  0  0  0  0  0  0  0  0  0  0  0  0  # atno 17343 bound_to 10162
  157.7351  131.0575  150.5487 LP  0  0  0  0  0  0  0  0  0  0  0  0  # atno 17370 bound_to 10713
  156.5607  130.4255  149.6064 LP  0  0  0  0  0  0  0  0  0  0  0  0  # atno 17371 bound_to 10713
  141.2105  133.6695  156.6513 LP  0  0  0  0  0  0  0  0  0  0  0  0  # atno 17394 bound_to 11000
  140.3223  134.7997  157.4262 LP  0  0  0  0  0  0  0  0  0  0  0  0  # atno 17395 bound_to 11000

$$$$
