AV-unprocessed.smi:988|AV-procd|sdf|4324|dock4
  -GOLD-   22720 2223D 1   1.00000     0.00000
 Structure written by MMmdl.
 28 28  0  0  0  0  0  0  0  0  1 V2000
  149.3686  124.4963  150.2292 C   0  0  0  0  0  0  0  0  0  0  0  0
  148.2762  125.1044  150.8946 O   0  0  0  0  0  0  0  0  0  0  0  0
  148.3914  126.5169  150.9554 C   0  0  0  0  0  0  0  0  0  0  0  0
  147.1020  127.1160  151.5358 C   0  0  0  0  0  0  0  0  0  0  0  0
  147.2771  128.5302  151.8444 N   0  0  0  0  0  0  0  0  0  0  0  0
  146.3347  129.3318  152.3642 C   0  0  0  0  0  0  0  0  0  0  0  0
  145.2248  128.9378  152.7215 O   0  0  0  0  0  0  0  0  0  0  0  0
  146.6919  130.8136  152.4778 C   0  0  0  0  0  0  0  0  0  0  0  0
  145.7031  131.6339  151.8002 N   0  0  0  0  0  0  0  0  0  0  0  0
  144.4895  131.2477  151.2690 C   0  0  0  0  0  0  0  0  0  0  0  0
  143.9158  132.3581  150.7195 C   0  0  0  0  0  0  0  0  0  0  0  0
  142.6718  132.4253  150.0641 N   0  0  0  0  0  0  0  0  0  0  0  0
  144.8643  133.3895  150.9694 C   0  0  0  0  0  0  0  0  0  0  0  0
  145.9333  132.9532  151.6164 N   0  0  0  0  0  0  0  0  0  0  0  0
  149.2347  123.4147  150.2193 H   0  0  0  0  0  0  0  0  0  0  0  0
  150.3105  124.7155  150.7336 H   0  0  0  0  0  0  0  0  0  0  0  0
  149.4368  124.8355  149.1948 H   0  0  0  0  0  0  0  0  0  0  0  0
  149.2391  126.7847  151.5879 H   0  0  0  0  0  0  0  0  0  0  0  0
  148.5832  126.9288  149.9629 H   0  0  0  0  0  0  0  0  0  0  0  0
  146.2616  126.9552  150.8584 H   0  0  0  0  0  0  0  0  0  0  0  0
  146.8509  126.6043  152.4652 H   0  0  0  0  0  0  0  0  0  0  0  0
  148.1585  128.9475  151.5824 H   0  0  0  0  0  0  0  0  0  0  0  0
  146.7325  131.1101  153.5267 H   0  0  0  0  0  0  0  0  0  0  0  0
  147.6797  130.9964  152.0515 H   0  0  0  0  0  0  0  0  0  0  0  0
  144.1448  130.2252  151.3228 H   0  0  0  0  0  0  0  0  0  0  0  0
  142.0849  131.6113  149.9486 H   0  0  0  0  0  0  0  0  0  0  0  0
  142.3152  133.2895  149.6817 H   0  0  0  0  0  0  0  0  0  0  0  0
  144.8093  134.4344  150.7017 H   0  0  0  0  0  0  0  0  0  0  0  0
  1  2  1  0  0  0  0
  1 15  1  0  0  0  0
  1 16  1  0  0  0  0
  1 17  1  0  0  0  0
  2  3  1  0  0  0  0
  3  4  1  0  0  0  0
  3 18  1  0  0  0  0
  3 19  1  0  0  0  0
  4  5  1  0  0  0  0
  4 20  1  0  0  0  0
  4 21  1  0  0  0  0
  5  6  1  0  0  0  0
  5 22  1  0  0  0  0
  6  7  2  0  0  0  0
  6  8  1  0  0  0  0
  8  9  1  0  0  0  0
  8 23  1  0  0  0  0
  8 24  1  0  0  0  0
  9 14  1  0  0  0  0
  9 10  1  0  0  0  0
 10 11  2  0  0  0  0
 10 25  1  0  0  0  0
 11 12  1  0  0  0  0
 11 13  1  0  0  0  0
 12 26  1  0  0  0  0
 12 27  1  0  0  0  0
 13 14  2  0  0  0  0
 13 28  1  0  0  0  0
M  END
> <s_m_source_file>
AV-unprocessed.smi

> <i_m_source_file_index>
988

> <i_lp_mmshare_version>
43012

> <i_f3d_flags>
0

> <s_epik_input>
W0NIM11PW0NIMl1bQ0gyXVtOSF1DKD1PKVtDSDJdbjFbY0hdYyhbTkgyXSlbY0hdbjE=

> <s_epik_cmdline>
J2VwaWtfcHl0aG9uJywgJy1waCcsICc3LjAnLCAnLXRuJywgJzgnLCAnLW1hJywgJzIwMCcsICctbWV0YWxfYmluZGluZycsICctaW1hZScsICc8aW5maWxlLm1hZT4nLCAnLW9tYWUnLCAnPG91dGZpbGUubWFlPic=

> <r_lp_tautomer_probability>
1

> <r_epik_Ionization_Penalty>
0.00010261

> <r_epik_Ionization_Penalty_Charging>
0

> <r_epik_Ionization_Penalty_Neutral>
0.00010261

> <r_epik_State_Penalty>
-0

> <r_epik_Charging_Adjusted_Penalty>
0

> <i_epik_Tot_Q>
0

> <i_epik_Tot_abs_Q>
0

> <r_epik_Metal_State_Penalty>
-0

> <b_epik_Metal_Only>
0

> <s_lp_Force_Field>
OPLS_2005

> <r_lp_Energy>
5.59493

> <b_lp_Chiralities_Consistent>
1

> <s_lp_Variant>
AV-unprocessed.smi:988-1

> <Gold.Version>
5.8.1

> <Gold.Id.Protein>
6NUR|6NUR_protein|mol2

> <Gold.PLP.Fitness>
38.4782

> <Gold.PLP.PLP>
-31.2102

> <Gold.PLP.part.hbond>
-3.0000

> <Gold.PLP.part.metal>
0.0000

> <Gold.PLP.part.buried>
-6.1714

> <Gold.PLP.part.nonpolar>
-22.6733

> <Gold.PLP.part.repulsive>
0.5653

> <Gold.PLP.ligand.clash>
0.0000

> <Gold.PLP.ligand.torsion>
0.1473

> <Gold.PLP.Chemscore.Hbond>
2.5168

> <Gold.PLP.Chemscore.CHOScore>
0.0000

> <Gold.PLP.Chemscore.Metal>
0.0000

> <Gold.Chemscore.Hbonds>
donor molecule, donor type, donor heavy atom, donor atom, acceptor molecule, acceptor atom, score
      L1  H     5    22       P1 10747  0.05
      L1  H    12    26       P1 10952  1.00
      L1  H    12    27       P1 10186  0.96

> <Gold.PLP.Chemscore.Internal.Correction>
0.0122

> <Gold.Rescore>
     Score         DG    S(hbond)    S(metal)    S(lipo)     H(rot)  DE(clash)    DE(int)     intcor
     11.60     -13.38       2.10        0.00      58.01       2.31       0.01       1.77       ----

> <Gold.Chemscore.Fitness>
11.5982

> <Gold.Chemscore.DG>
-13.3761

> <Gold.Chemscore.ZeroCoef>
-5.4800

> <Gold.Chemscore.Hbond>
2.1048

> <Gold.Chemscore.Metal>
0.0000

> <Gold.Chemscore.Lipo>
58.0109

> <Gold.Chemscore.Internal_Hbond>
0.0000

> <Gold.Chemscore.DEClash>
0.0126

> <Gold.Chemscore.DEInternal>
1.7653

> <Gold.Chemscore.Rot>
2.3129

> <Gold.Chemscore.Internal.Correction>
   9.000000E+99

> <Gold.Chemscore.Hbonds>
donor molecule, donor type, donor heavy atom, donor atom, acceptor molecule, acceptor atom, score
      L1  H     5    22       P1 10747  0.02
      L1  H    12    26       P1 10952  0.93
      L1  H    12    27       P1 10186  0.92

> <Gold.Chemscore.Hbond.Weighted>
-7.0300

> <Gold.Chemscore.Metal.Weighted>
-0.0000

> <Gold.Chemscore.Lipo.Weighted>
-6.7873

> <Gold.Chemscore.Internal_Hbond.Weighted>
0.0000

> <Gold.Chemscore.DEClash.Weighted>
0.0126

> <Gold.Chemscore.DEInternal.Weighted>
1.7653

> <Gold.Chemscore.Rot.Weighted>
5.9211

> <Gold.Chemscore.Internal.Correction.Weighted>
   9.000000E+99

> <Gold.Protein.RotatedTorsions>
[ 6907 6896 6895 6894 ] final -101.62 input  -60.11 | X-H torsion
[ 7974 7965 7964 7962 ] final  -98.55 input  175.53 | X-H torsion
[ 8008 7997 7996 7995 ] final  -84.37 input   59.86 | X-H torsion
[ 10167 10162 10161 10158 ] final  141.21 input  -65.29 | X-H torsion
[ 10718 10713 10712 10709 ] final -157.86 input   66.30 | X-H torsion
[ 10763 10752 10751 10750 ] final  -84.46 input  -60.55 | X-H torsion
[ 11005 11000 10999 10996 ] final  149.78 input  -57.11 | X-H torsion

> <Gold.Protein.ActiveResidues>
 VAL166  LYS551  ARG553  GLY616  TRP617  ASP618  TYR619  PRO620  LYS621  CYS622 
 ASP623  PHE694  ASN695  SER759  ASP760  ASP761  ALA762  ILE779  LEU786  VAL792 
 PHE793  MET794  SER795  GLU796  ALA797  LYS798  CYS799  TRP800  GLU811  SER814 

> <Gold.Protein.RotatedAtoms>
  150.7162  134.0706  159.3862 H   0  0  0  0  0  0  0  0  0  0  0  0  # atno 6907 bound_to 6896
  151.8689  135.0494  160.0486 H   0  0  0  0  0  0  0  0  0  0  0  0  # atno 6908 bound_to 6896
  152.2659  133.5303  159.5446 H   0  0  0  0  0  0  0  0  0  0  0  0  # atno 6909 bound_to 6896
  145.3192  140.9418  143.2725 H   0  0  0  0  0  0  0  0  0  0  0  0  # atno 7974 bound_to 7965
  154.6291  140.0606  156.9710 H   0  0  0  0  0  0  0  0  0  0  0  0  # atno 8008 bound_to 7997
  155.1694  140.3289  155.4377 H   0  0  0  0  0  0  0  0  0  0  0  0  # atno 8009 bound_to 7997
  156.2473  140.1917  156.6797 H   0  0  0  0  0  0  0  0  0  0  0  0  # atno 8010 bound_to 7997
  139.5027  144.6186  151.6106 H   0  0  0  0  0  0  0  0  0  0  0  0  # atno 10167 bound_to 10162
  156.5462  130.8585  151.2765 H   0  0  0  0  0  0  0  0  0  0  0  0  # atno 10718 bound_to 10713
  154.5997  135.5520  153.7362 H   0  0  0  0  0  0  0  0  0  0  0  0  # atno 10763 bound_to 10752
  153.0150  135.6363  154.1732 H   0  0  0  0  0  0  0  0  0  0  0  0  # atno 10764 bound_to 10752
  154.1672  135.2894  155.3071 H   0  0  0  0  0  0  0  0  0  0  0  0  # atno 10765 bound_to 10752
  140.1074  134.8945  157.1887 H   0  0  0  0  0  0  0  0  0  0  0  0  # atno 11005 bound_to 11000
  144.8953  139.4721  143.6658 LP  0  0  0  0  0  0  0  0  0  0  0  0  # atno 17320 bound_to 7965
  146.3089  139.7675  142.9035 LP  0  0  0  0  0  0  0  0  0  0  0  0  # atno 17321 bound_to 7965
  140.5881  143.9829  150.6308 LP  0  0  0  0  0  0  0  0  0  0  0  0  # atno 17342 bound_to 10162
  140.3000  143.3267  152.0981 LP  0  0  0  0  0  0  0  0  0  0  0  0  # atno 17343 bound_to 10162
  157.7396  130.9835  150.2325 LP  0  0  0  0  0  0  0  0  0  0  0  0  # atno 17370 bound_to 10713
  156.2926  130.3747  149.7826 LP  0  0  0  0  0  0  0  0  0  0  0  0  # atno 17371 bound_to 10713
  140.3137  134.2995  155.7261 LP  0  0  0  0  0  0  0  0  0  0  0  0  # atno 17394 bound_to 11000
  141.2122  133.7666  156.9812 LP  0  0  0  0  0  0  0  0  0  0  0  0  # atno 17395 bound_to 11000

$$$$
