AV-unprocessed.smi:2444|AV-procd|sdf|9632|dock3
  -GOLD-   2272013263D 1   1.00000     0.00000
 Structure written by MMmdl.
 18 18  0  0  0  0  0  0  0  0  2 V2000
  149.1344  138.7054  153.2691 N   0  3  0  0  0  0  0  0  0  0  0  0
  150.1026  138.9360  154.3546 C   0  0  0  0  0  0  0  0  0  0  0  0
  150.8988  137.6640  154.6751 C   0  0  0  0  0  0  0  0  0  0  0  0
  152.0254  137.9205  155.6193 C   0  0  0  0  0  0  0  0  0  0  0  0
  152.3402  139.0802  156.2074 N   0  0  0  0  0  0  0  0  0  0  0  0
  153.4162  138.8100  157.0268 N   0  0  0  0  0  0  0  0  0  0  0  0
  153.6465  137.5069  156.8745 C   0  0  0  0  0  0  0  0  0  0  0  0
  154.6081  136.7042  157.4634 N   0  0  0  0  0  0  0  0  0  0  0  0
  152.8059  136.8804  156.0156 O   0  0  0  0  0  0  0  0  0  0  0  0
  148.2055  138.9403  153.5895 H   0  0  0  0  0  0  0  0  0  0  0  0
  149.1589  137.7336  152.9945 H   0  0  0  0  0  0  0  0  0  0  0  0
  150.7769  139.7393  154.0554 H   0  0  0  0  0  0  0  0  0  0  0  0
  149.5637  139.2797  155.2382 H   0  0  0  0  0  0  0  0  0  0  0  0
  150.2442  136.9093  155.1130 H   0  0  0  0  0  0  0  0  0  0  0  0
  151.3061  137.2327  153.7596 H   0  0  0  0  0  0  0  0  0  0  0  0
  155.2766  137.0811  158.1198 H   0  0  0  0  0  0  0  0  0  0  0  0
  154.6984  135.7268  157.2266 H   0  0  0  0  0  0  0  0  0  0  0  0
  149.3717  139.2850  152.4766 H   0  0  0  0  0  0  0  0  0  0  0  0
  1  2  1  0  0  0  0
  1 10  1  0  0  0  0
  1 11  1  0  0  0  0
  1 18  1  0  0  0  0
  2  3  1  0  0  0  0
  2 12  1  0  0  0  0
  2 13  1  0  0  0  0
  3  4  1  0  0  0  0
  3 14  1  0  0  0  0
  3 15  1  0  0  0  0
  4  9  1  0  0  0  0
  4  5  2  0  0  0  0
  5  6  1  0  0  0  0
  6  7  2  0  0  0  0
  7  8  1  0  0  0  0
  7  9  1  0  0  0  0
  8 16  1  0  0  0  0
  8 17  1  0  0  0  0
M  CHG  1   1   1
M  END
> <s_m_source_file>
AV-unprocessed.smi

> <i_m_source_file_index>
2444

> <i_lp_mmshare_version>
43012

> <i_f3d_flags>
0

> <s_epik_input>
W05IMl1bQ0gyXVtDSDJdYzFubmMobzEpW05IMl0=

> <s_epik_cmdline>
J2VwaWtfcHl0aG9uJywgJy1waCcsICc3LjAnLCAnLXRuJywgJzgnLCAnLW1hJywgJzIwMCcsICctbWV0YWxfYmluZGluZycsICctaW1hZScsICc8aW5maWxlLm1hZT4nLCAnLW9tYWUnLCAnPG91dGZpbGUubWFlPic=

> <r_lp_tautomer_probability>
0.999976

> <r_epik_Ionization_Penalty>
0.00128557

> <r_epik_Ionization_Penalty_Charging>
0.00128552

> <r_epik_Ionization_Penalty_Neutral>
5.30568e-08

> <r_epik_State_Penalty>
0.000852301

> <r_epik_Charging_Adjusted_Penalty>
0.00213782

> <i_epik_Tot_Q>
1

> <i_epik_Tot_abs_Q>
1

> <r_epik_Metal_State_Penalty>
-0

> <b_epik_Metal_Only>
0

> <s_lp_Force_Field>
OPLS_2005

> <r_lp_Energy>
0.265405

> <b_lp_Chiralities_Consistent>
1

> <s_lp_Variant>
AV-unprocessed.smi:2444-1

> <Gold.Version>
5.8.1

> <Gold.Id.Protein>
6NUR|6NUR_protein|mol2

> <Gold.PLP.Fitness>
27.6809

> <Gold.PLP.PLP>
-13.4172

> <Gold.PLP.part.hbond>
-4.2577

> <Gold.PLP.part.metal>
0.0000

> <Gold.PLP.part.buried>
-3.3022

> <Gold.PLP.part.nonpolar>
-7.2795

> <Gold.PLP.part.repulsive>
0.2418

> <Gold.PLP.ligand.clash>
0.0000

> <Gold.PLP.ligand.torsion>
0.0241

> <Gold.PLP.Chemscore.Hbond>
4.7680

> <Gold.PLP.Chemscore.CHOScore>
0.0000

> <Gold.PLP.Chemscore.Metal>
0.0000

> <Gold.Chemscore.Hbonds>
donor molecule, donor type, donor heavy atom, donor atom, acceptor molecule, acceptor atom, score
      L1  H     1    11       P1  7948  2.00
      L1  H     1    18       P1  7957  0.99
      P1  H  7997  8008       L1     6  0.95
      P1  H 10752 10763       L1     9  0.77

> <Gold.PLP.Chemscore.Internal.Correction>
0.0080

> <Gold.Rescore>
     Score         DG    S(hbond)    S(metal)    S(lipo)     H(rot)  DE(clash)    DE(int)     intcor
     15.12     -15.17       3.69        0.00      14.00       1.67       0.00       0.05       ----

> <Gold.Chemscore.Fitness>
15.1236

> <Gold.Chemscore.DG>
-15.1715

> <Gold.Chemscore.ZeroCoef>
-5.4800

> <Gold.Chemscore.Hbond>
3.6949

> <Gold.Chemscore.Metal>
0.0000

> <Gold.Chemscore.Lipo>
13.9967

> <Gold.Chemscore.Internal_Hbond>
0.0000

> <Gold.Chemscore.DEClash>
0.0000

> <Gold.Chemscore.DEInternal>
0.0480

> <Gold.Chemscore.Rot>
1.6747

> <Gold.Chemscore.Internal.Correction>
   9.000000E+99

> <Gold.Chemscore.Hbonds>
donor molecule, donor type, donor heavy atom, donor atom, acceptor molecule, acceptor atom, score
      L1  H     1    11       P1  7948  0.98
      L1  H     1    18       P1  7957  0.92
      P1  H  7997  8008       L1     6  0.21
      P1  H 10752 10763       L1     9  0.77

> <Gold.Chemscore.Hbond.Weighted>
-12.3411

> <Gold.Chemscore.Metal.Weighted>
-0.0000

> <Gold.Chemscore.Lipo.Weighted>
-1.6376

> <Gold.Chemscore.Internal_Hbond.Weighted>
0.0000

> <Gold.Chemscore.DEClash.Weighted>
0.0000

> <Gold.Chemscore.DEInternal.Weighted>
0.0480

> <Gold.Chemscore.Rot.Weighted>
4.2872

> <Gold.Chemscore.Internal.Correction.Weighted>
   9.000000E+99

> <Gold.Protein.RotatedTorsions>
[ 6907 6896 6895 6894 ] final  174.61 input  -60.11 | X-H torsion
[ 7974 7965 7964 7962 ] final  -10.25 input  175.53 | X-H torsion
[ 8008 7997 7996 7995 ] final  -56.55 input   59.86 | X-H torsion
[ 10167 10162 10161 10158 ] final -124.32 input  -65.29 | X-H torsion
[ 10718 10713 10712 10709 ] final  -22.80 input   66.30 | X-H torsion
[ 10763 10752 10751 10750 ] final   92.93 input  -60.55 | X-H torsion
[ 11005 11000 10999 10996 ] final   36.52 input  -57.11 | X-H torsion

> <Gold.Protein.ActiveResidues>
 VAL166  LYS551  ARG553  GLY616  TRP617  ASP618  TYR619  PRO620  LYS621  CYS622 
 ASP623  PHE694  ASN695  SER759  ASP760  ASP761  ALA762  ILE779  LEU786  VAL792 
 PHE793  MET794  SER795  GLU796  ALA797  LYS798  CYS799  TRP800  GLU811  SER814 

> <Gold.Protein.RotatedAtoms>
  151.7495  133.3326  159.3387 H   0  0  0  0  0  0  0  0  0  0  0  0  # atno 6907 bound_to 6896
  150.7541  134.6205  159.6143 H   0  0  0  0  0  0  0  0  0  0  0  0  # atno 6908 bound_to 6896
  152.3478  134.7050  160.0297 H   0  0  0  0  0  0  0  0  0  0  0  0  # atno 6909 bound_to 6896
  146.2226  140.2737  142.8358 H   0  0  0  0  0  0  0  0  0  0  0  0  # atno 7974 bound_to 7965
  154.4234  140.1127  156.5655 H   0  0  0  0  0  0  0  0  0  0  0  0  # atno 8008 bound_to 7997
  155.6267  140.3495  155.4650 H   0  0  0  0  0  0  0  0  0  0  0  0  # atno 8009 bound_to 7997
  155.9981  140.1193  157.0563 H   0  0  0  0  0  0  0  0  0  0  0  0  # atno 8010 bound_to 7997
  139.9941  143.5610  152.2330 H   0  0  0  0  0  0  0  0  0  0  0  0  # atno 10167 bound_to 10162
  156.4996  130.4585  149.6708 H   0  0  0  0  0  0  0  0  0  0  0  0  # atno 10718 bound_to 10713
  153.2246  135.4344  155.0527 H   0  0  0  0  0  0  0  0  0  0  0  0  # atno 10763 bound_to 10752
  154.8267  135.3364  154.6877 H   0  0  0  0  0  0  0  0  0  0  0  0  # atno 10764 bound_to 10752
  153.7307  135.7011  153.5046 H   0  0  0  0  0  0  0  0  0  0  0  0  # atno 10765 bound_to 10752
  140.2317  134.3519  155.7961 H   0  0  0  0  0  0  0  0  0  0  0  0  # atno 11005 bound_to 11000
  144.9249  140.7910  143.5725 LP  0  0  0  0  0  0  0  0  0  0  0  0  # atno 17320 bound_to 7965
  145.2676  139.1967  143.4859 LP  0  0  0  0  0  0  0  0  0  0  0  0  # atno 17321 bound_to 7965
  139.6319  144.7645  151.2519 LP  0  0  0  0  0  0  0  0  0  0  0  0  # atno 17342 bound_to 10162
  140.7444  143.6465  150.8287 LP  0  0  0  0  0  0  0  0  0  0  0  0  # atno 17343 bound_to 10162
  156.3346  130.7349  151.2285 LP  0  0  0  0  0  0  0  0  0  0  0  0  # atno 17370 bound_to 10713
  157.7464  131.0420  150.4675 LP  0  0  0  0  0  0  0  0  0  0  0  0  # atno 17371 bound_to 10713
  141.2217  133.7249  156.8743 LP  0  0  0  0  0  0  0  0  0  0  0  0  # atno 17394 bound_to 11000
  140.1743  134.9078  157.2872 LP  0  0  0  0  0  0  0  0  0  0  0  0  # atno 17395 bound_to 11000

$$$$
