AV-unprocessed.smi:3148|AV-procd|sdf|11993|dock2
  -GOLD-   2272017403D 1   1.00000     0.00000
 Structure written by MMmdl.
 34 36  0  0  0  0  0  0  0  0  1 V2000
  154.6474  139.9469  161.4613 C   0  0  0  0  0  0  0  0  0  0  0  0
  154.2644  141.3160  161.3937 O   0  0  0  0  0  0  0  0  0  0  0  0
  153.4590  141.7142  160.3471 C   0  0  0  0  0  0  0  0  0  0  0  0
  153.0919  143.0703  160.2309 C   0  0  0  0  0  0  0  0  0  0  0  0
  152.2655  143.4053  159.1379 C   0  0  0  0  0  0  0  0  0  0  0  0
  151.7959  144.8256  158.9067 C   0  0  0  0  0  0  0  0  0  0  0  0
  151.8475  142.4768  158.2496 N   0  0  0  0  0  0  0  0  0  0  0  0
  152.2508  141.2206  158.4515 C   0  0  0  0  0  0  0  0  0  0  0  0
  151.7987  140.2951  157.5293 N   0  0  0  0  0  0  0  0  0  0  0  0
  151.5680  140.5872  156.1191 C   0  0  2  0  0  0  0  0  0  0  0  0
  150.5194  141.6786  155.8935 C   0  0  0  0  0  0  0  0  0  0  0  0
  149.5445  140.9834  154.9323 C   0  0  2  0  0  0  0  0  0  0  0  0
  148.6791  139.9466  155.6603 C   0  0  0  0  0  0  0  0  0  0  0  0
  149.6881  138.8306  155.9241 C   0  0  0  0  0  0  0  0  0  0  0  0
  150.9745  139.4138  155.3143 C   0  0  1  0  0  0  0  0  0  0  0  0
  150.4259  140.1302  154.2210 O   0  0  0  0  0  0  0  0  0  0  0  0
  153.0323  140.7920  159.4489 N   0  0  0  0  0  0  0  0  0  0  0  0
  155.2717  139.7902  162.3409 H   0  0  0  0  0  0  0  0  0  0  0  0
  155.2280  139.6509  160.5865 H   0  0  0  0  0  0  0  0  0  0  0  0
  153.7783  139.2935  161.5512 H   0  0  0  0  0  0  0  0  0  0  0  0
  153.4266  143.8092  160.9439 H   0  0  0  0  0  0  0  0  0  0  0  0
  152.2998  145.5206  159.5789 H   0  0  0  0  0  0  0  0  0  0  0  0
  150.7221  144.9005  159.0799 H   0  0  0  0  0  0  0  0  0  0  0  0
  152.0016  145.1343  157.8813 H   0  0  0  0  0  0  0  0  0  0  0  0
  151.8054  139.3268  157.8149 H   0  0  0  0  0  0  0  0  0  0  0  0
  152.5070  140.9030  155.6622 H   0  0  0  0  0  0  0  0  0  0  0  0
  150.0239  142.0103  156.8071 H   0  0  0  0  0  0  0  0  0  0  0  0
  150.9771  142.5491  155.4225 H   0  0  0  0  0  0  0  0  0  0  0  0
  148.9768  141.6701  154.3040 H   0  0  0  0  0  0  0  0  0  0  0  0
  148.2357  140.3426  156.5746 H   0  0  0  0  0  0  0  0  0  0  0  0
  147.8744  139.5899  155.0165 H   0  0  0  0  0  0  0  0  0  0  0  0
  149.7871  138.5865  156.9821 H   0  0  0  0  0  0  0  0  0  0  0  0
  149.3935  137.9226  155.3975 H   0  0  0  0  0  0  0  0  0  0  0  0
  151.7068  138.6588  155.0271 H   0  0  0  0  0  0  0  0  0  0  0  0
  1  2  1  0  0  0  0
  1 18  1  0  0  0  0
  1 19  1  0  0  0  0
  1 20  1  0  0  0  0
  2  3  1  0  0  0  0
  3 17  1  0  0  0  0
  3  4  2  0  0  0  0
  4  5  1  0  0  0  0
  4 21  1  0  0  0  0
  5  6  1  0  0  0  0
  5  7  2  0  0  0  0
  6 22  1  0  0  0  0
  6 23  1  0  0  0  0
  6 24  1  0  0  0  0
  7  8  1  0  0  0  0
  8  9  1  0  0  0  0
  8 17  2  0  0  0  0
  9 10  1  0  0  0  0
  9 25  1  0  0  0  0
 10 15  1  0  0  0  0
 10 11  1  0  0  0  0
 10 26  1  0  0  0  0
 11 12  1  0  0  0  0
 11 27  1  0  0  0  0
 11 28  1  0  0  0  0
 12 16  1  0  0  0  0
 12 13  1  0  0  0  0
 12 29  1  0  0  0  0
 13 14  1  0  0  0  0
 13 30  1  0  0  0  0
 13 31  1  0  0  0  0
 14 15  1  0  0  0  0
 14 32  1  0  0  0  0
 14 33  1  0  0  0  0
 15 16  1  0  0  0  0
 15 34  1  0  0  0  0
M  END
> <s_m_source_file>
AV-unprocessed.smi

> <i_m_source_file_index>
3148

> <i_lp_mmshare_version>
43012

> <i_f3d_flags>
0

> <s_epik_input>
W0NIM11PYzFbY0hdYyhbQ0gzXSluYyhuMSlbTkhdW0NASF0oW0NIMl1bQ0BASF0yMylbQ0BASF0oTzMpW0NIMl1bQ0gyXTI=

> <s_epik_cmdline>
J2VwaWtfcHl0aG9uJywgJy1waCcsICc3LjAnLCAnLXRuJywgJzgnLCAnLW1hJywgJzIwMCcsICctbWV0YWxfYmluZGluZycsICctaW1hZScsICc8aW5maWxlLm1hZT4nLCAnLW9tYWUnLCAnPG91dGZpbGUubWFlPic=

> <r_lp_tautomer_probability>
1

> <r_epik_Ionization_Penalty>
0.101645

> <r_epik_Ionization_Penalty_Charging>
0

> <r_epik_Ionization_Penalty_Neutral>
0.101645

> <r_epik_State_Penalty>
0.0916212

> <r_epik_Charging_Adjusted_Penalty>
0.0916212

> <i_epik_Tot_Q>
0

> <i_epik_Tot_abs_Q>
0

> <r_epik_Metal_State_Penalty>
0.0781

> <b_epik_Metal_Only>
0

> <s_lp_Force_Field>
OPLS_2005

> <r_lp_Energy>
31.5885

> <b_lp_Chiralities_Consistent>
1

> <s_lp_Variant>
AV-unprocessed.smi:3148-3

> <Gold.Version>
5.8.1

> <Gold.Id.Protein>
6NUR|6NUR_protein|mol2

> <Gold.PLP.Fitness>
37.9429

> <Gold.PLP.PLP>
-35.3994

> <Gold.PLP.part.hbond>
-1.6310

> <Gold.PLP.part.metal>
0.0000

> <Gold.PLP.part.buried>
-6.1197

> <Gold.PLP.part.nonpolar>
-28.7649

> <Gold.PLP.part.repulsive>
0.2285

> <Gold.PLP.ligand.clash>
0.0000

> <Gold.PLP.ligand.torsion>
0.2332

> <Gold.PLP.Chemscore.Hbond>
1.0000

> <Gold.PLP.Chemscore.CHOScore>
0.0000

> <Gold.PLP.Chemscore.Metal>
0.0000

> <Gold.Chemscore.Hbonds>
donor molecule, donor type, donor heavy atom, donor atom, acceptor molecule, acceptor atom, score
      P1  H  7989  7998       L1    16  1.00

> <Gold.PLP.Chemscore.Internal.Correction>
0.0100

> <Gold.Rescore>
     Score         DG    S(hbond)    S(metal)    S(lipo)     H(rot)  DE(clash)    DE(int)     intcor
     13.06     -14.56       0.89        0.00      78.87       1.22       0.00       1.50       ----

> <Gold.Chemscore.Fitness>
13.0574

> <Gold.Chemscore.DG>
-14.5616

> <Gold.Chemscore.ZeroCoef>
-5.4800

> <Gold.Chemscore.Hbond>
0.8936

> <Gold.Chemscore.Metal>
0.0000

> <Gold.Chemscore.Lipo>
78.8741

> <Gold.Chemscore.Internal_Hbond>
0.0000

> <Gold.Chemscore.DEClash>
0.0000

> <Gold.Chemscore.DEInternal>
1.5042

> <Gold.Chemscore.Rot>
1.2232

> <Gold.Chemscore.Internal.Correction>
   9.000000E+99

> <Gold.Chemscore.Hbonds>
donor molecule, donor type, donor heavy atom, donor atom, acceptor molecule, acceptor atom, score
      P1  H  7989  7998       L1    16  0.57

> <Gold.Chemscore.Hbond.Weighted>
-2.9847

> <Gold.Chemscore.Metal.Weighted>
-0.0000

> <Gold.Chemscore.Lipo.Weighted>
-9.2283

> <Gold.Chemscore.Internal_Hbond.Weighted>
0.0000

> <Gold.Chemscore.DEClash.Weighted>
0.0000

> <Gold.Chemscore.DEInternal.Weighted>
1.5042

> <Gold.Chemscore.Rot.Weighted>
3.1314

> <Gold.Chemscore.Internal.Correction.Weighted>
   9.000000E+99

> <Gold.Protein.RotatedTorsions>
[ 6907 6896 6895 6894 ] final   28.99 input  -60.11 | X-H torsion
[ 7974 7965 7964 7962 ] final   42.75 input  175.53 | X-H torsion
[ 8008 7997 7996 7995 ] final  173.22 input   59.86 | X-H torsion
[ 10167 10162 10161 10158 ] final   80.57 input  -65.29 | X-H torsion
[ 10718 10713 10712 10709 ] final -128.65 input   66.30 | X-H torsion
[ 10763 10752 10751 10750 ] final   84.03 input  -60.55 | X-H torsion
[ 11005 11000 10999 10996 ] final  -90.64 input  -57.11 | X-H torsion

> <Gold.Protein.ActiveResidues>
 VAL166  LYS551  ARG553  GLY616  TRP617  ASP618  TYR619  PRO620  LYS621  CYS622 
 ASP623  PHE694  ASN695  SER759  ASP760  ASP761  ALA762  ILE779  LEU786  VAL792 
 PHE793  MET794  SER795  GLU796  ALA797  LYS798  CYS799  TRP800  GLU811  SER814 

> <Gold.Protein.RotatedAtoms>
  152.0250  134.9801  160.0571 H   0  0  0  0  0  0  0  0  0  0  0  0  # atno 6907 bound_to 6896
  152.1300  133.4398  159.4725 H   0  0  0  0  0  0  0  0  0  0  0  0  # atno 6908 bound_to 6896
  150.6855  134.2350  159.4493 H   0  0  0  0  0  0  0  0  0  0  0  0  # atno 6909 bound_to 6896
  146.0714  139.5264  142.9595 H   0  0  0  0  0  0  0  0  0  0  0  0  # atno 7974 bound_to 7965
  156.1097  140.1466  156.9355 H   0  0  0  0  0  0  0  0  0  0  0  0  # atno 8008 bound_to 7997
  154.4758  140.0895  156.7302 H   0  0  0  0  0  0  0  0  0  0  0  0  # atno 8009 bound_to 7997
  155.4618  140.3438  155.4316 H   0  0  0  0  0  0  0  0  0  0  0  0  # atno 8010 bound_to 7997
  139.9483  144.6043  150.8185 H   0  0  0  0  0  0  0  0  0  0  0  0  # atno 10167 bound_to 10162
  156.1971  130.6833  151.0494 H   0  0  0  0  0  0  0  0  0  0  0  0  # atno 10718 bound_to 10713
  153.1345  135.4669  154.9400 H   0  0  0  0  0  0  0  0  0  0  0  0  # atno 10763 bound_to 10752
  154.7693  135.3154  154.8224 H   0  0  0  0  0  0  0  0  0  0  0  0  # atno 10764 bound_to 10752
  153.8760  135.6899  153.4824 H   0  0  0  0  0  0  0  0  0  0  0  0  # atno 10765 bound_to 10752
  141.1561  133.7705  156.9767 H   0  0  0  0  0  0  0  0  0  0  0  0  # atno 11005 bound_to 11000
  145.6385  141.0289  143.1824 LP  0  0  0  0  0  0  0  0  0  0  0  0  # atno 17320 bound_to 7965
  144.7234  139.7955  143.7374 LP  0  0  0  0  0  0  0  0  0  0  0  0  # atno 17321 bound_to 7965
  140.7590  143.3120  151.2822 LP  0  0  0  0  0  0  0  0  0  0  0  0  # atno 17342 bound_to 10162
  139.6649  144.0124  152.2716 LP  0  0  0  0  0  0  0  0  0  0  0  0  # atno 17343 bound_to 10162
  157.6964  131.0792  150.6956 LP  0  0  0  0  0  0  0  0  0  0  0  0  # atno 17370 bound_to 10713
  156.7013  130.4624  149.5572 LP  0  0  0  0  0  0  0  0  0  0  0  0  # atno 17371 bound_to 10713
  140.1093  134.9487  157.2042 LP  0  0  0  0  0  0  0  0  0  0  0  0  # atno 17394 bound_to 11000
  140.3214  134.2912  155.7245 LP  0  0  0  0  0  0  0  0  0  0  0  0  # atno 17395 bound_to 11000

$$$$
