AV-unprocessed.smi:227|AV-procd|sdf|1730|dock5
  -GOLD-   2262020223D 1   1.00000     0.00000
 Structure written by MMmdl.
 54 58  0  0  0  0  0  0  0  0  1 V2000
  153.6131  129.9992  155.3444 O   0  0  0  0  0  0  0  0  0  0  0  0
  152.3663  129.5152  154.8884 C   0  0  0  0  0  0  0  0  0  0  0  0
  151.2286  130.5277  155.1689 C   0  0  1  0  0  0  0  0  0  0  0  0
  149.8455  130.0227  154.6874 C   0  0  0  0  0  0  0  0  0  0  0  0
  149.0221  131.0743  154.1161 N   0  0  0  0  0  0  0  0  0  0  0  0
  149.2890  132.4228  154.1332 C   0  0  0  0  0  0  0  0  0  0  0  0
  148.3961  133.1711  153.5465 N   0  0  0  0  0  0  0  0  0  0  0  0
  147.4374  132.2742  153.0867 C   0  0  0  0  0  0  0  0  0  0  0  0
  146.2125  132.3975  152.3653 C   0  0  0  0  0  0  0  0  0  0  0  0
  145.6877  133.5770  151.9300 N   0  0  0  0  0  0  0  0  0  0  0  0
  145.6034  133.8836  150.5110 C   0  0  1  0  0  0  0  0  0  0  0  0
  144.4525  132.9926  150.0034 C   0  0  0  0  0  0  0  0  0  0  0  0
  143.5125  132.9963  151.2194 C   0  0  0  0  0  0  0  0  0  0  0  0
  144.2916  133.8988  152.2006 C   0  0  2  0  0  0  0  0  0  0  0  0
  144.1754  135.3632  151.7293 C   0  0  1  0  0  0  0  0  0  0  0  0
  144.5665  136.3714  152.8247 C   0  0  0  0  0  0  0  0  0  0  0  0
  144.6806  137.6681  152.2779 O   0  0  0  0  0  0  0  0  0  0  0  0
  145.1402  135.3500  150.5255 C   0  0  0  0  0  0  0  0  0  0  0  0
  145.5188  131.2531  152.1234 N   0  0  0  0  0  0  0  0  0  0  0  0
  145.9906  130.0713  152.5280 C   0  0  0  0  0  0  0  0  0  0  0  0
  147.1177  129.8073  153.1888 N   0  0  0  0  0  0  0  0  0  0  0  0
  147.8140  130.9489  153.4527 C   0  0  0  0  0  0  0  0  0  0  0  0
  151.1910  130.9701  156.6535 C   0  0  2  0  0  0  0  0  0  0  0  0
  150.4864  130.0043  157.5899 C   0  0  0  0  0  0  0  0  0  0  0  0
  150.2033  130.8841  158.8019 C   0  0  0  0  0  0  0  0  0  0  0  0
  149.9674  132.1864  158.2801 O   0  0  0  0  0  0  0  0  0  0  0  0
  150.3933  132.2511  156.9222 C   0  0  0  0  0  0  0  0  0  0  0  0
  153.6753  129.8423  156.2742 H   0  0  0  0  0  0  0  0  0  0  0  0
  152.4445  129.3043  153.8221 H   0  0  0  0  0  0  0  0  0  0  0  0
  152.1662  128.5567  155.3672 H   0  0  0  0  0  0  0  0  0  0  0  0
  151.4601  131.4151  154.5775 H   0  0  0  0  0  0  0  0  0  0  0  0
  149.9674  129.2310  153.9472 H   0  0  0  0  0  0  0  0  0  0  0  0
  149.2874  129.5843  155.5147 H   0  0  0  0  0  0  0  0  0  0  0  0
  150.1748  132.8352  154.5942 H   0  0  0  0  0  0  0  0  0  0  0  0
  146.5242  133.7635  149.9437 H   0  0  0  0  0  0  0  0  0  0  0  0
  143.9825  133.3864  149.1017 H   0  0  0  0  0  0  0  0  0  0  0  0
  144.8033  131.9819  149.7904 H   0  0  0  0  0  0  0  0  0  0  0  0
  142.5184  133.3797  150.9875 H   0  0  0  0  0  0  0  0  0  0  0  0
  143.3979  131.9875  151.6182 H   0  0  0  0  0  0  0  0  0  0  0  0
  143.9799  133.7689  153.2379 H   0  0  0  0  0  0  0  0  0  0  0  0
  143.1539  135.5745  151.4088 H   0  0  0  0  0  0  0  0  0  0  0  0
  143.8056  136.3939  153.6055 H   0  0  0  0  0  0  0  0  0  0  0  0
  145.5076  136.0932  153.3005 H   0  0  0  0  0  0  0  0  0  0  0  0
  144.2524  137.6771  151.4354 H   0  0  0  0  0  0  0  0  0  0  0  0
  145.9905  136.0138  150.6882 H   0  0  0  0  0  0  0  0  0  0  0  0
  144.6574  135.6481  149.5941 H   0  0  0  0  0  0  0  0  0  0  0  0
  145.3770  129.2154  152.2881 H   0  0  0  0  0  0  0  0  0  0  0  0
  152.2098  131.1137  157.0173 H   0  0  0  0  0  0  0  0  0  0  0  0
  149.5493  129.6590  157.1505 H   0  0  0  0  0  0  0  0  0  0  0  0
  151.0885  129.1312  157.8436 H   0  0  0  0  0  0  0  0  0  0  0  0
  149.3565  130.5284  159.3892 H   0  0  0  0  0  0  0  0  0  0  0  0
  151.0765  130.9240  159.4545 H   0  0  0  0  0  0  0  0  0  0  0  0
  150.9804  133.1517  156.7404 H   0  0  0  0  0  0  0  0  0  0  0  0
  149.5054  132.2953  156.2902 H   0  0  0  0  0  0  0  0  0  0  0  0
  1  2  1  0  0  0  0
  1 28  1  0  0  0  0
  2  3  1  0  0  0  0
  2 29  1  0  0  0  0
  2 30  1  0  0  0  0
  3  4  1  0  0  0  0
  3 23  1  0  0  0  0
  3 31  1  0  0  0  0
  4  5  1  0  0  0  0
  4 32  1  0  0  0  0
  4 33  1  0  0  0  0
  5 22  1  0  0  0  0
  5  6  1  0  0  0  0
  6  7  2  0  0  0  0
  6 34  1  0  0  0  0
  7  8  1  0  0  0  0
  8 22  2  0  0  0  0
  8  9  1  0  0  0  0
  9 10  1  0  0  0  0
  9 19  2  0  0  0  0
 10 14  1  0  0  0  0
 10 11  1  0  0  0  0
 11 18  1  0  0  0  0
 11 12  1  0  0  0  0
 11 35  1  0  0  0  0
 12 13  1  0  0  0  0
 12 36  1  0  0  0  0
 12 37  1  0  0  0  0
 13 14  1  0  0  0  0
 13 38  1  0  0  0  0
 13 39  1  0  0  0  0
 14 15  1  0  0  0  0
 14 40  1  0  0  0  0
 15 16  1  0  0  0  0
 15 18  1  0  0  0  0
 15 41  1  0  0  0  0
 16 17  1  0  0  0  0
 16 42  1  0  0  0  0
 16 43  1  0  0  0  0
 17 44  1  0  0  0  0
 18 45  1  0  0  0  0
 18 46  1  0  0  0  0
 19 20  1  0  0  0  0
 20 21  2  0  0  0  0
 20 47  1  0  0  0  0
 21 22  1  0  0  0  0
 23 27  1  0  0  0  0
 23 24  1  0  0  0  0
 23 48  1  0  0  0  0
 24 25  1  0  0  0  0
 24 49  1  0  0  0  0
 24 50  1  0  0  0  0
 25 26  1  0  0  0  0
 25 51  1  0  0  0  0
 25 52  1  0  0  0  0
 26 27  1  0  0  0  0
 27 53  1  0  0  0  0
 27 54  1  0  0  0  0
M  END
> <s_m_source_file>
AV-unprocessed.smi

> <i_m_source_file_index>
227

> <i_lp_mmshare_version>
43012

> <i_f3d_flags>
0

> <s_epik_input>
W0NIMl0xT1tDSDJdW0NIMl1bQ0BIXTFbQ0BIXShbQ0gyXVtPSF0pW0NIMl1uKFtjSF1uMiljKGMyMyluW2NIXW5jM04oW0NASF00NSlbQ0BASF0oW0NIMl1bQ0gyXTQpW0NASF0oW0NIMl01KVtDSDJdW09IXQ==

> <s_epik_cmdline>
J2VwaWtfcHl0aG9uJywgJy1waCcsICc3LjAnLCAnLXRuJywgJzgnLCAnLW1hJywgJzIwMCcsICctbWV0YWxfYmluZGluZycsICctaW1hZScsICc8aW5maWxlLm1hZT4nLCAnLW9tYWUnLCAnPG91dGZpbGUubWFlPic=

> <r_lp_tautomer_probability>
1

> <r_epik_Ionization_Penalty>
0.0055791

> <r_epik_Ionization_Penalty_Charging>
0

> <r_epik_Ionization_Penalty_Neutral>
0.0055791

> <r_epik_State_Penalty>
0.00401299

> <r_epik_Charging_Adjusted_Penalty>
0.00401299

> <i_epik_Tot_Q>
0

> <i_epik_Tot_abs_Q>
0

> <r_epik_Metal_State_Penalty>
-0

> <b_epik_Metal_Only>
0

> <s_lp_Force_Field>
OPLS_2005

> <r_lp_Energy>
89.0098

> <b_lp_Chiralities_Consistent>
1

> <s_lp_Variant>
AV-unprocessed.smi:227-4

> <Gold.Version>
5.8.1

> <Gold.Id.Protein>
6NUR|6NUR_protein|mol2

> <Gold.PLP.Fitness>
46.3912

> <Gold.PLP.PLP>
-42.2975

> <Gold.PLP.part.hbond>
-3.0000

> <Gold.PLP.part.metal>
0.0000

> <Gold.PLP.part.buried>
-6.1133

> <Gold.PLP.part.nonpolar>
-33.6961

> <Gold.PLP.part.repulsive>
0.5748

> <Gold.PLP.ligand.clash>
0.0000

> <Gold.PLP.ligand.torsion>
1.0145

> <Gold.PLP.Chemscore.Hbond>
1.9760

> <Gold.PLP.Chemscore.CHOScore>
0.0000

> <Gold.PLP.Chemscore.Metal>
0.0000

> <Gold.Chemscore.Hbonds>
donor molecule, donor type, donor heavy atom, donor atom, acceptor molecule, acceptor atom, score
      L1  H    17    44       P1 10171  0.98
      P1  H  6896  6907       L1    26  1.00

> <Gold.PLP.Chemscore.Internal.Correction>
0.1946

> <Gold.Rescore>
     Score         DG    S(hbond)    S(metal)    S(lipo)     H(rot)  DE(clash)    DE(int)     intcor
      8.01     -11.65       1.90        0.00      77.51       3.61       0.05       3.60       ----

> <Gold.Chemscore.Fitness>
8.0127

> <Gold.Chemscore.DG>
-11.6548

> <Gold.Chemscore.ZeroCoef>
-5.4800

> <Gold.Chemscore.Hbond>
1.8982

> <Gold.Chemscore.Metal>
0.0000

> <Gold.Chemscore.Lipo>
77.5127

> <Gold.Chemscore.Internal_Hbond>
0.0000

> <Gold.Chemscore.DEClash>
0.0458

> <Gold.Chemscore.DEInternal>
3.5962

> <Gold.Chemscore.Rot>
3.6071

> <Gold.Chemscore.Internal.Correction>
   9.000000E+99

> <Gold.Chemscore.Hbonds>
donor molecule, donor type, donor heavy atom, donor atom, acceptor molecule, acceptor atom, score
      L1  H    17    44       P1 10171  0.93
      P1  H  6896  6907       L1    26  0.41

> <Gold.Chemscore.Hbond.Weighted>
-6.3400

> <Gold.Chemscore.Metal.Weighted>
-0.0000

> <Gold.Chemscore.Lipo.Weighted>
-9.0690

> <Gold.Chemscore.Internal_Hbond.Weighted>
0.0000

> <Gold.Chemscore.DEClash.Weighted>
0.0458

> <Gold.Chemscore.DEInternal.Weighted>
3.5962

> <Gold.Chemscore.Rot.Weighted>
9.2342

> <Gold.Chemscore.Internal.Correction.Weighted>
   9.000000E+99

> <Gold.Protein.RotatedTorsions>
[ 6907 6896 6895 6894 ] final -142.01 input  -60.11 | X-H torsion
[ 7974 7965 7964 7962 ] final   42.50 input  175.53 | X-H torsion
[ 8008 7997 7996 7995 ] final   34.32 input   59.86 | X-H torsion
[ 10167 10162 10161 10158 ] final   21.54 input  -65.29 | X-H torsion
[ 10718 10713 10712 10709 ] final -128.41 input   66.30 | X-H torsion
[ 10763 10752 10751 10750 ] final  -84.34 input  -60.55 | X-H torsion
[ 11005 11000 10999 10996 ] final  123.06 input  -57.11 | X-H torsion

> <Gold.Protein.ActiveResidues>
 VAL166  LYS551  ARG553  GLY616  TRP617  ASP618  TYR619  PRO620  LYS621  CYS622 
 ASP623  PHE694  ASN695  SER759  ASP760  ASP761  ALA762  ILE779  LEU786  VAL792 
 PHE793  MET794  SER795  GLU796  ALA797  LYS798  CYS799  TRP800  GLU811  SER814 

> <Gold.Protein.RotatedAtoms>
  151.0814  133.5387  159.2620 H   0  0  0  0  0  0  0  0  0  0  0  0  # atno 6907 bound_to 6896
  151.2289  135.0546  159.8989 H   0  0  0  0  0  0  0  0  0  0  0  0  # atno 6908 bound_to 6896
  152.5424  134.0606  159.8204 H   0  0  0  0  0  0  0  0  0  0  0  0  # atno 6909 bound_to 6896
  146.0735  139.5294  142.9582 H   0  0  0  0  0  0  0  0  0  0  0  0  # atno 7974 bound_to 7965
  155.1529  140.3276  155.4427 H   0  0  0  0  0  0  0  0  0  0  0  0  # atno 8008 bound_to 7997
  156.2568  140.1973  156.6590 H   0  0  0  0  0  0  0  0  0  0  0  0  # atno 8009 bound_to 7997
  154.6460  140.0564  156.9887 H   0  0  0  0  0  0  0  0  0  0  0  0  # atno 8010 bound_to 7997
  140.5419  143.9662  150.6524 H   0  0  0  0  0  0  0  0  0  0  0  0  # atno 10167 bound_to 10162
  156.1948  130.6819  151.0468 H   0  0  0  0  0  0  0  0  0  0  0  0  # atno 10718 bound_to 10713
  154.5983  135.5524  153.7349 H   0  0  0  0  0  0  0  0  0  0  0  0  # atno 10763 bound_to 10752
  153.0144  135.6360  154.1750 H   0  0  0  0  0  0  0  0  0  0  0  0  # atno 10764 bound_to 10752
  154.1690  135.2893  155.3066 H   0  0  0  0  0  0  0  0  0  0  0  0  # atno 10765 bound_to 10752
  139.9295  134.9641  156.8202 H   0  0  0  0  0  0  0  0  0  0  0  0  # atno 11005 bound_to 11000
  145.6348  141.0297  143.1844 LP  0  0  0  0  0  0  0  0  0  0  0  0  # atno 17320 bound_to 7965
  144.7247  139.7915  143.7369 LP  0  0  0  0  0  0  0  0  0  0  0  0  # atno 17321 bound_to 7965
  140.3065  143.3226  152.0921 LP  0  0  0  0  0  0  0  0  0  0  0  0  # atno 17342 bound_to 10162
  139.4992  144.6663  151.6347 LP  0  0  0  0  0  0  0  0  0  0  0  0  # atno 17343 bound_to 10162
  157.6951  131.0797  150.6993 LP  0  0  0  0  0  0  0  0  0  0  0  0  # atno 17370 bound_to 10713
  156.7050  130.4634  149.5562 LP  0  0  0  0  0  0  0  0  0  0  0  0  # atno 17371 bound_to 10713
  140.6240  133.9967  155.7631 LP  0  0  0  0  0  0  0  0  0  0  0  0  # atno 17394 bound_to 11000
  141.0875  133.9967  157.3289 LP  0  0  0  0  0  0  0  0  0  0  0  0  # atno 17395 bound_to 11000

$$$$
