AV-unprocessed.smi:2145|AV-procd|sdf|8736|dock3
  -GOLD-   2272011503D 1   1.00000     0.00000
 Structure written by MMmdl.
 45 47  0  0  0  0  0  0  0  0  2 V2000
  148.3076  131.3317  153.6534 C   0  0  0  0  0  0  0  0  0  0  0  0
  149.3293  131.3865  154.7878 C   0  0  0  0  0  0  0  0  0  0  0  0
  149.6365  130.3399  155.3576 O   0  0  0  0  0  0  0  0  0  0  0  0
  149.9013  132.7159  155.1452 C   0  0  0  0  0  0  0  0  0  0  0  0
  149.4856  133.8643  154.4353 C   0  0  0  0  0  0  0  0  0  0  0  0
  150.0104  135.1313  154.7527 C   0  0  0  0  0  0  0  0  0  0  0  0
  150.9609  135.2833  155.7810 C   0  0  0  0  0  0  0  0  0  0  0  0
  151.4227  136.5591  156.0225 O   0  0  0  0  0  0  0  0  0  0  0  0
  151.3924  137.5011  154.9585 C   0  0  0  0  0  0  0  0  0  0  0  0
  151.8816  138.8561  155.4921 C   0  0  2  0  0  0  0  0  0  0  0  0
  153.2214  138.7097  155.9194 O   0  0  0  0  0  0  0  0  0  0  0  0
  151.0251  139.3557  156.6729 C   0  0  0  0  0  0  0  0  0  0  0  0
  150.9382  140.8240  156.7332 N   0  0  0  0  0  0  0  0  0  0  0  0
  150.2418  141.6897  155.9428 C   0  0  0  0  0  0  0  0  0  0  0  0
  149.3683  141.3343  154.7870 C   0  0  0  0  0  0  0  0  0  0  0  0
  150.4892  142.9479  156.4039 N   0  3  0  0  0  0  0  0  0  0  0  0
  151.3529  142.8880  157.4985 C   0  0  0  0  0  0  0  0  0  0  0  0
  151.8866  143.8984  158.2926 C   0  0  0  0  0  0  0  0  0  0  0  0
  152.7455  143.4956  159.3362 C   0  0  0  0  0  0  0  0  0  0  0  0
  153.0443  142.1356  159.5573 C   0  0  0  0  0  0  0  0  0  0  0  0
  152.4965  141.1202  158.7458 C   0  0  0  0  0  0  0  0  0  0  0  0
  151.6468  141.5259  157.7165 C   0  0  0  0  0  0  0  0  0  0  0  0
  151.3782  134.1339  156.4959 C   0  0  0  0  0  0  0  0  0  0  0  0
  150.8532  132.8652  156.1806 C   0  0  0  0  0  0  0  0  0  0  0  0
  148.7498  131.6881  152.7229 H   0  0  0  0  0  0  0  0  0  0  0  0
  147.4403  131.9483  153.8903 H   0  0  0  0  0  0  0  0  0  0  0  0
  147.9652  130.3084  153.4977 H   0  0  0  0  0  0  0  0  0  0  0  0
  148.7594  133.7870  153.6388 H   0  0  0  0  0  0  0  0  0  0  0  0
  149.6799  135.9973  154.1979 H   0  0  0  0  0  0  0  0  0  0  0  0
  152.0686  137.1563  154.1743 H   0  0  0  0  0  0  0  0  0  0  0  0
  150.3946  137.5915  154.5249 H   0  0  0  0  0  0  0  0  0  0  0  0
  151.8458  139.5955  154.6910 H   0  0  0  0  0  0  0  0  0  0  0  0
  153.5350  137.8653  155.6321 H   0  0  0  0  0  0  0  0  0  0  0  0
  150.0057  138.9806  156.5758 H   0  0  0  0  0  0  0  0  0  0  0  0
  151.3966  138.9737  157.6240 H   0  0  0  0  0  0  0  0  0  0  0  0
  148.9777  142.2333  154.3097 H   0  0  0  0  0  0  0  0  0  0  0  0
  148.5280  140.7275  155.1245 H   0  0  0  0  0  0  0  0  0  0  0  0
  149.9335  140.7672  154.0473 H   0  0  0  0  0  0  0  0  0  0  0  0
  151.6610  144.9410  158.1234 H   0  0  0  0  0  0  0  0  0  0  0  0
  153.1854  144.2448  159.9787 H   0  0  0  0  0  0  0  0  0  0  0  0
  153.7090  141.8649  160.3648 H   0  0  0  0  0  0  0  0  0  0  0  0
  152.7387  140.0825  158.9206 H   0  0  0  0  0  0  0  0  0  0  0  0
  152.1012  134.1977  157.2948 H   0  0  0  0  0  0  0  0  0  0  0  0
  151.1983  132.0159  156.7510 H   0  0  0  0  0  0  0  0  0  0  0  0
  150.0952  143.7860  155.9963 H   0  0  0  0  0  0  0  0  0  0  0  0
  1  2  1  0  0  0  0
  1 25  1  0  0  0  0
  1 26  1  0  0  0  0
  1 27  1  0  0  0  0
  2  3  2  0  0  0  0
  2  4  1  0  0  0  0
  4 24  1  0  0  0  0
  4  5  2  0  0  0  0
  5  6  1  0  0  0  0
  5 28  1  0  0  0  0
  6  7  2  0  0  0  0
  6 29  1  0  0  0  0
  7  8  1  0  0  0  0
  7 23  1  0  0  0  0
  8  9  1  0  0  0  0
  9 10  1  0  0  0  0
  9 30  1  0  0  0  0
  9 31  1  0  0  0  0
 10 11  1  0  0  0  0
 10 12  1  0  0  0  0
 10 32  1  0  0  0  0
 11 33  1  0  0  0  0
 12 13  1  0  0  0  0
 12 34  1  0  0  0  0
 12 35  1  0  0  0  0
 13 22  1  0  0  0  0
 13 14  1  0  0  0  0
 14 15  1  0  0  0  0
 14 16  2  0  0  0  0
 15 36  1  0  0  0  0
 15 37  1  0  0  0  0
 15 38  1  0  0  0  0
 16 17  1  0  0  0  0
 16 45  1  0  0  0  0
 17 22  2  0  0  0  0
 17 18  1  0  0  0  0
 18 19  2  0  0  0  0
 18 39  1  0  0  0  0
 19 20  1  0  0  0  0
 19 40  1  0  0  0  0
 20 21  2  0  0  0  0
 20 41  1  0  0  0  0
 21 22  1  0  0  0  0
 21 42  1  0  0  0  0
 23 24  2  0  0  0  0
 23 43  1  0  0  0  0
 24 44  1  0  0  0  0
M  CHG  1  16   1
M  END
> <s_m_source_file>
AV-unprocessed.smi

> <i_m_source_file_index>
2145

> <i_lp_mmshare_version>
43012

> <i_f3d_flags>
0

> <s_epik_input>
W0NIM11DKD1PKWMxW2NIXVtjSF1jKFtjSF1bY0hdMSlPW0NIMl1bQ0BIXShbT0hdKVtDSDJdbihjKG4yKVtDSDNdKWMoYzIzKVtjSF1bY0hdW2NIXVtjSF0z

> <s_epik_cmdline>
J2VwaWtfcHl0aG9uJywgJy1waCcsICc3LjAnLCAnLXRuJywgJzgnLCAnLW1hJywgJzIwMCcsICctbWV0YWxfYmluZGluZycsICctaW1hZScsICc8aW5maWxlLm1hZT4nLCAnLW9tYWUnLCAnPG91dGZpbGUubWFlPic=

> <r_lp_tautomer_probability>
0.99995

> <r_epik_Ionization_Penalty>
1.05477

> <r_epik_Ionization_Penalty_Charging>
1.05477

> <r_epik_Ionization_Penalty_Neutral>
2.3993e-06

> <r_epik_State_Penalty>
1.10796

> <r_epik_Charging_Adjusted_Penalty>
2.16273

> <i_epik_Tot_Q>
1

> <i_epik_Tot_abs_Q>
1

> <r_epik_Metal_State_Penalty>
5.10164

> <b_epik_Metal_Only>
0

> <s_lp_Force_Field>
OPLS_2005

> <r_lp_Energy>
25.5273

> <b_lp_Chiralities_Consistent>
1

> <s_lp_Variant>
AV-unprocessed.smi:2145-3

> <Gold.Version>
5.8.1

> <Gold.Id.Protein>
6NUR|6NUR_protein|mol2

> <Gold.PLP.Fitness>
57.9945

> <Gold.PLP.PLP>
-50.6875

> <Gold.PLP.part.hbond>
-2.2984

> <Gold.PLP.part.metal>
0.0000

> <Gold.PLP.part.buried>
-4.2284

> <Gold.PLP.part.nonpolar>
-44.5028

> <Gold.PLP.part.repulsive>
0.1175

> <Gold.PLP.ligand.clash>
0.0000

> <Gold.PLP.ligand.torsion>
0.9209

> <Gold.PLP.Chemscore.Hbond>
3.0000

> <Gold.PLP.Chemscore.CHOScore>
0.0000

> <Gold.PLP.Chemscore.Metal>
0.0000

> <Gold.Chemscore.Hbonds>
donor molecule, donor type, donor heavy atom, donor atom, acceptor molecule, acceptor atom, score
      L1  H    16    45       P1  8028  2.00
      P1  H  7997  8009       L1    11  1.00

> <Gold.PLP.Chemscore.Internal.Correction>
0.1489

> <Gold.Rescore>
     Score         DG    S(hbond)    S(metal)    S(lipo)     H(rot)  DE(clash)    DE(int)     intcor
     20.17     -21.03       1.92        0.00     128.40       2.30       0.10       0.76       ----

> <Gold.Chemscore.Fitness>
20.1698

> <Gold.Chemscore.DG>
-21.0304

> <Gold.Chemscore.ZeroCoef>
-5.4800

> <Gold.Chemscore.Hbond>
1.9197

> <Gold.Chemscore.Metal>
0.0000

> <Gold.Chemscore.Lipo>
128.3984

> <Gold.Chemscore.Internal_Hbond>
0.0000

> <Gold.Chemscore.DEClash>
0.1011

> <Gold.Chemscore.DEInternal>
0.7595

> <Gold.Chemscore.Rot>
2.2984

> <Gold.Chemscore.Internal.Correction>
   9.000000E+99

> <Gold.Chemscore.Hbonds>
donor molecule, donor type, donor heavy atom, donor atom, acceptor molecule, acceptor atom, score
      L1  H    16    45       P1  8028  0.92
      P1  H  7997  8009       L1    11  0.94

> <Gold.Chemscore.Hbond.Weighted>
-6.4117

> <Gold.Chemscore.Metal.Weighted>
-0.0000

> <Gold.Chemscore.Lipo.Weighted>
-15.0226

> <Gold.Chemscore.Internal_Hbond.Weighted>
0.0000

> <Gold.Chemscore.DEClash.Weighted>
0.1011

> <Gold.Chemscore.DEInternal.Weighted>
0.7595

> <Gold.Chemscore.Rot.Weighted>
5.8839

> <Gold.Chemscore.Internal.Correction.Weighted>
   9.000000E+99

> <Gold.Protein.RotatedTorsions>
[ 6907 6896 6895 6894 ] final   80.22 input  -60.11 | X-H torsion
[ 7974 7965 7964 7962 ] final   33.18 input  175.53 | X-H torsion
[ 8008 7997 7996 7995 ] final -161.84 input   59.86 | X-H torsion
[ 10167 10162 10161 10158 ] final   -0.98 input  -65.29 | X-H torsion
[ 10718 10713 10712 10709 ] final   24.07 input   66.30 | X-H torsion
[ 10763 10752 10751 10750 ] final -110.56 input  -60.55 | X-H torsion
[ 11005 11000 10999 10996 ] final  -62.40 input  -57.11 | X-H torsion

> <Gold.Protein.ActiveResidues>
 VAL166  LYS551  ARG553  GLY616  TRP617  ASP618  TYR619  PRO620  LYS621  CYS622 
 ASP623  PHE694  ASN695  SER759  ASP760  ASP761  ALA762  ILE779  LEU786  VAL792 
 PHE793  MET794  SER795  GLU796  ALA797  LYS798  CYS799  TRP800  GLU811  SER814 

> <Gold.Protein.RotatedAtoms>
  152.5227  134.3390  159.9210 H   0  0  0  0  0  0  0  0  0  0  0  0  # atno 6907 bound_to 6896
  151.3340  133.3982  159.2673 H   0  0  0  0  0  0  0  0  0  0  0  0  # atno 6908 bound_to 6896
  150.9857  134.9221  159.7928 H   0  0  0  0  0  0  0  0  0  0  0  0  # atno 6909 bound_to 6896
  146.1438  139.6430  142.9145 H   0  0  0  0  0  0  0  0  0  0  0  0  # atno 7974 bound_to 7965
  155.7981  140.0888  157.1972 H   0  0  0  0  0  0  0  0  0  0  0  0  # atno 8008 bound_to 7997
  154.3983  140.1477  156.3300 H   0  0  0  0  0  0  0  0  0  0  0  0  # atno 8009 bound_to 7997
  155.8491  140.3435  155.5684 H   0  0  0  0  0  0  0  0  0  0  0  0  # atno 8010 bound_to 7997
  140.6791  143.6829  150.8090 H   0  0  0  0  0  0  0  0  0  0  0  0  # atno 10167 bound_to 10162
  157.1747  130.6775  149.6091 H   0  0  0  0  0  0  0  0  0  0  0  0  # atno 10718 bound_to 10713
  154.8254  135.4559  154.0904 H   0  0  0  0  0  0  0  0  0  0  0  0  # atno 10763 bound_to 10752
  153.2222  135.6895  153.7993 H   0  0  0  0  0  0  0  0  0  0  0  0  # atno 10764 bound_to 10752
  153.7406  135.3313  155.3280 H   0  0  0  0  0  0  0  0  0  0  0  0  # atno 10765 bound_to 10752
  141.1358  133.6639  156.5521 H   0  0  0  0  0  0  0  0  0  0  0  0  # atno 11005 bound_to 11000
  145.4986  141.0438  143.2553 LP  0  0  0  0  0  0  0  0  0  0  0  0  # atno 17320 bound_to 7965
  144.7822  139.6502  143.7149 LP  0  0  0  0  0  0  0  0  0  0  0  0  # atno 17321 bound_to 7965
  140.0527  143.5234  152.2666 LP  0  0  0  0  0  0  0  0  0  0  0  0  # atno 17342 bound_to 10162
  139.6101  144.7606  151.2971 LP  0  0  0  0  0  0  0  0  0  0  0  0  # atno 17343 bound_to 10162
  155.9733  130.4667  150.6298 LP  0  0  0  0  0  0  0  0  0  0  0  0  # atno 17370 bound_to 10713
  157.4010  131.0810  151.1308 LP  0  0  0  0  0  0  0  0  0  0  0  0  # atno 17371 bound_to 10713
  140.4055  134.7318  157.4805 LP  0  0  0  0  0  0  0  0  0  0  0  0  # atno 17394 bound_to 11000
  140.0465  134.6192  155.8915 LP  0  0  0  0  0  0  0  0  0  0  0  0  # atno 17395 bound_to 11000

$$$$
