AV-unprocessed.smi:227|AV-procd|sdf|1729|dock7
  -GOLD-   2262020223D 1   1.00000     0.00000
 Structure written by MMmdl.
 54 58  0  0  0  0  0  0  0  0  1 V2000
  144.9596  135.9176  149.5926 O   0  0  0  0  0  0  0  0  0  0  0  0
  145.1795  135.8791  150.9871 C   0  0  0  0  0  0  0  0  0  0  0  0
  144.2559  134.8493  151.6875 C   0  0  2  0  0  0  0  0  0  0  0  0
  144.2853  135.0223  153.2278 C   0  0  0  0  0  0  0  0  0  0  0  0
  145.2648  135.9920  153.6868 N   0  0  0  0  0  0  0  0  0  0  0  0
  145.1189  137.3593  153.7215 C   0  0  0  0  0  0  0  0  0  0  0  0
  146.1508  138.0142  154.1770 N   0  0  0  0  0  0  0  0  0  0  0  0
  147.0853  137.0283  154.4755 C   0  0  0  0  0  0  0  0  0  0  0  0
  148.4116  137.0294  155.0017 C   0  0  0  0  0  0  0  0  0  0  0  0
  149.0980  138.1486  155.3655 N   0  0  0  0  0  0  0  0  0  0  0  0
  150.0787  138.1136  156.4387 C   0  0  1  0  0  0  0  0  0  0  0  0
  151.2824  137.3743  155.8217 C   0  0  0  0  0  0  0  0  0  0  0  0
  151.2159  137.8583  154.3642 C   0  0  0  0  0  0  0  0  0  0  0  0
  149.9916  138.7982  154.4139 C   0  0  2  0  0  0  0  0  0  0  0  0
  150.3924  140.0973  155.1436 C   0  0  1  0  0  0  0  0  0  0  0  0
  149.3964  141.2463  154.9045 C   0  0  0  0  0  0  0  0  0  0  0  0
  149.2173  141.4560  153.5197 O   0  0  0  0  0  0  0  0  0  0  0  0
  150.4283  139.6019  156.6041 C   0  0  0  0  0  0  0  0  0  0  0  0
  149.0315  135.8246  155.1196 N   0  0  0  0  0  0  0  0  0  0  0  0
  148.4020  134.6977  154.7775 C   0  0  0  0  0  0  0  0  0  0  0  0
  147.1685  134.5461  154.2949 N   0  0  0  0  0  0  0  0  0  0  0  0
  146.5429  135.7493  154.1568 C   0  0  0  0  0  0  0  0  0  0  0  0
  144.6117  133.3846  151.3114 C   0  0  2  0  0  0  0  0  0  0  0  0
  145.9355  133.1848  150.5933 C   0  0  0  0  0  0  0  0  0  0  0  0
  145.7689  131.7994  149.9796 C   0  0  0  0  0  0  0  0  0  0  0  0
  144.3832  131.6759  149.6836 O   0  0  0  0  0  0  0  0  0  0  0  0
  143.6589  132.7354  150.3000 C   0  0  0  0  0  0  0  0  0  0  0  0
  144.7266  136.8004  149.3486 H   0  0  0  0  0  0  0  0  0  0  0  0
  146.2282  135.6575  151.1871 H   0  0  0  0  0  0  0  0  0  0  0  0
  144.9996  136.8912  151.3460 H   0  0  0  0  0  0  0  0  0  0  0  0
  143.2330  135.0450  151.3618 H   0  0  0  0  0  0  0  0  0  0  0  0
  143.3144  135.3495  153.5998 H   0  0  0  0  0  0  0  0  0  0  0  0
  144.4935  134.0654  153.7085 H   0  0  0  0  0  0  0  0  0  0  0  0
  144.2155  137.8584  153.4029 H   0  0  0  0  0  0  0  0  0  0  0  0
  149.7408  137.6790  157.3774 H   0  0  0  0  0  0  0  0  0  0  0  0
  152.2247  137.6243  156.3102 H   0  0  0  0  0  0  0  0  0  0  0  0
  151.1483  136.2932  155.8747 H   0  0  0  0  0  0  0  0  0  0  0  0
  152.1269  138.3632  154.0414 H   0  0  0  0  0  0  0  0  0  0  0  0
  151.0410  137.0194  153.6897 H   0  0  0  0  0  0  0  0  0  0  0  0
  149.5602  138.9887  153.4303 H   0  0  0  0  0  0  0  0  0  0  0  0
  151.3825  140.4203  154.8175 H   0  0  0  0  0  0  0  0  0  0  0  0
  148.4281  141.0042  155.3435 H   0  0  0  0  0  0  0  0  0  0  0  0
  149.7389  142.1705  155.3710 H   0  0  0  0  0  0  0  0  0  0  0  0
  149.3638  140.6371  153.0713 H   0  0  0  0  0  0  0  0  0  0  0  0
  149.6744  140.1017  157.2142 H   0  0  0  0  0  0  0  0  0  0  0  0
  151.3978  139.7562  157.0788 H   0  0  0  0  0  0  0  0  0  0  0  0
  148.9678  133.7872  154.9096 H   0  0  0  0  0  0  0  0  0  0  0  0
  144.6201  132.7744  152.2164 H   0  0  0  0  0  0  0  0  0  0  0  0
  146.0590  133.9304  149.8064 H   0  0  0  0  0  0  0  0  0  0  0  0
  146.7989  133.2380  151.2565 H   0  0  0  0  0  0  0  0  0  0  0  0
  146.3828  131.6599  149.0897 H   0  0  0  0  0  0  0  0  0  0  0  0
  146.0386  131.0287  150.7026 H   0  0  0  0  0  0  0  0  0  0  0  0
  142.7472  132.3595  150.7647 H   0  0  0  0  0  0  0  0  0  0  0  0
  143.3739  133.4486  149.5252 H   0  0  0  0  0  0  0  0  0  0  0  0
  1  2  1  0  0  0  0
  1 28  1  0  0  0  0
  2  3  1  0  0  0  0
  2 29  1  0  0  0  0
  2 30  1  0  0  0  0
  3  4  1  0  0  0  0
  3 23  1  0  0  0  0
  3 31  1  0  0  0  0
  4  5  1  0  0  0  0
  4 32  1  0  0  0  0
  4 33  1  0  0  0  0
  5 22  1  0  0  0  0
  5  6  1  0  0  0  0
  6  7  2  0  0  0  0
  6 34  1  0  0  0  0
  7  8  1  0  0  0  0
  8 22  2  0  0  0  0
  8  9  1  0  0  0  0
  9 10  1  0  0  0  0
  9 19  2  0  0  0  0
 10 14  1  0  0  0  0
 10 11  1  0  0  0  0
 11 18  1  0  0  0  0
 11 12  1  0  0  0  0
 11 35  1  0  0  0  0
 12 13  1  0  0  0  0
 12 36  1  0  0  0  0
 12 37  1  0  0  0  0
 13 14  1  0  0  0  0
 13 38  1  0  0  0  0
 13 39  1  0  0  0  0
 14 15  1  0  0  0  0
 14 40  1  0  0  0  0
 15 16  1  0  0  0  0
 15 18  1  0  0  0  0
 15 41  1  0  0  0  0
 16 17  1  0  0  0  0
 16 42  1  0  0  0  0
 16 43  1  0  0  0  0
 17 44  1  0  0  0  0
 18 45  1  0  0  0  0
 18 46  1  0  0  0  0
 19 20  1  0  0  0  0
 20 21  2  0  0  0  0
 20 47  1  0  0  0  0
 21 22  1  0  0  0  0
 23 27  1  0  0  0  0
 23 24  1  0  0  0  0
 23 48  1  0  0  0  0
 24 25  1  0  0  0  0
 24 49  1  0  0  0  0
 24 50  1  0  0  0  0
 25 26  1  0  0  0  0
 25 51  1  0  0  0  0
 25 52  1  0  0  0  0
 26 27  1  0  0  0  0
 27 53  1  0  0  0  0
 27 54  1  0  0  0  0
M  END
> <s_m_source_file>
AV-unprocessed.smi

> <i_m_source_file_index>
227

> <i_lp_mmshare_version>
43012

> <i_f3d_flags>
0

> <s_epik_input>
W0NIMl0xT1tDSDJdW0NIMl1bQ0BIXTFbQ0BIXShbQ0gyXVtPSF0pW0NIMl1uKFtjSF1uMiljKGMyMyluW2NIXW5jM04oW0NASF00NSlbQ0BASF0oW0NIMl1bQ0gyXTQpW0NASF0oW0NIMl01KVtDSDJdW09IXQ==

> <s_epik_cmdline>
J2VwaWtfcHl0aG9uJywgJy1waCcsICc3LjAnLCAnLXRuJywgJzgnLCAnLW1hJywgJzIwMCcsICctbWV0YWxfYmluZGluZycsICctaW1hZScsICc8aW5maWxlLm1hZT4nLCAnLW9tYWUnLCAnPG91dGZpbGUubWFlPic=

> <r_lp_tautomer_probability>
1

> <r_epik_Ionization_Penalty>
0.0055791

> <r_epik_Ionization_Penalty_Charging>
0

> <r_epik_Ionization_Penalty_Neutral>
0.0055791

> <r_epik_State_Penalty>
0.00401299

> <r_epik_Charging_Adjusted_Penalty>
0.00401299

> <i_epik_Tot_Q>
0

> <i_epik_Tot_abs_Q>
0

> <r_epik_Metal_State_Penalty>
-0

> <b_epik_Metal_Only>
0

> <s_lp_Force_Field>
OPLS_2005

> <r_lp_Energy>
88.7609

> <b_lp_Chiralities_Consistent>
1

> <s_lp_Variant>
AV-unprocessed.smi:227-3

> <Gold.Version>
5.8.1

> <Gold.Id.Protein>
6NUR|6NUR_protein|mol2

> <Gold.PLP.Fitness>
43.7596

> <Gold.PLP.PLP>
-38.9830

> <Gold.PLP.part.hbond>
-5.9848

> <Gold.PLP.part.metal>
0.0000

> <Gold.PLP.part.buried>
-4.1977

> <Gold.PLP.part.nonpolar>
-29.9271

> <Gold.PLP.part.repulsive>
0.5526

> <Gold.PLP.ligand.clash>
0.0000

> <Gold.PLP.ligand.torsion>
3.2269

> <Gold.PLP.Chemscore.Hbond>
3.1984

> <Gold.PLP.Chemscore.CHOScore>
0.5134

> <Gold.PLP.Chemscore.Metal>
0.0000

> <Gold.Chemscore.Hbonds>
donor molecule, donor type, donor heavy atom, donor atom, acceptor molecule, acceptor atom, score
      L1  H     1    28       P1 10171  1.00
      L1  H    17    44       P1  7957  0.72
      P1  H  8011  8017       L1    17  0.69
      P1  H 10785 10796       L1    26  0.39
      L1  C     6    34       P1 10175  0.32

> <Gold.PLP.Chemscore.Internal.Correction>
0.0949

> <Gold.Rescore>
     Score         DG    S(hbond)    S(metal)    S(lipo)     H(rot)  DE(clash)    DE(int)     intcor
     11.69     -16.44       2.83        0.00      91.75       3.61       0.22       4.54       ----

> <Gold.Chemscore.Fitness>
11.6887

> <Gold.Chemscore.DG>
-16.4442

> <Gold.Chemscore.ZeroCoef>
-5.4800

> <Gold.Chemscore.Hbond>
2.8335

> <Gold.Chemscore.Metal>
0.0000

> <Gold.Chemscore.Lipo>
91.7488

> <Gold.Chemscore.Internal_Hbond>
0.0000

> <Gold.Chemscore.DEClash>
0.2201

> <Gold.Chemscore.DEInternal>
4.5354

> <Gold.Chemscore.Rot>
3.6071

> <Gold.Chemscore.Internal.Correction>
   9.000000E+99

> <Gold.Chemscore.Hbonds>
donor molecule, donor type, donor heavy atom, donor atom, acceptor molecule, acceptor atom, score
      L1  H     1    28       P1 10171  0.92
      L1  H    17    44       P1  7957  0.69
      P1  H  8011  8017       L1    17  0.10
      P1  H 10785 10796       L1    26  0.36

> <Gold.Chemscore.Hbond.Weighted>
-9.4638

> <Gold.Chemscore.Metal.Weighted>
-0.0000

> <Gold.Chemscore.Lipo.Weighted>
-10.7346

> <Gold.Chemscore.Internal_Hbond.Weighted>
0.0000

> <Gold.Chemscore.DEClash.Weighted>
0.2201

> <Gold.Chemscore.DEInternal.Weighted>
4.5354

> <Gold.Chemscore.Rot.Weighted>
9.2342

> <Gold.Chemscore.Internal.Correction.Weighted>
   9.000000E+99

> <Gold.Protein.RotatedTorsions>
[ 6907 6896 6895 6894 ] final  160.68 input  -60.11 | X-H torsion
[ 7974 7965 7964 7962 ] final   45.34 input  175.53 | X-H torsion
[ 8008 7997 7996 7995 ] final -155.09 input   59.86 | X-H torsion
[ 10167 10162 10161 10158 ] final   22.94 input  -65.29 | X-H torsion
[ 10718 10713 10712 10709 ] final  -14.60 input   66.30 | X-H torsion
[ 10763 10752 10751 10750 ] final -162.63 input  -60.55 | X-H torsion
[ 11005 11000 10999 10996 ] final  -55.53 input  -57.11 | X-H torsion

> <Gold.Protein.ActiveResidues>
 VAL166  LYS551  ARG553  GLY616  TRP617  ASP618  TYR619  PRO620  LYS621  CYS622 
 ASP623  PHE694  ASN695  SER759  ASP760  ASP761  ALA762  ILE779  LEU786  VAL792 
 PHE793  MET794  SER795  GLU796  ALA797  LYS798  CYS799  TRP800  GLU811  SER814 

> <Gold.Protein.RotatedAtoms>
  151.9671  133.3713  159.4056 H   0  0  0  0  0  0  0  0  0  0  0  0  # atno 6907 bound_to 6896
  150.6955  134.4180  159.5201 H   0  0  0  0  0  0  0  0  0  0  0  0  # atno 6908 bound_to 6896
  152.1878  134.8699  160.0571 H   0  0  0  0  0  0  0  0  0  0  0  0  # atno 6909 bound_to 6896
  146.0489  139.4975  142.9731 H   0  0  0  0  0  0  0  0  0  0  0  0  # atno 7974 bound_to 7965
  155.6964  140.0761  157.2428 H   0  0  0  0  0  0  0  0  0  0  0  0  # atno 8008 bound_to 7997
  154.4080  140.1655  156.2196 H   0  0  0  0  0  0  0  0  0  0  0  0  # atno 8009 bound_to 7997
  155.9406  140.3384  155.6327 H   0  0  0  0  0  0  0  0  0  0  0  0  # atno 8010 bound_to 7997
  140.5309  143.9843  150.6465 H   0  0  0  0  0  0  0  0  0  0  0  0  # atno 10167 bound_to 10162
  156.6137  130.4856  149.6191 H   0  0  0  0  0  0  0  0  0  0  0  0  # atno 10718 bound_to 10713
  154.7196  135.3023  154.9068 H   0  0  0  0  0  0  0  0  0  0  0  0  # atno 10763 bound_to 10752
  153.9944  135.6714  153.4760 H   0  0  0  0  0  0  0  0  0  0  0  0  # atno 10764 bound_to 10752
  153.0823  135.5002  154.8444 H   0  0  0  0  0  0  0  0  0  0  0  0  # atno 10765 bound_to 10752
  141.1078  133.6612  156.4484 H   0  0  0  0  0  0  0  0  0  0  0  0  # atno 11005 bound_to 11000
  145.6759  141.0204  143.1633 LP  0  0  0  0  0  0  0  0  0  0  0  0  # atno 17320 bound_to 7965
  144.7112  139.8364  143.7414 LP  0  0  0  0  0  0  0  0  0  0  0  0  # atno 17321 bound_to 7965
  140.3218  143.3132  152.0776 LP  0  0  0  0  0  0  0  0  0  0  0  0  # atno 17342 bound_to 10162
  139.4954  144.6569  151.6553 LP  0  0  0  0  0  0  0  0  0  0  0  0  # atno 17343 bound_to 10162
  156.2369  130.6828  151.1518 LP  0  0  0  0  0  0  0  0  0  0  0  0  # atno 17370 bound_to 10713
  157.7247  131.0658  150.5983 LP  0  0  0  0  0  0  0  0  0  0  0  0  # atno 17371 bound_to 10713
  140.4855  134.6624  157.5189 LP  0  0  0  0  0  0  0  0  0  0  0  0  # atno 17394 bound_to 11000
  139.9957  134.6915  155.9614 LP  0  0  0  0  0  0  0  0  0  0  0  0  # atno 17395 bound_to 11000

$$$$
