AV-unprocessed.smi:193|AV-procd|sdf|1510|dock5
  -GOLD-   2262019343D 1   1.00000     0.00000
 Structure written by MMmdl.
 62 66  0  0  0  0  0  0  0  0  2 V2000
  151.6710  139.2323  155.5261 C   0  0  0  0  0  0  0  0  0  0  0  0
  150.3184  139.7699  156.0195 C   0  0  2  0  0  0  0  0  0  0  0  0
  149.1841  138.9141  155.4177 C   0  0  0  0  0  0  0  0  0  0  0  0
  147.8713  139.1676  156.0047 N   0  0  0  0  0  0  0  0  0  0  0  0
  146.9527  138.2682  155.5939 C   0  0  0  0  0  0  0  0  0  0  0  0
  146.3936  137.4695  156.5350 N   0  0  0  0  0  0  0  0  0  0  0  0
  145.4796  136.5611  156.1784 C   0  0  0  0  0  0  0  0  0  0  0  0
  144.9956  136.2952  154.9626 N   0  0  0  0  0  0  0  0  0  0  0  0
  145.5602  137.0987  154.0155 C   0  0  0  0  0  0  0  0  0  0  0  0
  146.5397  138.1049  154.2427 C   0  0  0  0  0  0  0  0  0  0  0  0
  146.8816  138.7180  153.0434 N   0  0  0  0  0  0  0  0  0  0  0  0
  146.1437  138.1078  152.1560 C   0  0  0  0  0  0  0  0  0  0  0  0
  145.3150  137.1274  152.6538 N   0  0  0  0  0  0  0  0  0  0  0  0
  144.3893  136.3016  151.8937 C   0  0  0  0  0  0  0  0  0  0  0  0
  145.0643  135.1116  151.1683 C   0  0  0  0  0  0  0  0  0  0  0  0
  145.7586  135.6308  150.0466 O   0  0  0  0  0  0  0  0  0  0  0  0
  146.0851  134.4233  152.0961 C   0  0  0  0  0  0  0  0  0  0  0  0
  146.6588  133.1377  151.4740 C   0  0  0  0  0  0  0  0  0  0  0  0
  145.6021  132.2530  151.1217 O   0  0  0  0  0  0  0  0  0  0  0  0
  144.7351  132.7961  150.1335 C   0  0  0  0  0  0  0  0  0  0  0  0
  144.0456  134.0626  150.6709 C   0  0  0  0  0  0  0  0  0  0  0  0
  147.3612  140.5352  156.0230 C   0  0  0  0  0  0  0  0  0  0  0  0
  148.0952  141.3894  157.0677 C   0  0  0  0  0  0  0  0  0  0  0  0
  149.3148  142.0630  156.5518 N   0  3  1  0  0  0  0  0  0  0  0  0
  150.0998  142.6757  157.6476 C   0  0  1  0  0  0  0  0  0  0  0  0
  151.2647  141.8275  158.1029 C   0  0  0  0  0  0  0  0  0  0  0  0
  151.5109  143.0588  157.2577 C   0  0  2  0  0  0  0  0  0  0  0  0
  152.1723  144.2772  157.8632 C   0  0  0  0  0  0  0  0  0  0  0  0
  150.1685  141.2604  155.6334 C   0  0  0  0  0  0  0  0  0  0  0  0
  151.7570  139.3080  154.4415 H   0  0  0  0  0  0  0  0  0  0  0  0
  151.8019  138.1844  155.7978 H   0  0  0  0  0  0  0  0  0  0  0  0
  152.5007  139.7867  155.9660 H   0  0  0  0  0  0  0  0  0  0  0  0
  150.3192  139.6645  157.1052 H   0  0  0  0  0  0  0  0  0  0  0  0
  149.1391  139.0634  154.3379 H   0  0  0  0  0  0  0  0  0  0  0  0
  149.4205  137.8595  155.5704 H   0  0  0  0  0  0  0  0  0  0  0  0
  145.0785  135.9607  156.9819 H   0  0  0  0  0  0  0  0  0  0  0  0
  146.1778  138.3615  151.1061 H   0  0  0  0  0  0  0  0  0  0  0  0
  143.6153  135.9427  152.5737 H   0  0  0  0  0  0  0  0  0  0  0  0
  143.8822  136.9405  151.1698 H   0  0  0  0  0  0  0  0  0  0  0  0
  145.8735  134.9355  149.4169 H   0  0  0  0  0  0  0  0  0  0  0  0
  146.8938  135.1089  152.3526 H   0  0  0  0  0  0  0  0  0  0  0  0
  145.5981  134.1617  153.0365 H   0  0  0  0  0  0  0  0  0  0  0  0
  147.2690  133.3618  150.5977 H   0  0  0  0  0  0  0  0  0  0  0  0
  147.3101  132.6367  152.1902 H   0  0  0  0  0  0  0  0  0  0  0  0
  145.2941  133.0104  149.2214 H   0  0  0  0  0  0  0  0  0  0  0  0
  143.9865  132.0470  149.8747 H   0  0  0  0  0  0  0  0  0  0  0  0
  143.3930  133.7773  151.4970 H   0  0  0  0  0  0  0  0  0  0  0  0
  143.3978  134.4813  149.8998 H   0  0  0  0  0  0  0  0  0  0  0  0
  147.4136  140.9867  155.0316 H   0  0  0  0  0  0  0  0  0  0  0  0
  146.3032  140.5067  156.2910 H   0  0  0  0  0  0  0  0  0  0  0  0
  147.4200  142.1728  157.4134 H   0  0  0  0  0  0  0  0  0  0  0  0
  148.3290  140.7883  157.9483 H   0  0  0  0  0  0  0  0  0  0  0  0
  149.5395  143.2705  158.3674 H   0  0  0  0  0  0  0  0  0  0  0  0
  151.5372  141.8758  159.1554 H   0  0  0  0  0  0  0  0  0  0  0  0
  151.4130  140.8582  157.6303 H   0  0  0  0  0  0  0  0  0  0  0  0
  151.8056  142.8726  156.2262 H   0  0  0  0  0  0  0  0  0  0  0  0
  151.8450  144.4235  158.8932 H   0  0  0  0  0  0  0  0  0  0  0  0
  151.9155  145.1665  157.2871 H   0  0  0  0  0  0  0  0  0  0  0  0
  153.2559  144.1581  157.8566 H   0  0  0  0  0  0  0  0  0  0  0  0
  151.1487  141.7357  155.5741 H   0  0  0  0  0  0  0  0  0  0  0  0
  149.7613  141.3396  154.6247 H   0  0  0  0  0  0  0  0  0  0  0  0
  148.9858  142.8360  155.9912 H   0  0  0  0  0  0  0  0  0  0  0  0
  1  2  1  0  0  0  0
  1 30  1  0  0  0  0
  1 31  1  0  0  0  0
  1 32  1  0  0  0  0
  2 29  1  0  0  0  0
  2  3  1  0  0  0  0
  2 33  1  0  0  0  0
  3  4  1  0  0  0  0
  3 34  1  0  0  0  0
  3 35  1  0  0  0  0
  4  5  1  0  0  0  0
  4 22  1  0  0  0  0
  5 10  1  0  0  0  0
  5  6  2  0  0  0  0
  6  7  1  0  0  0  0
  7  8  2  0  0  0  0
  7 36  1  0  0  0  0
  8  9  1  0  0  0  0
  9 13  1  0  0  0  0
  9 10  2  0  0  0  0
 10 11  1  0  0  0  0
 11 12  2  0  0  0  0
 12 13  1  0  0  0  0
 12 37  1  0  0  0  0
 13 14  1  0  0  0  0
 14 15  1  0  0  0  0
 14 38  1  0  0  0  0
 14 39  1  0  0  0  0
 15 21  1  0  0  0  0
 15 16  1  0  0  0  0
 15 17  1  0  0  0  0
 16 40  1  0  0  0  0
 17 18  1  0  0  0  0
 17 41  1  0  0  0  0
 17 42  1  0  0  0  0
 18 19  1  0  0  0  0
 18 43  1  0  0  0  0
 18 44  1  0  0  0  0
 19 20  1  0  0  0  0
 20 21  1  0  0  0  0
 20 45  1  0  0  0  0
 20 46  1  0  0  0  0
 21 47  1  0  0  0  0
 21 48  1  0  0  0  0
 22 23  1  0  0  0  0
 22 49  1  0  0  0  0
 22 50  1  0  0  0  0
 23 24  1  0  0  0  0
 23 51  1  0  0  0  0
 23 52  1  0  0  0  0
 24 25  1  0  0  0  0
 24 29  1  0  0  0  0
 24 62  1  0  0  0  0
 25 27  1  0  0  0  0
 25 26  1  0  0  0  0
 25 53  1  0  0  0  0
 26 27  1  0  0  0  0
 26 54  1  0  0  0  0
 26 55  1  0  0  0  0
 27 28  1  0  0  0  0
 27 56  1  0  0  0  0
 28 57  1  0  0  0  0
 28 58  1  0  0  0  0
 28 59  1  0  0  0  0
 29 60  1  0  0  0  0
 29 61  1  0  0  0  0
M  CHG  1  24   1
M  END
> <s_m_source_file>
AV-unprocessed.smi

> <i_m_source_file_index>
193

> <i_lp_mmshare_version>
43012

> <i_f3d_flags>
0

> <s_epik_input>
W0NIM11bQ0BASF0xW0NIMl1bQ0BIXTFOKFtDSDJdMilbQ0gyXVtDSDJdTihbQ0gyXVtDQEhdMltDSDNdKWMobltjSF1uMyljKGMzNCluW2NIXW40W0NIMl1DNShbT0hdKVtDSDJdW0NIMl1PW0NIMl1bQ0gyXTU=

> <s_epik_cmdline>
J2VwaWtfcHl0aG9uJywgJy1waCcsICc3LjAnLCAnLXRuJywgJzgnLCAnLW1hJywgJzIwMCcsICctbWV0YWxfYmluZGluZycsICctaW1hZScsICc8aW5maWxlLm1hZT4nLCAnLW9tYWUnLCAnPG91dGZpbGUubWFlPic=

> <r_lp_tautomer_probability>
1

> <r_epik_Ionization_Penalty>
0.0540825

> <r_epik_Ionization_Penalty_Charging>
0.0538476

> <r_epik_Ionization_Penalty_Neutral>
0.000234891

> <r_epik_State_Penalty>
0.0200719

> <r_epik_Charging_Adjusted_Penalty>
0.0739194

> <i_epik_Tot_Q>
1

> <i_epik_Tot_abs_Q>
1

> <r_epik_Metal_State_Penalty>
0.0199414

> <b_epik_Metal_Only>
0

> <s_lp_Force_Field>
OPLS_2005

> <r_lp_Energy>
55.8923

> <b_lp_Chiralities_Consistent>
1

> <s_lp_Variant>
AV-unprocessed.smi:193-15

> <Gold.Version>
5.8.1

> <Gold.Id.Protein>
6NUR|6NUR_protein|mol2

> <Gold.PLP.Fitness>
50.9423

> <Gold.PLP.PLP>
-39.9801

> <Gold.PLP.part.hbond>
-2.2977

> <Gold.PLP.part.metal>
0.0000

> <Gold.PLP.part.buried>
-4.1554

> <Gold.PLP.part.nonpolar>
-33.9977

> <Gold.PLP.part.repulsive>
0.3917

> <Gold.PLP.ligand.clash>
0.0000

> <Gold.PLP.ligand.torsion>
1.2802

> <Gold.PLP.Chemscore.Hbond>
2.9920

> <Gold.PLP.Chemscore.CHOScore>
0.9909

> <Gold.PLP.Chemscore.Metal>
0.0000

> <Gold.Chemscore.Hbonds>
donor molecule, donor type, donor heavy atom, donor atom, acceptor molecule, acceptor atom, score
      L1  H    16    40       P1  7921  0.72
      L1  H    24    62       P1  8028  2.00
      L1  C    12    37       P1 10171  0.56

> <Gold.PLP.Chemscore.Internal.Correction>
1.5738

> <Gold.Rescore>
     Score         DG    S(hbond)    S(metal)    S(lipo)     H(rot)  DE(clash)    DE(int)     intcor
     16.54     -18.54       1.95        0.00     104.14       2.20       0.21       1.79       ----

> <Gold.Chemscore.Fitness>
16.5405

> <Gold.Chemscore.DG>
-18.5417

> <Gold.Chemscore.ZeroCoef>
-5.4800

> <Gold.Chemscore.Hbond>
1.9504

> <Gold.Chemscore.Metal>
0.0000

> <Gold.Chemscore.Lipo>
104.1361

> <Gold.Chemscore.Internal_Hbond>
0.0000

> <Gold.Chemscore.DEClash>
0.2127

> <Gold.Chemscore.DEInternal>
1.7885

> <Gold.Chemscore.Rot>
2.2018

> <Gold.Chemscore.Internal.Correction>
   9.000000E+99

> <Gold.Chemscore.Hbonds>
donor molecule, donor type, donor heavy atom, donor atom, acceptor molecule, acceptor atom, score
      L1  H    16    40       P1  7921  0.65
      L1  H    24    62       P1  8028  0.94

> <Gold.Chemscore.Hbond.Weighted>
-6.5143

> <Gold.Chemscore.Metal.Weighted>
-0.0000

> <Gold.Chemscore.Lipo.Weighted>
-12.1839

> <Gold.Chemscore.Internal_Hbond.Weighted>
0.0000

> <Gold.Chemscore.DEClash.Weighted>
0.2127

> <Gold.Chemscore.DEInternal.Weighted>
1.7885

> <Gold.Chemscore.Rot.Weighted>
5.6366

> <Gold.Chemscore.Internal.Correction.Weighted>
   9.000000E+99

> <Gold.Protein.RotatedTorsions>
[ 6907 6896 6895 6894 ] final -104.84 input  -60.11 | X-H torsion
[ 7974 7965 7964 7962 ] final  132.87 input  175.53 | X-H torsion
[ 8008 7997 7996 7995 ] final   52.45 input   59.86 | X-H torsion
[ 10167 10162 10161 10158 ] final -114.21 input  -65.29 | X-H torsion
[ 10718 10713 10712 10709 ] final   10.30 input   66.30 | X-H torsion
[ 10763 10752 10751 10750 ] final   53.89 input  -60.55 | X-H torsion
[ 11005 11000 10999 10996 ] final   14.98 input  -57.11 | X-H torsion

> <Gold.Protein.ActiveResidues>
 VAL166  LYS551  ARG553  GLY616  TRP617  ASP618  TYR619  PRO620  LYS621  CYS622 
 ASP623  PHE694  ASN695  SER759  ASP760  ASP761  ALA762  ILE779  LEU786  VAL792 
 PHE793  MET794  SER795  GLU796  ALA797  LYS798  CYS799  TRP800  GLU811  SER814 

> <Gold.Protein.RotatedAtoms>
  150.7307  134.0217  159.3703 H   0  0  0  0  0  0  0  0  0  0  0  0  # atno 6907 bound_to 6896
  151.8182  135.0658  160.0431 H   0  0  0  0  0  0  0  0  0  0  0  0  # atno 6908 bound_to 6896
  152.3023  133.5631  159.5663 H   0  0  0  0  0  0  0  0  0  0  0  0  # atno 6909 bound_to 6896
  144.9923  139.4394  143.5333 H   0  0  0  0  0  0  0  0  0  0  0  0  # atno 7974 bound_to 7965
  155.4520  140.3458  155.4302 H   0  0  0  0  0  0  0  0  0  0  0  0  # atno 8008 bound_to 7997
  156.1214  140.1488  156.9228 H   0  0  0  0  0  0  0  0  0  0  0  0  # atno 8009 bound_to 7997
  154.4826  140.0865  156.7392 H   0  0  0  0  0  0  0  0  0  0  0  0  # atno 8010 bound_to 7997
  140.1034  143.4592  152.1798 H   0  0  0  0  0  0  0  0  0  0  0  0  # atno 10167 bound_to 10162
  156.9789  130.5998  149.5675 H   0  0  0  0  0  0  0  0  0  0  0  0  # atno 10718 bound_to 10713
  152.9799  135.5763  154.4814 H   0  0  0  0  0  0  0  0  0  0  0  0  # atno 10763 bound_to 10752
  154.4362  135.2775  155.1880 H   0  0  0  0  0  0  0  0  0  0  0  0  # atno 10764 bound_to 10752
  154.3568  135.6197  153.5724 H   0  0  0  0  0  0  0  0  0  0  0  0  # atno 10765 bound_to 10752
  140.4635  134.1104  155.7720 H   0  0  0  0  0  0  0  0  0  0  0  0  # atno 11005 bound_to 11000
  146.3434  139.9262  142.8760 LP  0  0  0  0  0  0  0  0  0  0  0  0  # atno 17320 bound_to 7965
  145.2268  140.9957  143.4014 LP  0  0  0  0  0  0  0  0  0  0  0  0  # atno 17321 bound_to 7965
  139.5659  144.7434  151.4025 LP  0  0  0  0  0  0  0  0  0  0  0  0  # atno 17342 bound_to 10162
  140.6965  143.7736  150.7335 LP  0  0  0  0  0  0  0  0  0  0  0  0  # atno 17343 bound_to 10162
  156.0252  130.5346  150.8387 LP  0  0  0  0  0  0  0  0  0  0  0  0  # atno 17370 bound_to 10713
  157.5540  131.0944  150.9655 LP  0  0  0  0  0  0  0  0  0  0  0  0  # atno 17371 bound_to 10713
  141.1610  133.8792  157.1847 LP  0  0  0  0  0  0  0  0  0  0  0  0  # atno 17394 bound_to 11000
  139.9930  135.0057  157.0019 LP  0  0  0  0  0  0  0  0  0  0  0  0  # atno 17395 bound_to 11000

$$$$
