AV-unprocessed.smi:2265|AV-procd|sdf|9144|dock5
  -GOLD-   2272012353D 1   1.00000     0.00000
 Structure written by MMmdl.
 36 37  0  0  0  0  0  0  0  0  1 V2000
  147.0882  145.1009  161.6305 C   0  0  0  0  0  0  0  0  0  0  0  0
  148.6193  145.0381  161.6405 C   0  0  0  0  0  0  0  0  0  0  0  0
  149.2263  145.2606  160.2491 C   0  0  0  0  0  0  0  0  0  0  0  0
  150.7432  145.1917  160.2642 C   0  0  1  0  0  0  0  0  0  0  0  0
  151.4586  143.8803  160.4525 C   0  0  0  0  0  0  0  0  0  0  0  0
  151.5382  144.5959  159.1192 C   0  0  1  0  0  0  0  0  0  0  0  0
  150.8451  143.9982  158.0168 N   0  0  0  0  0  0  0  0  0  0  0  0
  150.9474  142.7333  157.5712 C   0  0  0  0  0  0  0  0  0  0  0  0
  151.6761  141.9219  158.1418 O   0  0  0  0  0  0  0  0  0  0  0  0
  150.1614  142.4647  156.5051 N   0  0  0  0  0  0  0  0  0  0  0  0
  150.0050  141.2520  155.8229 C   0  0  0  0  0  0  0  0  0  0  0  0
  150.9193  140.3228  155.7951 N   0  0  0  0  0  0  0  0  0  0  0  0
  150.7283  139.1265  155.1036 C   0  0  0  0  0  0  0  0  0  0  0  0
  149.5858  138.8916  154.4335 C   0  0  0  0  0  0  0  0  0  0  0  0
  148.5583  139.8450  154.4146 N   0  0  0  0  0  0  0  0  0  0  0  0
  147.3350  139.5368  153.6734 C   0  0  0  0  0  0  0  0  0  0  0  0
  148.6876  141.0275  155.0754 C   0  0  0  0  0  0  0  0  0  0  0  0
  147.8106  141.8938  155.0923 O   0  0  0  0  0  0  0  0  0  0  0  0
  146.6860  144.9369  162.6303 H   0  0  0  0  0  0  0  0  0  0  0  0
  146.6669  144.3398  160.9732 H   0  0  0  0  0  0  0  0  0  0  0  0
  146.7366  146.0737  161.2859 H   0  0  0  0  0  0  0  0  0  0  0  0
  149.0046  145.7876  162.3326 H   0  0  0  0  0  0  0  0  0  0  0  0
  148.9371  144.0689  162.0268 H   0  0  0  0  0  0  0  0  0  0  0  0
  148.8325  144.5168  159.5557 H   0  0  0  0  0  0  0  0  0  0  0  0
  148.9309  146.2373  159.8642 H   0  0  0  0  0  0  0  0  0  0  0  0
  151.2037  146.0557  160.7399 H   0  0  0  0  0  0  0  0  0  0  0  0
  152.3488  143.8819  161.0781 H   0  0  0  0  0  0  0  0  0  0  0  0
  150.8523  142.9783  160.5118 H   0  0  0  0  0  0  0  0  0  0  0  0
  152.5036  145.0528  158.9068 H   0  0  0  0  0  0  0  0  0  0  0  0
  150.1444  144.5755  157.5746 H   0  0  0  0  0  0  0  0  0  0  0  0
  149.6082  143.2403  156.1709 H   0  0  0  0  0  0  0  0  0  0  0  0
  151.5370  138.4115  155.1366 H   0  0  0  0  0  0  0  0  0  0  0  0
  149.3918  137.9812  153.8853 H   0  0  0  0  0  0  0  0  0  0  0  0
  146.4911  139.4417  154.3579 H   0  0  0  0  0  0  0  0  0  0  0  0
  147.4113  138.6049  153.1122 H   0  0  0  0  0  0  0  0  0  0  0  0
  147.1056  140.3282  152.9584 H   0  0  0  0  0  0  0  0  0  0  0  0
  1  2  1  0  0  0  0
  1 19  1  0  0  0  0
  1 20  1  0  0  0  0
  1 21  1  0  0  0  0
  2  3  1  0  0  0  0
  2 22  1  0  0  0  0
  2 23  1  0  0  0  0
  3  4  1  0  0  0  0
  3 24  1  0  0  0  0
  3 25  1  0  0  0  0
  4  6  1  0  0  0  0
  4  5  1  0  0  0  0
  4 26  1  0  0  0  0
  5  6  1  0  0  0  0
  5 27  1  0  0  0  0
  5 28  1  0  0  0  0
  6  7  1  0  0  0  0
  6 29  1  0  0  0  0
  7  8  1  0  0  0  0
  7 30  1  0  0  0  0
  8  9  2  0  0  0  0
  8 10  1  0  0  0  0
 10 11  1  0  0  0  0
 10 31  1  0  0  0  0
 11 17  1  0  0  0  0
 11 12  2  0  0  0  0
 12 13  1  0  0  0  0
 13 14  2  0  0  0  0
 13 32  1  0  0  0  0
 14 15  1  0  0  0  0
 14 33  1  0  0  0  0
 15 16  1  0  0  0  0
 15 17  1  0  0  0  0
 16 34  1  0  0  0  0
 16 35  1  0  0  0  0
 16 36  1  0  0  0  0
 17 18  2  0  0  0  0
M  END
> <s_m_source_file>
AV-unprocessed.smi

> <i_m_source_file_index>
2265

> <i_lp_mmshare_version>
43012

> <i_f3d_flags>
0

> <s_epik_input>
W0NIM11bQ0gyXVtDSDJdW0NAQEhdMVtDSDJdW0NASF0xW05IXUMoPU8pW05IXWMybltjSF1bY0hdbihbQ0gzXSljMj1P

> <s_epik_cmdline>
J2VwaWtfcHl0aG9uJywgJy1waCcsICc3LjAnLCAnLXRuJywgJzgnLCAnLW1hJywgJzIwMCcsICctbWV0YWxfYmluZGluZycsICctaW1hZScsICc8aW5maWxlLm1hZT4nLCAnLW9tYWUnLCAnPG91dGZpbGUubWFlPic=

> <r_lp_tautomer_probability>
1

> <r_epik_Ionization_Penalty>
0.000728552

> <r_epik_Ionization_Penalty_Charging>
1.67739e-07

> <r_epik_Ionization_Penalty_Neutral>
0.000728385

> <r_epik_State_Penalty>
-0

> <r_epik_Charging_Adjusted_Penalty>
1.67739e-07

> <i_epik_Tot_Q>
0

> <i_epik_Tot_abs_Q>
0

> <r_epik_Metal_State_Penalty>
-0

> <b_epik_Metal_Only>
0

> <s_lp_Force_Field>
OPLS_2005

> <r_lp_Energy>
43.9495

> <b_lp_Chiralities_Consistent>
1

> <s_lp_Variant>
AV-unprocessed.smi:2265-2

> <Gold.Version>
5.8.1

> <Gold.Id.Protein>
6NUR|6NUR_protein|mol2

> <Gold.PLP.Fitness>
48.2053

> <Gold.PLP.PLP>
-39.0880

> <Gold.PLP.part.hbond>
-3.0000

> <Gold.PLP.part.metal>
0.0000

> <Gold.PLP.part.buried>
-1.4996

> <Gold.PLP.part.nonpolar>
-34.4425

> <Gold.PLP.part.repulsive>
0.3096

> <Gold.PLP.ligand.clash>
0.0000

> <Gold.PLP.ligand.torsion>
0.4455

> <Gold.PLP.Chemscore.Hbond>
2.1502

> <Gold.PLP.Chemscore.CHOScore>
1.0000

> <Gold.PLP.Chemscore.Metal>
0.0000

> <Gold.Chemscore.Hbonds>
donor molecule, donor type, donor heavy atom, donor atom, acceptor molecule, acceptor atom, score
      L1  H     7    30       P1  8028  0.36
      L1  H    10    31       P1  8028  1.00
      L1  C    14    33       P1  7948  0.62

> <Gold.PLP.Chemscore.Internal.Correction>
0.5578

> <Gold.Rescore>
     Score         DG    S(hbond)    S(metal)    S(lipo)     H(rot)  DE(clash)    DE(int)     intcor
     12.77     -16.75       1.81        0.00      76.60       1.46       1.30       2.68       ----

> <Gold.Chemscore.Fitness>
12.7736

> <Gold.Chemscore.DG>
-16.7477

> <Gold.Chemscore.ZeroCoef>
-5.4800

> <Gold.Chemscore.Hbond>
1.8098

> <Gold.Chemscore.Metal>
0.0000

> <Gold.Chemscore.Lipo>
76.5975

> <Gold.Chemscore.Internal_Hbond>
0.0000

> <Gold.Chemscore.DEClash>
1.2988

> <Gold.Chemscore.DEInternal>
2.6753

> <Gold.Chemscore.Rot>
1.4604

> <Gold.Chemscore.Internal.Correction>
   9.000000E+99

> <Gold.Chemscore.Hbonds>
donor molecule, donor type, donor heavy atom, donor atom, acceptor molecule, acceptor atom, score
      L1  H     7    30       P1  8028  0.08
      L1  H    10    31       P1  8028  1.00

> <Gold.Chemscore.Hbond.Weighted>
-6.0446

> <Gold.Chemscore.Metal.Weighted>
-0.0000

> <Gold.Chemscore.Lipo.Weighted>
-8.9619

> <Gold.Chemscore.Internal_Hbond.Weighted>
0.0000

> <Gold.Chemscore.DEClash.Weighted>
1.2988

> <Gold.Chemscore.DEInternal.Weighted>
2.6753

> <Gold.Chemscore.Rot.Weighted>
3.7387

> <Gold.Chemscore.Internal.Correction.Weighted>
   9.000000E+99

> <Gold.Protein.RotatedTorsions>
[ 6907 6896 6895 6894 ] final  -16.16 input  -60.11 | X-H torsion
[ 7974 7965 7964 7962 ] final -133.00 input  175.53 | X-H torsion
[ 8008 7997 7996 7995 ] final   53.52 input   59.86 | X-H torsion
[ 10167 10162 10161 10158 ] final   99.66 input  -65.29 | X-H torsion
[ 10718 10713 10712 10709 ] final -111.91 input   66.30 | X-H torsion
[ 10763 10752 10751 10750 ] final  -64.73 input  -60.55 | X-H torsion
[ 11005 11000 10999 10996 ] final   22.77 input  -57.11 | X-H torsion

> <Gold.Protein.ActiveResidues>
 VAL166  LYS551  ARG553  GLY616  TRP617  ASP618  TYR619  PRO620  LYS621  CYS622 
 ASP623  PHE694  ASN695  SER759  ASP760  ASP761  ALA762  ILE779  LEU786  VAL792 
 PHE793  MET794  SER795  GLU796  ALA797  LYS798  CYS799  TRP800  GLU811  SER814 

> <Gold.Protein.RotatedAtoms>
  151.3128  135.0798  159.9278 H   0  0  0  0  0  0  0  0  0  0  0  0  # atno 6907 bound_to 6896
  152.5274  133.9718  159.7776 H   0  0  0  0  0  0  0  0  0  0  0  0  # atno 6908 bound_to 6896
  151.0025  133.5990  159.2723 H   0  0  0  0  0  0  0  0  0  0  0  0  # atno 6909 bound_to 6896
  144.9233  140.7040  143.4952 H   0  0  0  0  0  0  0  0  0  0  0  0  # atno 7974 bound_to 7965
  155.4697  140.3465  155.4324 H   0  0  0  0  0  0  0  0  0  0  0  0  # atno 8008 bound_to 7997
  156.1108  140.1460  156.9370 H   0  0  0  0  0  0  0  0  0  0  0  0  # atno 8009 bound_to 7997
  154.4755  140.0886  156.7230 H   0  0  0  0  0  0  0  0  0  0  0  0  # atno 8010 bound_to 7997
  139.7597  144.6958  151.0310 H   0  0  0  0  0  0  0  0  0  0  0  0  # atno 10167 bound_to 10162
  156.0674  130.5892  150.8437 H   0  0  0  0  0  0  0  0  0  0  0  0  # atno 10718 bound_to 10713
  154.3345  135.6169  153.5567 H   0  0  0  0  0  0  0  0  0  0  0  0  # atno 10763 bound_to 10752
  152.9809  135.5754  154.4924 H   0  0  0  0  0  0  0  0  0  0  0  0  # atno 10764 bound_to 10752
  154.4616  135.2856  155.1685 H   0  0  0  0  0  0  0  0  0  0  0  0  # atno 10765 bound_to 10752
  140.3769  134.1962  155.7664 H   0  0  0  0  0  0  0  0  0  0  0  0  # atno 11005 bound_to 11000
  145.3260  139.1774  143.4562 LP  0  0  0  0  0  0  0  0  0  0  0  0  # atno 17320 bound_to 7965
  146.3214  140.3284  142.8638 LP  0  0  0  0  0  0  0  0  0  0  0  0  # atno 17321 bound_to 7965
  140.7806  143.4711  151.0145 LP  0  0  0  0  0  0  0  0  0  0  0  0  # atno 17342 bound_to 10162
  139.8397  143.7580  152.3180 LP  0  0  0  0  0  0  0  0  0  0  0  0  # atno 17343 bound_to 10162
  157.5725  131.0946  150.9396 LP  0  0  0  0  0  0  0  0  0  0  0  0  # atno 17370 bound_to 10713
  156.9609  130.5455  149.5286 LP  0  0  0  0  0  0  0  0  0  0  0  0  # atno 17371 bound_to 10713
  141.1936  133.8147  157.0791 LP  0  0  0  0  0  0  0  0  0  0  0  0  # atno 17394 bound_to 11000
  140.0508  134.9806  157.1133 LP  0  0  0  0  0  0  0  0  0  0  0  0  # atno 17395 bound_to 11000

$$$$
