AV-unprocessed.smi:2158|AV-procd|sdf|8790|dock2
  -GOLD-   2272011573D 1   1.00000     0.00000
 Structure written by MMmdl.
 30 30  0  0  0  0  0  0  0  0  2 V2000
  152.4235  144.6534  158.3987 C   0  0  0  0  0  0  0  0  0  0  0  0
  152.2104  144.5316  159.9147 C   0  0  0  0  0  0  0  0  0  0  0  0
  152.7309  143.2090  160.5073 C   0  0  1  0  0  0  0  0  0  0  0  0
  152.6288  143.1956  162.0407 C   0  0  0  0  0  0  0  0  0  0  0  0
  151.9893  142.0823  159.9469 N   0  0  0  0  0  0  0  0  0  0  0  0
  152.5139  141.0928  159.2085 C   0  0  0  0  0  0  0  0  0  0  0  0
  153.7135  141.0105  158.9413 O   0  0  0  0  0  0  0  0  0  0  0  0
  151.5294  140.0184  158.7280 C   0  0  0  0  0  0  0  0  0  0  0  0
  150.9286  140.3372  157.4234 N   0  0  0  0  0  0  0  0  0  0  0  0
  149.6822  140.9882  157.4183 C   0  0  0  0  0  0  0  0  0  0  0  0
  149.0564  141.3151  156.2717 C   0  0  0  0  0  0  0  0  0  0  0  0
  149.7043  140.9761  155.0108 C   0  0  0  0  0  0  0  0  0  0  0  0
  149.1487  141.2703  153.9542 O   0  0  0  0  0  0  0  0  0  0  0  0
  150.9116  140.3408  155.0680 N   0  5  0  0  0  0  0  0  0  0  0  0
  151.5351  140.0121  156.2420 C   0  0  0  0  0  0  0  0  0  0  0  0
  152.6233  139.4357  156.2715 O   0  0  0  0  0  0  0  0  0  0  0  0
  152.0822  145.6235  158.0373 H   0  0  0  0  0  0  0  0  0  0  0  0
  151.8740  143.8866  157.8519 H   0  0  0  0  0  0  0  0  0  0  0  0
  153.4786  144.5560  158.1420 H   0  0  0  0  0  0  0  0  0  0  0  0
  152.7145  145.3660  160.4035 H   0  0  0  0  0  0  0  0  0  0  0  0
  151.1490  144.6454  160.1397 H   0  0  0  0  0  0  0  0  0  0  0  0
  153.7843  143.1151  160.2357 H   0  0  0  0  0  0  0  0  0  0  0  0
  153.1928  144.0198  162.4777 H   0  0  0  0  0  0  0  0  0  0  0  0
  153.0300  142.2702  162.4555 H   0  0  0  0  0  0  0  0  0  0  0  0
  151.5936  143.2880  162.3710 H   0  0  0  0  0  0  0  0  0  0  0  0
  150.9943  142.0647  160.1164 H   0  0  0  0  0  0  0  0  0  0  0  0
  152.0631  139.0684  158.6798 H   0  0  0  0  0  0  0  0  0  0  0  0
  150.7469  139.8695  159.4745 H   0  0  0  0  0  0  0  0  0  0  0  0
  149.2679  141.1966  158.3938 H   0  0  0  0  0  0  0  0  0  0  0  0
  148.0978  141.8124  156.2850 H   0  0  0  0  0  0  0  0  0  0  0  0
  1  2  1  0  0  0  0
  1 17  1  0  0  0  0
  1 18  1  0  0  0  0
  1 19  1  0  0  0  0
  2  3  1  0  0  0  0
  2 20  1  0  0  0  0
  2 21  1  0  0  0  0
  3  4  1  0  0  0  0
  3  5  1  0  0  0  0
  3 22  1  0  0  0  0
  4 23  1  0  0  0  0
  4 24  1  0  0  0  0
  4 25  1  0  0  0  0
  5  6  1  0  0  0  0
  5 26  1  0  0  0  0
  6  7  2  0  0  0  0
  6  8  1  0  0  0  0
  8  9  1  0  0  0  0
  8 27  1  0  0  0  0
  8 28  1  0  0  0  0
  9 15  1  0  0  0  0
  9 10  1  0  0  0  0
 10 11  2  0  0  0  0
 10 29  1  0  0  0  0
 11 12  1  0  0  0  0
 11 30  1  0  0  0  0
 12 13  2  0  0  0  0
 12 14  1  0  0  0  0
 14 15  1  0  0  0  0
 15 16  2  0  0  0  0
M  CHG  1  14  -1
M  END
> <s_m_source_file>
AV-unprocessed.smi

> <i_m_source_file_index>
2158

> <i_lp_mmshare_version>
43012

> <i_f3d_flags>
0

> <s_epik_input>
W0NIM11bQ0gyXVtDQEhdKFtDSDNdKVtOSF1DKD1PKVtDSDJdbjFbY0hdW2NIXWMoPU8pW25IXWMxPU8=

> <s_epik_cmdline>
J2VwaWtfcHl0aG9uJywgJy1waCcsICc3LjAnLCAnLXRuJywgJzgnLCAnLW1hJywgJzIwMCcsICctbWV0YWxfYmluZGluZycsICctaW1hZScsICc8aW5maWxlLm1hZT4nLCAnLW9tYWUnLCAnPG91dGZpbGUubWFlPic=

> <r_lp_tautomer_probability>
0.999537

> <r_epik_Ionization_Penalty>
3.08395

> <r_epik_Ionization_Penalty_Charging>
2.76809e-08

> <r_epik_Ionization_Penalty_Neutral>
3.08395

> <r_epik_State_Penalty>
3.08299

> <r_epik_Charging_Adjusted_Penalty>
3.08299

> <i_epik_Tot_Q>
-1

> <i_epik_Tot_abs_Q>
1

> <r_epik_Metal_State_Penalty>
0.460296

> <b_epik_Metal_Only>
1

> <s_lp_Force_Field>
OPLS_2005

> <r_lp_Energy>
11.8207

> <b_lp_Chiralities_Consistent>
1

> <s_lp_Variant>
AV-unprocessed.smi:2158-4

> <Gold.Version>
5.8.1

> <Gold.Id.Protein>
6NUR|6NUR_protein|mol2

> <Gold.PLP.Fitness>
42.4133

> <Gold.PLP.PLP>
-35.5791

> <Gold.PLP.part.hbond>
-5.0000

> <Gold.PLP.part.metal>
0.0000

> <Gold.PLP.part.buried>
-2.2398

> <Gold.PLP.part.nonpolar>
-28.4794

> <Gold.PLP.part.repulsive>
0.7345

> <Gold.PLP.ligand.clash>
0.0000

> <Gold.PLP.ligand.torsion>
0.7447

> <Gold.PLP.Chemscore.Hbond>
2.7680

> <Gold.PLP.Chemscore.CHOScore>
0.0000

> <Gold.PLP.Chemscore.Metal>
0.0000

> <Gold.Chemscore.Hbonds>
donor molecule, donor type, donor heavy atom, donor atom, acceptor molecule, acceptor atom, score
      P1  H  7989  7998       L1    14  1.00
      P1  H  7997  8009       L1    16  1.00
      P1  H  8011  8017       L1    13  0.69

> <Gold.PLP.Chemscore.Internal.Correction>
0.0196

> <Gold.Rescore>
     Score         DG    S(hbond)    S(metal)    S(lipo)     H(rot)  DE(clash)    DE(int)     intcor
     14.01     -15.94       2.33        0.00      65.48       1.94       1.17       0.77       ----

> <Gold.Chemscore.Fitness>
14.0065

> <Gold.Chemscore.DG>
-15.9406

> <Gold.Chemscore.ZeroCoef>
-5.4800

> <Gold.Chemscore.Hbond>
2.3290

> <Gold.Chemscore.Metal>
0.0000

> <Gold.Chemscore.Lipo>
65.4768

> <Gold.Chemscore.Internal_Hbond>
0.0000

> <Gold.Chemscore.DEClash>
1.1689

> <Gold.Chemscore.DEInternal>
0.7651

> <Gold.Chemscore.Rot>
1.9449

> <Gold.Chemscore.Internal.Correction>
   9.000000E+99

> <Gold.Chemscore.Hbonds>
donor molecule, donor type, donor heavy atom, donor atom, acceptor molecule, acceptor atom, score
      P1  H  7989  7998       L1    14  0.25
      P1  H  7997  8009       L1    16  1.00
      P1  H  8011  8017       L1    13  0.67

> <Gold.Chemscore.Hbond.Weighted>
-7.7789

> <Gold.Chemscore.Metal.Weighted>
-0.0000

> <Gold.Chemscore.Lipo.Weighted>
-7.6608

> <Gold.Chemscore.Internal_Hbond.Weighted>
0.0000

> <Gold.Chemscore.DEClash.Weighted>
1.1689

> <Gold.Chemscore.DEInternal.Weighted>
0.7651

> <Gold.Chemscore.Rot.Weighted>
4.9791

> <Gold.Chemscore.Internal.Correction.Weighted>
   9.000000E+99

> <Gold.Protein.RotatedTorsions>
[ 6907 6896 6895 6894 ] final   -3.26 input  -60.11 | X-H torsion
[ 7974 7965 7964 7962 ] final -172.00 input  175.53 | X-H torsion
[ 8008 7997 7996 7995 ] final -159.23 input   59.86 | X-H torsion
[ 10167 10162 10161 10158 ] final -165.47 input  -65.29 | X-H torsion
[ 10718 10713 10712 10709 ] final  -11.59 input   66.30 | X-H torsion
[ 10763 10752 10751 10750 ] final  -93.58 input  -60.55 | X-H torsion
[ 11005 11000 10999 10996 ] final   37.54 input  -57.11 | X-H torsion

> <Gold.Protein.ActiveResidues>
 VAL166  LYS551  ARG553  GLY616  TRP617  ASP618  TYR619  PRO620  LYS621  CYS622 
 ASP623  PHE694  ASN695  SER759  ASP760  ASP761  ALA762  ILE779  LEU786  VAL792 
 PHE793  MET794  SER795  GLU796  ALA797  LYS798  CYS799  TRP800  GLU811  SER814 

> <Gold.Protein.RotatedAtoms>
  151.5167  135.1066  159.9867 H   0  0  0  0  0  0  0  0  0  0  0  0  # atno 6907 bound_to 6896
  152.4638  133.7875  159.6894 H   0  0  0  0  0  0  0  0  0  0  0  0  # atno 6908 bound_to 6896
  150.8612  133.7576  159.3017 H   0  0  0  0  0  0  0  0  0  0  0  0  # atno 6909 bound_to 6896
  144.7151  140.1838  143.6355 H   0  0  0  0  0  0  0  0  0  0  0  0  # atno 7974 bound_to 7965
  155.7595  140.0837  157.2162 H   0  0  0  0  0  0  0  0  0  0  0  0  # atno 8008 bound_to 7997
  154.4005  140.1545  156.2873 H   0  0  0  0  0  0  0  0  0  0  0  0  # atno 8009 bound_to 7997
  155.8853  140.3418  155.5920 H   0  0  0  0  0  0  0  0  0  0  0  0  # atno 8010 bound_to 7997
  139.6180  144.0681  152.1906 H   0  0  0  0  0  0  0  0  0  0  0  0  # atno 10167 bound_to 10162
  156.6568  130.4970  149.6043 H   0  0  0  0  0  0  0  0  0  0  0  0  # atno 10718 bound_to 10713
  154.6972  135.5189  153.8476 H   0  0  0  0  0  0  0  0  0  0  0  0  # atno 10763 bound_to 10752
  153.0676  135.6590  154.0328 H   0  0  0  0  0  0  0  0  0  0  0  0  # atno 10764 bound_to 10752
  154.0192  135.2995  155.3362 H   0  0  0  0  0  0  0  0  0  0  0  0  # atno 10765 bound_to 10752
  140.2216  134.3634  155.8002 H   0  0  0  0  0  0  0  0  0  0  0  0  # atno 11005 bound_to 11000
  145.8832  139.2334  143.1593 LP  0  0  0  0  0  0  0  0  0  0  0  0  # atno 17320 bound_to 7965
  145.9975  140.8549  143.0035 LP  0  0  0  0  0  0  0  0  0  0  0  0  # atno 17321 bound_to 7965
  140.0316  144.6076  150.7483 LP  0  0  0  0  0  0  0  0  0  0  0  0  # atno 17342 bound_to 10162
  140.7363  143.2752  151.3764 LP  0  0  0  0  0  0  0  0  0  0  0  0  # atno 17343 bound_to 10162
  156.2042  130.6638  151.1200 LP  0  0  0  0  0  0  0  0  0  0  0  0  # atno 17370 bound_to 10713
  157.7123  131.0728  150.6457 LP  0  0  0  0  0  0  0  0  0  0  0  0  # atno 17371 bound_to 10713
  141.2223  133.7196  156.8584 LP  0  0  0  0  0  0  0  0  0  0  0  0  # atno 17394 bound_to 11000
  140.1844  134.9010  157.2987 LP  0  0  0  0  0  0  0  0  0  0  0  0  # atno 17395 bound_to 11000

$$$$
