AV-unprocessed.smi:311|AV-procd|sdf|2301|dock3
  -GOLD-   2262022203D 1   1.00000     0.00000
 Structure written by MMmdl.
 44 46  0  0  0  0  0  0  0  0  2 V2000
  151.8780  138.7462  154.4301 C   0  0  0  0  0  0  0  0  0  0  0  0
  151.7734  139.7818  155.5128 C   0  0  0  0  0  0  0  0  0  0  0  0
  152.6987  139.8357  156.4560 N   0  0  0  0  0  0  0  0  0  0  0  0
  152.3189  140.8790  157.3061 O   0  0  0  0  0  0  0  0  0  0  0  0
  151.1645  141.4169  156.8364 C   0  0  0  0  0  0  0  0  0  0  0  0
  150.5850  142.5489  157.6153 C   0  0  0  0  0  0  0  0  0  0  0  0
  150.7639  140.7696  155.7001 C   0  0  0  0  0  0  0  0  0  0  0  0
  149.5462  141.0293  154.8509 C   0  0  0  0  0  0  0  0  0  0  0  0
  148.4139  140.0894  155.2677 C   0  0  0  0  0  0  0  0  0  0  0  0
  148.0502  140.0435  156.4429 O   0  0  0  0  0  0  0  0  0  0  0  0
  147.8653  139.3422  154.2968 N   0  0  0  0  0  0  0  0  0  0  0  0
  146.8180  138.3417  154.4941 C   0  0  2  0  0  0  0  0  0  0  0  0
  147.3219  137.0743  155.2094 C   0  0  0  0  0  0  0  0  0  0  0  0
  146.5913  135.9226  154.5111 C   0  0  0  0  0  0  0  0  0  0  0  0
  146.4818  136.3976  153.1271 N   0  3  1  0  0  0  0  0  0  0  0  0
  145.6149  135.6565  152.1890 C   0  0  0  0  0  0  0  0  0  0  0  0
  145.8286  136.2330  150.7728 C   0  0  0  0  0  0  0  0  0  0  0  0
  145.6537  137.7684  150.7318 C   0  0  0  0  0  0  0  0  0  0  0  0
  146.4857  138.4728  151.8259 C   0  0  0  0  0  0  0  0  0  0  0  0
  146.1597  137.8340  153.1880 C   0  0  2  0  0  0  0  0  0  0  0  0
  151.5918  139.1597  153.4631 H   0  0  0  0  0  0  0  0  0  0  0  0
  151.2216  137.9009  154.6372 H   0  0  0  0  0  0  0  0  0  0  0  0
  152.8944  138.3627  154.3360 H   0  0  0  0  0  0  0  0  0  0  0  0
  149.5315  142.3688  157.8294 H   0  0  0  0  0  0  0  0  0  0  0  0
  150.6619  143.4807  157.0552 H   0  0  0  0  0  0  0  0  0  0  0  0
  151.1038  142.6809  158.5650 H   0  0  0  0  0  0  0  0  0  0  0  0
  149.1964  142.0563  154.9601 H   0  0  0  0  0  0  0  0  0  0  0  0
  149.7708  140.8984  153.7914 H   0  0  0  0  0  0  0  0  0  0  0  0
  148.2243  139.4507  153.3591 H   0  0  0  0  0  0  0  0  0  0  0  0
  146.0364  138.7804  155.1180 H   0  0  0  0  0  0  0  0  0  0  0  0
  148.3972  136.9587  155.0624 H   0  0  0  0  0  0  0  0  0  0  0  0
  147.1369  137.0956  156.2839 H   0  0  0  0  0  0  0  0  0  0  0  0
  147.1312  134.9775  154.5781 H   0  0  0  0  0  0  0  0  0  0  0  0
  145.5950  135.7855  154.9346 H   0  0  0  0  0  0  0  0  0  0  0  0
  145.8717  134.5967  152.2065 H   0  0  0  0  0  0  0  0  0  0  0  0
  144.5703  135.7430  152.4921 H   0  0  0  0  0  0  0  0  0  0  0  0
  146.8351  135.9821  150.4351 H   0  0  0  0  0  0  0  0  0  0  0  0
  145.1440  135.7594  150.0684 H   0  0  0  0  0  0  0  0  0  0  0  0
  145.9277  138.1506  149.7480 H   0  0  0  0  0  0  0  0  0  0  0  0
  144.5995  138.0109  150.8719 H   0  0  0  0  0  0  0  0  0  0  0  0
  147.5503  138.3804  151.6063 H   0  0  0  0  0  0  0  0  0  0  0  0
  146.2520  139.5376  151.8332 H   0  0  0  0  0  0  0  0  0  0  0  0
  145.0819  137.9202  153.3426 H   0  0  0  0  0  0  0  0  0  0  0  0
  147.4183  136.3404  152.7529 H   0  0  0  0  0  0  0  0  0  0  0  0
  1  2  1  0  0  0  0
  1 21  1  0  0  0  0
  1 22  1  0  0  0  0
  1 23  1  0  0  0  0
  2  7  1  0  0  0  0
  2  3  2  0  0  0  0
  3  4  1  0  0  0  0
  4  5  1  0  0  0  0
  5  6  1  0  0  0  0
  5  7  2  0  0  0  0
  6 24  1  0  0  0  0
  6 25  1  0  0  0  0
  6 26  1  0  0  0  0
  7  8  1  0  0  0  0
  8  9  1  0  0  0  0
  8 27  1  0  0  0  0
  8 28  1  0  0  0  0
  9 10  2  0  0  0  0
  9 11  1  0  0  0  0
 11 12  1  0  0  0  0
 11 29  1  0  0  0  0
 12 20  1  0  0  0  0
 12 13  1  0  0  0  0
 12 30  1  0  0  0  0
 13 14  1  0  0  0  0
 13 31  1  0  0  0  0
 13 32  1  0  0  0  0
 14 15  1  0  0  0  0
 14 33  1  0  0  0  0
 14 34  1  0  0  0  0
 15 20  1  0  0  0  0
 15 16  1  0  0  0  0
 15 44  1  0  0  0  0
 16 17  1  0  0  0  0
 16 35  1  0  0  0  0
 16 36  1  0  0  0  0
 17 18  1  0  0  0  0
 17 37  1  0  0  0  0
 17 38  1  0  0  0  0
 18 19  1  0  0  0  0
 18 39  1  0  0  0  0
 18 40  1  0  0  0  0
 19 20  1  0  0  0  0
 19 41  1  0  0  0  0
 19 42  1  0  0  0  0
 20 43  1  0  0  0  0
M  CHG  1  15   1
M  END
> <s_m_source_file>
AV-unprocessed.smi

> <i_m_source_file_index>
311

> <i_lp_mmshare_version>
43012

> <i_f3d_flags>
0

> <s_epik_input>
W0NIM11jMW5vYyhbQ0gzXSljMVtDSDJdQyg9TylbTkhdW0NASF0oW0NIMl1bQ0gyXTIpW0NAQEhdKE4yMylbQ0gyXVtDSDJdW0NIMl1bQ0gyXTM=

> <s_epik_cmdline>
J2VwaWtfcHl0aG9uJywgJy1waCcsICc3LjAnLCAnLXRuJywgJzgnLCAnLW1hJywgJzIwMCcsICctbWV0YWxfYmluZGluZycsICctaW1hZScsICc8aW5maWxlLm1hZT4nLCAnLW9tYWUnLCAnPG91dGZpbGUubWFlPic=

> <r_epik_Ionization_Penalty>
0.00173669

> <r_epik_Ionization_Penalty_Charging>
0.0017366

> <r_epik_Ionization_Penalty_Neutral>
9.2145e-08

> <r_epik_State_Penalty>
0.00117499

> <r_epik_Charging_Adjusted_Penalty>
0.00291159

> <i_epik_Tot_Q>
1

> <i_epik_Tot_abs_Q>
1

> <r_epik_Metal_State_Penalty>
-0

> <b_epik_Metal_Only>
0

> <s_lp_Force_Field>
OPLS_2005

> <r_lp_Energy>
35.7975

> <b_lp_Chiralities_Consistent>
1

> <s_lp_Variant>
AV-unprocessed.smi:311-5

> <Gold.Version>
5.8.1

> <Gold.Id.Protein>
6NUR|6NUR_protein|mol2

> <Gold.PLP.Fitness>
35.4360

> <Gold.PLP.PLP>
-27.4401

> <Gold.PLP.part.hbond>
-2.8211

> <Gold.PLP.part.metal>
0.0000

> <Gold.PLP.part.buried>
4.0208

> <Gold.PLP.part.nonpolar>
-29.4293

> <Gold.PLP.part.repulsive>
0.0000

> <Gold.PLP.ligand.clash>
0.0000

> <Gold.PLP.ligand.torsion>
0.5034

> <Gold.PLP.Chemscore.Hbond>
3.0000

> <Gold.PLP.Chemscore.CHOScore>
0.0000

> <Gold.PLP.Chemscore.Metal>
0.0000

> <Gold.Chemscore.Hbonds>
donor molecule, donor type, donor heavy atom, donor atom, acceptor molecule, acceptor atom, score
      L1  H    15    44       P1  7948  2.00
      P1  H  7997  8008       L1     3  1.00

> <Gold.PLP.Chemscore.Internal.Correction>
0.0027

> <Gold.Rescore>
     Score         DG    S(hbond)    S(metal)    S(lipo)     H(rot)  DE(clash)    DE(int)     intcor
     15.13     -17.91       1.81        0.00      84.38       1.36       2.20       0.57       ----

> <Gold.Chemscore.Fitness>
15.1347

> <Gold.Chemscore.DG>
-17.9092

> <Gold.Chemscore.ZeroCoef>
-5.4800

> <Gold.Chemscore.Hbond>
1.8053

> <Gold.Chemscore.Metal>
0.0000

> <Gold.Chemscore.Lipo>
84.3801

> <Gold.Chemscore.Internal_Hbond>
0.0000

> <Gold.Chemscore.DEClash>
2.2033

> <Gold.Chemscore.DEInternal>
0.5712

> <Gold.Chemscore.Rot>
1.3567

> <Gold.Chemscore.Internal.Correction>
   9.000000E+99

> <Gold.Chemscore.Hbonds>
donor molecule, donor type, donor heavy atom, donor atom, acceptor molecule, acceptor atom, score
      L1  H    15    44       P1  7948  1.00
      P1  H  7997  8008       L1     3  0.34

> <Gold.Chemscore.Hbond.Weighted>
-6.0298

> <Gold.Chemscore.Metal.Weighted>
-0.0000

> <Gold.Chemscore.Lipo.Weighted>
-9.8725

> <Gold.Chemscore.Internal_Hbond.Weighted>
0.0000

> <Gold.Chemscore.DEClash.Weighted>
2.2033

> <Gold.Chemscore.DEInternal.Weighted>
0.5712

> <Gold.Chemscore.Rot.Weighted>
3.4731

> <Gold.Chemscore.Internal.Correction.Weighted>
   9.000000E+99

> <Gold.Protein.RotatedTorsions>
[ 6907 6896 6895 6894 ] final -117.08 input  -60.11 | X-H torsion
[ 7974 7965 7964 7962 ] final   76.26 input  175.53 | X-H torsion
[ 8008 7997 7996 7995 ] final  -34.73 input   59.86 | X-H torsion
[ 10167 10162 10161 10158 ] final  -85.30 input  -65.29 | X-H torsion
[ 10718 10713 10712 10709 ] final -142.52 input   66.30 | X-H torsion
[ 10763 10752 10751 10750 ] final  140.44 input  -60.55 | X-H torsion
[ 11005 11000 10999 10996 ] final  176.42 input  -57.11 | X-H torsion

> <Gold.Protein.ActiveResidues>
 VAL166  LYS551  ARG553  GLY616  TRP617  ASP618  TYR619  PRO620  LYS621  CYS622 
 ASP623  PHE694  ASN695  SER759  ASP760  ASP761  ALA762  ILE779  LEU786  VAL792 
 PHE793  MET794  SER795  GLU796  ALA797  LYS798  CYS799  TRP800  GLU811  SER814 

> <Gold.Protein.RotatedAtoms>
  150.8108  133.8426  159.3183 H   0  0  0  0  0  0  0  0  0  0  0  0  # atno 6907 bound_to 6896
  151.6212  135.1030  160.0111 H   0  0  0  0  0  0  0  0  0  0  0  0  # atno 6908 bound_to 6896
  152.4199  133.7059  159.6508 H   0  0  0  0  0  0  0  0  0  0  0  0  # atno 6909 bound_to 6896
  145.7051  139.2595  143.1683 H   0  0  0  0  0  0  0  0  0  0  0  0  # atno 7974 bound_to 7965
  154.4113  140.1676  156.2097 H   0  0  0  0  0  0  0  0  0  0  0  0  # atno 8008 bound_to 7997
  155.9455  140.3405  155.6340 H   0  0  0  0  0  0  0  0  0  0  0  0  # atno 8009 bound_to 7997
  155.6936  140.0736  157.2429 H   0  0  0  0  0  0  0  0  0  0  0  0  # atno 8010 bound_to 7997
  140.4050  143.2646  151.9093 H   0  0  0  0  0  0  0  0  0  0  0  0  # atno 10167 bound_to 10162
  156.3469  130.7667  151.1813 H   0  0  0  0  0  0  0  0  0  0  0  0  # atno 10718 bound_to 10713
  153.9228  135.2998  155.3447 H   0  0  0  0  0  0  0  0  0  0  0  0  # atno 10763 bound_to 10752
  154.7567  135.4954  153.9390 H   0  0  0  0  0  0  0  0  0  0  0  0  # atno 10764 bound_to 10752
  153.1133  135.6764  153.9566 H   0  0  0  0  0  0  0  0  0  0  0  0  # atno 10765 bound_to 10752
  140.3729  134.7014  157.4403 H   0  0  0  0  0  0  0  0  0  0  0  0  # atno 11005 bound_to 11000
  146.0763  140.7813  142.9663 LP  0  0  0  0  0  0  0  0  0  0  0  0  # atno 17320 bound_to 7965
  144.6957  140.3420  143.7197 LP  0  0  0  0  0  0  0  0  0  0  0  0  # atno 17321 bound_to 7965
  139.4783  144.5595  151.8261 LP  0  0  0  0  0  0  0  0  0  0  0  0  # atno 17342 bound_to 10162
  140.4699  144.1601  150.5916 LP  0  0  0  0  0  0  0  0  0  0  0  0  # atno 17343 bound_to 10162
  157.7455  131.0438  150.4764 LP  0  0  0  0  0  0  0  0  0  0  0  0  # atno 17370 bound_to 10713
  156.4953  130.4105  149.6383 LP  0  0  0  0  0  0  0  0  0  0  0  0  # atno 17371 bound_to 10713
  140.0537  134.6093  155.8830 LP  0  0  0  0  0  0  0  0  0  0  0  0  # atno 17394 bound_to 11000
  141.1948  133.6584  156.5615 LP  0  0  0  0  0  0  0  0  0  0  0  0  # atno 17395 bound_to 11000

$$$$
