AV-unprocessed.smi:69|AV-procd|sdf|655|dock4
  -GOLD-   2262016553D 1   1.00000     0.00000
 Structure written by MMmdl.
 32 34  0  0  0  0  0  0  0  0  1 V2000
  153.1393  137.1600  157.0823 N   0  0  0  0  0  0  0  0  0  0  0  0
  152.0848  137.6071  156.3867 C   0  0  0  0  0  0  0  0  0  0  0  0
  151.9301  137.1844  155.1099 N   0  0  0  0  0  0  0  0  0  0  0  0
  150.8862  137.6167  154.3944 C   0  0  0  0  0  0  0  0  0  0  0  0
  149.9094  138.4515  154.7607 N   0  0  0  0  0  0  0  0  0  0  0  0
  150.0692  138.8746  156.0488 C   0  0  0  0  0  0  0  0  0  0  0  0
  151.1247  138.5004  156.9247 C   0  0  0  0  0  0  0  0  0  0  0  0
  150.9611  139.1236  158.1544 N   0  0  0  0  0  0  0  0  0  0  0  0
  149.8689  139.8254  158.0081 C   0  0  0  0  0  0  0  0  0  0  0  0
  149.2638  139.7275  156.7721 N   0  0  0  0  0  0  0  0  0  0  0  0
  148.0141  140.3904  156.2755 C   0  0  2  0  0  0  0  0  0  0  0  0
  147.3787  139.4914  155.4153 O   0  0  0  0  0  0  0  0  0  0  0  0
  147.2249  140.0497  154.1105 C   0  0  2  0  0  0  0  0  0  0  0  0
  147.3060  138.9589  153.0280 C   0  0  0  0  0  0  0  0  0  0  0  0
  147.2018  139.5398  151.7459 O   0  0  0  0  0  0  0  0  0  0  0  0
  148.2906  141.1516  154.0244 C   0  0  2  0  0  0  0  0  0  0  0  0
  149.5415  140.6364  153.5987 O   0  0  0  0  0  0  0  0  0  0  0  0
  148.3224  141.6598  155.4590 C   0  0  2  0  0  0  0  0  0  0  0  0
  149.5288  142.3256  155.7892 O   0  0  0  0  0  0  0  0  0  0  0  0
  147.4180  140.5738  157.1703 H   0  0  0  0  0  0  0  0  0  0  0  0
  146.2480  140.5361  154.0744 H   0  0  0  0  0  0  0  0  0  0  0  0
  147.9980  141.9373  153.3273 H   0  0  0  0  0  0  0  0  0  0  0  0
  147.4905  142.3495  155.6065 H   0  0  0  0  0  0  0  0  0  0  0  0
  153.2758  137.4610  158.0365 H   0  0  0  0  0  0  0  0  0  0  0  0
  153.7956  136.5253  156.6511 H   0  0  0  0  0  0  0  0  0  0  0  0
  150.8246  137.2397  153.3841 H   0  0  0  0  0  0  0  0  0  0  0  0
  149.4741  140.4362  158.8065 H   0  0  0  0  0  0  0  0  0  0  0  0
  148.2702  138.4519  153.0771 H   0  0  0  0  0  0  0  0  0  0  0  0
  146.5323  138.2028  153.1642 H   0  0  0  0  0  0  0  0  0  0  0  0
  148.0671  139.5952  151.3702 H   0  0  0  0  0  0  0  0  0  0  0  0
  149.4191  139.7365  153.3370 H   0  0  0  0  0  0  0  0  0  0  0  0
  149.3103  143.1189  156.2545 H   0  0  0  0  0  0  0  0  0  0  0  0
  1  2  1  0  0  0  0
  1 24  1  0  0  0  0
  1 25  1  0  0  0  0
  2  7  1  0  0  0  0
  2  3  2  0  0  0  0
  3  4  1  0  0  0  0
  4  5  2  0  0  0  0
  4 26  1  0  0  0  0
  5  6  1  0  0  0  0
  6 10  1  0  0  0  0
  6  7  2  0  0  0  0
  7  8  1  0  0  0  0
  8  9  2  0  0  0  0
  9 10  1  0  0  0  0
  9 27  1  0  0  0  0
 10 11  1  0  0  0  0
 11 20  1  0  0  0  0
 11 18  1  0  0  0  0
 11 12  1  0  0  0  0
 12 13  1  0  0  0  0
 13 21  1  0  0  0  0
 13 14  1  0  0  0  0
 13 16  1  0  0  0  0
 14 15  1  0  0  0  0
 14 28  1  0  0  0  0
 14 29  1  0  0  0  0
 15 30  1  0  0  0  0
 16 22  1  0  0  0  0
 16 17  1  0  0  0  0
 16 18  1  0  0  0  0
 17 31  1  0  0  0  0
 18 23  1  0  0  0  0
 18 19  1  0  0  0  0
 19 32  1  0  0  0  0
M  END
> <s_m_source_file>
AV-unprocessed.smi

> <i_m_source_file_index>
69

> <i_lp_mmshare_version>
43012

> <i_f3d_flags>
0

> <s_epik_input>
bjFbY0hdbmMoW05IMl0pYyhjMTIpbltjSF1uMltDQEBIXTNPW0NASF0oW0NIMl1bT0hdKVtDQEBIXShbT0hdKVtDQEhdM1tPSF0=

> <s_epik_cmdline>
J2VwaWtfcHl0aG9uJywgJy1waCcsICc3LjAnLCAnLXRuJywgJzgnLCAnLW1hJywgJzIwMCcsICctbWV0YWxfYmluZGluZycsICctaW1hZScsICc8aW5maWxlLm1hZT4nLCAnLW9tYWUnLCAnPG91dGZpbGUubWFlPic=

> <r_lp_tautomer_probability>
1

> <r_epik_Ionization_Penalty>
0.000428445

> <r_epik_Ionization_Penalty_Charging>
0

> <r_epik_Ionization_Penalty_Neutral>
0.000428445

> <r_epik_State_Penalty>
-0

> <r_epik_Charging_Adjusted_Penalty>
0

> <i_epik_Tot_Q>
0

> <i_epik_Tot_abs_Q>
0

> <r_epik_Metal_State_Penalty>
-0

> <b_epik_Metal_Only>
0

> <s_epik_Chemistry_Notes>
This compound contains an acetal/aminal-like group ( X-CH(R)-Y where X, Y are N, S, or O) that may be acid/base labile, releasing an aldehyde.

> <s_lp_Force_Field>
OPLS_2005

> <r_lp_Energy>
42.2813

> <b_lp_Chiralities_Consistent>
1

> <s_lp_Variant>
AV-unprocessed.smi:69-13

> <Gold.Version>
5.8.1

> <Gold.Id.Protein>
6NUR|6NUR_protein|mol2

> <Gold.PLP.Fitness>
36.1376

> <Gold.PLP.PLP>
-23.4068

> <Gold.PLP.part.hbond>
-4.7175

> <Gold.PLP.part.metal>
0.0000

> <Gold.PLP.part.buried>
-4.7687

> <Gold.PLP.part.nonpolar>
-15.4521

> <Gold.PLP.part.repulsive>
0.4580

> <Gold.PLP.ligand.clash>
0.0000

> <Gold.PLP.ligand.torsion>
0.6664

> <Gold.PLP.Chemscore.Hbond>
3.4822

> <Gold.PLP.Chemscore.CHOScore>
1.0715

> <Gold.PLP.Chemscore.Metal>
0.0000

> <Gold.Chemscore.Hbonds>
donor molecule, donor type, donor heavy atom, donor atom, acceptor molecule, acceptor atom, score
      L1  H    15    30       P1  7957  1.00
      L1  H    19    32       P1  8028  0.62
      P1  H  7989  7998       L1    17  0.40
      P1  H  8011  8017       L1    17  0.26
      P1  H 10752 10765       L1     3  0.85
      L1  C     4    26       P1  7948  0.24
      L1  C     4    26       P1  7949  0.85

> <Gold.PLP.Chemscore.Internal.Correction>
0.4027

> <Gold.Rescore>
     Score         DG    S(hbond)    S(metal)    S(lipo)     H(rot)  DE(clash)    DE(int)     intcor
      7.95     -10.19       3.50        0.00      28.49       4.03       0.06       2.18       ----

> <Gold.Chemscore.Fitness>
7.9494

> <Gold.Chemscore.DG>
-10.1916

> <Gold.Chemscore.ZeroCoef>
-5.4800

> <Gold.Chemscore.Hbond>
3.4998

> <Gold.Chemscore.Metal>
0.0000

> <Gold.Chemscore.Lipo>
28.4905

> <Gold.Chemscore.Internal_Hbond>
0.0000

> <Gold.Chemscore.DEClash>
0.0643

> <Gold.Chemscore.DEInternal>
2.1780

> <Gold.Chemscore.Rot>
4.0277

> <Gold.Chemscore.Internal.Correction>
   9.000000E+99

> <Gold.Chemscore.Hbonds>
donor molecule, donor type, donor heavy atom, donor atom, acceptor molecule, acceptor atom, score
      L1  H    15    30       P1  7957  0.95
      L1  H    17    31       P1  7957  0.02
      L1  H    19    32       P1  8028  0.62
      P1  H  7989  7998       L1    17  0.15
      P1  H  8011  8017       L1    17  0.01
      P1  H 10752 10765       L1     3  0.74

> <Gold.Chemscore.Hbond.Weighted>
-11.6892

> <Gold.Chemscore.Metal.Weighted>
-0.0000

> <Gold.Chemscore.Lipo.Weighted>
-3.3334

> <Gold.Chemscore.Internal_Hbond.Weighted>
0.0000

> <Gold.Chemscore.DEClash.Weighted>
0.0643

> <Gold.Chemscore.DEInternal.Weighted>
2.1780

> <Gold.Chemscore.Rot.Weighted>
10.3110

> <Gold.Chemscore.Internal.Correction.Weighted>
   9.000000E+99

> <Gold.Protein.RotatedTorsions>
[ 6907 6896 6895 6894 ] final  109.78 input  -60.11 | X-H torsion
[ 7974 7965 7964 7962 ] final  107.26 input  175.53 | X-H torsion
[ 8008 7997 7996 7995 ] final  104.82 input   59.86 | X-H torsion
[ 10167 10162 10161 10158 ] final   60.78 input  -65.29 | X-H torsion
[ 10718 10713 10712 10709 ] final   87.29 input   66.30 | X-H torsion
[ 10763 10752 10751 10750 ] final  163.04 input  -60.55 | X-H torsion
[ 11005 11000 10999 10996 ] final   52.65 input  -57.11 | X-H torsion

> <Gold.Protein.ActiveResidues>
 VAL166  LYS551  ARG553  GLY616  TRP617  ASP618  TYR619  PRO620  LYS621  CYS622 
 ASP623  PHE694  ASN695  SER759  ASP760  ASP761  ALA762  ILE779  LEU786  VAL792 
 PHE793  MET794  SER795  GLU796  ALA797  LYS798  CYS799  TRP800  GLU811  SER814 

> <Gold.Protein.RotatedAtoms>
  152.5051  133.8895  159.7386 H   0  0  0  0  0  0  0  0  0  0  0  0  # atno 6907 bound_to 6896
  150.9337  133.6728  159.2812 H   0  0  0  0  0  0  0  0  0  0  0  0  # atno 6908 bound_to 6896
  151.4063  135.0983  159.9624 H   0  0  0  0  0  0  0  0  0  0  0  0  # atno 6909 bound_to 6896
  145.2959  139.2585  143.3839 H   0  0  0  0  0  0  0  0  0  0  0  0  # atno 7974 bound_to 7965
  156.1606  140.3141  155.8800 H   0  0  0  0  0  0  0  0  0  0  0  0  # atno 8008 bound_to 7997
  155.3790  140.0486  157.3061 H   0  0  0  0  0  0  0  0  0  0  0  0  # atno 8009 bound_to 7997
  154.5143  140.2175  155.9107 H   0  0  0  0  0  0  0  0  0  0  0  0  # atno 8010 bound_to 7997
  140.1619  144.4362  150.6705 H   0  0  0  0  0  0  0  0  0  0  0  0  # atno 10167 bound_to 10162
  157.6938  131.0249  150.3101 H   0  0  0  0  0  0  0  0  0  0  0  0  # atno 10718 bound_to 10713
  154.2876  135.2761  155.2669 H   0  0  0  0  0  0  0  0  0  0  0  0  # atno 10763 bound_to 10752
  154.5162  135.5769  153.6647 H   0  0  0  0  0  0  0  0  0  0  0  0  # atno 10764 bound_to 10752
  152.9919  135.6193  154.3039 H   0  0  0  0  0  0  0  0  0  0  0  0  # atno 10765 bound_to 10752
  140.0832  134.5311  155.8926 H   0  0  0  0  0  0  0  0  0  0  0  0  # atno 11005 bound_to 11000
  146.3169  140.3462  142.8652 LP  0  0  0  0  0  0  0  0  0  0  0  0  # atno 17320 bound_to 7965
  144.9133  140.7783  143.5794 LP  0  0  0  0  0  0  0  0  0  0  0  0  # atno 17321 bound_to 7965
  140.6638  143.2261  151.5793 LP  0  0  0  0  0  0  0  0  0  0  0  0  # atno 17342 bound_to 10162
  139.5377  144.2734  152.1287 LP  0  0  0  0  0  0  0  0  0  0  0  0  # atno 17343 bound_to 10162
  156.3603  130.3846  149.7256 LP  0  0  0  0  0  0  0  0  0  0  0  0  # atno 17370 bound_to 10713
  156.4705  130.7994  151.3012 LP  0  0  0  0  0  0  0  0  0  0  0  0  # atno 17371 bound_to 10713
  141.2053  133.6646  156.6176 LP  0  0  0  0  0  0  0  0  0  0  0  0  # atno 17394 bound_to 11000
  140.3458  134.7810  157.4431 LP  0  0  0  0  0  0  0  0  0  0  0  0  # atno 17395 bound_to 11000

$$$$
