AV-unprocessed.smi:256|AV-procd|sdf|1958|dock7
  -GOLD-   2262021103D 1   1.00000     0.00000
 Structure written by MMmdl.
 62 65  0  0  0  0  0  0  0  0  2 V2000
  151.8233  139.3108  155.6020 C   0  0  0  0  0  0  0  0  0  0  0  0
  151.3713  140.3513  156.6371 C   0  0  0  0  0  0  0  0  0  0  0  0
  150.4640  141.4738  156.0637 C   0  0  1  0  0  0  0  0  0  0  0  0
  149.1721  140.9509  155.3881 C   0  0  0  0  0  0  0  0  0  0  0  0
  148.1824  140.5057  156.3675 N   0  0  0  0  0  0  0  0  0  0  0  0
  148.2235  139.1961  156.7345 C   0  0  0  0  0  0  0  0  0  0  0  0
  149.2074  138.3918  156.2493 N   0  0  0  0  0  0  0  0  0  0  0  0
  149.2399  137.0940  156.5626 C   0  0  0  0  0  0  0  0  0  0  0  0
  148.4008  136.4027  157.3344 N   0  0  0  0  0  0  0  0  0  0  0  0
  147.4221  137.2037  157.8427 C   0  0  0  0  0  0  0  0  0  0  0  0
  147.2661  138.5989  157.6046 C   0  0  0  0  0  0  0  0  0  0  0  0
  146.1672  139.0747  158.3107 N   0  0  0  0  0  0  0  0  0  0  0  0
  145.6915  138.0203  158.9142 C   0  0  0  0  0  0  0  0  0  0  0  0
  146.3751  136.8500  158.6758 N   0  0  0  0  0  0  0  0  0  0  0  0
  146.0590  135.5321  159.2064 C   0  0  0  0  0  0  0  0  0  0  0  0
  147.1600  134.9439  160.1312 C   0  0  0  0  0  0  0  0  0  0  0  0
  148.3154  134.7366  159.3396 O   0  0  0  0  0  0  0  0  0  0  0  0
  147.5606  135.8673  161.3025 C   0  0  0  0  0  0  0  0  0  0  0  0
  146.4713  135.8992  162.3885 C   0  0  0  0  0  0  0  0  0  0  0  0
  146.2120  134.5787  162.8520 O   0  0  0  0  0  0  0  0  0  0  0  0
  145.7103  133.7195  161.8338 C   0  0  0  0  0  0  0  0  0  0  0  0
  146.7500  133.5740  160.7075 C   0  0  0  0  0  0  0  0  0  0  0  0
  147.8388  141.5203  157.3611 C   0  0  0  0  0  0  0  0  0  0  0  0
  149.0965  142.0663  158.0610 C   0  0  0  0  0  0  0  0  0  0  0  0
  150.1096  142.5230  157.0729 N   0  3  1  0  0  0  0  0  0  0  0  0
  151.2467  143.2307  157.7226 C   0  0  0  0  0  0  0  0  0  0  0  0
  150.8055  144.3327  158.7060 C   0  0  0  0  0  0  0  0  0  0  0  0
  151.8176  144.6390  159.6564 O   0  0  0  0  0  0  0  0  0  0  0  0
  152.1824  143.5531  160.4939 C   0  0  0  0  0  0  0  0  0  0  0  0
  152.5363  138.6151  156.0449 H   0  0  0  0  0  0  0  0  0  0  0  0
  152.3107  139.7855  154.7502 H   0  0  0  0  0  0  0  0  0  0  0  0
  150.9898  138.7176  155.2280 H   0  0  0  0  0  0  0  0  0  0  0  0
  150.8812  139.8390  157.4637 H   0  0  0  0  0  0  0  0  0  0  0  0
  152.2758  140.7896  157.0562 H   0  0  0  0  0  0  0  0  0  0  0  0
  151.0293  141.9628  155.2710 H   0  0  0  0  0  0  0  0  0  0  0  0
  148.7178  141.7640  154.8201 H   0  0  0  0  0  0  0  0  0  0  0  0
  149.4046  140.1874  154.6497 H   0  0  0  0  0  0  0  0  0  0  0  0
  150.0509  136.5273  156.1290 H   0  0  0  0  0  0  0  0  0  0  0  0
  144.8178  138.0654  159.5482 H   0  0  0  0  0  0  0  0  0  0  0  0
  145.1086  135.6029  159.7346 H   0  0  0  0  0  0  0  0  0  0  0  0
  145.8797  134.8639  158.3629 H   0  0  0  0  0  0  0  0  0  0  0  0
  148.0425  134.4899  158.4690 H   0  0  0  0  0  0  0  0  0  0  0  0
  148.4806  135.4981  161.7586 H   0  0  0  0  0  0  0  0  0  0  0  0
  147.7852  136.8771  160.9587 H   0  0  0  0  0  0  0  0  0  0  0  0
  146.8031  136.5070  163.2304 H   0  0  0  0  0  0  0  0  0  0  0  0
  145.5510  136.3510  162.0180 H   0  0  0  0  0  0  0  0  0  0  0  0
  145.5009  132.7443  162.2733 H   0  0  0  0  0  0  0  0  0  0  0  0
  144.7613  134.1004  161.4552 H   0  0  0  0  0  0  0  0  0  0  0  0
  146.3665  132.9236  159.9204 H   0  0  0  0  0  0  0  0  0  0  0  0
  147.6269  133.0713  161.1189 H   0  0  0  0  0  0  0  0  0  0  0  0
  147.3288  142.3345  156.8448 H   0  0  0  0  0  0  0  0  0  0  0  0
  147.1248  141.1356  158.0904 H   0  0  0  0  0  0  0  0  0  0  0  0
  148.8092  142.8976  158.7058 H   0  0  0  0  0  0  0  0  0  0  0  0
  149.5333  141.3077  158.7111 H   0  0  0  0  0  0  0  0  0  0  0  0
  151.8479  142.4989  158.2623 H   0  0  0  0  0  0  0  0  0  0  0  0
  151.9143  143.6462  156.9681 H   0  0  0  0  0  0  0  0  0  0  0  0
  150.5136  145.2323  158.1620 H   0  0  0  0  0  0  0  0  0  0  0  0
  149.9138  144.0175  159.2473 H   0  0  0  0  0  0  0  0  0  0  0  0
  153.0024  143.8584  161.1437 H   0  0  0  0  0  0  0  0  0  0  0  0
  152.5215  142.6975  159.9087 H   0  0  0  0  0  0  0  0  0  0  0  0
  151.3573  143.2376  161.1323 H   0  0  0  0  0  0  0  0  0  0  0  0
  149.6371  143.2375  156.5374 H   0  0  0  0  0  0  0  0  0  0  0  0
  1  2  1  0  0  0  0
  1 30  1  0  0  0  0
  1 31  1  0  0  0  0
  1 32  1  0  0  0  0
  2  3  1  0  0  0  0
  2 33  1  0  0  0  0
  2 34  1  0  0  0  0
  3 25  1  0  0  0  0
  3  4  1  0  0  0  0
  3 35  1  0  0  0  0
  4  5  1  0  0  0  0
  4 36  1  0  0  0  0
  4 37  1  0  0  0  0
  5  6  1  0  0  0  0
  5 23  1  0  0  0  0
  6 11  1  0  0  0  0
  6  7  2  0  0  0  0
  7  8  1  0  0  0  0
  8  9  2  0  0  0  0
  8 38  1  0  0  0  0
  9 10  1  0  0  0  0
 10 14  1  0  0  0  0
 10 11  2  0  0  0  0
 11 12  1  0  0  0  0
 12 13  2  0  0  0  0
 13 14  1  0  0  0  0
 13 39  1  0  0  0  0
 14 15  1  0  0  0  0
 15 16  1  0  0  0  0
 15 40  1  0  0  0  0
 15 41  1  0  0  0  0
 16 22  1  0  0  0  0
 16 17  1  0  0  0  0
 16 18  1  0  0  0  0
 17 42  1  0  0  0  0
 18 19  1  0  0  0  0
 18 43  1  0  0  0  0
 18 44  1  0  0  0  0
 19 20  1  0  0  0  0
 19 45  1  0  0  0  0
 19 46  1  0  0  0  0
 20 21  1  0  0  0  0
 21 22  1  0  0  0  0
 21 47  1  0  0  0  0
 21 48  1  0  0  0  0
 22 49  1  0  0  0  0
 22 50  1  0  0  0  0
 23 24  1  0  0  0  0
 23 51  1  0  0  0  0
 23 52  1  0  0  0  0
 24 25  1  0  0  0  0
 24 53  1  0  0  0  0
 24 54  1  0  0  0  0
 25 26  1  0  0  0  0
 25 62  1  0  0  0  0
 26 27  1  0  0  0  0
 26 55  1  0  0  0  0
 26 56  1  0  0  0  0
 27 28  1  0  0  0  0
 27 57  1  0  0  0  0
 27 58  1  0  0  0  0
 28 29  1  0  0  0  0
 29 59  1  0  0  0  0
 29 60  1  0  0  0  0
 29 61  1  0  0  0  0
M  CHG  1  25   1
M  END
> <s_m_source_file>
AV-unprocessed.smi

> <i_m_source_file_index>
256

> <i_lp_mmshare_version>
43012

> <i_f3d_flags>
0

> <s_epik_input>
W0NIM11PW0NIMl1bQ0gyXU4xW0NIMl1bQ0gyXU4oW0NIMl1bQ0BIXTFbQ0gyXVtDSDNdKWMobltjSF1uMiljKGMyMyluW2NIXW4zW0NIMl1DNChbT0hdKVtDSDJdW0NIMl1PW0NIMl1bQ0gyXTQ=

> <s_epik_cmdline>
J2VwaWtfcHl0aG9uJywgJy1waCcsICc3LjAnLCAnLXRuJywgJzgnLCAnLW1hJywgJzIwMCcsICctbWV0YWxfYmluZGluZycsICctaW1hZScsICc8aW5maWxlLm1hZT4nLCAnLW9tYWUnLCAnPG91dGZpbGUubWFlPic=

> <r_lp_tautomer_probability>
1

> <r_epik_Ionization_Penalty>
0.233023

> <r_epik_Ionization_Penalty_Charging>
0.23295

> <r_epik_Ionization_Penalty_Neutral>
7.2493e-05

> <r_epik_State_Penalty>
0.223667

> <r_epik_Charging_Adjusted_Penalty>
0.456618

> <i_epik_Tot_Q>
1

> <i_epik_Tot_abs_Q>
1

> <r_epik_Metal_State_Penalty>
0.226879

> <b_epik_Metal_Only>
0

> <s_lp_Force_Field>
OPLS_2005

> <r_lp_Energy>
45.4801

> <b_lp_Chiralities_Consistent>
1

> <s_lp_Variant>
AV-unprocessed.smi:256-2

> <Gold.Version>
5.8.1

> <Gold.Id.Protein>
6NUR|6NUR_protein|mol2

> <Gold.PLP.Fitness>
51.6928

> <Gold.PLP.PLP>
-43.1991

> <Gold.PLP.part.hbond>
-3.6519

> <Gold.PLP.part.metal>
0.0000

> <Gold.PLP.part.buried>
-7.2988

> <Gold.PLP.part.nonpolar>
-33.4380

> <Gold.PLP.part.repulsive>
0.0695

> <Gold.PLP.ligand.clash>
0.0000

> <Gold.PLP.ligand.torsion>
0.4882

> <Gold.PLP.Chemscore.Hbond>
2.9913

> <Gold.PLP.Chemscore.CHOScore>
0.0000

> <Gold.PLP.Chemscore.Metal>
0.0000

> <Gold.Chemscore.Hbonds>
donor molecule, donor type, donor heavy atom, donor atom, acceptor molecule, acceptor atom, score
      L1  H    25    62       P1  8028  2.00
      P1  H  6896  6908       L1    17  0.23

> <Gold.PLP.Chemscore.Internal.Correction>
0.4963

> <Gold.Rescore>
     Score         DG    S(hbond)    S(metal)    S(lipo)     H(rot)  DE(clash)    DE(int)     intcor
     15.22     -17.91       1.94        0.00     108.66       2.65       0.31       2.39       ----

> <Gold.Chemscore.Fitness>
15.2194

> <Gold.Chemscore.DG>
-17.9145

> <Gold.Chemscore.ZeroCoef>
-5.4800

> <Gold.Chemscore.Hbond>
1.9447

> <Gold.Chemscore.Metal>
0.0000

> <Gold.Chemscore.Lipo>
108.6616

> <Gold.Chemscore.Internal_Hbond>
0.0000

> <Gold.Chemscore.DEClash>
0.3097

> <Gold.Chemscore.DEInternal>
2.3854

> <Gold.Chemscore.Rot>
2.6462

> <Gold.Chemscore.Internal.Correction>
   9.000000E+99

> <Gold.Chemscore.Hbonds>
donor molecule, donor type, donor heavy atom, donor atom, acceptor molecule, acceptor atom, score
      L1  H    25    62       P1  8028  1.00
      P1  H  6896  6908       L1    17  0.15

> <Gold.Chemscore.Hbond.Weighted>
-6.4953

> <Gold.Chemscore.Metal.Weighted>
-0.0000

> <Gold.Chemscore.Lipo.Weighted>
-12.7134

> <Gold.Chemscore.Internal_Hbond.Weighted>
0.0000

> <Gold.Chemscore.DEClash.Weighted>
0.3097

> <Gold.Chemscore.DEInternal.Weighted>
2.3854

> <Gold.Chemscore.Rot.Weighted>
6.7742

> <Gold.Chemscore.Internal.Correction.Weighted>
   9.000000E+99

> <Gold.Protein.RotatedTorsions>
[ 6907 6896 6895 6894 ] final  157.01 input  -60.11 | X-H torsion
[ 7974 7965 7964 7962 ] final    2.04 input  175.53 | X-H torsion
[ 8008 7997 7996 7995 ] final  -71.58 input   59.86 | X-H torsion
[ 10167 10162 10161 10158 ] final -174.99 input  -65.29 | X-H torsion
[ 10718 10713 10712 10709 ] final  -56.81 input   66.30 | X-H torsion
[ 10763 10752 10751 10750 ] final  -47.13 input  -60.55 | X-H torsion
[ 11005 11000 10999 10996 ] final  -73.65 input  -57.11 | X-H torsion

> <Gold.Protein.ActiveResidues>
 VAL166  LYS551  ARG553  GLY616  TRP617  ASP618  TYR619  PRO620  LYS621  CYS622 
 ASP623  PHE694  ASN695  SER759  ASP760  ASP761  ALA762  ILE779  LEU786  VAL792 
 PHE793  MET794  SER795  GLU796  ALA797  LYS798  CYS799  TRP800  GLU811  SER814 

> <Gold.Protein.RotatedAtoms>
  152.0214  133.3900  159.4259 H   0  0  0  0  0  0  0  0  0  0  0  0  # atno 6907 bound_to 6896
  150.6890  134.3622  159.4964 H   0  0  0  0  0  0  0  0  0  0  0  0  # atno 6908 bound_to 6896
  152.1396  134.9072  160.0605 H   0  0  0  0  0  0  0  0  0  0  0  0  # atno 6909 bound_to 6896
  146.2442  140.0896  142.8353 H   0  0  0  0  0  0  0  0  0  0  0  0  # atno 7974 bound_to 7965
  154.5099  140.0813  156.7969 H   0  0  0  0  0  0  0  0  0  0  0  0  # atno 8008 bound_to 7997
  155.3809  140.3428  155.4228 H   0  0  0  0  0  0  0  0  0  0  0  0  # atno 8009 bound_to 7997
  156.1560  140.1573  156.8678 H   0  0  0  0  0  0  0  0  0  0  0  0  # atno 8010 bound_to 7997
  139.5604  144.1883  152.1230 H   0  0  0  0  0  0  0  0  0  0  0  0  # atno 10167 bound_to 10162
  156.1259  130.4162  150.0355 H   0  0  0  0  0  0  0  0  0  0  0  0  # atno 10718 bound_to 10713
  154.0563  135.6624  153.4806 H   0  0  0  0  0  0  0  0  0  0  0  0  # atno 10763 bound_to 10752
  153.0444  135.5124  154.7702 H   0  0  0  0  0  0  0  0  0  0  0  0  # atno 10764 bound_to 10752
  154.6724  135.3031  154.9690 H   0  0  0  0  0  0  0  0  0  0  0  0  # atno 10765 bound_to 10752
  141.1625  133.6885  156.7245 H   0  0  0  0  0  0  0  0  0  0  0  0  # atno 11005 bound_to 11000
  145.0662  140.9123  143.4909 LP  0  0  0  0  0  0  0  0  0  0  0  0  # atno 17320 bound_to 7965
  145.1021  139.2815  143.5681 LP  0  0  0  0  0  0  0  0  0  0  0  0  # atno 17321 bound_to 7965
  140.1395  144.5215  150.6752 LP  0  0  0  0  0  0  0  0  0  0  0  0  # atno 17342 bound_to 10162
  140.6883  143.2362  151.5199 LP  0  0  0  0  0  0  0  0  0  0  0  0  # atno 17343 bound_to 10162
  156.8281  130.9382  151.3638 LP  0  0  0  0  0  0  0  0  0  0  0  0  # atno 17370 bound_to 10713
  157.6441  130.8830  149.9504 LP  0  0  0  0  0  0  0  0  0  0  0  0  # atno 17371 bound_to 10713
  140.2791  134.8331  157.3917 LP  0  0  0  0  0  0  0  0  0  0  0  0  # atno 17394 bound_to 11000
  140.1450  134.4923  155.8003 LP  0  0  0  0  0  0  0  0  0  0  0  0  # atno 17395 bound_to 11000

$$$$
