AV-unprocessed.smi:91|AV-procd|sdf|837|dock4
  -GOLD-   2262017263D 1   1.00000     0.00000
 Structure written by MMmdl.
 60 63  0  0  0  0  0  0  0  0  1 V2000
  147.2259  130.2668  152.9039 C   0  0  0  0  0  0  0  0  0  0  0  0
  148.1192  130.8596  153.8299 O   0  0  0  0  0  0  0  0  0  0  0  0
  148.4934  132.1764  153.4569 C   0  0  0  0  0  0  0  0  0  0  0  0
  148.9836  132.9542  154.6859 C   0  0  2  0  0  0  0  0  0  0  0  0
  149.5724  134.3312  154.3311 C   0  0  0  0  0  0  0  0  0  0  0  0
  150.1142  134.9582  155.5306 N   0  0  0  0  0  0  0  0  0  0  0  0
  150.3977  136.2841  155.4974 C   0  0  0  0  0  0  0  0  0  0  0  0
  150.2267  136.9888  154.3468 N   0  0  0  0  0  0  0  0  0  0  0  0
  150.5092  138.2944  154.3072 C   0  0  0  0  0  0  0  0  0  0  0  0
  150.9610  139.0806  155.2858 N   0  0  0  0  0  0  0  0  0  0  0  0
  151.1246  138.3822  156.4455 C   0  0  0  0  0  0  0  0  0  0  0  0
  150.8700  136.9947  156.6367 C   0  0  0  0  0  0  0  0  0  0  0  0
  151.1384  136.6415  157.9543 N   0  0  0  0  0  0  0  0  0  0  0  0
  151.5350  137.7543  158.5083 C   0  0  0  0  0  0  0  0  0  0  0  0
  151.5506  138.8503  157.6766 N   0  0  0  0  0  0  0  0  0  0  0  0
  151.9372  140.2024  158.0404 C   0  0  0  0  0  0  0  0  0  0  0  0
  150.7376  141.0711  158.4932 C   0  0  2  0  0  0  0  0  0  0  0  0
  149.5415  140.9849  157.5138 C   0  0  0  0  0  0  0  0  0  0  0  0
  148.3558  141.4804  158.1017 O   0  0  0  0  0  0  0  0  0  0  0  0
  151.1651  142.5332  158.7778 C   0  0  1  0  0  0  0  0  0  0  0  0
  152.4848  142.6823  159.5146 C   0  0  0  0  0  0  0  0  0  0  0  0
  152.8499  144.1332  159.2254 C   0  0  0  0  0  0  0  0  0  0  0  0
  152.3611  144.3924  157.9149 O   0  0  0  0  0  0  0  0  0  0  0  0
  151.4485  143.3705  157.5246 C   0  0  0  0  0  0  0  0  0  0  0  0
  151.1021  134.1269  156.2092 C   0  0  0  0  0  0  0  0  0  0  0  0
  150.5152  132.7398  156.5522 C   0  0  0  0  0  0  0  0  0  0  0  0
  151.6449  131.7893  156.9770 C   0  0  0  0  0  0  0  0  0  0  0  0
  149.4708  132.8246  157.6857 C   0  0  0  0  0  0  0  0  0  0  0  0
  149.9506  132.1572  155.3717 O   0  0  0  0  0  0  0  0  0  0  0  0
  146.9699  129.2603  153.2340 H   0  0  0  0  0  0  0  0  0  0  0  0
  147.6773  130.1919  151.9136 H   0  0  0  0  0  0  0  0  0  0  0  0
  146.3016  130.8405  152.8248 H   0  0  0  0  0  0  0  0  0  0  0  0
  149.2880  132.1325  152.7105 H   0  0  0  0  0  0  0  0  0  0  0  0
  147.6485  132.6953  153.0016 H   0  0  0  0  0  0  0  0  0  0  0  0
  148.1220  133.0960  155.3382 H   0  0  0  0  0  0  0  0  0  0  0  0
  150.3682  134.2282  153.5918 H   0  0  0  0  0  0  0  0  0  0  0  0
  148.7971  134.9599  153.8912 H   0  0  0  0  0  0  0  0  0  0  0  0
  150.3495  138.7781  153.3548 H   0  0  0  0  0  0  0  0  0  0  0  0
  151.8227  137.8094  159.5483 H   0  0  0  0  0  0  0  0  0  0  0  0
  152.6787  140.1255  158.8355 H   0  0  0  0  0  0  0  0  0  0  0  0
  152.4452  140.6642  157.1930 H   0  0  0  0  0  0  0  0  0  0  0  0
  150.3866  140.6542  159.4384 H   0  0  0  0  0  0  0  0  0  0  0  0
  149.7404  141.5467  156.6013 H   0  0  0  0  0  0  0  0  0  0  0  0
  149.3707  139.9560  157.1982 H   0  0  0  0  0  0  0  0  0  0  0  0
  148.4450  142.4139  158.2198 H   0  0  0  0  0  0  0  0  0  0  0  0
  150.3893  143.0355  159.3581 H   0  0  0  0  0  0  0  0  0  0  0  0
  152.4079  142.4789  160.5829 H   0  0  0  0  0  0  0  0  0  0  0  0
  153.2375  142.0154  159.0915 H   0  0  0  0  0  0  0  0  0  0  0  0
  152.3425  144.7995  159.9241 H   0  0  0  0  0  0  0  0  0  0  0  0
  153.9220  144.3173  159.2973 H   0  0  0  0  0  0  0  0  0  0  0  0
  151.9273  142.7660  156.7531 H   0  0  0  0  0  0  0  0  0  0  0  0
  150.5416  143.8009  157.0990 H   0  0  0  0  0  0  0  0  0  0  0  0
  151.9585  134.0126  155.5430 H   0  0  0  0  0  0  0  0  0  0  0  0
  151.4781  134.6025  157.1146 H   0  0  0  0  0  0  0  0  0  0  0  0
  152.1562  132.1531  157.8689 H   0  0  0  0  0  0  0  0  0  0  0  0
  152.3906  131.6846  156.1881 H   0  0  0  0  0  0  0  0  0  0  0  0
  151.2602  130.7933  157.1981 H   0  0  0  0  0  0  0  0  0  0  0  0
  149.9334  133.1547  158.6165 H   0  0  0  0  0  0  0  0  0  0  0  0
  149.0127  131.8528  157.8718 H   0  0  0  0  0  0  0  0  0  0  0  0
  148.6712  133.5309  157.4648 H   0  0  0  0  0  0  0  0  0  0  0  0
  1  2  1  0  0  0  0
  1 30  1  0  0  0  0
  1 31  1  0  0  0  0
  1 32  1  0  0  0  0
  2  3  1  0  0  0  0
  3  4  1  0  0  0  0
  3 33  1  0  0  0  0
  3 34  1  0  0  0  0
  4 29  1  0  0  0  0
  4  5  1  0  0  0  0
  4 35  1  0  0  0  0
  5  6  1  0  0  0  0
  5 36  1  0  0  0  0
  5 37  1  0  0  0  0
  6  7  1  0  0  0  0
  6 25  1  0  0  0  0
  7 12  1  0  0  0  0
  7  8  2  0  0  0  0
  8  9  1  0  0  0  0
  9 10  2  0  0  0  0
  9 38  1  0  0  0  0
 10 11  1  0  0  0  0
 11 15  1  0  0  0  0
 11 12  2  0  0  0  0
 12 13  1  0  0  0  0
 13 14  2  0  0  0  0
 14 15  1  0  0  0  0
 14 39  1  0  0  0  0
 15 16  1  0  0  0  0
 16 17  1  0  0  0  0
 16 40  1  0  0  0  0
 16 41  1  0  0  0  0
 17 18  1  0  0  0  0
 17 20  1  0  0  0  0
 17 42  1  0  0  0  0
 18 19  1  0  0  0  0
 18 43  1  0  0  0  0
 18 44  1  0  0  0  0
 19 45  1  0  0  0  0
 20 24  1  0  0  0  0
 20 21  1  0  0  0  0
 20 46  1  0  0  0  0
 21 22  1  0  0  0  0
 21 47  1  0  0  0  0
 21 48  1  0  0  0  0
 22 23  1  0  0  0  0
 22 49  1  0  0  0  0
 22 50  1  0  0  0  0
 23 24  1  0  0  0  0
 24 51  1  0  0  0  0
 24 52  1  0  0  0  0
 25 26  1  0  0  0  0
 25 53  1  0  0  0  0
 25 54  1  0  0  0  0
 26 27  1  0  0  0  0
 26 28  1  0  0  0  0
 26 29  1  0  0  0  0
 27 55  1  0  0  0  0
 27 56  1  0  0  0  0
 27 57  1  0  0  0  0
 28 58  1  0  0  0  0
 28 59  1  0  0  0  0
 28 60  1  0  0  0  0
M  END
> <s_m_source_file>
AV-unprocessed.smi

> <i_m_source_file_index>
91

> <i_lp_mmshare_version>
43012

> <i_f3d_flags>
0

> <s_epik_input>
W0NIM11PW0NIMl1bQ0BASF0oTzEpW0NIMl1OKFtDSDJdQzEoW0NIM10pW0NIM10pYyhuW2NIXW4yKWMoYzIzKW5bY0hdbjNbQ0gyXVtDQEhdKFtDSDJdW09IXSlbQ0BASF00W0NIMl1bQ0gyXU9bQ0gyXTQ=

> <s_epik_cmdline>
J2VwaWtfcHl0aG9uJywgJy1waCcsICc3LjAnLCAnLXRuJywgJzgnLCAnLW1hJywgJzIwMCcsICctbWV0YWxfYmluZGluZycsICctaW1hZScsICc8aW5maWxlLm1hZT4nLCAnLW9tYWUnLCAnPG91dGZpbGUubWFlPic=

> <r_lp_tautomer_probability>
1

> <r_epik_Ionization_Penalty>
8.63591e-05

> <r_epik_Ionization_Penalty_Charging>
0

> <r_epik_Ionization_Penalty_Neutral>
8.63591e-05

> <r_epik_State_Penalty>
-0

> <r_epik_Charging_Adjusted_Penalty>
0

> <i_epik_Tot_Q>
0

> <i_epik_Tot_abs_Q>
0

> <r_epik_Metal_State_Penalty>
-0

> <b_epik_Metal_Only>
0

> <s_lp_Force_Field>
OPLS_2005

> <r_lp_Energy>
47.5582

> <b_lp_Chiralities_Consistent>
1

> <s_lp_Variant>
AV-unprocessed.smi:91-5

> <Gold.Version>
5.8.1

> <Gold.Id.Protein>
6NUR|6NUR_protein|mol2

> <Gold.PLP.Fitness>
40.6189

> <Gold.PLP.PLP>
-40.1175

> <Gold.PLP.part.hbond>
-1.1963

> <Gold.PLP.part.metal>
0.0000

> <Gold.PLP.part.buried>
-6.7965

> <Gold.PLP.part.nonpolar>
-33.3998

> <Gold.PLP.part.repulsive>
1.9632

> <Gold.PLP.ligand.clash>
0.0000

> <Gold.PLP.ligand.torsion>
1.0098

> <Gold.PLP.Chemscore.Hbond>
0.0000

> <Gold.PLP.Chemscore.CHOScore>
0.6644

> <Gold.PLP.Chemscore.Metal>
0.0000

> <Gold.Chemscore.Hbonds>
donor molecule, donor type, donor heavy atom, donor atom, acceptor molecule, acceptor atom, score
      L1  C     9    38       P1  7957  0.77

> <Gold.PLP.Chemscore.Internal.Correction>
0.5278

> <Gold.Rescore>
     Score         DG    S(hbond)    S(metal)    S(lipo)     H(rot)  DE(clash)    DE(int)     intcor
      9.61     -10.56       0.65        0.00      91.20       3.03       0.12       0.83       ----

> <Gold.Chemscore.Fitness>
9.6121

> <Gold.Chemscore.DG>
-10.5636

> <Gold.Chemscore.ZeroCoef>
-5.4800

> <Gold.Chemscore.Hbond>
0.6485

> <Gold.Chemscore.Metal>
0.0000

> <Gold.Chemscore.Lipo>
91.2006

> <Gold.Chemscore.Internal_Hbond>
0.0000

> <Gold.Chemscore.DEClash>
0.1214

> <Gold.Chemscore.DEInternal>
0.8300

> <Gold.Chemscore.Rot>
3.0284

> <Gold.Chemscore.Internal.Correction>
   9.000000E+99

> <Gold.Chemscore.Hbond.Weighted>
-2.1659

> <Gold.Chemscore.Metal.Weighted>
-0.0000

> <Gold.Chemscore.Lipo.Weighted>
-10.6705

> <Gold.Chemscore.Internal_Hbond.Weighted>
0.0000

> <Gold.Chemscore.DEClash.Weighted>
0.1214

> <Gold.Chemscore.DEInternal.Weighted>
0.8300

> <Gold.Chemscore.Rot.Weighted>
7.7528

> <Gold.Chemscore.Internal.Correction.Weighted>
   9.000000E+99

> <Gold.Protein.RotatedTorsions>
[ 6907 6896 6895 6894 ] final  172.00 input  -60.11 | X-H torsion
[ 7974 7965 7964 7962 ] final    0.31 input  175.53 | X-H torsion
[ 8008 7997 7996 7995 ] final   -8.71 input   59.86 | X-H torsion
[ 10167 10162 10161 10158 ] final  138.64 input  -65.29 | X-H torsion
[ 10718 10713 10712 10709 ] final  -35.33 input   66.30 | X-H torsion
[ 10763 10752 10751 10750 ] final  100.85 input  -60.55 | X-H torsion
[ 11005 11000 10999 10996 ] final  141.97 input  -57.11 | X-H torsion

> <Gold.Protein.ActiveResidues>
 VAL166  LYS551  ARG553  GLY616  TRP617  ASP618  TYR619  PRO620  LYS621  CYS622 
 ASP623  PHE694  ASN695  SER759  ASP760  ASP761  ALA762  ILE779  LEU786  VAL792 
 PHE793  MET794  SER795  GLU796  ALA797  LYS798  CYS799  TRP800  GLU811  SER814 

> <Gold.Protein.RotatedAtoms>
  151.7912  133.3359  159.3499 H   0  0  0  0  0  0  0  0  0  0  0  0  # atno 6907 bound_to 6896
  150.7391  134.5840  159.5963 H   0  0  0  0  0  0  0  0  0  0  0  0  # atno 6908 bound_to 6896
  152.3208  134.7383  160.0365 H   0  0  0  0  0  0  0  0  0  0  0  0  # atno 6909 bound_to 6896
  146.2433  140.1157  142.8342 H   0  0  0  0  0  0  0  0  0  0  0  0  # atno 7974 bound_to 7965
  154.5715  140.2374  155.8184 H   0  0  0  0  0  0  0  0  0  0  0  0  # atno 8008 bound_to 7997
  156.2111  140.3026  155.9691 H   0  0  0  0  0  0  0  0  0  0  0  0  # atno 8009 bound_to 7997
  155.2703  140.0418  157.2997 H   0  0  0  0  0  0  0  0  0  0  0  0  # atno 8010 bound_to 7997
  139.5104  144.6341  151.5742 H   0  0  0  0  0  0  0  0  0  0  0  0  # atno 10167 bound_to 10162
  156.3399  130.4292  149.7797 H   0  0  0  0  0  0  0  0  0  0  0  0  # atno 10718 bound_to 10713
  153.3192  135.4065  155.1402 H   0  0  0  0  0  0  0  0  0  0  0  0  # atno 10763 bound_to 10752
  154.8596  135.3583  154.5620 H   0  0  0  0  0  0  0  0  0  0  0  0  # atno 10764 bound_to 10752
  153.6052  135.7069  153.5427 H   0  0  0  0  0  0  0  0  0  0  0  0  # atno 10765 bound_to 10752
  140.0441  134.9290  157.0897 H   0  0  0  0  0  0  0  0  0  0  0  0  # atno 11005 bound_to 11000
  145.0449  140.8974  143.5030 LP  0  0  0  0  0  0  0  0  0  0  0  0  # atno 17320 bound_to 7965
  145.1244  139.2672  143.5572 LP  0  0  0  0  0  0  0  0  0  0  0  0  # atno 17321 bound_to 7965
  140.6084  143.9481  150.6435 LP  0  0  0  0  0  0  0  0  0  0  0  0  # atno 17342 bound_to 10162
  140.2716  143.3452  152.1233 LP  0  0  0  0  0  0  0  0  0  0  0  0  # atno 17343 bound_to 10162
  156.5037  130.8140  151.3142 LP  0  0  0  0  0  0  0  0  0  0  0  0  # atno 17370 bound_to 10713
  157.7445  130.9936  150.2679 LP  0  0  0  0  0  0  0  0  0  0  0  0  # atno 17371 bound_to 10713
  140.4022  134.2071  155.7163 LP  0  0  0  0  0  0  0  0  0  0  0  0  # atno 17394 bound_to 11000
  141.1898  133.8231  157.0943 LP  0  0  0  0  0  0  0  0  0  0  0  0  # atno 17395 bound_to 11000

$$$$
