AV-unprocessed.smi:828|AV-procd|sdf|3859|dock7
  -GOLD-   22720 1313D 1   1.00000     0.00000
 Structure written by MMmdl.
 35 36  0  0  0  0  0  0  0  0  2 V2000
  151.0676  131.1425  156.3064 C   0  0  0  0  0  0  0  0  0  0  0  0
  150.0221  131.7294  155.4208 C   0  0  0  0  0  0  0  0  0  0  0  0
  148.9022  131.0751  155.0896 N   0  0  0  0  0  0  0  0  0  0  0  0
  148.0822  131.8234  154.2567 N   0  0  0  0  0  0  0  0  0  0  0  0
  148.6108  133.0238  153.9823 C   0  0  0  0  0  0  0  0  0  0  0  0
  147.9831  133.9917  153.1538 N   0  0  0  0  0  0  0  0  0  0  0  0
  146.6819  134.0931  152.8304 C   0  0  0  0  0  0  0  0  0  0  0  0
  145.7909  133.3356  153.2155 O   0  0  0  0  0  0  0  0  0  0  0  0
  146.4629  135.1379  152.0182 N   0  0  0  0  0  0  0  0  0  0  0  0
  145.1629  135.5420  151.4885 C   0  0  0  0  0  0  0  0  0  0  0  0
  144.5646  134.4718  150.5412 C   0  0  1  0  0  0  0  0  0  0  0  0
  145.5482  133.3590  150.1462 C   0  0  0  0  0  0  0  0  0  0  0  0
  144.6450  132.1858  149.7955 C   0  0  0  0  0  0  0  0  0  0  0  0
  143.5271  132.3192  150.8242 C   0  0  0  0  0  0  0  0  0  0  0  0
  143.3372  133.7731  151.0297 N   0  3  1  0  0  0  0  0  0  0  0  0
  142.8381  134.1091  152.3840 C   0  0  0  0  0  0  0  0  0  0  0  0
  150.1704  133.3383  154.7240 S   0  0  0  0  0  0  0  0  0  0  0  0
  150.6438  130.3529  156.9278 H   0  0  0  0  0  0  0  0  0  0  0  0
  151.4827  131.9117  156.9578 H   0  0  0  0  0  0  0  0  0  0  0  0
  151.8722  130.7214  155.7037 H   0  0  0  0  0  0  0  0  0  0  0  0
  148.5986  134.6914  152.7662 H   0  0  0  0  0  0  0  0  0  0  0  0
  147.2551  135.7058  151.7550 H   0  0  0  0  0  0  0  0  0  0  0  0
  144.4767  135.7699  152.3058 H   0  0  0  0  0  0  0  0  0  0  0  0
  145.3230  136.4746  150.9476 H   0  0  0  0  0  0  0  0  0  0  0  0
  144.2562  134.9758  149.6239 H   0  0  0  0  0  0  0  0  0  0  0  0
  146.2057  133.6458  149.3249 H   0  0  0  0  0  0  0  0  0  0  0  0
  146.1736  133.0868  150.9975 H   0  0  0  0  0  0  0  0  0  0  0  0
  144.2467  132.3065  148.7870 H   0  0  0  0  0  0  0  0  0  0  0  0
  145.1568  131.2244  149.8470 H   0  0  0  0  0  0  0  0  0  0  0  0
  142.6038  131.8355  150.5045 H   0  0  0  0  0  0  0  0  0  0  0  0
  143.8438  131.8517  151.7584 H   0  0  0  0  0  0  0  0  0  0  0  0
  143.5711  133.8640  153.1535 H   0  0  0  0  0  0  0  0  0  0  0  0
  141.9300  133.5442  152.5966 H   0  0  0  0  0  0  0  0  0  0  0  0
  142.5850  135.1664  152.4604 H   0  0  0  0  0  0  0  0  0  0  0  0
  142.6068  134.0499  150.3892 H   0  0  0  0  0  0  0  0  0  0  0  0
  1  2  1  0  0  0  0
  1 18  1  0  0  0  0
  1 19  1  0  0  0  0
  1 20  1  0  0  0  0
  2 17  1  0  0  0  0
  2  3  2  0  0  0  0
  3  4  1  0  0  0  0
  4  5  2  0  0  0  0
  5  6  1  0  0  0  0
  5 17  1  0  0  0  0
  6  7  1  0  0  0  0
  6 21  1  0  0  0  0
  7  8  2  0  0  0  0
  7  9  1  0  0  0  0
  9 10  1  0  0  0  0
  9 22  1  0  0  0  0
 10 11  1  0  0  0  0
 10 23  1  0  0  0  0
 10 24  1  0  0  0  0
 11 15  1  0  0  0  0
 11 12  1  0  0  0  0
 11 25  1  0  0  0  0
 12 13  1  0  0  0  0
 12 26  1  0  0  0  0
 12 27  1  0  0  0  0
 13 14  1  0  0  0  0
 13 28  1  0  0  0  0
 13 29  1  0  0  0  0
 14 15  1  0  0  0  0
 14 30  1  0  0  0  0
 14 31  1  0  0  0  0
 15 16  1  0  0  0  0
 15 35  1  0  0  0  0
 16 32  1  0  0  0  0
 16 33  1  0  0  0  0
 16 34  1  0  0  0  0
M  CHG  1  15   1
M  END
> <s_m_source_file>
AV-unprocessed.smi

> <i_m_source_file_index>
828

> <i_lp_mmshare_version>
43012

> <i_f3d_flags>
0

> <s_epik_input>
W0NIM11jMW5uYyhzMSlbTkhdQyg9TylbTkhdW0NIMl1bQ0BASF0yW0NIMl1bQ0gyXVtDSDJdTjJbQ0gzXQ==

> <s_epik_cmdline>
J2VwaWtfcHl0aG9uJywgJy1waCcsICc3LjAnLCAnLXRuJywgJzgnLCAnLW1hJywgJzIwMCcsICctbWV0YWxfYmluZGluZycsICctaW1hZScsICc8aW5maWxlLm1hZT4nLCAnLW9tYWUnLCAnPG91dGZpbGUubWFlPic=

> <r_lp_tautomer_probability>
1

> <r_epik_Ionization_Penalty>
0.00466477

> <r_epik_Ionization_Penalty_Charging>
0.00372199

> <r_epik_Ionization_Penalty_Neutral>
0.000942783

> <r_epik_State_Penalty>
-0

> <r_epik_Charging_Adjusted_Penalty>
0.00372199

> <i_epik_Tot_Q>
1

> <i_epik_Tot_abs_Q>
1

> <r_epik_Metal_State_Penalty>
0.28212

> <b_epik_Metal_Only>
0

> <s_lp_Force_Field>
OPLS_2005

> <r_lp_Energy>
28.4237

> <b_lp_Chiralities_Consistent>
1

> <s_lp_Variant>
AV-unprocessed.smi:828-2

> <Gold.Version>
5.8.1

> <Gold.Id.Protein>
6NUR|6NUR_protein|mol2

> <Gold.PLP.Fitness>
39.3016

> <Gold.PLP.PLP>
-29.2993

> <Gold.PLP.part.hbond>
-3.0000

> <Gold.PLP.part.metal>
0.0000

> <Gold.PLP.part.buried>
-2.9031

> <Gold.PLP.part.nonpolar>
-22.9860

> <Gold.PLP.part.repulsive>
0.1693

> <Gold.PLP.ligand.clash>
0.3757

> <Gold.PLP.ligand.torsion>
0.8127

> <Gold.PLP.Chemscore.Hbond>
4.0000

> <Gold.PLP.Chemscore.CHOScore>
0.0000

> <Gold.PLP.Chemscore.Metal>
0.0000

> <Gold.Chemscore.Hbonds>
donor molecule, donor type, donor heavy atom, donor atom, acceptor molecule, acceptor atom, score
      L1  H     6    21       P1  7948  0.90
      L1  H     9    22       P1  7948  1.00
      L1  H    15    35       P1 10186  2.00

> <Gold.PLP.Chemscore.Internal.Correction>
0.0034

> <Gold.Rescore>
     Score         DG    S(hbond)    S(metal)    S(lipo)     H(rot)  DE(clash)    DE(int)     intcor
     15.89     -17.96       2.54        0.00      63.29       1.33       0.04       2.03       ----

> <Gold.Chemscore.Fitness>
15.8861

> <Gold.Chemscore.DG>
-17.9637

> <Gold.Chemscore.ZeroCoef>
-5.4800

> <Gold.Chemscore.Hbond>
2.5395

> <Gold.Chemscore.Metal>
0.0000

> <Gold.Chemscore.Lipo>
63.2903

> <Gold.Chemscore.Internal_Hbond>
0.0000

> <Gold.Chemscore.DEClash>
0.0428

> <Gold.Chemscore.DEInternal>
2.0349

> <Gold.Chemscore.Rot>
1.3294

> <Gold.Chemscore.Internal.Correction>
   9.000000E+99

> <Gold.Chemscore.Hbonds>
donor molecule, donor type, donor heavy atom, donor atom, acceptor molecule, acceptor atom, score
      L1  H     6    21       P1  7948  0.18
      L1  H     9    22       P1  7948  0.98
      L1  H    15    35       P1 10186  0.91

> <Gold.Chemscore.Hbond.Weighted>
-8.4820

> <Gold.Chemscore.Metal.Weighted>
-0.0000

> <Gold.Chemscore.Lipo.Weighted>
-7.4050

> <Gold.Chemscore.Internal_Hbond.Weighted>
0.0000

> <Gold.Chemscore.DEClash.Weighted>
0.0428

> <Gold.Chemscore.DEInternal.Weighted>
2.0349

> <Gold.Chemscore.Rot.Weighted>
3.4033

> <Gold.Chemscore.Internal.Correction.Weighted>
   9.000000E+99

> <Gold.Protein.RotatedTorsions>
[ 6907 6896 6895 6894 ] final  -70.98 input  -60.11 | X-H torsion
[ 7974 7965 7964 7962 ] final  170.80 input  175.53 | X-H torsion
[ 8008 7997 7996 7995 ] final -109.08 input   59.86 | X-H torsion
[ 10167 10162 10161 10158 ] final   62.49 input  -65.29 | X-H torsion
[ 10718 10713 10712 10709 ] final  -66.14 input   66.30 | X-H torsion
[ 10763 10752 10751 10750 ] final    6.86 input  -60.55 | X-H torsion
[ 11005 11000 10999 10996 ] final  -60.23 input  -57.11 | X-H torsion

> <Gold.Protein.ActiveResidues>
 VAL166  LYS551  ARG553  GLY616  TRP617  ASP618  TYR619  PRO620  LYS621  CYS622 
 ASP623  PHE694  ASN695  SER759  ASP760  ASP761  ALA762  ILE779  LEU786  VAL792 
 PHE793  MET794  SER795  GLU796  ALA797  LYS798  CYS799  TRP800  GLU811  SER814 

> <Gold.Protein.RotatedAtoms>
  150.7233  134.5374  159.5730 H   0  0  0  0  0  0  0  0  0  0  0  0  # atno 6907 bound_to 6896
  152.2893  134.7737  160.0390 H   0  0  0  0  0  0  0  0  0  0  0  0  # atno 6908 bound_to 6896
  151.8356  133.3380  159.3664 H   0  0  0  0  0  0  0  0  0  0  0  0  # atno 6909 bound_to 6896
  144.7313  139.9255  143.6422 H   0  0  0  0  0  0  0  0  0  0  0  0  # atno 7974 bound_to 7965
  154.9539  140.0400  157.2157 H   0  0  0  0  0  0  0  0  0  0  0  0  # atno 8008 bound_to 7997
  154.7953  140.2842  155.5939 H   0  0  0  0  0  0  0  0  0  0  0  0  # atno 8009 bound_to 7997
  156.2955  140.2565  156.2809 H   0  0  0  0  0  0  0  0  0  0  0  0  # atno 8010 bound_to 7997
  140.1433  144.4532  150.6799 H   0  0  0  0  0  0  0  0  0  0  0  0  # atno 10167 bound_to 10162
  156.0629  130.4257  150.1666 H   0  0  0  0  0  0  0  0  0  0  0  0  # atno 10718 bound_to 10713
  153.2429  135.6905  153.7763 H   0  0  0  0  0  0  0  0  0  0  0  0  # atno 10763 bound_to 10752
  153.6886  135.3316  155.3197 H   0  0  0  0  0  0  0  0  0  0  0  0  # atno 10764 bound_to 10752
  154.8363  135.4540  154.1357 H   0  0  0  0  0  0  0  0  0  0  0  0  # atno 10765 bound_to 10752
  141.1279  133.6621  156.5191 H   0  0  0  0  0  0  0  0  0  0  0  0  # atno 11005 bound_to 11000
  146.0897  139.3886  143.0413 LP  0  0  0  0  0  0  0  0  0  0  0  0  # atno 17320 bound_to 7965
  145.7728  140.9889  143.1140 LP  0  0  0  0  0  0  0  0  0  0  0  0  # atno 17321 bound_to 7965
  140.6747  143.2300  151.5537 LP  0  0  0  0  0  0  0  0  0  0  0  0  # atno 17342 bound_to 10162
  139.5461  144.2517  152.1444 LP  0  0  0  0  0  0  0  0  0  0  0  0  # atno 17343 bound_to 10162
  156.9731  130.9841  151.3454 LP  0  0  0  0  0  0  0  0  0  0  0  0  # atno 17370 bound_to 10713
  157.5651  130.8272  149.8316 LP  0  0  0  0  0  0  0  0  0  0  0  0  # atno 17371 bound_to 10713
  140.4307  134.7104  157.4940 LP  0  0  0  0  0  0  0  0  0  0  0  0  # atno 17394 bound_to 11000
  140.0296  134.6426  155.9125 LP  0  0  0  0  0  0  0  0  0  0  0  0  # atno 17395 bound_to 11000

$$$$
