AV-unprocessed.smi:275|AV-procd|sdf|2065|dock3
  -GOLD-   2262021313D 1   1.00000     0.00000
 Structure written by MMmdl.
 65 69  0  0  0  0  0  0  0  0  1 V2000
  146.4482  131.3720  159.2945 C   0  0  0  0  0  0  0  0  0  0  0  0
  147.8349  131.7438  159.8455 C   0  0  0  0  0  0  0  0  0  0  0  0
  147.8251  131.4954  161.3663 C   0  0  0  0  0  0  0  0  0  0  0  0
  148.2698  133.1939  159.5060 C   0  0  1  0  0  0  0  0  0  0  0  0
  148.1478  133.3593  158.0543 N   0  0  0  0  0  0  0  0  0  0  0  0
  149.2546  133.9682  157.3761 C   0  0  0  0  0  0  0  0  0  0  0  0
  150.4970  133.4314  157.5212 N   0  0  0  0  0  0  0  0  0  0  0  0
  151.5601  133.9503  156.9023 C   0  0  0  0  0  0  0  0  0  0  0  0
  151.6182  135.0105  156.0987 N   0  0  0  0  0  0  0  0  0  0  0  0
  150.3916  135.5877  155.9681 C   0  0  0  0  0  0  0  0  0  0  0  0
  149.1783  135.1457  156.5718 C   0  0  0  0  0  0  0  0  0  0  0  0
  148.1461  136.0064  156.2144 N   0  0  0  0  0  0  0  0  0  0  0  0
  148.7071  136.8864  155.4328 C   0  0  0  0  0  0  0  0  0  0  0  0
  150.0499  136.6941  155.2108 N   0  0  0  0  0  0  0  0  0  0  0  0
  150.9136  137.5075  154.3757 C   0  0  0  0  0  0  0  0  0  0  0  0
  151.0209  138.9926  154.8201 C   0  0  1  0  0  0  0  0  0  0  0  0
  149.6240  139.6513  154.7134 C   0  0  0  0  0  0  0  0  0  0  0  0
  148.9663  139.2661  153.5236 O   0  0  0  0  0  0  0  0  0  0  0  0
  151.6328  139.1596  156.2452 C   0  0  2  0  0  0  0  0  0  0  0  0
  150.8470  138.5032  157.3722 C   0  0  0  0  0  0  0  0  0  0  0  0
  151.3660  139.2333  158.6007 C   0  0  0  0  0  0  0  0  0  0  0  0
  151.4673  140.5788  158.1692 O   0  0  0  0  0  0  0  0  0  0  0  0
  151.7274  140.6065  156.7691 C   0  0  0  0  0  0  0  0  0  0  0  0
  146.9366  134.1591  158.1969 C   0  0  0  0  0  0  0  0  0  0  0  0
  147.3547  134.4518  159.6451 C   0  0  0  0  0  0  0  0  0  0  0  0
  148.0774  135.8098  159.8267 C   0  0  0  0  0  0  0  0  0  0  0  0
  148.5582  136.0713  161.2607 C   0  0  0  0  0  0  0  0  0  0  0  0
  147.3787  136.0505  162.2351 C   0  0  0  0  0  0  0  0  0  0  0  0
  146.6173  134.7288  162.1162 C   0  0  0  0  0  0  0  0  0  0  0  0
  146.1932  134.4427  160.6600 C   0  0  0  0  0  0  0  0  0  0  0  0
  145.7144  132.1513  159.5024 H   0  0  0  0  0  0  0  0  0  0  0  0
  146.0807  130.4485  159.7430 H   0  0  0  0  0  0  0  0  0  0  0  0
  146.4687  131.1902  158.2232 H   0  0  0  0  0  0  0  0  0  0  0  0
  148.5462  131.0392  159.4113 H   0  0  0  0  0  0  0  0  0  0  0  0
  147.0902  132.1273  161.8653 H   0  0  0  0  0  0  0  0  0  0  0  0
  148.7972  131.6932  161.8180 H   0  0  0  0  0  0  0  0  0  0  0  0
  147.5750  130.4590  161.5947 H   0  0  0  0  0  0  0  0  0  0  0  0
  149.2631  133.4221  159.8901 H   0  0  0  0  0  0  0  0  0  0  0  0
  152.4963  133.4395  157.0726 H   0  0  0  0  0  0  0  0  0  0  0  0
  148.1512  137.6952  154.9815 H   0  0  0  0  0  0  0  0  0  0  0  0
  151.8947  137.0324  154.3810 H   0  0  0  0  0  0  0  0  0  0  0  0
  150.5585  137.4532  153.3462 H   0  0  0  0  0  0  0  0  0  0  0  0
  151.6737  139.5156  154.1193 H   0  0  0  0  0  0  0  0  0  0  0  0
  149.0039  139.3894  155.5714 H   0  0  0  0  0  0  0  0  0  0  0  0
  149.6925  140.7377  154.6869 H   0  0  0  0  0  0  0  0  0  0  0  0
  149.2877  139.8021  152.8146 H   0  0  0  0  0  0  0  0  0  0  0  0
  152.6347  138.7267  156.2515 H   0  0  0  0  0  0  0  0  0  0  0  0
  149.7781  138.6876  157.2552 H   0  0  0  0  0  0  0  0  0  0  0  0
  151.0068  137.4265  157.4367 H   0  0  0  0  0  0  0  0  0  0  0  0
  150.7069  139.1353  159.4633 H   0  0  0  0  0  0  0  0  0  0  0  0
  152.3559  138.8681  158.8783 H   0  0  0  0  0  0  0  0  0  0  0  0
  152.7120  141.0370  156.5916 H   0  0  0  0  0  0  0  0  0  0  0  0
  150.9857  141.2554  156.3029 H   0  0  0  0  0  0  0  0  0  0  0  0
  146.8404  135.0446  157.5687 H   0  0  0  0  0  0  0  0  0  0  0  0
  146.0451  133.5341  158.1283 H   0  0  0  0  0  0  0  0  0  0  0  0
  148.9409  135.8873  159.1677 H   0  0  0  0  0  0  0  0  0  0  0  0
  147.4158  136.6221  159.5228 H   0  0  0  0  0  0  0  0  0  0  0  0
  149.2925  135.3177  161.5474 H   0  0  0  0  0  0  0  0  0  0  0  0
  149.0658  137.0348  161.3132 H   0  0  0  0  0  0  0  0  0  0  0  0
  147.7305  136.1922  163.2574 H   0  0  0  0  0  0  0  0  0  0  0  0
  146.7075  136.8823  162.0175 H   0  0  0  0  0  0  0  0  0  0  0  0
  147.2582  133.9357  162.4944 H   0  0  0  0  0  0  0  0  0  0  0  0
  145.7386  134.7472  162.7615 H   0  0  0  0  0  0  0  0  0  0  0  0
  145.4588  135.1943  160.3676 H   0  0  0  0  0  0  0  0  0  0  0  0
  145.6515  133.4988  160.6135 H   0  0  0  0  0  0  0  0  0  0  0  0
  1  2  1  0  0  0  0
  1 31  1  0  0  0  0
  1 32  1  0  0  0  0
  1 33  1  0  0  0  0
  2  3  1  0  0  0  0
  2  4  1  0  0  0  0
  2 34  1  0  0  0  0
  3 35  1  0  0  0  0
  3 36  1  0  0  0  0
  3 37  1  0  0  0  0
  4 25  1  0  0  0  0
  4  5  1  0  0  0  0
  4 38  1  0  0  0  0
  5  6  1  0  0  0  0
  5 24  1  0  0  0  0
  6 11  1  0  0  0  0
  6  7  2  0  0  0  0
  7  8  1  0  0  0  0
  8  9  2  0  0  0  0
  8 39  1  0  0  0  0
  9 10  1  0  0  0  0
 10 14  1  0  0  0  0
 10 11  2  0  0  0  0
 11 12  1  0  0  0  0
 12 13  2  0  0  0  0
 13 14  1  0  0  0  0
 13 40  1  0  0  0  0
 14 15  1  0  0  0  0
 15 16  1  0  0  0  0
 15 41  1  0  0  0  0
 15 42  1  0  0  0  0
 16 17  1  0  0  0  0
 16 19  1  0  0  0  0
 16 43  1  0  0  0  0
 17 18  1  0  0  0  0
 17 44  1  0  0  0  0
 17 45  1  0  0  0  0
 18 46  1  0  0  0  0
 19 23  1  0  0  0  0
 19 20  1  0  0  0  0
 19 47  1  0  0  0  0
 20 21  1  0  0  0  0
 20 48  1  0  0  0  0
 20 49  1  0  0  0  0
 21 22  1  0  0  0  0
 21 50  1  0  0  0  0
 21 51  1  0  0  0  0
 22 23  1  0  0  0  0
 23 52  1  0  0  0  0
 23 53  1  0  0  0  0
 24 25  1  0  0  0  0
 24 54  1  0  0  0  0
 24 55  1  0  0  0  0
 25 30  1  0  0  0  0
 25 26  1  0  0  0  0
 26 27  1  0  0  0  0
 26 56  1  0  0  0  0
 26 57  1  0  0  0  0
 27 28  1  0  0  0  0
 27 58  1  0  0  0  0
 27 59  1  0  0  0  0
 28 29  1  0  0  0  0
 28 60  1  0  0  0  0
 28 61  1  0  0  0  0
 29 30  1  0  0  0  0
 29 62  1  0  0  0  0
 29 63  1  0  0  0  0
 30 64  1  0  0  0  0
 30 65  1  0  0  0  0
M  END
> <s_m_source_file>
AV-unprocessed.smi

> <i_m_source_file_index>
275

> <i_lp_mmshare_version>
43012

> <i_f3d_flags>
0

> <s_epik_input>
W0NIMl0xW0NIMl1bQ0gyXVtDSDJdW0NIMl1DMTJbQ0BIXShbQ0hdKFtDSDNdKVtDSDNdKU4oW0NIMl0yKWMobltjSF1uMyljKGMzNCluW2NIXW40W0NIMl1bQ0BIXShbQ0gyXVtPSF0pW0NAQEhdNVtDSDJdW0NIMl1PW0NIMl01

> <s_epik_cmdline>
J2VwaWtfcHl0aG9uJywgJy1waCcsICc3LjAnLCAnLXRuJywgJzgnLCAnLW1hJywgJzIwMCcsICctbWV0YWxfYmluZGluZycsICctaW1hZScsICc8aW5maWxlLm1hZT4nLCAnLW9tYWUnLCAnPG91dGZpbGUubWFlPic=

> <r_lp_tautomer_probability>
1

> <r_epik_Ionization_Penalty>
0.00375122

> <r_epik_Ionization_Penalty_Charging>
0

> <r_epik_Ionization_Penalty_Neutral>
0.00375122

> <r_epik_State_Penalty>
0.00260593

> <r_epik_Charging_Adjusted_Penalty>
0.00260593

> <i_epik_Tot_Q>
0

> <i_epik_Tot_abs_Q>
0

> <r_epik_Metal_State_Penalty>
-0

> <b_epik_Metal_Only>
0

> <s_lp_Force_Field>
OPLS_2005

> <r_lp_Energy>
67.0366

> <b_lp_Chiralities_Consistent>
1

> <s_lp_Variant>
AV-unprocessed.smi:275-4

> <Gold.Version>
5.8.1

> <Gold.Id.Protein>
6NUR|6NUR_protein|mol2

> <Gold.PLP.Fitness>
43.1016

> <Gold.PLP.PLP>
-34.7112

> <Gold.PLP.part.hbond>
-2.7754

> <Gold.PLP.part.metal>
0.0000

> <Gold.PLP.part.buried>
-1.9328

> <Gold.PLP.part.nonpolar>
-30.6468

> <Gold.PLP.part.repulsive>
0.0411

> <Gold.PLP.ligand.clash>
0.0000

> <Gold.PLP.ligand.torsion>
0.4885

> <Gold.PLP.Chemscore.Hbond>
2.9440

> <Gold.PLP.Chemscore.CHOScore>
0.0000

> <Gold.PLP.Chemscore.Metal>
0.0000

> <Gold.Chemscore.Hbonds>
donor molecule, donor type, donor heavy atom, donor atom, acceptor molecule, acceptor atom, score
      L1  H    18    46       P1  7957  1.00
      P1  H  6896  6909       L1     7  0.96
      P1  H 10752 10763       L1     9  0.98

> <Gold.PLP.Chemscore.Internal.Correction>
0.5354

> <Gold.Rescore>
     Score         DG    S(hbond)    S(metal)    S(lipo)     H(rot)  DE(clash)    DE(int)     intcor
     12.47     -18.21       2.28        0.00      99.22       2.54       1.20       4.54       ----

> <Gold.Chemscore.Fitness>
12.4659

> <Gold.Chemscore.DG>
-18.2089

> <Gold.Chemscore.ZeroCoef>
-5.4800

> <Gold.Chemscore.Hbond>
2.2804

> <Gold.Chemscore.Metal>
0.0000

> <Gold.Chemscore.Lipo>
99.2228

> <Gold.Chemscore.Internal_Hbond>
0.0000

> <Gold.Chemscore.DEClash>
1.2000

> <Gold.Chemscore.DEInternal>
4.5430

> <Gold.Chemscore.Rot>
2.5377

> <Gold.Chemscore.Internal.Correction>
   9.000000E+99

> <Gold.Chemscore.Hbonds>
donor molecule, donor type, donor heavy atom, donor atom, acceptor molecule, acceptor atom, score
      L1  H    18    46       P1  7957  0.95
      P1  H  6896  6909       L1     7  0.17
      P1  H 10752 10763       L1     9  0.92

> <Gold.Chemscore.Hbond.Weighted>
-7.6164

> <Gold.Chemscore.Metal.Weighted>
-0.0000

> <Gold.Chemscore.Lipo.Weighted>
-11.6091

> <Gold.Chemscore.Internal_Hbond.Weighted>
0.0000

> <Gold.Chemscore.DEClash.Weighted>
1.2000

> <Gold.Chemscore.DEInternal.Weighted>
4.5430

> <Gold.Chemscore.Rot.Weighted>
6.4966

> <Gold.Chemscore.Internal.Correction.Weighted>
   9.000000E+99

> <Gold.Protein.RotatedTorsions>
[ 6907 6896 6895 6894 ] final  -13.88 input  -60.11 | X-H torsion
[ 7974 7965 7964 7962 ] final -164.10 input  175.53 | X-H torsion
[ 8008 7997 7996 7995 ] final   46.91 input   59.86 | X-H torsion
[ 10167 10162 10161 10158 ] final   99.75 input  -65.29 | X-H torsion
[ 10718 10713 10712 10709 ] final  113.82 input   66.30 | X-H torsion
[ 10763 10752 10751 10750 ] final   92.19 input  -60.55 | X-H torsion
[ 11005 11000 10999 10996 ] final  103.45 input  -57.11 | X-H torsion

> <Gold.Protein.ActiveResidues>
 VAL166  LYS551  ARG553  GLY616  TRP617  ASP618  TYR619  PRO620  LYS621  CYS622 
 ASP623  PHE694  ASN695  SER759  ASP760  ASP761  ALA762  ILE779  LEU786  VAL792 
 PHE793  MET794  SER795  GLU796  ALA797  LYS798  CYS799  TRP800  GLU811  SER814 

> <Gold.Protein.RotatedAtoms>
  151.3481  135.0878  159.9393 H   0  0  0  0  0  0  0  0  0  0  0  0  # atno 6907 bound_to 6896
  152.5194  133.9380  159.7623 H   0  0  0  0  0  0  0  0  0  0  0  0  # atno 6908 bound_to 6896
  150.9750  133.6251  159.2761 H   0  0  0  0  0  0  0  0  0  0  0  0  # atno 6909 bound_to 6896
  144.7306  140.3011  143.6204 H   0  0  0  0  0  0  0  0  0  0  0  0  # atno 7974 bound_to 7965
  155.3603  140.3418  155.4240 H   0  0  0  0  0  0  0  0  0  0  0  0  # atno 8008 bound_to 7997
  156.1717  140.1634  156.8470 H   0  0  0  0  0  0  0  0  0  0  0  0  # atno 8009 bound_to 7997
  154.5240  140.0760  156.8206 H   0  0  0  0  0  0  0  0  0  0  0  0  # atno 8010 bound_to 7997
  139.7589  144.6961  151.0322 H   0  0  0  0  0  0  0  0  0  0  0  0  # atno 10167 bound_to 10162
  157.6317  131.0989  150.7096 H   0  0  0  0  0  0  0  0  0  0  0  0  # atno 10718 bound_to 10713
  153.2164  135.4370  155.0439 H   0  0  0  0  0  0  0  0  0  0  0  0  # atno 10763 bound_to 10752
  154.8227  135.3345  154.6992 H   0  0  0  0  0  0  0  0  0  0  0  0  # atno 10764 bound_to 10752
  153.7426  135.7003  153.5019 H   0  0  0  0  0  0  0  0  0  0  0  0  # atno 10765 bound_to 10752
  139.8784  134.9263  156.5212 H   0  0  0  0  0  0  0  0  0  0  0  0  # atno 11005 bound_to 11000
  145.7760  139.1874  143.2185 LP  0  0  0  0  0  0  0  0  0  0  0  0  # atno 17320 bound_to 7965
  146.0873  140.7696  142.9612 LP  0  0  0  0  0  0  0  0  0  0  0  0  # atno 17321 bound_to 7965
  140.7805  143.4720  151.0133 LP  0  0  0  0  0  0  0  0  0  0  0  0  # atno 17342 bound_to 10162
  139.8407  143.7568  152.3180 LP  0  0  0  0  0  0  0  0  0  0  0  0  # atno 17343 bound_to 10162
  156.7434  130.4746  149.5472 LP  0  0  0  0  0  0  0  0  0  0  0  0  # atno 17370 bound_to 10713
  156.1525  130.6319  151.0614 LP  0  0  0  0  0  0  0  0  0  0  0  0  # atno 17371 bound_to 10713
  140.8449  133.8176  155.9111 LP  0  0  0  0  0  0  0  0  0  0  0  0  # atno 17394 bound_to 11000
  140.9201  134.2152  157.4932 LP  0  0  0  0  0  0  0  0  0  0  0  0  # atno 17395 bound_to 11000

$$$$
