AV-unprocessed.smi:283|AV-procd|sdf|2137|dock3
  -GOLD-   2262021463D 1   1.00000     0.00000
 Structure written by MMmdl.
 48 51  0  0  0  0  0  0  0  0  1 V2000
  149.5601  141.9551  156.9527 C   0  0  0  0  0  0  0  0  0  0  0  0
  151.0938  141.9453  156.9975 C   0  0  2  0  0  0  0  0  0  0  0  0
  151.5838  140.5679  156.9826 N   0  0  0  0  0  0  0  0  0  0  0  0
  151.0089  139.6349  156.1909 C   0  0  0  0  0  0  0  0  0  0  0  0
  150.9467  139.7973  154.8433 N   0  0  0  0  0  0  0  0  0  0  0  0
  150.3715  138.8614  154.0828 C   0  0  0  0  0  0  0  0  0  0  0  0
  149.8073  137.7113  154.4590 N   0  0  0  0  0  0  0  0  0  0  0  0
  149.8654  137.5450  155.8125 C   0  0  0  0  0  0  0  0  0  0  0  0
  150.4417  138.4562  156.7401 C   0  0  0  0  0  0  0  0  0  0  0  0
  150.3100  137.9593  158.0291 N   0  0  0  0  0  0  0  0  0  0  0  0
  149.6862  136.8234  157.8672 C   0  0  0  0  0  0  0  0  0  0  0  0
  149.3934  136.4867  156.5598 N   0  0  0  0  0  0  0  0  0  0  0  0
  148.6701  135.2915  156.0054 C   0  0  2  0  0  0  0  0  0  0  0  0
  148.3579  134.4493  157.0672 O   0  0  0  0  0  0  0  0  0  0  0  0
  149.4444  133.5645  157.3009 C   0  0  1  0  0  0  0  0  0  0  0  0
  148.9512  132.3222  158.0585 C   0  0  0  0  0  0  0  0  0  0  0  0
  150.0269  131.4406  158.2991 O   0  0  0  0  0  0  0  0  0  0  0  0
  149.9491  133.2540  155.8819 C   0  0  2  0  0  0  0  0  0  0  0  0
  151.3537  133.0901  155.8959 O   0  0  0  0  0  0  0  0  0  0  0  0
  149.5547  134.4774  155.0469 C   0  0  1  0  0  0  0  0  0  0  0  0
  148.8317  134.0853  153.8979 O   0  0  0  0  0  0  0  0  0  0  0  0
  151.6007  142.7811  158.1752 C   0  0  0  0  0  0  0  0  0  0  0  0
  151.3272  144.1681  158.2200 C   0  0  0  0  0  0  0  0  0  0  0  0
  151.7835  144.9560  159.2933 C   0  0  0  0  0  0  0  0  0  0  0  0
  152.5249  144.3657  160.3323 C   0  0  0  0  0  0  0  0  0  0  0  0
  152.8125  142.9889  160.2930 C   0  0  0  0  0  0  0  0  0  0  0  0
  152.3583  142.1951  159.2205 C   0  0  0  0  0  0  0  0  0  0  0  0
  152.7524  140.5115  159.2194 Cl  0  0  0  0  0  0  0  0  0  0  0  0
  147.7737  135.7011  155.5384 H   0  0  0  0  0  0  0  0  0  0  0  0
  150.2153  134.0837  157.8732 H   0  0  0  0  0  0  0  0  0  0  0  0
  149.4754  132.3496  155.4959 H   0  0  0  0  0  0  0  0  0  0  0  0
  150.4097  135.0689  154.7171 H   0  0  0  0  0  0  0  0  0  0  0  0
  149.1775  142.9736  156.8796 H   0  0  0  0  0  0  0  0  0  0  0  0
  149.1327  141.5026  157.8481 H   0  0  0  0  0  0  0  0  0  0  0  0
  149.1887  141.4025  156.0892 H   0  0  0  0  0  0  0  0  0  0  0  0
  151.4432  142.3960  156.0692 H   0  0  0  0  0  0  0  0  0  0  0  0
  152.4572  140.4099  157.4644 H   0  0  0  0  0  0  0  0  0  0  0  0
  150.3621  139.0628  153.0217 H   0  0  0  0  0  0  0  0  0  0  0  0
  149.4249  136.2027  158.7108 H   0  0  0  0  0  0  0  0  0  0  0  0
  148.4655  132.5948  158.9958 H   0  0  0  0  0  0  0  0  0  0  0  0
  148.2173  131.7846  157.4576 H   0  0  0  0  0  0  0  0  0  0  0  0
  150.0681  130.8152  157.5918 H   0  0  0  0  0  0  0  0  0  0  0  0
  151.7584  133.9420  155.8456 H   0  0  0  0  0  0  0  0  0  0  0  0
  148.9362  134.7510  153.2354 H   0  0  0  0  0  0  0  0  0  0  0  0
  150.7625  144.6376  157.4279 H   0  0  0  0  0  0  0  0  0  0  0  0
  151.5655  146.0135  159.3181 H   0  0  0  0  0  0  0  0  0  0  0  0
  152.8761  144.9684  161.1568 H   0  0  0  0  0  0  0  0  0  0  0  0
  153.3865  142.5399  161.0901 H   0  0  0  0  0  0  0  0  0  0  0  0
  1  2  1  0  0  0  0
  1 33  1  0  0  0  0
  1 34  1  0  0  0  0
  1 35  1  0  0  0  0
  2  3  1  0  0  0  0
  2 22  1  0  0  0  0
  2 36  1  0  0  0  0
  3  4  1  0  0  0  0
  3 37  1  0  0  0  0
  4  9  1  0  0  0  0
  4  5  2  0  0  0  0
  5  6  1  0  0  0  0
  6  7  2  0  0  0  0
  6 38  1  0  0  0  0
  7  8  1  0  0  0  0
  8 12  1  0  0  0  0
  8  9  2  0  0  0  0
  9 10  1  0  0  0  0
 10 11  2  0  0  0  0
 11 12  1  0  0  0  0
 11 39  1  0  0  0  0
 12 13  1  0  0  0  0
 13 29  1  0  0  0  0
 13 20  1  0  0  0  0
 13 14  1  0  0  0  0
 14 15  1  0  0  0  0
 15 30  1  0  0  0  0
 15 16  1  0  0  0  0
 15 18  1  0  0  0  0
 16 17  1  0  0  0  0
 16 40  1  0  0  0  0
 16 41  1  0  0  0  0
 17 42  1  0  0  0  0
 18 31  1  0  0  0  0
 18 19  1  0  0  0  0
 18 20  1  0  0  0  0
 19 43  1  0  0  0  0
 20 32  1  0  0  0  0
 20 21  1  0  0  0  0
 21 44  1  0  0  0  0
 22 27  1  0  0  0  0
 22 23  2  0  0  0  0
 23 24  1  0  0  0  0
 23 45  1  0  0  0  0
 24 25  2  0  0  0  0
 24 46  1  0  0  0  0
 25 26  1  0  0  0  0
 25 47  1  0  0  0  0
 26 27  2  0  0  0  0
 26 48  1  0  0  0  0
 27 28  1  0  0  0  0
M  END
> <s_m_source_file>
AV-unprocessed.smi

> <i_m_source_file_index>
283

> <i_lp_mmshare_version>
43012

> <i_f3d_flags>
0

> <s_epik_input>
Q2xjMVtjSF1bY0hdW2NIXVtjSF1jMVtDQEhdKFtDSDNdKVtOSF1jKG5bY0hdbjIpYyhjMjMpbltjSF1uM1tDQEBIXTRPW0NASF0oW0NIMl1bT0hdKVtDQEBIXShbT0hdKVtDQEhdNFtPSF0=

> <s_epik_cmdline>
J2VwaWtfcHl0aG9uJywgJy1waCcsICc3LjAnLCAnLXRuJywgJzgnLCAnLW1hJywgJzIwMCcsICctbWV0YWxfYmluZGluZycsICctaW1hZScsICc8aW5maWxlLm1hZT4nLCAnLW9tYWUnLCAnPG91dGZpbGUubWFlPic=

> <r_lp_tautomer_probability>
1

> <r_epik_Ionization_Penalty>
0.000266407

> <r_epik_Ionization_Penalty_Charging>
0

> <r_epik_Ionization_Penalty_Neutral>
0.000266407

> <r_epik_State_Penalty>
-0

> <r_epik_Charging_Adjusted_Penalty>
0

> <i_epik_Tot_Q>
0

> <i_epik_Tot_abs_Q>
0

> <r_epik_Metal_State_Penalty>
-0

> <b_epik_Metal_Only>
0

> <s_epik_Chemistry_Notes>
This compound contains an acetal/aminal-like group ( X-CH(R)-Y where X, Y are N, S, or O) that may be acid/base labile, releasing an aldehyde.

> <s_lp_Force_Field>
OPLS_2005

> <r_lp_Energy>
39.6204

> <b_lp_Chiralities_Consistent>
1

> <s_lp_Variant>
AV-unprocessed.smi:283-13

> <Gold.Version>
5.8.1

> <Gold.Id.Protein>
6NUR|6NUR_protein|mol2

> <Gold.PLP.Fitness>
45.8880

> <Gold.PLP.PLP>
-38.5824

> <Gold.PLP.part.hbond>
-2.0000

> <Gold.PLP.part.metal>
0.0000

> <Gold.PLP.part.buried>
-5.6610

> <Gold.PLP.part.nonpolar>
-31.5087

> <Gold.PLP.part.repulsive>
0.7268

> <Gold.PLP.ligand.clash>
0.0000

> <Gold.PLP.ligand.torsion>
0.8436

> <Gold.PLP.Chemscore.Hbond>
1.9500

> <Gold.PLP.Chemscore.CHOScore>
1.0000

> <Gold.PLP.Chemscore.Metal>
0.0000

> <Gold.Chemscore.Hbonds>
donor molecule, donor type, donor heavy atom, donor atom, acceptor molecule, acceptor atom, score
      L1  H    21    44       P1  7948  0.85
      P1  H  7989  7998       L1     5  0.95
      L1  C     6    38       P1  7957  1.00

> <Gold.PLP.Chemscore.Internal.Correction>
0.1427

> <Gold.Rescore>
     Score         DG    S(hbond)    S(metal)    S(lipo)     H(rot)  DE(clash)    DE(int)     intcor
      7.84     -10.50       1.05        0.00     102.51       4.10       0.06       2.61       ----

> <Gold.Chemscore.Fitness>
7.8351

> <Gold.Chemscore.DG>
-10.5042

> <Gold.Chemscore.ZeroCoef>
-5.4800

> <Gold.Chemscore.Hbond>
1.0536

> <Gold.Chemscore.Metal>
0.0000

> <Gold.Chemscore.Lipo>
102.5053

> <Gold.Chemscore.Internal_Hbond>
0.0000

> <Gold.Chemscore.DEClash>
0.0578

> <Gold.Chemscore.DEInternal>
2.6113

> <Gold.Chemscore.Rot>
4.0968

> <Gold.Chemscore.Internal.Correction>
   9.000000E+99

> <Gold.Chemscore.Hbonds>
donor molecule, donor type, donor heavy atom, donor atom, acceptor molecule, acceptor atom, score
      L1  H    21    44       P1  7948  0.14
      P1  H  7989  7998       L1     5  0.22

> <Gold.Chemscore.Hbond.Weighted>
-3.5190

> <Gold.Chemscore.Metal.Weighted>
-0.0000

> <Gold.Chemscore.Lipo.Weighted>
-11.9931

> <Gold.Chemscore.Internal_Hbond.Weighted>
0.0000

> <Gold.Chemscore.DEClash.Weighted>
0.0578

> <Gold.Chemscore.DEInternal.Weighted>
2.6113

> <Gold.Chemscore.Rot.Weighted>
10.4879

> <Gold.Chemscore.Internal.Correction.Weighted>
   9.000000E+99

> <Gold.Protein.RotatedTorsions>
[ 6907 6896 6895 6894 ] final   39.38 input  -60.11 | X-H torsion
[ 7974 7965 7964 7962 ] final  -45.12 input  175.53 | X-H torsion
[ 8008 7997 7996 7995 ] final -127.88 input   59.86 | X-H torsion
[ 10167 10162 10161 10158 ] final -100.66 input  -65.29 | X-H torsion
[ 10718 10713 10712 10709 ] final  -52.67 input   66.30 | X-H torsion
[ 10763 10752 10751 10750 ] final -105.80 input  -60.55 | X-H torsion
[ 11005 11000 10999 10996 ] final -171.56 input  -57.11 | X-H torsion

> <Gold.Protein.ActiveResidues>
 VAL166  LYS551  ARG553  GLY616  TRP617  ASP618  TYR619  PRO620  LYS621  CYS622 
 ASP623  PHE694  ASN695  SER759  ASP760  ASP761  ALA762  ILE779  LEU786  VAL792 
 PHE793  MET794  SER795  GLU796  ALA797  LYS798  CYS799  TRP800  GLU811  SER814 

> <Gold.Protein.RotatedAtoms>
  152.1689  134.8851  160.0535 H   0  0  0  0  0  0  0  0  0  0  0  0  # atno 6907 bound_to 6896
  151.9818  133.3755  159.4119 H   0  0  0  0  0  0  0  0  0  0  0  0  # atno 6908 bound_to 6896
  150.6898  134.3953  159.5138 H   0  0  0  0  0  0  0  0  0  0  0  0  # atno 6909 bound_to 6896
  145.9852  140.7241  142.9344 H   0  0  0  0  0  0  0  0  0  0  0  0  # atno 7974 bound_to 7965
  155.2534  140.0433  157.2989 H   0  0  0  0  0  0  0  0  0  0  0  0  # atno 8008 bound_to 7997
  154.5755  140.2386  155.8099 H   0  0  0  0  0  0  0  0  0  0  0  0  # atno 8009 bound_to 7997
  156.2154  140.2986  155.9836 H   0  0  0  0  0  0  0  0  0  0  0  0  # atno 8010 bound_to 7997
  140.2495  143.3482  152.0728 H   0  0  0  0  0  0  0  0  0  0  0  0  # atno 10167 bound_to 10162
  156.1601  130.4150  149.9806 H   0  0  0  0  0  0  0  0  0  0  0  0  # atno 10718 bound_to 10713
  154.7970  135.4735  154.0185 H   0  0  0  0  0  0  0  0  0  0  0  0  # atno 10763 bound_to 10752
  153.1720  135.6826  153.8602 H   0  0  0  0  0  0  0  0  0  0  0  0  # atno 10764 bound_to 10752
  153.8181  135.3208  155.3385 H   0  0  0  0  0  0  0  0  0  0  0  0  # atno 10765 bound_to 10752
  140.5069  134.5840  157.5006 H   0  0  0  0  0  0  0  0  0  0  0  0  # atno 11005 bound_to 11000
  144.6873  140.2976  143.7268 LP  0  0  0  0  0  0  0  0  0  0  0  0  # atno 17320 bound_to 7965
  145.7711  139.1857  143.2212 LP  0  0  0  0  0  0  0  0  0  0  0  0  # atno 17321 bound_to 7965
  139.5051  144.6788  151.6062 LP  0  0  0  0  0  0  0  0  0  0  0  0  # atno 17342 bound_to 10162
  140.6051  143.9538  150.6413 LP  0  0  0  0  0  0  0  0  0  0  0  0  # atno 17343 bound_to 10162
  156.7638  130.9161  151.3642 LP  0  0  0  0  0  0  0  0  0  0  0  0  # atno 17370 bound_to 10713
  157.6726  130.9065  150.0075 LP  0  0  0  0  0  0  0  0  0  0  0  0  # atno 17371 bound_to 10713
  139.9681  134.7338  156.0097 LP  0  0  0  0  0  0  0  0  0  0  0  0  # atno 17394 bound_to 11000
  141.1406  133.6565  156.3719 LP  0  0  0  0  0  0  0  0  0  0  0  0  # atno 17395 bound_to 11000

$$$$
