AV-unprocessed.smi:645|AV-procd|sdf|3161|dock3
  -GOLD-   22720 0 83D 1   1.00000     0.00000
 Structure written by MMmdl.
 22 23  0  0  0  0  0  0  0  0  2 V2000
  150.9149  138.8559  154.3216 C   0  0  0  0  0  0  0  0  0  0  0  0
  151.4026  138.5333  155.7497 C   0  0  1  0  0  0  0  0  0  0  0  0
  151.4058  139.7754  156.6580 C   0  0  0  0  0  0  0  0  0  0  0  0
  151.7540  139.7050  158.0294 C   0  0  0  0  0  0  0  0  0  0  0  0
  151.7290  140.8827  158.8024 C   0  0  0  0  0  0  0  0  0  0  0  0
  151.3858  142.0902  158.3079 N   0  0  0  0  0  0  0  0  0  0  0  0
  151.0533  142.1601  157.0024 C   0  0  0  0  0  0  0  0  0  0  0  0
  151.0445  141.0432  156.1443 C   0  0  0  0  0  0  0  0  0  0  0  0
  150.6204  137.4328  156.2799 N   0  0  0  0  0  0  0  0  0  0  0  0
  151.3818  136.3758  156.5557 C   0  0  0  0  0  0  0  0  0  0  0  0
  150.9098  135.3466  157.0335 O   0  0  0  0  0  0  0  0  0  0  0  0
  152.6640  136.6310  156.2333 N   0  5  0  0  0  0  0  0  0  0  0  0
  152.7929  137.8781  155.7298 C   0  0  0  0  0  0  0  0  0  0  0  0
  153.7915  138.4536  155.2973 O   0  0  0  0  0  0  0  0  0  0  0  0
  151.5448  139.5996  153.8330 H   0  0  0  0  0  0  0  0  0  0  0  0
  149.8967  139.2452  154.3357 H   0  0  0  0  0  0  0  0  0  0  0  0
  150.9168  137.9676  153.6880 H   0  0  0  0  0  0  0  0  0  0  0  0
  152.0410  138.7756  158.4977 H   0  0  0  0  0  0  0  0  0  0  0  0
  151.9923  140.8529  159.8494 H   0  0  0  0  0  0  0  0  0  0  0  0
  150.7857  143.1372  156.6283 H   0  0  0  0  0  0  0  0  0  0  0  0
  150.7736  141.1659  155.1063 H   0  0  0  0  0  0  0  0  0  0  0  0
  149.6254  137.4847  156.4396 H   0  0  0  0  0  0  0  0  0  0  0  0
  1  2  1  0  0  0  0
  1 15  1  0  0  0  0
  1 16  1  0  0  0  0
  1 17  1  0  0  0  0
  2 13  1  0  0  0  0
  2  3  1  0  0  0  0
  2  9  1  0  0  0  0
  3  8  1  0  0  0  0
  3  4  2  0  0  0  0
  4  5  1  0  0  0  0
  4 18  1  0  0  0  0
  5  6  2  0  0  0  0
  5 19  1  0  0  0  0
  6  7  1  0  0  0  0
  7  8  2  0  0  0  0
  7 20  1  0  0  0  0
  8 21  1  0  0  0  0
  9 10  1  0  0  0  0
  9 22  1  0  0  0  0
 10 11  2  0  0  0  0
 10 12  1  0  0  0  0
 12 13  1  0  0  0  0
 13 14  2  0  0  0  0
M  CHG  1  12  -1
M  END
> <s_m_source_file>
AV-unprocessed.smi

> <i_m_source_file_index>
645

> <i_lp_mmshare_version>
43012

> <i_f3d_flags>
0

> <s_epik_input>
Tz1DMVtOSF1DKD1PKVtOSF1bQ0BAXTEoW0NIM10pYzJbY0hdW2NIXW5bY0hdW2NIXTI=

> <s_epik_cmdline>
J2VwaWtfcHl0aG9uJywgJy1waCcsICc3LjAnLCAnLXRuJywgJzgnLCAnLW1hJywgJzIwMCcsICctbWV0YWxfYmluZGluZycsICctaW1hZScsICc8aW5maWxlLm1hZT4nLCAnLW9tYWUnLCAnPG91dGZpbGUubWFlPic=

> <r_epik_Ionization_Penalty>
1.83307

> <r_epik_Ionization_Penalty_Charging>
1.82122

> <r_epik_Ionization_Penalty_Neutral>
0.0118514

> <r_epik_State_Penalty>
1.93645

> <r_epik_Charging_Adjusted_Penalty>
3.75767

> <i_epik_Tot_Q>
-1

> <i_epik_Tot_abs_Q>
1

> <r_epik_Metal_State_Penalty>
0.53507

> <b_epik_Metal_Only>
0

> <s_lp_Force_Field>
OPLS_2005

> <r_lp_Energy>
9.09868

> <b_lp_Chiralities_Consistent>
1

> <s_lp_Variant>
AV-unprocessed.smi:645-3

> <Gold.Version>
5.8.1

> <Gold.Id.Protein>
6NUR|6NUR_protein|mol2

> <Gold.PLP.Fitness>
33.0305

> <Gold.PLP.PLP>
-21.9113

> <Gold.PLP.part.hbond>
-2.3736

> <Gold.PLP.part.metal>
0.0000

> <Gold.PLP.part.buried>
-3.7408

> <Gold.PLP.part.nonpolar>
-16.2588

> <Gold.PLP.part.repulsive>
0.0541

> <Gold.PLP.ligand.clash>
0.0000

> <Gold.PLP.ligand.torsion>
0.0614

> <Gold.PLP.Chemscore.Hbond>
2.7200

> <Gold.PLP.Chemscore.CHOScore>
1.0000

> <Gold.PLP.Chemscore.Metal>
0.0000

> <Gold.Chemscore.Hbonds>
donor molecule, donor type, donor heavy atom, donor atom, acceptor molecule, acceptor atom, score
      P1  H  7997  8010       L1    14  0.62
      P1  H 10752 10764       L1    12  1.89
      L1  C     7    20       P1  8028  0.71

> <Gold.PLP.Chemscore.Internal.Correction>
0.0820

> <Gold.Rescore>
     Score         DG    S(hbond)    S(metal)    S(lipo)     H(rot)  DE(clash)    DE(int)     intcor
     13.73     -13.77       1.60        0.00      47.21       1.00       0.00       0.04       ----

> <Gold.Chemscore.Fitness>
13.7284

> <Gold.Chemscore.DG>
-13.7737

> <Gold.Chemscore.ZeroCoef>
-5.4800

> <Gold.Chemscore.Hbond>
1.5959

> <Gold.Chemscore.Metal>
0.0000

> <Gold.Chemscore.Lipo>
47.2075

> <Gold.Chemscore.Internal_Hbond>
0.0000

> <Gold.Chemscore.DEClash>
0.0038

> <Gold.Chemscore.DEInternal>
0.0415

> <Gold.Chemscore.Rot>
1.0000

> <Gold.Chemscore.Internal.Correction>
   9.000000E+99

> <Gold.Chemscore.Hbonds>
donor molecule, donor type, donor heavy atom, donor atom, acceptor molecule, acceptor atom, score
      P1  H  7997  8010       L1    14  0.58
      P1  H 10752 10764       L1    12  0.42

> <Gold.Chemscore.Hbond.Weighted>
-5.3304

> <Gold.Chemscore.Metal.Weighted>
-0.0000

> <Gold.Chemscore.Lipo.Weighted>
-5.5233

> <Gold.Chemscore.Internal_Hbond.Weighted>
0.0000

> <Gold.Chemscore.DEClash.Weighted>
0.0038

> <Gold.Chemscore.DEInternal.Weighted>
0.0415

> <Gold.Chemscore.Rot.Weighted>
2.5600

> <Gold.Chemscore.Internal.Correction.Weighted>
   9.000000E+99

> <Gold.Protein.RotatedTorsions>
[ 6907 6896 6895 6894 ] final -115.91 input  -60.11 | X-H torsion
[ 7974 7965 7964 7962 ] final  107.09 input  175.53 | X-H torsion
[ 8008 7997 7996 7995 ] final   83.38 input   59.86 | X-H torsion
[ 10167 10162 10161 10158 ] final   53.25 input  -65.29 | X-H torsion
[ 10718 10713 10712 10709 ] final  -95.41 input   66.30 | X-H torsion
[ 10763 10752 10751 10750 ] final  -30.97 input  -60.55 | X-H torsion
[ 11005 11000 10999 10996 ] final   58.36 input  -57.11 | X-H torsion

> <Gold.Protein.ActiveResidues>
 VAL166  LYS551  ARG553  GLY616  TRP617  ASP618  TYR619  PRO620  LYS621  CYS622 
 ASP623  PHE694  ASN695  SER759  ASP760  ASP761  ALA762  ILE779  LEU786  VAL792 
 PHE793  MET794  SER795  GLU796  ALA797  LYS798  CYS799  TRP800  GLU811  SER814 

> <Gold.Protein.RotatedAtoms>
  150.8015  133.8591  159.3226 H   0  0  0  0  0  0  0  0  0  0  0  0  # atno 6907 bound_to 6896
  151.6402  135.1012  160.0149 H   0  0  0  0  0  0  0  0  0  0  0  0  # atno 6908 bound_to 6896
  152.4102  133.6912  159.6426 H   0  0  0  0  0  0  0  0  0  0  0  0  # atno 6909 bound_to 6896
  145.2981  139.2578  143.3829 H   0  0  0  0  0  0  0  0  0  0  0  0  # atno 7974 bound_to 7965
  155.9231  140.3420  155.6189 H   0  0  0  0  0  0  0  0  0  0  0  0  # atno 8008 bound_to 7997
  155.7249  140.0788  157.2333 H   0  0  0  0  0  0  0  0  0  0  0  0  # atno 8009 bound_to 7997
  154.4073  140.1599  156.2430 H   0  0  0  0  0  0  0  0  0  0  0  0  # atno 8010 bound_to 7997
  140.2427  144.3565  150.6374 H   0  0  0  0  0  0  0  0  0  0  0  0  # atno 10167 bound_to 10162
  156.0043  130.5108  150.6073 H   0  0  0  0  0  0  0  0  0  0  0  0  # atno 10718 bound_to 10713
  153.7897  135.6899  153.4873 H   0  0  0  0  0  0  0  0  0  0  0  0  # atno 10763 bound_to 10752
  153.1757  135.4525  154.9961 H   0  0  0  0  0  0  0  0  0  0  0  0  # atno 10764 bound_to 10752
  154.8049  135.3353  154.7394 H   0  0  0  0  0  0  0  0  0  0  0  0  # atno 10765 bound_to 10752
  140.0383  134.5910  155.9415 H   0  0  0  0  0  0  0  0  0  0  0  0  # atno 11005 bound_to 11000
  146.3161  140.3488  142.8654 LP  0  0  0  0  0  0  0  0  0  0  0  0  # atno 17320 bound_to 7965
  144.9116  140.7764  143.5804 LP  0  0  0  0  0  0  0  0  0  0  0  0  # atno 17321 bound_to 7965
  140.6101  143.2169  151.6903 LP  0  0  0  0  0  0  0  0  0  0  0  0  # atno 17342 bound_to 10162
  139.5072  144.3655  152.0521 LP  0  0  0  0  0  0  0  0  0  0  0  0  # atno 17343 bound_to 10162
  157.3911  131.0796  151.1392 LP  0  0  0  0  0  0  0  0  0  0  0  0  # atno 17370 bound_to 10713
  157.2084  130.6426  149.5764 LP  0  0  0  0  0  0  0  0  0  0  0  0  # atno 17371 bound_to 10713
  141.1869  133.6558  156.5261 LP  0  0  0  0  0  0  0  0  0  0  0  0  # atno 17394 bound_to 11000
  140.4111  134.7272  157.4836 LP  0  0  0  0  0  0  0  0  0  0  0  0  # atno 17395 bound_to 11000

$$$$
