AV-unprocessed.smi:450|AV-procd|sdf|2608|dock5
  -GOLD-   2262023 03D 1   1.00000     0.00000
 Structure written by MMmdl.
 32 32  0  0  0  0  0  0  0  0  1 V2000
  146.7052  139.1226  152.2929 C   0  0  0  0  0  0  0  0  0  0  0  0
  145.9577  137.8027  152.0506 C   0  0  0  0  0  0  0  0  0  0  0  0
  145.8755  136.8983  153.2950 C   0  0  1  0  0  0  0  0  0  0  0  0
  145.0181  135.6499  153.0324 C   0  0  0  0  0  0  0  0  0  0  0  0
  147.2177  136.5095  153.7181 N   0  0  0  0  0  0  0  0  0  0  0  0
  147.7292  136.6748  154.9477 C   0  0  0  0  0  0  0  0  0  0  0  0
  147.0929  137.1376  155.8937 O   0  0  0  0  0  0  0  0  0  0  0  0
  149.1910  136.2671  155.1355 C   0  0  0  0  0  0  0  0  0  0  0  0
  150.0319  137.4382  155.3718 N   0  0  0  0  0  0  0  0  0  0  0  0
  150.3464  138.4294  154.5126 C   0  0  0  0  0  0  0  0  0  0  0  0
  149.8752  138.4246  153.2078 N   0  0  0  0  0  0  0  0  0  0  0  0
  151.1234  139.3778  155.0279 N   0  0  0  0  0  0  0  0  0  0  0  0
  151.3479  138.9865  156.3462 C   0  0  0  0  0  0  0  0  0  0  0  0
  152.1464  139.7598  157.2361 C   0  0  0  0  0  0  0  0  0  0  0  0
  152.7944  140.3864  157.9613 N   0  0  0  0  0  0  0  0  0  0  0  0
  150.6781  137.7996  156.5521 C   0  0  0  0  0  0  0  0  0  0  0  0
  150.6358  137.0600  157.7531 C   0  0  0  0  0  0  0  0  0  0  0  0
  150.6015  136.4531  158.7372 N   0  0  0  0  0  0  0  0  0  0  0  0
  146.6918  139.7437  151.3971 H   0  0  0  0  0  0  0  0  0  0  0  0
  147.7493  138.9525  152.5576 H   0  0  0  0  0  0  0  0  0  0  0  0
  146.2435  139.6931  153.0992 H   0  0  0  0  0  0  0  0  0  0  0  0
  144.9480  138.0331  151.7090 H   0  0  0  0  0  0  0  0  0  0  0  0
  146.4376  137.2635  151.2328 H   0  0  0  0  0  0  0  0  0  0  0  0
  145.4055  137.4738  154.0949 H   0  0  0  0  0  0  0  0  0  0  0  0
  144.0119  135.9259  152.7164 H   0  0  0  0  0  0  0  0  0  0  0  0
  144.9214  135.0391  153.9304 H   0  0  0  0  0  0  0  0  0  0  0  0
  145.4531  135.0262  152.2508 H   0  0  0  0  0  0  0  0  0  0  0  0
  147.8203  136.1249  153.0053 H   0  0  0  0  0  0  0  0  0  0  0  0
  149.2837  135.5800  155.9774 H   0  0  0  0  0  0  0  0  0  0  0  0
  149.5451  135.7262  154.2573 H   0  0  0  0  0  0  0  0  0  0  0  0
  149.2845  137.6791  152.8676 H   0  0  0  0  0  0  0  0  0  0  0  0
  150.0607  139.1876  152.5733 H   0  0  0  0  0  0  0  0  0  0  0  0
  1  2  1  0  0  0  0
  1 19  1  0  0  0  0
  1 20  1  0  0  0  0
  1 21  1  0  0  0  0
  2  3  1  0  0  0  0
  2 22  1  0  0  0  0
  2 23  1  0  0  0  0
  3  4  1  0  0  0  0
  3  5  1  0  0  0  0
  3 24  1  0  0  0  0
  4 25  1  0  0  0  0
  4 26  1  0  0  0  0
  4 27  1  0  0  0  0
  5  6  1  0  0  0  0
  5 28  1  0  0  0  0
  6  7  2  0  0  0  0
  6  8  1  0  0  0  0
  8  9  1  0  0  0  0
  8 29  1  0  0  0  0
  8 30  1  0  0  0  0
  9 16  1  0  0  0  0
  9 10  1  0  0  0  0
 10 11  1  0  0  0  0
 10 12  2  0  0  0  0
 11 31  1  0  0  0  0
 11 32  1  0  0  0  0
 12 13  1  0  0  0  0
 13 14  1  0  0  0  0
 13 16  2  0  0  0  0
 14 15  3  0  0  0  0
 16 17  1  0  0  0  0
 17 18  3  0  0  0  0
M  END
> <s_m_source_file>
AV-unprocessed.smi

> <i_m_source_file_index>
450

> <i_lp_mmshare_version>
43012

> <i_f3d_flags>
0

> <s_epik_input>
W0NIM11bQ0gyXVtDQEhdKFtDSDNdKVtOSF1DKD1PKVtDSDJdbjFjKFtOSDJdKW5jKEMjTiljMUMjTg==

> <s_epik_cmdline>
J2VwaWtfcHl0aG9uJywgJy1waCcsICc3LjAnLCAnLXRuJywgJzgnLCAnLW1hJywgJzIwMCcsICctbWV0YWxfYmluZGluZycsICctaW1hZScsICc8aW5maWxlLm1hZT4nLCAnLW9tYWUnLCAnPG91dGZpbGUubWFlPic=

> <r_epik_Ionization_Penalty>
0.000482749

> <r_epik_Ionization_Penalty_Charging>
7.71074e-10

> <r_epik_Ionization_Penalty_Neutral>
0.000482748

> <r_epik_State_Penalty>
0.000433536

> <r_epik_Charging_Adjusted_Penalty>
0.000433537

> <i_epik_Tot_Q>
0

> <i_epik_Tot_abs_Q>
0

> <r_epik_Metal_State_Penalty>
-0

> <b_epik_Metal_Only>
0

> <s_lp_Force_Field>
OPLS_2005

> <r_lp_Energy>
5.27204

> <b_lp_Chiralities_Consistent>
1

> <s_lp_Variant>
AV-unprocessed.smi:450-2

> <Gold.Version>
5.8.1

> <Gold.Id.Protein>
6NUR|6NUR_protein|mol2

> <Gold.PLP.Fitness>
35.9291

> <Gold.PLP.PLP>
-20.4813

> <Gold.PLP.part.hbond>
-6.1089

> <Gold.PLP.part.metal>
0.0000

> <Gold.PLP.part.buried>
2.2488

> <Gold.PLP.part.nonpolar>
-15.0052

> <Gold.PLP.part.repulsive>
0.1679

> <Gold.PLP.ligand.clash>
0.0000

> <Gold.PLP.ligand.torsion>
0.2059

> <Gold.PLP.Chemscore.Hbond>
5.2824

> <Gold.PLP.Chemscore.CHOScore>
0.0000

> <Gold.PLP.Chemscore.Metal>
0.0000

> <Gold.Chemscore.Hbonds>
donor molecule, donor type, donor heavy atom, donor atom, acceptor molecule, acceptor atom, score
      L1  H     5    28       P1  7948  1.00
      L1  H    11    31       P1  7948  1.00
      L1  H    11    32       P1  7957  0.96
      P1  H  6896  6909       L1    18  0.96
      P1  H  7989  7998       L1    12  0.59
      P1  H  7997  8008       L1    15  0.66

> <Gold.PLP.Chemscore.Internal.Correction>
0.0124

> <Gold.Rescore>
     Score         DG    S(hbond)    S(metal)    S(lipo)     H(rot)  DE(clash)    DE(int)     intcor
     18.17     -18.42       4.40        0.00      33.33       2.21       0.11       0.14       ----

> <Gold.Chemscore.Fitness>
18.1704

> <Gold.Chemscore.DG>
-18.4163

> <Gold.Chemscore.ZeroCoef>
-5.4800

> <Gold.Chemscore.Hbond>
4.4009

> <Gold.Chemscore.Metal>
0.0000

> <Gold.Chemscore.Lipo>
33.3348

> <Gold.Chemscore.Internal_Hbond>
0.0000

> <Gold.Chemscore.DEClash>
0.1056

> <Gold.Chemscore.DEInternal>
0.1403

> <Gold.Chemscore.Rot>
2.2121

> <Gold.Chemscore.Internal.Correction>
   9.000000E+99

> <Gold.Chemscore.Hbonds>
donor molecule, donor type, donor heavy atom, donor atom, acceptor molecule, acceptor atom, score
      L1  H     5    28       P1  7948  0.97
      L1  H    11    31       P1  7948  0.91
      L1  H    11    32       P1  7957  0.69
      P1  H  6896  6909       L1    18  0.92
      P1  H  7989  7998       L1    12  0.43
      P1  H  7997  8008       L1    15  0.09

> <Gold.Chemscore.Hbond.Weighted>
-14.6990

> <Gold.Chemscore.Metal.Weighted>
-0.0000

> <Gold.Chemscore.Lipo.Weighted>
-3.9002

> <Gold.Chemscore.Internal_Hbond.Weighted>
0.0000

> <Gold.Chemscore.DEClash.Weighted>
0.1056

> <Gold.Chemscore.DEInternal.Weighted>
0.1403

> <Gold.Chemscore.Rot.Weighted>
5.6629

> <Gold.Chemscore.Internal.Correction.Weighted>
   9.000000E+99

> <Gold.Protein.RotatedTorsions>
[ 6907 6896 6895 6894 ] final   94.10 input  -60.11 | X-H torsion
[ 7974 7965 7964 7962 ] final  -77.13 input  175.53 | X-H torsion
[ 8008 7997 7996 7995 ] final  -84.45 input   59.86 | X-H torsion
[ 10167 10162 10161 10158 ] final  -88.53 input  -65.29 | X-H torsion
[ 10718 10713 10712 10709 ] final -112.23 input   66.30 | X-H torsion
[ 10763 10752 10751 10750 ] final -108.92 input  -60.55 | X-H torsion
[ 11005 11000 10999 10996 ] final -168.14 input  -57.11 | X-H torsion

> <Gold.Protein.ActiveResidues>
 VAL166  LYS551  ARG553  GLY616  TRP617  ASP618  TYR619  PRO620  LYS621  CYS622 
 ASP623  PHE694  ASN695  SER759  ASP760  ASP761  ALA762  ILE779  LEU786  VAL792 
 PHE793  MET794  SER795  GLU796  ALA797  LYS798  CYS799  TRP800  GLU811  SER814 

> <Gold.Protein.RotatedAtoms>
  152.5450  134.1245  159.8412 H   0  0  0  0  0  0  0  0  0  0  0  0  # atno 6907 bound_to 6896
  151.1297  133.5038  159.2607 H   0  0  0  0  0  0  0  0  0  0  0  0  # atno 6908 bound_to 6896
  151.1688  135.0318  159.8797 H   0  0  0  0  0  0  0  0  0  0  0  0  # atno 6909 bound_to 6896
  145.6038  140.9403  143.1227 H   0  0  0  0  0  0  0  0  0  0  0  0  # atno 7974 bound_to 7965
  154.6300  140.0605  156.9720 H   0  0  0  0  0  0  0  0  0  0  0  0  # atno 8008 bound_to 7997
  155.1681  140.3288  155.4379 H   0  0  0  0  0  0  0  0  0  0  0  0  # atno 8009 bound_to 7997
  156.2478  140.1919  156.6784 H   0  0  0  0  0  0  0  0  0  0  0  0  # atno 8010 bound_to 7997
  140.3738  143.2781  151.9468 H   0  0  0  0  0  0  0  0  0  0  0  0  # atno 10167 bound_to 10162
  156.0693  130.5909  150.8481 H   0  0  0  0  0  0  0  0  0  0  0  0  # atno 10718 bound_to 10713
  154.8164  135.4620  154.0654 H   0  0  0  0  0  0  0  0  0  0  0  0  # atno 10763 bound_to 10752
  153.2044  135.6873  153.8198 H   0  0  0  0  0  0  0  0  0  0  0  0  # atno 10764 bound_to 10752
  153.7671  135.3275  155.3323 H   0  0  0  0  0  0  0  0  0  0  0  0  # atno 10765 bound_to 10752
  140.5454  134.5481  157.5110 H   0  0  0  0  0  0  0  0  0  0  0  0  # atno 11005 bound_to 11000
  144.7299  139.7759  143.7351 LP  0  0  0  0  0  0  0  0  0  0  0  0  # atno 17320 bound_to 7965
  146.1556  139.4653  143.0021 LP  0  0  0  0  0  0  0  0  0  0  0  0  # atno 17321 bound_to 7965
  139.4801  144.5882  151.7816 LP  0  0  0  0  0  0  0  0  0  0  0  0  # atno 17342 bound_to 10162
  140.5007  144.1173  150.5970 LP  0  0  0  0  0  0  0  0  0  0  0  0  # atno 17343 bound_to 10162
  157.5755  131.0946  150.9352 LP  0  0  0  0  0  0  0  0  0  0  0  0  # atno 17370 bound_to 10713
  156.9559  130.5437  149.5284 LP  0  0  0  0  0  0  0  0  0  0  0  0  # atno 17371 bound_to 10713
  139.9482  134.7663  156.0510 LP  0  0  0  0  0  0  0  0  0  0  0  0  # atno 17394 bound_to 11000
  141.1203  133.6615  156.3197 LP  0  0  0  0  0  0  0  0  0  0  0  0  # atno 17395 bound_to 11000

$$$$
