AV-unprocessed.smi:2997|AV-procd|sdf|11413|dock3
  -GOLD-   2272016333D 1   1.00000     0.00000
 Structure written by MMmdl.
 38 40  0  0  0  0  0  0  0  0  1 V2000
  153.1035  142.7764  161.6808 C   0  0  0  0  0  0  0  0  0  0  0  0
  152.5509  142.3786  160.3235 C   0  0  0  0  0  0  0  0  0  0  0  0
  152.9974  141.1787  159.7250 C   0  0  0  0  0  0  0  0  0  0  0  0
  152.5078  140.7726  158.4644 C   0  0  0  0  0  0  0  0  0  0  0  0
  152.8002  139.6525  157.7051 N   0  0  0  0  0  0  0  0  0  0  0  0
  152.0276  139.8428  156.6393 C   0  0  0  0  0  0  0  0  0  0  0  0
  151.2684  140.9554  156.6184 N   0  0  0  0  0  0  0  0  0  0  0  0
  150.3540  141.3758  155.5719 C   0  0  0  0  0  0  0  0  0  0  0  0
  148.8800  141.3008  156.0124 C   0  0  1  0  0  0  0  0  0  0  0  0
  148.5389  142.4679  156.7383 O   0  0  0  0  0  0  0  0  0  0  0  0
  147.9291  141.1356  154.8111 C   0  0  0  0  0  0  0  0  0  0  0  0
  146.7848  142.0278  154.8729 N   0  0  0  0  0  0  0  0  0  0  0  0
  146.3537  142.9365  153.9293 C   0  0  0  0  0  0  0  0  0  0  0  0
  145.2359  143.5413  154.4285 C   0  0  0  0  0  0  0  0  0  0  0  0
  145.0582  142.9263  155.6994 C   0  0  0  0  0  0  0  0  0  0  0  0
  145.9845  142.0180  155.9609 N   0  0  0  0  0  0  0  0  0  0  0  0
  151.5526  141.6068  157.8132 C   0  0  0  0  0  0  0  0  0  0  0  0
  151.1014  142.8033  158.3978 C   0  0  0  0  0  0  0  0  0  0  0  0
  151.6006  143.1941  159.6581 C   0  0  0  0  0  0  0  0  0  0  0  0
  151.1080  144.4881  160.2816 C   0  0  0  0  0  0  0  0  0  0  0  0
  153.7958  142.0264  162.0644 H   0  0  0  0  0  0  0  0  0  0  0  0
  152.2965  142.8869  162.4053 H   0  0  0  0  0  0  0  0  0  0  0  0
  153.6400  143.7229  161.6118 H   0  0  0  0  0  0  0  0  0  0  0  0
  153.7222  140.5579  160.2308 H   0  0  0  0  0  0  0  0  0  0  0  0
  152.0140  139.1337  155.8245 H   0  0  0  0  0  0  0  0  0  0  0  0
  150.6124  142.3912  155.2674 H   0  0  0  0  0  0  0  0  0  0  0  0
  150.5194  140.7388  154.7021 H   0  0  0  0  0  0  0  0  0  0  0  0
  148.7554  140.4484  156.6818 H   0  0  0  0  0  0  0  0  0  0  0  0
  148.7232  143.2223  156.2002 H   0  0  0  0  0  0  0  0  0  0  0  0
  148.4614  141.3190  153.8768 H   0  0  0  0  0  0  0  0  0  0  0  0
  147.5593  140.1104  154.7623 H   0  0  0  0  0  0  0  0  0  0  0  0
  146.8730  143.0764  152.9927 H   0  0  0  0  0  0  0  0  0  0  0  0
  144.6367  144.3063  153.9578 H   0  0  0  0  0  0  0  0  0  0  0  0
  144.2880  143.1107  156.4337 H   0  0  0  0  0  0  0  0  0  0  0  0
  150.3779  143.4147  157.8788 H   0  0  0  0  0  0  0  0  0  0  0  0
  150.3942  144.9960  159.6324 H   0  0  0  0  0  0  0  0  0  0  0  0
  151.9410  145.1685  160.4592 H   0  0  0  0  0  0  0  0  0  0  0  0
  150.6133  144.2897  161.2324 H   0  0  0  0  0  0  0  0  0  0  0  0
  1  2  1  0  0  0  0
  1 21  1  0  0  0  0
  1 22  1  0  0  0  0
  1 23  1  0  0  0  0
  2 19  1  0  0  0  0
  2  3  2  0  0  0  0
  3  4  1  0  0  0  0
  3 24  1  0  0  0  0
  4 17  2  0  0  0  0
  4  5  1  0  0  0  0
  5  6  2  0  0  0  0
  6  7  1  0  0  0  0
  6 25  1  0  0  0  0
  7  8  1  0  0  0  0
  7 17  1  0  0  0  0
  8  9  1  0  0  0  0
  8 26  1  0  0  0  0
  8 27  1  0  0  0  0
  9 10  1  0  0  0  0
  9 11  1  0  0  0  0
  9 28  1  0  0  0  0
 10 29  1  0  0  0  0
 11 12  1  0  0  0  0
 11 30  1  0  0  0  0
 11 31  1  0  0  0  0
 12 16  1  0  0  0  0
 12 13  1  0  0  0  0
 13 14  2  0  0  0  0
 13 32  1  0  0  0  0
 14 15  1  0  0  0  0
 14 33  1  0  0  0  0
 15 16  2  0  0  0  0
 15 34  1  0  0  0  0
 17 18  1  0  0  0  0
 18 19  2  0  0  0  0
 18 35  1  0  0  0  0
 19 20  1  0  0  0  0
 20 36  1  0  0  0  0
 20 37  1  0  0  0  0
 20 38  1  0  0  0  0
M  END
> <s_m_source_file>
AV-unprocessed.smi

> <i_m_source_file_index>
2997

> <i_lp_mmshare_version>
43012

> <i_f3d_flags>
0

> <s_epik_input>
W0NIM11jKFtjSF0xKWMoW0NIM10pW2NIXWMoYzEyKW4oW2NIXW4yKVtDSDJdW0NASF0oW09IXSlbQ0gyXW4zW2NIXVtjSF1bY0hdbjM=

> <s_epik_cmdline>
J2VwaWtfcHl0aG9uJywgJy1waCcsICc3LjAnLCAnLXRuJywgJzgnLCAnLW1hJywgJzIwMCcsICctbWV0YWxfYmluZGluZycsICctaW1hZScsICc8aW5maWxlLm1hZT4nLCAnLW9tYWUnLCAnPG91dGZpbGUubWFlPic=

> <r_lp_tautomer_probability>
1

> <r_epik_Ionization_Penalty>
0.102113

> <r_epik_Ionization_Penalty_Charging>
0

> <r_epik_Ionization_Penalty_Neutral>
0.102113

> <r_epik_State_Penalty>
0.0920694

> <r_epik_Charging_Adjusted_Penalty>
0.0920694

> <i_epik_Tot_Q>
0

> <i_epik_Tot_abs_Q>
0

> <r_epik_Metal_State_Penalty>
0.0784306

> <b_epik_Metal_Only>
0

> <s_lp_Force_Field>
OPLS_2005

> <r_lp_Energy>
7.68531

> <b_lp_Chiralities_Consistent>
1

> <s_lp_Variant>
AV-unprocessed.smi:2997-2

> <Gold.Version>
5.8.1

> <Gold.Id.Protein>
6NUR|6NUR_protein|mol2

> <Gold.PLP.Fitness>
48.3876

> <Gold.PLP.PLP>
-44.4033

> <Gold.PLP.part.hbond>
-1.9511

> <Gold.PLP.part.metal>
0.0000

> <Gold.PLP.part.buried>
-5.9954

> <Gold.PLP.part.nonpolar>
-36.5125

> <Gold.PLP.part.repulsive>
0.1066

> <Gold.PLP.ligand.clash>
0.0000

> <Gold.PLP.ligand.torsion>
1.0281

> <Gold.PLP.Chemscore.Hbond>
2.0000

> <Gold.PLP.Chemscore.CHOScore>
0.0000

> <Gold.PLP.Chemscore.Metal>
0.0000

> <Gold.Chemscore.Hbonds>
donor molecule, donor type, donor heavy atom, donor atom, acceptor molecule, acceptor atom, score
      L1  H    10    29       P1  8028  1.00
      P1  H  7997  8009       L1     5  1.00

> <Gold.PLP.Chemscore.Internal.Correction>
0.0404

> <Gold.Rescore>
     Score         DG    S(hbond)    S(metal)    S(lipo)     H(rot)  DE(clash)    DE(int)     intcor
     15.06     -17.45       1.45        0.00     108.02       2.15       0.09       2.30       ----

> <Gold.Chemscore.Fitness>
15.0562

> <Gold.Chemscore.DG>
-17.4457

> <Gold.Chemscore.ZeroCoef>
-5.4800

> <Gold.Chemscore.Hbond>
1.4490

> <Gold.Chemscore.Metal>
0.0000

> <Gold.Chemscore.Lipo>
108.0239

> <Gold.Chemscore.Internal_Hbond>
0.0000

> <Gold.Chemscore.DEClash>
0.0881

> <Gold.Chemscore.DEInternal>
2.3013

> <Gold.Chemscore.Rot>
2.1534

> <Gold.Chemscore.Internal.Correction>
   9.000000E+99

> <Gold.Chemscore.Hbonds>
donor molecule, donor type, donor heavy atom, donor atom, acceptor molecule, acceptor atom, score
      L1  H    10    29       P1  8028  0.96
      P1  H  7997  8009       L1     5  0.11

> <Gold.Chemscore.Hbond.Weighted>
-4.8396

> <Gold.Chemscore.Metal.Weighted>
-0.0000

> <Gold.Chemscore.Lipo.Weighted>
-12.6388

> <Gold.Chemscore.Internal_Hbond.Weighted>
0.0000

> <Gold.Chemscore.DEClash.Weighted>
0.0881

> <Gold.Chemscore.DEInternal.Weighted>
2.3013

> <Gold.Chemscore.Rot.Weighted>
5.5127

> <Gold.Chemscore.Internal.Correction.Weighted>
   9.000000E+99

> <Gold.Protein.RotatedTorsions>
[ 6907 6896 6895 6894 ] final  -71.88 input  -60.11 | X-H torsion
[ 7974 7965 7964 7962 ] final  -11.57 input  175.53 | X-H torsion
[ 8008 7997 7996 7995 ] final  160.68 input   59.86 | X-H torsion
[ 10167 10162 10161 10158 ] final   43.09 input  -65.29 | X-H torsion
[ 10718 10713 10712 10709 ] final   -7.21 input   66.30 | X-H torsion
[ 10763 10752 10751 10750 ] final  -28.01 input  -60.55 | X-H torsion
[ 11005 11000 10999 10996 ] final   74.73 input  -57.11 | X-H torsion

> <Gold.Protein.ActiveResidues>
 VAL166  LYS551  ARG553  GLY616  TRP617  ASP618  TYR619  PRO620  LYS621  CYS622 
 ASP623  PHE694  ASN695  SER759  ASP760  ASP761  ALA762  ILE779  LEU786  VAL792 
 PHE793  MET794  SER795  GLU796  ALA797  LYS798  CYS799  TRP800  GLU811  SER814 

> <Gold.Protein.RotatedAtoms>
  150.7193  134.5244  159.5669 H   0  0  0  0  0  0  0  0  0  0  0  0  # atno 6907 bound_to 6896
  152.2792  134.7845  160.0409 H   0  0  0  0  0  0  0  0  0  0  0  0  # atno 6908 bound_to 6896
  151.8497  133.3402  159.3706 H   0  0  0  0  0  0  0  0  0  0  0  0  # atno 6909 bound_to 6896
  146.2183  140.2930  142.8370 H   0  0  0  0  0  0  0  0  0  0  0  0  # atno 7974 bound_to 7965
  156.2156  140.1798  156.7597 H   0  0  0  0  0  0  0  0  0  0  0  0  # atno 8008 bound_to 7997
  154.5786  140.0670  156.9100 H   0  0  0  0  0  0  0  0  0  0  0  0  # atno 8009 bound_to 7997
  155.2543  140.3331  155.4281 H   0  0  0  0  0  0  0  0  0  0  0  0  # atno 8010 bound_to 7997
  140.3479  144.2388  150.6148 H   0  0  0  0  0  0  0  0  0  0  0  0  # atno 10167 bound_to 10162
  156.7205  130.5149  149.5869 H   0  0  0  0  0  0  0  0  0  0  0  0  # atno 10718 bound_to 10713
  153.7414  135.6932  153.4966 H   0  0  0  0  0  0  0  0  0  0  0  0  # atno 10763 bound_to 10752
  153.2066  135.4417  155.0329 H   0  0  0  0  0  0  0  0  0  0  0  0  # atno 10764 bound_to 10752
  154.8219  135.3426  154.6939 H   0  0  0  0  0  0  0  0  0  0  0  0  # atno 10765 bound_to 10752
  139.9377  134.7458  156.1184 H   0  0  0  0  0  0  0  0  0  0  0  0  # atno 11005 bound_to 11000
  144.9113  140.7760  143.5806 LP  0  0  0  0  0  0  0  0  0  0  0  0  # atno 17320 bound_to 7965
  145.2861  139.1900  143.4765 LP  0  0  0  0  0  0  0  0  0  0  0  0  # atno 17321 bound_to 7965
  140.5247  143.2257  151.8333 LP  0  0  0  0  0  0  0  0  0  0  0  0  # atno 17342 bound_to 10162
  139.4830  144.4794  151.9326 LP  0  0  0  0  0  0  0  0  0  0  0  0  # atno 17343 bound_to 10162
  156.1598  130.6366  151.0704 LP  0  0  0  0  0  0  0  0  0  0  0  0  # atno 17370 bound_to 10713
  157.6900  131.0813  150.7135 LP  0  0  0  0  0  0  0  0  0  0  0  0  # atno 17371 bound_to 10713
  141.0998  133.6681  156.2728 LP  0  0  0  0  0  0  0  0  0  0  0  0  # atno 17394 bound_to 11000
  140.6033  134.5533  157.5521 LP  0  0  0  0  0  0  0  0  0  0  0  0  # atno 17395 bound_to 11000

$$$$
