AV-unprocessed.smi:354|AV-procd|sdf|2406|dock3
  -GOLD-   2262022343D 1   1.00000     0.00000
 Structure written by MMmdl.
 37 39  0  0  0  0  0  0  0  0  2 V2000
  149.7260  140.9855  153.6119 O   0  0  0  0  0  0  0  0  0  0  0  0
  149.2933  140.6985  154.9233 C   0  0  0  0  0  0  0  0  0  0  0  0
  150.1583  141.3379  155.9587 C   0  0  0  0  0  0  0  0  0  0  0  0
  150.2722  142.6763  156.1894 N   0  3  0  0  0  0  0  0  0  0  0  0
  151.1641  142.9008  157.2388 C   0  0  0  0  0  0  0  0  0  0  0  0
  151.5973  144.0846  157.8286 C   0  0  0  0  0  0  0  0  0  0  0  0
  152.5232  143.9630  158.8854 C   0  0  0  0  0  0  0  0  0  0  0  0
  152.9837  142.7022  159.3169 C   0  0  0  0  0  0  0  0  0  0  0  0
  152.5354  141.5091  158.7130 C   0  0  0  0  0  0  0  0  0  0  0  0
  151.6179  141.6372  157.6700 C   0  0  0  0  0  0  0  0  0  0  0  0
  150.9672  140.7028  156.8548 N   0  0  0  0  0  0  0  0  0  0  0  0
  151.2110  139.2654  157.0572 C   0  0  0  0  0  0  0  0  0  0  0  0
  151.7964  138.5674  155.8119 C   0  0  1  0  0  0  0  0  0  0  0  0
  153.1949  138.7670  155.7390 O   0  0  0  0  0  0  0  0  0  0  0  0
  151.4210  137.0925  155.7725 C   0  0  0  0  0  0  0  0  0  0  0  0
  150.5453  136.6230  154.7693 C   0  0  0  0  0  0  0  0  0  0  0  0
  150.1785  135.2642  154.7220 C   0  0  0  0  0  0  0  0  0  0  0  0
  150.6841  134.3643  155.6789 C   0  0  0  0  0  0  0  0  0  0  0  0
  151.5566  134.8246  156.6830 C   0  0  0  0  0  0  0  0  0  0  0  0
  151.9243  136.1837  156.7334 C   0  0  0  0  0  0  0  0  0  0  0  0
  152.7586  136.6085  157.7129 F   0  0  0  0  0  0  0  0  0  0  0  0
  149.4485  140.2844  153.0423 H   0  0  0  0  0  0  0  0  0  0  0  0
  148.2654  141.0407  155.0439 H   0  0  0  0  0  0  0  0  0  0  0  0
  149.2903  139.6179  155.0682 H   0  0  0  0  0  0  0  0  0  0  0  0
  151.2476  145.0520  157.4991 H   0  0  0  0  0  0  0  0  0  0  0  0
  152.8890  144.8545  159.3739 H   0  0  0  0  0  0  0  0  0  0  0  0
  153.6960  142.6480  160.1274 H   0  0  0  0  0  0  0  0  0  0  0  0
  152.9000  140.5493  159.0480 H   0  0  0  0  0  0  0  0  0  0  0  0
  151.8511  139.1331  157.9293 H   0  0  0  0  0  0  0  0  0  0  0  0
  150.2547  138.8109  157.3185 H   0  0  0  0  0  0  0  0  0  0  0  0
  151.3797  139.0465  154.9253 H   0  0  0  0  0  0  0  0  0  0  0  0
  153.5204  138.3266  154.9686 H   0  0  0  0  0  0  0  0  0  0  0  0
  150.1486  137.3042  154.0307 H   0  0  0  0  0  0  0  0  0  0  0  0
  149.5072  134.9127  153.9523 H   0  0  0  0  0  0  0  0  0  0  0  0
  150.4018  133.3223  155.6438 H   0  0  0  0  0  0  0  0  0  0  0  0
  151.9430  134.1345  157.4186 H   0  0  0  0  0  0  0  0  0  0  0  0
  149.7709  143.3830  155.6670 H   0  0  0  0  0  0  0  0  0  0  0  0
  1  2  1  0  0  0  0
  1 22  1  0  0  0  0
  2  3  1  0  0  0  0
  2 23  1  0  0  0  0
  2 24  1  0  0  0  0
  3 11  1  0  0  0  0
  3  4  2  0  0  0  0
  4  5  1  0  0  0  0
  4 37  1  0  0  0  0
  5 10  2  0  0  0  0
  5  6  1  0  0  0  0
  6  7  2  0  0  0  0
  6 25  1  0  0  0  0
  7  8  1  0  0  0  0
  7 26  1  0  0  0  0
  8  9  2  0  0  0  0
  8 27  1  0  0  0  0
  9 10  1  0  0  0  0
  9 28  1  0  0  0  0
 10 11  1  0  0  0  0
 11 12  1  0  0  0  0
 12 13  1  0  0  0  0
 12 29  1  0  0  0  0
 12 30  1  0  0  0  0
 13 14  1  0  0  0  0
 13 15  1  0  0  0  0
 13 31  1  0  0  0  0
 14 32  1  0  0  0  0
 15 20  1  0  0  0  0
 15 16  2  0  0  0  0
 16 17  1  0  0  0  0
 16 33  1  0  0  0  0
 17 18  2  0  0  0  0
 17 34  1  0  0  0  0
 18 19  1  0  0  0  0
 18 35  1  0  0  0  0
 19 20  2  0  0  0  0
 19 36  1  0  0  0  0
 20 21  1  0  0  0  0
M  CHG  1   4   1
M  END
> <s_m_source_file>
AV-unprocessed.smi

> <i_m_source_file_index>
354

> <i_lp_mmshare_version>
43012

> <i_f3d_flags>
0

> <s_epik_input>
W2NIXTFbY0hdW2NIXVtjSF1jKGMxMiluKGMobjIpW0NIMl1bT0hdKVtDSDJdW0NASF0oW09IXSljM1tjSF1bY0hdW2NIXVtjSF1jM0Y=

> <s_epik_cmdline>
J2VwaWtfcHl0aG9uJywgJy1waCcsICc3LjAnLCAnLXRuJywgJzgnLCAnLW1hJywgJzIwMCcsICctbWV0YWxfYmluZGluZycsICctaW1hZScsICc8aW5maWxlLm1hZT4nLCAnLW9tYWUnLCAnPG91dGZpbGUubWFlPic=

> <r_epik_Ionization_Penalty>
1.35643

> <r_epik_Ionization_Penalty_Charging>
1.35557

> <r_epik_Ionization_Penalty_Neutral>
0.000857128

> <r_epik_State_Penalty>
1.43401

> <r_epik_Charging_Adjusted_Penalty>
2.78958

> <i_epik_Tot_Q>
1

> <i_epik_Tot_abs_Q>
1

> <r_epik_Metal_State_Penalty>
5.47166

> <b_epik_Metal_Only>
0

> <s_lp_Force_Field>
OPLS_2005

> <r_lp_Energy>
15.3671

> <b_lp_Chiralities_Consistent>
1

> <s_lp_Variant>
AV-unprocessed.smi:354-4

> <Gold.Version>
5.8.1

> <Gold.Id.Protein>
6NUR|6NUR_protein|mol2

> <Gold.PLP.Fitness>
55.4837

> <Gold.PLP.PLP>
-41.5212

> <Gold.PLP.part.hbond>
-4.8086

> <Gold.PLP.part.metal>
0.0000

> <Gold.PLP.part.buried>
-2.6576

> <Gold.PLP.part.nonpolar>
-34.9571

> <Gold.PLP.part.repulsive>
0.1150

> <Gold.PLP.ligand.clash>
0.0000

> <Gold.PLP.ligand.torsion>
0.3812

> <Gold.PLP.Chemscore.Hbond>
4.8940

> <Gold.PLP.Chemscore.CHOScore>
0.0000

> <Gold.PLP.Chemscore.Metal>
0.0000

> <Gold.Chemscore.Hbonds>
donor molecule, donor type, donor heavy atom, donor atom, acceptor molecule, acceptor atom, score
      L1  H     1    22       P1  7957  0.62
      L1  H     4    37       P1  8028  1.98
      P1  H  7989  7998       L1     1  0.30
      P1  H  7997  8009       L1    14  1.00
      P1  H  8011  8017       L1     1  0.95

> <Gold.PLP.Chemscore.Internal.Correction>
0.0429

> <Gold.Rescore>
     Score         DG    S(hbond)    S(metal)    S(lipo)     H(rot)  DE(clash)    DE(int)     intcor
     18.49     -20.66       2.92        0.00     108.11       2.82       0.06       2.11       ----

> <Gold.Chemscore.Fitness>
18.4932

> <Gold.Chemscore.DG>
-20.6625

> <Gold.Chemscore.ZeroCoef>
-5.4800

> <Gold.Chemscore.Hbond>
2.9215

> <Gold.Chemscore.Metal>
0.0000

> <Gold.Chemscore.Lipo>
108.1088

> <Gold.Chemscore.Internal_Hbond>
0.0000

> <Gold.Chemscore.DEClash>
0.0634

> <Gold.Chemscore.DEInternal>
2.1059

> <Gold.Chemscore.Rot>
2.8219

> <Gold.Chemscore.Internal.Correction>
   9.000000E+99

> <Gold.Chemscore.Hbonds>
donor molecule, donor type, donor heavy atom, donor atom, acceptor molecule, acceptor atom, score
      L1  H     1    22       P1  7957  0.62
      L1  H     4    37       P1  8028  0.93
      P1  H  7989  7998       L1     1  0.09
      P1  H  7997  8009       L1    14  0.47
      P1  H  8011  8017       L1     1  0.20

> <Gold.Chemscore.Hbond.Weighted>
-9.7578

> <Gold.Chemscore.Metal.Weighted>
-0.0000

> <Gold.Chemscore.Lipo.Weighted>
-12.6487

> <Gold.Chemscore.Internal_Hbond.Weighted>
0.0000

> <Gold.Chemscore.DEClash.Weighted>
0.0634

> <Gold.Chemscore.DEInternal.Weighted>
2.1059

> <Gold.Chemscore.Rot.Weighted>
7.2240

> <Gold.Chemscore.Internal.Correction.Weighted>
   9.000000E+99

> <Gold.Protein.RotatedTorsions>
[ 6907 6896 6895 6894 ] final  142.84 input  -60.11 | X-H torsion
[ 7974 7965 7964 7962 ] final    5.84 input  175.53 | X-H torsion
[ 8008 7997 7996 7995 ] final -144.25 input   59.86 | X-H torsion
[ 10167 10162 10161 10158 ] final -109.35 input  -65.29 | X-H torsion
[ 10718 10713 10712 10709 ] final  -58.33 input   66.30 | X-H torsion
[ 10763 10752 10751 10750 ] final  158.19 input  -60.55 | X-H torsion
[ 11005 11000 10999 10996 ] final   36.74 input  -57.11 | X-H torsion

> <Gold.Protein.ActiveResidues>
 VAL166  LYS551  ARG553  GLY616  TRP617  ASP618  TYR619  PRO620  LYS621  CYS622 
 ASP623  PHE694  ASN695  SER759  ASP760  ASP761  ALA762  ILE779  LEU786  VAL792 
 PHE793  MET794  SER795  GLU796  ALA797  LYS798  CYS799  TRP800  GLU811  SER814 

> <Gold.Protein.RotatedAtoms>
  152.2137  133.4930  159.5123 H   0  0  0  0  0  0  0  0  0  0  0  0  # atno 6907 bound_to 6896
  150.6996  134.1434  159.4122 H   0  0  0  0  0  0  0  0  0  0  0  0  # atno 6908 bound_to 6896
  151.9353  135.0237  160.0583 H   0  0  0  0  0  0  0  0  0  0  0  0  # atno 6909 bound_to 6896
  146.2438  140.0324  142.8388 H   0  0  0  0  0  0  0  0  0  0  0  0  # atno 7974 bound_to 7965
  155.5238  140.0594  157.2902 H   0  0  0  0  0  0  0  0  0  0  0  0  # atno 8008 bound_to 7997
  154.4508  140.1948  156.0471 H   0  0  0  0  0  0  0  0  0  0  0  0  # atno 8009 bound_to 7997
  156.0700  140.3261  155.7568 H   0  0  0  0  0  0  0  0  0  0  0  0  # atno 8010 bound_to 7997
  140.1563  143.4157  152.1458 H   0  0  0  0  0  0  0  0  0  0  0  0  # atno 10167 bound_to 10162
  156.1143  130.4172  150.0562 H   0  0  0  0  0  0  0  0  0  0  0  0  # atno 10718 bound_to 10713
  154.2121  135.2785  155.2954 H   0  0  0  0  0  0  0  0  0  0  0  0  # atno 10763 bound_to 10752
  154.5770  135.5601  153.7152 H   0  0  0  0  0  0  0  0  0  0  0  0  # atno 10764 bound_to 10752
  153.0061  135.6335  154.2260 H   0  0  0  0  0  0  0  0  0  0  0  0  # atno 10765 bound_to 10752
  140.2295  134.3544  155.7970 H   0  0  0  0  0  0  0  0  0  0  0  0  # atno 11005 bound_to 11000
  145.1143  140.9424  143.4638 LP  0  0  0  0  0  0  0  0  0  0  0  0  # atno 17320 bound_to 7965
  145.0545  139.3155  143.5912 LP  0  0  0  0  0  0  0  0  0  0  0  0  # atno 17321 bound_to 7965
  139.5402  144.7249  151.4759 LP  0  0  0  0  0  0  0  0  0  0  0  0  # atno 17342 bound_to 10162
  140.6671  143.8374  150.6955 LP  0  0  0  0  0  0  0  0  0  0  0  0  # atno 17343 bound_to 10162
  156.8518  130.9461  151.3625 LP  0  0  0  0  0  0  0  0  0  0  0  0  # atno 17370 bound_to 10713
  157.6326  130.8741  149.9301 LP  0  0  0  0  0  0  0  0  0  0  0  0  # atno 17371 bound_to 10713
  141.2218  133.7237  156.8708 LP  0  0  0  0  0  0  0  0  0  0  0  0  # atno 17394 bound_to 11000
  140.1765  134.9063  157.2897 LP  0  0  0  0  0  0  0  0  0  0  0  0  # atno 17395 bound_to 11000

$$$$
