AV-unprocessed.smi:2087|AV-procd|sdf|8521|dock6
  -GOLD-   2272011233D 1   1.00000     0.00000
 Structure written by MMmdl.
 51 52  0  0  0  0  0  0  0  0  2 V2000
  145.0162  131.9793  151.5381 C   0  0  0  0  0  0  0  0  0  0  0  0
  143.6815  132.5459  151.0311 C   0  0  0  0  0  0  0  0  0  0  0  0
  143.6408  132.5271  149.4936 C   0  0  0  0  0  0  0  0  0  0  0  0
  143.4436  133.9630  151.5969 C   0  0  0  0  0  0  0  0  0  0  0  0
  143.5414  134.0222  153.0811 N   0  3  2  0  0  0  0  0  0  0  0  0
  142.6406  135.0269  153.6958 C   0  0  0  0  0  0  0  0  0  0  0  0
  143.2106  136.4479  153.5456 C   0  0  0  0  0  0  0  0  0  0  0  0
  144.5054  136.4991  154.1307 O   0  0  0  0  0  0  0  0  0  0  0  0
  145.4319  135.6267  153.4922 C   0  0  1  0  0  0  0  0  0  0  0  0
  146.7988  135.8353  154.1627 C   0  0  0  0  0  0  0  0  0  0  0  0
  147.3915  137.1104  153.7783 N   0  0  0  0  0  0  0  0  0  0  0  0
  146.9511  138.3070  154.1912 C   0  0  0  0  0  0  0  0  0  0  0  0
  145.9978  138.4452  154.9586 O   0  0  0  0  0  0  0  0  0  0  0  0
  147.7250  139.5253  153.6692 C   0  0  0  0  0  0  0  0  0  0  0  0
  149.0812  139.6287  154.2231 N   0  0  0  0  0  0  0  0  0  0  0  0
  150.0114  138.6442  153.9422 C   0  0  0  0  0  0  0  0  0  0  0  0
  151.2740  138.6535  154.4222 C   0  0  0  0  0  0  0  0  0  0  0  0
  151.7369  139.7336  155.2843 C   0  0  0  0  0  0  0  0  0  0  0  0
  152.8731  139.7827  155.7580 O   0  0  0  0  0  0  0  0  0  0  0  0
  150.7711  140.7320  155.5481 N   0  0  0  0  0  0  0  0  0  0  0  0
  151.1830  141.8194  156.4113 C   0  0  0  0  0  0  0  0  0  0  0  0
  149.4464  140.7117  155.0526 C   0  0  0  0  0  0  0  0  0  0  0  0
  148.6249  141.5902  155.3249 O   0  0  0  0  0  0  0  0  0  0  0  0
  144.9212  134.1702  153.6122 C   0  0  0  0  0  0  0  0  0  0  0  0
  145.8589  132.5856  151.2040 H   0  0  0  0  0  0  0  0  0  0  0  0
  145.1747  130.9627  151.1766 H   0  0  0  0  0  0  0  0  0  0  0  0
  145.0417  131.9458  152.6277 H   0  0  0  0  0  0  0  0  0  0  0  0
  142.9017  131.8776  151.3943 H   0  0  0  0  0  0  0  0  0  0  0  0
  144.4006  133.1835  149.0678 H   0  0  0  0  0  0  0  0  0  0  0  0
  142.6708  132.8501  149.1148 H   0  0  0  0  0  0  0  0  0  0  0  0
  143.8187  131.5222  149.1095 H   0  0  0  0  0  0  0  0  0  0  0  0
  144.1391  134.6727  151.1489 H   0  0  0  0  0  0  0  0  0  0  0  0
  142.4484  134.2861  151.2878 H   0  0  0  0  0  0  0  0  0  0  0  0
  141.6388  134.9613  153.2697 H   0  0  0  0  0  0  0  0  0  0  0  0
  142.5368  134.7914  154.7558 H   0  0  0  0  0  0  0  0  0  0  0  0
  143.2538  136.7515  152.4985 H   0  0  0  0  0  0  0  0  0  0  0  0
  142.5672  137.1646  154.0563 H   0  0  0  0  0  0  0  0  0  0  0  0
  145.5178  135.9133  152.4429 H   0  0  0  0  0  0  0  0  0  0  0  0
  146.6863  135.8188  155.2478 H   0  0  0  0  0  0  0  0  0  0  0  0
  147.4677  135.0139  153.9003 H   0  0  0  0  0  0  0  0  0  0  0  0
  148.1797  137.0840  153.1479 H   0  0  0  0  0  0  0  0  0  0  0  0
  147.7722  139.4562  152.5817 H   0  0  0  0  0  0  0  0  0  0  0  0
  147.1644  140.4376  153.8815 H   0  0  0  0  0  0  0  0  0  0  0  0
  149.7141  137.8197  153.3104 H   0  0  0  0  0  0  0  0  0  0  0  0
  151.9492  137.8498  154.1675 H   0  0  0  0  0  0  0  0  0  0  0  0
  150.4554  142.6304  156.3971 H   0  0  0  0  0  0  0  0  0  0  0  0
  152.1370  142.1986  156.0401 H   0  0  0  0  0  0  0  0  0  0  0  0
  151.2817  141.4071  157.4167 H   0  0  0  0  0  0  0  0  0  0  0  0
  144.9065  133.8810  154.6639 H   0  0  0  0  0  0  0  0  0  0  0  0
  145.6014  133.4761  153.1210 H   0  0  0  0  0  0  0  0  0  0  0  0
  143.2052  133.1240  153.3983 H   0  0  0  0  0  0  0  0  0  0  0  0
  1  2  1  0  0  0  0
  1 25  1  0  0  0  0
  1 26  1  0  0  0  0
  1 27  1  0  0  0  0
  2  3  1  0  0  0  0
  2  4  1  0  0  0  0
  2 28  1  0  0  0  0
  3 29  1  0  0  0  0
  3 30  1  0  0  0  0
  3 31  1  0  0  0  0
  4  5  1  0  0  0  0
  4 32  1  0  0  0  0
  4 33  1  0  0  0  0
  5 24  1  0  0  0  0
  5  6  1  0  0  0  0
  5 51  1  0  0  0  0
  6  7  1  0  0  0  0
  6 34  1  0  0  0  0
  6 35  1  0  0  0  0
  7  8  1  0  0  0  0
  7 36  1  0  0  0  0
  7 37  1  0  0  0  0
  8  9  1  0  0  0  0
  9 10  1  0  0  0  0
  9 24  1  0  0  0  0
  9 38  1  0  0  0  0
 10 11  1  0  0  0  0
 10 39  1  0  0  0  0
 10 40  1  0  0  0  0
 11 12  1  0  0  0  0
 11 41  1  0  0  0  0
 12 13  2  0  0  0  0
 12 14  1  0  0  0  0
 14 15  1  0  0  0  0
 14 42  1  0  0  0  0
 14 43  1  0  0  0  0
 15 22  1  0  0  0  0
 15 16  1  0  0  0  0
 16 17  2  0  0  0  0
 16 44  1  0  0  0  0
 17 18  1  0  0  0  0
 17 45  1  0  0  0  0
 18 19  2  0  0  0  0
 18 20  1  0  0  0  0
 20 21  1  0  0  0  0
 20 22  1  0  0  0  0
 21 46  1  0  0  0  0
 21 47  1  0  0  0  0
 21 48  1  0  0  0  0
 22 23  2  0  0  0  0
 24 49  1  0  0  0  0
 24 50  1  0  0  0  0
M  CHG  1   5   1
M  END
> <s_m_source_file>
AV-unprocessed.smi

> <i_m_source_file_index>
2087

> <i_lp_mmshare_version>
43012

> <i_f3d_flags>
0

> <s_epik_input>
W0NIM11bQ0hdKFtDSDNdKVtDSDJdTjFbQ0gyXVtDSDJdT1tDQEhdKFtDSDJdMSlbQ0gyXVtOSF1DKD1PKVtDSDJdbjJbY0hdW2NIXWMoPU8pbihbQ0gzXSljMj1P

> <s_epik_cmdline>
J2VwaWtfcHl0aG9uJywgJy1waCcsICc3LjAnLCAnLXRuJywgJzgnLCAnLW1hJywgJzIwMCcsICctbWV0YWxfYmluZGluZycsICctaW1hZScsICc8aW5maWxlLm1hZT4nLCAnLW9tYWUnLCAnPG91dGZpbGUubWFlPic=

> <r_lp_tautomer_probability>
1

> <r_epik_Ionization_Penalty>
0.097593

> <r_epik_Ionization_Penalty_Charging>
0.097593

> <r_epik_Ionization_Penalty_Neutral>
6.27044e-08

> <r_epik_State_Penalty>
0.0877056

> <r_epik_Charging_Adjusted_Penalty>
0.185299

> <i_epik_Tot_Q>
1

> <i_epik_Tot_abs_Q>
1

> <r_epik_Metal_State_Penalty>
0.0877109

> <b_epik_Metal_Only>
0

> <s_lp_Force_Field>
OPLS_2005

> <r_lp_Energy>
29.4179

> <b_lp_Chiralities_Consistent>
1

> <s_lp_Variant>
AV-unprocessed.smi:2087-2

> <Gold.Version>
5.8.1

> <Gold.Id.Protein>
6NUR|6NUR_protein|mol2

> <Gold.PLP.Fitness>
54.2214

> <Gold.PLP.PLP>
-40.4964

> <Gold.PLP.part.hbond>
-3.0000

> <Gold.PLP.part.metal>
0.0000

> <Gold.PLP.part.buried>
-3.2092

> <Gold.PLP.part.nonpolar>
-34.5273

> <Gold.PLP.part.repulsive>
0.6491

> <Gold.PLP.ligand.clash>
0.0000

> <Gold.PLP.ligand.torsion>
0.6037

> <Gold.PLP.Chemscore.Hbond>
3.9280

> <Gold.PLP.Chemscore.CHOScore>
1.0000

> <Gold.PLP.Chemscore.Metal>
0.0000

> <Gold.Chemscore.Hbonds>
donor molecule, donor type, donor heavy atom, donor atom, acceptor molecule, acceptor atom, score
      L1  H     5    51       P1 10957  2.00
      L1  H    11    41       P1  7948  0.93
      P1  H  7997  8010       L1    19  1.00
      L1  C    16    44       P1  7948  1.00

> <Gold.PLP.Chemscore.Internal.Correction>
0.1485

> <Gold.Rescore>
     Score         DG    S(hbond)    S(metal)    S(lipo)     H(rot)  DE(clash)    DE(int)     intcor
     16.34     -18.21       2.88        0.00      75.21       2.22       0.21       1.66       ----

> <Gold.Chemscore.Fitness>
16.3418

> <Gold.Chemscore.DG>
-18.2060

> <Gold.Chemscore.ZeroCoef>
-5.4800

> <Gold.Chemscore.Hbond>
2.8807

> <Gold.Chemscore.Metal>
0.0000

> <Gold.Chemscore.Lipo>
75.2143

> <Gold.Chemscore.Internal_Hbond>
0.0000

> <Gold.Chemscore.DEClash>
0.2066

> <Gold.Chemscore.DEInternal>
1.6576

> <Gold.Chemscore.Rot>
2.2249

> <Gold.Chemscore.Internal.Correction>
   9.000000E+99

> <Gold.Chemscore.Hbonds>
donor molecule, donor type, donor heavy atom, donor atom, acceptor molecule, acceptor atom, score
      L1  H     5    51       P1 10957  0.85
      L1  H    11    41       P1  7948  0.91
      P1  H  7997  8010       L1    19  0.97

> <Gold.Chemscore.Hbond.Weighted>
-9.6216

> <Gold.Chemscore.Metal.Weighted>
-0.0000

> <Gold.Chemscore.Lipo.Weighted>
-8.8001

> <Gold.Chemscore.Internal_Hbond.Weighted>
0.0000

> <Gold.Chemscore.DEClash.Weighted>
0.2066

> <Gold.Chemscore.DEInternal.Weighted>
1.6576

> <Gold.Chemscore.Rot.Weighted>
5.6957

> <Gold.Chemscore.Internal.Correction.Weighted>
   9.000000E+99

> <Gold.Protein.RotatedTorsions>
[ 6907 6896 6895 6894 ] final  111.69 input  -60.11 | X-H torsion
[ 7974 7965 7964 7962 ] final  -48.18 input  175.53 | X-H torsion
[ 8008 7997 7996 7995 ] final   72.19 input   59.86 | X-H torsion
[ 10167 10162 10161 10158 ] final -117.32 input  -65.29 | X-H torsion
[ 10718 10713 10712 10709 ] final  156.07 input   66.30 | X-H torsion
[ 10763 10752 10751 10750 ] final  129.82 input  -60.55 | X-H torsion
[ 11005 11000 10999 10996 ] final  178.02 input  -57.11 | X-H torsion

> <Gold.Protein.ActiveResidues>
 VAL166  LYS551  ARG553  GLY616  TRP617  ASP618  TYR619  PRO620  LYS621  CYS622 
 ASP623  PHE694  ASN695  SER759  ASP760  ASP761  ALA762  ILE779  LEU786  VAL792 
 PHE793  MET794  SER795  GLU796  ALA797  LYS798  CYS799  TRP800  GLU811  SER814 

> <Gold.Protein.RotatedAtoms>
  152.4956  133.8622  159.7255 H   0  0  0  0  0  0  0  0  0  0  0  0  # atno 6907 bound_to 6896
  150.9131  133.6964  159.2856 H   0  0  0  0  0  0  0  0  0  0  0  0  # atno 6908 bound_to 6896
  151.4366  135.1020  159.9710 H   0  0  0  0  0  0  0  0  0  0  0  0  # atno 6909 bound_to 6896
  145.9538  140.7546  142.9491 H   0  0  0  0  0  0  0  0  0  0  0  0  # atno 7974 bound_to 7965
  155.7652  140.3485  155.5218 H   0  0  0  0  0  0  0  0  0  0  0  0  # atno 8008 bound_to 7997
  155.8875  140.1012  157.1463 H   0  0  0  0  0  0  0  0  0  0  0  0  # atno 8009 bound_to 7997
  154.4030  140.1310  156.4261 H   0  0  0  0  0  0  0  0  0  0  0  0  # atno 8010 bound_to 7997
  140.0696  143.4890  152.1987 H   0  0  0  0  0  0  0  0  0  0  0  0  # atno 10167 bound_to 10162
  157.2099  131.0695  151.1975 H   0  0  0  0  0  0  0  0  0  0  0  0  # atno 10718 bound_to 10713
  153.7480  135.3214  155.3316 H   0  0  0  0  0  0  0  0  0  0  0  0  # atno 10763 bound_to 10752
  154.8273  135.4560  154.0960 H   0  0  0  0  0  0  0  0  0  0  0  0  # atno 10764 bound_to 10752
  153.2155  135.6941  153.8145 H   0  0  0  0  0  0  0  0  0  0  0  0  # atno 10765 bound_to 10752
  140.3905  134.6867  157.4504 H   0  0  0  0  0  0  0  0  0  0  0  0  # atno 11005 bound_to 11000
  144.6801  140.2479  143.7335 LP  0  0  0  0  0  0  0  0  0  0  0  0  # atno 17320 bound_to 7965
  145.8134  139.2013  143.1980 LP  0  0  0  0  0  0  0  0  0  0  0  0  # atno 17321 bound_to 7965
  139.5844  144.7524  151.3557 LP  0  0  0  0  0  0  0  0  0  0  0  0  # atno 17342 bound_to 10162
  140.7132  143.7335  150.7606 LP  0  0  0  0  0  0  0  0  0  0  0  0  # atno 17343 bound_to 10162
  157.3682  130.7167  149.6547 LP  0  0  0  0  0  0  0  0  0  0  0  0  # atno 17370 bound_to 10713
  155.9691  130.4206  150.4431 LP  0  0  0  0  0  0  0  0  0  0  0  0  # atno 17371 bound_to 10713
  140.0410  134.6267  155.8980 LP  0  0  0  0  0  0  0  0  0  0  0  0  # atno 17394 bound_to 11000
  141.1892  133.6565  156.5359 LP  0  0  0  0  0  0  0  0  0  0  0  0  # atno 17395 bound_to 11000

$$$$
