AV-unprocessed.smi:753|AV-procd|sdf|3603|dock2
  -GOLD-   22720 0593D 1   1.00000     0.00000
 Structure written by MMmdl.
 44 46  0  0  0  0  0  0  0  0  2 V2000
  151.4022  144.4214  157.9780 C   0  0  0  0  0  0  0  0  0  0  0  0
  151.4365  142.9759  157.5292 C   0  0  0  0  0  0  0  0  0  0  0  0
  152.0570  141.9627  158.2915 C   0  0  0  0  0  0  0  0  0  0  0  0
  152.0537  140.6376  157.8077 C   0  0  0  0  0  0  0  0  0  0  0  0
  151.4293  140.3525  156.5736 C   0  0  0  0  0  0  0  0  0  0  0  0
  151.4179  138.9402  156.0230 C   0  0  0  0  0  0  0  0  0  0  0  0
  150.8458  138.8823  154.5975 C   0  0  0  0  0  0  0  0  0  0  0  0
  150.6210  137.5077  154.1690 N   0  0  0  0  0  0  0  0  0  0  0  0
  149.8957  136.5999  154.8440 C   0  0  0  0  0  0  0  0  0  0  0  0
  149.3415  136.8381  155.9157 O   0  0  0  0  0  0  0  0  0  0  0  0
  149.8133  135.3951  154.2528 N   0  0  0  0  0  0  0  0  0  0  0  0
  149.1040  134.2058  154.7300 C   0  0  2  0  0  0  0  0  0  0  0  0
  149.9707  132.9246  154.6868 C   0  0  0  0  0  0  0  0  0  0  0  0
  149.1491  131.9847  153.7852 C   0  0  1  0  0  0  0  0  0  0  0  0
  147.8642  131.5563  154.5206 C   0  0  0  0  0  0  0  0  0  0  0  0
  147.0132  132.8413  154.4993 C   0  0  0  0  0  0  0  0  0  0  0  0
  147.9379  133.8444  153.7844 C   0  0  2  0  0  0  0  0  0  0  0  0
  148.6075  132.9528  152.7425 C   0  0  0  0  0  0  0  0  0  0  0  0
  150.8241  141.4058  155.8556 C   0  0  0  0  0  0  0  0  0  0  0  0
  150.8498  142.6619  156.3522 N   0  3  0  0  0  0  0  0  0  0  0  0
  151.8559  144.5385  158.9626 H   0  0  0  0  0  0  0  0  0  0  0  0
  150.3737  144.7793  158.0326 H   0  0  0  0  0  0  0  0  0  0  0  0
  151.9485  145.0498  157.2741 H   0  0  0  0  0  0  0  0  0  0  0  0
  152.5315  142.1944  159.2339 H   0  0  0  0  0  0  0  0  0  0  0  0
  152.5279  139.8514  158.3775 H   0  0  0  0  0  0  0  0  0  0  0  0
  152.4349  138.5453  156.0397 H   0  0  0  0  0  0  0  0  0  0  0  0
  150.8312  138.3047  156.6880 H   0  0  0  0  0  0  0  0  0  0  0  0
  149.8929  139.4104  154.5556 H   0  0  0  0  0  0  0  0  0  0  0  0
  151.5121  139.3872  153.8956 H   0  0  0  0  0  0  0  0  0  0  0  0
  151.0410  137.2245  153.2954 H   0  0  0  0  0  0  0  0  0  0  0  0
  150.3003  135.2906  153.3743 H   0  0  0  0  0  0  0  0  0  0  0  0
  148.7238  134.3952  155.7356 H   0  0  0  0  0  0  0  0  0  0  0  0
  150.9488  133.1155  154.2420 H   0  0  0  0  0  0  0  0  0  0  0  0
  150.1364  132.5043  155.6794 H   0  0  0  0  0  0  0  0  0  0  0  0
  149.7244  131.1498  153.3845 H   0  0  0  0  0  0  0  0  0  0  0  0
  147.3579  130.7522  153.9849 H   0  0  0  0  0  0  0  0  0  0  0  0
  148.0668  131.2077  155.5341 H   0  0  0  0  0  0  0  0  0  0  0  0
  146.0972  132.6840  153.9279 H   0  0  0  0  0  0  0  0  0  0  0  0
  146.7291  133.1717  155.4991 H   0  0  0  0  0  0  0  0  0  0  0  0
  147.4068  134.7080  153.3819 H   0  0  0  0  0  0  0  0  0  0  0  0
  149.3894  133.4591  152.1739 H   0  0  0  0  0  0  0  0  0  0  0  0
  147.9020  132.4924  152.0484 H   0  0  0  0  0  0  0  0  0  0  0  0
  150.3271  141.2838  154.9041 H   0  0  0  0  0  0  0  0  0  0  0  0
  150.4077  143.4076  155.8142 H   0  0  0  0  0  0  0  0  0  0  0  0
  1  2  1  0  0  0  0
  1 21  1  0  0  0  0
  1 22  1  0  0  0  0
  1 23  1  0  0  0  0
  2 20  1  0  0  0  0
  2  3  2  0  0  0  0
  3  4  1  0  0  0  0
  3 24  1  0  0  0  0
  4  5  2  0  0  0  0
  4 25  1  0  0  0  0
  5  6  1  0  0  0  0
  5 19  1  0  0  0  0
  6  7  1  0  0  0  0
  6 26  1  0  0  0  0
  6 27  1  0  0  0  0
  7  8  1  0  0  0  0
  7 28  1  0  0  0  0
  7 29  1  0  0  0  0
  8  9  1  0  0  0  0
  8 30  1  0  0  0  0
  9 10  2  0  0  0  0
  9 11  1  0  0  0  0
 11 12  1  0  0  0  0
 11 31  1  0  0  0  0
 12 17  1  0  0  0  0
 12 13  1  0  0  0  0
 12 32  1  0  0  0  0
 13 14  1  0  0  0  0
 13 33  1  0  0  0  0
 13 34  1  0  0  0  0
 14 18  1  0  0  0  0
 14 15  1  0  0  0  0
 14 35  1  0  0  0  0
 15 16  1  0  0  0  0
 15 36  1  0  0  0  0
 15 37  1  0  0  0  0
 16 17  1  0  0  0  0
 16 38  1  0  0  0  0
 16 39  1  0  0  0  0
 17 18  1  0  0  0  0
 17 40  1  0  0  0  0
 18 41  1  0  0  0  0
 18 42  1  0  0  0  0
 19 20  2  0  0  0  0
 19 43  1  0  0  0  0
 20 44  1  0  0  0  0
M  CHG  1  20   1
M  END
> <s_m_source_file>
AV-unprocessed.smi

> <i_m_source_file_index>
753

> <i_lp_mmshare_version>
43012

> <i_f3d_flags>
0

> <s_epik_input>
W0NIM11jMVtjSF1bY0hdYyhbY0hdbjEpW0NIMl1bQ0gyXVtOSF1DKD1PKVtOSF1bQ0BIXShbQ0gyXVtDQEBIXTIzKVtDQEBIXShbQ0gyXTMpW0NIMl1bQ0gyXTI=

> <s_epik_cmdline>
J2VwaWtfcHl0aG9uJywgJy1waCcsICc3LjAnLCAnLXRuJywgJzgnLCAnLW1hJywgJzIwMCcsICctbWV0YWxfYmluZGluZycsICctaW1hZScsICc8aW5maWxlLm1hZT4nLCAnLW9tYWUnLCAnPG91dGZpbGUubWFlPic=

> <r_epik_Ionization_Penalty>
1.41708

> <r_epik_Ionization_Penalty_Charging>
1.41702

> <r_epik_Ionization_Penalty_Neutral>
5.73163e-05

> <r_epik_State_Penalty>
1.50048

> <r_epik_Charging_Adjusted_Penalty>
2.9175

> <i_epik_Tot_Q>
1

> <i_epik_Tot_abs_Q>
1

> <r_epik_Metal_State_Penalty>
1.55295

> <b_epik_Metal_Only>
0

> <s_lp_Force_Field>
OPLS_2005

> <r_lp_Energy>
57.028

> <b_lp_Chiralities_Consistent>
1

> <s_lp_Variant>
AV-unprocessed.smi:753-5

> <Gold.Version>
5.8.1

> <Gold.Id.Protein>
6NUR|6NUR_protein|mol2

> <Gold.PLP.Fitness>
44.1673

> <Gold.PLP.PLP>
-36.8582

> <Gold.PLP.part.hbond>
-3.8986

> <Gold.PLP.part.metal>
0.0000

> <Gold.PLP.part.buried>
-3.7343

> <Gold.PLP.part.nonpolar>
-29.9666

> <Gold.PLP.part.repulsive>
0.2536

> <Gold.PLP.ligand.clash>
0.0000

> <Gold.PLP.ligand.torsion>
0.1652

> <Gold.PLP.Chemscore.Hbond>
2.5363

> <Gold.PLP.Chemscore.CHOScore>
0.0000

> <Gold.PLP.Chemscore.Metal>
0.0000

> <Gold.Chemscore.Hbonds>
donor molecule, donor type, donor heavy atom, donor atom, acceptor molecule, acceptor atom, score
      L1  H     8    30       P1  7949  0.60
      L1  H    20    44       P1  8028  1.92

> <Gold.PLP.Chemscore.Internal.Correction>
0.0309

> <Gold.Rescore>
     Score         DG    S(hbond)    S(metal)    S(lipo)     H(rot)  DE(clash)    DE(int)     intcor
     15.72     -16.95       1.10        0.00      99.65       1.50       0.03       1.20       ----

> <Gold.Chemscore.Fitness>
15.7195

> <Gold.Chemscore.DG>
-16.9504

> <Gold.Chemscore.ZeroCoef>
-5.4800

> <Gold.Chemscore.Hbond>
1.0952

> <Gold.Chemscore.Metal>
0.0000

> <Gold.Chemscore.Lipo>
99.6523

> <Gold.Chemscore.Internal_Hbond>
0.0000

> <Gold.Chemscore.DEClash>
0.0337

> <Gold.Chemscore.DEInternal>
1.1972

> <Gold.Chemscore.Rot>
1.5027

> <Gold.Chemscore.Internal.Correction>
   9.000000E+99

> <Gold.Chemscore.Hbonds>
donor molecule, donor type, donor heavy atom, donor atom, acceptor molecule, acceptor atom, score
      L1  H     8    30       P1  7949  0.20
      L1  H    20    44       P1  8028  0.88

> <Gold.Chemscore.Hbond.Weighted>
-3.6579

> <Gold.Chemscore.Metal.Weighted>
-0.0000

> <Gold.Chemscore.Lipo.Weighted>
-11.6593

> <Gold.Chemscore.Internal_Hbond.Weighted>
0.0000

> <Gold.Chemscore.DEClash.Weighted>
0.0337

> <Gold.Chemscore.DEInternal.Weighted>
1.1972

> <Gold.Chemscore.Rot.Weighted>
3.8468

> <Gold.Chemscore.Internal.Correction.Weighted>
   9.000000E+99

> <Gold.Protein.RotatedTorsions>
[ 6907 6896 6895 6894 ] final   17.69 input  -60.11 | X-H torsion
[ 7974 7965 7964 7962 ] final  153.99 input  175.53 | X-H torsion
[ 8008 7997 7996 7995 ] final   73.86 input   59.86 | X-H torsion
[ 10167 10162 10161 10158 ] final  102.00 input  -65.29 | X-H torsion
[ 10718 10713 10712 10709 ] final   28.06 input   66.30 | X-H torsion
[ 10763 10752 10751 10750 ] final   54.77 input  -60.55 | X-H torsion
[ 11005 11000 10999 10996 ] final  -47.92 input  -57.11 | X-H torsion

> <Gold.Protein.ActiveResidues>
 VAL166  LYS551  ARG553  GLY616  TRP617  ASP618  TYR619  PRO620  LYS621  CYS622 
 ASP623  PHE694  ASN695  SER759  ASP760  ASP761  ALA762  ILE779  LEU786  VAL792 
 PHE793  MET794  SER795  GLU796  ALA797  LYS798  CYS799  TRP800  GLU811  SER814 

> <Gold.Protein.RotatedAtoms>
  151.8536  135.0549  160.0461 H   0  0  0  0  0  0  0  0  0  0  0  0  # atno 6907 bound_to 6896
  152.2717  133.5384  159.5452 H   0  0  0  0  0  0  0  0  0  0  0  0  # atno 6908 bound_to 6896
  150.7154  134.0604  159.3871 H   0  0  0  0  0  0  0  0  0  0  0  0  # atno 6909 bound_to 6896
  144.8118  139.6874  143.6138 H   0  0  0  0  0  0  0  0  0  0  0  0  # atno 7974 bound_to 7965
  155.7898  140.3479  155.5343 H   0  0  0  0  0  0  0  0  0  0  0  0  # atno 8008 bound_to 7997
  155.8645  140.0976  157.1612 H   0  0  0  0  0  0  0  0  0  0  0  0  # atno 8009 bound_to 7997
  154.4014  140.1352  156.3989 H   0  0  0  0  0  0  0  0  0  0  0  0  # atno 8010 bound_to 7997
  139.7389  144.7016  151.0607 H   0  0  0  0  0  0  0  0  0  0  0  0  # atno 10167 bound_to 10162
  157.2284  130.7012  149.6302 H   0  0  0  0  0  0  0  0  0  0  0  0  # atno 10718 bound_to 10713
  152.9808  135.5733  154.4958 H   0  0  0  0  0  0  0  0  0  0  0  0  # atno 10763 bound_to 10752
  154.4485  135.2778  155.1800 H   0  0  0  0  0  0  0  0  0  0  0  0  # atno 10764 bound_to 10752
  154.3438  135.6224  153.5662 H   0  0  0  0  0  0  0  0  0  0  0  0  # atno 10765 bound_to 10752
  141.0670  133.6691  156.3367 H   0  0  0  0  0  0  0  0  0  0  0  0  # atno 11005 bound_to 11000
  146.2417  139.6015  142.9487 LP  0  0  0  0  0  0  0  0  0  0  0  0  # atno 17320 bound_to 7965
  145.5307  141.0427  143.2385 LP  0  0  0  0  0  0  0  0  0  0  0  0  # atno 17321 bound_to 7965
  140.7783  143.4950  150.9845 LP  0  0  0  0  0  0  0  0  0  0  0  0  # atno 17342 bound_to 10162
  139.8638  143.7280  152.3171 LP  0  0  0  0  0  0  0  0  0  0  0  0  # atno 17343 bound_to 10162
  155.9677  130.4497  150.5667 LP  0  0  0  0  0  0  0  0  0  0  0  0  # atno 17370 bound_to 10713
  157.3503  131.0732  151.1718 LP  0  0  0  0  0  0  0  0  0  0  0  0  # atno 17371 bound_to 10713
  140.5753  134.5799  157.5467 LP  0  0  0  0  0  0  0  0  0  0  0  0  # atno 17394 bound_to 11000
  139.9486  134.7658  156.0503 LP  0  0  0  0  0  0  0  0  0  0  0  0  # atno 17395 bound_to 11000

$$$$
