AV-unprocessed.smi:197|AV-procd|sdf|1547|dock7
  -GOLD-   2262019413D 1   1.00000     0.00000
 Structure written by MMmdl.
 54 57  0  0  0  0  0  0  0  0  1 V2000
  156.6964  140.0318  159.6990 C   0  0  0  0  0  0  0  0  0  0  0  0
  156.0323  140.9231  160.5770 O   0  0  0  0  0  0  0  0  0  0  0  0
  154.6674  140.5870  160.7640 C   0  0  0  0  0  0  0  0  0  0  0  0
  153.9715  140.5073  159.3967 C   0  0  0  0  0  0  0  0  0  0  0  0
  152.5333  141.0915  159.3701 C   0  0  1  0  0  0  0  0  0  0  0  0
  152.4896  142.4718  160.0700 C   0  0  0  0  0  0  0  0  0  0  0  0
  151.1895  143.0428  159.9863 O   0  0  0  0  0  0  0  0  0  0  0  0
  150.8010  143.2692  158.6393 C   0  0  0  0  0  0  0  0  0  0  0  0
  150.7362  141.9210  157.9126 C   0  0  0  0  0  0  0  0  0  0  0  0
  152.0181  141.2283  157.9991 N   0  0  0  0  0  0  0  0  0  0  0  0
  151.9853  140.1163  157.2252 C   0  0  0  0  0  0  0  0  0  0  0  0
  152.6088  140.0994  156.0167 N   0  0  0  0  0  0  0  0  0  0  0  0
  152.5926  138.9908  155.2705 C   0  0  0  0  0  0  0  0  0  0  0  0
  152.0328  137.8097  155.5419 N   0  0  0  0  0  0  0  0  0  0  0  0
  151.4177  137.8209  156.7595 C   0  0  0  0  0  0  0  0  0  0  0  0
  151.3470  138.9231  157.6562 C   0  0  0  0  0  0  0  0  0  0  0  0
  150.6399  138.5666  158.7971 N   0  0  0  0  0  0  0  0  0  0  0  0
  150.3132  137.3200  158.5884 C   0  0  0  0  0  0  0  0  0  0  0  0
  150.7467  136.7900  157.3934 N   0  0  0  0  0  0  0  0  0  0  0  0
  150.5353  135.4329  156.9142 C   0  0  0  0  0  0  0  0  0  0  0  0
  149.5868  135.3576  155.6941 C   0  0  2  0  0  0  0  0  0  0  0  0
  150.2760  135.8546  154.5571 O   0  0  0  0  0  0  0  0  0  0  0  0
  148.2963  136.1466  155.8595 C   0  0  0  0  0  0  0  0  0  0  0  0
  147.3593  135.4561  154.8763 C   0  0  0  0  0  0  0  0  0  0  0  0
  147.7143  134.0807  154.9403 O   0  0  0  0  0  0  0  0  0  0  0  0
  149.0478  133.9348  155.4281 C   0  0  1  0  0  0  0  0  0  0  0  0
  149.8823  133.0464  154.4915 C   0  0  0  0  0  0  0  0  0  0  0  0
  157.7389  140.3313  159.5927 H   0  0  0  0  0  0  0  0  0  0  0  0
  156.2404  140.0424  158.7081 H   0  0  0  0  0  0  0  0  0  0  0  0
  156.6768  139.0112  160.0834 H   0  0  0  0  0  0  0  0  0  0  0  0
  154.5725  139.6489  161.3111 H   0  0  0  0  0  0  0  0  0  0  0  0
  154.1841  141.3552  161.3696 H   0  0  0  0  0  0  0  0  0  0  0  0
  154.5824  141.0209  158.6534 H   0  0  0  0  0  0  0  0  0  0  0  0
  153.9703  139.4586  159.1006 H   0  0  0  0  0  0  0  0  0  0  0  0
  151.8660  140.4188  159.9109 H   0  0  0  0  0  0  0  0  0  0  0  0
  152.7359  142.3771  161.1268 H   0  0  0  0  0  0  0  0  0  0  0  0
  153.2203  143.1551  159.6339 H   0  0  0  0  0  0  0  0  0  0  0  0
  149.8232  143.7510  158.6262 H   0  0  0  0  0  0  0  0  0  0  0  0
  151.5007  143.9477  158.1483 H   0  0  0  0  0  0  0  0  0  0  0  0
  149.9570  141.2990  158.3562 H   0  0  0  0  0  0  0  0  0  0  0  0
  150.4615  142.0840  156.8692 H   0  0  0  0  0  0  0  0  0  0  0  0
  153.1046  139.0589  154.3221 H   0  0  0  0  0  0  0  0  0  0  0  0
  149.7496  136.7458  159.3094 H   0  0  0  0  0  0  0  0  0  0  0  0
  151.5054  134.9983  156.6692 H   0  0  0  0  0  0  0  0  0  0  0  0
  150.1366  134.8417  157.7397 H   0  0  0  0  0  0  0  0  0  0  0  0
  149.6617  135.9269  153.8428 H   0  0  0  0  0  0  0  0  0  0  0  0
  147.9066  136.0220  156.8705 H   0  0  0  0  0  0  0  0  0  0  0  0
  148.4051  137.2157  155.6715 H   0  0  0  0  0  0  0  0  0  0  0  0
  146.3077  135.6104  155.1181 H   0  0  0  0  0  0  0  0  0  0  0  0
  147.5322  135.8197  153.8625 H   0  0  0  0  0  0  0  0  0  0  0  0
  148.9477  133.4182  156.3837 H   0  0  0  0  0  0  0  0  0  0  0  0
  150.9031  132.9391  154.8592 H   0  0  0  0  0  0  0  0  0  0  0  0
  149.9263  133.4539  153.4812 H   0  0  0  0  0  0  0  0  0  0  0  0
  149.4492  132.0485  154.4211 H   0  0  0  0  0  0  0  0  0  0  0  0
  1  2  1  0  0  0  0
  1 28  1  0  0  0  0
  1 29  1  0  0  0  0
  1 30  1  0  0  0  0
  2  3  1  0  0  0  0
  3  4  1  0  0  0  0
  3 31  1  0  0  0  0
  3 32  1  0  0  0  0
  4  5  1  0  0  0  0
  4 33  1  0  0  0  0
  4 34  1  0  0  0  0
  5 10  1  0  0  0  0
  5  6  1  0  0  0  0
  5 35  1  0  0  0  0
  6  7  1  0  0  0  0
  6 36  1  0  0  0  0
  6 37  1  0  0  0  0
  7  8  1  0  0  0  0
  8  9  1  0  0  0  0
  8 38  1  0  0  0  0
  8 39  1  0  0  0  0
  9 10  1  0  0  0  0
  9 40  1  0  0  0  0
  9 41  1  0  0  0  0
 10 11  1  0  0  0  0
 11 16  1  0  0  0  0
 11 12  2  0  0  0  0
 12 13  1  0  0  0  0
 13 14  2  0  0  0  0
 13 42  1  0  0  0  0
 14 15  1  0  0  0  0
 15 19  1  0  0  0  0
 15 16  2  0  0  0  0
 16 17  1  0  0  0  0
 17 18  2  0  0  0  0
 18 19  1  0  0  0  0
 18 43  1  0  0  0  0
 19 20  1  0  0  0  0
 20 21  1  0  0  0  0
 20 44  1  0  0  0  0
 20 45  1  0  0  0  0
 21 26  1  0  0  0  0
 21 22  1  0  0  0  0
 21 23  1  0  0  0  0
 22 46  1  0  0  0  0
 23 24  1  0  0  0  0
 23 47  1  0  0  0  0
 23 48  1  0  0  0  0
 24 25  1  0  0  0  0
 24 49  1  0  0  0  0
 24 50  1  0  0  0  0
 25 26  1  0  0  0  0
 26 27  1  0  0  0  0
 26 51  1  0  0  0  0
 27 52  1  0  0  0  0
 27 53  1  0  0  0  0
 27 54  1  0  0  0  0
M  END
> <s_m_source_file>
AV-unprocessed.smi

> <i_m_source_file_index>
197

> <i_lp_mmshare_version>
43012

> <i_f3d_flags>
0

> <s_epik_input>
W0NIM11PW0NIMl1bQ0gyXVtDQEBIXTFbQ0gyXU9bQ0gyXVtDSDJdTjFjKG5bY0hdbjIpYyhjMjMpbltjSF1uM1tDSDJdW0NAQF00KFtPSF0pW0NIMl1bQ0gyXU9bQ0BIXTRbQ0gzXQ==

> <s_epik_cmdline>
J2VwaWtfcHl0aG9uJywgJy1waCcsICc3LjAnLCAnLXRuJywgJzgnLCAnLW1hJywgJzIwMCcsICctbWV0YWxfYmluZGluZycsICctaW1hZScsICc8aW5maWxlLm1hZT4nLCAnLW9tYWUnLCAnPG91dGZpbGUubWFlPic=

> <r_lp_tautomer_probability>
1

> <r_epik_Ionization_Penalty>
0.000106218

> <r_epik_Ionization_Penalty_Charging>
0

> <r_epik_Ionization_Penalty_Neutral>
0.000106218

> <r_epik_State_Penalty>
-0

> <r_epik_Charging_Adjusted_Penalty>
0

> <i_epik_Tot_Q>
0

> <i_epik_Tot_abs_Q>
0

> <r_epik_Metal_State_Penalty>
-0

> <b_epik_Metal_Only>
0

> <s_lp_Force_Field>
OPLS_2005

> <r_lp_Energy>
42.2665

> <b_lp_Chiralities_Consistent>
1

> <s_lp_Variant>
AV-unprocessed.smi:197-4

> <Gold.Version>
5.8.1

> <Gold.Id.Protein>
6NUR|6NUR_protein|mol2

> <Gold.PLP.Fitness>
40.1673

> <Gold.PLP.PLP>
-35.4325

> <Gold.PLP.part.hbond>
-4.5301

> <Gold.PLP.part.metal>
0.0000

> <Gold.PLP.part.buried>
-2.8998

> <Gold.PLP.part.nonpolar>
-26.9520

> <Gold.PLP.part.repulsive>
0.1150

> <Gold.PLP.ligand.clash>
0.0000

> <Gold.PLP.ligand.torsion>
0.8298

> <Gold.PLP.Chemscore.Hbond>
2.0000

> <Gold.PLP.Chemscore.CHOScore>
0.0000

> <Gold.PLP.Chemscore.Metal>
0.0000

> <Gold.Chemscore.Hbonds>
donor molecule, donor type, donor heavy atom, donor atom, acceptor molecule, acceptor atom, score
      L1  H    22    46       P1  7948  0.84
      P1  H  7997  8008       L1    12  0.95

> <Gold.PLP.Chemscore.Internal.Correction>
0.3945

> <Gold.Rescore>
     Score         DG    S(hbond)    S(metal)    S(lipo)     H(rot)  DE(clash)    DE(int)     intcor
     10.27     -11.01       1.24        0.00      74.01       2.84       0.09       0.64       ----

> <Gold.Chemscore.Fitness>
10.2682

> <Gold.Chemscore.DG>
-11.0064

> <Gold.Chemscore.ZeroCoef>
-5.4800

> <Gold.Chemscore.Hbond>
1.2355

> <Gold.Chemscore.Metal>
0.0000

> <Gold.Chemscore.Lipo>
74.0109

> <Gold.Chemscore.Internal_Hbond>
0.0000

> <Gold.Chemscore.DEClash>
0.0937

> <Gold.Chemscore.DEInternal>
0.6445

> <Gold.Chemscore.Rot>
2.8358

> <Gold.Chemscore.Internal.Correction>
   9.000000E+99

> <Gold.Chemscore.Hbonds>
donor molecule, donor type, donor heavy atom, donor atom, acceptor molecule, acceptor atom, score
      L1  H    22    46       P1  7948  0.29
      P1  H  7997  8008       L1    12  0.08

> <Gold.Chemscore.Hbond.Weighted>
-4.1267

> <Gold.Chemscore.Metal.Weighted>
-0.0000

> <Gold.Chemscore.Lipo.Weighted>
-8.6593

> <Gold.Chemscore.Internal_Hbond.Weighted>
0.0000

> <Gold.Chemscore.DEClash.Weighted>
0.0937

> <Gold.Chemscore.DEInternal.Weighted>
0.6445

> <Gold.Chemscore.Rot.Weighted>
7.2596

> <Gold.Chemscore.Internal.Correction.Weighted>
   9.000000E+99

> <Gold.Protein.RotatedTorsions>
[ 6907 6896 6895 6894 ] final   15.61 input  -60.11 | X-H torsion
[ 7974 7965 7964 7962 ] final -148.62 input  175.53 | X-H torsion
[ 8008 7997 7996 7995 ] final  -51.56 input   59.86 | X-H torsion
[ 10167 10162 10161 10158 ] final   -5.20 input  -65.29 | X-H torsion
[ 10718 10713 10712 10709 ] final  -47.23 input   66.30 | X-H torsion
[ 10763 10752 10751 10750 ] final   21.62 input  -60.55 | X-H torsion
[ 11005 11000 10999 10996 ] final   -0.28 input  -57.11 | X-H torsion

> <Gold.Protein.ActiveResidues>
 VAL166  LYS551  ARG553  GLY616  TRP617  ASP618  TYR619  PRO620  LYS621  CYS622 
 ASP623  PHE694  ASN695  SER759  ASP760  ASP761  ALA762  ILE779  LEU786  VAL792 
 PHE793  MET794  SER795  GLU796  ALA797  LYS798  CYS799  TRP800  GLU811  SER814 

> <Gold.Protein.RotatedAtoms>
  151.8208  135.0652  160.0424 H   0  0  0  0  0  0  0  0  0  0  0  0  # atno 6907 bound_to 6896
  152.2952  133.5596  159.5591 H   0  0  0  0  0  0  0  0  0  0  0  0  # atno 6908 bound_to 6896
  150.7248  134.0287  159.3768 H   0  0  0  0  0  0  0  0  0  0  0  0  # atno 6909 bound_to 6896
  144.8018  140.5173  143.5702 H   0  0  0  0  0  0  0  0  0  0  0  0  # atno 7974 bound_to 7965
  154.4086  140.1245  156.4848 H   0  0  0  0  0  0  0  0  0  0  0  0  # atno 8008 bound_to 7997
  155.7049  140.3494  155.4929 H   0  0  0  0  0  0  0  0  0  0  0  0  # atno 8009 bound_to 7997
  155.9352  140.1077  157.1090 H   0  0  0  0  0  0  0  0  0  0  0  0  # atno 8010 bound_to 7997
  140.6954  143.6336  150.8500 H   0  0  0  0  0  0  0  0  0  0  0  0  # atno 10167 bound_to 10162
  156.2104  130.4160  149.9122 H   0  0  0  0  0  0  0  0  0  0  0  0  # atno 10718 bound_to 10713
  153.0980  135.6665  153.9726 H   0  0  0  0  0  0  0  0  0  0  0  0  # atno 10763 bound_to 10752
  153.9305  135.3004  155.3447 H   0  0  0  0  0  0  0  0  0  0  0  0  # atno 10764 bound_to 10752
  154.7400  135.5084  153.9181 H   0  0  0  0  0  0  0  0  0  0  0  0  # atno 10765 bound_to 10752
  140.6345  133.9545  155.8292 H   0  0  0  0  0  0  0  0  0  0  0  0  # atno 11005 bound_to 11000
  145.5535  139.1477  143.3381 LP  0  0  0  0  0  0  0  0  0  0  0  0  # atno 17320 bound_to 7965
  146.2301  140.5672  142.8979 LP  0  0  0  0  0  0  0  0  0  0  0  0  # atno 17321 bound_to 7965
  140.0054  143.5700  152.2860 LP  0  0  0  0  0  0  0  0  0  0  0  0  # atno 17342 bound_to 10162
  139.6404  144.7654  151.2350 LP  0  0  0  0  0  0  0  0  0  0  0  0  # atno 17343 bound_to 10162
  156.6802  130.8855  151.3574 LP  0  0  0  0  0  0  0  0  0  0  0  0  # atno 17370 bound_to 10713
  157.7035  130.9359  150.0859 LP  0  0  0  0  0  0  0  0  0  0  0  0  # atno 17371 bound_to 10713
  141.0651  134.0288  157.3605 LP  0  0  0  0  0  0  0  0  0  0  0  0  # atno 17394 bound_to 11000
  139.9103  135.0189  156.7664 LP  0  0  0  0  0  0  0  0  0  0  0  0  # atno 17395 bound_to 11000

$$$$
