AV-unprocessed.smi:2126|AV-procd|sdf|8678|dock7
  -GOLD-   2272011433D 1   1.00000     0.00000
 Structure written by MMmdl.
 41 43  0  0  0  0  0  0  0  0  2 V2000
  155.0183  132.9162  163.5402 C   0  0  0  0  0  0  0  0  0  0  0  0
  155.5166  133.3560  162.2853 O   0  0  0  0  0  0  0  0  0  0  0  0
  154.9276  134.4583  161.7044 C   0  0  0  0  0  0  0  0  0  0  0  0
  154.3267  135.5164  162.4294 C   0  0  0  0  0  0  0  0  0  0  0  0
  153.7503  136.6073  161.7508 C   0  0  0  0  0  0  0  0  0  0  0  0
  153.7549  136.6704  160.3434 C   0  0  0  0  0  0  0  0  0  0  0  0
  153.1690  137.7751  159.7635 O   0  0  0  0  0  0  0  0  0  0  0  0
  152.9729  137.7728  158.3554 C   0  0  0  0  0  0  0  0  0  0  0  0
  152.7325  139.2154  157.8881 C   0  0  1  0  0  0  0  0  0  0  0  0
  153.1412  139.3299  156.5392 O   0  0  0  0  0  0  0  0  0  0  0  0
  151.2548  139.6356  158.0191 C   0  0  0  0  0  0  0  0  0  0  0  0
  151.0562  141.0816  157.8600 N   0  0  0  0  0  0  0  0  0  0  0  0
  150.3019  141.7676  156.9592 C   0  0  0  0  0  0  0  0  0  0  0  0
  150.4485  143.0949  157.2270 N   0  3  0  0  0  0  0  0  0  0  0  0
  151.3101  143.2589  158.3139 C   0  0  0  0  0  0  0  0  0  0  0  0
  151.7644  144.4084  158.9531 C   0  0  0  0  0  0  0  0  0  0  0  0
  152.6454  144.2227  160.0389 C   0  0  0  0  0  0  0  0  0  0  0  0
  153.0417  142.9337  160.4518 C   0  0  0  0  0  0  0  0  0  0  0  0
  152.5739  141.7750  159.7975 C   0  0  0  0  0  0  0  0  0  0  0  0
  151.7043  141.9681  158.7252 C   0  0  0  0  0  0  0  0  0  0  0  0
  154.3539  135.6114  159.6184 C   0  0  0  0  0  0  0  0  0  0  0  0
  154.9327  134.5218  160.2971 C   0  0  0  0  0  0  0  0  0  0  0  0
  155.5862  132.0456  163.8681 H   0  0  0  0  0  0  0  0  0  0  0  0
  153.9708  132.6199  163.4706 H   0  0  0  0  0  0  0  0  0  0  0  0
  155.1266  133.6863  164.3050 H   0  0  0  0  0  0  0  0  0  0  0  0
  154.2955  135.5162  163.5083 H   0  0  0  0  0  0  0  0  0  0  0  0
  153.2976  137.4063  162.3196 H   0  0  0  0  0  0  0  0  0  0  0  0
  153.8623  137.3722  157.8656 H   0  0  0  0  0  0  0  0  0  0  0  0
  152.1229  137.1440  158.0843 H   0  0  0  0  0  0  0  0  0  0  0  0
  153.3600  139.8853  158.4766 H   0  0  0  0  0  0  0  0  0  0  0  0
  152.5398  138.8381  156.0006 H   0  0  0  0  0  0  0  0  0  0  0  0
  150.6504  139.1366  157.2603 H   0  0  0  0  0  0  0  0  0  0  0  0
  150.8450  139.3383  158.9853 H   0  0  0  0  0  0  0  0  0  0  0  0
  149.6987  141.3366  156.1731 H   0  0  0  0  0  0  0  0  0  0  0  0
  151.4625  145.3969  158.6389 H   0  0  0  0  0  0  0  0  0  0  0  0
  153.0248  145.0863  160.5655 H   0  0  0  0  0  0  0  0  0  0  0  0
  153.7186  142.8311  161.2876 H   0  0  0  0  0  0  0  0  0  0  0  0
  152.8827  140.7913  160.1196 H   0  0  0  0  0  0  0  0  0  0  0  0
  154.3854  135.6108  158.5396 H   0  0  0  0  0  0  0  0  0  0  0  0
  155.3871  133.7235  159.7289 H   0  0  0  0  0  0  0  0  0  0  0  0
  149.9934  143.8319  156.7038 H   0  0  0  0  0  0  0  0  0  0  0  0
  1  2  1  0  0  0  0
  1 23  1  0  0  0  0
  1 24  1  0  0  0  0
  1 25  1  0  0  0  0
  2  3  1  0  0  0  0
  3 22  1  0  0  0  0
  3  4  2  0  0  0  0
  4  5  1  0  0  0  0
  4 26  1  0  0  0  0
  5  6  2  0  0  0  0
  5 27  1  0  0  0  0
  6  7  1  0  0  0  0
  6 21  1  0  0  0  0
  7  8  1  0  0  0  0
  8  9  1  0  0  0  0
  8 28  1  0  0  0  0
  8 29  1  0  0  0  0
  9 10  1  0  0  0  0
  9 11  1  0  0  0  0
  9 30  1  0  0  0  0
 10 31  1  0  0  0  0
 11 12  1  0  0  0  0
 11 32  1  0  0  0  0
 11 33  1  0  0  0  0
 12 20  1  0  0  0  0
 12 13  1  0  0  0  0
 13 14  2  0  0  0  0
 13 34  1  0  0  0  0
 14 15  1  0  0  0  0
 14 41  1  0  0  0  0
 15 20  2  0  0  0  0
 15 16  1  0  0  0  0
 16 17  2  0  0  0  0
 16 35  1  0  0  0  0
 17 18  1  0  0  0  0
 17 36  1  0  0  0  0
 18 19  2  0  0  0  0
 18 37  1  0  0  0  0
 19 20  1  0  0  0  0
 19 38  1  0  0  0  0
 21 22  2  0  0  0  0
 21 39  1  0  0  0  0
 22 40  1  0  0  0  0
M  CHG  1  14   1
M  END
> <s_m_source_file>
AV-unprocessed.smi

> <i_m_source_file_index>
2126

> <i_lp_mmshare_version>
43012

> <i_f3d_flags>
0

> <s_epik_input>
W0NIM11PYzFbY0hdW2NIXWMoW2NIXVtjSF0xKU9bQ0gyXVtDQEhdKFtPSF0pW0NIMl1uKFtjSF1uMiljKGMyMylbY0hdW2NIXVtjSF1bY0hdMw==

> <s_epik_cmdline>
J2VwaWtfcHl0aG9uJywgJy1waCcsICc3LjAnLCAnLXRuJywgJzgnLCAnLW1hJywgJzIwMCcsICctbWV0YWxfYmluZGluZycsICctaW1hZScsICc8aW5maWxlLm1hZT4nLCAnLW9tYWUnLCAnPG91dGZpbGUubWFlPic=

> <r_lp_tautomer_probability>
1

> <r_epik_Ionization_Penalty>
1.37822

> <r_epik_Ionization_Penalty_Charging>
1.37822

> <r_epik_Ionization_Penalty_Neutral>
2.3993e-06

> <r_epik_State_Penalty>
1.45852

> <r_epik_Charging_Adjusted_Penalty>
2.83674

> <i_epik_Tot_Q>
1

> <i_epik_Tot_abs_Q>
1

> <r_epik_Metal_State_Penalty>
5.4985

> <b_epik_Metal_Only>
0

> <s_lp_Force_Field>
OPLS_2005

> <r_lp_Energy>
22.1455

> <b_lp_Chiralities_Consistent>
1

> <s_lp_Variant>
AV-unprocessed.smi:2126-4

> <Gold.Version>
5.8.1

> <Gold.Id.Protein>
6NUR|6NUR_protein|mol2

> <Gold.PLP.Fitness>
52.5104

> <Gold.PLP.PLP>
-45.2246

> <Gold.PLP.part.hbond>
-1.9543

> <Gold.PLP.part.metal>
0.0000

> <Gold.PLP.part.buried>
-5.3837

> <Gold.PLP.part.nonpolar>
-38.2713

> <Gold.PLP.part.repulsive>
0.0753

> <Gold.PLP.ligand.clash>
0.0000

> <Gold.PLP.ligand.torsion>
0.9028

> <Gold.PLP.Chemscore.Hbond>
3.0000

> <Gold.PLP.Chemscore.CHOScore>
0.0000

> <Gold.PLP.Chemscore.Metal>
0.0000

> <Gold.Chemscore.Hbonds>
donor molecule, donor type, donor heavy atom, donor atom, acceptor molecule, acceptor atom, score
      L1  H    14    41       P1  8028  2.00
      P1  H  7997  8008       L1    10  0.75

> <Gold.PLP.Chemscore.Internal.Correction>
0.0915

> <Gold.Rescore>
     Score         DG    S(hbond)    S(metal)    S(lipo)     H(rot)  DE(clash)    DE(int)     intcor
     19.46     -20.34       1.93        0.00     128.74       2.60       0.10       0.77       ----

> <Gold.Chemscore.Fitness>
19.4571

> <Gold.Chemscore.DG>
-20.3363

> <Gold.Chemscore.ZeroCoef>
-5.4800

> <Gold.Chemscore.Hbond>
1.9342

> <Gold.Chemscore.Metal>
0.0000

> <Gold.Chemscore.Lipo>
128.7444

> <Gold.Chemscore.Internal_Hbond>
0.0000

> <Gold.Chemscore.DEClash>
0.1044

> <Gold.Chemscore.DEInternal>
0.7747

> <Gold.Chemscore.Rot>
2.6043

> <Gold.Chemscore.Internal.Correction>
   9.000000E+99

> <Gold.Chemscore.Hbonds>
donor molecule, donor type, donor heavy atom, donor atom, acceptor molecule, acceptor atom, score
      L1  H    14    41       P1  8028  1.00
      P1  H  7997  8008       L1    10  0.51

> <Gold.Chemscore.Hbond.Weighted>
-6.4602

> <Gold.Chemscore.Metal.Weighted>
-0.0000

> <Gold.Chemscore.Lipo.Weighted>
-15.0631

> <Gold.Chemscore.Internal_Hbond.Weighted>
0.0000

> <Gold.Chemscore.DEClash.Weighted>
0.1044

> <Gold.Chemscore.DEInternal.Weighted>
0.7747

> <Gold.Chemscore.Rot.Weighted>
6.6670

> <Gold.Chemscore.Internal.Correction.Weighted>
   9.000000E+99

> <Gold.Protein.RotatedTorsions>
[ 6907 6896 6895 6894 ] final  -79.64 input  -60.11 | X-H torsion
[ 7974 7965 7964 7962 ] final   95.47 input  175.53 | X-H torsion
[ 8008 7997 7996 7995 ] final  -51.92 input   59.86 | X-H torsion
[ 10167 10162 10161 10158 ] final   27.66 input  -65.29 | X-H torsion
[ 10718 10713 10712 10709 ] final   -3.34 input   66.30 | X-H torsion
[ 10763 10752 10751 10750 ] final   92.29 input  -60.55 | X-H torsion
[ 11005 11000 10999 10996 ] final -175.21 input  -57.11 | X-H torsion

> <Gold.Protein.ActiveResidues>
 VAL166  LYS551  ARG553  GLY616  TRP617  ASP618  TYR619  PRO620  LYS621  CYS622 
 ASP623  PHE694  ASN695  SER759  ASP760  ASP761  ALA762  ILE779  LEU786  VAL792 
 PHE793  MET794  SER795  GLU796  ALA797  LYS798  CYS799  TRP800  GLU811  SER814 

> <Gold.Protein.RotatedAtoms>
  150.6945  134.4090  159.5153 H   0  0  0  0  0  0  0  0  0  0  0  0  # atno 6907 bound_to 6896
  152.1852  134.8717  160.0532 H   0  0  0  0  0  0  0  0  0  0  0  0  # atno 6908 bound_to 6896
  151.9693  133.3686  159.4102 H   0  0  0  0  0  0  0  0  0  0  0  0  # atno 6909 bound_to 6896
  145.4518  139.2293  143.3035 H   0  0  0  0  0  0  0  0  0  0  0  0  # atno 7974 bound_to 7965
  154.4094  140.1236  156.4908 H   0  0  0  0  0  0  0  0  0  0  0  0  # atno 8008 bound_to 7997
  155.6992  140.3495  155.4906 H   0  0  0  0  0  0  0  0  0  0  0  0  # atno 8009 bound_to 7997
  155.9400  140.1085  157.1053 H   0  0  0  0  0  0  0  0  0  0  0  0  # atno 8010 bound_to 7997
  140.4919  144.0452  150.6300 H   0  0  0  0  0  0  0  0  0  0  0  0  # atno 10167 bound_to 10162
  156.7775  130.5320  149.5756 H   0  0  0  0  0  0  0  0  0  0  0  0  # atno 10718 bound_to 10713
  153.2176  135.4366  155.0452 H   0  0  0  0  0  0  0  0  0  0  0  0  # atno 10763 bound_to 10752
  154.8233  135.3348  154.6975 H   0  0  0  0  0  0  0  0  0  0  0  0  # atno 10764 bound_to 10752
  153.7409  135.7005  153.5023 H   0  0  0  0  0  0  0  0  0  0  0  0  # atno 10765 bound_to 10752
  140.4658  134.6211  157.4862 H   0  0  0  0  0  0  0  0  0  0  0  0  # atno 11005 bound_to 11000
  146.2500  140.5278  142.8897 LP  0  0  0  0  0  0  0  0  0  0  0  0  # atno 17320 bound_to 7965
  144.8057  140.6294  143.6449 LP  0  0  0  0  0  0  0  0  0  0  0  0  # atno 17321 bound_to 7965
  140.3724  143.2847  152.0263 LP  0  0  0  0  0  0  0  0  0  0  0  0  # atno 17342 bound_to 10162
  139.4853  144.6219  151.7238 LP  0  0  0  0  0  0  0  0  0  0  0  0  # atno 17343 bound_to 10162
  156.1239  130.6129  151.0234 LP  0  0  0  0  0  0  0  0  0  0  0  0  # atno 17370 bound_to 10713
  157.6662  131.0871  150.7723 LP  0  0  0  0  0  0  0  0  0  0  0  0  # atno 17371 bound_to 10713
  139.9916  134.6976  155.9680 LP  0  0  0  0  0  0  0  0  0  0  0  0  # atno 17394 bound_to 11000
  141.1600  133.6539  156.4287 LP  0  0  0  0  0  0  0  0  0  0  0  0  # atno 17395 bound_to 11000

$$$$
