AV-unprocessed.smi:3125|AV-procd|sdf|11908|dock3
  -GOLD-   2272017293D 1   1.00000     0.00000
 Structure written by MMmdl.
 28 29  0  0  0  0  0  0  0  0  2 V2000
  152.2818  139.2677  155.0890 C   0  0  0  0  0  0  0  0  0  0  0  0
  151.5548  140.1256  156.0052 N   0  0  0  0  0  0  0  0  0  0  0  0
  152.0054  140.5409  157.2515 C   0  0  0  0  0  0  0  0  0  0  0  0
  151.0215  141.3383  157.7825 C   0  0  0  0  0  0  0  0  0  0  0  0
  149.9657  141.4248  156.8828 N   0  0  0  0  0  0  0  0  0  0  0  0
  150.3351  140.6790  155.8445 C   0  0  0  0  0  0  0  0  0  0  0  0
  149.4868  140.4921  154.6171 C   0  0  2  0  0  0  0  0  0  0  0  0
  148.1276  141.2067  154.7445 C   0  0  0  0  0  0  0  0  0  0  0  0
  147.2752  140.9751  153.4874 C   0  0  0  0  0  0  0  0  0  0  0  0
  147.1284  139.4731  153.1933 C   0  0  0  0  0  0  0  0  0  0  0  0
  148.4563  138.8338  153.0679 N   0  3  0  0  0  0  0  0  0  0  0  0
  149.2929  138.9996  154.2771 C   0  0  0  0  0  0  0  0  0  0  0  0
  153.2574  139.0134  155.5046 H   0  0  0  0  0  0  0  0  0  0  0  0
  152.4291  139.7818  154.1388 H   0  0  0  0  0  0  0  0  0  0  0  0
  151.7212  138.3480  154.9207 H   0  0  0  0  0  0  0  0  0  0  0  0
  152.9657  140.2441  157.6477 H   0  0  0  0  0  0  0  0  0  0  0  0
  150.9926  141.8514  158.7324 H   0  0  0  0  0  0  0  0  0  0  0  0
  150.0047  140.9416  153.7700 H   0  0  0  0  0  0  0  0  0  0  0  0
  147.5906  140.8355  155.6187 H   0  0  0  0  0  0  0  0  0  0  0  0
  148.2767  142.2758  154.9011 H   0  0  0  0  0  0  0  0  0  0  0  0
  146.2916  141.4282  153.6150 H   0  0  0  0  0  0  0  0  0  0  0  0
  147.7366  141.4732  152.6335 H   0  0  0  0  0  0  0  0  0  0  0  0
  146.5668  138.9827  153.9900 H   0  0  0  0  0  0  0  0  0  0  0  0
  146.5701  139.3209  152.2693 H   0  0  0  0  0  0  0  0  0  0  0  0
  148.3301  137.8476  152.8895 H   0  0  0  0  0  0  0  0  0  0  0  0
  150.2577  138.5215  154.1057 H   0  0  0  0  0  0  0  0  0  0  0  0
  148.8195  138.4731  155.1073 H   0  0  0  0  0  0  0  0  0  0  0  0
  148.9393  139.2476  152.2833 H   0  0  0  0  0  0  0  0  0  0  0  0
  1  2  1  0  0  0  0
  1 13  1  0  0  0  0
  1 14  1  0  0  0  0
  1 15  1  0  0  0  0
  2  6  1  0  0  0  0
  2  3  1  0  0  0  0
  3  4  2  0  0  0  0
  3 16  1  0  0  0  0
  4  5  1  0  0  0  0
  4 17  1  0  0  0  0
  5  6  2  0  0  0  0
  6  7  1  0  0  0  0
  7 12  1  0  0  0  0
  7  8  1  0  0  0  0
  7 18  1  0  0  0  0
  8  9  1  0  0  0  0
  8 19  1  0  0  0  0
  8 20  1  0  0  0  0
  9 10  1  0  0  0  0
  9 21  1  0  0  0  0
  9 22  1  0  0  0  0
 10 11  1  0  0  0  0
 10 23  1  0  0  0  0
 10 24  1  0  0  0  0
 11 12  1  0  0  0  0
 11 25  1  0  0  0  0
 11 28  1  0  0  0  0
 12 26  1  0  0  0  0
 12 27  1  0  0  0  0
M  CHG  1  11   1
M  END
> <s_m_source_file>
AV-unprocessed.smi

> <i_m_source_file_index>
3125

> <i_lp_mmshare_version>
43012

> <i_f3d_flags>
0

> <s_epik_input>
W0NIM11uMVtjSF1bY0hdbmMxW0NAQEhdMltDSDJdW0NIMl1bQ0gyXVtOSF1bQ0gyXTI=

> <s_epik_cmdline>
J2VwaWtfcHl0aG9uJywgJy1waCcsICc3LjAnLCAnLXRuJywgJzgnLCAnLW1hJywgJzIwMCcsICctbWV0YWxfYmluZGluZycsICctaW1hZScsICc8aW5maWxlLm1hZT4nLCAnLW9tYWUnLCAnPG91dGZpbGUubWFlPic=

> <r_lp_tautomer_probability>
1

> <r_epik_Ionization_Penalty>
0.177191

> <r_epik_Ionization_Penalty_Charging>
0.177191

> <r_epik_Ionization_Penalty_Neutral>
7.05152e-14

> <r_epik_State_Penalty>
0.46716

> <r_epik_Charging_Adjusted_Penalty>
0.644351

> <i_epik_Tot_Q>
1

> <i_epik_Tot_abs_Q>
1

> <r_epik_Metal_State_Penalty>
0.000708398

> <b_epik_Metal_Only>
0

> <s_lp_Force_Field>
OPLS_2005

> <r_lp_Energy>
12.4076

> <b_lp_Chiralities_Consistent>
1

> <s_lp_Variant>
AV-unprocessed.smi:3125-3

> <Gold.Version>
5.8.1

> <Gold.Id.Protein>
6NUR|6NUR_protein|mol2

> <Gold.PLP.Fitness>
34.9020

> <Gold.PLP.PLP>
-26.5952

> <Gold.PLP.part.hbond>
-1.9803

> <Gold.PLP.part.metal>
0.0000

> <Gold.PLP.part.buried>
-2.7868

> <Gold.PLP.part.nonpolar>
-22.8260

> <Gold.PLP.part.repulsive>
0.1447

> <Gold.PLP.ligand.clash>
0.0000

> <Gold.PLP.ligand.torsion>
0.0582

> <Gold.PLP.Chemscore.Hbond>
2.7990

> <Gold.PLP.Chemscore.CHOScore>
0.0000

> <Gold.PLP.Chemscore.Metal>
0.0000

> <Gold.Chemscore.Hbonds>
donor molecule, donor type, donor heavy atom, donor atom, acceptor molecule, acceptor atom, score
      L1  H    11    25       P1  7948  1.82
      L1  H    11    28       P1  7957  0.96

> <Gold.PLP.Chemscore.Internal.Correction>
0.0262

> <Gold.Rescore>
     Score         DG    S(hbond)    S(metal)    S(lipo)     H(rot)  DE(clash)    DE(int)     intcor
     15.38     -15.42       1.95        0.00      51.23       1.00       0.02       0.02       ----

> <Gold.Chemscore.Fitness>
15.3784

> <Gold.Chemscore.DG>
-15.4162

> <Gold.Chemscore.ZeroCoef>
-5.4800

> <Gold.Chemscore.Hbond>
1.9468

> <Gold.Chemscore.Metal>
0.0000

> <Gold.Chemscore.Lipo>
51.2285

> <Gold.Chemscore.Internal_Hbond>
0.0000

> <Gold.Chemscore.DEClash>
0.0174

> <Gold.Chemscore.DEInternal>
0.0204

> <Gold.Chemscore.Rot>
1.0000

> <Gold.Chemscore.Internal.Correction>
   9.000000E+99

> <Gold.Chemscore.Hbonds>
donor molecule, donor type, donor heavy atom, donor atom, acceptor molecule, acceptor atom, score
      L1  H    11    25       P1  7948  0.85
      L1  H    11    28       P1  7957  0.91

> <Gold.Chemscore.Hbond.Weighted>
-6.5024

> <Gold.Chemscore.Metal.Weighted>
-0.0000

> <Gold.Chemscore.Lipo.Weighted>
-5.9937

> <Gold.Chemscore.Internal_Hbond.Weighted>
0.0000

> <Gold.Chemscore.DEClash.Weighted>
0.0174

> <Gold.Chemscore.DEInternal.Weighted>
0.0204

> <Gold.Chemscore.Rot.Weighted>
2.5600

> <Gold.Chemscore.Internal.Correction.Weighted>
   9.000000E+99

> <Gold.Protein.RotatedTorsions>
[ 6907 6896 6895 6894 ] final  -51.20 input  -60.11 | X-H torsion
[ 7974 7965 7964 7962 ] final  161.74 input  175.53 | X-H torsion
[ 8008 7997 7996 7995 ] final -114.12 input   59.86 | X-H torsion
[ 10167 10162 10161 10158 ] final  -79.28 input  -65.29 | X-H torsion
[ 10718 10713 10712 10709 ] final   29.15 input   66.30 | X-H torsion
[ 10763 10752 10751 10750 ] final   28.93 input  -60.55 | X-H torsion
[ 11005 11000 10999 10996 ] final  -71.37 input  -57.11 | X-H torsion

> <Gold.Protein.ActiveResidues>
 VAL166  LYS551  ARG553  GLY616  TRP617  ASP618  TYR619  PRO620  LYS621  CYS622 
 ASP623  PHE694  ASN695  SER759  ASP760  ASP761  ALA762  ILE779  LEU786  VAL792 
 PHE793  MET794  SER795  GLU796  ALA797  LYS798  CYS799  TRP800  GLU811  SER814 

> <Gold.Protein.RotatedAtoms>
  150.8634  134.7991  159.7099 H   0  0  0  0  0  0  0  0  0  0  0  0  # atno 6907 bound_to 6896
  152.4663  134.5063  159.9750 H   0  0  0  0  0  0  0  0  0  0  0  0  # atno 6908 bound_to 6896
  151.5163  133.3437  159.2929 H   0  0  0  0  0  0  0  0  0  0  0  0  # atno 6909 bound_to 6896
  144.7670  139.7941  143.6311 H   0  0  0  0  0  0  0  0  0  0  0  0  # atno 7974 bound_to 7965
  155.0313  140.0393  157.2475 H   0  0  0  0  0  0  0  0  0  0  0  0  # atno 8008 bound_to 7997
  154.7294  140.2727  155.6446 H   0  0  0  0  0  0  0  0  0  0  0  0  # atno 8009 bound_to 7997
  156.2837  140.2687  156.1989 H   0  0  0  0  0  0  0  0  0  0  0  0  # atno 8010 bound_to 7997
  140.4607  143.2454  151.8352 H   0  0  0  0  0  0  0  0  0  0  0  0  # atno 10167 bound_to 10162
  157.2428  130.7077  149.6366 H   0  0  0  0  0  0  0  0  0  0  0  0  # atno 10718 bound_to 10713
  153.0461  135.6501  154.0813 H   0  0  0  0  0  0  0  0  0  0  0  0  # atno 10763 bound_to 10752
  154.0510  135.2895  155.3342 H   0  0  0  0  0  0  0  0  0  0  0  0  # atno 10764 bound_to 10752
  154.6720  135.5352  153.8216 H   0  0  0  0  0  0  0  0  0  0  0  0  # atno 10765 bound_to 10752
  141.1591  133.6816  156.6896 H   0  0  0  0  0  0  0  0  0  0  0  0  # atno 11005 bound_to 11000
  146.1786  139.4969  142.9881 LP  0  0  0  0  0  0  0  0  0  0  0  0  # atno 17320 bound_to 7965
  145.6438  141.0278  143.1797 LP  0  0  0  0  0  0  0  0  0  0  0  0  # atno 17321 bound_to 7965
  139.4806  144.5011  151.9059 LP  0  0  0  0  0  0  0  0  0  0  0  0  # atno 17342 bound_to 10162
  140.4096  144.2386  150.5889 LP  0  0  0  0  0  0  0  0  0  0  0  0  # atno 17343 bound_to 10162
  155.9669  130.4453  150.5494 LP  0  0  0  0  0  0  0  0  0  0  0  0  # atno 17370 bound_to 10713
  157.3361  131.0708  151.1824 LP  0  0  0  0  0  0  0  0  0  0  0  0  # atno 17371 bound_to 10713
  140.3041  134.8140  157.4122 LP  0  0  0  0  0  0  0  0  0  0  0  0  # atno 17394 bound_to 11000
  140.1236  134.5187  155.8163 LP  0  0  0  0  0  0  0  0  0  0  0  0  # atno 17395 bound_to 11000

$$$$
