AV-unprocessed.smi:1140|AV-procd|sdf|4871|dock5
  -GOLD-   22720 3443D 1   1.00000     0.00000
 Structure written by MMmdl.
 48 50  0  0  0  0  0  0  0  0  1 V2000
  145.1764  134.8154  151.1150 C   0  0  0  0  0  0  0  0  0  0  0  0
  145.7497  133.4936  151.6315 C   0  0  0  0  0  0  0  0  0  0  0  0
  146.9157  133.7708  152.4014 O   0  0  0  0  0  0  0  0  0  0  0  0
  147.5463  132.7263  153.0508 C   0  0  0  0  0  0  0  0  0  0  0  0
  147.0204  131.4810  152.9326 N   0  0  0  0  0  0  0  0  0  0  0  0
  147.6369  130.4600  153.5624 C   0  0  0  0  0  0  0  0  0  0  0  0
  148.8034  130.6215  154.3317 C   0  0  0  0  0  0  0  0  0  0  0  0
  149.3510  131.9115  154.4556 C   0  0  0  0  0  0  0  0  0  0  0  0
  148.7072  132.9964  153.8124 C   0  0  0  0  0  0  0  0  0  0  0  0
  149.1908  134.3330  153.8542 N   0  0  0  0  0  0  0  0  0  0  0  0
  150.2116  134.8302  154.5729 C   0  0  0  0  0  0  0  0  0  0  0  0
  150.8763  134.1990  155.3945 O   0  0  0  0  0  0  0  0  0  0  0  0
  150.4123  136.1268  154.2979 N   0  0  0  0  0  0  0  0  0  0  0  0
  151.4364  136.9691  154.9087 C   0  0  0  0  0  0  0  0  0  0  0  0
  151.3803  136.8204  156.4441 C   0  0  0  0  0  0  0  0  0  0  0  0
  152.3153  137.8272  157.1384 C   0  0  0  0  0  0  0  0  0  0  0  0
  151.9559  139.1848  156.7104 N   0  0  0  0  0  0  0  0  0  0  0  0
  151.3198  140.0606  157.5283 C   0  0  0  0  0  0  0  0  0  0  0  0
  151.0206  139.7776  158.6894 O   0  0  0  0  0  0  0  0  0  0  0  0
  151.0104  141.4146  156.9685 C   0  0  0  0  0  0  0  0  0  0  0  0
  150.4050  142.4536  157.8951 C   0  0  0  0  0  0  0  0  0  0  0  0
  149.5481  141.7897  156.8495 C   0  0  0  0  0  0  0  0  0  0  0  0
  152.2035  139.3726  155.2735 C   0  0  0  0  0  0  0  0  0  0  0  0
  151.2629  138.4459  154.4825 C   0  0  0  0  0  0  0  0  0  0  0  0
  144.2760  134.6451  150.5243 H   0  0  0  0  0  0  0  0  0  0  0  0
  145.8970  135.3357  150.4838 H   0  0  0  0  0  0  0  0  0  0  0  0
  144.9140  135.4770  151.9408 H   0  0  0  0  0  0  0  0  0  0  0  0
  145.0013  132.9858  152.2420 H   0  0  0  0  0  0  0  0  0  0  0  0
  145.9950  132.8457  150.7884 H   0  0  0  0  0  0  0  0  0  0  0  0
  147.1912  129.4834  153.4444 H   0  0  0  0  0  0  0  0  0  0  0  0
  149.2713  129.7743  154.8110 H   0  0  0  0  0  0  0  0  0  0  0  0
  150.2588  132.0390  155.0247 H   0  0  0  0  0  0  0  0  0  0  0  0
  148.6690  134.9975  153.3014 H   0  0  0  0  0  0  0  0  0  0  0  0
  149.8117  136.5659  153.6154 H   0  0  0  0  0  0  0  0  0  0  0  0
  152.4190  136.6266  154.5782 H   0  0  0  0  0  0  0  0  0  0  0  0
  150.3597  136.9813  156.7959 H   0  0  0  0  0  0  0  0  0  0  0  0
  151.6498  135.8038  156.7320 H   0  0  0  0  0  0  0  0  0  0  0  0
  152.2645  137.6974  158.2202 H   0  0  0  0  0  0  0  0  0  0  0  0
  153.3525  137.6250  156.8669 H   0  0  0  0  0  0  0  0  0  0  0  0
  151.7010  141.7986  156.2197 H   0  0  0  0  0  0  0  0  0  0  0  0
  150.2098  142.1910  158.9332 H   0  0  0  0  0  0  0  0  0  0  0  0
  150.6969  143.4891  157.7322 H   0  0  0  0  0  0  0  0  0  0  0  0
  149.2580  142.3713  155.9770 H   0  0  0  0  0  0  0  0  0  0  0  0
  148.8054  141.0713  157.1925 H   0  0  0  0  0  0  0  0  0  0  0  0
  152.0734  140.3972  154.9296 H   0  0  0  0  0  0  0  0  0  0  0  0
  153.2426  139.1238  155.0529 H   0  0  0  0  0  0  0  0  0  0  0  0
  151.4516  138.5562  153.4141 H   0  0  0  0  0  0  0  0  0  0  0  0
  150.2308  138.7598  154.6472 H   0  0  0  0  0  0  0  0  0  0  0  0
  1  2  1  0  0  0  0
  1 25  1  0  0  0  0
  1 26  1  0  0  0  0
  1 27  1  0  0  0  0
  2  3  1  0  0  0  0
  2 28  1  0  0  0  0
  2 29  1  0  0  0  0
  3  4  1  0  0  0  0
  4  9  1  0  0  0  0
  4  5  2  0  0  0  0
  5  6  1  0  0  0  0
  6  7  2  0  0  0  0
  6 30  1  0  0  0  0
  7  8  1  0  0  0  0
  7 31  1  0  0  0  0
  8  9  2  0  0  0  0
  8 32  1  0  0  0  0
  9 10  1  0  0  0  0
 10 11  1  0  0  0  0
 10 33  1  0  0  0  0
 11 12  2  0  0  0  0
 11 13  1  0  0  0  0
 13 14  1  0  0  0  0
 13 34  1  0  0  0  0
 14 24  1  0  0  0  0
 14 15  1  0  0  0  0
 14 35  1  0  0  0  0
 15 16  1  0  0  0  0
 15 36  1  0  0  0  0
 15 37  1  0  0  0  0
 16 17  1  0  0  0  0
 16 38  1  0  0  0  0
 16 39  1  0  0  0  0
 17 18  1  0  0  0  0
 17 23  1  0  0  0  0
 18 19  2  0  0  0  0
 18 20  1  0  0  0  0
 20 22  1  0  0  0  0
 20 21  1  0  0  0  0
 20 40  1  0  0  0  0
 21 22  1  0  0  0  0
 21 41  1  0  0  0  0
 21 42  1  0  0  0  0
 22 43  1  0  0  0  0
 22 44  1  0  0  0  0
 23 24  1  0  0  0  0
 23 45  1  0  0  0  0
 23 46  1  0  0  0  0
 24 47  1  0  0  0  0
 24 48  1  0  0  0  0
M  END
> <s_m_source_file>
AV-unprocessed.smi

> <i_m_source_file_index>
1140

> <i_lp_mmshare_version>
43012

> <i_f3d_flags>
0

> <s_epik_input>
W0NIM11bQ0gyXU9jMW5bY0hdW2NIXVtjSF1jMVtOSF1DKD1PKVtOSF1bQ0hdMltDSDJdW0NIMl1OKFtDSDJdW0NIMl0yKUMoPU8pW0NIXTNbQ0gyXVtDSDJdMw==

> <s_epik_cmdline>
J2VwaWtfcHl0aG9uJywgJy1waCcsICc3LjAnLCAnLXRuJywgJzgnLCAnLW1hJywgJzIwMCcsICctbWV0YWxfYmluZGluZycsICctaW1hZScsICc8aW5maWxlLm1hZT4nLCAnLW9tYWUnLCAnPG91dGZpbGUubWFlPic=

> <r_lp_tautomer_probability>
1

> <r_epik_Ionization_Penalty>
0.00011541

> <r_epik_Ionization_Penalty_Charging>
0

> <r_epik_Ionization_Penalty_Neutral>
0.00011541

> <r_epik_State_Penalty>
-0

> <r_epik_Charging_Adjusted_Penalty>
0

> <i_epik_Tot_Q>
0

> <i_epik_Tot_abs_Q>
0

> <r_epik_Metal_State_Penalty>
-0

> <b_epik_Metal_Only>
0

> <s_lp_Force_Field>
OPLS_2005

> <r_lp_Energy>
31.5236

> <b_lp_Chiralities_Consistent>
1

> <s_lp_Variant>
AV-unprocessed.smi:1140-1

> <Gold.Version>
5.8.1

> <Gold.Id.Protein>
6NUR|6NUR_protein|mol2

> <Gold.PLP.Fitness>
41.6404

> <Gold.PLP.PLP>
-36.3272

> <Gold.PLP.part.hbond>
-3.0000

> <Gold.PLP.part.metal>
0.0000

> <Gold.PLP.part.buried>
-2.3004

> <Gold.PLP.part.nonpolar>
-31.6664

> <Gold.PLP.part.repulsive>
0.6081

> <Gold.PLP.ligand.clash>
0.0000

> <Gold.PLP.ligand.torsion>
0.1349

> <Gold.PLP.Chemscore.Hbond>
1.8240

> <Gold.PLP.Chemscore.CHOScore>
0.0000

> <Gold.PLP.Chemscore.Metal>
0.0000

> <Gold.Chemscore.Hbonds>
donor molecule, donor type, donor heavy atom, donor atom, acceptor molecule, acceptor atom, score
      L1  H    10    33       P1  7948  0.75
      L1  H    13    34       P1  7948  0.82

> <Gold.PLP.Chemscore.Internal.Correction>
0.1109

> <Gold.Rescore>
     Score         DG    S(hbond)    S(metal)    S(lipo)     H(rot)  DE(clash)    DE(int)     intcor
     11.15     -14.13       1.04        0.00      78.31       1.56       0.18       2.80       ----

> <Gold.Chemscore.Fitness>
11.1478

> <Gold.Chemscore.DG>
-14.1257

> <Gold.Chemscore.ZeroCoef>
-5.4800

> <Gold.Chemscore.Hbond>
1.0442

> <Gold.Chemscore.Metal>
0.0000

> <Gold.Chemscore.Lipo>
78.3071

> <Gold.Chemscore.Internal_Hbond>
0.0000

> <Gold.Chemscore.DEClash>
0.1800

> <Gold.Chemscore.DEInternal>
2.7979

> <Gold.Chemscore.Rot>
1.5640

> <Gold.Chemscore.Internal.Correction>
   9.000000E+99

> <Gold.Chemscore.Hbonds>
donor molecule, donor type, donor heavy atom, donor atom, acceptor molecule, acceptor atom, score
      L1  H    10    33       P1  7948  0.46
      L1  H    13    34       P1  7948  0.28

> <Gold.Chemscore.Hbond.Weighted>
-3.4875

> <Gold.Chemscore.Metal.Weighted>
-0.0000

> <Gold.Chemscore.Lipo.Weighted>
-9.1619

> <Gold.Chemscore.Internal_Hbond.Weighted>
0.0000

> <Gold.Chemscore.DEClash.Weighted>
0.1800

> <Gold.Chemscore.DEInternal.Weighted>
2.7979

> <Gold.Chemscore.Rot.Weighted>
4.0038

> <Gold.Chemscore.Internal.Correction.Weighted>
   9.000000E+99

> <Gold.Protein.RotatedTorsions>
[ 6907 6896 6895 6894 ] final -165.61 input  -60.11 | X-H torsion
[ 7974 7965 7964 7962 ] final   82.01 input  175.53 | X-H torsion
[ 8008 7997 7996 7995 ] final   34.35 input   59.86 | X-H torsion
[ 10167 10162 10161 10158 ] final  -41.63 input  -65.29 | X-H torsion
[ 10718 10713 10712 10709 ] final  -33.64 input   66.30 | X-H torsion
[ 10763 10752 10751 10750 ] final   56.18 input  -60.55 | X-H torsion
[ 11005 11000 10999 10996 ] final  -70.13 input  -57.11 | X-H torsion

> <Gold.Protein.ActiveResidues>
 VAL166  LYS551  ARG553  GLY616  TRP617  ASP618  TYR619  PRO620  LYS621  CYS622 
 ASP623  PHE694  ASN695  SER759  ASP760  ASP761  ALA762  ILE779  LEU786  VAL792 
 PHE793  MET794  SER795  GLU796  ALA797  LYS798  CYS799  TRP800  GLU811  SER814 

> <Gold.Protein.RotatedAtoms>
  151.4304  133.3672  159.2767 H   0  0  0  0  0  0  0  0  0  0  0  0  # atno 6907 bound_to 6896
  150.9229  134.8648  159.7511 H   0  0  0  0  0  0  0  0  0  0  0  0  # atno 6908 bound_to 6896
  152.4990  134.4243  159.9543 H   0  0  0  0  0  0  0  0  0  0  0  0  # atno 6909 bound_to 6896
  145.6306  139.2404  143.2086 H   0  0  0  0  0  0  0  0  0  0  0  0  # atno 7974 bound_to 7965
  155.1534  140.3277  155.4426 H   0  0  0  0  0  0  0  0  0  0  0  0  # atno 8008 bound_to 7997
  156.2567  140.1973  156.6595 H   0  0  0  0  0  0  0  0  0  0  0  0  # atno 8009 bound_to 7997
  154.6457  140.0564  156.9883 H   0  0  0  0  0  0  0  0  0  0  0  0  # atno 8010 bound_to 7997
  140.6996  143.3083  151.3094 H   0  0  0  0  0  0  0  0  0  0  0  0  # atno 10167 bound_to 10162
  156.3602  130.4322  149.7630 H   0  0  0  0  0  0  0  0  0  0  0  0  # atno 10718 bound_to 10713
  152.9828  135.5685  154.5187 H   0  0  0  0  0  0  0  0  0  0  0  0  # atno 10763 bound_to 10752
  154.4679  135.2784  155.1667 H   0  0  0  0  0  0  0  0  0  0  0  0  # atno 10764 bound_to 10752
  154.3227  135.6265  153.5568 H   0  0  0  0  0  0  0  0  0  0  0  0  # atno 10765 bound_to 10752
  141.1568  133.6782  156.6706 H   0  0  0  0  0  0  0  0  0  0  0  0  # atno 11005 bound_to 11000
  146.1359  140.7123  142.9390 LP  0  0  0  0  0  0  0  0  0  0  0  0  # atno 17320 bound_to 7965
  144.7195  140.4324  143.7019 LP  0  0  0  0  0  0  0  0  0  0  0  0  # atno 17321 bound_to 7965
  139.6497  144.0385  152.2617 LP  0  0  0  0  0  0  0  0  0  0  0  0  # atno 17342 bound_to 10162
  139.9917  144.6356  150.7808 LP  0  0  0  0  0  0  0  0  0  0  0  0  # atno 17343 bound_to 10162
  156.4796  130.8035  151.3050 LP  0  0  0  0  0  0  0  0  0  0  0  0  # atno 17370 bound_to 10713
  157.7472  131.0010  150.2946 LP  0  0  0  0  0  0  0  0  0  0  0  0  # atno 17371 bound_to 10713
  140.3177  134.8033  157.4228 LP  0  0  0  0  0  0  0  0  0  0  0  0  # atno 17394 bound_to 11000
  140.1123  134.5329  155.8255 LP  0  0  0  0  0  0  0  0  0  0  0  0  # atno 17395 bound_to 11000

$$$$
