AV-unprocessed.smi:790|AV-procd|sdf|3746|dock4
  -GOLD-   22720 1173D 1   1.00000     0.00000
 Structure written by MMmdl.
 38 40  0  0  0  0  0  0  0  0  1 V2000
  147.2184  132.6683  154.0967 O   0  0  0  0  0  0  0  0  0  0  0  0
  147.4752  133.6942  153.4676 C   0  0  0  0  0  0  0  0  0  0  0  0
  148.5282  134.5000  153.6848 N   0  0  0  0  0  0  0  0  0  0  0  0
  149.5658  134.3684  154.6470 C   0  0  0  0  0  0  0  0  0  0  0  0
  149.8025  133.2030  155.4162 C   0  0  0  0  0  0  0  0  0  0  0  0
  150.8783  133.1959  156.3250 C   0  0  0  0  0  0  0  0  0  0  0  0
  151.6801  134.3490  156.4282 C   0  0  0  0  0  0  0  0  0  0  0  0
  151.4736  135.4616  155.6931 N   0  0  0  0  0  0  0  0  0  0  0  0
  150.4415  135.4607  154.8231 C   0  0  0  0  0  0  0  0  0  0  0  0
  146.7040  134.1663  152.4782 N   0  0  0  0  0  0  0  0  0  0  0  0
  145.4780  133.5374  151.9858 C   0  0  2  0  0  0  0  0  0  0  0  0
  145.8031  132.1759  151.3345 C   0  0  1  0  0  0  0  0  0  0  0  0
  144.5012  131.3685  151.1811 C   0  0  0  0  0  0  0  0  0  0  0  0
  143.7767  132.1169  150.0459 C   0  0  0  0  0  0  0  0  0  0  0  0
  144.7596  133.2537  149.7011 C   0  0  2  0  0  0  0  0  0  0  0  0
  146.1023  132.5597  149.8903 C   0  0  0  0  0  0  0  0  0  0  0  0
  144.7512  134.3045  150.8389 C   0  0  2  0  0  0  0  0  0  0  0  0
  145.3679  135.6601  150.4234 C   0  0  0  0  0  0  0  0  0  0  0  0
  145.1874  136.6187  151.4442 O   0  0  0  0  0  0  0  0  0  0  0  0
  148.5609  135.3433  153.1307 H   0  0  0  0  0  0  0  0  0  0  0  0
  149.1969  132.3157  155.3208 H   0  0  0  0  0  0  0  0  0  0  0  0
  151.0867  132.3236  156.9266 H   0  0  0  0  0  0  0  0  0  0  0  0
  152.5127  134.3764  157.1152 H   0  0  0  0  0  0  0  0  0  0  0  0
  150.3086  136.3666  154.2496 H   0  0  0  0  0  0  0  0  0  0  0  0
  146.9870  135.0216  152.0227 H   0  0  0  0  0  0  0  0  0  0  0  0
  144.7998  133.3849  152.8276 H   0  0  0  0  0  0  0  0  0  0  0  0
  146.5950  131.6195  151.8378 H   0  0  0  0  0  0  0  0  0  0  0  0
  144.7141  130.3400  150.8866 H   0  0  0  0  0  0  0  0  0  0  0  0
  143.9168  131.3384  152.1016 H   0  0  0  0  0  0  0  0  0  0  0  0
  143.6305  131.4588  149.1886 H   0  0  0  0  0  0  0  0  0  0  0  0
  142.7978  132.4896  150.3492 H   0  0  0  0  0  0  0  0  0  0  0  0
  144.5963  133.6698  148.7066 H   0  0  0  0  0  0  0  0  0  0  0  0
  146.9590  133.2267  149.7853 H   0  0  0  0  0  0  0  0  0  0  0  0
  146.2406  131.6989  149.2333 H   0  0  0  0  0  0  0  0  0  0  0  0
  143.7225  134.4991  151.1465 H   0  0  0  0  0  0  0  0  0  0  0  0
  146.4402  135.5588  150.2558 H   0  0  0  0  0  0  0  0  0  0  0  0
  144.9272  136.0355  149.4998 H   0  0  0  0  0  0  0  0  0  0  0  0
  144.6340  137.3090  151.1122 H   0  0  0  0  0  0  0  0  0  0  0  0
  1  2  2  0  0  0  0
  2  3  1  0  0  0  0
  2 10  1  0  0  0  0
  3  4  1  0  0  0  0
  3 20  1  0  0  0  0
  4  9  1  0  0  0  0
  4  5  2  0  0  0  0
  5  6  1  0  0  0  0
  5 21  1  0  0  0  0
  6  7  2  0  0  0  0
  6 22  1  0  0  0  0
  7  8  1  0  0  0  0
  7 23  1  0  0  0  0
  8  9  2  0  0  0  0
  9 24  1  0  0  0  0
 10 11  1  0  0  0  0
 10 25  1  0  0  0  0
 11 17  1  0  0  0  0
 11 12  1  0  0  0  0
 11 26  1  0  0  0  0
 12 16  1  0  0  0  0
 12 13  1  0  0  0  0
 12 27  1  0  0  0  0
 13 14  1  0  0  0  0
 13 28  1  0  0  0  0
 13 29  1  0  0  0  0
 14 15  1  0  0  0  0
 14 30  1  0  0  0  0
 14 31  1  0  0  0  0
 15 16  1  0  0  0  0
 15 17  1  0  0  0  0
 15 32  1  0  0  0  0
 16 33  1  0  0  0  0
 16 34  1  0  0  0  0
 17 18  1  0  0  0  0
 17 35  1  0  0  0  0
 18 19  1  0  0  0  0
 18 36  1  0  0  0  0
 18 37  1  0  0  0  0
 19 38  1  0  0  0  0
M  END
> <s_m_source_file>
AV-unprocessed.smi

> <i_m_source_file_index>
790

> <i_lp_mmshare_version>
43012

> <i_f3d_flags>
0

> <s_epik_input>
W0NIMl0xW0NIMl1bQ0BASF0oW0NIMl0yKVtDQEBIXShbQ0gyXVtPSF0pW0NAQEhdKFtDQEhdMTIpW05IXUMoPU8pW05IXWMzW2NIXVtjSF1bY0hdbltjSF0z

> <s_epik_cmdline>
J2VwaWtfcHl0aG9uJywgJy1waCcsICc3LjAnLCAnLXRuJywgJzgnLCAnLW1hJywgJzIwMCcsICctbWV0YWxfYmluZGluZycsICctaW1hZScsICc8aW5maWxlLm1hZT4nLCAnLW9tYWUnLCAnPG91dGZpbGUubWFlPic=

> <r_epik_Ionization_Penalty>
0.00497582

> <r_epik_Ionization_Penalty_Charging>
0

> <r_epik_Ionization_Penalty_Neutral>
0.00497582

> <r_epik_State_Penalty>
0.00358602

> <r_epik_Charging_Adjusted_Penalty>
0.00358602

> <i_epik_Tot_Q>
0

> <i_epik_Tot_abs_Q>
0

> <r_epik_Metal_State_Penalty>
-0

> <b_epik_Metal_Only>
0

> <s_lp_Force_Field>
OPLS_2005

> <r_lp_Energy>
52.0711

> <b_lp_Chiralities_Consistent>
1

> <s_lp_Variant>
AV-unprocessed.smi:790-7

> <Gold.Version>
5.8.1

> <Gold.Id.Protein>
6NUR|6NUR_protein|mol2

> <Gold.PLP.Fitness>
43.6925

> <Gold.PLP.PLP>
-33.1031

> <Gold.PLP.part.hbond>
-3.7907

> <Gold.PLP.part.metal>
0.0000

> <Gold.PLP.part.buried>
0.6946

> <Gold.PLP.part.nonpolar>
-28.4803

> <Gold.PLP.part.repulsive>
0.1121

> <Gold.PLP.ligand.clash>
0.0000

> <Gold.PLP.ligand.torsion>
0.0775

> <Gold.PLP.Chemscore.Hbond>
3.2402

> <Gold.PLP.Chemscore.CHOScore>
0.3370

> <Gold.PLP.Chemscore.Metal>
0.0000

> <Gold.Chemscore.Hbonds>
donor molecule, donor type, donor heavy atom, donor atom, acceptor molecule, acceptor atom, score
      L1  H     3    20       P1  7948  1.00
      L1  H    10    25       P1  7948  0.27
      L1  H    19    38       P1 10171  1.00
      P1  H 10752 10765       L1     8  1.00
      L1  C     9    24       P1  7948  0.35
      L1  C     9    24       P1  7949  0.01

> <Gold.PLP.Chemscore.Internal.Correction>
0.0125

> <Gold.Rescore>
     Score         DG    S(hbond)    S(metal)    S(lipo)     H(rot)  DE(clash)    DE(int)     intcor
     18.37     -19.76       2.83        0.00      80.08       1.78       0.09       1.30       ----

> <Gold.Chemscore.Fitness>
18.3711

> <Gold.Chemscore.DG>
-19.7584

> <Gold.Chemscore.ZeroCoef>
-5.4800

> <Gold.Chemscore.Hbond>
2.8328

> <Gold.Chemscore.Metal>
0.0000

> <Gold.Chemscore.Lipo>
80.0798

> <Gold.Chemscore.Internal_Hbond>
0.0000

> <Gold.Chemscore.DEClash>
0.0863

> <Gold.Chemscore.DEInternal>
1.3009

> <Gold.Chemscore.Rot>
1.7783

> <Gold.Chemscore.Internal.Correction>
   9.000000E+99

> <Gold.Chemscore.Hbonds>
donor molecule, donor type, donor heavy atom, donor atom, acceptor molecule, acceptor atom, score
      L1  H     3    20       P1  7948  0.85
      L1  H    10    25       P1  7948  0.27
      L1  H    19    38       P1 10171  0.97
      P1  H 10752 10765       L1     8  0.20

> <Gold.Chemscore.Hbond.Weighted>
-9.4616

> <Gold.Chemscore.Metal.Weighted>
-0.0000

> <Gold.Chemscore.Lipo.Weighted>
-9.3693

> <Gold.Chemscore.Internal_Hbond.Weighted>
0.0000

> <Gold.Chemscore.DEClash.Weighted>
0.0863

> <Gold.Chemscore.DEInternal.Weighted>
1.3009

> <Gold.Chemscore.Rot.Weighted>
4.5525

> <Gold.Chemscore.Internal.Correction.Weighted>
   9.000000E+99

> <Gold.Protein.RotatedTorsions>
[ 6907 6896 6895 6894 ] final  -15.25 input  -60.11 | X-H torsion
[ 7974 7965 7964 7962 ] final   96.73 input  175.53 | X-H torsion
[ 8008 7997 7996 7995 ] final  -68.91 input   59.86 | X-H torsion
[ 10167 10162 10161 10158 ] final  118.22 input  -65.29 | X-H torsion
[ 10718 10713 10712 10709 ] final  140.53 input   66.30 | X-H torsion
[ 10763 10752 10751 10750 ] final -172.76 input  -60.55 | X-H torsion
[ 11005 11000 10999 10996 ] final  145.08 input  -57.11 | X-H torsion

> <Gold.Protein.ActiveResidues>
 VAL166  LYS551  ARG553  GLY616  TRP617  ASP618  TYR619  PRO620  LYS621  CYS622 
 ASP623  PHE694  ASN695  SER759  ASP760  ASP761  ALA762  ILE779  LEU786  VAL792 
 PHE793  MET794  SER795  GLU796  ALA797  LYS798  CYS799  TRP800  GLU811  SER814 

> <Gold.Protein.RotatedAtoms>
  151.3269  135.0832  159.9324 H   0  0  0  0  0  0  0  0  0  0  0  0  # atno 6907 bound_to 6896
  152.5244  133.9582  159.7715 H   0  0  0  0  0  0  0  0  0  0  0  0  # atno 6908 bound_to 6896
  150.9913  133.6094  159.2738 H   0  0  0  0  0  0  0  0  0  0  0  0  # atno 6909 bound_to 6896
  145.4350  139.2307  143.3123 H   0  0  0  0  0  0  0  0  0  0  0  0  # atno 7974 bound_to 7965
  154.4901  140.0863  156.7575 H   0  0  0  0  0  0  0  0  0  0  0  0  # atno 8008 bound_to 7997
  155.4252  140.3447  155.4256 H   0  0  0  0  0  0  0  0  0  0  0  0  # atno 8009 bound_to 7997
  156.1318  140.1503  156.9042 H   0  0  0  0  0  0  0  0  0  0  0  0  # atno 8010 bound_to 7997
  139.6126  144.7085  151.2811 H   0  0  0  0  0  0  0  0  0  0  0  0  # atno 10167 bound_to 10162
  157.4022  131.1018  151.0540 H   0  0  0  0  0  0  0  0  0  0  0  0  # atno 10718 bound_to 10713
  154.6156  135.2869  155.0383 H   0  0  0  0  0  0  0  0  0  0  0  0  # atno 10763 bound_to 10752
  154.1597  135.6490  153.4987 H   0  0  0  0  0  0  0  0  0  0  0  0  # atno 10764 bound_to 10752
  153.0213  135.5375  154.6926 H   0  0  0  0  0  0  0  0  0  0  0  0  # atno 10765 bound_to 10752
  140.0683  134.9166  157.1302 H   0  0  0  0  0  0  0  0  0  0  0  0  # atno 11005 bound_to 11000
  146.2587  140.5091  142.8863 LP  0  0  0  0  0  0  0  0  0  0  0  0  # atno 17320 bound_to 7965
  144.8158  140.6466  143.6385 LP  0  0  0  0  0  0  0  0  0  0  0  0  # atno 17321 bound_to 7965
  140.7329  143.6809  150.8001 LP  0  0  0  0  0  0  0  0  0  0  0  0  # atno 17342 bound_to 10162
  140.0407  143.5349  152.2719 LP  0  0  0  0  0  0  0  0  0  0  0  0  # atno 17343 bound_to 10162
  157.1535  130.6194  149.5589 LP  0  0  0  0  0  0  0  0  0  0  0  0  # atno 17370 bound_to 10713
  155.9826  130.4841  150.6891 LP  0  0  0  0  0  0  0  0  0  0  0  0  # atno 17371 bound_to 10713
  140.3665  134.2437  155.7182 LP  0  0  0  0  0  0  0  0  0  0  0  0  # atno 17394 bound_to 11000
  141.2002  133.7994  157.0502 LP  0  0  0  0  0  0  0  0  0  0  0  0  # atno 17395 bound_to 11000

$$$$
