AV-unprocessed.smi:3152|AV-procd|sdf|12017|dock2
  -GOLD-   2272017423D 1   1.00000     0.00000
 Structure written by MMmdl.
 41 42  0  0  0  0  0  0  0  0  2 V2000
  144.9826  130.9572  151.1106 C   0  0  0  0  0  0  0  0  0  0  0  0
  145.1017  132.4207  151.4250 C   0  0  0  0  0  0  0  0  0  0  0  0
  144.9623  133.0546  152.6922 C   0  0  0  0  0  0  0  0  0  0  0  0
  145.1298  134.3658  152.6324 N   0  0  0  0  0  0  0  0  0  0  0  0
  145.3828  134.6144  151.3303 N   0  0  0  0  0  0  0  0  0  0  0  0
  145.6246  135.9761  150.8947 C   0  0  0  0  0  0  0  0  0  0  0  0
  145.5457  136.9657  152.0658 C   0  0  0  0  0  0  0  0  0  0  0  0
  146.5940  136.6916  153.0670 N   0  3  0  0  0  0  0  0  0  0  0  0
  146.6794  137.7052  154.1397 C   0  0  0  0  0  0  0  0  0  0  0  0
  147.6327  138.8668  153.7812 C   0  0  0  0  0  0  0  0  0  0  0  0
  147.9982  138.7065  152.4219 O   0  0  0  0  0  0  0  0  0  0  0  0
  146.9595  140.2482  153.9762 C   0  0  0  0  0  0  0  0  0  0  0  0
  147.9290  141.4243  153.7620 C   0  0  0  0  0  0  0  0  0  0  0  0
  149.1727  141.2961  154.6524 C   0  0  0  0  0  0  0  0  0  0  0  0
  149.8794  139.9541  154.4176 C   0  0  0  0  0  0  0  0  0  0  0  0
  148.9190  138.7711  154.6361 C   0  0  0  0  0  0  0  0  0  0  0  0
  145.3696  133.4589  150.5779 C   0  0  0  0  0  0  0  0  0  0  0  0
  144.2505  130.4646  151.7508 H   0  0  0  0  0  0  0  0  0  0  0  0
  145.9315  130.4393  151.2498 H   0  0  0  0  0  0  0  0  0  0  0  0
  144.6714  130.7879  150.0794 H   0  0  0  0  0  0  0  0  0  0  0  0
  144.7462  132.6025  153.6491 H   0  0  0  0  0  0  0  0  0  0  0  0
  146.6068  136.0216  150.4222 H   0  0  0  0  0  0  0  0  0  0  0  0
  144.8908  136.2291  150.1280 H   0  0  0  0  0  0  0  0  0  0  0  0
  145.6622  137.9878  151.7026 H   0  0  0  0  0  0  0  0  0  0  0  0
  144.5664  136.9019  152.5422 H   0  0  0  0  0  0  0  0  0  0  0  0
  146.4116  135.7943  153.4941 H   0  0  0  0  0  0  0  0  0  0  0  0
  145.6791  138.0951  154.3345 H   0  0  0  0  0  0  0  0  0  0  0  0
  147.0102  137.2172  155.0580 H   0  0  0  0  0  0  0  0  0  0  0  0
  148.2791  137.8131  152.2906 H   0  0  0  0  0  0  0  0  0  0  0  0
  146.1078  140.3600  153.3041 H   0  0  0  0  0  0  0  0  0  0  0  0
  146.5557  140.3100  154.9879 H   0  0  0  0  0  0  0  0  0  0  0  0
  148.2316  141.4684  152.7151 H   0  0  0  0  0  0  0  0  0  0  0  0
  147.4199  142.3653  153.9728 H   0  0  0  0  0  0  0  0  0  0  0  0
  149.8600  142.1189  154.4531 H   0  0  0  0  0  0  0  0  0  0  0  0
  148.8843  141.3806  155.7010 H   0  0  0  0  0  0  0  0  0  0  0  0
  150.2829  139.9237  153.4050 H   0  0  0  0  0  0  0  0  0  0  0  0
  150.7335  139.8645  155.0894 H   0  0  0  0  0  0  0  0  0  0  0  0
  148.6461  138.7395  155.6920 H   0  0  0  0  0  0  0  0  0  0  0  0
  149.4406  137.8345  154.4332 H   0  0  0  0  0  0  0  0  0  0  0  0
  145.5521  133.4692  149.5134 H   0  0  0  0  0  0  0  0  0  0  0  0
  147.4862  136.6485  152.5958 H   0  0  0  0  0  0  0  0  0  0  0  0
  1  2  1  0  0  0  0
  1 18  1  0  0  0  0
  1 19  1  0  0  0  0
  1 20  1  0  0  0  0
  2 17  2  0  0  0  0
  2  3  1  0  0  0  0
  3  4  2  0  0  0  0
  3 21  1  0  0  0  0
  4  5  1  0  0  0  0
  5  6  1  0  0  0  0
  5 17  1  0  0  0  0
  6  7  1  0  0  0  0
  6 22  1  0  0  0  0
  6 23  1  0  0  0  0
  7  8  1  0  0  0  0
  7 24  1  0  0  0  0
  7 25  1  0  0  0  0
  8  9  1  0  0  0  0
  8 26  1  0  0  0  0
  8 41  1  0  0  0  0
  9 10  1  0  0  0  0
  9 27  1  0  0  0  0
  9 28  1  0  0  0  0
 10 16  1  0  0  0  0
 10 11  1  0  0  0  0
 10 12  1  0  0  0  0
 11 29  1  0  0  0  0
 12 13  1  0  0  0  0
 12 30  1  0  0  0  0
 12 31  1  0  0  0  0
 13 14  1  0  0  0  0
 13 32  1  0  0  0  0
 13 33  1  0  0  0  0
 14 15  1  0  0  0  0
 14 34  1  0  0  0  0
 14 35  1  0  0  0  0
 15 16  1  0  0  0  0
 15 36  1  0  0  0  0
 15 37  1  0  0  0  0
 16 38  1  0  0  0  0
 16 39  1  0  0  0  0
 17 40  1  0  0  0  0
M  CHG  1   8   1
M  END
> <s_m_source_file>
AV-unprocessed.smi

> <i_m_source_file_index>
3152

> <i_lp_mmshare_version>
43012

> <i_f3d_flags>
0

> <s_epik_input>
W0NIM11jMVtjSF1ubihbY0hdMSlbQ0gyXVtDSDJdW05IXVtDSDJdQzIoW09IXSlbQ0gyXVtDSDJdW0NIMl1bQ0gyXVtDSDJdMg==

> <s_epik_cmdline>
J2VwaWtfcHl0aG9uJywgJy1waCcsICc3LjAnLCAnLXRuJywgJzgnLCAnLW1hJywgJzIwMCcsICctbWV0YWxfYmluZGluZycsICctaW1hZScsICc8aW5maWxlLm1hZT4nLCAnLW9tYWUnLCAnPG91dGZpbGUubWFlPic=

> <r_lp_tautomer_probability>
1

> <r_epik_Ionization_Penalty>
0.0240188

> <r_epik_Ionization_Penalty_Charging>
0.0240119

> <r_epik_Ionization_Penalty_Neutral>
6.9154e-06

> <r_epik_State_Penalty>
0.0194671

> <r_epik_Charging_Adjusted_Penalty>
0.043479

> <i_epik_Tot_Q>
1

> <i_epik_Tot_abs_Q>
1

> <r_epik_Metal_State_Penalty>
0.0195537

> <b_epik_Metal_Only>
0

> <s_lp_Force_Field>
OPLS_2005

> <r_lp_Energy>
14.7618

> <b_lp_Chiralities_Consistent>
1

> <s_lp_Variant>
AV-unprocessed.smi:3152-1

> <Gold.Version>
5.8.1

> <Gold.Id.Protein>
6NUR|6NUR_protein|mol2

> <Gold.PLP.Fitness>
44.7031

> <Gold.PLP.PLP>
-32.1919

> <Gold.PLP.part.hbond>
-2.6463

> <Gold.PLP.part.metal>
0.0000

> <Gold.PLP.part.buried>
-3.8193

> <Gold.PLP.part.nonpolar>
-26.3840

> <Gold.PLP.part.repulsive>
0.0904

> <Gold.PLP.ligand.clash>
0.0000

> <Gold.PLP.ligand.torsion>
1.2482

> <Gold.PLP.Chemscore.Hbond>
3.0000

> <Gold.PLP.Chemscore.CHOScore>
2.0000

> <Gold.PLP.Chemscore.Metal>
0.0000

> <Gold.Chemscore.Hbonds>
donor molecule, donor type, donor heavy atom, donor atom, acceptor molecule, acceptor atom, score
      L1  H     8    41       P1  7948  2.00
      L1  H    11    29       P1  7948  1.00
      L1  C     3    21       P1 10957  1.00
      L1  C    17    40       P1  7921  1.00

> <Gold.PLP.Chemscore.Internal.Correction>
0.0075

> <Gold.Rescore>
     Score         DG    S(hbond)    S(metal)    S(lipo)     H(rot)  DE(clash)    DE(int)     intcor
     15.07     -16.48       2.00        0.00      84.50       2.17       0.06       1.34       ----

> <Gold.Chemscore.Fitness>
15.0740

> <Gold.Chemscore.DG>
-16.4810

> <Gold.Chemscore.ZeroCoef>
-5.4800

> <Gold.Chemscore.Hbond>
1.9957

> <Gold.Chemscore.Metal>
0.0000

> <Gold.Chemscore.Lipo>
84.5019

> <Gold.Chemscore.Internal_Hbond>
0.0000

> <Gold.Chemscore.DEClash>
0.0632

> <Gold.Chemscore.DEInternal>
1.3437

> <Gold.Chemscore.Rot>
2.1685

> <Gold.Chemscore.Internal.Correction>
   9.000000E+99

> <Gold.Chemscore.Hbonds>
donor molecule, donor type, donor heavy atom, donor atom, acceptor molecule, acceptor atom, score
      L1  H     8    41       P1  7948  1.00
      L1  H    11    29       P1  7948  1.00

> <Gold.Chemscore.Hbond.Weighted>
-6.6657

> <Gold.Chemscore.Metal.Weighted>
-0.0000

> <Gold.Chemscore.Lipo.Weighted>
-9.8867

> <Gold.Chemscore.Internal_Hbond.Weighted>
0.0000

> <Gold.Chemscore.DEClash.Weighted>
0.0632

> <Gold.Chemscore.DEInternal.Weighted>
1.3437

> <Gold.Chemscore.Rot.Weighted>
5.5514

> <Gold.Chemscore.Internal.Correction.Weighted>
   9.000000E+99

> <Gold.Protein.RotatedTorsions>
[ 6907 6896 6895 6894 ] final  -38.04 input  -60.11 | X-H torsion
[ 7974 7965 7964 7962 ] final -117.87 input  175.53 | X-H torsion
[ 8008 7997 7996 7995 ] final    8.49 input   59.86 | X-H torsion
[ 10167 10162 10161 10158 ] final  129.70 input  -65.29 | X-H torsion
[ 10718 10713 10712 10709 ] final  -47.46 input   66.30 | X-H torsion
[ 10763 10752 10751 10750 ] final   -7.91 input  -60.55 | X-H torsion
[ 11005 11000 10999 10996 ] final  136.78 input  -57.11 | X-H torsion

> <Gold.Protein.ActiveResidues>
 VAL166  LYS551  ARG553  GLY616  TRP617  ASP618  TYR619  PRO620  LYS621  CYS622 
 ASP623  PHE694  ASN695  SER759  ASP760  ASP761  ALA762  ILE779  LEU786  VAL792 
 PHE793  MET794  SER795  GLU796  ALA797  LYS798  CYS799  TRP800  GLU811  SER814 

> <Gold.Protein.RotatedAtoms>
  151.0073  134.9369  159.7986 H   0  0  0  0  0  0  0  0  0  0  0  0  # atno 6907 bound_to 6896
  152.5293  134.3075  159.9111 H   0  0  0  0  0  0  0  0  0  0  0  0  # atno 6908 bound_to 6896
  151.3081  133.4051  159.2679 H   0  0  0  0  0  0  0  0  0  0  0  0  # atno 6909 bound_to 6896
  145.0802  140.8420  143.4043 H   0  0  0  0  0  0  0  0  0  0  0  0  # atno 7974 bound_to 7965
  154.7675  140.2796  155.6164 H   0  0  0  0  0  0  0  0  0  0  0  0  # atno 8008 bound_to 7997
  156.2927  140.2648  156.2397 H   0  0  0  0  0  0  0  0  0  0  0  0  # atno 8009 bound_to 7997
  154.9940  140.0373  157.2321 H   0  0  0  0  0  0  0  0  0  0  0  0  # atno 8010 bound_to 7997
  139.5465  144.6777  151.4457 H   0  0  0  0  0  0  0  0  0  0  0  0  # atno 10167 bound_to 10162
  156.2082  130.4159  149.9150 H   0  0  0  0  0  0  0  0  0  0  0  0  # atno 10718 bound_to 10713
  153.4330  135.7012  153.6218 H   0  0  0  0  0  0  0  0  0  0  0  0  # atno 10763 bound_to 10752
  153.4625  135.3733  155.2346 H   0  0  0  0  0  0  0  0  0  0  0  0  # atno 10764 bound_to 10752
  154.8726  135.4023  154.3717 H   0  0  0  0  0  0  0  0  0  0  0  0  # atno 10765 bound_to 10752
  140.0069  134.9455  157.0194 H   0  0  0  0  0  0  0  0  0  0  0  0  # atno 11005 bound_to 11000
  145.1187  139.2708  143.5600 LP  0  0  0  0  0  0  0  0  0  0  0  0  # atno 17320 bound_to 7965
  146.3531  140.0804  142.8618 LP  0  0  0  0  0  0  0  0  0  0  0  0  # atno 17321 bound_to 7965
  140.6714  143.8284  150.7005 LP  0  0  0  0  0  0  0  0  0  0  0  0  # atno 17342 bound_to 10162
  140.1710  143.4195  152.2001 LP  0  0  0  0  0  0  0  0  0  0  0  0  # atno 17343 bound_to 10162
  156.6836  130.8868  151.3579 LP  0  0  0  0  0  0  0  0  0  0  0  0  # atno 17370 bound_to 10713
  157.7024  130.9347  150.0826 LP  0  0  0  0  0  0  0  0  0  0  0  0  # atno 17371 bound_to 10713
  140.4625  134.1470  155.7193 LP  0  0  0  0  0  0  0  0  0  0  0  0  # atno 17394 bound_to 11000
  141.1683  133.8659  157.1647 LP  0  0  0  0  0  0  0  0  0  0  0  0  # atno 17395 bound_to 11000

$$$$
