AV-unprocessed.smi:1281|AV-procd|sdf|5359|dock6
  -GOLD-   22720 4493D 1   1.00000     0.00000
 Structure written by MMmdl.
 45 46  0  0  0  0  0  0  0  0  1 V2000
  153.5229  138.5783  159.7661 C   0  0  0  0  0  0  0  0  0  0  0  0
  153.7586  138.7633  158.3818 O   0  0  0  0  0  0  0  0  0  0  0  0
  153.3674  137.6406  157.6079 C   0  0  0  0  0  0  0  0  0  0  0  0
  153.3460  138.0283  156.1207 C   0  0  0  0  0  0  0  0  0  0  0  0
  152.0018  137.9096  155.5451 N   0  0  0  0  0  0  0  0  0  0  0  0
  151.5222  136.6112  155.5001 N   0  0  0  0  0  0  0  0  0  0  0  0
  150.3504  136.3668  155.0092 C   0  0  0  0  0  0  0  0  0  0  0  0
  149.8023  134.9841  154.9362 C   0  0  0  0  0  0  0  0  0  0  0  0
  150.2450  134.0713  155.6357 O   0  0  0  0  0  0  0  0  0  0  0  0
  148.7964  134.8083  154.0599 N   0  0  0  0  0  0  0  0  0  0  0  0
  148.1051  133.5483  153.8149 C   0  0  0  0  0  0  0  0  0  0  0  0
  148.0416  133.2174  152.3133 C   0  0  0  0  0  0  0  0  0  0  0  0
  146.6829  133.5208  151.7047 C   0  0  0  0  0  0  0  0  0  0  0  0
  146.1985  134.7760  151.6334 C   0  0  0  0  0  0  0  0  0  0  0  0
  144.8405  135.1359  151.0564 C   0  0  0  0  0  0  0  0  0  0  0  0
  143.9355  133.9056  150.8762 C   0  0  0  0  0  0  0  0  0  0  0  0
  144.7161  132.7265  150.2823 C   0  0  0  0  0  0  0  0  0  0  0  0
  145.8953  132.3228  151.1857 C   0  0  0  0  0  0  0  0  0  0  0  0
  149.5161  137.4443  154.5041 C   0  0  0  0  0  0  0  0  0  0  0  0
  150.0003  138.7050  154.5480 C   0  0  0  0  0  0  0  0  0  0  0  0
  151.3269  139.0071  155.0880 C   0  0  0  0  0  0  0  0  0  0  0  0
  151.7951  140.1447  155.1260 O   0  0  0  0  0  0  0  0  0  0  0  0
  153.8390  139.4668  160.3127 H   0  0  0  0  0  0  0  0  0  0  0  0
  154.0855  137.7272  160.1522 H   0  0  0  0  0  0  0  0  0  0  0  0
  152.4627  138.4186  159.9671 H   0  0  0  0  0  0  0  0  0  0  0  0
  154.0796  136.8285  157.7613 H   0  0  0  0  0  0  0  0  0  0  0  0
  152.3889  137.2775  157.9260 H   0  0  0  0  0  0  0  0  0  0  0  0
  153.7207  139.0467  156.0022 H   0  0  0  0  0  0  0  0  0  0  0  0
  154.0458  137.3996  155.5677 H   0  0  0  0  0  0  0  0  0  0  0  0
  148.4905  135.6090  153.5254 H   0  0  0  0  0  0  0  0  0  0  0  0
  148.6413  132.7660  154.3522 H   0  0  0  0  0  0  0  0  0  0  0  0
  147.1010  133.5864  154.2407 H   0  0  0  0  0  0  0  0  0  0  0  0
  148.8048  133.7852  151.7790 H   0  0  0  0  0  0  0  0  0  0  0  0
  148.2739  132.1647  152.1482 H   0  0  0  0  0  0  0  0  0  0  0  0
  146.7923  135.6022  151.9965 H   0  0  0  0  0  0  0  0  0  0  0  0
  144.3536  135.8617  151.7083 H   0  0  0  0  0  0  0  0  0  0  0  0
  145.0018  135.6288  150.0973 H   0  0  0  0  0  0  0  0  0  0  0  0
  143.5241  133.6110  151.8425 H   0  0  0  0  0  0  0  0  0  0  0  0
  143.0853  134.1578  150.2420 H   0  0  0  0  0  0  0  0  0  0  0  0
  144.0555  131.8728  150.1292 H   0  0  0  0  0  0  0  0  0  0  0  0
  145.0913  133.0067  149.2971 H   0  0  0  0  0  0  0  0  0  0  0  0
  146.5619  131.6566  150.6371 H   0  0  0  0  0  0  0  0  0  0  0  0
  145.5241  131.7619  152.0438 H   0  0  0  0  0  0  0  0  0  0  0  0
  148.5333  137.2505  154.0994 H   0  0  0  0  0  0  0  0  0  0  0  0
  149.3917  139.5153  154.1743 H   0  0  0  0  0  0  0  0  0  0  0  0
  1  2  1  0  0  0  0
  1 23  1  0  0  0  0
  1 24  1  0  0  0  0
  1 25  1  0  0  0  0
  2  3  1  0  0  0  0
  3  4  1  0  0  0  0
  3 26  1  0  0  0  0
  3 27  1  0  0  0  0
  4  5  1  0  0  0  0
  4 28  1  0  0  0  0
  4 29  1  0  0  0  0
  5 21  1  0  0  0  0
  5  6  1  0  0  0  0
  6  7  2  0  0  0  0
  7  8  1  0  0  0  0
  7 19  1  0  0  0  0
  8  9  2  0  0  0  0
  8 10  1  0  0  0  0
 10 11  1  0  0  0  0
 10 30  1  0  0  0  0
 11 12  1  0  0  0  0
 11 31  1  0  0  0  0
 11 32  1  0  0  0  0
 12 13  1  0  0  0  0
 12 33  1  0  0  0  0
 12 34  1  0  0  0  0
 13 18  1  0  0  0  0
 13 14  2  0  0  0  0
 14 15  1  0  0  0  0
 14 35  1  0  0  0  0
 15 16  1  0  0  0  0
 15 36  1  0  0  0  0
 15 37  1  0  0  0  0
 16 17  1  0  0  0  0
 16 38  1  0  0  0  0
 16 39  1  0  0  0  0
 17 18  1  0  0  0  0
 17 40  1  0  0  0  0
 17 41  1  0  0  0  0
 18 42  1  0  0  0  0
 18 43  1  0  0  0  0
 19 20  2  0  0  0  0
 19 44  1  0  0  0  0
 20 21  1  0  0  0  0
 20 45  1  0  0  0  0
 21 22  2  0  0  0  0
M  END
> <s_m_source_file>
AV-unprocessed.smi

> <i_m_source_file_index>
1281

> <i_lp_mmshare_version>
43012

> <i_f3d_flags>
0

> <s_epik_input>
W0NIM11PW0NIMl1bQ0gyXW4xbmMoW2NIXVtjSF1jMT1PKUMoPU8pW05IXVtDSDJdW0NIMl1DMj1bQ0hdW0NIMl1bQ0gyXVtDSDJdW0NIMl0y

> <s_epik_cmdline>
J2VwaWtfcHl0aG9uJywgJy1waCcsICc3LjAnLCAnLXRuJywgJzgnLCAnLW1hJywgJzIwMCcsICctbWV0YWxfYmluZGluZycsICctaW1hZScsICc8aW5maWxlLm1hZT4nLCAnLW9tYWUnLCAnPG91dGZpbGUubWFlPic=

> <r_lp_tautomer_probability>
1

> <r_epik_Ionization_Penalty>
8.17845e-07

> <r_epik_Ionization_Penalty_Charging>
5.79962e-09

> <r_epik_Ionization_Penalty_Neutral>
8.12046e-07

> <r_epik_State_Penalty>
-0

> <r_epik_Charging_Adjusted_Penalty>
5.79962e-09

> <i_epik_Tot_Q>
0

> <i_epik_Tot_abs_Q>
0

> <r_epik_Metal_State_Penalty>
-0

> <b_epik_Metal_Only>
0

> <s_lp_Force_Field>
OPLS_2005

> <r_lp_Energy>
28.483

> <b_lp_Chiralities_Consistent>
1

> <s_lp_Variant>
AV-unprocessed.smi:1281-1

> <Gold.Version>
5.8.1

> <Gold.Id.Protein>
6NUR|6NUR_protein|mol2

> <Gold.PLP.Fitness>
46.2169

> <Gold.PLP.PLP>
-37.0342

> <Gold.PLP.part.hbond>
-4.0000

> <Gold.PLP.part.metal>
0.0000

> <Gold.PLP.part.buried>
-1.6172

> <Gold.PLP.part.nonpolar>
-31.5869

> <Gold.PLP.part.repulsive>
0.1673

> <Gold.PLP.ligand.clash>
0.0000

> <Gold.PLP.ligand.torsion>
0.9712

> <Gold.PLP.Chemscore.Hbond>
3.6560

> <Gold.PLP.Chemscore.CHOScore>
0.0000

> <Gold.PLP.Chemscore.Metal>
0.0000

> <Gold.Chemscore.Hbonds>
donor molecule, donor type, donor heavy atom, donor atom, acceptor molecule, acceptor atom, score
      L1  H    10    30       P1  7948  0.62
      P1  H  7989  7998       L1    22  0.90
      P1  H  7997  8010       L1     2  0.81
      P1  H 10752 10764       L1     6  1.00

> <Gold.PLP.Chemscore.Internal.Correction>
0.1570

> <Gold.Rescore>
     Score         DG    S(hbond)    S(metal)    S(lipo)     H(rot)  DE(clash)    DE(int)     intcor
     18.68     -20.13       2.96        0.00      81.49       1.86       0.33       1.12       ----

> <Gold.Chemscore.Fitness>
18.6838

> <Gold.Chemscore.DG>
-20.1320

> <Gold.Chemscore.ZeroCoef>
-5.4800

> <Gold.Chemscore.Hbond>
2.9618

> <Gold.Chemscore.Metal>
0.0000

> <Gold.Chemscore.Lipo>
81.4852

> <Gold.Chemscore.Internal_Hbond>
0.0000

> <Gold.Chemscore.DEClash>
0.3323

> <Gold.Chemscore.DEInternal>
1.1160

> <Gold.Chemscore.Rot>
1.8649

> <Gold.Chemscore.Internal.Correction>
   9.000000E+99

> <Gold.Chemscore.Hbonds>
donor molecule, donor type, donor heavy atom, donor atom, acceptor molecule, acceptor atom, score
      L1  H    10    30       P1  7948  0.62
      P1  H  7989  7998       L1    22  0.62
      P1  H  7997  8010       L1     2  0.23
      P1  H 10752 10764       L1     6  0.42

> <Gold.Chemscore.Hbond.Weighted>
-9.8924

> <Gold.Chemscore.Metal.Weighted>
-0.0000

> <Gold.Chemscore.Lipo.Weighted>
-9.5338

> <Gold.Chemscore.Internal_Hbond.Weighted>
0.0000

> <Gold.Chemscore.DEClash.Weighted>
0.3323

> <Gold.Chemscore.DEInternal.Weighted>
1.1160

> <Gold.Chemscore.Rot.Weighted>
4.7741

> <Gold.Chemscore.Internal.Correction.Weighted>
   9.000000E+99

> <Gold.Protein.RotatedTorsions>
[ 6907 6896 6895 6894 ] final -152.72 input  -60.11 | X-H torsion
[ 7974 7965 7964 7962 ] final  116.17 input  175.53 | X-H torsion
[ 8008 7997 7996 7995 ] final   45.53 input   59.86 | X-H torsion
[ 10167 10162 10161 10158 ] final -128.27 input  -65.29 | X-H torsion
[ 10718 10713 10712 10709 ] final -175.09 input   66.30 | X-H torsion
[ 10763 10752 10751 10750 ] final  -57.87 input  -60.55 | X-H torsion
[ 11005 11000 10999 10996 ] final -122.31 input  -57.11 | X-H torsion

> <Gold.Protein.ActiveResidues>
 VAL166  LYS551  ARG553  GLY616  TRP617  ASP618  TYR619  PRO620  LYS621  CYS622 
 ASP623  PHE694  ASN695  SER759  ASP760  ASP761  ALA762  ILE779  LEU786  VAL792 
 PHE793  MET794  SER795  GLU796  ALA797  LYS798  CYS799  TRP800  GLU811  SER814 

> <Gold.Protein.RotatedAtoms>
  151.2319  133.4445  159.2603 H   0  0  0  0  0  0  0  0  0  0  0  0  # atno 6907 bound_to 6896
  151.0786  134.9844  159.8355 H   0  0  0  0  0  0  0  0  0  0  0  0  # atno 6908 bound_to 6896
  152.5421  134.2260  159.8859 H   0  0  0  0  0  0  0  0  0  0  0  0  # atno 6909 bound_to 6896
  145.1829  139.3040  143.4408 H   0  0  0  0  0  0  0  0  0  0  0  0  # atno 7974 bound_to 7965
  155.3374  140.3406  155.4239 H   0  0  0  0  0  0  0  0  0  0  0  0  # atno 8008 bound_to 7997
  156.1831  140.1671  156.8273 H   0  0  0  0  0  0  0  0  0  0  0  0  # atno 8009 bound_to 7997
  154.5355  140.0736  156.8403 H   0  0  0  0  0  0  0  0  0  0  0  0  # atno 8010 bound_to 7997
  139.9521  143.6044  152.2472 H   0  0  0  0  0  0  0  0  0  0  0  0  # atno 10167 bound_to 10162
  156.7947  130.9531  151.3120 H   0  0  0  0  0  0  0  0  0  0  0  0  # atno 10718 bound_to 10713
  154.2292  135.6364  153.5169 H   0  0  0  0  0  0  0  0  0  0  0  0  # atno 10763 bound_to 10752
  152.9952  135.5515  154.6031 H   0  0  0  0  0  0  0  0  0  0  0  0  # atno 10764 bound_to 10752
  154.5510  135.2901  155.0983 H   0  0  0  0  0  0  0  0  0  0  0  0  # atno 10765 bound_to 10752
  141.0005  134.0410  157.3543 H   0  0  0  0  0  0  0  0  0  0  0  0  # atno 11005 bound_to 11000
  146.3450  140.2015  142.8589 LP  0  0  0  0  0  0  0  0  0  0  0  0  # atno 17320 bound_to 7965
  145.0118  140.8720  143.5219 LP  0  0  0  0  0  0  0  0  0  0  0  0  # atno 17321 bound_to 7965
  139.6620  144.7662  151.1944 LP  0  0  0  0  0  0  0  0  0  0  0  0  # atno 17342 bound_to 10162
  140.7580  143.5995  150.8714 LP  0  0  0  0  0  0  0  0  0  0  0  0  # atno 17343 bound_to 10162
  157.6583  130.8944  149.9775 LP  0  0  0  0  0  0  0  0  0  0  0  0  # atno 17370 bound_to 10713
  156.1137  130.3649  150.0004 LP  0  0  0  0  0  0  0  0  0  0  0  0  # atno 17371 bound_to 10713
  139.9036  135.0173  156.7384 LP  0  0  0  0  0  0  0  0  0  0  0  0  # atno 17394 bound_to 11000
  140.6897  133.9401  155.7959 LP  0  0  0  0  0  0  0  0  0  0  0  0  # atno 17395 bound_to 11000

$$$$
