AV-unprocessed.smi:3241|AV-procd|sdf|12386|dock1
  -GOLD-   2272018253D 1   1.00000     0.00000
 Structure written by MMmdl.
 44 45  0  0  0  0  0  0  0  0  2 V2000
  146.0514  143.0159  152.9009 C   0  0  0  0  0  0  0  0  0  0  0  0
  147.0780  142.5461  153.9430 C   0  0  1  0  0  0  0  0  0  0  0  0
  146.4891  142.5625  155.3676 C   0  0  0  0  0  0  0  0  0  0  0  0
  147.5359  142.1512  156.4145 C   0  0  0  0  0  0  0  0  0  0  0  0
  148.1402  140.7770  156.0895 C   0  0  0  0  0  0  0  0  0  0  0  0
  148.7215  140.7430  154.6656 C   0  0  0  0  0  0  0  0  0  0  0  0
  147.6828  141.1615  153.6082 C   0  0  1  0  0  0  0  0  0  0  0  0
  146.6536  140.1794  153.5941 O   0  0  0  0  0  0  0  0  0  0  0  0
  147.0926  138.8612  153.3047 C   0  0  0  0  0  0  0  0  0  0  0  0
  146.7874  138.5801  151.8308 C   0  0  0  0  0  0  0  0  0  0  0  0
  145.6478  137.6504  151.7174 N   0  3  0  0  0  0  0  0  0  0  0  0
  146.0175  136.2238  151.6428 C   0  0  0  0  0  0  0  0  0  0  0  0
  144.8339  135.3653  151.1676 C   0  0  0  0  0  0  0  0  0  0  0  0
  145.1562  133.9489  151.1518 N   0  0  0  0  0  0  0  0  0  0  0  0
  144.3248  132.8840  150.8753 C   0  0  0  0  0  0  0  0  0  0  0  0
  145.0761  131.7476  150.9683 C   0  0  0  0  0  0  0  0  0  0  0  0
  146.3716  132.2248  151.3124 C   0  0  0  0  0  0  0  0  0  0  0  0
  146.4170  133.5430  151.4199 N   0  0  0  0  0  0  0  0  0  0  0  0
  145.1716  142.3728  152.8867 H   0  0  0  0  0  0  0  0  0  0  0  0
  146.4813  143.0202  151.8991 H   0  0  0  0  0  0  0  0  0  0  0  0
  145.7121  144.0293  153.1171 H   0  0  0  0  0  0  0  0  0  0  0  0
  147.8963  143.2677  153.9219 H   0  0  0  0  0  0  0  0  0  0  0  0
  146.1099  143.5574  155.6037 H   0  0  0  0  0  0  0  0  0  0  0  0
  145.6349  141.8866  155.4233 H   0  0  0  0  0  0  0  0  0  0  0  0
  148.3288  142.8992  156.4512 H   0  0  0  0  0  0  0  0  0  0  0  0
  147.0827  142.1330  157.4061 H   0  0  0  0  0  0  0  0  0  0  0  0
  148.9184  140.5340  156.8135 H   0  0  0  0  0  0  0  0  0  0  0  0
  147.3740  140.0075  156.1923 H   0  0  0  0  0  0  0  0  0  0  0  0
  149.5792  141.4147  154.6128 H   0  0  0  0  0  0  0  0  0  0  0  0
  149.1013  139.7456  154.4425 H   0  0  0  0  0  0  0  0  0  0  0  0
  148.1880  141.2104  152.6412 H   0  0  0  0  0  0  0  0  0  0  0  0
  148.1609  138.7461  153.4947 H   0  0  0  0  0  0  0  0  0  0  0  0
  146.5654  138.1547  153.9471 H   0  0  0  0  0  0  0  0  0  0  0  0
  146.5430  139.5079  151.3121 H   0  0  0  0  0  0  0  0  0  0  0  0
  147.6661  138.1563  151.3430 H   0  0  0  0  0  0  0  0  0  0  0  0
  145.0643  137.7745  152.5333 H   0  0  0  0  0  0  0  0  0  0  0  0
  146.8570  136.1111  150.9560 H   0  0  0  0  0  0  0  0  0  0  0  0
  146.3550  135.8808  152.6219 H   0  0  0  0  0  0  0  0  0  0  0  0
  143.9605  135.5265  151.8017 H   0  0  0  0  0  0  0  0  0  0  0  0
  144.5447  135.6600  150.1582 H   0  0  0  0  0  0  0  0  0  0  0  0
  143.2805  133.0217  150.6354 H   0  0  0  0  0  0  0  0  0  0  0  0
  144.7497  130.7298  150.8140 H   0  0  0  0  0  0  0  0  0  0  0  0
  147.2747  131.6568  151.4821 H   0  0  0  0  0  0  0  0  0  0  0  0
  145.1062  137.8923  150.9000 H   0  0  0  0  0  0  0  0  0  0  0  0
  1  2  1  0  0  0  0
  1 19  1  0  0  0  0
  1 20  1  0  0  0  0
  1 21  1  0  0  0  0
  2  7  1  0  0  0  0
  2  3  1  0  0  0  0
  2 22  1  0  0  0  0
  3  4  1  0  0  0  0
  3 23  1  0  0  0  0
  3 24  1  0  0  0  0
  4  5  1  0  0  0  0
  4 25  1  0  0  0  0
  4 26  1  0  0  0  0
  5  6  1  0  0  0  0
  5 27  1  0  0  0  0
  5 28  1  0  0  0  0
  6  7  1  0  0  0  0
  6 29  1  0  0  0  0
  6 30  1  0  0  0  0
  7  8  1  0  0  0  0
  7 31  1  0  0  0  0
  8  9  1  0  0  0  0
  9 10  1  0  0  0  0
  9 32  1  0  0  0  0
  9 33  1  0  0  0  0
 10 11  1  0  0  0  0
 10 34  1  0  0  0  0
 10 35  1  0  0  0  0
 11 12  1  0  0  0  0
 11 36  1  0  0  0  0
 11 44  1  0  0  0  0
 12 13  1  0  0  0  0
 12 37  1  0  0  0  0
 12 38  1  0  0  0  0
 13 14  1  0  0  0  0
 13 39  1  0  0  0  0
 13 40  1  0  0  0  0
 14 18  1  0  0  0  0
 14 15  1  0  0  0  0
 15 16  2  0  0  0  0
 15 41  1  0  0  0  0
 16 17  1  0  0  0  0
 16 42  1  0  0  0  0
 17 18  2  0  0  0  0
 17 43  1  0  0  0  0
M  CHG  1  11   1
M  END
> <s_m_source_file>
AV-unprocessed.smi

> <i_m_source_file_index>
3241

> <i_lp_mmshare_version>
43012

> <i_f3d_flags>
0

> <s_epik_input>
W0NIM11bQ0BASF0xW0NIMl1bQ0gyXVtDSDJdW0NIMl1bQ0BIXTFPW0NIMl1bQ0gyXVtOSF1bQ0gyXVtDSDJdbjJbY0hdW2NIXVtjSF1uMg==

> <s_epik_cmdline>
J2VwaWtfcHl0aG9uJywgJy1waCcsICc3LjAnLCAnLXRuJywgJzgnLCAnLW1hJywgJzIwMCcsICctbWV0YWxfYmluZGluZycsICctaW1hZScsICc8aW5maWxlLm1hZT4nLCAnLW9tYWUnLCAnPG91dGZpbGUubWFlPic=

> <r_lp_tautomer_probability>
1

> <r_epik_Ionization_Penalty>
0.00924946

> <r_epik_Ionization_Penalty_Charging>
0.00924645

> <r_epik_Ionization_Penalty_Neutral>
3.00629e-06

> <r_epik_State_Penalty>
0.0070118

> <r_epik_Charging_Adjusted_Penalty>
0.0162583

> <i_epik_Tot_Q>
1

> <i_epik_Tot_abs_Q>
1

> <r_epik_Metal_State_Penalty>
0.00702523

> <b_epik_Metal_Only>
0

> <s_lp_Force_Field>
OPLS_2005

> <r_lp_Energy>
14.1188

> <b_lp_Chiralities_Consistent>
1

> <s_lp_Variant>
AV-unprocessed.smi:3241-2

> <Gold.Version>
5.8.1

> <Gold.Id.Protein>
6NUR|6NUR_protein|mol2

> <Gold.PLP.Fitness>
46.4359

> <Gold.PLP.PLP>
-39.0081

> <Gold.PLP.part.hbond>
-1.2573

> <Gold.PLP.part.metal>
0.0000

> <Gold.PLP.part.buried>
-3.5092

> <Gold.PLP.part.nonpolar>
-35.9601

> <Gold.PLP.part.repulsive>
0.9331

> <Gold.PLP.ligand.clash>
0.0000

> <Gold.PLP.ligand.torsion>
0.9070

> <Gold.PLP.Chemscore.Hbond>
1.0000

> <Gold.PLP.Chemscore.CHOScore>
2.0000

> <Gold.PLP.Chemscore.Metal>
0.0000

> <Gold.Chemscore.Hbonds>
donor molecule, donor type, donor heavy atom, donor atom, acceptor molecule, acceptor atom, score
      L1  H    11    44       P1 10171  1.00
      L1  C    15    41       P1 10186  0.13
      L1  C    17    43       P1 10747  1.00

> <Gold.PLP.Chemscore.Internal.Correction>
0.2418

> <Gold.Rescore>
     Score         DG    S(hbond)    S(metal)    S(lipo)     H(rot)  DE(clash)    DE(int)     intcor
     14.24     -15.39       0.99        0.00      97.81       1.89       0.12       1.03       ----

> <Gold.Chemscore.Fitness>
14.2404

> <Gold.Chemscore.DG>
-15.3874

> <Gold.Chemscore.ZeroCoef>
-5.4800

> <Gold.Chemscore.Hbond>
0.9890

> <Gold.Chemscore.Metal>
0.0000

> <Gold.Chemscore.Lipo>
97.8129

> <Gold.Chemscore.Internal_Hbond>
0.0000

> <Gold.Chemscore.DEClash>
0.1162

> <Gold.Chemscore.DEInternal>
1.0307

> <Gold.Chemscore.Rot>
1.8906

> <Gold.Chemscore.Internal.Correction>
   9.000000E+99

> <Gold.Chemscore.Hbonds>
donor molecule, donor type, donor heavy atom, donor atom, acceptor molecule, acceptor atom, score
      L1  H    11    44       P1 10171  1.00

> <Gold.Chemscore.Hbond.Weighted>
-3.3033

> <Gold.Chemscore.Metal.Weighted>
-0.0000

> <Gold.Chemscore.Lipo.Weighted>
-11.4441

> <Gold.Chemscore.Internal_Hbond.Weighted>
0.0000

> <Gold.Chemscore.DEClash.Weighted>
0.1162

> <Gold.Chemscore.DEInternal.Weighted>
1.0307

> <Gold.Chemscore.Rot.Weighted>
4.8400

> <Gold.Chemscore.Internal.Correction.Weighted>
   9.000000E+99

> <Gold.Protein.RotatedTorsions>
[ 6907 6896 6895 6894 ] final  148.00 input  -60.11 | X-H torsion
[ 7974 7965 7964 7962 ] final  119.55 input  175.53 | X-H torsion
[ 8008 7997 7996 7995 ] final   82.93 input   59.86 | X-H torsion
[ 10167 10162 10161 10158 ] final  170.25 input  -65.29 | X-H torsion
[ 10718 10713 10712 10709 ] final -119.06 input   66.30 | X-H torsion
[ 10763 10752 10751 10750 ] final  100.39 input  -60.55 | X-H torsion
[ 11005 11000 10999 10996 ] final  -32.93 input  -57.11 | X-H torsion

> <Gold.Protein.ActiveResidues>
 VAL166  LYS551  ARG553  GLY616  TRP617  ASP618  TYR619  PRO620  LYS621  CYS622 
 ASP623  PHE694  ASN695  SER759  ASP760  ASP761  ALA762  ILE779  LEU786  VAL792 
 PHE793  MET794  SER795  GLU796  ALA797  LYS798  CYS799  TRP800  GLU811  SER814 

> <Gold.Protein.RotatedAtoms>
  152.1473  133.4500  159.4795 H   0  0  0  0  0  0  0  0  0  0  0  0  # atno 6907 bound_to 6896
  150.6892  134.2232  159.4414 H   0  0  0  0  0  0  0  0  0  0  0  0  # atno 6908 bound_to 6896
  152.0127  134.9867  160.0619 H   0  0  0  0  0  0  0  0  0  0  0  0  # atno 6909 bound_to 6896
  145.1418  139.3263  143.4612 H   0  0  0  0  0  0  0  0  0  0  0  0  # atno 7974 bound_to 7965
  155.9172  140.3423  155.6144 H   0  0  0  0  0  0  0  0  0  0  0  0  # atno 8008 bound_to 7997
  155.7317  140.0796  157.2304 H   0  0  0  0  0  0  0  0  0  0  0  0  # atno 8009 bound_to 7997
  154.4064  140.1587  156.2503 H   0  0  0  0  0  0  0  0  0  0  0  0  # atno 8010 bound_to 7997
  139.5013  144.3617  151.9818 H   0  0  0  0  0  0  0  0  0  0  0  0  # atno 10167 bound_to 10162
  156.1153  130.6281  150.9369 H   0  0  0  0  0  0  0  0  0  0  0  0  # atno 10718 bound_to 10713
  153.3133  135.4080  155.1355 H   0  0  0  0  0  0  0  0  0  0  0  0  # atno 10763 bound_to 10752
  154.8582  135.3570  154.5694 H   0  0  0  0  0  0  0  0  0  0  0  0  # atno 10764 bound_to 10752
  153.6123  135.7067  153.5400 H   0  0  0  0  0  0  0  0  0  0  0  0  # atno 10765 bound_to 10752
  140.9593  133.7174  156.1344 H   0  0  0  0  0  0  0  0  0  0  0  0  # atno 11005 bound_to 11000
  146.3504  140.1458  142.8593 LP  0  0  0  0  0  0  0  0  0  0  0  0  # atno 17320 bound_to 7965
  145.0524  140.9027  143.4987 LP  0  0  0  0  0  0  0  0  0  0  0  0  # atno 17321 bound_to 7965
  140.3053  144.3600  150.6049 LP  0  0  0  0  0  0  0  0  0  0  0  0  # atno 17342 bound_to 10162
  140.5841  143.2171  151.7374 LP  0  0  0  0  0  0  0  0  0  0  0  0  # atno 17343 bound_to 10162
  157.6336  131.0918  150.8393 LP  0  0  0  0  0  0  0  0  0  0  0  0  # atno 17370 bound_to 10713
  156.8498  130.5076  149.5313 LP  0  0  0  0  0  0  0  0  0  0  0  0  # atno 17371 bound_to 10713
  140.7491  134.4065  157.5544 LP  0  0  0  0  0  0  0  0  0  0  0  0  # atno 17394 bound_to 11000
  139.8872  134.8887  156.2538 LP  0  0  0  0  0  0  0  0  0  0  0  0  # atno 17395 bound_to 11000

$$$$
