AV-unprocessed.smi:3020|AV-procd|sdf|11497|dock7
  -GOLD-   2272016433D 1   1.00000     0.00000
 Structure written by MMmdl.
 28 29  0  0  0  0  0  0  0  0  1 V2000
  150.0639  142.1251  155.9281 O   0  0  0  0  0  0  0  0  0  0  0  0
  151.0518  141.8624  156.6139 C   0  0  0  0  0  0  0  0  0  0  0  0
  151.5518  142.8893  157.6300 C   0  0  0  0  0  0  0  0  0  0  0  0
  151.5579  142.3065  158.9245 O   0  0  0  0  0  0  0  0  0  0  0  0
  152.6249  142.7771  159.7289 C   0  0  0  0  0  0  0  0  0  0  0  0
  152.2673  144.1458  160.2670 C   0  0  0  0  0  0  0  0  0  0  0  0
  150.8881  144.7248  160.0463 C   0  0  0  0  0  0  0  0  0  0  0  0
  152.0743  145.3121  159.3246 C   0  0  0  0  0  0  0  0  0  0  0  0
  151.7385  140.7058  156.5555 N   0  0  0  0  0  0  0  0  0  0  0  0
  151.5015  139.5858  155.7167 C   0  0  0  0  0  0  0  0  0  0  0  0
  152.1945  138.4016  156.0629 C   0  0  0  0  0  0  0  0  0  0  0  0
  152.0719  137.2529  155.3613 N   0  0  0  0  0  0  0  0  0  0  0  0
  151.2441  137.2822  154.2952 C   0  0  0  0  0  0  0  0  0  0  0  0
  150.5454  138.4520  153.9357 C   0  0  0  0  0  0  0  0  0  0  0  0
  150.6728  139.5968  154.6413 N   0  0  0  0  0  0  0  0  0  0  0  0
  152.5566  143.2171  157.3582 H   0  0  0  0  0  0  0  0  0  0  0  0
  150.8961  143.7611  157.6055 H   0  0  0  0  0  0  0  0  0  0  0  0
  152.7976  142.1004  160.5669 H   0  0  0  0  0  0  0  0  0  0  0  0
  153.5467  142.8363  159.1474 H   0  0  0  0  0  0  0  0  0  0  0  0
  152.7401  144.3806  161.2190 H   0  0  0  0  0  0  0  0  0  0  0  0
  150.1810  144.1418  159.4595 H   0  0  0  0  0  0  0  0  0  0  0  0
  150.4531  145.3063  160.8568 H   0  0  0  0  0  0  0  0  0  0  0  0
  152.4296  146.2869  159.6524 H   0  0  0  0  0  0  0  0  0  0  0  0
  152.1557  145.1213  158.2562 H   0  0  0  0  0  0  0  0  0  0  0  0
  152.5286  140.6259  157.1792 H   0  0  0  0  0  0  0  0  0  0  0  0
  152.8577  138.3728  156.9153 H   0  0  0  0  0  0  0  0  0  0  0  0
  151.1381  136.3699  153.7270 H   0  0  0  0  0  0  0  0  0  0  0  0
  149.8843  138.4700  153.0820 H   0  0  0  0  0  0  0  0  0  0  0  0
  1  2  2  0  0  0  0
  2  3  1  0  0  0  0
  2  9  1  0  0  0  0
  3  4  1  0  0  0  0
  3 16  1  0  0  0  0
  3 17  1  0  0  0  0
  4  5  1  0  0  0  0
  5  6  1  0  0  0  0
  5 18  1  0  0  0  0
  5 19  1  0  0  0  0
  6  8  1  0  0  0  0
  6  7  1  0  0  0  0
  6 20  1  0  0  0  0
  7  8  1  0  0  0  0
  7 21  1  0  0  0  0
  7 22  1  0  0  0  0
  8 23  1  0  0  0  0
  8 24  1  0  0  0  0
  9 10  1  0  0  0  0
  9 25  1  0  0  0  0
 10 15  1  0  0  0  0
 10 11  2  0  0  0  0
 11 12  1  0  0  0  0
 11 26  1  0  0  0  0
 12 13  2  0  0  0  0
 13 14  1  0  0  0  0
 13 27  1  0  0  0  0
 14 15  2  0  0  0  0
 14 28  1  0  0  0  0
M  END
> <s_m_source_file>
AV-unprocessed.smi

> <i_m_source_file_index>
3020

> <i_lp_mmshare_version>
43012

> <i_f3d_flags>
0

> <s_epik_input>
W0NIMl0xW0NIMl1bQ0hdMVtDSDJdT1tDSDJdQyg9TylbTkhdYzJbY0hdbltjSF1bY0hdbjI=

> <s_epik_cmdline>
J2VwaWtfcHl0aG9uJywgJy1waCcsICc3LjAnLCAnLXRuJywgJzgnLCAnLW1hJywgJzIwMCcsICctbWV0YWxfYmluZGluZycsICctaW1hZScsICc8aW5maWxlLm1hZT4nLCAnLW9tYWUnLCAnPG91dGZpbGUubWFlPic=

> <r_lp_tautomer_probability>
1

> <r_epik_Ionization_Penalty>
2.93955e-06

> <r_epik_Ionization_Penalty_Charging>
0

> <r_epik_Ionization_Penalty_Neutral>
2.93955e-06

> <r_epik_State_Penalty>
-0

> <r_epik_Charging_Adjusted_Penalty>
0

> <i_epik_Tot_Q>
0

> <i_epik_Tot_abs_Q>
0

> <r_epik_Metal_State_Penalty>
-0

> <b_epik_Metal_Only>
0

> <s_lp_Force_Field>
OPLS_2005

> <r_lp_Energy>
21.027

> <b_lp_Chiralities_Consistent>
1

> <s_lp_Variant>
AV-unprocessed.smi:3020-1

> <Gold.Version>
5.8.1

> <Gold.Id.Protein>
6NUR|6NUR_protein|mol2

> <Gold.PLP.Fitness>
42.4459

> <Gold.PLP.PLP>
-31.0867

> <Gold.PLP.part.hbond>
-2.0000

> <Gold.PLP.part.metal>
0.0000

> <Gold.PLP.part.buried>
-4.2068

> <Gold.PLP.part.nonpolar>
-27.8315

> <Gold.PLP.part.repulsive>
1.9199

> <Gold.PLP.ligand.clash>
0.0000

> <Gold.PLP.ligand.torsion>
0.7230

> <Gold.PLP.Chemscore.Hbond>
1.4304

> <Gold.PLP.Chemscore.CHOScore>
2.6536

> <Gold.PLP.Chemscore.Metal>
0.0000

> <Gold.Chemscore.Hbonds>
donor molecule, donor type, donor heavy atom, donor atom, acceptor molecule, acceptor atom, score
      P1  H  7989  7998       L1    15  1.00
      P1  H 10752 10763       L1    12  0.56
      L1  C    13    27       P1  7949  1.00
      L1  C    14    28       P1  7948  0.57
      L1  C    14    28       P1  7957  1.00

> <Gold.PLP.Chemscore.Internal.Correction>
0.5531

> <Gold.Rescore>
     Score         DG    S(hbond)    S(metal)    S(lipo)     H(rot)  DE(clash)    DE(int)     intcor
      9.62     -12.85       0.74        0.00      80.08       1.75       1.23       1.99       ----

> <Gold.Chemscore.Fitness>
9.6249

> <Gold.Chemscore.DG>
-12.8470

> <Gold.Chemscore.ZeroCoef>
-5.4800

> <Gold.Chemscore.Hbond>
0.7409

> <Gold.Chemscore.Metal>
0.0000

> <Gold.Chemscore.Lipo>
80.0777

> <Gold.Chemscore.Internal_Hbond>
0.0000

> <Gold.Chemscore.DEClash>
1.2321

> <Gold.Chemscore.DEInternal>
1.9900

> <Gold.Chemscore.Rot>
1.7487

> <Gold.Chemscore.Internal.Correction>
   9.000000E+99

> <Gold.Chemscore.Hbonds>
donor molecule, donor type, donor heavy atom, donor atom, acceptor molecule, acceptor atom, score
      P1  H  7989  7998       L1    15  0.15
      P1  H 10752 10763       L1    12  0.05

> <Gold.Chemscore.Hbond.Weighted>
-2.4746

> <Gold.Chemscore.Metal.Weighted>
-0.0000

> <Gold.Chemscore.Lipo.Weighted>
-9.3691

> <Gold.Chemscore.Internal_Hbond.Weighted>
0.0000

> <Gold.Chemscore.DEClash.Weighted>
1.2321

> <Gold.Chemscore.DEInternal.Weighted>
1.9900

> <Gold.Chemscore.Rot.Weighted>
4.4767

> <Gold.Chemscore.Internal.Correction.Weighted>
   9.000000E+99

> <Gold.Protein.RotatedTorsions>
[ 6907 6896 6895 6894 ] final   19.47 input  -60.11 | X-H torsion
[ 7974 7965 7964 7962 ] final -174.95 input  175.53 | X-H torsion
[ 8008 7997 7996 7995 ] final  -21.58 input   59.86 | X-H torsion
[ 10167 10162 10161 10158 ] final   13.34 input  -65.29 | X-H torsion
[ 10718 10713 10712 10709 ] final  107.97 input   66.30 | X-H torsion
[ 10763 10752 10751 10750 ] final   69.27 input  -60.55 | X-H torsion
[ 11005 11000 10999 10996 ] final  160.05 input  -57.11 | X-H torsion

> <Gold.Protein.ActiveResidues>
 VAL166  LYS551  ARG553  GLY616  TRP617  ASP618  TYR619  PRO620  LYS621  CYS622 
 ASP623  PHE694  ASN695  SER759  ASP760  ASP761  ALA762  ILE779  LEU786  VAL792 
 PHE793  MET794  SER795  GLU796  ALA797  LYS798  CYS799  TRP800  GLU811  SER814 

> <Gold.Protein.RotatedAtoms>
  151.8814  135.0452  160.0488 H   0  0  0  0  0  0  0  0  0  0  0  0  # atno 6907 bound_to 6896
  152.2510  133.5210  159.5333 H   0  0  0  0  0  0  0  0  0  0  0  0  # atno 6908 bound_to 6896
  150.7084  134.0877  159.3963 H   0  0  0  0  0  0  0  0  0  0  0  0  # atno 6909 bound_to 6896
  144.7130  140.1395  143.6393 H   0  0  0  0  0  0  0  0  0  0  0  0  # atno 7974 bound_to 7965
  154.4697  140.2031  156.0027 H   0  0  0  0  0  0  0  0  0  0  0  0  # atno 8008 bound_to 7997
  156.0989  140.3247  155.7886 H   0  0  0  0  0  0  0  0  0  0  0  0  # atno 8009 bound_to 7997
  155.4831  140.0540  157.2955 H   0  0  0  0  0  0  0  0  0  0  0  0  # atno 8010 bound_to 7997
  140.6009  143.8607  150.6964 H   0  0  0  0  0  0  0  0  0  0  0  0  # atno 10167 bound_to 10162
  157.6606  131.0884  150.6235 H   0  0  0  0  0  0  0  0  0  0  0  0  # atno 10718 bound_to 10713
  153.0278  135.5217  154.7262 H   0  0  0  0  0  0  0  0  0  0  0  0  # atno 10763 bound_to 10752
  154.6303  135.2899  155.0227 H   0  0  0  0  0  0  0  0  0  0  0  0  # atno 10764 bound_to 10752
  154.1181  135.6612  153.4950 H   0  0  0  0  0  0  0  0  0  0  0  0  # atno 10765 bound_to 10752
  140.2021  134.8330  157.3030 H   0  0  0  0  0  0  0  0  0  0  0  0  # atno 11005 bound_to 11000
  145.9215  139.2548  143.1379 LP  0  0  0  0  0  0  0  0  0  0  0  0  # atno 17320 bound_to 7965
  145.9616  140.8831  143.0208 LP  0  0  0  0  0  0  0  0  0  0  0  0  # atno 17321 bound_to 7965
  140.2153  143.3851  152.1686 LP  0  0  0  0  0  0  0  0  0  0  0  0  # atno 17342 bound_to 10162
  139.5290  144.7137  151.5124 LP  0  0  0  0  0  0  0  0  0  0  0  0  # atno 17343 bound_to 10162
  156.6538  130.4493  149.5710 LP  0  0  0  0  0  0  0  0  0  0  0  0  # atno 17370 bound_to 10713
  156.2117  130.6683  151.1277 LP  0  0  0  0  0  0  0  0  0  0  0  0  # atno 17371 bound_to 10713
  140.2042  134.4217  155.7646 LP  0  0  0  0  0  0  0  0  0  0  0  0  # atno 17394 bound_to 11000
  141.2227  133.7087  156.8233 LP  0  0  0  0  0  0  0  0  0  0  0  0  # atno 17395 bound_to 11000

$$$$
