AV-unprocessed.smi:284|AV-procd|sdf|2162|dock9
  -GOLD-   2262021523D 1   1.00000     0.00000
 Structure written by MMmdl.
 60 62  0  0  0  0  0  0  0  0  1 V2000
  148.8271  133.3365  155.5295 C   0  0  0  0  0  0  0  0  0  0  0  0
  148.6855  134.8221  155.2355 C   0  0  0  0  0  0  0  0  0  0  0  0
  147.4789  135.4091  155.0611 C   0  0  0  0  0  0  0  0  0  0  0  0
  147.3080  136.7591  154.7973 N   0  0  0  0  0  0  0  0  0  0  0  0
  145.9386  137.4192  154.6948 C   0  0  1  0  0  0  0  0  0  0  0  0
  145.6424  138.0945  153.3475 C   0  0  0  0  0  0  0  0  0  0  0  0
  144.7285  137.0917  152.6429 C   0  0  1  0  0  0  0  0  0  0  0  0
  145.2399  136.7465  151.3713 O   0  0  0  0  0  0  0  0  0  0  0  0
  144.6796  135.8759  153.5859 C   0  0  2  0  0  0  0  0  0  0  0  0
  143.3237  135.1560  153.6369 C   0  0  0  0  0  0  0  0  0  0  0  0
  143.1580  134.5064  154.8794 O   0  0  0  0  0  0  0  0  0  0  0  0
  144.9670  136.4375  154.8598 O   0  0  0  0  0  0  0  0  0  0  0  0
  148.4403  137.6021  154.7938 C   0  0  0  0  0  0  0  0  0  0  0  0
  148.3194  138.8220  154.6559 O   0  0  0  0  0  0  0  0  0  0  0  0
  149.7174  137.0188  154.9543 N   0  0  0  0  0  0  0  0  0  0  0  0
  150.9009  137.9074  154.9431 C   0  0  0  0  0  0  0  0  0  0  0  0
  151.0838  138.6853  156.2559 C   0  0  0  0  0  0  0  0  0  0  0  0
  151.2144  138.0811  157.3209 O   0  0  0  0  0  0  0  0  0  0  0  0
  151.1301  140.0240  156.1271 N   0  0  0  0  0  0  0  0  0  0  0  0
  151.2504  141.0157  157.1385 C   0  0  0  0  0  0  0  0  0  0  0  0
  151.8759  140.7957  158.3876 C   0  0  0  0  0  0  0  0  0  0  0  0
  151.9338  141.8245  159.3475 C   0  0  0  0  0  0  0  0  0  0  0  0
  151.3618  143.0947  159.0904 C   0  0  0  0  0  0  0  0  0  0  0  0
  151.4012  144.2414  160.1188 C   0  0  0  0  0  0  0  0  0  0  0  0
  149.9628  144.6560  160.4941 C   0  0  0  0  0  0  0  0  0  0  0  0
  152.1259  145.5007  159.5916 C   0  0  0  0  0  0  0  0  0  0  0  0
  152.1423  143.7694  161.3866 C   0  0  0  0  0  0  0  0  0  0  0  0
  150.7246  143.2972  157.8438 C   0  0  0  0  0  0  0  0  0  0  0  0
  150.6663  142.2709  156.8826 C   0  0  0  0  0  0  0  0  0  0  0  0
  149.9027  135.6323  155.1706 C   0  0  0  0  0  0  0  0  0  0  0  0
  151.0336  135.1624  155.3100 O   0  0  0  0  0  0  0  0  0  0  0  0
  147.8626  132.8279  155.5352 H   0  0  0  0  0  0  0  0  0  0  0  0
  149.2892  133.1852  156.5058 H   0  0  0  0  0  0  0  0  0  0  0  0
  149.4514  132.8550  154.7759 H   0  0  0  0  0  0  0  0  0  0  0  0
  146.6146  134.7727  155.1552 H   0  0  0  0  0  0  0  0  0  0  0  0
  145.9056  138.1470  155.5071 H   0  0  0  0  0  0  0  0  0  0  0  0
  145.0897  139.0141  153.5423 H   0  0  0  0  0  0  0  0  0  0  0  0
  146.5482  138.3738  152.8098 H   0  0  0  0  0  0  0  0  0  0  0  0
  143.7357  137.5278  152.5249 H   0  0  0  0  0  0  0  0  0  0  0  0
  144.8490  137.3142  150.7247 H   0  0  0  0  0  0  0  0  0  0  0  0
  145.4711  135.1632  153.3471 H   0  0  0  0  0  0  0  0  0  0  0  0
  142.5135  135.8755  153.5178 H   0  0  0  0  0  0  0  0  0  0  0  0
  143.2323  134.4320  152.8265 H   0  0  0  0  0  0  0  0  0  0  0  0
  143.2333  133.5741  154.7440 H   0  0  0  0  0  0  0  0  0  0  0  0
  151.8200  137.3539  154.7465 H   0  0  0  0  0  0  0  0  0  0  0  0
  150.8369  138.6118  154.1115 H   0  0  0  0  0  0  0  0  0  0  0  0
  151.1128  140.3747  155.1805 H   0  0  0  0  0  0  0  0  0  0  0  0
  152.3065  139.8400  158.6427 H   0  0  0  0  0  0  0  0  0  0  0  0
  152.4227  141.6032  160.2832 H   0  0  0  0  0  0  0  0  0  0  0  0
  149.9619  145.4856  161.2020 H   0  0  0  0  0  0  0  0  0  0  0  0
  149.4066  143.8422  160.9593 H   0  0  0  0  0  0  0  0  0  0  0  0
  149.4028  144.9760  159.6145 H   0  0  0  0  0  0  0  0  0  0  0  0
  151.6415  145.9006  158.6999 H   0  0  0  0  0  0  0  0  0  0  0  0
  153.1690  145.2950  159.3481 H   0  0  0  0  0  0  0  0  0  0  0  0
  152.1268  146.2967  160.3372 H   0  0  0  0  0  0  0  0  0  0  0  0
  152.1989  144.5634  162.1320 H   0  0  0  0  0  0  0  0  0  0  0  0
  153.1634  143.4641  161.1551 H   0  0  0  0  0  0  0  0  0  0  0  0
  151.6461  142.9216  161.8597 H   0  0  0  0  0  0  0  0  0  0  0  0
  150.2676  144.2474  157.6121 H   0  0  0  0  0  0  0  0  0  0  0  0
  150.1704  142.4554  155.9407 H   0  0  0  0  0  0  0  0  0  0  0  0
  1  2  1  0  0  0  0
  1 32  1  0  0  0  0
  1 33  1  0  0  0  0
  1 34  1  0  0  0  0
  2 30  1  0  0  0  0
  2  3  2  0  0  0  0
  3  4  1  0  0  0  0
  3 35  1  0  0  0  0
  4  5  1  0  0  0  0
  4 13  1  0  0  0  0
  5 12  1  0  0  0  0
  5  6  1  0  0  0  0
  5 36  1  0  0  0  0
  6  7  1  0  0  0  0
  6 37  1  0  0  0  0
  6 38  1  0  0  0  0
  7  8  1  0  0  0  0
  7  9  1  0  0  0  0
  7 39  1  0  0  0  0
  8 40  1  0  0  0  0
  9 10  1  0  0  0  0
  9 12  1  0  0  0  0
  9 41  1  0  0  0  0
 10 11  1  0  0  0  0
 10 42  1  0  0  0  0
 10 43  1  0  0  0  0
 11 44  1  0  0  0  0
 13 14  2  0  0  0  0
 13 15  1  0  0  0  0
 15 16  1  0  0  0  0
 15 30  1  0  0  0  0
 16 17  1  0  0  0  0
 16 45  1  0  0  0  0
 16 46  1  0  0  0  0
 17 18  2  0  0  0  0
 17 19  1  0  0  0  0
 19 20  1  0  0  0  0
 19 47  1  0  0  0  0
 20 29  1  0  0  0  0
 20 21  2  0  0  0  0
 21 22  1  0  0  0  0
 21 48  1  0  0  0  0
 22 23  2  0  0  0  0
 22 49  1  0  0  0  0
 23 24  1  0  0  0  0
 23 28  1  0  0  0  0
 24 25  1  0  0  0  0
 24 26  1  0  0  0  0
 24 27  1  0  0  0  0
 25 50  1  0  0  0  0
 25 51  1  0  0  0  0
 25 52  1  0  0  0  0
 26 53  1  0  0  0  0
 26 54  1  0  0  0  0
 26 55  1  0  0  0  0
 27 56  1  0  0  0  0
 27 57  1  0  0  0  0
 27 58  1  0  0  0  0
 28 29  2  0  0  0  0
 28 59  1  0  0  0  0
 29 60  1  0  0  0  0
 30 31  2  0  0  0  0
M  END
> <s_m_source_file>
AV-unprocessed.smi

> <i_m_source_file_index>
284

> <i_lp_mmshare_version>
43012

> <i_f3d_flags>
0

> <s_epik_input>
W09IXVtDSDJdW0NAQEhdKE8xKVtDQEhdKFtPSF0pW0NIMl1bQ0BIXTFuKFtjSF1jMltDSDNdKWMoPU8pbihjMj1PKVtDSDJdQyg9TylbTkhdYzNbY0hdW2NIXWMoQyhbQ0gzXSkoW0NIM10pW0NIM10pW2NIXVtjSF0z

> <s_epik_cmdline>
J2VwaWtfcHl0aG9uJywgJy1waCcsICc3LjAnLCAnLXRuJywgJzgnLCAnLW1hJywgJzIwMCcsICctbWV0YWxfYmluZGluZycsICctaW1hZScsICc8aW5maWxlLm1hZT4nLCAnLW9tYWUnLCAnPG91dGZpbGUubWFlPic=

> <r_lp_tautomer_probability>
1

> <r_epik_Ionization_Penalty>
4.92358e-06

> <r_epik_Ionization_Penalty_Charging>
1.29777e-07

> <r_epik_Ionization_Penalty_Neutral>
4.79381e-06

> <r_epik_State_Penalty>
-0

> <r_epik_Charging_Adjusted_Penalty>
1.29777e-07

> <i_epik_Tot_Q>
0

> <i_epik_Tot_abs_Q>
0

> <r_epik_Metal_State_Penalty>
-0

> <b_epik_Metal_Only>
0

> <s_epik_Chemistry_Notes>
This compound contains an acetal/aminal-like group ( X-CH(R)-Y where X, Y are N, S, or O) that may be acid/base labile, releasing an aldehyde.

> <s_lp_Force_Field>
OPLS_2005

> <r_lp_Energy>
37.3947

> <b_lp_Chiralities_Consistent>
1

> <s_lp_Variant>
AV-unprocessed.smi:284-6

> <Gold.Version>
5.8.1

> <Gold.Id.Protein>
6NUR|6NUR_protein|mol2

> <Gold.PLP.Fitness>
49.4175

> <Gold.PLP.PLP>
-41.7908

> <Gold.PLP.part.hbond>
-3.0484

> <Gold.PLP.part.metal>
0.0000

> <Gold.PLP.part.buried>
-5.2116

> <Gold.PLP.part.nonpolar>
-33.5175

> <Gold.PLP.part.repulsive>
0.3412

> <Gold.PLP.ligand.clash>
0.0000

> <Gold.PLP.ligand.torsion>
0.7293

> <Gold.PLP.Chemscore.Hbond>
2.9760

> <Gold.PLP.Chemscore.CHOScore>
0.0000

> <Gold.PLP.Chemscore.Metal>
0.0000

> <Gold.Chemscore.Hbonds>
donor molecule, donor type, donor heavy atom, donor atom, acceptor molecule, acceptor atom, score
      L1  H     8    40       P1 10171  1.00
      L1  H    11    44       P1 10957  1.00
      P1  H 10752 10765       L1    31  0.92

> <Gold.PLP.Chemscore.Internal.Correction>
0.1574

> <Gold.Rescore>
     Score         DG    S(hbond)    S(metal)    S(lipo)     H(rot)  DE(clash)    DE(int)     intcor
     19.06     -20.95       2.82        0.00     123.34       3.27       0.05       1.83       ----

> <Gold.Chemscore.Fitness>
19.0648

> <Gold.Chemscore.DG>
-20.9465

> <Gold.Chemscore.ZeroCoef>
-5.4800

> <Gold.Chemscore.Hbond>
2.8189

> <Gold.Chemscore.Metal>
0.0000

> <Gold.Chemscore.Lipo>
123.3447

> <Gold.Chemscore.Internal_Hbond>
0.0000

> <Gold.Chemscore.DEClash>
0.0534

> <Gold.Chemscore.DEInternal>
1.8283

> <Gold.Chemscore.Rot>
3.2735

> <Gold.Chemscore.Internal.Correction>
   9.000000E+99

> <Gold.Chemscore.Hbonds>
donor molecule, donor type, donor heavy atom, donor atom, acceptor molecule, acceptor atom, score
      L1  H     8    40       P1 10171  1.00
      L1  H    11    44       P1 10957  0.98
      P1  H 10752 10765       L1    31  0.84

> <Gold.Chemscore.Hbond.Weighted>
-9.4153

> <Gold.Chemscore.Metal.Weighted>
-0.0000

> <Gold.Chemscore.Lipo.Weighted>
-14.4313

> <Gold.Chemscore.Internal_Hbond.Weighted>
0.0000

> <Gold.Chemscore.DEClash.Weighted>
0.0534

> <Gold.Chemscore.DEInternal.Weighted>
1.8283

> <Gold.Chemscore.Rot.Weighted>
8.3801

> <Gold.Chemscore.Internal.Correction.Weighted>
   9.000000E+99

> <Gold.Protein.RotatedTorsions>
[ 6907 6896 6895 6894 ] final   11.52 input  -60.11 | X-H torsion
[ 7974 7965 7964 7962 ] final  150.09 input  175.53 | X-H torsion
[ 8008 7997 7996 7995 ] final   61.18 input   59.86 | X-H torsion
[ 10167 10162 10161 10158 ] final  -28.71 input  -65.29 | X-H torsion
[ 10718 10713 10712 10709 ] final  -72.83 input   66.30 | X-H torsion
[ 10763 10752 10751 10750 ] final -171.83 input  -60.55 | X-H torsion
[ 11005 11000 10999 10996 ] final  -76.14 input  -57.11 | X-H torsion

> <Gold.Protein.ActiveResidues>
 VAL166  LYS551  ARG553  GLY616  TRP617  ASP618  TYR619  PRO620  LYS621  CYS622 
 ASP623  PHE694  ASN695  SER759  ASP760  ASP761  ALA762  ILE779  LEU786  VAL792 
 PHE793  MET794  SER795  GLU796  ALA797  LYS798  CYS799  TRP800  GLU811  SER814 

> <Gold.Protein.RotatedAtoms>
  151.7557  135.0822  160.0337 H   0  0  0  0  0  0  0  0  0  0  0  0  # atno 6907 bound_to 6896
  152.3387  133.6037  159.5869 H   0  0  0  0  0  0  0  0  0  0  0  0  # atno 6908 bound_to 6896
  150.7466  133.9672  159.3576 H   0  0  0  0  0  0  0  0  0  0  0  0  # atno 6909 bound_to 6896
  144.8389  139.6364  143.6025 H   0  0  0  0  0  0  0  0  0  0  0  0  # atno 7974 bound_to 7965
  155.5942  140.3493  155.4575 H   0  0  0  0  0  0  0  0  0  0  0  0  # atno 8008 bound_to 7997
  156.0278  140.1267  157.0315 H   0  0  0  0  0  0  0  0  0  0  0  0  # atno 8009 bound_to 7997
  154.4340  140.1049  156.6041 H   0  0  0  0  0  0  0  0  0  0  0  0  # atno 8010 bound_to 7997
  140.7267  143.3988  151.1301 H   0  0  0  0  0  0  0  0  0  0  0  0  # atno 10167 bound_to 10162
  156.0304  130.4380  150.2651 H   0  0  0  0  0  0  0  0  0  0  0  0  # atno 10718 bound_to 10713
  154.6261  135.2881  155.0270 H   0  0  0  0  0  0  0  0  0  0  0  0  # atno 10763 bound_to 10752
  154.1448  135.6513  153.4954 H   0  0  0  0  0  0  0  0  0  0  0  0  # atno 10764 bound_to 10752
  153.0258  135.5341  154.7070 H   0  0  0  0  0  0  0  0  0  0  0  0  # atno 10765 bound_to 10752
  141.1651  133.6972  156.7623 H   0  0  0  0  0  0  0  0  0  0  0  0  # atno 11005 bound_to 11000
  146.2685  139.6577  142.9313 LP  0  0  0  0  0  0  0  0  0  0  0  0  # atno 17320 bound_to 7965
  145.4735  141.0436  143.2685 LP  0  0  0  0  0  0  0  0  0  0  0  0  # atno 17321 bound_to 7965
  139.7605  143.8643  152.3099 LP  0  0  0  0  0  0  0  0  0  0  0  0  # atno 17342 bound_to 10162
  139.8527  144.7156  150.9194 LP  0  0  0  0  0  0  0  0  0  0  0  0  # atno 17343 bound_to 10162
  157.0753  131.0128  151.3176 LP  0  0  0  0  0  0  0  0  0  0  0  0  # atno 17370 bound_to 10713
  157.4968  130.7855  149.7564 LP  0  0  0  0  0  0  0  0  0  0  0  0  # atno 17371 bound_to 10713
  140.2525  134.8530  157.3681 LP  0  0  0  0  0  0  0  0  0  0  0  0  # atno 17394 bound_to 11000
  140.1689  134.4633  155.7844 LP  0  0  0  0  0  0  0  0  0  0  0  0  # atno 17395 bound_to 11000

$$$$
