AV-unprocessed.smi:2824|AV-procd|sdf|10887|dock8
  -GOLD-   2272015333D 1   1.00000     0.00000
 Structure written by MMmdl.
 38 39  0  0  0  0  0  0  0  0  1 V2000
  154.2397  140.8288  159.8778 C   0  0  0  0  0  0  0  0  0  0  0  0
  153.7109  141.8320  160.8859 C   0  0  0  0  0  0  0  0  0  0  0  0
  154.0084  141.6665  162.2551 C   0  0  0  0  0  0  0  0  0  0  0  0
  153.5267  142.5882  163.2021 C   0  0  0  0  0  0  0  0  0  0  0  0
  152.7464  143.6797  162.7814 C   0  0  0  0  0  0  0  0  0  0  0  0
  152.4469  143.8498  161.4161 C   0  0  0  0  0  0  0  0  0  0  0  0
  152.9262  142.9263  160.4519 C   0  0  0  0  0  0  0  0  0  0  0  0
  152.6736  143.0304  159.0994 O   0  0  0  0  0  0  0  0  0  0  0  0
  151.5761  143.8260  158.6719 C   0  0  0  0  0  0  0  0  0  0  0  0
  150.8260  143.0768  157.5578 C   0  0  1  0  0  0  0  0  0  0  0  0
  151.1727  143.6908  156.3313 O   0  0  0  0  0  0  0  0  0  0  0  0
  151.2456  141.5921  157.4813 C   0  0  0  0  0  0  0  0  0  0  0  0
  150.6426  140.9065  156.3318 N   0  0  0  0  0  0  0  0  0  0  0  0
  149.3439  141.3004  156.0605 N   0  0  0  0  0  0  0  0  0  0  0  0
  148.6718  140.7777  155.0859 C   0  0  0  0  0  0  0  0  0  0  0  0
  147.2601  141.2664  154.8753 C   0  0  0  0  0  0  0  0  0  0  0  0
  146.5132  140.3360  154.2803 F   0  0  0  0  0  0  0  0  0  0  0  0
  146.7020  141.5717  156.0471 F   0  0  0  0  0  0  0  0  0  0  0  0
  147.2629  142.3596  154.1115 F   0  0  0  0  0  0  0  0  0  0  0  0
  149.3024  139.7626  154.2583 C   0  0  0  0  0  0  0  0  0  0  0  0
  150.5701  139.3811  154.5241 C   0  0  0  0  0  0  0  0  0  0  0  0
  151.3318  139.9620  155.6271 C   0  0  0  0  0  0  0  0  0  0  0  0
  152.4850  139.6299  155.8999 O   0  0  0  0  0  0  0  0  0  0  0  0
  154.7847  140.0205  160.3660 H   0  0  0  0  0  0  0  0  0  0  0  0
  154.9152  141.3186  159.1762 H   0  0  0  0  0  0  0  0  0  0  0  0
  153.4175  140.3889  159.3128 H   0  0  0  0  0  0  0  0  0  0  0  0
  154.6082  140.8311  162.5855 H   0  0  0  0  0  0  0  0  0  0  0  0
  153.7565  142.4583  164.2493 H   0  0  0  0  0  0  0  0  0  0  0  0
  152.3766  144.3895  163.5066 H   0  0  0  0  0  0  0  0  0  0  0  0
  151.8464  144.7011  161.1346 H   0  0  0  0  0  0  0  0  0  0  0  0
  150.9051  144.0682  159.4983 H   0  0  0  0  0  0  0  0  0  0  0  0
  151.9711  144.7632  158.2763 H   0  0  0  0  0  0  0  0  0  0  0  0
  149.7513  143.1604  157.7248 H   0  0  0  0  0  0  0  0  0  0  0  0
  150.4290  144.1838  156.0205 H   0  0  0  0  0  0  0  0  0  0  0  0
  152.3337  141.5018  157.4631 H   0  0  0  0  0  0  0  0  0  0  0  0
  150.9394  141.0725  158.3912 H   0  0  0  0  0  0  0  0  0  0  0  0
  148.7581  139.3188  153.4381 H   0  0  0  0  0  0  0  0  0  0  0  0
  151.0347  138.6266  153.9065 H   0  0  0  0  0  0  0  0  0  0  0  0
  1  2  1  0  0  0  0
  1 24  1  0  0  0  0
  1 25  1  0  0  0  0
  1 26  1  0  0  0  0
  2  7  1  0  0  0  0
  2  3  2  0  0  0  0
  3  4  1  0  0  0  0
  3 27  1  0  0  0  0
  4  5  2  0  0  0  0
  4 28  1  0  0  0  0
  5  6  1  0  0  0  0
  5 29  1  0  0  0  0
  6  7  2  0  0  0  0
  6 30  1  0  0  0  0
  7  8  1  0  0  0  0
  8  9  1  0  0  0  0
  9 10  1  0  0  0  0
  9 31  1  0  0  0  0
  9 32  1  0  0  0  0
 10 11  1  0  0  0  0
 10 12  1  0  0  0  0
 10 33  1  0  0  0  0
 11 34  1  0  0  0  0
 12 13  1  0  0  0  0
 12 35  1  0  0  0  0
 12 36  1  0  0  0  0
 13 22  1  0  0  0  0
 13 14  1  0  0  0  0
 14 15  2  0  0  0  0
 15 16  1  0  0  0  0
 15 20  1  0  0  0  0
 16 17  1  0  0  0  0
 16 18  1  0  0  0  0
 16 19  1  0  0  0  0
 20 21  2  0  0  0  0
 20 37  1  0  0  0  0
 21 22  1  0  0  0  0
 21 38  1  0  0  0  0
 22 23  2  0  0  0  0
M  END
> <s_m_source_file>
AV-unprocessed.smi

> <i_m_source_file_index>
2824

> <i_lp_mmshare_version>
43012

> <i_f3d_flags>
0

> <s_epik_input>
W0NIM11jMVtjSF1bY0hdW2NIXVtjSF1jMU9bQ0gyXVtDQEhdKFtPSF0pW0NIMl1uMm5jKEMoRikoRilGKVtjSF1bY0hdYzI9Tw==

> <s_epik_cmdline>
J2VwaWtfcHl0aG9uJywgJy1waCcsICc3LjAnLCAnLXRuJywgJzgnLCAnLW1hJywgJzIwMCcsICctbWV0YWxfYmluZGluZycsICctaW1hZScsICc8aW5maWxlLm1hZT4nLCAnLW9tYWUnLCAnPG91dGZpbGUubWFlPic=

> <r_lp_tautomer_probability>
1

> <r_epik_Ionization_Penalty>
1.2156e-07

> <r_epik_Ionization_Penalty_Charging>
4.38548e-09

> <r_epik_Ionization_Penalty_Neutral>
1.17174e-07

> <r_epik_State_Penalty>
-0

> <r_epik_Charging_Adjusted_Penalty>
4.38548e-09

> <i_epik_Tot_Q>
0

> <i_epik_Tot_abs_Q>
0

> <r_epik_Metal_State_Penalty>
-0

> <b_epik_Metal_Only>
0

> <s_lp_Force_Field>
OPLS_2005

> <r_lp_Energy>
34.0789

> <b_lp_Chiralities_Consistent>
1

> <s_lp_Variant>
AV-unprocessed.smi:2824-2

> <Gold.Version>
5.8.1

> <Gold.Id.Protein>
6NUR|6NUR_protein|mol2

> <Gold.PLP.Fitness>
53.4084

> <Gold.PLP.PLP>
-52.6447

> <Gold.PLP.part.hbond>
-2.0000

> <Gold.PLP.part.metal>
0.0000

> <Gold.PLP.part.buried>
-0.9822

> <Gold.PLP.part.nonpolar>
-49.2099

> <Gold.PLP.part.repulsive>
0.0785

> <Gold.PLP.ligand.clash>
0.0000

> <Gold.PLP.ligand.torsion>
2.6356

> <Gold.PLP.Chemscore.Hbond>
2.0000

> <Gold.PLP.Chemscore.CHOScore>
0.0000

> <Gold.PLP.Chemscore.Metal>
0.0000

> <Gold.Chemscore.Hbonds>
donor molecule, donor type, donor heavy atom, donor atom, acceptor molecule, acceptor atom, score
      L1  H    11    34       P1  8028  1.00
      P1  H  7997  8008       L1    23  1.00

> <Gold.PLP.Chemscore.Internal.Correction>
0.0348

> <Gold.Rescore>
     Score         DG    S(hbond)    S(metal)    S(lipo)     H(rot)  DE(clash)    DE(int)     intcor
     17.73     -21.08       2.00        0.00     133.16       2.60       0.78       2.56       ----

> <Gold.Chemscore.Fitness>
17.7286

> <Gold.Chemscore.DG>
-21.0753

> <Gold.Chemscore.ZeroCoef>
-5.4800

> <Gold.Chemscore.Hbond>
1.9956

> <Gold.Chemscore.Metal>
0.0000

> <Gold.Chemscore.Lipo>
133.1648

> <Gold.Chemscore.Internal_Hbond>
0.0000

> <Gold.Chemscore.DEClash>
0.7846

> <Gold.Chemscore.DEInternal>
2.5620

> <Gold.Chemscore.Rot>
2.5978

> <Gold.Chemscore.Internal.Correction>
   9.000000E+99

> <Gold.Chemscore.Hbonds>
donor molecule, donor type, donor heavy atom, donor atom, acceptor molecule, acceptor atom, score
      L1  H    11    34       P1  8028  1.00
      P1  H  7997  8008       L1    23  0.99

> <Gold.Chemscore.Hbond.Weighted>
-6.6654

> <Gold.Chemscore.Metal.Weighted>
-0.0000

> <Gold.Chemscore.Lipo.Weighted>
-15.5803

> <Gold.Chemscore.Internal_Hbond.Weighted>
0.0000

> <Gold.Chemscore.DEClash.Weighted>
0.7846

> <Gold.Chemscore.DEInternal.Weighted>
2.5620

> <Gold.Chemscore.Rot.Weighted>
6.6504

> <Gold.Chemscore.Internal.Correction.Weighted>
   9.000000E+99

> <Gold.Protein.RotatedTorsions>
[ 6907 6896 6895 6894 ] final   13.94 input  -60.11 | X-H torsion
[ 7974 7965 7964 7962 ] final   32.18 input  175.53 | X-H torsion
[ 8008 7997 7996 7995 ] final  -35.63 input   59.86 | X-H torsion
[ 10167 10162 10161 10158 ] final   76.21 input  -65.29 | X-H torsion
[ 10718 10713 10712 10709 ] final   78.93 input   66.30 | X-H torsion
[ 10763 10752 10751 10750 ] final   48.56 input  -60.55 | X-H torsion
[ 11005 11000 10999 10996 ] final   54.04 input  -57.11 | X-H torsion

> <Gold.Protein.ActiveResidues>
 VAL166  LYS551  ARG553  GLY616  TRP617  ASP618  TYR619  PRO620  LYS621  CYS622 
 ASP623  PHE694  ASN695  SER759  ASP760  ASP761  ALA762  ILE779  LEU786  VAL792 
 PHE793  MET794  SER795  GLU796  ALA797  LYS798  CYS799  TRP800  GLU811  SER814 

> <Gold.Protein.RotatedAtoms>
  151.7943  135.0727  160.0391 H   0  0  0  0  0  0  0  0  0  0  0  0  # atno 6907 bound_to 6896
  152.3134  133.5772  159.5704 H   0  0  0  0  0  0  0  0  0  0  0  0  # atno 6908 bound_to 6896
  150.7332  134.0034  159.3688 H   0  0  0  0  0  0  0  0  0  0  0  0  # atno 6909 bound_to 6896
  146.1503  139.6559  142.9103 H   0  0  0  0  0  0  0  0  0  0  0  0  # atno 7974 bound_to 7965
  154.4091  140.1652  156.2243 H   0  0  0  0  0  0  0  0  0  0  0  0  # atno 8008 bound_to 7997
  155.9337  140.3413  155.6247 H   0  0  0  0  0  0  0  0  0  0  0  0  # atno 8009 bound_to 7997
  155.7075  140.0752  157.2375 H   0  0  0  0  0  0  0  0  0  0  0  0  # atno 8010 bound_to 7997
  139.9947  144.5731  150.7788 H   0  0  0  0  0  0  0  0  0  0  0  0  # atno 10167 bound_to 10162
  157.6760  130.9891  150.1858 H   0  0  0  0  0  0  0  0  0  0  0  0  # atno 10718 bound_to 10713
  152.9791  135.5940  154.3946 H   0  0  0  0  0  0  0  0  0  0  0  0  # atno 10763 bound_to 10752
  154.3597  135.2767  155.2328 H   0  0  0  0  0  0  0  0  0  0  0  0  # atno 10764 bound_to 10752
  154.4331  135.6031  153.6136 H   0  0  0  0  0  0  0  0  0  0  0  0  # atno 10765 bound_to 10752
  140.0718  134.5459  155.9038 H   0  0  0  0  0  0  0  0  0  0  0  0  # atno 11005 bound_to 11000
  145.4840  141.0438  143.2630 LP  0  0  0  0  0  0  0  0  0  0  0  0  # atno 17320 bound_to 7965
  144.7895  139.6357  143.7119 LP  0  0  0  0  0  0  0  0  0  0  0  0  # atno 17321 bound_to 7965
  140.7441  143.2856  151.3472 LP  0  0  0  0  0  0  0  0  0  0  0  0  # atno 17342 bound_to 10162
  139.6314  144.0713  152.2480 LP  0  0  0  0  0  0  0  0  0  0  0  0  # atno 17343 bound_to 10162
  156.2580  130.3707  149.8161 LP  0  0  0  0  0  0  0  0  0  0  0  0  # atno 17370 bound_to 10713
  156.5914  130.8508  151.3409 LP  0  0  0  0  0  0  0  0  0  0  0  0  # atno 17371 bound_to 10713
  141.2014  133.6619  156.5952 LP  0  0  0  0  0  0  0  0  0  0  0  0  # atno 17394 bound_to 11000
  140.3616  134.7683  157.4537 LP  0  0  0  0  0  0  0  0  0  0  0  0  # atno 17395 bound_to 11000

$$$$
