AV-unprocessed.smi:2489|AV-procd|sdf|9806|dock1
  -GOLD-   2272013443D 1   1.00000     0.00000
 Structure written by MMmdl.
 34 35  0  0  0  0  0  0  0  0  2 V2000
  151.5035  144.9204  162.9121 C   0  0  0  0  0  0  0  0  0  0  0  0
  150.5183  144.1632  162.2244 O   0  0  0  0  0  0  0  0  0  0  0  0
  150.4297  144.3072  160.8569 C   0  0  0  0  0  0  0  0  0  0  0  0
  151.5227  144.6311  160.0138 C   0  0  0  0  0  0  0  0  0  0  0  0
  151.3084  144.7635  158.6285 C   0  0  0  0  0  0  0  0  0  0  0  0
  150.0743  144.5754  158.1154 N   0  3  0  0  0  0  0  0  0  0  0  0
  148.9970  144.2498  158.8646 C   0  0  0  0  0  0  0  0  0  0  0  0
  147.7574  144.0971  158.1873 N   0  0  0  0  0  0  0  0  0  0  0  0
  146.5979  143.6084  158.6647 C   0  0  0  0  0  0  0  0  0  0  0  0
  146.4363  143.2016  159.8159 O   0  0  0  0  0  0  0  0  0  0  0  0
  145.4335  143.5785  157.6608 C   0  0  1  0  0  0  0  0  0  0  0  0
  144.2621  144.5192  158.0125 C   0  0  0  0  0  0  0  0  0  0  0  0
  144.1914  145.4863  156.8422 C   0  0  0  0  0  0  0  0  0  0  0  0
  145.5900  145.4048  156.2401 C   0  0  2  0  0  0  0  0  0  0  0  0
  145.6643  145.8145  154.7656 C   0  0  0  0  0  0  0  0  0  0  0  0
  145.9120  144.0300  156.3956 O   0  0  0  0  0  0  0  0  0  0  0  0
  149.1607  144.1220  160.2669 C   0  0  0  0  0  0  0  0  0  0  0  0
  151.4497  144.6969  163.9775 H   0  0  0  0  0  0  0  0  0  0  0  0
  151.3387  145.9919  162.7913 H   0  0  0  0  0  0  0  0  0  0  0  0
  152.5094  144.6685  162.5731 H   0  0  0  0  0  0  0  0  0  0  0  0
  152.5185  144.7853  160.4013 H   0  0  0  0  0  0  0  0  0  0  0  0
  152.0841  145.0133  157.9191 H   0  0  0  0  0  0  0  0  0  0  0  0
  147.7671  144.3235  157.2033 H   0  0  0  0  0  0  0  0  0  0  0  0
  145.0725  142.5550  157.5467 H   0  0  0  0  0  0  0  0  0  0  0  0
  143.3255  143.9720  158.1242 H   0  0  0  0  0  0  0  0  0  0  0  0
  144.4249  145.0638  158.9435 H   0  0  0  0  0  0  0  0  0  0  0  0
  143.4504  145.1345  156.1231 H   0  0  0  0  0  0  0  0  0  0  0  0
  143.9173  146.4982  157.1415 H   0  0  0  0  0  0  0  0  0  0  0  0
  146.2855  146.0044  156.8297 H   0  0  0  0  0  0  0  0  0  0  0  0
  145.3825  146.8596  154.6359 H   0  0  0  0  0  0  0  0  0  0  0  0
  144.9977  145.2081  154.1516 H   0  0  0  0  0  0  0  0  0  0  0  0
  146.6761  145.6921  154.3787 H   0  0  0  0  0  0  0  0  0  0  0  0
  148.3251  143.8949  160.9113 H   0  0  0  0  0  0  0  0  0  0  0  0
  149.9532  144.6790  157.1076 H   0  0  0  0  0  0  0  0  0  0  0  0
  1  2  1  0  0  0  0
  1 18  1  0  0  0  0
  1 19  1  0  0  0  0
  1 20  1  0  0  0  0
  2  3  1  0  0  0  0
  3 17  1  0  0  0  0
  3  4  2  0  0  0  0
  4  5  1  0  0  0  0
  4 21  1  0  0  0  0
  5  6  2  0  0  0  0
  5 22  1  0  0  0  0
  6  7  1  0  0  0  0
  6 34  1  0  0  0  0
  7  8  1  0  0  0  0
  7 17  2  0  0  0  0
  8  9  1  0  0  0  0
  8 23  1  0  0  0  0
  9 10  2  0  0  0  0
  9 11  1  0  0  0  0
 11 16  1  0  0  0  0
 11 12  1  0  0  0  0
 11 24  1  0  0  0  0
 12 13  1  0  0  0  0
 12 25  1  0  0  0  0
 12 26  1  0  0  0  0
 13 14  1  0  0  0  0
 13 27  1  0  0  0  0
 13 28  1  0  0  0  0
 14 15  1  0  0  0  0
 14 16  1  0  0  0  0
 14 29  1  0  0  0  0
 15 30  1  0  0  0  0
 15 31  1  0  0  0  0
 15 32  1  0  0  0  0
 17 33  1  0  0  0  0
M  CHG  1   6   1
M  END
> <s_m_source_file>
AV-unprocessed.smi

> <i_m_source_file_index>
2489

> <i_lp_mmshare_version>
43012

> <i_f3d_flags>
0

> <s_epik_input>
W0NIM11PYzFbY0hdW2NIXW5jKFtjSF0xKVtOSF1DKD1PKVtDQEBIXTJbQ0gyXVtDSDJdW0NASF0oTzIpW0NIM10=

> <s_epik_cmdline>
J2VwaWtfcHl0aG9uJywgJy1waCcsICc3LjAnLCAnLXRuJywgJzgnLCAnLW1hJywgJzIwMCcsICctbWV0YWxfYmluZGluZycsICctaW1hZScsICc8aW5maWxlLm1hZT4nLCAnLW9tYWUnLCAnPG91dGZpbGUubWFlPic=

> <r_epik_Ionization_Penalty>
1.58956

> <r_epik_Ionization_Penalty_Charging>
1.1784

> <r_epik_Ionization_Penalty_Neutral>
0.411158

> <r_epik_State_Penalty>
1.31089

> <r_epik_Charging_Adjusted_Penalty>
2.48928

> <i_epik_Tot_Q>
1

> <i_epik_Tot_abs_Q>
1

> <r_epik_Metal_State_Penalty>
5.00213

> <b_epik_Metal_Only>
0

> <s_lp_Force_Field>
OPLS_2005

> <r_lp_Energy>
33.2408

> <b_lp_Chiralities_Consistent>
1

> <s_lp_Variant>
AV-unprocessed.smi:2489-12

> <Gold.Version>
5.8.1

> <Gold.Id.Protein>
6NUR|6NUR_protein|mol2

> <Gold.PLP.Fitness>
49.0485

> <Gold.PLP.PLP>
-39.8143

> <Gold.PLP.part.hbond>
-3.0000

> <Gold.PLP.part.metal>
0.0000

> <Gold.PLP.part.buried>
-4.7164

> <Gold.PLP.part.nonpolar>
-32.0870

> <Gold.PLP.part.repulsive>
0.3317

> <Gold.PLP.ligand.clash>
0.0000

> <Gold.PLP.ligand.torsion>
0.4456

> <Gold.PLP.Chemscore.Hbond>
3.3696

> <Gold.PLP.Chemscore.CHOScore>
0.0000

> <Gold.PLP.Chemscore.Metal>
0.0000

> <Gold.Chemscore.Hbonds>
donor molecule, donor type, donor heavy atom, donor atom, acceptor molecule, acceptor atom, score
      L1  H     6    34       P1  8028  2.00
      P1  H  6933  6945       L1     2  0.01

> <Gold.PLP.Chemscore.Internal.Correction>
0.0167

> <Gold.Rescore>
     Score         DG    S(hbond)    S(metal)    S(lipo)     H(rot)  DE(clash)    DE(int)     intcor
     16.51     -18.30       1.77        0.00      86.03       1.24       0.01       1.78       ----

> <Gold.Chemscore.Fitness>
16.5114

> <Gold.Chemscore.DG>
-18.2953

> <Gold.Chemscore.ZeroCoef>
-5.4800

> <Gold.Chemscore.Hbond>
1.7743

> <Gold.Chemscore.Metal>
0.0000

> <Gold.Chemscore.Lipo>
86.0320

> <Gold.Chemscore.Internal_Hbond>
0.0000

> <Gold.Chemscore.DEClash>
0.0089

> <Gold.Chemscore.DEInternal>
1.7750

> <Gold.Chemscore.Rot>
1.2409

> <Gold.Chemscore.Internal.Correction>
   9.000000E+99

> <Gold.Chemscore.Hbonds>
donor molecule, donor type, donor heavy atom, donor atom, acceptor molecule, acceptor atom, score
      L1  H     6    34       P1  8028  0.24

> <Gold.Chemscore.Hbond.Weighted>
-5.9262

> <Gold.Chemscore.Metal.Weighted>
-0.0000

> <Gold.Chemscore.Lipo.Weighted>
-10.0657

> <Gold.Chemscore.Internal_Hbond.Weighted>
0.0000

> <Gold.Chemscore.DEClash.Weighted>
0.0089

> <Gold.Chemscore.DEInternal.Weighted>
1.7750

> <Gold.Chemscore.Rot.Weighted>
3.1767

> <Gold.Chemscore.Internal.Correction.Weighted>
   9.000000E+99

> <Gold.Protein.RotatedTorsions>
[ 6907 6896 6895 6894 ] final  106.01 input  -60.11 | X-H torsion
[ 7974 7965 7964 7962 ] final -124.24 input  175.53 | X-H torsion
[ 8008 7997 7996 7995 ] final  -94.84 input   59.86 | X-H torsion
[ 10167 10162 10161 10158 ] final  -57.21 input  -65.29 | X-H torsion
[ 10718 10713 10712 10709 ] final  -12.50 input   66.30 | X-H torsion
[ 10763 10752 10751 10750 ] final  170.35 input  -60.55 | X-H torsion
[ 11005 11000 10999 10996 ] final   -9.21 input  -57.11 | X-H torsion

> <Gold.Protein.ActiveResidues>
 VAL166  LYS551  ARG553  GLY616  TRP617  ASP618  TYR619  PRO620  LYS621  CYS622 
 ASP623  PHE694  ASN695  SER759  ASP760  ASP761  ALA762  ILE779  LEU786  VAL792 
 PHE793  MET794  SER795  GLU796  ALA797  LYS798  CYS799  TRP800  GLU811  SER814 

> <Gold.Protein.RotatedAtoms>
  152.5210  133.9444  159.7641 H   0  0  0  0  0  0  0  0  0  0  0  0  # atno 6907 bound_to 6896
  150.9767  133.6279  159.2736 H   0  0  0  0  0  0  0  0  0  0  0  0  # atno 6908 bound_to 6896
  151.3471  135.0882  159.9443 H   0  0  0  0  0  0  0  0  0  0  0  0  # atno 6909 bound_to 6896
  145.0102  140.7899  143.4443 H   0  0  0  0  0  0  0  0  0  0  0  0  # atno 7974 bound_to 7965
  154.7537  140.0485  157.0915 H   0  0  0  0  0  0  0  0  0  0  0  0  # atno 8008 bound_to 7997
  155.0025  140.3126  155.4842 H   0  0  0  0  0  0  0  0  0  0  0  0  # atno 8009 bound_to 7997
  156.2890  140.2199  156.5136 H   0  0  0  0  0  0  0  0  0  0  0  0  # atno 8010 bound_to 7997
  140.6272  143.2443  151.5334 H   0  0  0  0  0  0  0  0  0  0  0  0  # atno 10167 bound_to 10162
  156.6438  130.4935  149.6086 H   0  0  0  0  0  0  0  0  0  0  0  0  # atno 10718 bound_to 10713
  154.3964  135.2754  155.2123 H   0  0  0  0  0  0  0  0  0  0  0  0  # atno 10763 bound_to 10752
  154.4168  135.6009  153.5989 H   0  0  0  0  0  0  0  0  0  0  0  0  # atno 10764 bound_to 10752
  152.9831  135.5963  154.4226 H   0  0  0  0  0  0  0  0  0  0  0  0  # atno 10765 bound_to 10752
  140.7317  133.8743  155.8898 H   0  0  0  0  0  0  0  0  0  0  0  0  # atno 11005 bound_to 11000
  145.2033  139.2241  143.5181 LP  0  0  0  0  0  0  0  0  0  0  0  0  # atno 17320 bound_to 7965
  146.3468  140.1856  142.8589 LP  0  0  0  0  0  0  0  0  0  0  0  0  # atno 17321 bound_to 7965
  139.5490  144.2444  152.1496 LP  0  0  0  0  0  0  0  0  0  0  0  0  # atno 17342 bound_to 10162
  140.1678  144.4964  150.6596 LP  0  0  0  0  0  0  0  0  0  0  0  0  # atno 17343 bound_to 10162
  156.2138  130.6695  151.1297 LP  0  0  0  0  0  0  0  0  0  0  0  0  # atno 17370 bound_to 10713
  157.7163  131.0708  150.6315 LP  0  0  0  0  0  0  0  0  0  0  0  0  # atno 17371 bound_to 10713
  140.9915  134.1273  157.4404 LP  0  0  0  0  0  0  0  0  0  0  0  0  # atno 17394 bound_to 11000
  139.8825  135.0041  156.6232 LP  0  0  0  0  0  0  0  0  0  0  0  0  # atno 17395 bound_to 11000

$$$$
