AV-unprocessed.smi:1872|AV-procd|sdf|7606|dock1
  -GOLD-   22720 9323D 1   1.00000     0.00000
 Structure written by MMmdl.
 40 42  0  0  0  0  0  0  0  0  2 V2000
  151.1302  139.0393  154.7384 C   0  0  0  0  0  0  0  0  0  0  0  0
  151.3774  139.9924  155.8592 C   0  0  0  0  0  0  0  0  0  0  0  0
  152.2617  139.8182  156.8814 N   0  3  0  0  0  0  0  0  0  0  0  0
  152.2155  140.9188  157.7383 C   0  0  0  0  0  0  0  0  0  0  0  0
  152.9231  141.1953  158.9042 C   0  0  0  0  0  0  0  0  0  0  0  0
  152.6330  142.4174  159.5457 C   0  0  0  0  0  0  0  0  0  0  0  0
  151.6719  143.3087  159.0265 C   0  0  0  0  0  0  0  0  0  0  0  0
  150.9614  143.0178  157.8433 C   0  0  0  0  0  0  0  0  0  0  0  0
  151.2557  141.8086  157.2131 C   0  0  0  0  0  0  0  0  0  0  0  0
  150.7672  141.1961  156.0524 N   0  0  0  0  0  0  0  0  0  0  0  0
  149.7385  141.8714  155.2453 C   0  0  0  0  0  0  0  0  0  0  0  0
  148.4384  141.0529  155.1181 C   0  0  1  0  0  0  0  0  0  0  0  0
  148.3133  140.1606  156.2087 O   0  0  0  0  0  0  0  0  0  0  0  0
  147.2314  141.9663  154.9726 C   0  0  0  0  0  0  0  0  0  0  0  0
  147.0213  142.6636  153.7649 C   0  0  0  0  0  0  0  0  0  0  0  0
  145.9165  143.5250  153.6249 C   0  0  0  0  0  0  0  0  0  0  0  0
  145.0110  143.7107  154.6888 C   0  0  0  0  0  0  0  0  0  0  0  0
  143.9449  144.5575  154.4846 O   0  0  0  0  0  0  0  0  0  0  0  0
  143.8527  145.7024  155.2125 C   0  0  0  0  0  0  0  0  0  0  0  0
  142.8656  146.4844  154.7129 F   0  0  0  0  0  0  0  0  0  0  0  0
  143.5389  145.4206  156.5010 F   0  0  0  0  0  0  0  0  0  0  0  0
  145.2174  143.0030  155.8972 C   0  0  0  0  0  0  0  0  0  0  0  0
  146.3230  142.1422  156.0386 C   0  0  0  0  0  0  0  0  0  0  0  0
  151.7313  138.1381  154.8608 H   0  0  0  0  0  0  0  0  0  0  0  0
  151.3897  139.5031  153.7865 H   0  0  0  0  0  0  0  0  0  0  0  0
  150.0788  138.7530  154.7120 H   0  0  0  0  0  0  0  0  0  0  0  0
  153.6588  140.5130  159.3047 H   0  0  0  0  0  0  0  0  0  0  0  0
  153.1567  142.6754  160.4548 H   0  0  0  0  0  0  0  0  0  0  0  0
  151.4738  144.2346  159.5469 H   0  0  0  0  0  0  0  0  0  0  0  0
  150.2230  143.7057  157.4593 H   0  0  0  0  0  0  0  0  0  0  0  0
  149.5452  142.8609  155.6595 H   0  0  0  0  0  0  0  0  0  0  0  0
  150.1673  142.0386  154.2564 H   0  0  0  0  0  0  0  0  0  0  0  0
  148.5004  140.4337  154.2222 H   0  0  0  0  0  0  0  0  0  0  0  0
  149.0773  139.6044  156.2284 H   0  0  0  0  0  0  0  0  0  0  0  0
  147.7088  142.5428  152.9404 H   0  0  0  0  0  0  0  0  0  0  0  0
  145.7655  144.0523  152.6944 H   0  0  0  0  0  0  0  0  0  0  0  0
  144.7792  146.2764  155.1814 H   0  0  0  0  0  0  0  0  0  0  0  0
  144.5326  143.1084  156.7254 H   0  0  0  0  0  0  0  0  0  0  0  0
  146.4695  141.6178  156.9715 H   0  0  0  0  0  0  0  0  0  0  0  0
  152.8535  139.0037  156.9835 H   0  0  0  0  0  0  0  0  0  0  0  0
  1  2  1  0  0  0  0
  1 24  1  0  0  0  0
  1 25  1  0  0  0  0
  1 26  1  0  0  0  0
  2 10  1  0  0  0  0
  2  3  2  0  0  0  0
  3  4  1  0  0  0  0
  3 40  1  0  0  0  0
  4  9  2  0  0  0  0
  4  5  1  0  0  0  0
  5  6  2  0  0  0  0
  5 27  1  0  0  0  0
  6  7  1  0  0  0  0
  6 28  1  0  0  0  0
  7  8  2  0  0  0  0
  7 29  1  0  0  0  0
  8  9  1  0  0  0  0
  8 30  1  0  0  0  0
  9 10  1  0  0  0  0
 10 11  1  0  0  0  0
 11 12  1  0  0  0  0
 11 31  1  0  0  0  0
 11 32  1  0  0  0  0
 12 13  1  0  0  0  0
 12 14  1  0  0  0  0
 12 33  1  0  0  0  0
 13 34  1  0  0  0  0
 14 23  1  0  0  0  0
 14 15  2  0  0  0  0
 15 16  1  0  0  0  0
 15 35  1  0  0  0  0
 16 17  2  0  0  0  0
 16 36  1  0  0  0  0
 17 18  1  0  0  0  0
 17 22  1  0  0  0  0
 18 19  1  0  0  0  0
 19 20  1  0  0  0  0
 19 21  1  0  0  0  0
 19 37  1  0  0  0  0
 22 23  2  0  0  0  0
 22 38  1  0  0  0  0
 23 39  1  0  0  0  0
M  CHG  1   3   1
M  END
> <s_m_source_file>
AV-unprocessed.smi

> <i_m_source_file_index>
1872

> <i_lp_mmshare_version>
43012

> <i_f3d_flags>
0

> <s_epik_input>
W2NIXTFbY0hdW2NIXVtjSF1jKGMxMiluKGMobjIpW0NIM10pW0NIMl1bQ0BIXShbT0hdKWMzW2NIXVtjSF1jKE9bQ0hdKEYpRilbY0hdW2NIXTM=

> <s_epik_cmdline>
J2VwaWtfcHl0aG9uJywgJy1waCcsICc3LjAnLCAnLXRuJywgJzgnLCAnLW1hJywgJzIwMCcsICctbWV0YWxfYmluZGluZycsICctaW1hZScsICc8aW5maWxlLm1hZT4nLCAnLW9tYWUnLCAnPG91dGZpbGUubWFlPic=

> <r_lp_tautomer_probability>
1

> <r_epik_Ionization_Penalty>
0.963868

> <r_epik_Ionization_Penalty_Charging>
0.963868

> <r_epik_Ionization_Penalty_Neutral>
2.50501e-07

> <r_epik_State_Penalty>
1.00924

> <r_epik_Charging_Adjusted_Penalty>
1.9731

> <i_epik_Tot_Q>
1

> <i_epik_Tot_abs_Q>
1

> <r_epik_Metal_State_Penalty>
4.98304

> <b_epik_Metal_Only>
0

> <s_lp_Force_Field>
OPLS_2005

> <r_lp_Energy>
14.447

> <b_lp_Chiralities_Consistent>
1

> <s_lp_Variant>
AV-unprocessed.smi:1872-4

> <Gold.Version>
5.8.1

> <Gold.Id.Protein>
6NUR|6NUR_protein|mol2

> <Gold.PLP.Fitness>
44.8785

> <Gold.PLP.PLP>
-46.5973

> <Gold.PLP.part.hbond>
0.0000

> <Gold.PLP.part.metal>
0.0000

> <Gold.PLP.part.buried>
-5.4038

> <Gold.PLP.part.nonpolar>
-40.7401

> <Gold.PLP.part.repulsive>
0.2391

> <Gold.PLP.ligand.clash>
0.0000

> <Gold.PLP.ligand.torsion>
0.8840

> <Gold.PLP.Chemscore.Hbond>
0.0000

> <Gold.PLP.Chemscore.CHOScore>
0.0000

> <Gold.PLP.Chemscore.Metal>
0.0000

> <Gold.PLP.Chemscore.Internal.Correction>
0.0492

> <Gold.Rescore>
     Score         DG    S(hbond)    S(metal)    S(lipo)     H(rot)  DE(clash)    DE(int)     intcor
     11.39     -12.62       0.00        0.00     111.76       2.32       0.47       0.75       ----

> <Gold.Chemscore.Fitness>
11.3940

> <Gold.Chemscore.DG>
-12.6183

> <Gold.Chemscore.ZeroCoef>
-5.4800

> <Gold.Chemscore.Hbond>
0.0000

> <Gold.Chemscore.Metal>
0.0000

> <Gold.Chemscore.Lipo>
111.7629

> <Gold.Chemscore.Internal_Hbond>
0.0000

> <Gold.Chemscore.DEClash>
0.4697

> <Gold.Chemscore.DEInternal>
0.7547

> <Gold.Chemscore.Rot>
2.3195

> <Gold.Chemscore.Internal.Correction>
   9.000000E+99

> <Gold.Chemscore.Hbond.Weighted>
-0.0000

> <Gold.Chemscore.Metal.Weighted>
-0.0000

> <Gold.Chemscore.Lipo.Weighted>
-13.0763

> <Gold.Chemscore.Internal_Hbond.Weighted>
0.0000

> <Gold.Chemscore.DEClash.Weighted>
0.4697

> <Gold.Chemscore.DEInternal.Weighted>
0.7547

> <Gold.Chemscore.Rot.Weighted>
5.9379

> <Gold.Chemscore.Internal.Correction.Weighted>
   9.000000E+99

> <Gold.Protein.RotatedTorsions>
[ 6907 6896 6895 6894 ] final   72.46 input  -60.11 | X-H torsion
[ 7974 7965 7964 7962 ] final  -33.20 input  175.53 | X-H torsion
[ 8008 7997 7996 7995 ] final  -43.35 input   59.86 | X-H torsion
[ 10167 10162 10161 10158 ] final   70.02 input  -65.29 | X-H torsion
[ 10718 10713 10712 10709 ] final  -78.37 input   66.30 | X-H torsion
[ 10763 10752 10751 10750 ] final  -99.54 input  -60.55 | X-H torsion
[ 11005 11000 10999 10996 ] final  -59.91 input  -57.11 | X-H torsion

> <Gold.Protein.ActiveResidues>
 VAL166  LYS551  ARG553  GLY616  TRP617  ASP618  TYR619  PRO620  LYS621  CYS622 
 ASP623  PHE694  ASN695  SER759  ASP760  ASP761  ALA762  ILE779  LEU786  VAL792 
 PHE793  MET794  SER795  GLU796  ALA797  LYS798  CYS799  TRP800  GLU811  SER814 

> <Gold.Protein.RotatedAtoms>
  152.4869  134.4567  159.9591 H   0  0  0  0  0  0  0  0  0  0  0  0  # atno 6907 bound_to 6896
  151.4562  133.3598  159.2810 H   0  0  0  0  0  0  0  0  0  0  0  0  # atno 6908 bound_to 6896
  150.8988  134.8423  159.7405 H   0  0  0  0  0  0  0  0  0  0  0  0  # atno 6909 bound_to 6896
  146.0930  140.5886  142.8856 H   0  0  0  0  0  0  0  0  0  0  0  0  # atno 7974 bound_to 7965
  154.3997  140.1450  156.3505 H   0  0  0  0  0  0  0  0  0  0  0  0  # atno 8008 bound_to 7997
  155.8273  140.3467  155.5529 H   0  0  0  0  0  0  0  0  0  0  0  0  # atno 8009 bound_to 7997
  155.8225  140.0900  157.1831 H   0  0  0  0  0  0  0  0  0  0  0  0  # atno 8010 bound_to 7997
  140.0614  144.5229  150.7291 H   0  0  0  0  0  0  0  0  0  0  0  0  # atno 10167 bound_to 10162
  156.0119  130.4516  150.3485 H   0  0  0  0  0  0  0  0  0  0  0  0  # atno 10718 bound_to 10713
  154.7506  135.4968  153.9282 H   0  0  0  0  0  0  0  0  0  0  0  0  # atno 10763 bound_to 10752
  153.1139  135.6716  153.9459 H   0  0  0  0  0  0  0  0  0  0  0  0  # atno 10764 bound_to 10752
  153.9211  135.3088  155.3426 H   0  0  0  0  0  0  0  0  0  0  0  0  # atno 10765 bound_to 10752
  141.1267  133.6619  156.5144 H   0  0  0  0  0  0  0  0  0  0  0  0  # atno 11005 bound_to 11000
  144.7374  140.4847  143.6894 LP  0  0  0  0  0  0  0  0  0  0  0  0  # atno 17320 bound_to 7965
  145.6003  139.1503  143.3133 LP  0  0  0  0  0  0  0  0  0  0  0  0  # atno 17321 bound_to 7965
  140.7170  143.2553  151.4403 LP  0  0  0  0  0  0  0  0  0  0  0  0  # atno 17342 bound_to 10162
  139.5891  144.1538  152.2066 LP  0  0  0  0  0  0  0  0  0  0  0  0  # atno 17343 bound_to 10162
  157.1579  131.0337  151.2855 LP  0  0  0  0  0  0  0  0  0  0  0  0  # atno 17370 bound_to 10713
  157.4337  130.7505  149.7011 LP  0  0  0  0  0  0  0  0  0  0  0  0  # atno 17371 bound_to 10713
  140.4343  134.7073  157.4958 LP  0  0  0  0  0  0  0  0  0  0  0  0  # atno 17394 bound_to 11000
  140.0272  134.6459  155.9156 LP  0  0  0  0  0  0  0  0  0  0  0  0  # atno 17395 bound_to 11000

$$$$
