AV-unprocessed.smi:1200|AV-procd|sdf|5023|dock8
  -GOLD-   22720 4 43D 1   1.00000     0.00000
 Structure written by MMmdl.
 43 44  0  0  0  0  0  0  0  0  2 V2000
  142.6217  137.0824  152.6376 C   0  0  0  0  0  0  0  0  0  0  0  0
  143.8552  137.7140  152.1937 N   0  0  0  0  0  0  0  0  0  0  0  0
  145.0478  137.5308  152.7772 C   0  0  0  0  0  0  0  0  0  0  0  0
  145.2138  136.8079  153.7605 O   0  0  0  0  0  0  0  0  0  0  0  0
  146.2258  138.2957  152.1648 C   0  0  0  0  0  0  0  0  0  0  0  0
  146.8444  139.2614  153.1091 N   0  3  2  0  0  0  0  0  0  0  0  0
  147.2631  140.5204  152.4419 C   0  0  0  0  0  0  0  0  0  0  0  0
  147.7569  141.5542  153.4682 C   0  0  0  0  0  0  0  0  0  0  0  0
  148.9049  140.9878  154.3190 C   0  0  1  0  0  0  0  0  0  0  0  0
  149.2925  141.9566  155.3407 N   0  0  0  0  0  0  0  0  0  0  0  0
  150.1682  141.7269  156.3299 C   0  0  0  0  0  0  0  0  0  0  0  0
  150.7480  140.6523  156.4816 O   0  0  0  0  0  0  0  0  0  0  0  0
  150.3212  142.8160  157.1032 N   0  0  0  0  0  0  0  0  0  0  0  0
  151.1718  143.0087  158.2270 C   0  0  0  0  0  0  0  0  0  0  0  0
  151.4701  144.2651  158.8099 C   0  0  0  0  0  0  0  0  0  0  0  0
  152.3361  144.3114  159.9197 C   0  0  0  0  0  0  0  0  0  0  0  0
  152.8775  143.1048  160.4028 C   0  0  0  0  0  0  0  0  0  0  0  0
  152.6121  141.9023  159.8512 N   0  0  0  0  0  0  0  0  0  0  0  0
  151.7807  141.8655  158.7881 C   0  0  0  0  0  0  0  0  0  0  0  0
  148.4639  139.6616  154.9644 C   0  0  0  0  0  0  0  0  0  0  0  0
  147.9533  138.6706  153.9054 C   0  0  0  0  0  0  0  0  0  0  0  0
  141.7864  137.4290  152.0289 H   0  0  0  0  0  0  0  0  0  0  0  0
  142.4098  137.3284  153.6791 H   0  0  0  0  0  0  0  0  0  0  0  0
  142.6858  135.9976  152.5421 H   0  0  0  0  0  0  0  0  0  0  0  0
  143.7958  138.3293  151.3951 H   0  0  0  0  0  0  0  0  0  0  0  0
  146.9804  137.6019  151.7901 H   0  0  0  0  0  0  0  0  0  0  0  0
  145.8325  138.8286  151.2981 H   0  0  0  0  0  0  0  0  0  0  0  0
  148.0473  140.3046  151.7143 H   0  0  0  0  0  0  0  0  0  0  0  0
  146.4230  140.9415  151.8882 H   0  0  0  0  0  0  0  0  0  0  0  0
  148.0840  142.4578  152.9520 H   0  0  0  0  0  0  0  0  0  0  0  0
  146.9266  141.8491  154.1121 H   0  0  0  0  0  0  0  0  0  0  0  0
  149.7545  140.7983  153.6595 H   0  0  0  0  0  0  0  0  0  0  0  0
  148.8647  142.8698  155.2896 H   0  0  0  0  0  0  0  0  0  0  0  0
  149.7991  143.6325  156.8199 H   0  0  0  0  0  0  0  0  0  0  0  0
  151.0677  145.1912  158.4320 H   0  0  0  0  0  0  0  0  0  0  0  0
  152.5819  145.2525  160.3892 H   0  0  0  0  0  0  0  0  0  0  0  0
  153.5446  143.1064  161.2520 H   0  0  0  0  0  0  0  0  0  0  0  0
  151.5924  140.8860  158.3731 H   0  0  0  0  0  0  0  0  0  0  0  0
  149.2938  139.2150  155.5130 H   0  0  0  0  0  0  0  0  0  0  0  0
  147.6752  139.8476  155.6951 H   0  0  0  0  0  0  0  0  0  0  0  0
  147.6165  137.7600  154.4016 H   0  0  0  0  0  0  0  0  0  0  0  0
  148.7684  138.3821  153.2397 H   0  0  0  0  0  0  0  0  0  0  0  0
  146.1163  139.5152  153.7621 H   0  0  0  0  0  0  0  0  0  0  0  0
  1  2  1  0  0  0  0
  1 22  1  0  0  0  0
  1 23  1  0  0  0  0
  1 24  1  0  0  0  0
  2  3  1  0  0  0  0
  2 25  1  0  0  0  0
  3  4  2  0  0  0  0
  3  5  1  0  0  0  0
  5  6  1  0  0  0  0
  5 26  1  0  0  0  0
  5 27  1  0  0  0  0
  6 21  1  0  0  0  0
  6  7  1  0  0  0  0
  6 43  1  0  0  0  0
  7  8  1  0  0  0  0
  7 28  1  0  0  0  0
  7 29  1  0  0  0  0
  8  9  1  0  0  0  0
  8 30  1  0  0  0  0
  8 31  1  0  0  0  0
  9 10  1  0  0  0  0
  9 20  1  0  0  0  0
  9 32  1  0  0  0  0
 10 11  1  0  0  0  0
 10 33  1  0  0  0  0
 11 12  2  0  0  0  0
 11 13  1  0  0  0  0
 13 14  1  0  0  0  0
 13 34  1  0  0  0  0
 14 19  1  0  0  0  0
 14 15  2  0  0  0  0
 15 16  1  0  0  0  0
 15 35  1  0  0  0  0
 16 17  2  0  0  0  0
 16 36  1  0  0  0  0
 17 18  1  0  0  0  0
 17 37  1  0  0  0  0
 18 19  2  0  0  0  0
 19 38  1  0  0  0  0
 20 21  1  0  0  0  0
 20 39  1  0  0  0  0
 20 40  1  0  0  0  0
 21 41  1  0  0  0  0
 21 42  1  0  0  0  0
M  CHG  1   6   1
M  END
> <s_m_source_file>
AV-unprocessed.smi

> <i_m_source_file_index>
1200

> <i_lp_mmshare_version>
43012

> <i_f3d_flags>
0

> <s_epik_input>
W0NIM11bTkhdQyg9TylbQ0gyXU4xW0NIMl1bQ0gyXVtDSF0oW0NIMl1bQ0gyXTEpW05IXUMoPU8pW05IXWMyW2NIXVtjSF1bY0hdbltjSF0y

> <s_epik_cmdline>
J2VwaWtfcHl0aG9uJywgJy1waCcsICc3LjAnLCAnLXRuJywgJzgnLCAnLW1hJywgJzIwMCcsICctbWV0YWxfYmluZGluZycsICctaW1hZScsICc8aW5maWxlLm1hZT4nLCAnLW9tYWUnLCAnPG91dGZpbGUubWFlPic=

> <r_epik_Ionization_Penalty>
0.842849

> <r_epik_Ionization_Penalty_Charging>
0.838844

> <r_epik_Ionization_Penalty_Neutral>
0.00400543

> <r_epik_State_Penalty>
0.858736

> <r_epik_Charging_Adjusted_Penalty>
1.69758

> <i_epik_Tot_Q>
1

> <i_epik_Tot_abs_Q>
1

> <r_epik_Metal_State_Penalty>
0.860766

> <b_epik_Metal_Only>
0

> <s_lp_Force_Field>
OPLS_2005

> <r_lp_Energy>
18.0189

> <b_lp_Chiralities_Consistent>
1

> <s_lp_Variant>
AV-unprocessed.smi:1200-2

> <Gold.Version>
5.8.1

> <Gold.Id.Protein>
6NUR|6NUR_protein|mol2

> <Gold.PLP.Fitness>
47.1240

> <Gold.PLP.PLP>
-39.2446

> <Gold.PLP.part.hbond>
-4.0000

> <Gold.PLP.part.metal>
0.0000

> <Gold.PLP.part.buried>
-5.4920

> <Gold.PLP.part.nonpolar>
-30.4523

> <Gold.PLP.part.repulsive>
0.3489

> <Gold.PLP.ligand.clash>
0.0000

> <Gold.PLP.ligand.torsion>
0.5566

> <Gold.PLP.Chemscore.Hbond>
2.9920

> <Gold.PLP.Chemscore.CHOScore>
0.0000

> <Gold.PLP.Chemscore.Metal>
0.0000

> <Gold.Chemscore.Hbonds>
donor molecule, donor type, donor heavy atom, donor atom, acceptor molecule, acceptor atom, score
      L1  H     2    25       P1 10171  1.00
      L1  H    10    33       P1  8028  1.00
      L1  H    13    34       P1  8028  1.00

> <Gold.PLP.Chemscore.Internal.Correction>
0.0167

> <Gold.Rescore>
     Score         DG    S(hbond)    S(metal)    S(lipo)     H(rot)  DE(clash)    DE(int)     intcor
     18.68     -22.59       2.82        0.00     102.56       1.69       0.86       3.05       ----

> <Gold.Chemscore.Fitness>
18.6818

> <Gold.Chemscore.DG>
-22.5898

> <Gold.Chemscore.ZeroCoef>
-5.4800

> <Gold.Chemscore.Hbond>
2.8231

> <Gold.Chemscore.Metal>
0.0000

> <Gold.Chemscore.Lipo>
102.5625

> <Gold.Chemscore.Internal_Hbond>
0.0000

> <Gold.Chemscore.DEClash>
0.8625

> <Gold.Chemscore.DEInternal>
3.0455

> <Gold.Chemscore.Rot>
1.6873

> <Gold.Chemscore.Internal.Correction>
   9.000000E+99

> <Gold.Chemscore.Hbonds>
donor molecule, donor type, donor heavy atom, donor atom, acceptor molecule, acceptor atom, score
      L1  H     2    25       P1 10171  0.91
      L1  H    10    33       P1  8028  0.96
      L1  H    13    34       P1  8028  0.98

> <Gold.Chemscore.Hbond.Weighted>
-9.4293

> <Gold.Chemscore.Metal.Weighted>
-0.0000

> <Gold.Chemscore.Lipo.Weighted>
-11.9998

> <Gold.Chemscore.Internal_Hbond.Weighted>
0.0000

> <Gold.Chemscore.DEClash.Weighted>
0.8625

> <Gold.Chemscore.DEInternal.Weighted>
3.0455

> <Gold.Chemscore.Rot.Weighted>
4.3194

> <Gold.Chemscore.Internal.Correction.Weighted>
   9.000000E+99

> <Gold.Protein.RotatedTorsions>
[ 6907 6896 6895 6894 ] final -147.81 input  -60.11 | X-H torsion
[ 7974 7965 7964 7962 ] final  132.21 input  175.53 | X-H torsion
[ 8008 7997 7996 7995 ] final   77.77 input   59.86 | X-H torsion
[ 10167 10162 10161 10158 ] final   71.55 input  -65.29 | X-H torsion
[ 10718 10713 10712 10709 ] final  141.08 input   66.30 | X-H torsion
[ 10763 10752 10751 10750 ] final  -48.14 input  -60.55 | X-H torsion
[ 11005 11000 10999 10996 ] final  149.38 input  -57.11 | X-H torsion

> <Gold.Protein.ActiveResidues>
 VAL166  LYS551  ARG553  GLY616  TRP617  ASP618  TYR619  PRO620  LYS621  CYS622 
 ASP623  PHE694  ASN695  SER759  ASP760  ASP761  ALA762  ILE779  LEU786  VAL792 
 PHE793  MET794  SER795  GLU796  ALA797  LYS798  CYS799  TRP800  GLU811  SER814 

> <Gold.Protein.RotatedAtoms>
  151.1609  133.4846  159.2594 H   0  0  0  0  0  0  0  0  0  0  0  0  # atno 6907 bound_to 6896
  151.1455  135.0201  159.8655 H   0  0  0  0  0  0  0  0  0  0  0  0  # atno 6908 bound_to 6896
  152.5463  134.1498  159.8567 H   0  0  0  0  0  0  0  0  0  0  0  0  # atno 6909 bound_to 6896
  144.9992  139.4329  143.5301 H   0  0  0  0  0  0  0  0  0  0  0  0  # atno 7974 bound_to 7965
  155.8463  140.3460  155.5664 H   0  0  0  0  0  0  0  0  0  0  0  0  # atno 8008 bound_to 7997
  155.8086  140.0895  157.1936 H   0  0  0  0  0  0  0  0  0  0  0  0  # atno 8009 bound_to 7997
  154.4006  140.1452  156.3347 H   0  0  0  0  0  0  0  0  0  0  0  0  # atno 8010 bound_to 7997
  140.0449  144.5359  150.7406 H   0  0  0  0  0  0  0  0  0  0  0  0  # atno 10167 bound_to 10162
  157.3960  131.1011  151.0599 H   0  0  0  0  0  0  0  0  0  0  0  0  # atno 10718 bound_to 10713
  154.0730  135.6602  153.4827 H   0  0  0  0  0  0  0  0  0  0  0  0  # atno 10763 bound_to 10752
  153.0384  135.5162  154.7548 H   0  0  0  0  0  0  0  0  0  0  0  0  # atno 10764 bound_to 10752
  154.6620  135.3016  154.9822 H   0  0  0  0  0  0  0  0  0  0  0  0  # atno 10765 bound_to 10752
  140.1040  134.8966  157.1838 H   0  0  0  0  0  0  0  0  0  0  0  0  # atno 11005 bound_to 11000
  146.3448  139.9370  142.8746 LP  0  0  0  0  0  0  0  0  0  0  0  0  # atno 17320 bound_to 7965
  145.2177  140.9922  143.4064 LP  0  0  0  0  0  0  0  0  0  0  0  0  # atno 17321 bound_to 7965
  140.7243  143.2620  151.4173 LP  0  0  0  0  0  0  0  0  0  0  0  0  # atno 17342 bound_to 10162
  139.5990  144.1336  152.2176 LP  0  0  0  0  0  0  0  0  0  0  0  0  # atno 17343 bound_to 10162
  157.1616  130.6228  149.5612 LP  0  0  0  0  0  0  0  0  0  0  0  0  # atno 17370 bound_to 10713
  155.9810  130.4815  150.6806 LP  0  0  0  0  0  0  0  0  0  0  0  0  # atno 17371 bound_to 10713
  140.3181  134.2947  155.7252 LP  0  0  0  0  0  0  0  0  0  0  0  0  # atno 17394 bound_to 11000
  141.2113  133.7693  156.9872 LP  0  0  0  0  0  0  0  0  0  0  0  0  # atno 17395 bound_to 11000

$$$$
