AV-unprocessed.smi:3145|AV-procd|sdf|11983|dock6
  -GOLD-   2272017383D 1   1.00000     0.00000
 Structure written by MMmdl.
 34 34  0  0  0  0  0  0  0  0  3 V2000
  149.5568  141.9835  158.3010 C   0  0  0  0  0  0  0  0  0  0  0  0
  150.6913  142.1818  157.2815 C   0  0  2  0  0  0  0  0  0  0  0  0
  151.5979  143.3866  157.6246 C   0  0  0  0  0  0  0  0  0  0  0  0
  152.0305  143.3990  159.0105 N   0  0  0  0  0  0  0  0  0  0  0  0
  152.8170  142.4792  159.6718 C   0  0  0  0  0  0  0  0  0  0  0  0
  152.9470  142.9087  160.9614 C   0  0  0  0  0  0  0  0  0  0  0  0
  152.1888  144.1124  160.9948 C   0  0  0  0  0  0  0  0  0  0  0  0
  151.6386  144.4015  159.8264 N   0  0  0  0  0  0  0  0  0  0  0  0
  150.1099  142.3236  155.9294 N   0  3  0  0  0  0  0  0  0  0  0  0
  149.0694  141.3357  155.5732 C   0  0  0  0  0  0  0  0  0  0  0  0
  149.7433  140.0636  155.0551 C   0  0  0  0  0  0  0  0  0  0  0  0
  150.3919  140.1278  154.0064 O   0  0  0  0  0  0  0  0  0  0  0  0
  149.4943  139.0111  155.8821 N   0  5  0  0  0  0  0  0  0  0  0  0
  149.9244  137.6430  155.6053 C   0  0  0  0  0  0  0  0  0  0  0  0
  151.2610  137.6582  154.8481 C   0  0  0  0  0  0  0  0  0  0  0  0
  152.3071  138.4720  155.4927 C   0  0  0  0  0  0  0  0  0  0  0  0
  153.1295  139.1138  155.9971 N   0  0  0  0  0  0  0  0  0  0  0  0
  149.9439  141.7626  159.2961 H   0  0  0  0  0  0  0  0  0  0  0  0
  148.9152  141.1493  158.0145 H   0  0  0  0  0  0  0  0  0  0  0  0
  148.9310  142.8733  158.3763 H   0  0  0  0  0  0  0  0  0  0  0  0
  151.2941  141.2723  157.2888 H   0  0  0  0  0  0  0  0  0  0  0  0
  152.4899  143.3935  156.9977 H   0  0  0  0  0  0  0  0  0  0  0  0
  151.0703  144.3203  157.4243 H   0  0  0  0  0  0  0  0  0  0  0  0
  153.2162  141.6072  159.1750 H   0  0  0  0  0  0  0  0  0  0  0  0
  153.4978  142.4340  161.7598 H   0  0  0  0  0  0  0  0  0  0  0  0
  152.0218  144.7789  161.8282 H   0  0  0  0  0  0  0  0  0  0  0  0
  149.6643  143.2290  155.8747 H   0  0  0  0  0  0  0  0  0  0  0  0
  148.4577  141.0979  156.4437 H   0  0  0  0  0  0  0  0  0  0  0  0
  148.4059  141.7407  154.8072 H   0  0  0  0  0  0  0  0  0  0  0  0
  150.0427  137.0559  156.5170 H   0  0  0  0  0  0  0  0  0  0  0  0
  149.1874  137.1116  155.0024 H   0  0  0  0  0  0  0  0  0  0  0  0
  151.6482  136.6425  154.7647 H   0  0  0  0  0  0  0  0  0  0  0  0
  151.1222  138.0287  153.8319 H   0  0  0  0  0  0  0  0  0  0  0  0
  150.8451  142.2920  155.2382 H   0  0  0  0  0  0  0  0  0  0  0  0
  1  2  1  0  0  0  0
  1 18  1  0  0  0  0
  1 19  1  0  0  0  0
  1 20  1  0  0  0  0
  2  3  1  0  0  0  0
  2  9  1  0  0  0  0
  2 21  1  0  0  0  0
  3  4  1  0  0  0  0
  3 22  1  0  0  0  0
  3 23  1  0  0  0  0
  4  8  1  0  0  0  0
  4  5  1  0  0  0  0
  5  6  2  0  0  0  0
  5 24  1  0  0  0  0
  6  7  1  0  0  0  0
  6 25  1  0  0  0  0
  7  8  2  0  0  0  0
  7 26  1  0  0  0  0
  9 10  1  0  0  0  0
  9 27  1  0  0  0  0
  9 34  1  0  0  0  0
 10 11  1  0  0  0  0
 10 28  1  0  0  0  0
 10 29  1  0  0  0  0
 11 12  2  0  0  0  0
 11 13  1  0  0  0  0
 13 14  1  0  0  0  0
 14 15  1  0  0  0  0
 14 30  1  0  0  0  0
 14 31  1  0  0  0  0
 15 16  1  0  0  0  0
 15 32  1  0  0  0  0
 15 33  1  0  0  0  0
 16 17  3  0  0  0  0
M  CHG  1   9   1
M  CHG  1  13  -1
M  END
> <s_m_source_file>
AV-unprocessed.smi

> <i_m_source_file_index>
3145

> <i_lp_mmshare_version>
43012

> <i_f3d_flags>
0

> <s_epik_input>
bjFbY0hdW2NIXVtjSF1uMVtDSDJdW0NAQEhdKFtDSDNdKVtOSF1bQ0gyXUMoPU8pW05IXVtDSDJdW0NIMl1DI04=

> <s_epik_cmdline>
J2VwaWtfcHl0aG9uJywgJy1waCcsICc3LjAnLCAnLXRuJywgJzgnLCAnLW1hJywgJzIwMCcsICctbWV0YWxfYmluZGluZycsICctaW1hZScsICc8aW5maWxlLm1hZT4nLCAnLW9tYWUnLCAnPG91dGZpbGUubWFlPic=

> <r_lp_tautomer_probability>
1

> <r_epik_Ionization_Penalty>
6.20835

> <r_epik_Ionization_Penalty_Charging>
6.20835

> <r_epik_Ionization_Penalty_Neutral>
3.57231e-06

> <r_epik_State_Penalty>
6.38139

> <r_epik_Charging_Adjusted_Penalty>
12.5897

> <i_epik_Tot_Q>
0

> <i_epik_Tot_abs_Q>
2

> <r_epik_Metal_State_Penalty>
2.31725

> <b_epik_Metal_Only>
1

> <s_lp_Force_Field>
OPLS_2005

> <r_lp_Energy>
-0.295423

> <b_lp_Chiralities_Consistent>
1

> <s_lp_Variant>
AV-unprocessed.smi:3145-5

> <Gold.Version>
5.8.1

> <Gold.Id.Protein>
6NUR|6NUR_protein|mol2

> <Gold.PLP.Fitness>
46.4360

> <Gold.PLP.PLP>
-35.2221

> <Gold.PLP.part.hbond>
-2.7272

> <Gold.PLP.part.metal>
0.0000

> <Gold.PLP.part.buried>
-6.4914

> <Gold.PLP.part.nonpolar>
-27.7071

> <Gold.PLP.part.repulsive>
1.5617

> <Gold.PLP.ligand.clash>
0.0000

> <Gold.PLP.ligand.torsion>
0.4913

> <Gold.PLP.Chemscore.Hbond>
3.9833

> <Gold.PLP.Chemscore.CHOScore>
0.0000

> <Gold.PLP.Chemscore.Metal>
0.0000

> <Gold.Chemscore.Hbonds>
donor molecule, donor type, donor heavy atom, donor atom, acceptor molecule, acceptor atom, score
      L1  H     9    27       P1  8028  2.00
      P1  H  7989  7998       L1    12  0.98
      P1  H  7997  8009       L1    17  1.00

> <Gold.PLP.Chemscore.Internal.Correction>
0.2465

> <Gold.Rescore>
     Score         DG    S(hbond)    S(metal)    S(lipo)     H(rot)  DE(clash)    DE(int)     intcor
     15.14     -16.92       2.99        0.00      73.50       2.79       0.03       1.74       ----

> <Gold.Chemscore.Fitness>
15.1394

> <Gold.Chemscore.DG>
-16.9163

> <Gold.Chemscore.ZeroCoef>
-5.4800

> <Gold.Chemscore.Hbond>
2.9914

> <Gold.Chemscore.Metal>
0.0000

> <Gold.Chemscore.Lipo>
73.5046

> <Gold.Chemscore.Internal_Hbond>
0.0000

> <Gold.Chemscore.DEClash>
0.0338

> <Gold.Chemscore.DEInternal>
1.7432

> <Gold.Chemscore.Rot>
2.7949

> <Gold.Chemscore.Internal.Correction>
   9.000000E+99

> <Gold.Chemscore.Hbonds>
donor molecule, donor type, donor heavy atom, donor atom, acceptor molecule, acceptor atom, score
      L1  H     9    27       P1  8028  1.00
      P1  H  7989  7998       L1    12  0.87
      P1  H  7997  8009       L1    17  0.98

> <Gold.Chemscore.Hbond.Weighted>
-9.9913

> <Gold.Chemscore.Metal.Weighted>
-0.0000

> <Gold.Chemscore.Lipo.Weighted>
-8.6000

> <Gold.Chemscore.Internal_Hbond.Weighted>
0.0000

> <Gold.Chemscore.DEClash.Weighted>
0.0338

> <Gold.Chemscore.DEInternal.Weighted>
1.7432

> <Gold.Chemscore.Rot.Weighted>
7.1551

> <Gold.Chemscore.Internal.Correction.Weighted>
   9.000000E+99

> <Gold.Protein.RotatedTorsions>
[ 6907 6896 6895 6894 ] final   21.87 input  -60.11 | X-H torsion
[ 7974 7965 7964 7962 ] final  143.51 input  175.53 | X-H torsion
[ 8008 7997 7996 7995 ] final -164.34 input   59.86 | X-H torsion
[ 10167 10162 10161 10158 ] final -134.93 input  -65.29 | X-H torsion
[ 10718 10713 10712 10709 ] final   37.17 input   66.30 | X-H torsion
[ 10763 10752 10751 10750 ] final -148.29 input  -60.55 | X-H torsion
[ 11005 11000 10999 10996 ] final  108.16 input  -57.11 | X-H torsion

> <Gold.Protein.ActiveResidues>
 VAL166  LYS551  ARG553  GLY616  TRP617  ASP618  TYR619  PRO620  LYS621  CYS622 
 ASP623  PHE694  ASN695  SER759  ASP760  ASP761  ALA762  ILE779  LEU786  VAL792 
 PHE793  MET794  SER795  GLU796  ALA797  LYS798  CYS799  TRP800  GLU811  SER814 

> <Gold.Protein.RotatedAtoms>
  151.9185  135.0308  160.0519 H   0  0  0  0  0  0  0  0  0  0  0  0  # atno 6907 bound_to 6896
  152.2219  133.4986  159.5176 H   0  0  0  0  0  0  0  0  0  0  0  0  # atno 6908 bound_to 6896
  150.7002  134.1247  159.4090 H   0  0  0  0  0  0  0  0  0  0  0  0  # atno 6909 bound_to 6896
  144.8915  139.5552  143.5796 H   0  0  0  0  0  0  0  0  0  0  0  0  # atno 7974 bound_to 7965
  155.8343  140.0938  157.1774 H   0  0  0  0  0  0  0  0  0  0  0  0  # atno 8008 bound_to 7997
  154.3980  140.1413  156.3712 H   0  0  0  0  0  0  0  0  0  0  0  0  # atno 8009 bound_to 7997
  155.8133  140.3449  155.5473 H   0  0  0  0  0  0  0  0  0  0  0  0  # atno 8010 bound_to 7997
  139.8831  143.6815  152.2624 H   0  0  0  0  0  0  0  0  0  0  0  0  # atno 10167 bound_to 10162
  157.3437  130.7561  149.6930 H   0  0  0  0  0  0  0  0  0  0  0  0  # atno 10718 bound_to 10713
  154.8241  135.3338  154.6951 H   0  0  0  0  0  0  0  0  0  0  0  0  # atno 10763 bound_to 10752
  153.7579  135.6934  153.4936 H   0  0  0  0  0  0  0  0  0  0  0  0  # atno 10764 bound_to 10752
  153.2130  135.4475  155.0352 H   0  0  0  0  0  0  0  0  0  0  0  0  # atno 10765 bound_to 10752
  139.8839  134.9422  156.5929 H   0  0  0  0  0  0  0  0  0  0  0  0  # atno 11005 bound_to 11000
  146.3056  139.7570  142.9058 LP  0  0  0  0  0  0  0  0  0  0  0  0  # atno 17320 bound_to 7965
  145.3775  141.0353  143.3196 LP  0  0  0  0  0  0  0  0  0  0  0  0  # atno 17321 bound_to 7965
  139.7178  144.7608  151.1005 LP  0  0  0  0  0  0  0  0  0  0  0  0  # atno 17342 bound_to 10162
  140.7741  143.5247  150.9495 LP  0  0  0  0  0  0  0  0  0  0  0  0  # atno 17343 bound_to 10162
  155.9711  130.4160  150.4210 LP  0  0  0  0  0  0  0  0  0  0  0  0  # atno 17370 bound_to 10713
  157.2262  131.0494  151.2518 LP  0  0  0  0  0  0  0  0  0  0  0  0  # atno 17371 bound_to 10713
  140.7942  133.8558  155.8671 LP  0  0  0  0  0  0  0  0  0  0  0  0  # atno 17394 bound_to 11000
  140.9651  134.1605  157.4623 LP  0  0  0  0  0  0  0  0  0  0  0  0  # atno 17395 bound_to 11000

$$$$
