AV-unprocessed.smi:2260|AV-procd|sdf|9133|dock8
  -GOLD-   2272012343D 1   1.00000     0.00000
 Structure written by MMmdl.
 43 44  0  0  0  0  0  0  0  0  2 V2000
  151.6910  144.7120  159.9747 C   0  0  0  0  0  0  0  0  0  0  0  0
  152.2967  143.3230  159.8670 C   0  0  0  0  0  0  0  0  0  0  0  0
  152.9937  142.7015  160.8246 C   0  0  0  0  0  0  0  0  0  0  0  0
  153.5029  141.0963  160.3573 S   0  0  0  0  0  0  0  0  0  0  0  0
  152.7022  141.2975  158.7576 C   0  0  0  0  0  0  0  0  0  0  0  0
  152.6978  140.4202  157.8956 O   0  0  0  0  0  0  0  0  0  0  0  0
  152.1268  142.5655  158.7011 N   0  0  0  0  0  0  0  0  0  0  0  0
  151.4141  143.0356  157.5098 C   0  0  0  0  0  0  0  0  0  0  0  0
  150.5318  141.9271  156.9159 C   0  0  0  0  0  0  0  0  0  0  0  0
  150.0609  142.2975  155.5653 N   0  3  0  0  0  0  0  0  0  0  0  0
  149.5366  141.1821  154.7407 C   0  0  1  0  0  0  0  0  0  0  0  0
  150.3048  139.8695  155.0245 C   0  0  0  0  0  0  0  0  0  0  0  0
  149.7765  138.7067  154.1737 C   0  0  0  0  0  0  0  0  0  0  0  0
  148.2688  138.5138  154.3712 C   0  0  0  0  0  0  0  0  0  0  0  0
  147.5048  139.8169  154.0829 C   0  0  0  0  0  0  0  0  0  0  0  0
  147.9947  141.0227  154.9264 C   0  0  0  0  0  0  0  0  0  0  0  0
  147.6018  140.8218  156.4102 C   0  0  0  0  0  0  0  0  0  0  0  0
  147.2725  142.2831  154.4026 C   0  0  0  0  0  0  0  0  0  0  0  0
  151.5595  144.9843  161.0223 H   0  0  0  0  0  0  0  0  0  0  0  0
  150.7125  144.7729  159.4995 H   0  0  0  0  0  0  0  0  0  0  0  0
  152.3508  145.4480  159.5151 H   0  0  0  0  0  0  0  0  0  0  0  0
  153.2340  143.0968  161.8007 H   0  0  0  0  0  0  0  0  0  0  0  0
  150.8193  143.9193  157.7412 H   0  0  0  0  0  0  0  0  0  0  0  0
  152.1365  143.3679  156.7621 H   0  0  0  0  0  0  0  0  0  0  0  0
  151.0966  140.9959  156.8549 H   0  0  0  0  0  0  0  0  0  0  0  0
  149.6793  141.7436  157.5691 H   0  0  0  0  0  0  0  0  0  0  0  0
  149.3488  143.0096  155.6409 H   0  0  0  0  0  0  0  0  0  0  0  0
  149.7103  141.4440  153.6951 H   0  0  0  0  0  0  0  0  0  0  0  0
  151.3660  139.9935  154.8112 H   0  0  0  0  0  0  0  0  0  0  0  0
  150.2391  139.6108  156.0816 H   0  0  0  0  0  0  0  0  0  0  0  0
  149.9831  138.9024  153.1206 H   0  0  0  0  0  0  0  0  0  0  0  0
  150.3067  137.7881  154.4269 H   0  0  0  0  0  0  0  0  0  0  0  0
  147.9103  137.7236  153.7108 H   0  0  0  0  0  0  0  0  0  0  0  0
  148.0674  138.1714  155.3865 H   0  0  0  0  0  0  0  0  0  0  0  0
  147.6143  140.0483  153.0221 H   0  0  0  0  0  0  0  0  0  0  0  0
  146.4381  139.6536  154.2418 H   0  0  0  0  0  0  0  0  0  0  0  0
  146.5267  140.6710  156.5131 H   0  0  0  0  0  0  0  0  0  0  0  0
  147.8582  141.6896  157.0183 H   0  0  0  0  0  0  0  0  0  0  0  0
  148.0900  139.9581  156.8598 H   0  0  0  0  0  0  0  0  0  0  0  0
  146.1894  142.1717  154.4648 H   0  0  0  0  0  0  0  0  0  0  0  0
  147.5187  142.4811  153.3587 H   0  0  0  0  0  0  0  0  0  0  0  0
  147.5367  143.1726  154.9750 H   0  0  0  0  0  0  0  0  0  0  0  0
  150.8509  142.6887  155.0720 H   0  0  0  0  0  0  0  0  0  0  0  0
  1  2  1  0  0  0  0
  1 19  1  0  0  0  0
  1 20  1  0  0  0  0
  1 21  1  0  0  0  0
  2  7  1  0  0  0  0
  2  3  2  0  0  0  0
  3  4  1  0  0  0  0
  3 22  1  0  0  0  0
  4  5  1  0  0  0  0
  5  6  2  0  0  0  0
  5  7  1  0  0  0  0
  7  8  1  0  0  0  0
  8  9  1  0  0  0  0
  8 23  1  0  0  0  0
  8 24  1  0  0  0  0
  9 10  1  0  0  0  0
  9 25  1  0  0  0  0
  9 26  1  0  0  0  0
 10 11  1  0  0  0  0
 10 27  1  0  0  0  0
 10 43  1  0  0  0  0
 11 16  1  0  0  0  0
 11 12  1  0  0  0  0
 11 28  1  0  0  0  0
 12 13  1  0  0  0  0
 12 29  1  0  0  0  0
 12 30  1  0  0  0  0
 13 14  1  0  0  0  0
 13 31  1  0  0  0  0
 13 32  1  0  0  0  0
 14 15  1  0  0  0  0
 14 33  1  0  0  0  0
 14 34  1  0  0  0  0
 15 16  1  0  0  0  0
 15 35  1  0  0  0  0
 15 36  1  0  0  0  0
 16 17  1  0  0  0  0
 16 18  1  0  0  0  0
 17 37  1  0  0  0  0
 17 38  1  0  0  0  0
 17 39  1  0  0  0  0
 18 40  1  0  0  0  0
 18 41  1  0  0  0  0
 18 42  1  0  0  0  0
M  CHG  1  10   1
M  END
> <s_m_source_file>
AV-unprocessed.smi

> <i_m_source_file_index>
2260

> <i_lp_mmshare_version>
43012

> <i_f3d_flags>
0

> <s_epik_input>
W0NIM11jMVtjSF1zYyg9TyluMVtDSDJdW0NIMl1bTkhdW0NAQEhdKEMyKFtDSDNdKVtDSDNdKVtDSDJdW0NIMl1bQ0gyXVtDSDJdMg==

> <s_epik_cmdline>
J2VwaWtfcHl0aG9uJywgJy1waCcsICc3LjAnLCAnLXRuJywgJzgnLCAnLW1hJywgJzIwMCcsICctbWV0YWxfYmluZGluZycsICctaW1hZScsICc8aW5maWxlLm1hZT4nLCAnLW9tYWUnLCAnPG91dGZpbGUubWFlPic=

> <r_epik_Ionization_Penalty>
0.0114277

> <r_epik_Ionization_Penalty_Charging>
0.0114277

> <r_epik_Ionization_Penalty_Neutral>
2.57259e-08

> <r_epik_State_Penalty>
0.0087935

> <r_epik_Charging_Adjusted_Penalty>
0.0202212

> <i_epik_Tot_Q>
1

> <i_epik_Tot_abs_Q>
1

> <r_epik_Metal_State_Penalty>
0.0087935

> <b_epik_Metal_Only>
0

> <s_lp_Force_Field>
OPLS_2005

> <r_lp_Energy>
26.3159

> <b_lp_Chiralities_Consistent>
1

> <s_lp_Variant>
AV-unprocessed.smi:2260-2

> <Gold.Version>
5.8.1

> <Gold.Id.Protein>
6NUR|6NUR_protein|mol2

> <Gold.PLP.Fitness>
48.1059

> <Gold.PLP.PLP>
-40.8512

> <Gold.PLP.part.hbond>
-2.0000

> <Gold.PLP.part.metal>
0.0000

> <Gold.PLP.part.buried>
-0.8916

> <Gold.PLP.part.nonpolar>
-36.4639

> <Gold.PLP.part.repulsive>
0.1866

> <Gold.PLP.ligand.clash>
0.0000

> <Gold.PLP.ligand.torsion>
0.7120

> <Gold.PLP.Chemscore.Hbond>
2.8882

> <Gold.PLP.Chemscore.CHOScore>
0.0000

> <Gold.PLP.Chemscore.Metal>
0.0000

> <Gold.Chemscore.Hbonds>
donor molecule, donor type, donor heavy atom, donor atom, acceptor molecule, acceptor atom, score
      L1  H    10    27       P1  8028  2.00
      P1  H  7997  8009       L1     6  0.79

> <Gold.PLP.Chemscore.Internal.Correction>
0.0143

> <Gold.Rescore>
     Score         DG    S(hbond)    S(metal)    S(lipo)     H(rot)  DE(clash)    DE(int)     intcor
     17.75     -19.89       1.71        0.00     106.62       1.48       0.07       2.07       ----

> <Gold.Chemscore.Fitness>
17.7529

> <Gold.Chemscore.DG>
-19.8880

> <Gold.Chemscore.ZeroCoef>
-5.4800

> <Gold.Chemscore.Hbond>
1.7122

> <Gold.Chemscore.Metal>
0.0000

> <Gold.Chemscore.Lipo>
106.6168

> <Gold.Chemscore.Internal_Hbond>
0.0000

> <Gold.Chemscore.DEClash>
0.0676

> <Gold.Chemscore.DEInternal>
2.0674

> <Gold.Chemscore.Rot>
1.4785

> <Gold.Chemscore.Internal.Correction>
   9.000000E+99

> <Gold.Chemscore.Hbonds>
donor molecule, donor type, donor heavy atom, donor atom, acceptor molecule, acceptor atom, score
      L1  H    10    27       P1  8028  0.94
      P1  H  7997  8009       L1     6  0.71

> <Gold.Chemscore.Hbond.Weighted>
-5.7188

> <Gold.Chemscore.Metal.Weighted>
-0.0000

> <Gold.Chemscore.Lipo.Weighted>
-12.4742

> <Gold.Chemscore.Internal_Hbond.Weighted>
0.0000

> <Gold.Chemscore.DEClash.Weighted>
0.0676

> <Gold.Chemscore.DEInternal.Weighted>
2.0674

> <Gold.Chemscore.Rot.Weighted>
3.7850

> <Gold.Chemscore.Internal.Correction.Weighted>
   9.000000E+99

> <Gold.Protein.RotatedTorsions>
[ 6907 6896 6895 6894 ] final  -95.43 input  -60.11 | X-H torsion
[ 7974 7965 7964 7962 ] final -170.01 input  175.53 | X-H torsion
[ 8008 7997 7996 7995 ] final  168.96 input   59.86 | X-H torsion
[ 10167 10162 10161 10158 ] final   48.80 input  -65.29 | X-H torsion
[ 10718 10713 10712 10709 ] final -124.41 input   66.30 | X-H torsion
[ 10763 10752 10751 10750 ] final  -74.40 input  -60.55 | X-H torsion
[ 11005 11000 10999 10996 ] final   15.55 input  -57.11 | X-H torsion

> <Gold.Protein.ActiveResidues>
 VAL166  LYS551  ARG553  GLY616  TRP617  ASP618  TYR619  PRO620  LYS621  CYS622 
 ASP623  PHE694  ASN695  SER759  ASP760  ASP761  ALA762  ILE779  LEU786  VAL792 
 PHE793  MET794  SER795  GLU796  ALA797  LYS798  CYS799  TRP800  GLU811  SER814 

> <Gold.Protein.RotatedAtoms>
  150.6964  134.1659  159.4193 H   0  0  0  0  0  0  0  0  0  0  0  0  # atno 6907 bound_to 6896
  151.9638  135.0108  160.0558 H   0  0  0  0  0  0  0  0  0  0  0  0  # atno 6908 bound_to 6896
  152.1903  133.4733  159.5041 H   0  0  0  0  0  0  0  0  0  0  0  0  # atno 6909 bound_to 6896
  144.7176  140.2136  143.6324 H   0  0  0  0  0  0  0  0  0  0  0  0  # atno 7974 bound_to 7965
  156.1500  140.1577  156.8785 H   0  0  0  0  0  0  0  0  0  0  0  0  # atno 8008 bound_to 7997
  154.5063  140.0812  156.7937 H   0  0  0  0  0  0  0  0  0  0  0  0  # atno 8009 bound_to 7997
  155.3914  140.3410  155.4254 H   0  0  0  0  0  0  0  0  0  0  0  0  # atno 8010 bound_to 7997
  140.2895  144.3063  150.6244 H   0  0  0  0  0  0  0  0  0  0  0  0  # atno 10167 bound_to 10162
  156.1585  130.6585  151.0016 H   0  0  0  0  0  0  0  0  0  0  0  0  # atno 10718 bound_to 10713
  154.4726  135.5865  153.6332 H   0  0  0  0  0  0  0  0  0  0  0  0  # atno 10763 bound_to 10752
  152.9836  135.6070  154.3347 H   0  0  0  0  0  0  0  0  0  0  0  0  # atno 10764 bound_to 10752
  154.3231  135.2843  155.2489 H   0  0  0  0  0  0  0  0  0  0  0  0  # atno 10765 bound_to 10752
  140.4570  134.1166  155.7711 H   0  0  0  0  0  0  0  0  0  0  0  0  # atno 11005 bound_to 11000
  145.8568  139.2202  143.1740 LP  0  0  0  0  0  0  0  0  0  0  0  0  # atno 17320 bound_to 7965
  146.0210  140.8348  142.9923 LP  0  0  0  0  0  0  0  0  0  0  0  0  # atno 17321 bound_to 7965
  140.5744  143.2178  151.7541 LP  0  0  0  0  0  0  0  0  0  0  0  0  # atno 17342 bound_to 10162
  139.4942  144.4170  152.0019 LP  0  0  0  0  0  0  0  0  0  0  0  0  # atno 17343 bound_to 10162
  157.6714  131.0860  150.7603 LP  0  0  0  0  0  0  0  0  0  0  0  0  # atno 17370 bound_to 10713
  156.7667  130.4816  149.5426 LP  0  0  0  0  0  0  0  0  0  0  0  0  # atno 17371 bound_to 10713
  141.1638  133.8742  157.1772 LP  0  0  0  0  0  0  0  0  0  0  0  0  # atno 17394 bound_to 11000
  139.9969  135.0043  157.0104 LP  0  0  0  0  0  0  0  0  0  0  0  0  # atno 17395 bound_to 11000

$$$$
