AV-unprocessed.smi:69|AV-procd|sdf|652|dock6
  -GOLD-   2262016553D 1   1.00000     0.00000
 Structure written by MMmdl.
 32 34  0  0  0  0  0  0  0  0  1 V2000
  145.6076  131.0751  152.4969 N   0  0  0  0  0  0  0  0  0  0  0  0
  145.2411  132.2629  151.9964 C   0  0  0  0  0  0  0  0  0  0  0  0
  144.4000  132.2825  150.9354 N   0  0  0  0  0  0  0  0  0  0  0  0
  144.0169  133.4554  150.4195 C   0  0  0  0  0  0  0  0  0  0  0  0
  144.3542  134.6893  150.8059 N   0  0  0  0  0  0  0  0  0  0  0  0
  145.2050  134.6644  151.8736 C   0  0  0  0  0  0  0  0  0  0  0  0
  145.6905  133.4987  152.5264 C   0  0  0  0  0  0  0  0  0  0  0  0
  146.5225  133.8595  153.5774 N   0  0  0  0  0  0  0  0  0  0  0  0
  146.5217  135.1660  153.5457 C   0  0  0  0  0  0  0  0  0  0  0  0
  145.7686  135.7330  152.5370 N   0  0  0  0  0  0  0  0  0  0  0  0
  145.5298  137.1787  152.2185 C   0  0  1  0  0  0  0  0  0  0  0  0
  145.1748  137.8433  153.3909 O   0  0  0  0  0  0  0  0  0  0  0  0
  146.3470  138.3519  154.0137 C   0  0  2  0  0  0  0  0  0  0  0  0
  145.9725  139.4620  155.0067 C   0  0  0  0  0  0  0  0  0  0  0  0
  145.4552  140.5769  154.3123 O   0  0  0  0  0  0  0  0  0  0  0  0
  147.1561  138.8489  152.8120 C   0  0  1  0  0  0  0  0  0  0  0  0
  148.5379  138.8317  153.1106 O   0  0  0  0  0  0  0  0  0  0  0  0
  146.8285  137.8384  151.7132 C   0  0  2  0  0  0  0  0  0  0  0  0
  146.6329  138.4967  150.4782 O   0  0  0  0  0  0  0  0  0  0  0  0
  144.7073  137.1642  151.5017 H   0  0  0  0  0  0  0  0  0  0  0  0
  146.8836  137.5432  154.5138 H   0  0  0  0  0  0  0  0  0  0  0  0
  146.8373  139.8540  152.5305 H   0  0  0  0  0  0  0  0  0  0  0  0
  147.6146  137.0888  151.6057 H   0  0  0  0  0  0  0  0  0  0  0  0
  146.2329  131.0365  153.2890 H   0  0  0  0  0  0  0  0  0  0  0  0
  145.2605  130.2232  152.0810 H   0  0  0  0  0  0  0  0  0  0  0  0
  143.3442  133.3970  149.5766 H   0  0  0  0  0  0  0  0  0  0  0  0
  147.0765  135.7493  154.2661 H   0  0  0  0  0  0  0  0  0  0  0  0
  145.1953  139.1106  155.6860 H   0  0  0  0  0  0  0  0  0  0  0  0
  146.8278  139.7557  155.6161 H   0  0  0  0  0  0  0  0  0  0  0  0
  144.9543  140.2650  153.5742 H   0  0  0  0  0  0  0  0  0  0  0  0
  148.9817  139.4029  152.5020 H   0  0  0  0  0  0  0  0  0  0  0  0
  145.7131  138.4582  150.2632 H   0  0  0  0  0  0  0  0  0  0  0  0
  1  2  1  0  0  0  0
  1 24  1  0  0  0  0
  1 25  1  0  0  0  0
  2  7  1  0  0  0  0
  2  3  2  0  0  0  0
  3  4  1  0  0  0  0
  4  5  2  0  0  0  0
  4 26  1  0  0  0  0
  5  6  1  0  0  0  0
  6 10  1  0  0  0  0
  6  7  2  0  0  0  0
  7  8  1  0  0  0  0
  8  9  2  0  0  0  0
  9 10  1  0  0  0  0
  9 27  1  0  0  0  0
 10 11  1  0  0  0  0
 11 20  1  0  0  0  0
 11 18  1  0  0  0  0
 11 12  1  0  0  0  0
 12 13  1  0  0  0  0
 13 21  1  0  0  0  0
 13 14  1  0  0  0  0
 13 16  1  0  0  0  0
 14 15  1  0  0  0  0
 14 28  1  0  0  0  0
 14 29  1  0  0  0  0
 15 30  1  0  0  0  0
 16 22  1  0  0  0  0
 16 17  1  0  0  0  0
 16 18  1  0  0  0  0
 17 31  1  0  0  0  0
 18 23  1  0  0  0  0
 18 19  1  0  0  0  0
 19 32  1  0  0  0  0
M  END
> <s_m_source_file>
AV-unprocessed.smi

> <i_m_source_file_index>
69

> <i_lp_mmshare_version>
43012

> <i_f3d_flags>
0

> <s_epik_input>
bjFbY0hdbmMoW05IMl0pYyhjMTIpbltjSF1uMltDQEBIXTNPW0NASF0oW0NIMl1bT0hdKVtDQEBIXShbT0hdKVtDQEhdM1tPSF0=

> <s_epik_cmdline>
J2VwaWtfcHl0aG9uJywgJy1waCcsICc3LjAnLCAnLXRuJywgJzgnLCAnLW1hJywgJzIwMCcsICctbWV0YWxfYmluZGluZycsICctaW1hZScsICc8aW5maWxlLm1hZT4nLCAnLW9tYWUnLCAnPG91dGZpbGUubWFlPic=

> <r_lp_tautomer_probability>
1

> <r_epik_Ionization_Penalty>
0.000428445

> <r_epik_Ionization_Penalty_Charging>
0

> <r_epik_Ionization_Penalty_Neutral>
0.000428445

> <r_epik_State_Penalty>
-0

> <r_epik_Charging_Adjusted_Penalty>
0

> <i_epik_Tot_Q>
0

> <i_epik_Tot_abs_Q>
0

> <r_epik_Metal_State_Penalty>
-0

> <b_epik_Metal_Only>
0

> <s_epik_Chemistry_Notes>
This compound contains an acetal/aminal-like group ( X-CH(R)-Y where X, Y are N, S, or O) that may be acid/base labile, releasing an aldehyde.

> <s_lp_Force_Field>
OPLS_2005

> <r_lp_Energy>
31.7018

> <b_lp_Chiralities_Consistent>
1

> <s_lp_Variant>
AV-unprocessed.smi:69-10

> <Gold.Version>
5.8.1

> <Gold.Id.Protein>
6NUR|6NUR_protein|mol2

> <Gold.PLP.Fitness>
34.8356

> <Gold.PLP.PLP>
-22.3339

> <Gold.PLP.part.hbond>
-5.0000

> <Gold.PLP.part.metal>
0.0000

> <Gold.PLP.part.buried>
-1.3711

> <Gold.PLP.part.nonpolar>
-16.5361

> <Gold.PLP.part.repulsive>
0.6087

> <Gold.PLP.ligand.clash>
0.0000

> <Gold.PLP.ligand.torsion>
0.2030

> <Gold.PLP.Chemscore.Hbond>
3.4000

> <Gold.PLP.Chemscore.CHOScore>
0.8924

> <Gold.PLP.Chemscore.Metal>
0.0000

> <Gold.Chemscore.Hbonds>
donor molecule, donor type, donor heavy atom, donor atom, acceptor molecule, acceptor atom, score
      L1  H    15    30       P1 10175  0.98
      L1  H    17    31       P1  7957  1.00
      L1  H    19    32       P1 10171  1.00
      P1  H  7954  7966       L1    19  0.44
      L1  C     4    26       P1 10186  0.84

> <Gold.PLP.Chemscore.Internal.Correction>
0.0304

> <Gold.Rescore>
     Score         DG    S(hbond)    S(metal)    S(lipo)     H(rot)  DE(clash)    DE(int)     intcor
      7.00      -7.58       2.94        0.00      22.00       4.03       0.43       0.14       ----

> <Gold.Chemscore.Fitness>
7.0030

> <Gold.Chemscore.DG>
-7.5757

> <Gold.Chemscore.ZeroCoef>
-5.4800

> <Gold.Chemscore.Hbond>
2.9440

> <Gold.Chemscore.Metal>
0.0000

> <Gold.Chemscore.Lipo>
21.9977

> <Gold.Chemscore.Internal_Hbond>
0.0000

> <Gold.Chemscore.DEClash>
0.4298

> <Gold.Chemscore.DEInternal>
0.1430

> <Gold.Chemscore.Rot>
4.0277

> <Gold.Chemscore.Internal.Correction>
   9.000000E+99

> <Gold.Chemscore.Hbonds>
donor molecule, donor type, donor heavy atom, donor atom, acceptor molecule, acceptor atom, score
      L1  H    15    30       P1 10175  0.93
      L1  H    17    31       P1  7957  0.98
      L1  H    19    32       P1 10171  1.00
      P1  H  7954  7966       L1    19  0.02

> <Gold.Chemscore.Hbond.Weighted>
-9.8330

> <Gold.Chemscore.Metal.Weighted>
-0.0000

> <Gold.Chemscore.Lipo.Weighted>
-2.5737

> <Gold.Chemscore.Internal_Hbond.Weighted>
0.0000

> <Gold.Chemscore.DEClash.Weighted>
0.4298

> <Gold.Chemscore.DEInternal.Weighted>
0.1430

> <Gold.Chemscore.Rot.Weighted>
10.3110

> <Gold.Chemscore.Internal.Correction.Weighted>
   9.000000E+99

> <Gold.Protein.RotatedTorsions>
[ 6907 6896 6895 6894 ] final  -56.87 input  -60.11 | X-H torsion
[ 7974 7965 7964 7962 ] final   12.99 input  175.53 | X-H torsion
[ 8008 7997 7996 7995 ] final   61.26 input   59.86 | X-H torsion
[ 10167 10162 10161 10158 ] final   86.51 input  -65.29 | X-H torsion
[ 10718 10713 10712 10709 ] final    0.12 input   66.30 | X-H torsion
[ 10763 10752 10751 10750 ] final  -88.02 input  -60.55 | X-H torsion
[ 11005 11000 10999 10996 ] final  -87.15 input  -57.11 | X-H torsion

> <Gold.Protein.ActiveResidues>
 VAL166  LYS551  ARG553  GLY616  TRP617  ASP618  TYR619  PRO620  LYS621  CYS622 
 ASP623  PHE694  ASN695  SER759  ASP760  ASP761  ALA762  ILE779  LEU786  VAL792 
 PHE793  MET794  SER795  GLU796  ALA797  LYS798  CYS799  TRP800  GLU811  SER814 

> <Gold.Protein.RotatedAtoms>
  150.8132  134.7299  159.6706 H   0  0  0  0  0  0  0  0  0  0  0  0  # atno 6907 bound_to 6896
  152.4252  134.5878  159.9975 H   0  0  0  0  0  0  0  0  0  0  0  0  # atno 6908 bound_to 6896
  151.6082  133.3312  159.3098 H   0  0  0  0  0  0  0  0  0  0  0  0  # atno 6909 bound_to 6896
  146.2339  139.9255  142.8504 H   0  0  0  0  0  0  0  0  0  0  0  0  # atno 7974 bound_to 7965
  155.5954  140.3493  155.4578 H   0  0  0  0  0  0  0  0  0  0  0  0  # atno 8008 bound_to 7997
  156.0269  140.1266  157.0324 H   0  0  0  0  0  0  0  0  0  0  0  0  # atno 8009 bound_to 7997
  154.4337  140.1051  156.6029 H   0  0  0  0  0  0  0  0  0  0  0  0  # atno 8010 bound_to 7997
  139.8868  144.6409  150.8783 H   0  0  0  0  0  0  0  0  0  0  0  0  # atno 10167 bound_to 10162
  156.8286  130.5481  149.5689 H   0  0  0  0  0  0  0  0  0  0  0  0  # atno 10718 bound_to 10713
  154.6400  135.5392  153.7778 H   0  0  0  0  0  0  0  0  0  0  0  0  # atno 10763 bound_to 10752
  153.0328  135.6457  154.1175 H   0  0  0  0  0  0  0  0  0  0  0  0  # atno 10764 bound_to 10752
  154.1099  135.2927  155.3213 H   0  0  0  0  0  0  0  0  0  0  0  0  # atno 10765 bound_to 10752
  141.1621  133.7495  156.9264 H   0  0  0  0  0  0  0  0  0  0  0  0  # atno 11005 bound_to 11000
  145.2095  140.9889  143.4109 LP  0  0  0  0  0  0  0  0  0  0  0  0  # atno 17320 bound_to 7965
  144.9704  139.3886  143.6312 LP  0  0  0  0  0  0  0  0  0  0  0  0  # atno 17321 bound_to 7965
  140.7734  143.3542  151.1954 LP  0  0  0  0  0  0  0  0  0  0  0  0  # atno 17342 bound_to 10162
  139.7146  143.9321  152.2961 LP  0  0  0  0  0  0  0  0  0  0  0  0  # atno 17343 bound_to 10162
  156.0947  130.5923  150.9793 LP  0  0  0  0  0  0  0  0  0  0  0  0  # atno 17370 bound_to 10713
  157.6419  131.0909  150.8234 LP  0  0  0  0  0  0  0  0  0  0  0  0  # atno 17371 bound_to 10713
  140.1416  134.9290  157.2474 LP  0  0  0  0  0  0  0  0  0  0  0  0  # atno 17394 bound_to 11000
  140.2830  134.3328  155.7337 LP  0  0  0  0  0  0  0  0  0  0  0  0  # atno 17395 bound_to 11000

$$$$
