AV-unprocessed.smi:3329|AV-procd|sdf|12797|dock9
  -GOLD-   2272019153D 1   1.00000     0.00000
 Structure written by MMmdl.
 41 42  0  0  0  0  0  0  0  0  1 V2000
  151.6033  140.0595  156.0320 C   0  0  0  0  0  0  0  0  0  0  0  0
  150.3005  140.3622  155.3496 C   0  0  0  0  0  0  0  0  0  0  0  0
  149.4592  139.4658  154.6307 C   0  0  0  0  0  0  0  0  0  0  0  0
  148.3741  140.0514  154.1503 N   0  0  0  0  0  0  0  0  0  0  0  0
  148.4851  141.3381  154.5425 N   0  0  0  0  0  0  0  0  0  0  0  0
  147.4507  142.2909  154.1908 C   0  0  0  0  0  0  0  0  0  0  0  0
  146.1612  142.0461  154.9880 C   0  0  0  0  0  0  0  0  0  0  0  0
  146.1804  142.8558  156.1961 N   0  0  0  0  0  0  0  0  0  0  0  0
  146.9576  142.1975  157.2497 C   0  0  0  0  0  0  0  0  0  0  0  0
  146.4526  142.5908  158.6361 C   0  0  0  0  0  0  0  0  0  0  0  0
  145.9729  141.7342  159.3773 O   0  0  0  0  0  0  0  0  0  0  0  0
  146.5795  143.8863  158.9708 N   0  0  0  0  0  0  0  0  0  0  0  0
  146.2004  144.5368  160.2280 C   0  0  1  0  0  0  0  0  0  0  0  0
  147.4148  144.5707  161.1775 C   0  0  0  0  0  0  0  0  0  0  0  0
  145.8491  145.9329  159.9078 C   0  0  0  0  0  0  0  0  0  0  0  0
  145.5707  147.0275  159.6546 N   0  0  0  0  0  0  0  0  0  0  0  0
  145.0171  143.8618  160.9311 C   0  0  0  0  0  0  0  0  0  0  0  0
  144.7446  144.0208  162.4100 C   0  0  0  0  0  0  0  0  0  0  0  0
  145.1936  142.6834  161.8629 C   0  0  0  0  0  0  0  0  0  0  0  0
  149.6380  141.5542  155.2664 C   0  0  0  0  0  0  0  0  0  0  0  0
  151.7885  138.9871  156.0957 H   0  0  0  0  0  0  0  0  0  0  0  0
  151.6250  140.4492  157.0499 H   0  0  0  0  0  0  0  0  0  0  0  0
  152.4467  140.5001  155.5003 H   0  0  0  0  0  0  0  0  0  0  0  0
  149.6039  138.4113  154.4463 H   0  0  0  0  0  0  0  0  0  0  0  0
  147.8298  143.2961  154.3802 H   0  0  0  0  0  0  0  0  0  0  0  0
  147.2609  142.2204  153.1185 H   0  0  0  0  0  0  0  0  0  0  0  0
  145.2904  142.3046  154.3833 H   0  0  0  0  0  0  0  0  0  0  0  0
  146.0788  140.9900  155.2497 H   0  0  0  0  0  0  0  0  0  0  0  0
  145.2307  143.0302  156.4928 H   0  0  0  0  0  0  0  0  0  0  0  0
  146.9075  141.1141  157.1249 H   0  0  0  0  0  0  0  0  0  0  0  0
  148.0077  142.4829  157.1704 H   0  0  0  0  0  0  0  0  0  0  0  0
  146.9888  144.4940  158.2758 H   0  0  0  0  0  0  0  0  0  0  0  0
  147.1898  145.1414  162.0790 H   0  0  0  0  0  0  0  0  0  0  0  0
  148.2770  145.0402  160.7024 H   0  0  0  0  0  0  0  0  0  0  0  0
  147.7149  143.5722  161.4963 H   0  0  0  0  0  0  0  0  0  0  0  0
  144.1294  143.7976  160.3054 H   0  0  0  0  0  0  0  0  0  0  0  0
  145.4566  144.5839  163.0096 H   0  0  0  0  0  0  0  0  0  0  0  0
  143.7054  144.1136  162.7185 H   0  0  0  0  0  0  0  0  0  0  0  0
  144.4523  141.8887  161.8067 H   0  0  0  0  0  0  0  0  0  0  0  0
  146.2038  142.3563  162.0999 H   0  0  0  0  0  0  0  0  0  0  0  0
  149.8880  142.5281  155.6603 H   0  0  0  0  0  0  0  0  0  0  0  0
  1  2  1  0  0  0  0
  1 21  1  0  0  0  0
  1 22  1  0  0  0  0
  1 23  1  0  0  0  0
  2 20  2  0  0  0  0
  2  3  1  0  0  0  0
  3  4  2  0  0  0  0
  3 24  1  0  0  0  0
  4  5  1  0  0  0  0
  5  6  1  0  0  0  0
  5 20  1  0  0  0  0
  6  7  1  0  0  0  0
  6 25  1  0  0  0  0
  6 26  1  0  0  0  0
  7  8  1  0  0  0  0
  7 27  1  0  0  0  0
  7 28  1  0  0  0  0
  8  9  1  0  0  0  0
  8 29  1  0  0  0  0
  9 10  1  0  0  0  0
  9 30  1  0  0  0  0
  9 31  1  0  0  0  0
 10 11  2  0  0  0  0
 10 12  1  0  0  0  0
 12 13  1  0  0  0  0
 12 32  1  0  0  0  0
 13 14  1  0  0  0  0
 13 15  1  0  0  0  0
 13 17  1  0  0  0  0
 14 33  1  0  0  0  0
 14 34  1  0  0  0  0
 14 35  1  0  0  0  0
 15 16  3  0  0  0  0
 17 19  1  0  0  0  0
 17 18  1  0  0  0  0
 17 36  1  0  0  0  0
 18 19  1  0  0  0  0
 18 37  1  0  0  0  0
 18 38  1  0  0  0  0
 19 39  1  0  0  0  0
 19 40  1  0  0  0  0
 20 41  1  0  0  0  0
M  END
> <s_m_source_file>
AV-unprocessed.smi

> <i_m_source_file_index>
3329

> <i_lp_mmshare_version>
43012

> <i_f3d_flags>
0

> <s_epik_input>
W0NIM11jMVtjSF1ubihbY0hdMSlbQ0gyXVtDSDJdW05IXVtDSDJdQyg9TylbTkhdW0NAQF0oW0NIM10pKEMjTilbQ0hdMltDSDJdW0NIMl0y

> <s_epik_cmdline>
J2VwaWtfcHl0aG9uJywgJy1waCcsICc3LjAnLCAnLXRuJywgJzgnLCAnLW1hJywgJzIwMCcsICctbWV0YWxfYmluZGluZycsICctaW1hZScsICc8aW5maWxlLm1hZT4nLCAnLW9tYWUnLCAnPG91dGZpbGUubWFlPic=

> <r_lp_tautomer_probability>
1

> <r_epik_Ionization_Penalty>
0.481866

> <r_epik_Ionization_Penalty_Charging>
0

> <r_epik_Ionization_Penalty_Neutral>
0.481866

> <r_epik_State_Penalty>
0.48398

> <r_epik_Charging_Adjusted_Penalty>
0.48398

> <i_epik_Tot_Q>
0

> <i_epik_Tot_abs_Q>
0

> <r_epik_Metal_State_Penalty>
0.5042

> <b_epik_Metal_Only>
0

> <s_lp_Force_Field>
OPLS_2005

> <r_lp_Energy>
12.8497

> <b_lp_Chiralities_Consistent>
1

> <s_lp_Variant>
AV-unprocessed.smi:3329-3

> <Gold.Version>
5.8.1

> <Gold.Id.Protein>
6NUR|6NUR_protein|mol2

> <Gold.PLP.Fitness>
44.1216

> <Gold.PLP.PLP>
-37.4044

> <Gold.PLP.part.hbond>
-2.2815

> <Gold.PLP.part.metal>
0.0000

> <Gold.PLP.part.buried>
-2.7622

> <Gold.PLP.part.nonpolar>
-32.5749

> <Gold.PLP.part.repulsive>
0.3376

> <Gold.PLP.ligand.clash>
0.0000

> <Gold.PLP.ligand.torsion>
1.9533

> <Gold.PLP.Chemscore.Hbond>
2.0000

> <Gold.PLP.Chemscore.CHOScore>
1.0000

> <Gold.PLP.Chemscore.Metal>
0.0000

> <Gold.Chemscore.Hbonds>
donor molecule, donor type, donor heavy atom, donor atom, acceptor molecule, acceptor atom, score
      L1  H    12    32       P1  8029  1.00
      P1  H  6934  6946       L1    11  1.00
      L1  C    20    41       P1  8028  1.00

> <Gold.PLP.Chemscore.Internal.Correction>
1.6238

> <Gold.Rescore>
     Score         DG    S(hbond)    S(metal)    S(lipo)     H(rot)  DE(clash)    DE(int)     intcor
      9.75     -14.05       1.88        0.00      70.04       2.31       0.06       4.23       ----

> <Gold.Chemscore.Fitness>
9.7528

> <Gold.Chemscore.DG>
-14.0477

> <Gold.Chemscore.ZeroCoef>
-5.4800

> <Gold.Chemscore.Hbond>
1.8845

> <Gold.Chemscore.Metal>
0.0000

> <Gold.Chemscore.Lipo>
70.0385

> <Gold.Chemscore.Internal_Hbond>
0.0000

> <Gold.Chemscore.DEClash>
0.0633

> <Gold.Chemscore.DEInternal>
4.2316

> <Gold.Chemscore.Rot>
2.3129

> <Gold.Chemscore.Internal.Correction>
   9.000000E+99

> <Gold.Chemscore.Hbonds>
donor molecule, donor type, donor heavy atom, donor atom, acceptor molecule, acceptor atom, score
      L1  H    12    32       P1  8029  0.81
      P1  H  6934  6946       L1    11  0.96

> <Gold.Chemscore.Hbond.Weighted>
-6.2943

> <Gold.Chemscore.Metal.Weighted>
-0.0000

> <Gold.Chemscore.Lipo.Weighted>
-8.1945

> <Gold.Chemscore.Internal_Hbond.Weighted>
0.0000

> <Gold.Chemscore.DEClash.Weighted>
0.0633

> <Gold.Chemscore.DEInternal.Weighted>
4.2316

> <Gold.Chemscore.Rot.Weighted>
5.9211

> <Gold.Chemscore.Internal.Correction.Weighted>
   9.000000E+99

> <Gold.Protein.RotatedTorsions>
[ 6907 6896 6895 6894 ] final -115.68 input  -60.11 | X-H torsion
[ 7974 7965 7964 7962 ] final  101.68 input  175.53 | X-H torsion
[ 8008 7997 7996 7995 ] final  -99.51 input   59.86 | X-H torsion
[ 10167 10162 10161 10158 ] final  -35.12 input  -65.29 | X-H torsion
[ 10718 10713 10712 10709 ] final -141.15 input   66.30 | X-H torsion
[ 10763 10752 10751 10750 ] final   83.69 input  -60.55 | X-H torsion
[ 11005 11000 10999 10996 ] final  -52.18 input  -57.11 | X-H torsion

> <Gold.Protein.ActiveResidues>
 VAL166  LYS551  ARG553  GLY616  TRP617  ASP618  TYR619  PRO620  LYS621  CYS622 
 ASP623  PHE694  ASN695  SER759  ASP760  ASP761  ALA762  ILE779  LEU786  VAL792 
 PHE793  MET794  SER795  GLU796  ALA797  LYS798  CYS799  TRP800  GLU811  SER814 

> <Gold.Protein.RotatedAtoms>
  150.7997  133.8623  159.3235 H   0  0  0  0  0  0  0  0  0  0  0  0  # atno 6907 bound_to 6896
  151.6439  135.1008  160.0156 H   0  0  0  0  0  0  0  0  0  0  0  0  # atno 6908 bound_to 6896
  152.4083  133.6883  159.6410 H   0  0  0  0  0  0  0  0  0  0  0  0  # atno 6909 bound_to 6896
  145.3691  139.2402  143.3465 H   0  0  0  0  0  0  0  0  0  0  0  0  # atno 7974 bound_to 7965
  154.8158  140.0447  157.1375 H   0  0  0  0  0  0  0  0  0  0  0  0  # atno 8008 bound_to 7997
  154.9316  140.3040  155.5145 H   0  0  0  0  0  0  0  0  0  0  0  0  # atno 8009 bound_to 7997
  156.2976  140.2322  156.4376 H   0  0  0  0  0  0  0  0  0  0  0  0  # atno 8010 bound_to 7997
  140.7171  143.3499  151.2177 H   0  0  0  0  0  0  0  0  0  0  0  0  # atno 10167 bound_to 10162
  156.3307  130.7584  151.1701 H   0  0  0  0  0  0  0  0  0  0  0  0  # atno 10718 bound_to 10713
  153.1314  135.4682  154.9354 H   0  0  0  0  0  0  0  0  0  0  0  0  # atno 10763 bound_to 10752
  154.7667  135.3147  154.8274 H   0  0  0  0  0  0  0  0  0  0  0  0  # atno 10764 bound_to 10752
  153.8815  135.6894  153.4820 H   0  0  0  0  0  0  0  0  0  0  0  0  # atno 10765 bound_to 10752
  141.0911  133.6632  156.3986 H   0  0  0  0  0  0  0  0  0  0  0  0  # atno 11005 bound_to 11000
  146.2893  140.4339  142.8745 LP  0  0  0  0  0  0  0  0  0  0  0  0  # atno 17320 bound_to 7965
  144.8589  140.7111  143.6120 LP  0  0  0  0  0  0  0  0  0  0  0  0  # atno 17321 bound_to 7965
  139.7027  143.9505  152.2913 LP  0  0  0  0  0  0  0  0  0  0  0  0  # atno 17342 bound_to 10162
  139.9204  144.6803  150.8467 LP  0  0  0  0  0  0  0  0  0  0  0  0  # atno 17343 bound_to 10162
  157.7430  131.0482  150.4983 LP  0  0  0  0  0  0  0  0  0  0  0  0  # atno 17370 bound_to 10713
  156.5149  130.4148  149.6281 LP  0  0  0  0  0  0  0  0  0  0  0  0  # atno 17371 bound_to 10713
  140.5251  134.6267  157.5331 LP  0  0  0  0  0  0  0  0  0  0  0  0  # atno 17394 bound_to 11000
  139.9737  134.7251  155.9992 LP  0  0  0  0  0  0  0  0  0  0  0  0  # atno 17395 bound_to 11000

$$$$
