AV-unprocessed.smi:2526|AV-procd|sdf|9938|dock7
  -GOLD-   2272013583D 1   1.00000     0.00000
 Structure written by MMmdl.
 28 29  0  0  0  0  0  0  0  0  1 V2000
  151.2482  144.8695  159.8563 C   0  0  0  0  0  0  0  0  0  0  0  0
  151.2478  143.7221  158.9742 N   0  0  0  0  0  0  0  0  0  0  0  0
  151.0742  143.6895  157.6077 C   0  0  0  0  0  0  0  0  0  0  0  0
  151.1608  142.3843  157.2098 C   0  0  0  0  0  0  0  0  0  0  0  0
  151.0476  141.8194  155.8130 C   0  0  2  0  0  0  0  0  0  0  0  0
  149.7970  142.2511  155.1810 N   0  0  0  0  0  0  0  0  0  0  0  0
  149.0019  141.5272  154.3727 C   0  0  0  0  0  0  0  0  0  0  0  0
  147.9984  142.0138  153.8568 O   0  0  0  0  0  0  0  0  0  0  0  0
  149.3406  140.0517  154.1173 C   0  0  0  0  0  0  0  0  0  0  0  0
  150.7955  139.6960  154.4562 C   0  0  0  0  0  0  0  0  0  0  0  0
  151.1890  140.2784  155.8185 C   0  0  1  0  0  0  0  0  0  0  0  0
  152.5462  139.8797  156.1460 N   0  0  0  0  0  0  0  0  0  0  0  0
  151.3950  141.6883  158.4322 C   0  0  0  0  0  0  0  0  0  0  0  0
  151.4458  142.4895  159.4833 N   0  0  0  0  0  0  0  0  0  0  0  0
  150.7444  145.7085  159.3759 H   0  0  0  0  0  0  0  0  0  0  0  0
  152.2754  145.1543  160.0844 H   0  0  0  0  0  0  0  0  0  0  0  0
  150.7275  144.6305  160.7844 H   0  0  0  0  0  0  0  0  0  0  0  0
  150.9081  144.5896  157.0341 H   0  0  0  0  0  0  0  0  0  0  0  0
  151.8401  142.2322  155.1864 H   0  0  0  0  0  0  0  0  0  0  0  0
  149.5279  143.2105  155.3450 H   0  0  0  0  0  0  0  0  0  0  0  0
  148.6667  139.4488  154.7270 H   0  0  0  0  0  0  0  0  0  0  0  0
  149.1272  139.8031  153.0769 H   0  0  0  0  0  0  0  0  0  0  0  0
  150.9121  138.6115  154.4589 H   0  0  0  0  0  0  0  0  0  0  0  0
  151.4581  140.0779  153.6777 H   0  0  0  0  0  0  0  0  0  0  0  0
  150.5262  139.8589  156.5772 H   0  0  0  0  0  0  0  0  0  0  0  0
  152.6861  139.9462  157.1440 H   0  0  0  0  0  0  0  0  0  0  0  0
  152.6816  138.9089  155.9026 H   0  0  0  0  0  0  0  0  0  0  0  0
  151.5317  140.6277  158.5848 H   0  0  0  0  0  0  0  0  0  0  0  0
  1  2  1  0  0  0  0
  1 15  1  0  0  0  0
  1 16  1  0  0  0  0
  1 17  1  0  0  0  0
  2 14  1  0  0  0  0
  2  3  1  0  0  0  0
  3  4  2  0  0  0  0
  3 18  1  0  0  0  0
  4  5  1  0  0  0  0
  4 13  1  0  0  0  0
  5 11  1  0  0  0  0
  5  6  1  0  0  0  0
  5 19  1  0  0  0  0
  6  7  1  0  0  0  0
  6 20  1  0  0  0  0
  7  8  2  0  0  0  0
  7  9  1  0  0  0  0
  9 10  1  0  0  0  0
  9 21  1  0  0  0  0
  9 22  1  0  0  0  0
 10 11  1  0  0  0  0
 10 23  1  0  0  0  0
 10 24  1  0  0  0  0
 11 12  1  0  0  0  0
 11 25  1  0  0  0  0
 12 26  1  0  0  0  0
 12 27  1  0  0  0  0
 13 14  2  0  0  0  0
 13 28  1  0  0  0  0
M  END
> <s_m_source_file>
AV-unprocessed.smi

> <i_m_source_file_index>
2526

> <i_lp_mmshare_version>
43012

> <i_f3d_flags>
0

> <s_epik_input>
W0NIM11uMVtjSF1jKFtjSF1uMSlbQ0BASF0yW05IXUMoPU8pW0NIMl1bQ0gyXVtDQEhdMltOSDJd

> <s_epik_cmdline>
J2VwaWtfcHl0aG9uJywgJy1waCcsICc3LjAnLCAnLXRuJywgJzgnLCAnLW1hJywgJzIwMCcsICctbWV0YWxfYmluZGluZycsICctaW1hZScsICc8aW5maWxlLm1hZT4nLCAnLW9tYWUnLCAnPG91dGZpbGUubWFlPic=

> <r_lp_tautomer_probability>
1

> <r_epik_Ionization_Penalty>
2.50279

> <r_epik_Ionization_Penalty_Charging>
0

> <r_epik_Ionization_Penalty_Neutral>
2.50279

> <r_epik_State_Penalty>
2.66754

> <r_epik_Charging_Adjusted_Penalty>
2.66754

> <i_epik_Tot_Q>
0

> <i_epik_Tot_abs_Q>
0

> <r_epik_Metal_State_Penalty>
2.66721

> <b_epik_Metal_Only>
0

> <s_lp_Force_Field>
OPLS_2005

> <r_lp_Energy>
8.43832

> <b_lp_Chiralities_Consistent>
1

> <s_lp_Variant>
AV-unprocessed.smi:2526-5

> <Gold.Version>
5.8.1

> <Gold.Id.Protein>
6NUR|6NUR_protein|mol2

> <Gold.PLP.Fitness>
37.2797

> <Gold.PLP.PLP>
-29.8985

> <Gold.PLP.part.hbond>
-3.3762

> <Gold.PLP.part.metal>
0.0000

> <Gold.PLP.part.buried>
-4.6569

> <Gold.PLP.part.nonpolar>
-23.7909

> <Gold.PLP.part.repulsive>
0.3467

> <Gold.PLP.ligand.clash>
0.0000

> <Gold.PLP.ligand.torsion>
0.0377

> <Gold.PLP.Chemscore.Hbond>
1.6597

> <Gold.PLP.Chemscore.CHOScore>
0.8172

> <Gold.PLP.Chemscore.Metal>
0.0000

> <Gold.Chemscore.Hbonds>
donor molecule, donor type, donor heavy atom, donor atom, acceptor molecule, acceptor atom, score
      L1  H     6    20       P1  8028  1.00
      P1  H  7997  8010       L1    12  0.03
      L1  C     3    18       P1  8028  0.79

> <Gold.PLP.Chemscore.Internal.Correction>
0.0258

> <Gold.Rescore>
     Score         DG    S(hbond)    S(metal)    S(lipo)     H(rot)  DE(clash)    DE(int)     intcor
     14.09     -14.12       1.00        0.00      67.22       1.00       0.02       0.01       ----

> <Gold.Chemscore.Fitness>
14.0902

> <Gold.Chemscore.DG>
-14.1231

> <Gold.Chemscore.ZeroCoef>
-5.4800

> <Gold.Chemscore.Hbond>
0.9995

> <Gold.Chemscore.Metal>
0.0000

> <Gold.Chemscore.Lipo>
67.2212

> <Gold.Chemscore.Internal_Hbond>
0.0000

> <Gold.Chemscore.DEClash>
0.0199

> <Gold.Chemscore.DEInternal>
0.0129

> <Gold.Chemscore.Rot>
1.0000

> <Gold.Chemscore.Internal.Correction>
   9.000000E+99

> <Gold.Chemscore.Hbonds>
donor molecule, donor type, donor heavy atom, donor atom, acceptor molecule, acceptor atom, score
      L1  H     6    20       P1  8028  1.00

> <Gold.Chemscore.Hbond.Weighted>
-3.3382

> <Gold.Chemscore.Metal.Weighted>
-0.0000

> <Gold.Chemscore.Lipo.Weighted>
-7.8649

> <Gold.Chemscore.Internal_Hbond.Weighted>
0.0000

> <Gold.Chemscore.DEClash.Weighted>
0.0199

> <Gold.Chemscore.DEInternal.Weighted>
0.0129

> <Gold.Chemscore.Rot.Weighted>
2.5600

> <Gold.Chemscore.Internal.Correction.Weighted>
   9.000000E+99

> <Gold.Protein.RotatedTorsions>
[ 6907 6896 6895 6894 ] final  164.16 input  -60.11 | X-H torsion
[ 7974 7965 7964 7962 ] final   49.50 input  175.53 | X-H torsion
[ 8008 7997 7996 7995 ] final   87.66 input   59.86 | X-H torsion
[ 10167 10162 10161 10158 ] final  157.90 input  -65.29 | X-H torsion
[ 10718 10713 10712 10709 ] final   39.12 input   66.30 | X-H torsion
[ 10763 10752 10751 10750 ] final  175.60 input  -60.55 | X-H torsion
[ 11005 11000 10999 10996 ] final  -42.39 input  -57.11 | X-H torsion

> <Gold.Protein.ActiveResidues>
 VAL166  LYS551  ARG553  GLY616  TRP617  ASP618  TYR619  PRO620  LYS621  CYS622 
 ASP623  PHE694  ASN695  SER759  ASP760  ASP761  ALA762  ILE779  LEU786  VAL792 
 PHE793  MET794  SER795  GLU796  ALA797  LYS798  CYS799  TRP800  GLU811  SER814 

> <Gold.Protein.RotatedAtoms>
  151.9142  133.3569  159.3873 H   0  0  0  0  0  0  0  0  0  0  0  0  # atno 6907 bound_to 6896
  150.7051  134.4701  159.5431 H   0  0  0  0  0  0  0  0  0  0  0  0  # atno 6908 bound_to 6896
  152.2313  134.8319  160.0524 H   0  0  0  0  0  0  0  0  0  0  0  0  # atno 6909 bound_to 6896
  146.0102  139.4535  142.9960 H   0  0  0  0  0  0  0  0  0  0  0  0  # atno 7974 bound_to 7965
  155.9781  140.3380  155.6637 H   0  0  0  0  0  0  0  0  0  0  0  0  # atno 8008 bound_to 7997
  155.6585  140.0713  157.2580 H   0  0  0  0  0  0  0  0  0  0  0  0  # atno 8009 bound_to 7997
  154.4184  140.1713  156.1738 H   0  0  0  0  0  0  0  0  0  0  0  0  # atno 8010 bound_to 7997
  139.4824  144.4874  151.8357 H   0  0  0  0  0  0  0  0  0  0  0  0  # atno 10167 bound_to 10162
  157.3669  130.7680  149.7089 H   0  0  0  0  0  0  0  0  0  0  0  0  # atno 10718 bound_to 10713
  154.4698  135.2770  155.1651 H   0  0  0  0  0  0  0  0  0  0  0  0  # atno 10763 bound_to 10752
  154.3404  135.6171  153.5597 H   0  0  0  0  0  0  0  0  0  0  0  0  # atno 10764 bound_to 10752
  152.9863  135.5787  154.5077 H   0  0  0  0  0  0  0  0  0  0  0  0  # atno 10765 bound_to 10752
  141.0312  133.6819  156.2588 H   0  0  0  0  0  0  0  0  0  0  0  0  # atno 11005 bound_to 11000
  145.7353  141.0028  143.1330 LP  0  0  0  0  0  0  0  0  0  0  0  0  # atno 17320 bound_to 7965
  144.6950  139.9033  143.7459 LP  0  0  0  0  0  0  0  0  0  0  0  0  # atno 17321 bound_to 7965
  140.4355  144.2057  150.5889 LP  0  0  0  0  0  0  0  0  0  0  0  0  # atno 17342 bound_to 10162
  140.4736  143.2404  151.9054 LP  0  0  0  0  0  0  0  0  0  0  0  0  # atno 17343 bound_to 10162
  155.9748  130.4098  150.3898 LP  0  0  0  0  0  0  0  0  0  0  0  0  # atno 17370 bound_to 10713
  157.1983  131.0432  151.2664 LP  0  0  0  0  0  0  0  0  0  0  0  0  # atno 17371 bound_to 10713
  140.6403  134.5173  157.5569 LP  0  0  0  0  0  0  0  0  0  0  0  0  # atno 17394 bound_to 11000
  139.9209  134.8150  156.1214 LP  0  0  0  0  0  0  0  0  0  0  0  0  # atno 17395 bound_to 11000

$$$$
