AV-unprocessed.smi:1703|AV-procd|sdf|6867|dock8
  -GOLD-   22720 8 63D 1   1.00000     0.00000
 Structure written by MMmdl.
 49 51  0  0  0  0  0  0  0  0  2 V2000
  148.8737  132.9514  159.4536 C   0  0  0  0  0  0  0  0  0  0  0  0
  147.9373  134.1422  159.1869 C   0  0  2  0  0  0  0  0  0  0  0  0
  148.5314  135.1764  158.2098 C   0  0  0  0  0  0  0  0  0  0  0  0
  149.5905  135.9814  158.8163 N   0  0  0  0  0  0  0  0  0  0  0  0
  150.1401  136.9804  157.8988 C   0  0  0  0  0  0  0  0  0  0  0  0
  150.3181  138.3967  158.4829 C   0  0  2  0  0  0  0  0  0  0  0  0
  149.1048  139.1074  158.3321 O   0  0  0  0  0  0  0  0  0  0  0  0
  151.4513  139.1597  157.7709 C   0  0  0  0  0  0  0  0  0  0  0  0
  151.2046  140.6094  157.6974 N   0  0  0  0  0  0  0  0  0  0  0  0
  150.4531  141.3223  156.8097 C   0  0  0  0  0  0  0  0  0  0  0  0
  149.6797  140.7694  155.6549 C   0  0  0  0  0  0  0  0  0  0  0  0
  150.4952  140.1589  154.6767 O   0  0  0  0  0  0  0  0  0  0  0  0
  150.5424  142.6344  157.1700 N   0  3  0  0  0  0  0  0  0  0  0  0
  151.3583  142.7632  158.2940 C   0  0  0  0  0  0  0  0  0  0  0  0
  151.7415  143.8894  159.0159 C   0  0  0  0  0  0  0  0  0  0  0  0
  152.5948  143.6742  160.1178 C   0  0  0  0  0  0  0  0  0  0  0  0
  153.0339  142.3799  160.4639 C   0  0  0  0  0  0  0  0  0  0  0  0
  152.6365  141.2457  159.7256 C   0  0  0  0  0  0  0  0  0  0  0  0
  151.7909  141.4659  158.6380 C   0  0  0  0  0  0  0  0  0  0  0  0
  149.0689  136.6130  160.0217 C   0  0  0  0  0  0  0  0  0  0  0  0
  148.5309  135.5803  161.0284 C   0  0  1  0  0  0  0  0  0  0  0  0
  147.9025  136.2467  162.2566 C   0  0  0  0  0  0  0  0  0  0  0  0
  147.5316  134.7809  160.3983 O   0  0  0  0  0  0  0  0  0  0  0  0
  149.0860  132.4115  158.5308 H   0  0  0  0  0  0  0  0  0  0  0  0
  148.4187  132.2478  160.1509 H   0  0  0  0  0  0  0  0  0  0  0  0
  149.8294  133.2666  159.8718 H   0  0  0  0  0  0  0  0  0  0  0  0
  147.0306  133.7380  158.7360 H   0  0  0  0  0  0  0  0  0  0  0  0
  148.8993  134.6510  157.3299 H   0  0  0  0  0  0  0  0  0  0  0  0
  147.7318  135.8333  157.8641 H   0  0  0  0  0  0  0  0  0  0  0  0
  151.1011  136.6247  157.5239 H   0  0  0  0  0  0  0  0  0  0  0  0
  149.4943  137.0577  157.0228 H   0  0  0  0  0  0  0  0  0  0  0  0
  150.5556  138.3506  159.5444 H   0  0  0  0  0  0  0  0  0  0  0  0
  148.8671  139.1050  157.4178 H   0  0  0  0  0  0  0  0  0  0  0  0
  152.3864  139.0219  158.3145 H   0  0  0  0  0  0  0  0  0  0  0  0
  151.6273  138.7678  156.7692 H   0  0  0  0  0  0  0  0  0  0  0  0
  148.9631  140.0353  156.0235 H   0  0  0  0  0  0  0  0  0  0  0  0
  149.1107  141.5724  155.1860 H   0  0  0  0  0  0  0  0  0  0  0  0
  150.5985  139.2460  154.8989 H   0  0  0  0  0  0  0  0  0  0  0  0
  151.4077  144.8819  158.7509 H   0  0  0  0  0  0  0  0  0  0  0  0
  152.9205  144.5188  160.7079 H   0  0  0  0  0  0  0  0  0  0  0  0
  153.6902  142.2539  161.3128 H   0  0  0  0  0  0  0  0  0  0  0  0
  152.9839  140.2611  159.9997 H   0  0  0  0  0  0  0  0  0  0  0  0
  149.8544  137.2002  160.4991 H   0  0  0  0  0  0  0  0  0  0  0  0
  148.2749  137.3133  159.7569 H   0  0  0  0  0  0  0  0  0  0  0  0
  149.3473  134.9410  161.3655 H   0  0  0  0  0  0  0  0  0  0  0  0
  148.6304  136.8641  162.7832 H   0  0  0  0  0  0  0  0  0  0  0  0
  147.5310  135.4994  162.9581 H   0  0  0  0  0  0  0  0  0  0  0  0
  147.0645  136.8846  161.9738 H   0  0  0  0  0  0  0  0  0  0  0  0
  150.0756  143.3839  156.6753 H   0  0  0  0  0  0  0  0  0  0  0  0
  1  2  1  0  0  0  0
  1 24  1  0  0  0  0
  1 25  1  0  0  0  0
  1 26  1  0  0  0  0
  2 23  1  0  0  0  0
  2  3  1  0  0  0  0
  2 27  1  0  0  0  0
  3  4  1  0  0  0  0
  3 28  1  0  0  0  0
  3 29  1  0  0  0  0
  4  5  1  0  0  0  0
  4 20  1  0  0  0  0
  5  6  1  0  0  0  0
  5 30  1  0  0  0  0
  5 31  1  0  0  0  0
  6  7  1  0  0  0  0
  6  8  1  0  0  0  0
  6 32  1  0  0  0  0
  7 33  1  0  0  0  0
  8  9  1  0  0  0  0
  8 34  1  0  0  0  0
  8 35  1  0  0  0  0
  9 19  1  0  0  0  0
  9 10  1  0  0  0  0
 10 11  1  0  0  0  0
 10 13  2  0  0  0  0
 11 12  1  0  0  0  0
 11 36  1  0  0  0  0
 11 37  1  0  0  0  0
 12 38  1  0  0  0  0
 13 14  1  0  0  0  0
 13 49  1  0  0  0  0
 14 19  2  0  0  0  0
 14 15  1  0  0  0  0
 15 16  2  0  0  0  0
 15 39  1  0  0  0  0
 16 17  1  0  0  0  0
 16 40  1  0  0  0  0
 17 18  2  0  0  0  0
 17 41  1  0  0  0  0
 18 19  1  0  0  0  0
 18 42  1  0  0  0  0
 20 21  1  0  0  0  0
 20 43  1  0  0  0  0
 20 44  1  0  0  0  0
 21 22  1  0  0  0  0
 21 23  1  0  0  0  0
 21 45  1  0  0  0  0
 22 46  1  0  0  0  0
 22 47  1  0  0  0  0
 22 48  1  0  0  0  0
M  CHG  1  13   1
M  END
> <s_m_source_file>
AV-unprocessed.smi

> <i_m_source_file_index>
1703

> <i_lp_mmshare_version>
43012

> <i_f3d_flags>
0

> <s_epik_input>
W0NIM11bQ0BASF0xW0NIMl1OKFtDSDJdW0NASF0oTzEpW0NIM10pW0NIMl1bQ0BIXShbT0hdKVtDSDJdbihjKG4yKVtDSDJdW09IXSljKGMyMylbY0hdW2NIXVtjSF1bY0hdMw==

> <s_epik_cmdline>
J2VwaWtfcHl0aG9uJywgJy1waCcsICc3LjAnLCAnLXRuJywgJzgnLCAnLW1hJywgJzIwMCcsICctbWV0YWxfYmluZGluZycsICctaW1hZScsICc8aW5maWxlLm1hZT4nLCAnLW9tYWUnLCAnPG91dGZpbGUubWFlPic=

> <r_epik_Ionization_Penalty>
1.7682

> <r_epik_Ionization_Penalty_Charging>
1.55298

> <r_epik_Ionization_Penalty_Neutral>
0.215215

> <r_epik_State_Penalty>
1.83821

> <r_epik_Charging_Adjusted_Penalty>
3.39119

> <i_epik_Tot_Q>
1

> <i_epik_Tot_abs_Q>
1

> <r_epik_Metal_State_Penalty>
5.89206

> <b_epik_Metal_Only>
0

> <s_lp_Force_Field>
OPLS_2005

> <r_lp_Energy>
34.6201

> <b_lp_Chiralities_Consistent>
1

> <s_lp_Variant>
AV-unprocessed.smi:1703-15

> <Gold.Version>
5.8.1

> <Gold.Id.Protein>
6NUR|6NUR_protein|mol2

> <Gold.PLP.Fitness>
46.3245

> <Gold.PLP.PLP>
-41.7805

> <Gold.PLP.part.hbond>
-3.1643

> <Gold.PLP.part.metal>
0.0000

> <Gold.PLP.part.buried>
-5.5530

> <Gold.PLP.part.nonpolar>
-33.5270

> <Gold.PLP.part.repulsive>
0.0215

> <Gold.PLP.ligand.clash>
2.9916

> <Gold.PLP.ligand.torsion>
1.7389

> <Gold.PLP.Chemscore.Hbond>
3.6500

> <Gold.PLP.Chemscore.CHOScore>
0.0000

> <Gold.PLP.Chemscore.Metal>
0.0000

> <Gold.Chemscore.Hbonds>
donor molecule, donor type, donor heavy atom, donor atom, acceptor molecule, acceptor atom, score
      L1  H    13    49       P1  8028  1.89
      P1  H  6896  6908       L1     4  0.90
      P1  H  7989  7998       L1    12  1.00

> <Gold.PLP.Chemscore.Internal.Correction>
0.0634

> <Gold.Rescore>
     Score         DG    S(hbond)    S(metal)    S(lipo)     H(rot)  DE(clash)    DE(int)     intcor
     14.22     -17.87       2.21        0.00     107.51       2.96       0.01       3.65       ----

> <Gold.Chemscore.Fitness>
14.2209

> <Gold.Chemscore.DG>
-17.8717

> <Gold.Chemscore.ZeroCoef>
-5.4800

> <Gold.Chemscore.Hbond>
2.2093

> <Gold.Chemscore.Metal>
0.0000

> <Gold.Chemscore.Lipo>
107.5111

> <Gold.Chemscore.Internal_Hbond>
0.0000

> <Gold.Chemscore.DEClash>
0.0053

> <Gold.Chemscore.DEInternal>
3.6456

> <Gold.Chemscore.Rot>
2.9555

> <Gold.Chemscore.Internal.Correction>
   9.000000E+99

> <Gold.Chemscore.Hbonds>
donor molecule, donor type, donor heavy atom, donor atom, acceptor molecule, acceptor atom, score
      L1  H    13    49       P1  8028  0.90
      P1  H  6896  6908       L1     4  0.10
      P1  H  7989  7998       L1    12  0.95

> <Gold.Chemscore.Hbond.Weighted>
-7.3789

> <Gold.Chemscore.Metal.Weighted>
-0.0000

> <Gold.Chemscore.Lipo.Weighted>
-12.5788

> <Gold.Chemscore.Internal_Hbond.Weighted>
0.0000

> <Gold.Chemscore.DEClash.Weighted>
0.0053

> <Gold.Chemscore.DEInternal.Weighted>
3.6456

> <Gold.Chemscore.Rot.Weighted>
7.5660

> <Gold.Chemscore.Internal.Correction.Weighted>
   9.000000E+99

> <Gold.Protein.RotatedTorsions>
[ 6907 6896 6895 6894 ] final -178.47 input  -60.11 | X-H torsion
[ 7974 7965 7964 7962 ] final  -86.78 input  175.53 | X-H torsion
[ 8008 7997 7996 7995 ] final  158.30 input   59.86 | X-H torsion
[ 10167 10162 10161 10158 ] final -149.30 input  -65.29 | X-H torsion
[ 10718 10713 10712 10709 ] final   57.47 input   66.30 | X-H torsion
[ 10763 10752 10751 10750 ] final  -52.77 input  -60.55 | X-H torsion
[ 11005 11000 10999 10996 ] final   38.09 input  -57.11 | X-H torsion

> <Gold.Protein.ActiveResidues>
 VAL166  LYS551  ARG553  GLY616  TRP617  ASP618  TYR619  PRO620  LYS621  CYS622 
 ASP623  PHE694  ASN695  SER759  ASP760  ASP761  ALA762  ILE779  LEU786  VAL792 
 PHE793  MET794  SER795  GLU796  ALA797  LYS798  CYS799  TRP800  GLU811  SER814 

> <Gold.Protein.RotatedAtoms>
  151.6377  133.3328  159.3122 H   0  0  0  0  0  0  0  0  0  0  0  0  # atno 6907 bound_to 6896
  150.8024  134.7130  159.6624 H   0  0  0  0  0  0  0  0  0  0  0  0  # atno 6908 bound_to 6896
  152.4117  134.6117  160.0079 H   0  0  0  0  0  0  0  0  0  0  0  0  # atno 6909 bound_to 6896
  145.4753  140.9558  143.1894 H   0  0  0  0  0  0  0  0  0  0  0  0  # atno 7974 bound_to 7965
  156.2311  140.1862  156.7240 H   0  0  0  0  0  0  0  0  0  0  0  0  # atno 8008 bound_to 7997
  154.6024  140.0634  156.9414 H   0  0  0  0  0  0  0  0  0  0  0  0  # atno 8009 bound_to 7997
  155.2152  140.3303  155.4326 H   0  0  0  0  0  0  0  0  0  0  0  0  # atno 8010 bound_to 7997
  139.7455  143.8597  152.2573 H   0  0  0  0  0  0  0  0  0  0  0  0  # atno 10167 bound_to 10162
  157.5517  130.8770  149.8973 H   0  0  0  0  0  0  0  0  0  0  0  0  # atno 10718 bound_to 10713
  154.1481  135.6494  153.4957 H   0  0  0  0  0  0  0  0  0  0  0  0  # atno 10763 bound_to 10752
  153.0146  135.5331  154.6836 H   0  0  0  0  0  0  0  0  0  0  0  0  # atno 10764 bound_to 10752
  154.6116  135.2954  155.0397 H   0  0  0  0  0  0  0  0  0  0  0  0  # atno 10765 bound_to 10752
  140.2160  134.3697  155.8026 H   0  0  0  0  0  0  0  0  0  0  0  0  # atno 11005 bound_to 11000
  144.7921  139.6308  143.7109 LP  0  0  0  0  0  0  0  0  0  0  0  0  # atno 17320 bound_to 7965
  146.2373  139.5930  142.9515 LP  0  0  0  0  0  0  0  0  0  0  0  0  # atno 17321 bound_to 7965
  139.8560  144.7141  150.9156 LP  0  0  0  0  0  0  0  0  0  0  0  0  # atno 17342 bound_to 10162
  140.7791  143.3858  151.1396 LP  0  0  0  0  0  0  0  0  0  0  0  0  # atno 17343 bound_to 10162
  156.0582  130.3704  150.1042 LP  0  0  0  0  0  0  0  0  0  0  0  0  # atno 17370 bound_to 10713
  156.9214  130.9684  151.3548 LP  0  0  0  0  0  0  0  0  0  0  0  0  # atno 17371 bound_to 10713
  141.2225  133.7168  156.8497 LP  0  0  0  0  0  0  0  0  0  0  0  0  # atno 17394 bound_to 11000
  140.1900  134.8973  157.3049 LP  0  0  0  0  0  0  0  0  0  0  0  0  # atno 17395 bound_to 11000

$$$$
