AV-unprocessed.smi:1946|AV-procd|sdf|7862|dock2
  -GOLD-   2272010 13D 1   1.00000     0.00000
 Structure written by MMmdl.
 38 40  0  0  0  0  0  0  0  0  1 V2000
  144.3118  145.4155  152.8261 C   0  0  0  0  0  0  0  0  0  0  0  0
  143.9616  144.4840  154.3721 S   0  0  0  0  0  0  0  0  0  0  0  0
  144.0302  145.4277  155.4986 O   0  0  0  0  0  0  0  0  0  0  0  0
  142.7403  143.6912  154.1606 O   0  0  0  0  0  0  0  0  0  0  0  0
  145.3417  143.3535  154.5066 C   0  0  0  0  0  0  0  0  0  0  0  0
  146.2494  143.2317  153.4361 C   0  0  0  0  0  0  0  0  0  0  0  0
  147.3510  142.3620  153.5527 C   0  0  0  0  0  0  0  0  0  0  0  0
  147.5522  141.6197  154.7381 C   0  0  0  0  0  0  0  0  0  0  0  0
  148.7418  140.6806  154.8667 C   0  0  1  0  0  0  0  0  0  0  0  0
  148.7354  139.6767  153.8697 O   0  0  0  0  0  0  0  0  0  0  0  0
  150.0749  141.4539  154.8269 C   0  0  0  0  0  0  0  0  0  0  0  0
  150.9439  141.1283  155.9443 N   0  0  0  0  0  0  0  0  0  0  0  0
  151.6737  140.0076  156.1034 C   0  0  0  0  0  0  0  0  0  0  0  0
  152.4077  139.9093  157.2081 N   0  0  0  0  0  0  0  0  0  0  0  0
  152.1216  141.1072  157.8406 C   0  0  0  0  0  0  0  0  0  0  0  0
  152.5848  141.6281  159.0700 C   0  0  0  0  0  0  0  0  0  0  0  0
  152.1501  142.8927  159.5191 C   0  0  0  0  0  0  0  0  0  0  0  0
  151.2485  143.6546  158.7478 C   0  0  0  0  0  0  0  0  0  0  0  0
  150.7729  143.1560  157.5198 C   0  0  0  0  0  0  0  0  0  0  0  0
  151.2080  141.8933  157.0755 C   0  0  0  0  0  0  0  0  0  0  0  0
  146.6469  141.7646  155.8122 C   0  0  0  0  0  0  0  0  0  0  0  0
  145.5441  142.6338  155.7009 C   0  0  0  0  0  0  0  0  0  0  0  0
  143.5164  146.1399  152.6521 H   0  0  0  0  0  0  0  0  0  0  0  0
  144.3612  144.7229  151.9861 H   0  0  0  0  0  0  0  0  0  0  0  0
  145.2631  145.9380  152.9228 H   0  0  0  0  0  0  0  0  0  0  0  0
  146.1064  143.7993  152.5284 H   0  0  0  0  0  0  0  0  0  0  0  0
  148.0439  142.2678  152.7292 H   0  0  0  0  0  0  0  0  0  0  0  0
  148.6677  140.1647  155.8249 H   0  0  0  0  0  0  0  0  0  0  0  0
  149.2726  139.9671  153.1485 H   0  0  0  0  0  0  0  0  0  0  0  0
  150.6106  141.2492  153.8990 H   0  0  0  0  0  0  0  0  0  0  0  0
  149.8860  142.5280  154.8458 H   0  0  0  0  0  0  0  0  0  0  0  0
  151.6666  139.2189  155.3653 H   0  0  0  0  0  0  0  0  0  0  0  0
  153.2767  141.0541  159.6683 H   0  0  0  0  0  0  0  0  0  0  0  0
  152.5116  143.2806  160.4602 H   0  0  0  0  0  0  0  0  0  0  0  0
  150.9231  144.6230  159.0987 H   0  0  0  0  0  0  0  0  0  0  0  0
  150.0851  143.7379  156.9244 H   0  0  0  0  0  0  0  0  0  0  0  0
  146.7956  141.2107  156.7276 H   0  0  0  0  0  0  0  0  0  0  0  0
  144.8598  142.7424  156.5295 H   0  0  0  0  0  0  0  0  0  0  0  0
  1  2  1  0  0  0  0
  1 23  1  0  0  0  0
  1 24  1  0  0  0  0
  1 25  1  0  0  0  0
  2  3  2  0  0  0  0
  2  4  2  0  0  0  0
  2  5  1  0  0  0  0
  5 22  1  0  0  0  0
  5  6  2  0  0  0  0
  6  7  1  0  0  0  0
  6 26  1  0  0  0  0
  7  8  2  0  0  0  0
  7 27  1  0  0  0  0
  8  9  1  0  0  0  0
  8 21  1  0  0  0  0
  9 10  1  0  0  0  0
  9 11  1  0  0  0  0
  9 28  1  0  0  0  0
 10 29  1  0  0  0  0
 11 12  1  0  0  0  0
 11 30  1  0  0  0  0
 11 31  1  0  0  0  0
 12 20  1  0  0  0  0
 12 13  1  0  0  0  0
 13 14  2  0  0  0  0
 13 32  1  0  0  0  0
 14 15  1  0  0  0  0
 15 20  2  0  0  0  0
 15 16  1  0  0  0  0
 16 17  2  0  0  0  0
 16 33  1  0  0  0  0
 17 18  1  0  0  0  0
 17 34  1  0  0  0  0
 18 19  2  0  0  0  0
 18 35  1  0  0  0  0
 19 20  1  0  0  0  0
 19 36  1  0  0  0  0
 21 22  2  0  0  0  0
 21 37  1  0  0  0  0
 22 38  1  0  0  0  0
M  END
> <s_m_source_file>
AV-unprocessed.smi

> <i_m_source_file_index>
1946

> <i_lp_mmshare_version>
43012

> <i_f3d_flags>
0

> <s_epik_input>
W0NIM11TKD1PKSg9TyljMVtjSF1bY0hdYyhbY0hdW2NIXTEpW0NASF0oW09IXSlbQ0gyXW4oW2NIXW4yKWMoYzIzKVtjSF1bY0hdW2NIXVtjSF0z

> <s_epik_cmdline>
J2VwaWtfcHl0aG9uJywgJy1waCcsICc3LjAnLCAnLXRuJywgJzgnLCAnLW1hJywgJzIwMCcsICctbWV0YWxfYmluZGluZycsICctaW1hZScsICc8aW5maWxlLm1hZT4nLCAnLW9tYWUnLCAnPG91dGZpbGUubWFlPic=

> <r_epik_Ionization_Penalty>
0.0696512

> <r_epik_Ionization_Penalty_Charging>
0

> <r_epik_Ionization_Penalty_Neutral>
0.0696512

> <r_epik_State_Penalty>
0.0610247

> <r_epik_Charging_Adjusted_Penalty>
0.0610247

> <i_epik_Tot_Q>
0

> <i_epik_Tot_abs_Q>
0

> <r_epik_Metal_State_Penalty>
6.42746e-05

> <b_epik_Metal_Only>
0

> <s_lp_Force_Field>
OPLS_2005

> <r_lp_Energy>
10.2228

> <b_lp_Chiralities_Consistent>
1

> <s_lp_Variant>
AV-unprocessed.smi:1946-2

> <Gold.Version>
5.8.1

> <Gold.Id.Protein>
6NUR|6NUR_protein|mol2

> <Gold.PLP.Fitness>
45.7512

> <Gold.PLP.PLP>
-42.2088

> <Gold.PLP.part.hbond>
-2.0000

> <Gold.PLP.part.metal>
0.0000

> <Gold.PLP.part.buried>
-4.8611

> <Gold.PLP.part.nonpolar>
-35.1041

> <Gold.PLP.part.repulsive>
0.7426

> <Gold.PLP.ligand.clash>
0.0000

> <Gold.PLP.ligand.torsion>
2.1475

> <Gold.PLP.Chemscore.Hbond>
1.9120

> <Gold.PLP.Chemscore.CHOScore>
0.0000

> <Gold.PLP.Chemscore.Metal>
0.0000

> <Gold.Chemscore.Hbonds>
donor molecule, donor type, donor heavy atom, donor atom, acceptor molecule, acceptor atom, score
      L1  H    10    29       P1  7957  0.98
      P1  H  7997  8010       L1    14  0.94

> <Gold.PLP.Chemscore.Internal.Correction>
2.1013

> <Gold.Rescore>
     Score         DG    S(hbond)    S(metal)    S(lipo)     H(rot)  DE(clash)    DE(int)     intcor
     13.55     -15.99       1.17        0.00      99.89       1.98       0.26       2.18       ----

> <Gold.Chemscore.Fitness>
13.5536

> <Gold.Chemscore.DG>
-15.9922

> <Gold.Chemscore.ZeroCoef>
-5.4800

> <Gold.Chemscore.Hbond>
1.1688

> <Gold.Chemscore.Metal>
0.0000

> <Gold.Chemscore.Lipo>
99.8928

> <Gold.Chemscore.Internal_Hbond>
0.0000

> <Gold.Chemscore.DEClash>
0.2583

> <Gold.Chemscore.DEInternal>
2.1803

> <Gold.Chemscore.Rot>
1.9840

> <Gold.Chemscore.Internal.Correction>
   9.000000E+99

> <Gold.Chemscore.Hbonds>
donor molecule, donor type, donor heavy atom, donor atom, acceptor molecule, acceptor atom, score
      L1  H    10    29       P1  7957  0.88
      P1  H  7997  8010       L1    14  0.22

> <Gold.Chemscore.Hbond.Weighted>
-3.9038

> <Gold.Chemscore.Metal.Weighted>
-0.0000

> <Gold.Chemscore.Lipo.Weighted>
-11.6875

> <Gold.Chemscore.Internal_Hbond.Weighted>
0.0000

> <Gold.Chemscore.DEClash.Weighted>
0.2583

> <Gold.Chemscore.DEInternal.Weighted>
2.1803

> <Gold.Chemscore.Rot.Weighted>
5.0791

> <Gold.Chemscore.Internal.Correction.Weighted>
   9.000000E+99

> <Gold.Protein.RotatedTorsions>
[ 6907 6896 6895 6894 ] final  -40.30 input  -60.11 | X-H torsion
[ 7974 7965 7964 7962 ] final  -32.29 input  175.53 | X-H torsion
[ 8008 7997 7996 7995 ] final   61.55 input   59.86 | X-H torsion
[ 10167 10162 10161 10158 ] final  144.15 input  -65.29 | X-H torsion
[ 10718 10713 10712 10709 ] final   20.99 input   66.30 | X-H torsion
[ 10763 10752 10751 10750 ] final   -2.28 input  -60.55 | X-H torsion
[ 11005 11000 10999 10996 ] final -178.43 input  -57.11 | X-H torsion

> <Gold.Protein.ActiveResidues>
 VAL166  LYS551  ARG553  GLY616  TRP617  ASP618  TYR619  PRO620  LYS621  CYS622 
 ASP623  PHE694  ASN695  SER759  ASP760  ASP761  ALA762  ILE779  LEU786  VAL792 
 PHE793  MET794  SER795  GLU796  ALA797  LYS798  CYS799  TRP800  GLU811  SER814 

> <Gold.Protein.RotatedAtoms>
  150.9800  134.9157  159.7838 H   0  0  0  0  0  0  0  0  0  0  0  0  # atno 6907 bound_to 6896
  152.5219  134.3423  159.9231 H   0  0  0  0  0  0  0  0  0  0  0  0  # atno 6908 bound_to 6896
  151.3430  133.3914  159.2707 H   0  0  0  0  0  0  0  0  0  0  0  0  # atno 6909 bound_to 6896
  146.1001  140.5774  142.8825 H   0  0  0  0  0  0  0  0  0  0  0  0  # atno 7974 bound_to 7965
  155.6002  140.3494  155.4591 H   0  0  0  0  0  0  0  0  0  0  0  0  # atno 8008 bound_to 7997
  156.0234  140.1258  157.0358 H   0  0  0  0  0  0  0  0  0  0  0  0  # atno 8009 bound_to 7997
  154.4324  140.1058  156.5982 H   0  0  0  0  0  0  0  0  0  0  0  0  # atno 8010 bound_to 7997
  139.4953  144.5992  151.6518 H   0  0  0  0  0  0  0  0  0  0  0  0  # atno 10167 bound_to 10162
  157.1322  130.6596  149.5955 H   0  0  0  0  0  0  0  0  0  0  0  0  # atno 10718 bound_to 10713
  153.3560  135.6988  153.6750 H   0  0  0  0  0  0  0  0  0  0  0  0  # atno 10763 bound_to 10752
  153.5458  135.3563  155.2739 H   0  0  0  0  0  0  0  0  0  0  0  0  # atno 10764 bound_to 10752
  154.8661  135.4214  154.2806 H   0  0  0  0  0  0  0  0  0  0  0  0  # atno 10765 bound_to 10752
  140.4298  134.6529  157.4706 H   0  0  0  0  0  0  0  0  0  0  0  0  # atno 11005 bound_to 11000
  144.7426  140.4983  143.6858 LP  0  0  0  0  0  0  0  0  0  0  0  0  # atno 17320 bound_to 7965
  145.5871  139.1493  143.3203 LP  0  0  0  0  0  0  0  0  0  0  0  0  # atno 17321 bound_to 7965
  140.5637  144.0225  150.6182 LP  0  0  0  0  0  0  0  0  0  0  0  0  # atno 17342 bound_to 10162
  140.3320  143.3072  152.0678 LP  0  0  0  0  0  0  0  0  0  0  0  0  # atno 17343 bound_to 10162
  155.9805  130.4807  150.6779 LP  0  0  0  0  0  0  0  0  0  0  0  0  # atno 17370 bound_to 10713
  157.4382  131.0858  151.0970 LP  0  0  0  0  0  0  0  0  0  0  0  0  # atno 17371 bound_to 10713
  140.0142  134.6645  155.9335 LP  0  0  0  0  0  0  0  0  0  0  0  0  # atno 17394 bound_to 11000
  141.1750  133.6539  156.4794 LP  0  0  0  0  0  0  0  0  0  0  0  0  # atno 17395 bound_to 11000

$$$$
