AV-unprocessed.smi:37|AV-procd|sdf|327|dock9
  -GOLD-   2262016153D 1   1.00000     0.00000
 Structure written by MMmdl.
 43 44  0  0  0  0  0  0  0  0  2 V2000
  150.3494  131.3355  155.0126 C   0  0  0  0  0  0  0  0  0  0  0  0
  149.7146  132.7257  155.1523 C   0  0  0  0  0  0  0  0  0  0  0  0
  149.5564  133.1458  156.6121 C   0  0  0  0  0  0  0  0  0  0  0  0
  150.5352  133.3271  157.3369 O   0  0  0  0  0  0  0  0  0  0  0  0
  148.2714  133.2731  156.9785 O   0  0  0  0  0  0  0  0  0  0  0  0
  147.9478  133.9661  158.1721 C   0  0  0  0  0  0  0  0  0  0  0  0
  148.3329  135.4434  158.0194 C   0  0  2  0  0  0  0  0  0  0  0  0
  149.7441  135.6192  158.0754 O   0  0  0  0  0  0  0  0  0  0  0  0
  150.0474  136.9025  158.5437 C   0  0  1  0  0  0  0  0  0  0  0  0
  150.7818  137.6800  157.4747 N   0  0  0  0  0  0  0  0  0  0  0  0
  150.3484  137.6823  156.1589 C   0  0  0  0  0  0  0  0  0  0  0  0
  151.0080  138.3760  155.2087 C   0  0  0  0  0  0  0  0  0  0  0  0
  150.5620  138.3634  153.9408 F   0  0  0  0  0  0  0  0  0  0  0  0
  152.2028  139.1385  155.5674 C   0  0  0  0  0  0  0  0  0  0  0  0
  152.8027  139.7655  154.6954 O   0  0  0  0  0  0  0  0  0  0  0  0
  152.6042  139.1197  156.8716 N   0  5  0  0  0  0  0  0  0  0  0  0
  151.9376  138.4226  157.8378 C   0  0  0  0  0  0  0  0  0  0  0  0
  152.2833  138.4073  159.0195 O   0  0  0  0  0  0  0  0  0  0  0  0
  148.7221  137.5674  158.9745 C   0  0  1  0  0  0  0  0  0  0  0  0
  147.9361  138.7646  157.5789 Br  0  0  0  0  0  0  0  0  0  0  0  0
  147.8108  136.3622  159.1268 C   0  0  2  0  0  0  0  0  0  0  0  0
  147.9960  135.7477  160.3983 O   0  0  0  0  0  0  0  0  0  0  0  0
  147.6269  136.3842  161.5244 C   0  0  0  0  0  0  0  0  0  0  0  0
  147.3485  137.5795  161.6205 O   0  0  0  0  0  0  0  0  0  0  0  0
  147.5980  135.4604  162.7400 C   0  0  0  0  0  0  0  0  0  0  0  0
  146.6443  134.2732  162.5472 C   0  0  0  0  0  0  0  0  0  0  0  0
  150.4025  131.0429  153.9640 H   0  0  0  0  0  0  0  0  0  0  0  0
  149.7662  130.5783  155.5378 H   0  0  0  0  0  0  0  0  0  0  0  0
  151.3644  131.3164  155.4115 H   0  0  0  0  0  0  0  0  0  0  0  0
  150.3224  133.4683  154.6349 H   0  0  0  0  0  0  0  0  0  0  0  0
  148.7337  132.7333  154.6764 H   0  0  0  0  0  0  0  0  0  0  0  0
  146.8747  133.8804  158.3480 H   0  0  0  0  0  0  0  0  0  0  0  0
  148.4590  133.5217  159.0275 H   0  0  0  0  0  0  0  0  0  0  0  0
  147.9758  135.8183  157.0586 H   0  0  0  0  0  0  0  0  0  0  0  0
  150.7545  136.7828  159.3665 H   0  0  0  0  0  0  0  0  0  0  0  0
  149.4649  137.1303  155.8757 H   0  0  0  0  0  0  0  0  0  0  0  0
  148.8521  138.1516  159.8863 H   0  0  0  0  0  0  0  0  0  0  0  0
  146.7597  136.6115  158.9733 H   0  0  0  0  0  0  0  0  0  0  0  0
  148.6091  135.1007  162.9327 H   0  0  0  0  0  0  0  0  0  0  0  0
  147.2959  136.0383  163.6139 H   0  0  0  0  0  0  0  0  0  0  0  0
  146.6127  133.6573  163.4461 H   0  0  0  0  0  0  0  0  0  0  0  0
  146.9613  133.6338  161.7222 H   0  0  0  0  0  0  0  0  0  0  0  0
  145.6276  134.6100  162.3414 H   0  0  0  0  0  0  0  0  0  0  0  0
  1  2  1  0  0  0  0
  1 27  1  0  0  0  0
  1 28  1  0  0  0  0
  1 29  1  0  0  0  0
  2  3  1  0  0  0  0
  2 30  1  0  0  0  0
  2 31  1  0  0  0  0
  3  4  2  0  0  0  0
  3  5  1  0  0  0  0
  5  6  1  0  0  0  0
  6  7  1  0  0  0  0
  6 32  1  0  0  0  0
  6 33  1  0  0  0  0
  7 21  1  0  0  0  0
  7  8  1  0  0  0  0
  7 34  1  0  0  0  0
  8  9  1  0  0  0  0
  9 10  1  0  0  0  0
  9 19  1  0  0  0  0
  9 35  1  0  0  0  0
 10 17  1  0  0  0  0
 10 11  1  0  0  0  0
 11 12  2  0  0  0  0
 11 36  1  0  0  0  0
 12 13  1  0  0  0  0
 12 14  1  0  0  0  0
 14 15  2  0  0  0  0
 14 16  1  0  0  0  0
 16 17  1  0  0  0  0
 17 18  2  0  0  0  0
 19 20  1  0  0  0  0
 19 21  1  0  0  0  0
 19 37  1  0  0  0  0
 21 22  1  0  0  0  0
 21 38  1  0  0  0  0
 22 23  1  0  0  0  0
 23 24  2  0  0  0  0
 23 25  1  0  0  0  0
 25 26  1  0  0  0  0
 25 39  1  0  0  0  0
 25 40  1  0  0  0  0
 26 41  1  0  0  0  0
 26 42  1  0  0  0  0
 26 43  1  0  0  0  0
M  CHG  1  16  -1
M  END
> <s_m_source_file>
AV-unprocessed.smi

> <i_m_source_file_index>
37

> <i_lp_mmshare_version>
43012

> <i_f3d_flags>
0

> <s_epik_input>
W0NIM11bQ0gyXUMoPU8pT1tDSDJdW0NAQEhdMU9bQ0BASF0objJbY0hdYyhGKWMoPU8pW25IXWMyPU8pW0NAQEhdKEJyKVtDQEhdMU9DKD1PKVtDSDJdW0NIM10=

> <s_epik_cmdline>
J2VwaWtfcHl0aG9uJywgJy1waCcsICc3LjAnLCAnLXRuJywgJzgnLCAnLW1hJywgJzIwMCcsICctbWV0YWxfYmluZGluZycsICctaW1hZScsICc8aW5maWxlLm1hZT4nLCAnLW9tYWUnLCAnPG91dGZpbGUubWFlPic=

> <r_epik_Ionization_Penalty>
1.08158

> <r_epik_Ionization_Penalty_Charging>
9.05154e-09

> <r_epik_Ionization_Penalty_Neutral>
1.08158

> <r_epik_State_Penalty>
1.13706

> <r_epik_Charging_Adjusted_Penalty>
1.13706

> <i_epik_Tot_Q>
-1

> <i_epik_Tot_abs_Q>
1

> <r_epik_Metal_State_Penalty>
0.00343535

> <b_epik_Metal_Only>
0

> <s_epik_Chemistry_Notes>
This compound has an ester and may undergo hydrolysis at high or low pH. This compound contains an acetal/aminal-like group ( X-CH(R)-Y where X, Y are N, S, or O) that may be acid/base labile, releasing an aldehyde.

> <s_lp_Force_Field>
OPLS_2005

> <r_lp_Energy>
34.9368

> <b_lp_Chiralities_Consistent>
1

> <s_lp_Variant>
AV-unprocessed.smi:37-25

> <Gold.Version>
5.8.1

> <Gold.Id.Protein>
6NUR|6NUR_protein|mol2

> <Gold.PLP.Fitness>
48.4118

> <Gold.PLP.PLP>
-37.9487

> <Gold.PLP.part.hbond>
-6.6480

> <Gold.PLP.part.metal>
0.0000

> <Gold.PLP.part.buried>
-5.8580

> <Gold.PLP.part.nonpolar>
-27.1647

> <Gold.PLP.part.repulsive>
0.0191

> <Gold.PLP.ligand.clash>
0.0000

> <Gold.PLP.ligand.torsion>
0.8507

> <Gold.PLP.Chemscore.Hbond>
3.9923

> <Gold.PLP.Chemscore.CHOScore>
0.0000

> <Gold.PLP.Chemscore.Metal>
0.0000

> <Gold.Chemscore.Hbonds>
donor molecule, donor type, donor heavy atom, donor atom, acceptor molecule, acceptor atom, score
      P1  H  6896  6909       L1     8  0.86
      P1  H  6931  6943       L1    24  0.70
      P1  H  6934  6947       L1    24  0.78
      P1  H  7989  7998       L1    15  0.43
      P1  H  7997  8009       L1    15  0.55

> <Gold.PLP.Chemscore.Internal.Correction>
0.1875

> <Gold.Rescore>
     Score         DG    S(hbond)    S(metal)    S(lipo)     H(rot)  DE(clash)    DE(int)     intcor
      6.89     -10.88       2.43        0.00      48.25       3.27       0.04       3.95       ----

> <Gold.Chemscore.Fitness>
6.8944

> <Gold.Chemscore.DG>
-10.8828

> <Gold.Chemscore.ZeroCoef>
-5.4800

> <Gold.Chemscore.Hbond>
2.4315

> <Gold.Chemscore.Metal>
0.0000

> <Gold.Chemscore.Lipo>
48.2483

> <Gold.Chemscore.Internal_Hbond>
0.0000

> <Gold.Chemscore.DEClash>
0.0398

> <Gold.Chemscore.DEInternal>
3.9486

> <Gold.Chemscore.Rot>
3.2669

> <Gold.Chemscore.Internal.Correction>
   9.000000E+99

> <Gold.Chemscore.Hbonds>
donor molecule, donor type, donor heavy atom, donor atom, acceptor molecule, acceptor atom, score
      P1  H  6896  6909       L1     8  0.27
      P1  H  6931  6943       L1    24  0.18
      P1  H  6934  6947       L1    24  0.78
      P1  H  7989  7998       L1    15  0.41
      P1  H  7997  8009       L1    15  0.05

> <Gold.Chemscore.Hbond.Weighted>
-8.1211

> <Gold.Chemscore.Metal.Weighted>
-0.0000

> <Gold.Chemscore.Lipo.Weighted>
-5.6450

> <Gold.Chemscore.Internal_Hbond.Weighted>
0.0000

> <Gold.Chemscore.DEClash.Weighted>
0.0398

> <Gold.Chemscore.DEInternal.Weighted>
3.9486

> <Gold.Chemscore.Rot.Weighted>
8.3634

> <Gold.Chemscore.Internal.Correction.Weighted>
   9.000000E+99

> <Gold.Protein.RotatedTorsions>
[ 6907 6896 6895 6894 ] final   35.83 input  -60.11 | X-H torsion
[ 7974 7965 7964 7962 ] final  -21.63 input  175.53 | X-H torsion
[ 8008 7997 7996 7995 ] final -141.27 input   59.86 | X-H torsion
[ 10167 10162 10161 10158 ] final   84.58 input  -65.29 | X-H torsion
[ 10718 10713 10712 10709 ] final   62.88 input   66.30 | X-H torsion
[ 10763 10752 10751 10750 ] final  143.98 input  -60.55 | X-H torsion
[ 11005 11000 10999 10996 ] final -171.04 input  -57.11 | X-H torsion

> <Gold.Protein.ActiveResidues>
 VAL166  LYS551  ARG553  GLY616  TRP617  ASP618  TYR619  PRO620  LYS621  CYS622 
 ASP623  PHE694  ASN695  SER759  ASP760  ASP761  ALA762  ILE779  LEU786  VAL792 
 PHE793  MET794  SER795  GLU796  ALA797  LYS798  CYS799  TRP800  GLU811  SER814 

> <Gold.Protein.RotatedAtoms>
  152.1215  134.9202  160.0562 H   0  0  0  0  0  0  0  0  0  0  0  0  # atno 6907 bound_to 6896
  152.0341  133.3945  159.4318 H   0  0  0  0  0  0  0  0  0  0  0  0  # atno 6908 bound_to 6896
  150.6849  134.3409  159.4911 H   0  0  0  0  0  0  0  0  0  0  0  0  # atno 6909 bound_to 6896
  146.1722  140.4368  142.8528 H   0  0  0  0  0  0  0  0  0  0  0  0  # atno 7974 bound_to 7965
  155.4750  140.0556  157.2974 H   0  0  0  0  0  0  0  0  0  0  0  0  # atno 8008 bound_to 7997
  154.4683  140.2028  156.0014 H   0  0  0  0  0  0  0  0  0  0  0  0  # atno 8009 bound_to 7997
  156.1012  140.3219  155.7949 H   0  0  0  0  0  0  0  0  0  0  0  0  # atno 8010 bound_to 7997
  139.9066  144.6297  150.8581 H   0  0  0  0  0  0  0  0  0  0  0  0  # atno 10167 bound_to 10162
  157.5932  130.9074  149.9644 H   0  0  0  0  0  0  0  0  0  0  0  0  # atno 10718 bound_to 10713
  153.9813  135.2941  155.3420 H   0  0  0  0  0  0  0  0  0  0  0  0  # atno 10763 bound_to 10752
  154.7267  135.5085  153.8901 H   0  0  0  0  0  0  0  0  0  0  0  0  # atno 10764 bound_to 10752
  153.0853  135.6691  154.0076 H   0  0  0  0  0  0  0  0  0  0  0  0  # atno 10765 bound_to 10752
  140.5127  134.5786  157.5024 H   0  0  0  0  0  0  0  0  0  0  0  0  # atno 11005 bound_to 11000
  144.8180  140.6501  143.6371 LP  0  0  0  0  0  0  0  0  0  0  0  0  # atno 17320 bound_to 7965
  145.4310  139.1549  143.4022 LP  0  0  0  0  0  0  0  0  0  0  0  0  # atno 17321 bound_to 7965
  140.7695  143.3397  151.2234 LP  0  0  0  0  0  0  0  0  0  0  0  0  # atno 17342 bound_to 10162
  139.6979  143.9582  152.2891 LP  0  0  0  0  0  0  0  0  0  0  0  0  # atno 17343 bound_to 10162
  156.0990  130.3657  150.0253 LP  0  0  0  0  0  0  0  0  0  0  0  0  # atno 17370 bound_to 10713
  156.8371  130.9413  151.3634 LP  0  0  0  0  0  0  0  0  0  0  0  0  # atno 17371 bound_to 10713
  139.9650  134.7388  156.0157 LP  0  0  0  0  0  0  0  0  0  0  0  0  # atno 17394 bound_to 11000
  141.1377  133.6571  156.3640 LP  0  0  0  0  0  0  0  0  0  0  0  0  # atno 17395 bound_to 11000

$$$$
