AV-unprocessed.smi:1815|AV-procd|sdf|7350|dock3
  -GOLD-   22720 9 13D 1   1.00000     0.00000
 Structure written by MMmdl.
 39 40  0  0  0  0  0  0  0  0  1 V2000
  151.6189  138.0696  154.3624 C   0  0  0  0  0  0  0  0  0  0  0  0
  150.4922  138.9252  154.9508 C   0  0  2  0  0  0  0  0  0  0  0  0
  149.1063  138.4825  154.4475 C   0  0  0  0  0  0  0  0  0  0  0  0
  148.0432  139.3484  154.9418 N   0  0  0  0  0  0  0  0  0  0  0  0
  146.7348  138.8859  154.4809 C   0  0  0  0  0  0  0  0  0  0  0  0
  146.5649  138.8222  152.9492 C   0  0  0  0  0  0  0  0  0  0  0  0
  146.7660  137.4767  152.4203 N   0  0  0  0  0  0  0  0  0  0  0  0
  145.7884  136.6138  152.1097 C   0  0  0  0  0  0  0  0  0  0  0  0
  144.5908  136.8701  152.2386 O   0  0  0  0  0  0  0  0  0  0  0  0
  146.2914  135.4544  151.6508 N   0  0  0  0  0  0  0  0  0  0  0  0
  145.5858  134.3008  151.2191 C   0  0  0  0  0  0  0  0  0  0  0  0
  144.2610  134.2501  151.0369 N   0  0  0  0  0  0  0  0  0  0  0  0
  143.8388  132.9891  150.6080 C   0  0  0  0  0  0  0  0  0  0  0  0
  144.8626  132.0855  150.4681 C   0  0  0  0  0  0  0  0  0  0  0  0
  146.4073  132.7862  150.8719 S   0  0  0  0  0  0  0  0  0  0  0  0
  148.3238  140.7234  154.5350 C   0  0  0  0  0  0  0  0  0  0  0  0
  149.7167  141.2076  154.9856 C   0  0  1  0  0  0  0  0  0  0  0  0
  149.7992  141.5049  156.4927 C   0  0  0  0  0  0  0  0  0  0  0  0
  150.7224  140.2812  154.5724 O   0  0  0  0  0  0  0  0  0  0  0  0
  151.4961  137.0200  154.6309 H   0  0  0  0  0  0  0  0  0  0  0  0
  152.5907  138.3959  154.7338 H   0  0  0  0  0  0  0  0  0  0  0  0
  151.6384  138.1370  153.2742 H   0  0  0  0  0  0  0  0  0  0  0  0
  150.5293  138.8407  156.0373 H   0  0  0  0  0  0  0  0  0  0  0  0
  149.0989  138.4763  153.3562 H   0  0  0  0  0  0  0  0  0  0  0  0
  148.9222  137.4555  154.7655 H   0  0  0  0  0  0  0  0  0  0  0  0
  146.4841  137.9291  154.9418 H   0  0  0  0  0  0  0  0  0  0  0  0
  145.9844  139.5874  154.8478 H   0  0  0  0  0  0  0  0  0  0  0  0
  145.5594  139.1513  152.6818 H   0  0  0  0  0  0  0  0  0  0  0  0
  147.2474  139.5135  152.4535 H   0  0  0  0  0  0  0  0  0  0  0  0
  147.7217  137.1825  152.2828 H   0  0  0  0  0  0  0  0  0  0  0  0
  147.2974  135.3898  151.6022 H   0  0  0  0  0  0  0  0  0  0  0  0
  142.7874  132.8220  150.4253 H   0  0  0  0  0  0  0  0  0  0  0  0
  144.8020  131.0543  150.1533 H   0  0  0  0  0  0  0  0  0  0  0  0
  148.2589  140.7979  153.4481 H   0  0  0  0  0  0  0  0  0  0  0  0
  147.5691  141.4000  154.9349 H   0  0  0  0  0  0  0  0  0  0  0  0
  149.9300  142.1419  154.4659 H   0  0  0  0  0  0  0  0  0  0  0  0
  149.1033  142.2970  156.7695 H   0  0  0  0  0  0  0  0  0  0  0  0
  150.8010  141.8335  156.7696 H   0  0  0  0  0  0  0  0  0  0  0  0
  149.5550  140.6316  157.0972 H   0  0  0  0  0  0  0  0  0  0  0  0
  1  2  1  0  0  0  0
  1 20  1  0  0  0  0
  1 21  1  0  0  0  0
  1 22  1  0  0  0  0
  2 19  1  0  0  0  0
  2  3  1  0  0  0  0
  2 23  1  0  0  0  0
  3  4  1  0  0  0  0
  3 24  1  0  0  0  0
  3 25  1  0  0  0  0
  4  5  1  0  0  0  0
  4 16  1  0  0  0  0
  5  6  1  0  0  0  0
  5 26  1  0  0  0  0
  5 27  1  0  0  0  0
  6  7  1  0  0  0  0
  6 28  1  0  0  0  0
  6 29  1  0  0  0  0
  7  8  1  0  0  0  0
  7 30  1  0  0  0  0
  8  9  2  0  0  0  0
  8 10  1  0  0  0  0
 10 11  1  0  0  0  0
 10 31  1  0  0  0  0
 11 15  1  0  0  0  0
 11 12  2  0  0  0  0
 12 13  1  0  0  0  0
 13 14  2  0  0  0  0
 13 32  1  0  0  0  0
 14 15  1  0  0  0  0
 14 33  1  0  0  0  0
 16 17  1  0  0  0  0
 16 34  1  0  0  0  0
 16 35  1  0  0  0  0
 17 18  1  0  0  0  0
 17 19  1  0  0  0  0
 17 36  1  0  0  0  0
 18 37  1  0  0  0  0
 18 38  1  0  0  0  0
 18 39  1  0  0  0  0
M  END
> <s_m_source_file>
AV-unprocessed.smi

> <i_m_source_file_index>
1815

> <i_lp_mmshare_version>
43012

> <i_f3d_flags>
0

> <s_epik_input>
W0NIM11bQ0BASF0xW0NIMl1OKFtDSDJdW0NASF0oTzEpW0NIM10pW0NIMl1bQ0gyXVtOSF1DKD1PKVtOSF1jMm5bY0hdW2NIXXMy

> <s_epik_cmdline>
J2VwaWtfcHl0aG9uJywgJy1waCcsICc3LjAnLCAnLXRuJywgJzgnLCAnLW1hJywgJzIwMCcsICctbWV0YWxfYmluZGluZycsICctaW1hZScsICc8aW5maWxlLm1hZT4nLCAnLW9tYWUnLCAnPG91dGZpbGUubWFlPic=

> <r_lp_tautomer_probability>
0.999

> <r_epik_Ionization_Penalty>
0.219201

> <r_epik_Ionization_Penalty_Charging>
0

> <r_epik_Ionization_Penalty_Neutral>
0.219201

> <r_epik_State_Penalty>
0.209349

> <r_epik_Charging_Adjusted_Penalty>
0.209349

> <i_epik_Tot_Q>
0

> <i_epik_Tot_abs_Q>
0

> <r_epik_Metal_State_Penalty>
0.247737

> <b_epik_Metal_Only>
0

> <s_lp_Force_Field>
OPLS_2005

> <r_lp_Energy>
26.2235

> <b_lp_Chiralities_Consistent>
1

> <s_lp_Variant>
AV-unprocessed.smi:1815-1

> <Gold.Version>
5.8.1

> <Gold.Id.Protein>
6NUR|6NUR_protein|mol2

> <Gold.PLP.Fitness>
43.7960

> <Gold.PLP.PLP>
-32.6901

> <Gold.PLP.part.hbond>
-2.9253

> <Gold.PLP.part.metal>
0.0000

> <Gold.PLP.part.buried>
-5.9304

> <Gold.PLP.part.nonpolar>
-25.9641

> <Gold.PLP.part.repulsive>
1.1957

> <Gold.PLP.ligand.clash>
0.0000

> <Gold.PLP.ligand.torsion>
0.4369

> <Gold.PLP.Chemscore.Hbond>
2.9920

> <Gold.PLP.Chemscore.CHOScore>
1.0000

> <Gold.PLP.Chemscore.Metal>
0.0000

> <Gold.Chemscore.Hbonds>
donor molecule, donor type, donor heavy atom, donor atom, acceptor molecule, acceptor atom, score
      L1  H     7    30       P1  7948  1.00
      L1  H    10    31       P1  7948  0.98
      P1  H  7989  7998       L1    19  0.99
      L1  C    13    32       P1 10186  0.96

> <Gold.PLP.Chemscore.Internal.Correction>
0.0038

> <Gold.Rescore>
     Score         DG    S(hbond)    S(metal)    S(lipo)     H(rot)  DE(clash)    DE(int)     intcor
     18.12     -19.85       2.86        0.00      76.19       1.60       0.03       1.70       ----

> <Gold.Chemscore.Fitness>
18.1185

> <Gold.Chemscore.DG>
-19.8494

> <Gold.Chemscore.ZeroCoef>
-5.4800

> <Gold.Chemscore.Hbond>
2.8598

> <Gold.Chemscore.Metal>
0.0000

> <Gold.Chemscore.Lipo>
76.1865

> <Gold.Chemscore.Internal_Hbond>
0.0000

> <Gold.Chemscore.DEClash>
0.0292

> <Gold.Chemscore.DEInternal>
1.7017

> <Gold.Chemscore.Rot>
1.6001

> <Gold.Chemscore.Internal.Correction>
   9.000000E+99

> <Gold.Chemscore.Hbonds>
donor molecule, donor type, donor heavy atom, donor atom, acceptor molecule, acceptor atom, score
      L1  H     7    30       P1  7948  0.98
      L1  H    10    31       P1  7948  0.89
      P1  H  7989  7998       L1    19  0.76

> <Gold.Chemscore.Hbond.Weighted>
-9.5519

> <Gold.Chemscore.Metal.Weighted>
-0.0000

> <Gold.Chemscore.Lipo.Weighted>
-8.9138

> <Gold.Chemscore.Internal_Hbond.Weighted>
0.0000

> <Gold.Chemscore.DEClash.Weighted>
0.0292

> <Gold.Chemscore.DEInternal.Weighted>
1.7017

> <Gold.Chemscore.Rot.Weighted>
4.0963

> <Gold.Chemscore.Internal.Correction.Weighted>
   9.000000E+99

> <Gold.Protein.RotatedTorsions>
[ 6907 6896 6895 6894 ] final  154.45 input  -60.11 | X-H torsion
[ 7974 7965 7964 7962 ] final -119.15 input  175.53 | X-H torsion
[ 8008 7997 7996 7995 ] final  -17.32 input   59.86 | X-H torsion
[ 10167 10162 10161 10158 ] final  -45.91 input  -65.29 | X-H torsion
[ 10718 10713 10712 10709 ] final -167.98 input   66.30 | X-H torsion
[ 10763 10752 10751 10750 ] final  129.24 input  -60.55 | X-H torsion
[ 11005 11000 10999 10996 ] final   -5.59 input  -57.11 | X-H torsion

> <Gold.Protein.ActiveResidues>
 VAL166  LYS551  ARG553  GLY616  TRP617  ASP618  TYR619  PRO620  LYS621  CYS622 
 ASP623  PHE694  ASN695  SER759  ASP760  ASP761  ALA762  ILE779  LEU786  VAL792 
 PHE793  MET794  SER795  GLU796  ALA797  LYS798  CYS799  TRP800  GLU811  SER814 

> <Gold.Protein.RotatedAtoms>
  152.0583  133.4050  159.4406 H   0  0  0  0  0  0  0  0  0  0  0  0  # atno 6907 bound_to 6896
  150.6867  134.3229  159.4803 H   0  0  0  0  0  0  0  0  0  0  0  0  # atno 6908 bound_to 6896
  152.1047  134.9316  160.0619 H   0  0  0  0  0  0  0  0  0  0  0  0  # atno 6909 bound_to 6896
  145.0657  140.8323  143.4125 H   0  0  0  0  0  0  0  0  0  0  0  0  # atno 7974 bound_to 7965
  154.4987  140.2146  155.9392 H   0  0  0  0  0  0  0  0  0  0  0  0  # atno 8008 bound_to 7997
  156.1405  140.3180  155.8455 H   0  0  0  0  0  0  0  0  0  0  0  0  # atno 8009 bound_to 7997
  155.4129  140.0492  157.3021 H   0  0  0  0  0  0  0  0  0  0  0  0  # atno 8010 bound_to 7997
  140.6839  143.2856  151.3707 H   0  0  0  0  0  0  0  0  0  0  0  0  # atno 10167 bound_to 10162
  156.6902  130.9156  151.3068 H   0  0  0  0  0  0  0  0  0  0  0  0  # atno 10718 bound_to 10713
  153.7385  135.3228  155.3299 H   0  0  0  0  0  0  0  0  0  0  0  0  # atno 10763 bound_to 10752
  154.8303  135.4539  154.1050 H   0  0  0  0  0  0  0  0  0  0  0  0  # atno 10764 bound_to 10752
  153.2218  135.6949  153.8073 H   0  0  0  0  0  0  0  0  0  0  0  0  # atno 10765 bound_to 10752
  140.6928  133.9057  155.8629 H   0  0  0  0  0  0  0  0  0  0  0  0  # atno 11005 bound_to 11000
  145.1353  139.2606  143.5518 LP  0  0  0  0  0  0  0  0  0  0  0  0  # atno 17320 bound_to 7965
  146.3526  140.1016  142.8608 LP  0  0  0  0  0  0  0  0  0  0  0  0  # atno 17321 bound_to 7965
  139.6182  144.0961  152.2366 LP  0  0  0  0  0  0  0  0  0  0  0  0  # atno 17342 bound_to 10162
  140.0396  144.6017  150.7421 LP  0  0  0  0  0  0  0  0  0  0  0  0  # atno 17343 bound_to 10162
  157.7011  130.9334  150.0789 LP  0  0  0  0  0  0  0  0  0  0  0  0  # atno 17370 bound_to 10713
  156.1803  130.3650  149.9045 LP  0  0  0  0  0  0  0  0  0  0  0  0  # atno 17371 bound_to 10713
  141.0228  134.0866  157.4102 LP  0  0  0  0  0  0  0  0  0  0  0  0  # atno 17394 bound_to 11000
  139.8919  135.0121  156.6815 LP  0  0  0  0  0  0  0  0  0  0  0  0  # atno 17395 bound_to 11000

$$$$
