AV-unprocessed.smi:1610|AV-procd|sdf|6473|dock2
  -GOLD-   22720 7133D 1   1.00000     0.00000
 Structure written by MMmdl.
 44 45  0  0  0  0  0  0  0  0  3 V2000
  151.8748  140.6562  156.8688 C   0  0  0  0  0  0  0  0  0  0  0  0
  152.0749  139.2230  155.7386 S   0  0  0  0  0  0  0  0  0  0  0  0
  153.4783  139.2570  155.2959 O   0  0  0  0  0  0  0  0  0  0  0  0
  151.6348  138.0452  156.5028 O   0  0  0  0  0  0  0  0  0  0  0  0
  151.0475  139.6359  154.5525 N   0  5  0  0  0  0  0  0  0  0  0  0
  149.6318  139.8743  154.8214 C   0  0  0  0  0  0  0  0  0  0  0  0
  148.8365  138.5422  154.9840 C   0  0  0  0  0  0  0  0  0  0  0  0
  147.2947  138.7067  154.8950 C   0  0  0  0  0  0  0  0  0  0  0  0
  146.9345  139.3637  153.6237 N   0  0  0  0  0  0  0  0  0  0  0  0
  146.5734  138.7451  152.4719 C   0  0  0  0  0  0  0  0  0  0  0  0
  146.5068  139.3284  151.3890 O   0  0  0  0  0  0  0  0  0  0  0  0
  146.3548  137.4234  152.5920 N   0  0  0  0  0  0  0  0  0  0  0  0
  146.2001  136.4834  151.4830 C   0  0  0  0  0  0  0  0  0  0  0  0
  145.9972  135.0358  151.9788 C   0  0  0  0  0  0  0  0  0  0  0  0
  145.4277  134.0908  150.9306 C   0  0  0  0  0  0  0  0  0  0  0  0
  146.1648  132.9681  150.4919 C   0  0  0  0  0  0  0  0  0  0  0  0
  145.5870  132.0807  149.5601 C   0  0  0  0  0  0  0  0  0  0  0  0
  144.2860  132.3379  149.0821 C   0  0  0  0  0  0  0  0  0  0  0  0
  143.6183  133.4305  149.5102 N   0  3  0  0  0  0  0  0  0  0  0  0
  144.1374  134.3054  150.3985 C   0  0  0  0  0  0  0  0  0  0  0  0
  147.4693  140.7348  153.6334 C   0  0  0  0  0  0  0  0  0  0  0  0
  149.0239  140.6867  153.6401 C   0  0  0  0  0  0  0  0  0  0  0  0
  152.5306  140.5305  157.7297 H   0  0  0  0  0  0  0  0  0  0  0  0
  150.8403  140.7099  157.2071 H   0  0  0  0  0  0  0  0  0  0  0  0
  152.1356  141.5748  156.3445 H   0  0  0  0  0  0  0  0  0  0  0  0
  149.4927  140.4568  155.7325 H   0  0  0  0  0  0  0  0  0  0  0  0
  149.1411  137.8381  154.2134 H   0  0  0  0  0  0  0  0  0  0  0  0
  149.0895  138.0746  155.9361 H   0  0  0  0  0  0  0  0  0  0  0  0
  146.8093  137.7388  155.0211 H   0  0  0  0  0  0  0  0  0  0  0  0
  146.9254  139.3073  155.7291 H   0  0  0  0  0  0  0  0  0  0  0  0
  146.4145  137.0244  153.5176 H   0  0  0  0  0  0  0  0  0  0  0  0
  145.3446  136.7907  150.8811 H   0  0  0  0  0  0  0  0  0  0  0  0
  147.0637  136.5249  150.8176 H   0  0  0  0  0  0  0  0  0  0  0  0
  146.9538  134.6406  152.3230 H   0  0  0  0  0  0  0  0  0  0  0  0
  145.3392  135.0328  152.8483 H   0  0  0  0  0  0  0  0  0  0  0  0
  147.1537  132.7757  150.8819 H   0  0  0  0  0  0  0  0  0  0  0  0
  146.1300  131.2088  149.2260 H   0  0  0  0  0  0  0  0  0  0  0  0
  143.7599  131.7064  148.3812 H   0  0  0  0  0  0  0  0  0  0  0  0
  143.4924  135.1263  150.6763 H   0  0  0  0  0  0  0  0  0  0  0  0
  147.1232  141.3119  152.7748 H   0  0  0  0  0  0  0  0  0  0  0  0
  147.0921  141.2726  154.5060 H   0  0  0  0  0  0  0  0  0  0  0  0
  149.4197  141.7027  153.6531 H   0  0  0  0  0  0  0  0  0  0  0  0
  149.3496  140.2507  152.6939 H   0  0  0  0  0  0  0  0  0  0  0  0
  142.6717  133.5933  149.1635 H   0  0  0  0  0  0  0  0  0  0  0  0
  1  2  1  0  0  0  0
  1 23  1  0  0  0  0
  1 24  1  0  0  0  0
  1 25  1  0  0  0  0
  2  3  2  0  0  0  0
  2  4  2  0  0  0  0
  2  5  1  0  0  0  0
  5  6  1  0  0  0  0
  6 22  1  0  0  0  0
  6  7  1  0  0  0  0
  6 26  1  0  0  0  0
  7  8  1  0  0  0  0
  7 27  1  0  0  0  0
  7 28  1  0  0  0  0
  8  9  1  0  0  0  0
  8 29  1  0  0  0  0
  8 30  1  0  0  0  0
  9 10  1  0  0  0  0
  9 21  1  0  0  0  0
 10 11  2  0  0  0  0
 10 12  1  0  0  0  0
 12 13  1  0  0  0  0
 12 31  1  0  0  0  0
 13 14  1  0  0  0  0
 13 32  1  0  0  0  0
 13 33  1  0  0  0  0
 14 15  1  0  0  0  0
 14 34  1  0  0  0  0
 14 35  1  0  0  0  0
 15 20  1  0  0  0  0
 15 16  2  0  0  0  0
 16 17  1  0  0  0  0
 16 36  1  0  0  0  0
 17 18  2  0  0  0  0
 17 37  1  0  0  0  0
 18 19  1  0  0  0  0
 18 38  1  0  0  0  0
 19 20  2  0  0  0  0
 19 44  1  0  0  0  0
 20 39  1  0  0  0  0
 21 22  1  0  0  0  0
 21 40  1  0  0  0  0
 21 41  1  0  0  0  0
 22 42  1  0  0  0  0
 22 43  1  0  0  0  0
M  CHG  1   5  -1
M  CHG  1  19   1
M  END
> <s_m_source_file>
AV-unprocessed.smi

> <i_m_source_file_index>
1610

> <i_lp_mmshare_version>
43012

> <i_f3d_flags>
0

> <s_epik_input>
W0NIM11TKD1PKSg9TylbTkhdW0NIXTFbQ0gyXVtDSDJdTihbQ0gyXVtDSDJdMSlDKD1PKVtOSF1bQ0gyXVtDSDJdYzJbY0hdW2NIXVtjSF1uW2NIXTI=

> <s_epik_cmdline>
J2VwaWtfcHl0aG9uJywgJy1waCcsICc3LjAnLCAnLXRuJywgJzgnLCAnLW1hJywgJzIwMCcsICctbWV0YWxfYmluZGluZycsICctaW1hZScsICc8aW5maWxlLm1hZT4nLCAnLW9tYWUnLCAnPG91dGZpbGUubWFlPic=

> <r_epik_Ionization_Penalty>
8.91489

> <r_epik_Ionization_Penalty_Charging>
8.91482

> <r_epik_Ionization_Penalty_Neutral>
6.17235e-05

> <r_epik_State_Penalty>
9.05939

> <r_epik_Charging_Adjusted_Penalty>
17.9742

> <i_epik_Tot_Q>
0

> <i_epik_Tot_abs_Q>
2

> <r_epik_Metal_State_Penalty>
4.99481

> <b_epik_Metal_Only>
1

> <s_lp_Force_Field>
OPLS_2005

> <r_lp_Energy>
23.4301

> <b_lp_Chiralities_Consistent>
1

> <s_lp_Variant>
AV-unprocessed.smi:1610-4

> <Gold.Version>
5.8.1

> <Gold.Id.Protein>
6NUR|6NUR_protein|mol2

> <Gold.PLP.Fitness>
46.4008

> <Gold.PLP.PLP>
-35.5758

> <Gold.PLP.part.hbond>
-3.7801

> <Gold.PLP.part.metal>
0.0000

> <Gold.PLP.part.buried>
0.1193

> <Gold.PLP.part.nonpolar>
-33.9001

> <Gold.PLP.part.repulsive>
0.5807

> <Gold.PLP.ligand.clash>
0.0000

> <Gold.PLP.ligand.torsion>
0.9153

> <Gold.PLP.Chemscore.Hbond>
3.8240

> <Gold.PLP.Chemscore.CHOScore>
0.0000

> <Gold.PLP.Chemscore.Metal>
0.0000

> <Gold.Chemscore.Hbonds>
donor molecule, donor type, donor heavy atom, donor atom, acceptor molecule, acceptor atom, score
      L1  H    19    44       P1 10186  1.79
      P1  H  7989  7998       L1     5  1.00
      P1  H  7997  8010       L1     3  0.96

> <Gold.PLP.Chemscore.Internal.Correction>
1.1836

> <Gold.Rescore>
     Score         DG    S(hbond)    S(metal)    S(lipo)     H(rot)  DE(clash)    DE(int)     intcor
     16.46     -19.35       2.51        0.00      85.48       1.77       1.99       0.90       ----

> <Gold.Chemscore.Fitness>
16.4594

> <Gold.Chemscore.DG>
-19.3480

> <Gold.Chemscore.ZeroCoef>
-5.4800

> <Gold.Chemscore.Hbond>
2.5114

> <Gold.Chemscore.Metal>
0.0000

> <Gold.Chemscore.Lipo>
85.4781

> <Gold.Chemscore.Internal_Hbond>
0.0000

> <Gold.Chemscore.DEClash>
1.9872

> <Gold.Chemscore.DEInternal>
0.9015

> <Gold.Chemscore.Rot>
1.7661

> <Gold.Chemscore.Internal.Correction>
   9.000000E+99

> <Gold.Chemscore.Hbonds>
donor molecule, donor type, donor heavy atom, donor atom, acceptor molecule, acceptor atom, score
      L1  H    19    44       P1 10186  0.88
      P1  H  7989  7998       L1     5  0.62
      P1  H  7997  8010       L1     3  0.76

> <Gold.Chemscore.Hbond.Weighted>
-8.3882

> <Gold.Chemscore.Metal.Weighted>
-0.0000

> <Gold.Chemscore.Lipo.Weighted>
-10.0009

> <Gold.Chemscore.Internal_Hbond.Weighted>
0.0000

> <Gold.Chemscore.DEClash.Weighted>
1.9872

> <Gold.Chemscore.DEInternal.Weighted>
0.9015

> <Gold.Chemscore.Rot.Weighted>
4.5211

> <Gold.Chemscore.Internal.Correction.Weighted>
   9.000000E+99

> <Gold.Protein.RotatedTorsions>
[ 6907 6896 6895 6894 ] final  128.59 input  -60.11 | X-H torsion
[ 7974 7965 7964 7962 ] final -159.63 input  175.53 | X-H torsion
[ 8008 7997 7996 7995 ] final   87.05 input   59.86 | X-H torsion
[ 10167 10162 10161 10158 ] final    9.44 input  -65.29 | X-H torsion
[ 10718 10713 10712 10709 ] final   70.63 input   66.30 | X-H torsion
[ 10763 10752 10751 10750 ] final  169.70 input  -60.55 | X-H torsion
[ 11005 11000 10999 10996 ] final   18.32 input  -57.11 | X-H torsion

> <Gold.Protein.ActiveResidues>
 VAL166  LYS551  ARG553  GLY616  TRP617  ASP618  TYR619  PRO620  LYS621  CYS622 
 ASP623  PHE694  ASN695  SER759  ASP760  ASP761  ALA762  ILE779  LEU786  VAL792 
 PHE793  MET794  SER795  GLU796  ALA797  LYS798  CYS799  TRP800  GLU811  SER814 

> <Gold.Protein.RotatedAtoms>
  152.3705  133.6413  159.6083 H   0  0  0  0  0  0  0  0  0  0  0  0  # atno 6907 bound_to 6896
  150.7665  133.9278  159.3426 H   0  0  0  0  0  0  0  0  0  0  0  0  # atno 6908 bound_to 6896
  151.7101  135.0915  160.0317 H   0  0  0  0  0  0  0  0  0  0  0  0  # atno 6909 bound_to 6896
  144.7458  140.3657  143.6086 H   0  0  0  0  0  0  0  0  0  0  0  0  # atno 7974 bound_to 7965
  155.9704  140.3386  155.6571 H   0  0  0  0  0  0  0  0  0  0  0  0  # atno 8008 bound_to 7997
  155.6681  140.0724  157.2548 H   0  0  0  0  0  0  0  0  0  0  0  0  # atno 8009 bound_to 7997
  154.4165  140.1696  156.1837 H   0  0  0  0  0  0  0  0  0  0  0  0  # atno 8010 bound_to 7997
  140.6255  143.8111  150.7227 H   0  0  0  0  0  0  0  0  0  0  0  0  # atno 10167 bound_to 10162
  157.6410  130.9487  150.0678 H   0  0  0  0  0  0  0  0  0  0  0  0  # atno 10718 bound_to 10713
  154.3870  135.2754  155.2177 H   0  0  0  0  0  0  0  0  0  0  0  0  # atno 10763 bound_to 10752
  154.4260  135.5989  153.6042 H   0  0  0  0  0  0  0  0  0  0  0  0  # atno 10764 bound_to 10752
  152.9833  135.5984  154.4120 H   0  0  0  0  0  0  0  0  0  0  0  0  # atno 10765 bound_to 10752
  140.4261  134.1468  155.7676 H   0  0  0  0  0  0  0  0  0  0  0  0  # atno 11005 bound_to 11000
  145.7130  139.1689  143.2528 LP  0  0  0  0  0  0  0  0  0  0  0  0  # atno 17320 bound_to 7965
  146.1333  140.7156  142.9402 LP  0  0  0  0  0  0  0  0  0  0  0  0  # atno 17321 bound_to 7965
  140.1711  143.4194  152.2000 LP  0  0  0  0  0  0  0  0  0  0  0  0  # atno 17342 bound_to 10162
  139.5476  144.7311  151.4536 LP  0  0  0  0  0  0  0  0  0  0  0  0  # atno 17343 bound_to 10162
  156.1691  130.3646  149.9190 LP  0  0  0  0  0  0  0  0  0  0  0  0  # atno 17370 bound_to 10713
  156.7170  130.8992  151.3615 LP  0  0  0  0  0  0  0  0  0  0  0  0  # atno 17371 bound_to 10713
  141.1764  133.8504  157.1405 LP  0  0  0  0  0  0  0  0  0  0  0  0  # atno 17394 bound_to 11000
  140.0166  134.9964  157.0507 LP  0  0  0  0  0  0  0  0  0  0  0  0  # atno 17395 bound_to 11000

$$$$
