AV-unprocessed.smi:3308|AV-procd|sdf|12709|dock2
  -GOLD-   2272019 43D 1   1.00000     0.00000
 Structure written by MMmdl.
 41 42  0  0  0  0  0  0  0  0  2 V2000
  150.0073  140.4998  154.6695 C   0  0  0  0  0  0  0  0  0  0  0  0
  148.9149  141.0499  155.6044 C   0  0  1  0  0  0  0  0  0  0  0  0
  149.4445  142.2407  156.3061 N   0  3  0  0  0  0  0  0  0  0  0  0
  150.9053  142.2320  156.5367 C   0  0  0  0  0  0  0  0  0  0  0  0
  151.2911  141.4694  157.8119 C   0  0  0  0  0  0  0  0  0  0  0  0
  151.1036  140.2533  157.8754 O   0  0  0  0  0  0  0  0  0  0  0  0
  151.8305  142.1668  158.8328 N   0  0  0  0  0  0  0  0  0  0  0  0
  152.2562  141.5584  160.0917 C   0  0  0  0  0  0  0  0  0  0  0  0
  153.0362  142.6445  160.8332 C   0  0  0  0  0  0  0  0  0  0  0  0
  152.4741  143.9477  160.2828 C   0  0  0  0  0  0  0  0  0  0  0  0
  152.0790  143.6083  158.8448 C   0  0  0  0  0  0  0  0  0  0  0  0
  147.5963  141.3995  154.8621 C   0  0  2  0  0  0  0  0  0  0  0  0
  146.4926  141.9105  155.8079 C   0  0  0  0  0  0  0  0  0  0  0  0
  147.0962  140.2809  154.0726 N   0  0  0  0  0  0  0  0  0  0  0  0
  147.1006  140.1344  152.7005 C   0  0  0  0  0  0  0  0  0  0  0  0
  146.5244  138.9298  152.4162 C   0  0  0  0  0  0  0  0  0  0  0  0
  146.1922  138.4032  153.6951 C   0  0  0  0  0  0  0  0  0  0  0  0
  146.5342  139.2133  154.6839 N   0  0  0  0  0  0  0  0  0  0  0  0
  149.7070  139.5622  154.2013 H   0  0  0  0  0  0  0  0  0  0  0  0
  150.9276  140.2995  155.2191 H   0  0  0  0  0  0  0  0  0  0  0  0
  150.2426  141.2084  153.8747 H   0  0  0  0  0  0  0  0  0  0  0  0
  148.7039  140.2703  156.3389 H   0  0  0  0  0  0  0  0  0  0  0  0
  149.2240  143.0596  155.7574 H   0  0  0  0  0  0  0  0  0  0  0  0
  151.4022  141.7742  155.6807 H   0  0  0  0  0  0  0  0  0  0  0  0
  151.2563  143.2620  156.6134 H   0  0  0  0  0  0  0  0  0  0  0  0
  151.3725  141.2655  160.6606 H   0  0  0  0  0  0  0  0  0  0  0  0
  152.8682  140.6688  159.9340 H   0  0  0  0  0  0  0  0  0  0  0  0
  152.9431  142.5670  161.9169 H   0  0  0  0  0  0  0  0  0  0  0  0
  154.0954  142.5704  160.5828 H   0  0  0  0  0  0  0  0  0  0  0  0
  151.5855  144.2281  160.8499 H   0  0  0  0  0  0  0  0  0  0  0  0
  153.1831  144.7740  160.3438 H   0  0  0  0  0  0  0  0  0  0  0  0
  152.8994  143.8348  158.1624 H   0  0  0  0  0  0  0  0  0  0  0  0
  151.2064  144.1845  158.5345 H   0  0  0  0  0  0  0  0  0  0  0  0
  147.8152  142.2013  154.1551 H   0  0  0  0  0  0  0  0  0  0  0  0
  146.7824  142.8401  156.2977 H   0  0  0  0  0  0  0  0  0  0  0  0
  146.2627  141.1821  156.5862 H   0  0  0  0  0  0  0  0  0  0  0  0
  145.5714  142.1117  155.2599 H   0  0  0  0  0  0  0  0  0  0  0  0
  147.5088  140.8906  152.0463 H   0  0  0  0  0  0  0  0  0  0  0  0
  146.3628  138.4913  151.4426 H   0  0  0  0  0  0  0  0  0  0  0  0
  145.7157  137.4634  153.9321 H   0  0  0  0  0  0  0  0  0  0  0  0
  148.9778  142.3235  157.1981 H   0  0  0  0  0  0  0  0  0  0  0  0
  1  2  1  0  0  0  0
  1 19  1  0  0  0  0
  1 20  1  0  0  0  0
  1 21  1  0  0  0  0
  2  3  1  0  0  0  0
  2 12  1  0  0  0  0
  2 22  1  0  0  0  0
  3  4  1  0  0  0  0
  3 23  1  0  0  0  0
  3 41  1  0  0  0  0
  4  5  1  0  0  0  0
  4 24  1  0  0  0  0
  4 25  1  0  0  0  0
  5  6  2  0  0  0  0
  5  7  1  0  0  0  0
  7 11  1  0  0  0  0
  7  8  1  0  0  0  0
  8  9  1  0  0  0  0
  8 26  1  0  0  0  0
  8 27  1  0  0  0  0
  9 10  1  0  0  0  0
  9 28  1  0  0  0  0
  9 29  1  0  0  0  0
 10 11  1  0  0  0  0
 10 30  1  0  0  0  0
 10 31  1  0  0  0  0
 11 32  1  0  0  0  0
 11 33  1  0  0  0  0
 12 13  1  0  0  0  0
 12 14  1  0  0  0  0
 12 34  1  0  0  0  0
 13 35  1  0  0  0  0
 13 36  1  0  0  0  0
 13 37  1  0  0  0  0
 14 18  1  0  0  0  0
 14 15  1  0  0  0  0
 15 16  2  0  0  0  0
 15 38  1  0  0  0  0
 16 17  1  0  0  0  0
 16 39  1  0  0  0  0
 17 18  2  0  0  0  0
 17 40  1  0  0  0  0
M  CHG  1   3   1
M  END
> <s_m_source_file>
AV-unprocessed.smi

> <i_m_source_file_index>
3308

> <i_lp_mmshare_version>
43012

> <i_f3d_flags>
0

> <s_epik_input>
bjFbY0hdW2NIXVtjSF1uMVtDQEBIXShbQ0gzXSlbQ0BIXShbQ0gzXSlbTkhdW0NIMl1DKD1PKU4yW0NIMl1bQ0gyXVtDSDJdW0NIMl0y

> <s_epik_cmdline>
J2VwaWtfcHl0aG9uJywgJy1waCcsICc3LjAnLCAnLXRuJywgJzgnLCAnLW1hJywgJzIwMCcsICctbWV0YWxfYmluZGluZycsICctaW1hZScsICc8aW5maWxlLm1hZT4nLCAnLW9tYWUnLCAnPG91dGZpbGUubWFlPic=

> <r_lp_tautomer_probability>
1

> <r_epik_Ionization_Penalty>
0.141739

> <r_epik_Ionization_Penalty_Charging>
0.141731

> <r_epik_Ionization_Penalty_Neutral>
8.82171e-06

> <r_epik_State_Penalty>
0.131043

> <r_epik_Charging_Adjusted_Penalty>
0.272773

> <i_epik_Tot_Q>
1

> <i_epik_Tot_abs_Q>
1

> <r_epik_Metal_State_Penalty>
0.131385

> <b_epik_Metal_Only>
0

> <s_lp_Force_Field>
OPLS_2005

> <r_lp_Energy>
34.0204

> <b_lp_Chiralities_Consistent>
1

> <s_lp_Variant>
AV-unprocessed.smi:3308-2

> <Gold.Version>
5.8.1

> <Gold.Id.Protein>
6NUR|6NUR_protein|mol2

> <Gold.PLP.Fitness>
39.4187

> <Gold.PLP.PLP>
-34.8963

> <Gold.PLP.part.hbond>
-1.0000

> <Gold.PLP.part.metal>
0.0000

> <Gold.PLP.part.buried>
-1.1460

> <Gold.PLP.part.nonpolar>
-33.0855

> <Gold.PLP.part.repulsive>
0.1536

> <Gold.PLP.ligand.clash>
1.7781

> <Gold.PLP.ligand.torsion>
0.7126

> <Gold.PLP.Chemscore.Hbond>
1.9520

> <Gold.PLP.Chemscore.CHOScore>
0.5913

> <Gold.PLP.Chemscore.Metal>
0.0000

> <Gold.Chemscore.Hbonds>
donor molecule, donor type, donor heavy atom, donor atom, acceptor molecule, acceptor atom, score
      L1  H     3    23       P1  8028  2.00
      L1  C    15    38       P1  7957  0.57

> <Gold.PLP.Chemscore.Internal.Correction>
0.0958

> <Gold.Rescore>
     Score         DG    S(hbond)    S(metal)    S(lipo)     H(rot)  DE(clash)    DE(int)     intcor
     14.16     -15.01       0.99        0.00      92.27       1.78       0.17       0.67       ----

> <Gold.Chemscore.Fitness>
14.1637

> <Gold.Chemscore.DG>
-15.0052

> <Gold.Chemscore.ZeroCoef>
-5.4800

> <Gold.Chemscore.Hbond>
0.9868

> <Gold.Chemscore.Metal>
0.0000

> <Gold.Chemscore.Lipo>
92.2661

> <Gold.Chemscore.Internal_Hbond>
0.0000

> <Gold.Chemscore.DEClash>
0.1670

> <Gold.Chemscore.DEInternal>
0.6745

> <Gold.Chemscore.Rot>
1.7836

> <Gold.Chemscore.Internal.Correction>
   9.000000E+99

> <Gold.Chemscore.Hbonds>
donor molecule, donor type, donor heavy atom, donor atom, acceptor molecule, acceptor atom, score
      L1  H     3    23       P1  8028  0.95

> <Gold.Chemscore.Hbond.Weighted>
-3.2960

> <Gold.Chemscore.Metal.Weighted>
-0.0000

> <Gold.Chemscore.Lipo.Weighted>
-10.7951

> <Gold.Chemscore.Internal_Hbond.Weighted>
0.0000

> <Gold.Chemscore.DEClash.Weighted>
0.1670

> <Gold.Chemscore.DEInternal.Weighted>
0.6745

> <Gold.Chemscore.Rot.Weighted>
4.5660

> <Gold.Chemscore.Internal.Correction.Weighted>
   9.000000E+99

> <Gold.Protein.RotatedTorsions>
[ 6907 6896 6895 6894 ] final   -3.92 input  -60.11 | X-H torsion
[ 7974 7965 7964 7962 ] final    8.45 input  175.53 | X-H torsion
[ 8008 7997 7996 7995 ] final -128.86 input   59.86 | X-H torsion
[ 10167 10162 10161 10158 ] final  121.98 input  -65.29 | X-H torsion
[ 10718 10713 10712 10709 ] final  -54.35 input   66.30 | X-H torsion
[ 10763 10752 10751 10750 ] final   39.62 input  -60.55 | X-H torsion
[ 11005 11000 10999 10996 ] final   27.56 input  -57.11 | X-H torsion

> <Gold.Protein.ActiveResidues>
 VAL166  LYS551  ARG553  GLY616  TRP617  ASP618  TYR619  PRO620  LYS621  CYS622 
 ASP623  PHE694  ASN695  SER759  ASP760  ASP761  ALA762  ILE779  LEU786  VAL792 
 PHE793  MET794  SER795  GLU796  ALA797  LYS798  CYS799  TRP800  GLU811  SER814 

> <Gold.Protein.RotatedAtoms>
  151.5060  135.1063  159.9841 H   0  0  0  0  0  0  0  0  0  0  0  0  # atno 6907 bound_to 6896
  152.4682  133.7965  159.6941 H   0  0  0  0  0  0  0  0  0  0  0  0  # atno 6908 bound_to 6896
  150.8676  133.7488  159.2997 H   0  0  0  0  0  0  0  0  0  0  0  0  # atno 6909 bound_to 6896
  146.2416  139.9932  142.8423 H   0  0  0  0  0  0  0  0  0  0  0  0  # atno 7974 bound_to 7965
  155.2696  140.0439  157.3005 H   0  0  0  0  0  0  0  0  0  0  0  0  # atno 8008 bound_to 7997
  154.5661  140.2360  155.8230 H   0  0  0  0  0  0  0  0  0  0  0  0  # atno 8009 bound_to 7997
  156.2086  140.3005  155.9690 H   0  0  0  0  0  0  0  0  0  0  0  0  # atno 8010 bound_to 7997
  139.5886  144.7016  151.3346 H   0  0  0  0  0  0  0  0  0  0  0  0  # atno 10167 bound_to 10162
  156.1458  130.4153  150.0026 H   0  0  0  0  0  0  0  0  0  0  0  0  # atno 10718 bound_to 10713
  152.9961  135.6215  154.2495 H   0  0  0  0  0  0  0  0  0  0  0  0  # atno 10763 bound_to 10752
  154.2234  135.2795  155.2918 H   0  0  0  0  0  0  0  0  0  0  0  0  # atno 10764 bound_to 10752
  154.5510  135.5733  153.6980 H   0  0  0  0  0  0  0  0  0  0  0  0  # atno 10765 bound_to 10752
  140.3249  134.2502  155.7711 H   0  0  0  0  0  0  0  0  0  0  0  0  # atno 11005 bound_to 11000
  145.1484  140.9609  143.4447 LP  0  0  0  0  0  0  0  0  0  0  0  0  # atno 17320 bound_to 7965
  145.0229  139.3408  143.6063 LP  0  0  0  0  0  0  0  0  0  0  0  0  # atno 17321 bound_to 7965
  140.7154  143.7281  150.7644 LP  0  0  0  0  0  0  0  0  0  0  0  0  # atno 17342 bound_to 10162
  140.0832  143.4949  152.2519 LP  0  0  0  0  0  0  0  0  0  0  0  0  # atno 17343 bound_to 10162
  156.7898  130.9252  151.3646 LP  0  0  0  0  0  0  0  0  0  0  0  0  # atno 17370 bound_to 10713
  157.6615  130.8970  149.9841 LP  0  0  0  0  0  0  0  0  0  0  0  0  # atno 17371 bound_to 10713
  141.2077  133.7797  157.0100 LP  0  0  0  0  0  0  0  0  0  0  0  0  # atno 17394 bound_to 11000
  140.0910  134.9592  157.1776 LP  0  0  0  0  0  0  0  0  0  0  0  0  # atno 17395 bound_to 11000

$$$$
