AV-unprocessed.smi:2790|AV-procd|sdf|10770|dock3
  -GOLD-   2272015203D 1   1.00000     0.00000
 Structure written by MMmdl.
 46 47  0  0  0  0  0  0  0  0  4 V2000
  148.3960  135.2832  155.2810 C   0  0  0  0  0  0  0  0  0  0  0  0
  149.3062  136.1220  156.0921 N   0  3  0  0  0  0  0  0  0  0  0  0
  150.7231  135.7331  155.9250 C   0  0  0  0  0  0  0  0  0  0  0  0
  148.8937  136.2201  157.5154 C   0  0  0  0  0  0  0  0  0  0  0  0
  149.7580  137.2652  158.2268 C   0  0  0  0  0  0  0  0  0  0  0  0
  150.4789  136.8949  159.1580 O   0  0  0  0  0  0  0  0  0  0  0  0
  149.5798  138.4989  157.6817 N   0  5  0  0  0  0  0  0  0  0  0  0
  150.1239  139.7353  158.2480 C   0  0  0  0  0  0  0  0  0  0  0  0
  150.9789  140.5343  157.1892 C   0  0  0  0  0  0  0  0  0  0  0  0
  151.5737  141.7991  157.8760 C   0  0  0  0  0  0  0  0  0  0  0  0
  151.3081  143.1050  157.3774 C   0  0  0  0  0  0  0  0  0  0  0  0
  151.8643  144.2349  158.0086 C   0  0  0  0  0  0  0  0  0  0  0  0
  152.6554  144.0805  159.0893 N   0  3  0  0  0  0  0  0  0  0  0  0
  152.9496  142.8705  159.6055 C   0  0  0  0  0  0  0  0  0  0  0  0
  152.4208  141.7056  159.0149 C   0  0  0  0  0  0  0  0  0  0  0  0
  152.1694  139.6579  156.6524 C   0  0  0  0  0  0  0  0  0  0  0  0
  151.8022  138.5280  155.6639 C   0  0  0  0  0  0  0  0  0  0  0  0
  151.0042  139.0582  154.4708 C   0  0  0  0  0  0  0  0  0  0  0  0
  149.7586  139.8040  154.9541 C   0  0  0  0  0  0  0  0  0  0  0  0
  150.1299  140.9432  155.9277 C   0  0  0  0  0  0  0  0  0  0  0  0
  148.4228  134.2442  155.6116 H   0  0  0  0  0  0  0  0  0  0  0  0
  148.6793  135.3153  154.2287 H   0  0  0  0  0  0  0  0  0  0  0  0
  147.3686  135.6408  155.3570 H   0  0  0  0  0  0  0  0  0  0  0  0
  150.9002  134.7280  156.3097 H   0  0  0  0  0  0  0  0  0  0  0  0
  151.3762  136.4261  156.4566 H   0  0  0  0  0  0  0  0  0  0  0  0
  151.0064  135.7526  154.8721 H   0  0  0  0  0  0  0  0  0  0  0  0
  147.8362  136.4755  157.6100 H   0  0  0  0  0  0  0  0  0  0  0  0
  149.0157  135.2615  158.0229 H   0  0  0  0  0  0  0  0  0  0  0  0
  149.3391  140.3949  158.6216 H   0  0  0  0  0  0  0  0  0  0  0  0
  150.7435  139.5143  159.1165 H   0  0  0  0  0  0  0  0  0  0  0  0
  150.6951  143.2577  156.5029 H   0  0  0  0  0  0  0  0  0  0  0  0
  151.7053  145.2509  157.6780 H   0  0  0  0  0  0  0  0  0  0  0  0
  153.5999  142.8684  160.4681 H   0  0  0  0  0  0  0  0  0  0  0  0
  152.6906  140.7536  159.4436 H   0  0  0  0  0  0  0  0  0  0  0  0
  152.8628  140.3163  156.1264 H   0  0  0  0  0  0  0  0  0  0  0  0
  152.7557  139.2160  157.4599 H   0  0  0  0  0  0  0  0  0  0  0  0
  152.7134  138.0484  155.3056 H   0  0  0  0  0  0  0  0  0  0  0  0
  151.2339  137.7469  156.1696 H   0  0  0  0  0  0  0  0  0  0  0  0
  151.6281  139.7276  153.8774 H   0  0  0  0  0  0  0  0  0  0  0  0
  150.7180  138.2349  153.8159 H   0  0  0  0  0  0  0  0  0  0  0  0
  149.2273  140.2172  154.0965 H   0  0  0  0  0  0  0  0  0  0  0  0
  149.0669  139.1058  155.4263 H   0  0  0  0  0  0  0  0  0  0  0  0
  149.2126  141.4691  156.1987 H   0  0  0  0  0  0  0  0  0  0  0  0
  150.7094  141.6626  155.3468 H   0  0  0  0  0  0  0  0  0  0  0  0
  149.2242  137.0607  155.7271 H   0  0  0  0  0  0  0  0  0  0  0  0
  153.0513  144.9112  159.5297 H   0  0  0  0  0  0  0  0  0  0  0  0
  1  2  1  0  0  0  0
  1 21  1  0  0  0  0
  1 22  1  0  0  0  0
  1 23  1  0  0  0  0
  2  3  1  0  0  0  0
  2  4  1  0  0  0  0
  2 45  1  0  0  0  0
  3 24  1  0  0  0  0
  3 25  1  0  0  0  0
  3 26  1  0  0  0  0
  4  5  1  0  0  0  0
  4 27  1  0  0  0  0
  4 28  1  0  0  0  0
  5  6  2  0  0  0  0
  5  7  1  0  0  0  0
  7  8  1  0  0  0  0
  8  9  1  0  0  0  0
  8 29  1  0  0  0  0
  8 30  1  0  0  0  0
  9 20  1  0  0  0  0
  9 10  1  0  0  0  0
  9 16  1  0  0  0  0
 10 15  1  0  0  0  0
 10 11  2  0  0  0  0
 11 12  1  0  0  0  0
 11 31  1  0  0  0  0
 12 13  2  0  0  0  0
 12 32  1  0  0  0  0
 13 14  1  0  0  0  0
 13 46  1  0  0  0  0
 14 15  2  0  0  0  0
 14 33  1  0  0  0  0
 15 34  1  0  0  0  0
 16 17  1  0  0  0  0
 16 35  1  0  0  0  0
 16 36  1  0  0  0  0
 17 18  1  0  0  0  0
 17 37  1  0  0  0  0
 17 38  1  0  0  0  0
 18 19  1  0  0  0  0
 18 39  1  0  0  0  0
 18 40  1  0  0  0  0
 19 20  1  0  0  0  0
 19 41  1  0  0  0  0
 19 42  1  0  0  0  0
 20 43  1  0  0  0  0
 20 44  1  0  0  0  0
M  CHG  1   2   1
M  CHG  1   7  -1
M  CHG  1  13   1
M  END
> <s_m_source_file>
AV-unprocessed.smi

> <i_m_source_file_index>
2790

> <i_lp_mmshare_version>
43012

> <i_f3d_flags>
0

> <s_epik_input>
W0NIM11OKFtDSDNdKVtDSDJdQyg9TylbTkhdW0NIMl1DMShbQ0gyXVtDSDJdW0NIMl1bQ0gyXVtDSDJdMSljMltjSF1bY0hdbltjSF1bY0hdMg==

> <s_epik_cmdline>
J2VwaWtfcHl0aG9uJywgJy1waCcsICc3LjAnLCAnLXRuJywgJzgnLCAnLW1hJywgJzIwMCcsICctbWV0YWxfYmluZGluZycsICctaW1hZScsICc8aW5maWxlLm1hZT4nLCAnLW9tYWUnLCAnPG91dGZpbGUubWFlPic=

> <r_epik_Ionization_Penalty>
6.72126

> <r_epik_Ionization_Penalty_Charging>
6.72126

> <r_epik_Ionization_Penalty_Neutral>
0

> <r_epik_State_Penalty>
7.43246

> <r_epik_Charging_Adjusted_Penalty>
14.1537

> <i_epik_Tot_Q>
1

> <i_epik_Tot_abs_Q>
3

> <r_epik_Metal_State_Penalty>
3.42758

> <b_epik_Metal_Only>
1

> <s_lp_Force_Field>
OPLS_2005

> <r_lp_Energy>
31.5627

> <b_lp_Chiralities_Consistent>
1

> <s_lp_Variant>
AV-unprocessed.smi:2790-5

> <Gold.Version>
5.8.1

> <Gold.Id.Protein>
6NUR|6NUR_protein|mol2

> <Gold.PLP.Fitness>
37.9471

> <Gold.PLP.PLP>
-35.0063

> <Gold.PLP.part.hbond>
-1.0000

> <Gold.PLP.part.metal>
0.0000

> <Gold.PLP.part.buried>
-4.3807

> <Gold.PLP.part.nonpolar>
-29.8668

> <Gold.PLP.part.repulsive>
0.0252

> <Gold.PLP.ligand.clash>
0.0000

> <Gold.PLP.ligand.torsion>
0.0732

> <Gold.PLP.Chemscore.Hbond>
1.0000

> <Gold.PLP.Chemscore.CHOScore>
0.0000

> <Gold.PLP.Chemscore.Metal>
0.0000

> <Gold.Chemscore.Hbonds>
donor molecule, donor type, donor heavy atom, donor atom, acceptor molecule, acceptor atom, score
      P1  H  6896  6907       L1     6  0.91

> <Gold.PLP.Chemscore.Internal.Correction>
0.0873

> <Gold.Rescore>
     Score         DG    S(hbond)    S(metal)    S(lipo)     H(rot)  DE(clash)    DE(int)     intcor
     14.38     -16.46       0.98        0.00     102.65       1.67       0.01       2.07       ----

> <Gold.Chemscore.Fitness>
14.3758

> <Gold.Chemscore.DG>
-16.4612

> <Gold.Chemscore.ZeroCoef>
-5.4800

> <Gold.Chemscore.Hbond>
0.9750

> <Gold.Chemscore.Metal>
0.0000

> <Gold.Chemscore.Lipo>
102.6523

> <Gold.Chemscore.Internal_Hbond>
0.0000

> <Gold.Chemscore.DEClash>
0.0141

> <Gold.Chemscore.DEInternal>
2.0713

> <Gold.Chemscore.Rot>
1.6741

> <Gold.Chemscore.Internal.Correction>
   9.000000E+99

> <Gold.Chemscore.Hbonds>
donor molecule, donor type, donor heavy atom, donor atom, acceptor molecule, acceptor atom, score
      P1  H  6896  6907       L1     6  0.88

> <Gold.Chemscore.Hbond.Weighted>
-3.2567

> <Gold.Chemscore.Metal.Weighted>
-0.0000

> <Gold.Chemscore.Lipo.Weighted>
-12.0103

> <Gold.Chemscore.Internal_Hbond.Weighted>
0.0000

> <Gold.Chemscore.DEClash.Weighted>
0.0141

> <Gold.Chemscore.DEInternal.Weighted>
2.0713

> <Gold.Chemscore.Rot.Weighted>
4.2858

> <Gold.Chemscore.Internal.Correction.Weighted>
   9.000000E+99

> <Gold.Protein.RotatedTorsions>
[ 6907 6896 6895 6894 ] final  -39.74 input  -60.11 | X-H torsion
[ 7974 7965 7964 7962 ] final  105.02 input  175.53 | X-H torsion
[ 8008 7997 7996 7995 ] final -167.52 input   59.86 | X-H torsion
[ 10167 10162 10161 10158 ] final   27.01 input  -65.29 | X-H torsion
[ 10718 10713 10712 10709 ] final  169.48 input   66.30 | X-H torsion
[ 10763 10752 10751 10750 ] final  173.17 input  -60.55 | X-H torsion
[ 11005 11000 10999 10996 ] final -131.09 input  -57.11 | X-H torsion

> <Gold.Protein.ActiveResidues>
 VAL166  LYS551  ARG553  GLY616  TRP617  ASP618  TYR619  PRO620  LYS621  CYS622 
 ASP623  PHE694  ASN695  SER759  ASP760  ASP761  ALA762  ILE779  LEU786  VAL792 
 PHE793  MET794  SER795  GLU796  ALA797  LYS798  CYS799  TRP800  GLU811  SER814 

> <Gold.Protein.RotatedAtoms>
  150.9868  134.9211  159.7875 H   0  0  0  0  0  0  0  0  0  0  0  0  # atno 6907 bound_to 6896
  152.5239  134.3336  159.9202 H   0  0  0  0  0  0  0  0  0  0  0  0  # atno 6908 bound_to 6896
  151.3342  133.3947  159.2700 H   0  0  0  0  0  0  0  0  0  0  0  0  # atno 6909 bound_to 6896
  145.3251  139.2502  143.3691 H   0  0  0  0  0  0  0  0  0  0  0  0  # atno 7974 bound_to 7965
  155.8788  140.1005  157.1500 H   0  0  0  0  0  0  0  0  0  0  0  0  # atno 8008 bound_to 7997
  154.4003  140.1333  156.4233 H   0  0  0  0  0  0  0  0  0  0  0  0  # atno 8009 bound_to 7997
  155.7667  140.3462  155.5228 H   0  0  0  0  0  0  0  0  0  0  0  0  # atno 8010 bound_to 7997
  140.4974  144.0370  150.6319 H   0  0  0  0  0  0  0  0  0  0  0  0  # atno 10167 bound_to 10162
  157.0220  131.0234  151.2772 H   0  0  0  0  0  0  0  0  0  0  0  0  # atno 10718 bound_to 10713
  154.4364  135.2761  155.1878 H   0  0  0  0  0  0  0  0  0  0  0  0  # atno 10763 bound_to 10752
  154.3762  135.6097  153.5770 H   0  0  0  0  0  0  0  0  0  0  0  0  # atno 10764 bound_to 10752
  152.9838  135.5869  154.4684 H   0  0  0  0  0  0  0  0  0  0  0  0  # atno 10765 bound_to 10752
  140.9289  134.1345  157.4251 H   0  0  0  0  0  0  0  0  0  0  0  0  # atno 11005 bound_to 11000
  146.3067  140.3817  142.8685 LP  0  0  0  0  0  0  0  0  0  0  0  0  # atno 17320 bound_to 7965
  144.8908  140.7521  143.5928 LP  0  0  0  0  0  0  0  0  0  0  0  0  # atno 17321 bound_to 7965
  140.3656  143.2883  152.0335 LP  0  0  0  0  0  0  0  0  0  0  0  0  # atno 17342 bound_to 10162
  139.4864  144.6269  151.7146 LP  0  0  0  0  0  0  0  0  0  0  0  0  # atno 17343 bound_to 10162
  157.5243  130.8017  149.7844 LP  0  0  0  0  0  0  0  0  0  0  0  0  # atno 17370 bound_to 10713
  156.0099  130.3838  150.2301 LP  0  0  0  0  0  0  0  0  0  0  0  0  # atno 17371 bound_to 10713
  139.8792  134.9998  156.5975 LP  0  0  0  0  0  0  0  0  0  0  0  0  # atno 17394 bound_to 11000
  140.7889  133.8599  155.8629 LP  0  0  0  0  0  0  0  0  0  0  0  0  # atno 17395 bound_to 11000

$$$$
