AV-unprocessed.smi:1961|AV-procd|sdf|7919|dock5
  -GOLD-   2272010 83D 1   1.00000     0.00000
 Structure written by MMmdl.
 36 37  0  0  0  0  0  0  0  0  1 V2000
  146.9146  139.4547  152.4753 C   0  0  0  0  0  0  0  0  0  0  0  0
  147.0936  139.2695  153.9890 C   0  0  0  0  0  0  0  0  0  0  0  0
  145.8789  139.7421  154.8011 C   0  0  0  0  0  0  0  0  0  0  0  0
  148.3726  139.8694  154.4855 C   0  0  0  0  0  0  0  0  0  0  0  0
  149.5802  139.4487  154.0853 N   0  0  0  0  0  0  0  0  0  0  0  0
  150.6121  140.1606  154.6806 N   0  0  0  0  0  0  0  0  0  0  0  0
  150.1527  141.1034  155.5144 C   0  0  0  0  0  0  0  0  0  0  0  0
  150.9899  141.9841  156.2493 N   0  0  0  0  0  0  0  0  0  0  0  0
  150.7417  142.5810  157.4285 C   0  0  0  0  0  0  0  0  0  0  0  0
  149.6985  142.4761  158.0739 O   0  0  0  0  0  0  0  0  0  0  0  0
  151.7858  143.3237  157.8236 N   0  0  0  0  0  0  0  0  0  0  0  0
  151.8527  144.1054  159.0544 C   0  0  0  0  0  0  0  0  0  0  0  0
  151.9659  143.2059  160.2970 C   0  0  1  0  0  0  0  0  0  0  0  0
  153.2754  142.4260  160.4168 C   0  0  0  0  0  0  0  0  0  0  0  0
  153.3415  142.1730  161.9052 C   0  0  0  0  0  0  0  0  0  0  0  0
  152.7961  143.4824  162.4677 C   0  0  0  0  0  0  0  0  0  0  0  0
  151.8998  143.9931  161.4832 O   0  0  0  0  0  0  0  0  0  0  0  0
  148.4047  141.1950  155.6437 S   0  0  0  0  0  0  0  0  0  0  0  0
  147.7555  139.0302  151.9259 H   0  0  0  0  0  0  0  0  0  0  0  0
  146.8412  140.5099  152.2100 H   0  0  0  0  0  0  0  0  0  0  0  0
  146.0079  138.9608  152.1249 H   0  0  0  0  0  0  0  0  0  0  0  0
  147.1738  138.1946  154.1569 H   0  0  0  0  0  0  0  0  0  0  0  0
  146.0034  139.5161  155.8606 H   0  0  0  0  0  0  0  0  0  0  0  0
  144.9658  139.2507  154.4642 H   0  0  0  0  0  0  0  0  0  0  0  0
  145.7314  140.8183  154.7043 H   0  0  0  0  0  0  0  0  0  0  0  0
  151.8886  142.1747  155.8318 H   0  0  0  0  0  0  0  0  0  0  0  0
  152.6003  143.3516  157.2279 H   0  0  0  0  0  0  0  0  0  0  0  0
  152.6749  144.8225  159.0237 H   0  0  0  0  0  0  0  0  0  0  0  0
  150.9384  144.6956  159.1183 H   0  0  0  0  0  0  0  0  0  0  0  0
  151.1287  142.5064  160.3268 H   0  0  0  0  0  0  0  0  0  0  0  0
  153.2831  141.5099  159.8253 H   0  0  0  0  0  0  0  0  0  0  0  0
  154.1207  143.0420  160.1059 H   0  0  0  0  0  0  0  0  0  0  0  0
  152.6840  141.3448  162.1731 H   0  0  0  0  0  0  0  0  0  0  0  0
  154.3466  141.9413  162.2587 H   0  0  0  0  0  0  0  0  0  0  0  0
  152.2975  143.3450  163.4276 H   0  0  0  0  0  0  0  0  0  0  0  0
  153.6029  144.2030  162.6058 H   0  0  0  0  0  0  0  0  0  0  0  0
  1  2  1  0  0  0  0
  1 19  1  0  0  0  0
  1 20  1  0  0  0  0
  1 21  1  0  0  0  0
  2  3  1  0  0  0  0
  2  4  1  0  0  0  0
  2 22  1  0  0  0  0
  3 23  1  0  0  0  0
  3 24  1  0  0  0  0
  3 25  1  0  0  0  0
  4 18  1  0  0  0  0
  4  5  2  0  0  0  0
  5  6  1  0  0  0  0
  6  7  2  0  0  0  0
  7  8  1  0  0  0  0
  7 18  1  0  0  0  0
  8  9  1  0  0  0  0
  8 26  1  0  0  0  0
  9 10  2  0  0  0  0
  9 11  1  0  0  0  0
 11 12  1  0  0  0  0
 11 27  1  0  0  0  0
 12 13  1  0  0  0  0
 12 28  1  0  0  0  0
 12 29  1  0  0  0  0
 13 17  1  0  0  0  0
 13 14  1  0  0  0  0
 13 30  1  0  0  0  0
 14 15  1  0  0  0  0
 14 31  1  0  0  0  0
 14 32  1  0  0  0  0
 15 16  1  0  0  0  0
 15 33  1  0  0  0  0
 15 34  1  0  0  0  0
 16 17  1  0  0  0  0
 16 35  1  0  0  0  0
 16 36  1  0  0  0  0
M  END
> <s_m_source_file>
AV-unprocessed.smi

> <i_m_source_file_index>
1961

> <i_lp_mmshare_version>
43012

> <i_f3d_flags>
0

> <s_epik_input>
W0NIM11bQ0hdKFtDSDNdKWMxbm5jKHMxKVtOSF1DKD1PKVtOSF1bQ0gyXVtDQEBIXTJbQ0gyXVtDSDJdW0NIMl1PMg==

> <s_epik_cmdline>
J2VwaWtfcHl0aG9uJywgJy1waCcsICc3LjAnLCAnLXRuJywgJzgnLCAnLW1hJywgJzIwMCcsICctbWV0YWxfYmluZGluZycsICctaW1hZScsICc8aW5maWxlLm1hZT4nLCAnLW9tYWUnLCAnPG91dGZpbGUubWFlPic=

> <r_lp_tautomer_probability>
1

> <r_epik_Ionization_Penalty>
0.000505257

> <r_epik_Ionization_Penalty_Charging>
0

> <r_epik_Ionization_Penalty_Neutral>
0.000505257

> <r_epik_State_Penalty>
-0

> <r_epik_Charging_Adjusted_Penalty>
0

> <i_epik_Tot_Q>
0

> <i_epik_Tot_abs_Q>
0

> <r_epik_Metal_State_Penalty>
0.219912

> <b_epik_Metal_Only>
0

> <s_lp_Force_Field>
OPLS_2005

> <r_lp_Energy>
10.2881

> <b_lp_Chiralities_Consistent>
1

> <s_lp_Variant>
AV-unprocessed.smi:1961-2

> <Gold.Version>
5.8.1

> <Gold.Id.Protein>
6NUR|6NUR_protein|mol2

> <Gold.PLP.Fitness>
36.2912

> <Gold.PLP.PLP>
-33.9311

> <Gold.PLP.part.hbond>
-1.0000

> <Gold.PLP.part.metal>
0.0000

> <Gold.PLP.part.buried>
-4.3611

> <Gold.PLP.part.nonpolar>
-29.3369

> <Gold.PLP.part.repulsive>
1.5152

> <Gold.PLP.ligand.clash>
0.0000

> <Gold.PLP.ligand.torsion>
0.3650

> <Gold.PLP.Chemscore.Hbond>
1.0000

> <Gold.PLP.Chemscore.CHOScore>
0.0000

> <Gold.PLP.Chemscore.Metal>
0.0000

> <Gold.Chemscore.Hbonds>
donor molecule, donor type, donor heavy atom, donor atom, acceptor molecule, acceptor atom, score
      P1  H  7989  7998       L1     6  1.00

> <Gold.PLP.Chemscore.Internal.Correction>
0.0901

> <Gold.Rescore>
     Score         DG    S(hbond)    S(metal)    S(lipo)     H(rot)  DE(clash)    DE(int)     intcor
     11.36     -14.04       0.81        0.00      81.76       1.45       1.26       1.41       ----

> <Gold.Chemscore.Fitness>
11.3637

> <Gold.Chemscore.DG>
-14.0375

> <Gold.Chemscore.ZeroCoef>
-5.4800

> <Gold.Chemscore.Hbond>
0.8063

> <Gold.Chemscore.Metal>
0.0000

> <Gold.Chemscore.Lipo>
81.7633

> <Gold.Chemscore.Internal_Hbond>
0.0000

> <Gold.Chemscore.DEClash>
1.2600

> <Gold.Chemscore.DEInternal>
1.4138

> <Gold.Chemscore.Rot>
1.4461

> <Gold.Chemscore.Internal.Correction>
   9.000000E+99

> <Gold.Chemscore.Hbonds>
donor molecule, donor type, donor heavy atom, donor atom, acceptor molecule, acceptor atom, score
      P1  H  7989  7998       L1     6  0.58

> <Gold.Chemscore.Hbond.Weighted>
-2.6931

> <Gold.Chemscore.Metal.Weighted>
-0.0000

> <Gold.Chemscore.Lipo.Weighted>
-9.5663

> <Gold.Chemscore.Internal_Hbond.Weighted>
0.0000

> <Gold.Chemscore.DEClash.Weighted>
1.2600

> <Gold.Chemscore.DEInternal.Weighted>
1.4138

> <Gold.Chemscore.Rot.Weighted>
3.7019

> <Gold.Chemscore.Internal.Correction.Weighted>
   9.000000E+99

> <Gold.Protein.RotatedTorsions>
[ 6907 6896 6895 6894 ] final  120.08 input  -60.11 | X-H torsion
[ 7974 7965 7964 7962 ] final   61.46 input  175.53 | X-H torsion
[ 8008 7997 7996 7995 ] final  166.60 input   59.86 | X-H torsion
[ 10167 10162 10161 10158 ] final -159.13 input  -65.29 | X-H torsion
[ 10718 10713 10712 10709 ] final  -27.71 input   66.30 | X-H torsion
[ 10763 10752 10751 10750 ] final -136.68 input  -60.55 | X-H torsion
[ 11005 11000 10999 10996 ] final  -23.82 input  -57.11 | X-H torsion

> <Gold.Protein.ActiveResidues>
 VAL166  LYS551  ARG553  GLY616  TRP617  ASP618  TYR619  PRO620  LYS621  CYS622 
 ASP623  PHE694  ASN695  SER759  ASP760  ASP761  ALA762  ILE779  LEU786  VAL792 
 PHE793  MET794  SER795  GLU796  ALA797  LYS798  CYS799  TRP800  GLU811  SER814 

> <Gold.Protein.RotatedAtoms>
  152.4425  133.7474  159.6674 H   0  0  0  0  0  0  0  0  0  0  0  0  # atno 6907 bound_to 6896
  150.8318  133.8068  159.3101 H   0  0  0  0  0  0  0  0  0  0  0  0  # atno 6908 bound_to 6896
  151.5720  135.1064  160.0049 H   0  0  0  0  0  0  0  0  0  0  0  0  # atno 6909 bound_to 6896
  145.8845  139.3466  143.0686 H   0  0  0  0  0  0  0  0  0  0  0  0  # atno 7974 bound_to 7965
  156.1705  140.1639  156.8455 H   0  0  0  0  0  0  0  0  0  0  0  0  # atno 8008 bound_to 7997
  154.5252  140.0769  156.8279 H   0  0  0  0  0  0  0  0  0  0  0  0  # atno 8009 bound_to 7997
  155.3522  140.3390  155.4242 H   0  0  0  0  0  0  0  0  0  0  0  0  # atno 8010 bound_to 7997
  139.6638  143.9865  152.2242 H   0  0  0  0  0  0  0  0  0  0  0  0  # atno 10167 bound_to 10162
  156.4346  130.4452  149.7094 H   0  0  0  0  0  0  0  0  0  0  0  0  # atno 10718 bound_to 10713
  154.8679  135.3665  154.5099 H   0  0  0  0  0  0  0  0  0  0  0  0  # atno 10763 bound_to 10752
  153.5735  135.7020  153.5499 H   0  0  0  0  0  0  0  0  0  0  0  0  # atno 10764 bound_to 10752
  153.3520  135.4069  155.1616 H   0  0  0  0  0  0  0  0  0  0  0  0  # atno 10765 bound_to 10752
  140.8788  133.7669  156.0276 H   0  0  0  0  0  0  0  0  0  0  0  0  # atno 11005 bound_to 11000
  145.8983  140.9259  143.0516 LP  0  0  0  0  0  0  0  0  0  0  0  0  # atno 17320 bound_to 7965
  144.6728  140.0999  143.7461 LP  0  0  0  0  0  0  0  0  0  0  0  0  # atno 17321 bound_to 7965
  139.9611  144.6557  150.8079 LP  0  0  0  0  0  0  0  0  0  0  0  0  # atno 17342 bound_to 10162
  140.7591  143.3121  151.2819 LP  0  0  0  0  0  0  0  0  0  0  0  0  # atno 17343 bound_to 10162
  156.3983  130.7662  151.2668 LP  0  0  0  0  0  0  0  0  0  0  0  0  # atno 17370 bound_to 10713
  157.7507  131.0247  150.3889 LP  0  0  0  0  0  0  0  0  0  0  0  0  # atno 17371 bound_to 10713
  140.8486  134.2981  157.5284 LP  0  0  0  0  0  0  0  0  0  0  0  0  # atno 17394 bound_to 11000
  139.8718  134.9455  156.3913 LP  0  0  0  0  0  0  0  0  0  0  0  0  # atno 17395 bound_to 11000

$$$$
