AV-unprocessed.smi:3294|AV-procd|sdf|12634|dock7
  -GOLD-   2272018573D 1   1.00000     0.00000
 Structure written by MMmdl.
 38 40  0  0  0  0  0  0  0  0  2 V2000
  150.4826  141.1705  156.0366 C   0  0  0  0  0  0  0  0  0  0  0  0
  149.3496  141.0191  155.0435 C   0  0  0  0  0  0  0  0  0  0  0  0
  149.0733  139.7961  154.3955 C   0  0  0  0  0  0  0  0  0  0  0  0
  147.9980  139.7232  153.4738 C   0  0  0  0  0  0  0  0  0  0  0  0
  147.6278  138.5358  152.7858 N   0  0  0  0  0  0  0  0  0  0  0  0
  146.3973  138.1297  152.4282 C   0  0  0  0  0  0  0  0  0  0  0  0
  145.3537  138.7311  152.6809 O   0  0  0  0  0  0  0  0  0  0  0  0
  146.4451  136.9605  151.7711 N   0  0  0  0  0  0  0  0  0  0  0  0
  145.3082  136.2080  151.2425 C   0  0  0  0  0  0  0  0  0  0  0  0
  144.2280  135.9179  152.2747 C   0  0  0  0  0  0  0  0  0  0  0  0
  142.8618  135.4242  151.8622 C   0  0  0  0  0  0  0  0  0  0  0  0
  143.0262  136.8195  152.4222 C   0  0  0  0  0  0  0  0  0  0  0  0
  145.7039  134.9401  150.5001 C   0  0  0  0  0  0  0  0  0  0  0  0
  144.6605  134.0222  149.9101 C   0  0  0  0  0  0  0  0  0  0  0  0
  145.4745  133.5750  151.1038 C   0  0  0  0  0  0  0  0  0  0  0  0
  147.2171  140.8792  153.2544 C   0  0  0  0  0  0  0  0  0  0  0  0
  147.5396  142.0737  153.9294 C   0  0  0  0  0  0  0  0  0  0  0  0
  148.5821  142.1013  154.7868 N   0  3  0  0  0  0  0  0  0  0  0  0
  151.0939  140.2685  156.0763 H   0  0  0  0  0  0  0  0  0  0  0  0
  150.0883  141.3593  157.0353 H   0  0  0  0  0  0  0  0  0  0  0  0
  151.1267  142.0047  155.7566 H   0  0  0  0  0  0  0  0  0  0  0  0
  149.6800  138.9331  154.6244 H   0  0  0  0  0  0  0  0  0  0  0  0
  148.3808  137.8914  152.5941 H   0  0  0  0  0  0  0  0  0  0  0  0
  147.3539  136.5474  151.6209 H   0  0  0  0  0  0  0  0  0  0  0  0
  144.8629  136.8762  150.5040 H   0  0  0  0  0  0  0  0  0  0  0  0
  144.6112  135.4911  153.1995 H   0  0  0  0  0  0  0  0  0  0  0  0
  142.6501  135.3350  150.7987 H   0  0  0  0  0  0  0  0  0  0  0  0
  142.3857  134.6793  152.4964 H   0  0  0  0  0  0  0  0  0  0  0  0
  142.6595  137.0047  153.4297 H   0  0  0  0  0  0  0  0  0  0  0  0
  142.9277  137.6525  151.7289 H   0  0  0  0  0  0  0  0  0  0  0  0
  146.6214  135.0410  149.9232 H   0  0  0  0  0  0  0  0  0  0  0  0
  143.6139  134.2673  150.0799 H   0  0  0  0  0  0  0  0  0  0  0  0
  144.8823  133.5644  148.9484 H   0  0  0  0  0  0  0  0  0  0  0  0
  146.2392  132.8189  150.9380 H   0  0  0  0  0  0  0  0  0  0  0  0
  144.9642  133.5192  152.0633 H   0  0  0  0  0  0  0  0  0  0  0  0
  146.3815  140.8565  152.5698 H   0  0  0  0  0  0  0  0  0  0  0  0
  146.9976  143.0007  153.8119 H   0  0  0  0  0  0  0  0  0  0  0  0
  148.7971  142.9761  155.2661 H   0  0  0  0  0  0  0  0  0  0  0  0
  1  2  1  0  0  0  0
  1 19  1  0  0  0  0
  1 20  1  0  0  0  0
  1 21  1  0  0  0  0
  2 18  1  0  0  0  0
  2  3  2  0  0  0  0
  3  4  1  0  0  0  0
  3 22  1  0  0  0  0
  4  5  1  0  0  0  0
  4 16  2  0  0  0  0
  5  6  1  0  0  0  0
  5 23  1  0  0  0  0
  6  7  2  0  0  0  0
  6  8  1  0  0  0  0
  8  9  1  0  0  0  0
  8 24  1  0  0  0  0
  9 10  1  0  0  0  0
  9 13  1  0  0  0  0
  9 25  1  0  0  0  0
 10 12  1  0  0  0  0
 10 11  1  0  0  0  0
 10 26  1  0  0  0  0
 11 12  1  0  0  0  0
 11 27  1  0  0  0  0
 11 28  1  0  0  0  0
 12 29  1  0  0  0  0
 12 30  1  0  0  0  0
 13 15  1  0  0  0  0
 13 14  1  0  0  0  0
 13 31  1  0  0  0  0
 14 15  1  0  0  0  0
 14 32  1  0  0  0  0
 14 33  1  0  0  0  0
 15 34  1  0  0  0  0
 15 35  1  0  0  0  0
 16 17  1  0  0  0  0
 16 36  1  0  0  0  0
 17 18  2  0  0  0  0
 17 37  1  0  0  0  0
 18 38  1  0  0  0  0
M  CHG  1  18   1
M  END
> <s_m_source_file>
AV-unprocessed.smi

> <i_m_source_file_index>
3294

> <i_lp_mmshare_version>
43012

> <i_f3d_flags>
0

> <s_epik_input>
W0NIM11jMVtjSF1jKFtjSF1bY0hdbjEpW05IXUMoPU8pW05IXVtDSF0oW0NIXTJbQ0gyXVtDSDJdMilbQ0hdM1tDSDJdW0NIMl0z

> <s_epik_cmdline>
J2VwaWtfcHl0aG9uJywgJy1waCcsICc3LjAnLCAnLXRuJywgJzgnLCAnLW1hJywgJzIwMCcsICctbWV0YWxfYmluZGluZycsICctaW1hZScsICc8aW5maWxlLm1hZT4nLCAnLW9tYWUnLCAnPG91dGZpbGUubWFlPic=

> <r_epik_Ionization_Penalty>
0.432398

> <r_epik_Ionization_Penalty_Charging>
0.432376

> <r_epik_Ionization_Penalty_Neutral>
2.18467e-05

> <r_epik_State_Penalty>
0.433859

> <r_epik_Charging_Adjusted_Penalty>
0.866235

> <i_epik_Tot_Q>
1

> <i_epik_Tot_abs_Q>
1

> <r_epik_Metal_State_Penalty>
0.667026

> <b_epik_Metal_Only>
0

> <s_lp_Force_Field>
OPLS_2005

> <r_lp_Energy>
34.1615

> <b_lp_Chiralities_Consistent>
1

> <s_lp_Variant>
AV-unprocessed.smi:3294-2

> <Gold.Version>
5.8.1

> <Gold.Id.Protein>
6NUR|6NUR_protein|mol2

> <Gold.PLP.Fitness>
44.3032

> <Gold.PLP.PLP>
-33.0953

> <Gold.PLP.part.hbond>
-3.8380

> <Gold.PLP.part.metal>
0.0000

> <Gold.PLP.part.buried>
-4.5061

> <Gold.PLP.part.nonpolar>
-29.8139

> <Gold.PLP.part.repulsive>
3.9029

> <Gold.PLP.ligand.clash>
0.0000

> <Gold.PLP.ligand.torsion>
1.4690

> <Gold.PLP.Chemscore.Hbond>
3.9920

> <Gold.PLP.Chemscore.CHOScore>
0.0000

> <Gold.PLP.Chemscore.Metal>
0.0000

> <Gold.Chemscore.Hbonds>
donor molecule, donor type, donor heavy atom, donor atom, acceptor molecule, acceptor atom, score
      L1  H     5    23       P1  7948  0.99
      L1  H     8    24       P1  7948  1.00
      L1  H    18    38       P1  8028  2.00

> <Gold.PLP.Chemscore.Internal.Correction>
2.1699

> <Gold.Rescore>
     Score         DG    S(hbond)    S(metal)    S(lipo)     H(rot)  DE(clash)    DE(int)     intcor
     14.18     -20.92       2.97        0.00      76.00       1.31       1.63       5.11       ----

> <Gold.Chemscore.Fitness>
14.1805

> <Gold.Chemscore.DG>
-20.9217

> <Gold.Chemscore.ZeroCoef>
-5.4800

> <Gold.Chemscore.Hbond>
2.9659

> <Gold.Chemscore.Metal>
0.0000

> <Gold.Chemscore.Lipo>
76.0011

> <Gold.Chemscore.Internal_Hbond>
0.0000

> <Gold.Chemscore.DEClash>
1.6283

> <Gold.Chemscore.DEInternal>
5.1130

> <Gold.Chemscore.Rot>
1.3111

> <Gold.Chemscore.Internal.Correction>
   9.000000E+99

> <Gold.Chemscore.Hbonds>
donor molecule, donor type, donor heavy atom, donor atom, acceptor molecule, acceptor atom, score
      L1  H     5    23       P1  7948  0.93
      L1  H     8    24       P1  7948  0.99
      L1  H    18    38       P1  8028  1.00

> <Gold.Chemscore.Hbond.Weighted>
-9.9061

> <Gold.Chemscore.Metal.Weighted>
-0.0000

> <Gold.Chemscore.Lipo.Weighted>
-8.8921

> <Gold.Chemscore.Internal_Hbond.Weighted>
0.0000

> <Gold.Chemscore.DEClash.Weighted>
1.6283

> <Gold.Chemscore.DEInternal.Weighted>
5.1130

> <Gold.Chemscore.Rot.Weighted>
3.3564

> <Gold.Chemscore.Internal.Correction.Weighted>
   9.000000E+99

> <Gold.Protein.RotatedTorsions>
[ 6907 6896 6895 6894 ] final   56.30 input  -60.11 | X-H torsion
[ 7974 7965 7964 7962 ] final  166.45 input  175.53 | X-H torsion
[ 8008 7997 7996 7995 ] final  -16.87 input   59.86 | X-H torsion
[ 10167 10162 10161 10158 ] final  -24.38 input  -65.29 | X-H torsion
[ 10718 10713 10712 10709 ] final  110.17 input   66.30 | X-H torsion
[ 10763 10752 10751 10750 ] final  -18.03 input  -60.55 | X-H torsion
[ 11005 11000 10999 10996 ] final  -30.38 input  -57.11 | X-H torsion

> <Gold.Protein.ActiveResidues>
 VAL166  LYS551  ARG553  GLY616  TRP617  ASP618  TYR619  PRO620  LYS621  CYS622 
 ASP623  PHE694  ASN695  SER759  ASP760  ASP761  ALA762  ILE779  LEU786  VAL792 
 PHE793  MET794  SER795  GLU796  ALA797  LYS798  CYS799  TRP800  GLU811  SER814 

> <Gold.Protein.RotatedAtoms>
  152.3622  134.6855  160.0203 H   0  0  0  0  0  0  0  0  0  0  0  0  # atno 6907 bound_to 6896
  151.7175  133.3308  159.3314 H   0  0  0  0  0  0  0  0  0  0  0  0  # atno 6908 bound_to 6896
  150.7613  134.6412  159.6282 H   0  0  0  0  0  0  0  0  0  0  0  0  # atno 6909 bound_to 6896
  144.7462  139.8617  143.6381 H   0  0  0  0  0  0  0  0  0  0  0  0  # atno 7974 bound_to 7965
  154.5020  140.2158  155.9327 H   0  0  0  0  0  0  0  0  0  0  0  0  # atno 8008 bound_to 7997
  156.1446  140.3173  155.8517 H   0  0  0  0  0  0  0  0  0  0  0  0  # atno 8009 bound_to 7997
  155.4055  140.0487  157.3025 H   0  0  0  0  0  0  0  0  0  0  0  0  # atno 8010 bound_to 7997
  140.7288  143.4359  151.0731 H   0  0  0  0  0  0  0  0  0  0  0  0  # atno 10167 bound_to 10162
  157.6507  131.0927  150.6561 H   0  0  0  0  0  0  0  0  0  0  0  0  # atno 10718 bound_to 10713
  153.5830  135.7004  153.5455 H   0  0  0  0  0  0  0  0  0  0  0  0  # atno 10763 bound_to 10752
  153.3245  135.4065  155.1444 H   0  0  0  0  0  0  0  0  0  0  0  0  # atno 10764 bound_to 10752
  154.8614  135.3703  154.5358 H   0  0  0  0  0  0  0  0  0  0  0  0  # atno 10765 bound_to 10752
  140.9378  133.7298  156.1030 H   0  0  0  0  0  0  0  0  0  0  0  0  # atno 11005 bound_to 11000
  146.1343  139.4385  143.0149 LP  0  0  0  0  0  0  0  0  0  0  0  0  # atno 17320 bound_to 7965
  145.7115  141.0104  143.1451 LP  0  0  0  0  0  0  0  0  0  0  0  0  # atno 17321 bound_to 7965
  139.8021  143.8070  152.3164 LP  0  0  0  0  0  0  0  0  0  0  0  0  # atno 17342 bound_to 10162
  139.8090  144.7343  150.9723 LP  0  0  0  0  0  0  0  0  0  0  0  0  # atno 17343 bound_to 10162
  156.6873  130.4585  149.5610 LP  0  0  0  0  0  0  0  0  0  0  0  0  # atno 17370 bound_to 10713
  156.1886  130.6545  151.1035 LP  0  0  0  0  0  0  0  0  0  0  0  0  # atno 17371 bound_to 10713
  140.7776  134.3762  157.5494 LP  0  0  0  0  0  0  0  0  0  0  0  0  # atno 17394 bound_to 11000
  139.8812  134.9061  156.2915 LP  0  0  0  0  0  0  0  0  0  0  0  0  # atno 17395 bound_to 11000

$$$$
