AV-unprocessed.smi:1701|AV-procd|sdf|6841|dock3
  -GOLD-   22720 8 13D 1   1.00000     0.00000
 Structure written by MMmdl.
 54 56  0  0  0  0  0  0  0  0  4 V2000
  151.4823  145.2075  159.3326 C   0  0  0  0  0  0  0  0  0  0  0  0
  152.1465  144.2946  158.2939 C   0  0  0  0  0  0  0  0  0  0  0  0
  152.4107  142.9595  158.8237 N   0  0  0  0  0  0  0  0  0  0  0  0
  153.2852  142.8188  159.9872 C   0  0  0  0  0  0  0  0  0  0  0  0
  152.5735  143.1874  161.2957 C   0  0  0  0  0  0  0  0  0  0  0  0
  151.7946  141.8241  158.2475 C   0  0  0  0  0  0  0  0  0  0  0  0
  151.6976  140.5724  158.9049 C   0  0  0  0  0  0  0  0  0  0  0  0
  151.0693  139.4865  158.2619 C   0  0  0  0  0  0  0  0  0  0  0  0
  150.5496  139.6470  156.9617 C   0  0  0  0  0  0  0  0  0  0  0  0
  149.9060  138.5315  156.3620 N   0  0  0  0  0  0  0  0  0  0  0  0
  149.1902  138.4693  155.2124 C   0  0  0  0  0  0  0  0  0  0  0  0
  149.1012  139.4742  154.5095 O   0  0  0  0  0  0  0  0  0  0  0  0
  148.6051  137.2917  154.8379 N   0  5  0  0  0  0  0  0  0  0  0  0
  148.3722  136.0701  155.6315 C   0  0  2  0  0  0  0  0  0  0  0  0
  149.7271  135.4453  156.0174 C   0  0  0  0  0  0  0  0  0  0  0  0
  150.0712  134.4461  154.8921 C   0  0  0  0  0  0  0  0  0  0  0  0
  148.9152  134.4656  153.9733 N   0  3  1  0  0  0  0  0  0  0  0  0
  148.6198  133.2191  153.2323 C   0  0  0  0  0  0  0  0  0  0  0  0
  147.4286  133.4542  152.2813 C   0  0  0  0  0  0  0  0  0  0  0  0
  146.2013  134.0184  153.0260 C   0  0  0  0  0  0  0  0  0  0  0  0
  146.5725  135.2787  153.8310 C   0  0  0  0  0  0  0  0  0  0  0  0
  147.7694  134.9597  154.7547 C   0  0  2  0  0  0  0  0  0  0  0  0
  150.6543  140.9187  156.3517 C   0  0  0  0  0  0  0  0  0  0  0  0
  151.2624  141.9319  157.0052 N   0  3  0  0  0  0  0  0  0  0  0  0
  151.2834  146.1921  158.9092 H   0  0  0  0  0  0  0  0  0  0  0  0
  152.1178  145.3457  160.2074 H   0  0  0  0  0  0  0  0  0  0  0  0
  150.5315  144.7949  159.6713 H   0  0  0  0  0  0  0  0  0  0  0  0
  151.4856  144.2000  157.4316 H   0  0  0  0  0  0  0  0  0  0  0  0
  153.0598  144.7470  157.9083 H   0  0  0  0  0  0  0  0  0  0  0  0
  153.6933  141.8094  160.0468 H   0  0  0  0  0  0  0  0  0  0  0  0
  154.1463  143.4744  159.8534 H   0  0  0  0  0  0  0  0  0  0  0  0
  153.2510  143.0887  162.1439 H   0  0  0  0  0  0  0  0  0  0  0  0
  151.7169  142.5378  161.4784 H   0  0  0  0  0  0  0  0  0  0  0  0
  152.2156  144.2172  161.2764 H   0  0  0  0  0  0  0  0  0  0  0  0
  152.0860  140.4238  159.9007 H   0  0  0  0  0  0  0  0  0  0  0  0
  150.9921  138.5344  158.7667 H   0  0  0  0  0  0  0  0  0  0  0  0
  150.0335  137.6507  156.8383 H   0  0  0  0  0  0  0  0  0  0  0  0
  147.7522  136.2439  156.5118 H   0  0  0  0  0  0  0  0  0  0  0  0
  150.5125  136.1882  156.1659 H   0  0  0  0  0  0  0  0  0  0  0  0
  149.6226  134.9037  156.9583 H   0  0  0  0  0  0  0  0  0  0  0  0
  150.9775  134.7279  154.3548 H   0  0  0  0  0  0  0  0  0  0  0  0
  150.2219  133.4474  155.3057 H   0  0  0  0  0  0  0  0  0  0  0  0
  149.5003  132.9146  152.6659 H   0  0  0  0  0  0  0  0  0  0  0  0
  148.3930  132.4158  153.9350 H   0  0  0  0  0  0  0  0  0  0  0  0
  147.7257  134.1535  151.4984 H   0  0  0  0  0  0  0  0  0  0  0  0
  147.1640  132.5237  151.7782 H   0  0  0  0  0  0  0  0  0  0  0  0
  145.4052  134.2475  152.3172 H   0  0  0  0  0  0  0  0  0  0  0  0
  145.8055  133.2589  153.7014 H   0  0  0  0  0  0  0  0  0  0  0  0
  146.8140  136.0837  153.1343 H   0  0  0  0  0  0  0  0  0  0  0  0
  145.7115  135.6138  154.4114 H   0  0  0  0  0  0  0  0  0  0  0  0
  147.4605  134.1560  155.4273 H   0  0  0  0  0  0  0  0  0  0  0  0
  150.2676  141.1726  155.3762 H   0  0  0  0  0  0  0  0  0  0  0  0
  149.1078  135.1900  153.2956 H   0  0  0  0  0  0  0  0  0  0  0  0
  151.3239  142.8338  156.5329 H   0  0  0  0  0  0  0  0  0  0  0  0
  1  2  1  0  0  0  0
  1 25  1  0  0  0  0
  1 26  1  0  0  0  0
  1 27  1  0  0  0  0
  2  3  1  0  0  0  0
  2 28  1  0  0  0  0
  2 29  1  0  0  0  0
  3  4  1  0  0  0  0
  3  6  1  0  0  0  0
  4  5  1  0  0  0  0
  4 30  1  0  0  0  0
  4 31  1  0  0  0  0
  5 32  1  0  0  0  0
  5 33  1  0  0  0  0
  5 34  1  0  0  0  0
  6 24  1  0  0  0  0
  6  7  2  0  0  0  0
  7  8  1  0  0  0  0
  7 35  1  0  0  0  0
  8  9  2  0  0  0  0
  8 36  1  0  0  0  0
  9 10  1  0  0  0  0
  9 23  1  0  0  0  0
 10 11  1  0  0  0  0
 10 37  1  0  0  0  0
 11 12  2  0  0  0  0
 11 13  1  0  0  0  0
 13 14  1  0  0  0  0
 14 22  1  0  0  0  0
 14 15  1  0  0  0  0
 14 38  1  0  0  0  0
 15 16  1  0  0  0  0
 15 39  1  0  0  0  0
 15 40  1  0  0  0  0
 16 17  1  0  0  0  0
 16 41  1  0  0  0  0
 16 42  1  0  0  0  0
 17 22  1  0  0  0  0
 17 18  1  0  0  0  0
 17 53  1  0  0  0  0
 18 19  1  0  0  0  0
 18 43  1  0  0  0  0
 18 44  1  0  0  0  0
 19 20  1  0  0  0  0
 19 45  1  0  0  0  0
 19 46  1  0  0  0  0
 20 21  1  0  0  0  0
 20 47  1  0  0  0  0
 20 48  1  0  0  0  0
 21 22  1  0  0  0  0
 21 49  1  0  0  0  0
 21 50  1  0  0  0  0
 22 51  1  0  0  0  0
 23 24  2  0  0  0  0
 23 52  1  0  0  0  0
 24 54  1  0  0  0  0
M  CHG  1  13  -1
M  CHG  1  17   1
M  CHG  1  24   1
M  END
> <s_m_source_file>
AV-unprocessed.smi

> <i_m_source_file_index>
1701

> <i_lp_mmshare_version>
43012

> <i_f3d_flags>
0

> <s_epik_input>
W0NIM11bQ0gyXU4oW0NIMl1bQ0gzXSljMVtjSF1bY0hdYyhbY0hdbjEpW05IXUMoPU8pW05IXVtDQEhdKFtDSDJdW0NIMl0yKVtDQEBIXShOMjMpW0NIMl1bQ0gyXVtDSDJdW0NIMl0z

> <s_epik_cmdline>
J2VwaWtfcHl0aG9uJywgJy1waCcsICc3LjAnLCAnLXRuJywgJzgnLCAnLW1hJywgJzIwMCcsICctbWV0YWxfYmluZGluZycsICctaW1hZScsICc8aW5maWxlLm1hZT4nLCAnLW9tYWUnLCAnPG91dGZpbGUubWFlPic=

> <r_lp_tautomer_probability>
0.999994

> <r_epik_Ionization_Penalty>
7.37095

> <r_epik_Ionization_Penalty_Charging>
7.37095

> <r_epik_Ionization_Penalty_Neutral>
3.78969e-06

> <r_epik_State_Penalty>
6.83842

> <r_epik_Charging_Adjusted_Penalty>
14.2094

> <i_epik_Tot_Q>
1

> <i_epik_Tot_abs_Q>
3

> <r_epik_Metal_State_Penalty>
2.78552

> <b_epik_Metal_Only>
1

> <s_lp_Force_Field>
OPLS_2005

> <r_lp_Energy>
49.8096

> <b_lp_Chiralities_Consistent>
1

> <s_lp_Variant>
AV-unprocessed.smi:1701-21

> <Gold.Version>
5.8.1

> <Gold.Id.Protein>
6NUR|6NUR_protein|mol2

> <Gold.PLP.Fitness>
47.4853

> <Gold.PLP.PLP>
-42.1391

> <Gold.PLP.part.hbond>
-1.0000

> <Gold.PLP.part.metal>
0.0000

> <Gold.PLP.part.buried>
-3.2597

> <Gold.PLP.part.nonpolar>
-37.6509

> <Gold.PLP.part.repulsive>
0.3478

> <Gold.PLP.ligand.clash>
0.0000

> <Gold.PLP.ligand.torsion>
0.4588

> <Gold.PLP.Chemscore.Hbond>
2.0000

> <Gold.PLP.Chemscore.CHOScore>
0.0000

> <Gold.PLP.Chemscore.Metal>
0.0000

> <Gold.Chemscore.Hbonds>
donor molecule, donor type, donor heavy atom, donor atom, acceptor molecule, acceptor atom, score
      L1  H    17    53       P1  7948  2.00

> <Gold.PLP.Chemscore.Internal.Correction>
0.2637

> <Gold.Rescore>
     Score         DG    S(hbond)    S(metal)    S(lipo)     H(rot)  DE(clash)    DE(int)     intcor
     15.08     -16.96       0.97        0.00      98.60       1.28       0.07       1.80       ----

> <Gold.Chemscore.Fitness>
15.0831

> <Gold.Chemscore.DG>
-16.9557

> <Gold.Chemscore.ZeroCoef>
-5.4800

> <Gold.Chemscore.Hbond>
0.9658

> <Gold.Chemscore.Metal>
0.0000

> <Gold.Chemscore.Lipo>
98.6017

> <Gold.Chemscore.Internal_Hbond>
0.0000

> <Gold.Chemscore.DEClash>
0.0681

> <Gold.Chemscore.DEInternal>
1.8045

> <Gold.Chemscore.Rot>
1.2838

> <Gold.Chemscore.Internal.Correction>
   9.000000E+99

> <Gold.Chemscore.Hbonds>
donor molecule, donor type, donor heavy atom, donor atom, acceptor molecule, acceptor atom, score
      L1  H    17    53       P1  7948  0.26

> <Gold.Chemscore.Hbond.Weighted>
-3.2259

> <Gold.Chemscore.Metal.Weighted>
-0.0000

> <Gold.Chemscore.Lipo.Weighted>
-11.5364

> <Gold.Chemscore.Internal_Hbond.Weighted>
0.0000

> <Gold.Chemscore.DEClash.Weighted>
0.0681

> <Gold.Chemscore.DEInternal.Weighted>
1.8045

> <Gold.Chemscore.Rot.Weighted>
3.2865

> <Gold.Chemscore.Internal.Correction.Weighted>
   9.000000E+99

> <Gold.Protein.RotatedTorsions>
[ 6907 6896 6895 6894 ] final  -25.89 input  -60.11 | X-H torsion
[ 7974 7965 7964 7962 ] final -168.58 input  175.53 | X-H torsion
[ 8008 7997 7996 7995 ] final   -5.78 input   59.86 | X-H torsion
[ 10167 10162 10161 10158 ] final -167.90 input  -65.29 | X-H torsion
[ 10718 10713 10712 10709 ] final  -25.05 input   66.30 | X-H torsion
[ 10763 10752 10751 10750 ] final  116.09 input  -60.55 | X-H torsion
[ 11005 11000 10999 10996 ] final   -8.61 input  -57.11 | X-H torsion

> <Gold.Protein.ActiveResidues>
 VAL166  LYS551  ARG553  GLY616  TRP617  ASP618  TYR619  PRO620  LYS621  CYS622 
 ASP623  PHE694  ASN695  SER759  ASP760  ASP761  ALA762  ILE779  LEU786  VAL792 
 PHE793  MET794  SER795  GLU796  ALA797  LYS798  CYS799  TRP800  GLU811  SER814 

> <Gold.Protein.RotatedAtoms>
  151.1688  135.0308  159.8742 H   0  0  0  0  0  0  0  0  0  0  0  0  # atno 6907 bound_to 6896
  152.5449  134.1194  159.8403 H   0  0  0  0  0  0  0  0  0  0  0  0  # atno 6908 bound_to 6896
  151.1298  133.4998  159.2632 H   0  0  0  0  0  0  0  0  0  0  0  0  # atno 6909 bound_to 6896
  144.7200  140.2349  143.6299 H   0  0  0  0  0  0  0  0  0  0  0  0  # atno 7974 bound_to 7965
  154.6004  140.2450  155.7800 H   0  0  0  0  0  0  0  0  0  0  0  0  # atno 8008 bound_to 7997
  156.2307  140.2967  156.0134 H   0  0  0  0  0  0  0  0  0  0  0  0  # atno 8009 bound_to 7997
  155.2220  140.0400  157.2940 H   0  0  0  0  0  0  0  0  0  0  0  0  # atno 8010 bound_to 7997
  139.6019  144.0992  152.1752 H   0  0  0  0  0  0  0  0  0  0  0  0  # atno 10167 bound_to 10162
  156.4695  130.4521  149.6878 H   0  0  0  0  0  0  0  0  0  0  0  0  # atno 10718 bound_to 10713
  153.5320  135.3576  155.2680 H   0  0  0  0  0  0  0  0  0  0  0  0  # atno 10763 bound_to 10752
  154.8726  135.4070  154.3140 H   0  0  0  0  0  0  0  0  0  0  0  0  # atno 10764 bound_to 10752
  153.3831  135.7069  153.6618 H   0  0  0  0  0  0  0  0  0  0  0  0  # atno 10765 bound_to 10752
  140.7253  133.8794  155.8852 H   0  0  0  0  0  0  0  0  0  0  0  0  # atno 11005 bound_to 11000
  145.8375  139.2114  143.1846 LP  0  0  0  0  0  0  0  0  0  0  0  0  # atno 17320 bound_to 7965
  146.0376  140.8197  142.9845 LP  0  0  0  0  0  0  0  0  0  0  0  0  # atno 17321 bound_to 7965
  140.0590  144.5871  150.7277 LP  0  0  0  0  0  0  0  0  0  0  0  0  # atno 17342 bound_to 10162
  140.7256  143.2633  151.4131 LP  0  0  0  0  0  0  0  0  0  0  0  0  # atno 17343 bound_to 10162
  156.3633  130.7492  151.2467 LP  0  0  0  0  0  0  0  0  0  0  0  0  # atno 17370 bound_to 10713
  157.7492  131.0344  150.4316 LP  0  0  0  0  0  0  0  0  0  0  0  0  # atno 17371 bound_to 10713
  140.9968  134.1205  157.4356 LP  0  0  0  0  0  0  0  0  0  0  0  0  # atno 17394 bound_to 11000
  139.8838  135.0056  156.6328 LP  0  0  0  0  0  0  0  0  0  0  0  0  # atno 17395 bound_to 11000

$$$$
