AV-unprocessed.smi:126|AV-procd|sdf|1151|dock7
  -GOLD-   2262018283D 1   1.00000     0.00000
 Structure written by MMmdl.
 40 42  0  0  0  0  0  0  0  0  1 V2000
  153.3348  139.1387  157.2096 O   0  0  0  0  0  0  0  0  0  0  0  0
  152.5507  139.6619  156.4165 C   0  0  0  0  0  0  0  0  0  0  0  0
  152.2266  138.9798  155.0780 C   0  0  0  0  0  0  0  0  0  0  0  0
  150.8475  138.4495  155.0045 N   0  0  0  0  0  0  0  0  0  0  0  0
  149.8109  139.2996  154.5457 C   0  0  0  0  0  0  0  0  0  0  0  0
  150.0381  140.4648  154.2172 O   0  0  0  0  0  0  0  0  0  0  0  0
  148.4833  138.6984  154.4871 C   0  0  0  0  0  0  0  0  0  0  0  0
  147.4380  139.4332  154.0706 F   0  0  0  0  0  0  0  0  0  0  0  0
  148.2853  137.4128  154.8450 C   0  0  0  0  0  0  0  0  0  0  0  0
  149.3092  136.5914  155.2810 N   0  0  0  0  0  0  0  0  0  0  0  0
  149.0723  135.1468  155.6640 C   0  0  2  0  0  0  0  0  0  0  0  0
  149.8642  134.2064  154.7384 C   0  0  0  0  0  0  0  0  0  0  0  0
  148.8162  133.1946  154.3215 C   0  0  0  0  0  0  0  0  0  0  0  0
  147.5459  134.0312  154.3511 C   0  0  0  0  0  0  0  0  0  0  0  0
  147.7170  134.8312  155.5142 O   0  0  0  0  0  0  0  0  0  0  0  0
  150.6231  137.1000  155.3666 C   0  0  0  0  0  0  0  0  0  0  0  0
  151.5519  136.3804  155.7404 O   0  0  0  0  0  0  0  0  0  0  0  0
  151.9497  140.8498  156.6112 N   0  0  0  0  0  0  0  0  0  0  0  0
  152.0280  141.7100  157.7397 C   0  0  0  0  0  0  0  0  0  0  0  0
  153.0254  141.4302  158.6976 C   0  0  0  0  0  0  0  0  0  0  0  0
  153.1761  142.2499  159.8328 C   0  0  0  0  0  0  0  0  0  0  0  0
  152.3357  143.3643  160.0135 C   0  0  0  0  0  0  0  0  0  0  0  0
  151.3493  143.6617  159.0546 C   0  0  0  0  0  0  0  0  0  0  0  0
  151.1968  142.8430  157.9185 C   0  0  0  0  0  0  0  0  0  0  0  0
  152.4049  139.6886  154.2672 H   0  0  0  0  0  0  0  0  0  0  0  0
  152.9652  138.1950  154.9083 H   0  0  0  0  0  0  0  0  0  0  0  0
  147.2789  137.0291  154.7797 H   0  0  0  0  0  0  0  0  0  0  0  0
  149.3416  135.0668  156.7187 H   0  0  0  0  0  0  0  0  0  0  0  0
  150.2304  134.7546  153.8688 H   0  0  0  0  0  0  0  0  0  0  0  0
  150.7119  133.7627  155.2613 H   0  0  0  0  0  0  0  0  0  0  0  0
  149.0141  132.7508  153.3456 H   0  0  0  0  0  0  0  0  0  0  0  0
  148.7535  132.3927  155.0582 H   0  0  0  0  0  0  0  0  0  0  0  0
  147.4786  134.6640  153.4653 H   0  0  0  0  0  0  0  0  0  0  0  0
  146.6416  133.4252  154.4111 H   0  0  0  0  0  0  0  0  0  0  0  0
  151.4150  141.2058  155.8322 H   0  0  0  0  0  0  0  0  0  0  0  0
  153.6781  140.5792  158.5681 H   0  0  0  0  0  0  0  0  0  0  0  0
  153.9380  142.0243  160.5642 H   0  0  0  0  0  0  0  0  0  0  0  0
  152.4519  143.9944  160.8829 H   0  0  0  0  0  0  0  0  0  0  0  0
  150.7113  144.5231  159.1868 H   0  0  0  0  0  0  0  0  0  0  0  0
  150.4464  143.1122  157.1914 H   0  0  0  0  0  0  0  0  0  0  0  0
  1  2  2  0  0  0  0
  2  3  1  0  0  0  0
  2 18  1  0  0  0  0
  3  4  1  0  0  0  0
  3 25  1  0  0  0  0
  3 26  1  0  0  0  0
  4 16  1  0  0  0  0
  4  5  1  0  0  0  0
  5  6  2  0  0  0  0
  5  7  1  0  0  0  0
  7  8  1  0  0  0  0
  7  9  2  0  0  0  0
  9 10  1  0  0  0  0
  9 27  1  0  0  0  0
 10 11  1  0  0  0  0
 10 16  1  0  0  0  0
 11 15  1  0  0  0  0
 11 12  1  0  0  0  0
 11 28  1  0  0  0  0
 12 13  1  0  0  0  0
 12 29  1  0  0  0  0
 12 30  1  0  0  0  0
 13 14  1  0  0  0  0
 13 31  1  0  0  0  0
 13 32  1  0  0  0  0
 14 15  1  0  0  0  0
 14 33  1  0  0  0  0
 14 34  1  0  0  0  0
 16 17  2  0  0  0  0
 18 19  1  0  0  0  0
 18 35  1  0  0  0  0
 19 24  1  0  0  0  0
 19 20  2  0  0  0  0
 20 21  1  0  0  0  0
 20 36  1  0  0  0  0
 21 22  2  0  0  0  0
 21 37  1  0  0  0  0
 22 23  1  0  0  0  0
 22 38  1  0  0  0  0
 23 24  2  0  0  0  0
 23 39  1  0  0  0  0
 24 40  1  0  0  0  0
M  END
> <s_m_source_file>
AV-unprocessed.smi

> <i_m_source_file_index>
126

> <i_lp_mmshare_version>
43012

> <i_f3d_flags>
0

> <s_epik_input>
W2NIXTFbY0hdW2NIXVtjSF1bY0hdYzFbTkhdQyg9TylbQ0gyXW4yYyg9TyljKEYpW2NIXW4oYzI9TylbQ0BASF0zW0NIMl1bQ0gyXVtDSDJdTzM=

> <s_epik_cmdline>
J2VwaWtfcHl0aG9uJywgJy1waCcsICc3LjAnLCAnLXRuJywgJzgnLCAnLW1hJywgJzIwMCcsICctbWV0YWxfYmluZGluZycsICctaW1hZScsICc8aW5maWxlLm1hZT4nLCAnLW9tYWUnLCAnPG91dGZpbGUubWFlPic=

> <r_lp_tautomer_probability>
1

> <r_epik_Ionization_Penalty>
1.86934e-06

> <r_epik_Ionization_Penalty_Charging>
3.88729e-08

> <r_epik_Ionization_Penalty_Neutral>
1.83046e-06

> <r_epik_State_Penalty>
-0

> <r_epik_Charging_Adjusted_Penalty>
3.88729e-08

> <i_epik_Tot_Q>
0

> <i_epik_Tot_abs_Q>
0

> <r_epik_Metal_State_Penalty>
-0

> <b_epik_Metal_Only>
0

> <s_epik_Chemistry_Notes>
This compound contains an acetal/aminal-like group ( X-CH(R)-Y where X, Y are N, S, or O) that may be acid/base labile, releasing an aldehyde.

> <s_lp_Force_Field>
OPLS_2005

> <r_lp_Energy>
33.0924

> <b_lp_Chiralities_Consistent>
1

> <s_lp_Variant>
AV-unprocessed.smi:126-1

> <Gold.Version>
5.8.1

> <Gold.Id.Protein>
6NUR|6NUR_protein|mol2

> <Gold.PLP.Fitness>
45.6154

> <Gold.PLP.PLP>
-38.1296

> <Gold.PLP.part.hbond>
-3.0000

> <Gold.PLP.part.metal>
0.0000

> <Gold.PLP.part.buried>
-2.5375

> <Gold.PLP.part.nonpolar>
-33.1357

> <Gold.PLP.part.repulsive>
0.4449

> <Gold.PLP.ligand.clash>
0.0083

> <Gold.PLP.ligand.torsion>
0.5086

> <Gold.PLP.Chemscore.Hbond>
2.8320

> <Gold.PLP.Chemscore.CHOScore>
0.0000

> <Gold.PLP.Chemscore.Metal>
0.0000

> <Gold.Chemscore.Hbonds>
donor molecule, donor type, donor heavy atom, donor atom, acceptor molecule, acceptor atom, score
      P1  H  7989  7998       L1     6  0.82
      P1  H  7997  8008       L1     1  0.94
      P1  H 10752 10765       L1    17  1.00

> <Gold.PLP.Chemscore.Internal.Correction>
0.0153

> <Gold.Rescore>
     Score         DG    S(hbond)    S(metal)    S(lipo)     H(rot)  DE(clash)    DE(int)     intcor
     14.57     -18.52       2.07        0.00      88.70       1.66       0.72       3.23       ----

> <Gold.Chemscore.Fitness>
14.5686

> <Gold.Chemscore.DG>
-18.5215

> <Gold.Chemscore.ZeroCoef>
-5.4800

> <Gold.Chemscore.Hbond>
2.0714

> <Gold.Chemscore.Metal>
0.0000

> <Gold.Chemscore.Lipo>
88.7012

> <Gold.Chemscore.Internal_Hbond>
0.0000

> <Gold.Chemscore.DEClash>
0.7196

> <Gold.Chemscore.DEInternal>
3.2333

> <Gold.Chemscore.Rot>
1.6621

> <Gold.Chemscore.Internal.Correction>
   9.000000E+99

> <Gold.Chemscore.Hbonds>
donor molecule, donor type, donor heavy atom, donor atom, acceptor molecule, acceptor atom, score
      P1  H  7989  7998       L1     6  0.80
      P1  H  7997  8008       L1     1  0.35
      P1  H 10752 10765       L1    17  0.98

> <Gold.Chemscore.Hbond.Weighted>
-6.9184

> <Gold.Chemscore.Metal.Weighted>
-0.0000

> <Gold.Chemscore.Lipo.Weighted>
-10.3780

> <Gold.Chemscore.Internal_Hbond.Weighted>
0.0000

> <Gold.Chemscore.DEClash.Weighted>
0.7196

> <Gold.Chemscore.DEInternal.Weighted>
3.2333

> <Gold.Chemscore.Rot.Weighted>
4.2550

> <Gold.Chemscore.Internal.Correction.Weighted>
   9.000000E+99

> <Gold.Protein.RotatedTorsions>
[ 6907 6896 6895 6894 ] final  106.01 input  -60.11 | X-H torsion
[ 7974 7965 7964 7962 ] final   81.27 input  175.53 | X-H torsion
[ 8008 7997 7996 7995 ] final  -90.67 input   59.86 | X-H torsion
[ 10167 10162 10161 10158 ] final  -80.26 input  -65.29 | X-H torsion
[ 10718 10713 10712 10709 ] final  145.30 input   66.30 | X-H torsion
[ 10763 10752 10751 10750 ] final -150.71 input  -60.55 | X-H torsion
[ 11005 11000 10999 10996 ] final  119.95 input  -57.11 | X-H torsion

> <Gold.Protein.ActiveResidues>
 VAL166  LYS551  ARG553  GLY616  TRP617  ASP618  TYR619  PRO620  LYS621  CYS622 
 ASP623  PHE694  ASN695  SER759  ASP760  ASP761  ALA762  ILE779  LEU786  VAL792 
 PHE793  MET794  SER795  GLU796  ALA797  LYS798  CYS799  TRP800  GLU811  SER814 

> <Gold.Protein.RotatedAtoms>
  152.5210  133.9444  159.7641 H   0  0  0  0  0  0  0  0  0  0  0  0  # atno 6907 bound_to 6896
  150.9767  133.6279  159.2736 H   0  0  0  0  0  0  0  0  0  0  0  0  # atno 6908 bound_to 6896
  151.3471  135.0882  159.9443 H   0  0  0  0  0  0  0  0  0  0  0  0  # atno 6909 bound_to 6896
  145.6404  139.2424  143.2034 H   0  0  0  0  0  0  0  0  0  0  0  0  # atno 7974 bound_to 7965
  154.7014  140.0528  157.0462 H   0  0  0  0  0  0  0  0  0  0  0  0  # atno 8008 bound_to 7997
  155.0679  140.3196  155.4621 H   0  0  0  0  0  0  0  0  0  0  0  0  # atno 8009 bound_to 7997
  156.2761  140.2087  156.5807 H   0  0  0  0  0  0  0  0  0  0  0  0  # atno 8010 bound_to 7997
  140.4519  143.2480  151.8476 H   0  0  0  0  0  0  0  0  0  0  0  0  # atno 10167 bound_to 10162
  157.3470  131.0944  151.1033 H   0  0  0  0  0  0  0  0  0  0  0  0  # atno 10718 bound_to 10713
  154.8102  135.3277  154.7325 H   0  0  0  0  0  0  0  0  0  0  0  0  # atno 10763 bound_to 10752
  153.7976  135.6906  153.4865 H   0  0  0  0  0  0  0  0  0  0  0  0  # atno 10764 bound_to 10752
  153.1875  135.4563  155.0054 H   0  0  0  0  0  0  0  0  0  0  0  0  # atno 10765 bound_to 10752
  139.9166  134.9632  156.7733 H   0  0  0  0  0  0  0  0  0  0  0  0  # atno 11005 bound_to 11000
  146.1285  140.7216  142.9423 LP  0  0  0  0  0  0  0  0  0  0  0  0  # atno 17320 bound_to 7965
  144.7160  140.4209  143.7044 LP  0  0  0  0  0  0  0  0  0  0  0  0  # atno 17321 bound_to 7965
  139.4797  144.5109  151.8933 LP  0  0  0  0  0  0  0  0  0  0  0  0  # atno 17342 bound_to 10162
  140.4196  144.2260  150.5887 LP  0  0  0  0  0  0  0  0  0  0  0  0  # atno 17343 bound_to 10162
  157.2224  130.6487  149.5816 LP  0  0  0  0  0  0  0  0  0  0  0  0  # atno 17370 bound_to 10713
  155.9716  130.4625  150.6148 LP  0  0  0  0  0  0  0  0  0  0  0  0  # atno 17371 bound_to 10713
  140.6603  133.9651  155.7801 LP  0  0  0  0  0  0  0  0  0  0  0  0  # atno 17394 bound_to 11000
  141.0648  134.0293  157.3609 LP  0  0  0  0  0  0  0  0  0  0  0  0  # atno 17395 bound_to 11000

$$$$
