AV-unprocessed.smi:1930|AV-procd|sdf|7810|dock8
  -GOLD-   22720 9553D 1   1.00000     0.00000
 Structure written by MMmdl.
 42 43  0  0  0  0  0  0  0  0  2 V2000
  151.0733  139.5965  157.8812 C   0  0  0  0  0  0  0  0  0  0  0  0
  151.9532  139.0301  156.3687 S   0  0  0  0  0  0  0  0  0  0  0  0
  151.7060  140.0084  155.2984 O   0  0  0  0  0  0  0  0  0  0  0  0
  153.3349  138.6885  156.7400 O   0  0  0  0  0  0  0  0  0  0  0  0
  151.1353  137.5554  155.9430 N   0  0  0  0  0  0  0  0  0  0  0  0
  150.4595  137.4554  154.6290 C   0  0  0  0  0  0  0  0  0  0  0  0
  148.9284  137.5625  154.7690 C   0  0  0  0  0  0  0  0  0  0  0  0
  148.4695  136.5569  155.7368 N   0  0  0  0  0  0  0  0  0  0  0  0
  147.8297  135.3946  155.4571 C   0  0  0  0  0  0  0  0  0  0  0  0
  147.3879  134.6416  156.3256 O   0  0  0  0  0  0  0  0  0  0  0  0
  147.6670  135.1453  154.1468 N   0  0  0  0  0  0  0  0  0  0  0  0
  146.9857  133.9825  153.5845 C   0  0  0  0  0  0  0  0  0  0  0  0
  145.5550  134.2939  153.1007 C   0  0  0  0  0  0  0  0  0  0  0  0
  145.1987  133.6267  151.7833 C   0  0  0  0  0  0  0  0  0  0  0  0
  146.1234  132.7793  151.1339 C   0  0  0  0  0  0  0  0  0  0  0  0
  145.7677  132.1774  149.9089 C   0  0  0  0  0  0  0  0  0  0  0  0
  144.4948  132.4366  149.3608 C   0  0  0  0  0  0  0  0  0  0  0  0
  143.6359  133.2523  150.0110 N   0  3  0  0  0  0  0  0  0  0  0  0
  143.9381  133.8465  151.1860 C   0  0  0  0  0  0  0  0  0  0  0  0
  149.0149  136.8530  157.0631 C   0  0  0  0  0  0  0  0  0  0  0  0
  150.5493  136.7176  157.0142 C   0  0  0  0  0  0  0  0  0  0  0  0
  151.5234  140.5261  158.2288 H   0  0  0  0  0  0  0  0  0  0  0  0
  151.1624  138.8448  158.6639 H   0  0  0  0  0  0  0  0  0  0  0  0
  150.0236  139.7745  157.6526 H   0  0  0  0  0  0  0  0  0  0  0  0
  150.8314  138.2219  153.9496 H   0  0  0  0  0  0  0  0  0  0  0  0
  150.7192  136.4956  154.1812 H   0  0  0  0  0  0  0  0  0  0  0  0
  148.6479  138.5543  155.1235 H   0  0  0  0  0  0  0  0  0  0  0  0
  148.4654  137.4721  153.7866 H   0  0  0  0  0  0  0  0  0  0  0  0
  148.0491  135.8103  153.4902 H   0  0  0  0  0  0  0  0  0  0  0  0
  147.5845  133.6348  152.7422 H   0  0  0  0  0  0  0  0  0  0  0  0
  146.9732  133.1670  154.3095 H   0  0  0  0  0  0  0  0  0  0  0  0
  144.8362  133.9829  153.8595 H   0  0  0  0  0  0  0  0  0  0  0  0
  145.4284  135.3722  152.9952 H   0  0  0  0  0  0  0  0  0  0  0  0
  147.0950  132.5934  151.5681 H   0  0  0  0  0  0  0  0  0  0  0  0
  146.4613  131.5257  149.3980 H   0  0  0  0  0  0  0  0  0  0  0  0
  144.1398  132.0192  148.4298 H   0  0  0  0  0  0  0  0  0  0  0  0
  143.1697  134.4791  151.6070 H   0  0  0  0  0  0  0  0  0  0  0  0
  148.7270  137.8623  157.3569 H   0  0  0  0  0  0  0  0  0  0  0  0
  148.6108  136.1992  157.8374 H   0  0  0  0  0  0  0  0  0  0  0  0
  150.8182  135.6780  156.8224 H   0  0  0  0  0  0  0  0  0  0  0  0
  150.9832  136.9739  157.9803 H   0  0  0  0  0  0  0  0  0  0  0  0
  142.7190  133.4249  149.5981 H   0  0  0  0  0  0  0  0  0  0  0  0
  1  2  1  0  0  0  0
  1 22  1  0  0  0  0
  1 23  1  0  0  0  0
  1 24  1  0  0  0  0
  2  3  2  0  0  0  0
  2  4  2  0  0  0  0
  2  5  1  0  0  0  0
  5 21  1  0  0  0  0
  5  6  1  0  0  0  0
  6  7  1  0  0  0  0
  6 25  1  0  0  0  0
  6 26  1  0  0  0  0
  7  8  1  0  0  0  0
  7 27  1  0  0  0  0
  7 28  1  0  0  0  0
  8  9  1  0  0  0  0
  8 20  1  0  0  0  0
  9 10  2  0  0  0  0
  9 11  1  0  0  0  0
 11 12  1  0  0  0  0
 11 29  1  0  0  0  0
 12 13  1  0  0  0  0
 12 30  1  0  0  0  0
 12 31  1  0  0  0  0
 13 14  1  0  0  0  0
 13 32  1  0  0  0  0
 13 33  1  0  0  0  0
 14 19  1  0  0  0  0
 14 15  2  0  0  0  0
 15 16  1  0  0  0  0
 15 34  1  0  0  0  0
 16 17  2  0  0  0  0
 16 35  1  0  0  0  0
 17 18  1  0  0  0  0
 17 36  1  0  0  0  0
 18 19  2  0  0  0  0
 18 42  1  0  0  0  0
 19 37  1  0  0  0  0
 20 21  1  0  0  0  0
 20 38  1  0  0  0  0
 20 39  1  0  0  0  0
 21 40  1  0  0  0  0
 21 41  1  0  0  0  0
M  CHG  1  18   1
M  END
> <s_m_source_file>
AV-unprocessed.smi

> <i_m_source_file_index>
1930

> <i_lp_mmshare_version>
43012

> <i_f3d_flags>
0

> <s_epik_input>
W0NIM11TKD1PKSg9TylOMVtDSDJdW0NIMl1OKFtDSDJdW0NIMl0xKUMoPU8pW05IXVtDSDJdW0NIMl1jMltjSF1bY0hdW2NIXW5bY0hdMg==

> <s_epik_cmdline>
J2VwaWtfcHl0aG9uJywgJy1waCcsICc3LjAnLCAnLXRuJywgJzgnLCAnLW1hJywgJzIwMCcsICctbWV0YWxfYmluZGluZycsICctaW1hZScsICc8aW5maWxlLm1hZT4nLCAnLW9tYWUnLCAnPG91dGZpbGUubWFlPic=

> <r_epik_Ionization_Penalty>
2.21237

> <r_epik_Ionization_Penalty_Charging>
2.21233

> <r_epik_Ionization_Penalty_Neutral>
3.86464e-05

> <r_epik_State_Penalty>
2.35665

> <r_epik_Charging_Adjusted_Penalty>
4.56898

> <i_epik_Tot_Q>
1

> <i_epik_Tot_abs_Q>
1

> <r_epik_Metal_State_Penalty>
2.37073

> <b_epik_Metal_Only>
0

> <s_lp_Force_Field>
OPLS_2005

> <r_lp_Energy>
33.224

> <b_lp_Chiralities_Consistent>
1

> <s_lp_Variant>
AV-unprocessed.smi:1930-2

> <Gold.Version>
5.8.1

> <Gold.Id.Protein>
6NUR|6NUR_protein|mol2

> <Gold.PLP.Fitness>
43.0091

> <Gold.PLP.PLP>
-29.4351

> <Gold.PLP.part.hbond>
-3.7116

> <Gold.PLP.part.metal>
0.0000

> <Gold.PLP.part.buried>
-5.0977

> <Gold.PLP.part.nonpolar>
-21.8434

> <Gold.PLP.part.repulsive>
0.0803

> <Gold.PLP.ligand.clash>
0.0000

> <Gold.PLP.ligand.torsion>
1.6027

> <Gold.PLP.Chemscore.Hbond>
4.8960

> <Gold.PLP.Chemscore.CHOScore>
0.0000

> <Gold.PLP.Chemscore.Metal>
0.0000

> <Gold.Chemscore.Hbonds>
donor molecule, donor type, donor heavy atom, donor atom, acceptor molecule, acceptor atom, score
      L1  H    11    29       P1  7948  1.00
      L1  H    18    42       P1 10186  2.00
      P1  H  7989  7998       L1     3  0.96
      P1  H  7997  8010       L1     4  0.98

> <Gold.PLP.Chemscore.Internal.Correction>
2.0913

> <Gold.Rescore>
     Score         DG    S(hbond)    S(metal)    S(lipo)     H(rot)  DE(clash)    DE(int)     intcor
     20.58     -22.32       3.80        0.00      67.48       1.47       0.05       1.69       ----

> <Gold.Chemscore.Fitness>
20.5781

> <Gold.Chemscore.DG>
-22.3152

> <Gold.Chemscore.ZeroCoef>
-5.4800

> <Gold.Chemscore.Hbond>
3.8044

> <Gold.Chemscore.Metal>
0.0000

> <Gold.Chemscore.Lipo>
67.4807

> <Gold.Chemscore.Internal_Hbond>
0.0000

> <Gold.Chemscore.DEClash>
0.0460

> <Gold.Chemscore.DEInternal>
1.6911

> <Gold.Chemscore.Rot>
1.4714

> <Gold.Chemscore.Internal.Correction>
   9.000000E+99

> <Gold.Chemscore.Hbonds>
donor molecule, donor type, donor heavy atom, donor atom, acceptor molecule, acceptor atom, score
      L1  H    11    29       P1  7948  0.95
      L1  H    18    42       P1 10186  0.93
      P1  H  7989  7998       L1     3  0.90
      P1  H  7997  8010       L1     4  0.65

> <Gold.Chemscore.Hbond.Weighted>
-12.7066

> <Gold.Chemscore.Metal.Weighted>
-0.0000

> <Gold.Chemscore.Lipo.Weighted>
-7.8952

> <Gold.Chemscore.Internal_Hbond.Weighted>
0.0000

> <Gold.Chemscore.DEClash.Weighted>
0.0460

> <Gold.Chemscore.DEInternal.Weighted>
1.6911

> <Gold.Chemscore.Rot.Weighted>
3.7667

> <Gold.Chemscore.Internal.Correction.Weighted>
   9.000000E+99

> <Gold.Protein.RotatedTorsions>
[ 6907 6896 6895 6894 ] final -165.62 input  -60.11 | X-H torsion
[ 7974 7965 7964 7962 ] final   -2.99 input  175.53 | X-H torsion
[ 8008 7997 7996 7995 ] final   71.78 input   59.86 | X-H torsion
[ 10167 10162 10161 10158 ] final -167.18 input  -65.29 | X-H torsion
[ 10718 10713 10712 10709 ] final -179.26 input   66.30 | X-H torsion
[ 10763 10752 10751 10750 ] final  167.81 input  -60.55 | X-H torsion
[ 11005 11000 10999 10996 ] final  -71.80 input  -57.11 | X-H torsion

> <Gold.Protein.ActiveResidues>
 VAL166  LYS551  ARG553  GLY616  TRP617  ASP618  TYR619  PRO620  LYS621  CYS622 
 ASP623  PHE694  ASN695  SER759  ASP760  ASP761  ALA762  ILE779  LEU786  VAL792 
 PHE793  MET794  SER795  GLU796  ALA797  LYS798  CYS799  TRP800  GLU811  SER814 

> <Gold.Protein.RotatedAtoms>
  151.4306  133.3671  159.2768 H   0  0  0  0  0  0  0  0  0  0  0  0  # atno 6907 bound_to 6896
  150.9228  134.8646  159.7510 H   0  0  0  0  0  0  0  0  0  0  0  0  # atno 6908 bound_to 6896
  152.4990  134.4245  159.9544 H   0  0  0  0  0  0  0  0  0  0  0  0  # atno 6909 bound_to 6896
  146.2396  140.1654  142.8332 H   0  0  0  0  0  0  0  0  0  0  0  0  # atno 7974 bound_to 7965
  155.7590  140.3487  155.5188 H   0  0  0  0  0  0  0  0  0  0  0  0  # atno 8008 bound_to 7997
  155.8932  140.1021  157.1424 H   0  0  0  0  0  0  0  0  0  0  0  0  # atno 8009 bound_to 7997
  154.4035  140.1300  156.4329 H   0  0  0  0  0  0  0  0  0  0  0  0  # atno 8010 bound_to 7997
  139.6066  144.0900  152.1799 H   0  0  0  0  0  0  0  0  0  0  0  0  # atno 10167 bound_to 10162
  156.8564  130.9736  151.3087 H   0  0  0  0  0  0  0  0  0  0  0  0  # atno 10718 bound_to 10713
  154.3593  135.2753  155.2329 H   0  0  0  0  0  0  0  0  0  0  0  0  # atno 10763 bound_to 10752
  154.4524  135.5927  153.6204 H   0  0  0  0  0  0  0  0  0  0  0  0  # atno 10764 bound_to 10752
  152.9844  135.6045  154.3811 H   0  0  0  0  0  0  0  0  0  0  0  0  # atno 10765 bound_to 10752
  141.1598  133.6828  156.6962 H   0  0  0  0  0  0  0  0  0  0  0  0  # atno 11005 bound_to 11000
  145.0055  140.8669  143.5255 LP  0  0  0  0  0  0  0  0  0  0  0  0  # atno 17320 bound_to 7965
  145.1679  139.2421  143.5357 LP  0  0  0  0  0  0  0  0  0  0  0  0  # atno 17321 bound_to 7965
  140.0508  144.5934  150.7337 LP  0  0  0  0  0  0  0  0  0  0  0  0  # atno 17342 bound_to 10162
  140.7289  143.2667  151.4021 LP  0  0  0  0  0  0  0  0  0  0  0  0  # atno 17343 bound_to 10162
  157.6275  130.8703  149.9214 LP  0  0  0  0  0  0  0  0  0  0  0  0  # atno 17370 bound_to 10713
  156.0800  130.3674  150.0599 LP  0  0  0  0  0  0  0  0  0  0  0  0  # atno 17371 bound_to 10713
  140.2993  134.8176  157.4084 LP  0  0  0  0  0  0  0  0  0  0  0  0  # atno 17394 bound_to 11000
  140.1276  134.5137  155.8132 LP  0  0  0  0  0  0  0  0  0  0  0  0  # atno 17395 bound_to 11000

$$$$
