AV-unprocessed.smi:1431|AV-procd|sdf|5829|dock8
  -GOLD-   22720 5493D 1   1.00000     0.00000
 Structure written by MMmdl.
 33 34  0  0  0  0  0  0  0  0  1 V2000
  144.6338  136.9991  151.5737 O   0  0  0  0  0  0  0  0  0  0  0  0
  145.8304  136.7173  151.6448 C   0  0  0  0  0  0  0  0  0  0  0  0
  146.7927  137.6308  151.8380 N   0  0  0  0  0  0  0  0  0  0  0  0
  146.5627  139.0596  152.0266 C   0  0  0  0  0  0  0  0  0  0  0  0
  147.0698  139.5517  153.3966 C   0  0  2  0  0  0  0  0  0  0  0  0
  147.2094  141.0846  153.4610 C   0  0  0  0  0  0  0  0  0  0  0  0
  147.9581  141.4524  154.7463 C   0  0  0  0  0  0  0  0  0  0  0  0
  149.1501  140.0908  155.0304 S   0  0  0  0  0  0  0  0  0  0  0  0
  150.4839  140.4995  154.5654 O   0  0  0  0  0  0  0  0  0  0  0  0
  148.9517  139.5556  156.3858 O   0  0  0  0  0  0  0  0  0  0  0  0
  148.4211  138.9405  153.8044 C   0  0  0  0  0  0  0  0  0  0  0  0
  146.3460  135.4791  151.5506 N   0  0  0  0  0  0  0  0  0  0  0  0
  145.6527  134.2506  151.3843 C   0  0  0  0  0  0  0  0  0  0  0  0
  146.4392  133.0900  151.5631 C   0  0  0  0  0  0  0  0  0  0  0  0
  145.8441  131.8214  151.4228 C   0  0  0  0  0  0  0  0  0  0  0  0
  144.4762  131.7458  151.1057 C   0  0  0  0  0  0  0  0  0  0  0  0
  143.7656  132.9495  150.9440 C   0  0  0  0  0  0  0  0  0  0  0  0
  144.3339  134.1662  151.0787 N   0  0  0  0  0  0  0  0  0  0  0  0
  147.7505  137.3144  151.8789 H   0  0  0  0  0  0  0  0  0  0  0  0
  147.0753  139.5917  151.2246 H   0  0  0  0  0  0  0  0  0  0  0  0
  145.5002  139.2813  151.9129 H   0  0  0  0  0  0  0  0  0  0  0  0
  146.3424  139.2705  154.1596 H   0  0  0  0  0  0  0  0  0  0  0  0
  147.7898  141.4292  152.6042 H   0  0  0  0  0  0  0  0  0  0  0  0
  146.2402  141.5815  153.4102 H   0  0  0  0  0  0  0  0  0  0  0  0
  148.4805  142.4069  154.6806 H   0  0  0  0  0  0  0  0  0  0  0  0
  147.2747  141.4845  155.5952 H   0  0  0  0  0  0  0  0  0  0  0  0
  148.3246  137.9442  154.2363 H   0  0  0  0  0  0  0  0  0  0  0  0
  149.1014  138.8868  152.9541 H   0  0  0  0  0  0  0  0  0  0  0  0
  147.3494  135.4036  151.6258 H   0  0  0  0  0  0  0  0  0  0  0  0
  147.4890  133.1664  151.8072 H   0  0  0  0  0  0  0  0  0  0  0  0
  146.4273  130.9223  151.5568 H   0  0  0  0  0  0  0  0  0  0  0  0
  143.9843  130.7914  150.9897 H   0  0  0  0  0  0  0  0  0  0  0  0
  142.7137  132.9358  150.7001 H   0  0  0  0  0  0  0  0  0  0  0  0
  1  2  2  0  0  0  0
  2  3  1  0  0  0  0
  2 12  1  0  0  0  0
  3  4  1  0  0  0  0
  3 19  1  0  0  0  0
  4  5  1  0  0  0  0
  4 20  1  0  0  0  0
  4 21  1  0  0  0  0
  5 11  1  0  0  0  0
  5  6  1  0  0  0  0
  5 22  1  0  0  0  0
  6  7  1  0  0  0  0
  6 23  1  0  0  0  0
  6 24  1  0  0  0  0
  7  8  1  0  0  0  0
  7 25  1  0  0  0  0
  7 26  1  0  0  0  0
  8  9  2  0  0  0  0
  8 10  2  0  0  0  0
  8 11  1  0  0  0  0
 11 27  1  0  0  0  0
 11 28  1  0  0  0  0
 12 13  1  0  0  0  0
 12 29  1  0  0  0  0
 13 18  1  0  0  0  0
 13 14  2  0  0  0  0
 14 15  1  0  0  0  0
 14 30  1  0  0  0  0
 15 16  2  0  0  0  0
 15 31  1  0  0  0  0
 16 17  1  0  0  0  0
 16 32  1  0  0  0  0
 17 18  2  0  0  0  0
 17 33  1  0  0  0  0
M  END
> <s_m_source_file>
AV-unprocessed.smi

> <i_m_source_file_index>
1431

> <i_lp_mmshare_version>
43012

> <i_f3d_flags>
0

> <s_epik_input>
bjFbY0hdW2NIXVtjSF1bY0hdYzFbTkhdQyg9TylbTkhdW0NIMl1bQ0BASF0oW0NIMl0yKVtDSDJdW0NIMl1TMig9Tyk9Tw==

> <s_epik_cmdline>
J2VwaWtfcHl0aG9uJywgJy1waCcsICc3LjAnLCAnLXRuJywgJzgnLCAnLW1hJywgJzIwMCcsICctbWV0YWxfYmluZGluZycsICctaW1hZScsICc8aW5maWxlLm1hZT4nLCAnLW9tYWUnLCAnPG91dGZpbGUubWFlPic=

> <r_lp_tautomer_probability>
1

> <r_epik_Ionization_Penalty>
4.47006e-05

> <r_epik_Ionization_Penalty_Charging>
0

> <r_epik_Ionization_Penalty_Neutral>
4.47006e-05

> <r_epik_State_Penalty>
-0

> <r_epik_Charging_Adjusted_Penalty>
0

> <i_epik_Tot_Q>
0

> <i_epik_Tot_abs_Q>
0

> <r_epik_Metal_State_Penalty>
-0

> <b_epik_Metal_Only>
0

> <s_lp_Force_Field>
OPLS_2005

> <r_lp_Energy>
3.66515

> <b_lp_Chiralities_Consistent>
1

> <s_lp_Variant>
AV-unprocessed.smi:1431-1

> <Gold.Version>
5.8.1

> <Gold.Id.Protein>
6NUR|6NUR_protein|mol2

> <Gold.PLP.Fitness>
40.9223

> <Gold.PLP.PLP>
-29.3030

> <Gold.PLP.part.hbond>
-3.0000

> <Gold.PLP.part.metal>
0.0000

> <Gold.PLP.part.buried>
-4.0766

> <Gold.PLP.part.nonpolar>
-26.9636

> <Gold.PLP.part.repulsive>
4.5726

> <Gold.PLP.ligand.clash>
0.0000

> <Gold.PLP.ligand.torsion>
0.1799

> <Gold.PLP.Chemscore.Hbond>
2.9920

> <Gold.PLP.Chemscore.CHOScore>
1.0000

> <Gold.PLP.Chemscore.Metal>
0.0000

> <Gold.Chemscore.Hbonds>
donor molecule, donor type, donor heavy atom, donor atom, acceptor molecule, acceptor atom, score
      L1  H     3    19       P1  7948  1.00
      L1  H    12    29       P1  7948  0.99
      P1  H  7989  7998       L1     9  1.00
      L1  C    17    33       P1 10186  0.99

> <Gold.PLP.Chemscore.Internal.Correction>
0.0030

> <Gold.Rescore>
     Score         DG    S(hbond)    S(metal)    S(lipo)     H(rot)  DE(clash)    DE(int)     intcor
     16.40     -19.42       2.91        0.00      65.24       1.33       1.55       1.46       ----

> <Gold.Chemscore.Fitness>
16.4011

> <Gold.Chemscore.DG>
-19.4175

> <Gold.Chemscore.ZeroCoef>
-5.4800

> <Gold.Chemscore.Hbond>
2.9053

> <Gold.Chemscore.Metal>
0.0000

> <Gold.Chemscore.Lipo>
65.2432

> <Gold.Chemscore.Internal_Hbond>
0.0000

> <Gold.Chemscore.DEClash>
1.5545

> <Gold.Chemscore.DEInternal>
1.4618

> <Gold.Chemscore.Rot>
1.3280

> <Gold.Chemscore.Internal.Correction>
   9.000000E+99

> <Gold.Chemscore.Hbonds>
donor molecule, donor type, donor heavy atom, donor atom, acceptor molecule, acceptor atom, score
      L1  H     3    19       P1  7948  0.97
      L1  H    12    29       P1  7948  0.91
      P1  H  7989  7998       L1     9  0.93

> <Gold.Chemscore.Hbond.Weighted>
-9.7036

> <Gold.Chemscore.Metal.Weighted>
-0.0000

> <Gold.Chemscore.Lipo.Weighted>
-7.6335

> <Gold.Chemscore.Internal_Hbond.Weighted>
0.0000

> <Gold.Chemscore.DEClash.Weighted>
1.5545

> <Gold.Chemscore.DEInternal.Weighted>
1.4618

> <Gold.Chemscore.Rot.Weighted>
3.3996

> <Gold.Chemscore.Internal.Correction.Weighted>
   9.000000E+99

> <Gold.Protein.RotatedTorsions>
[ 6907 6896 6895 6894 ] final -156.49 input  -60.11 | X-H torsion
[ 7974 7965 7964 7962 ] final -138.29 input  175.53 | X-H torsion
[ 8008 7997 7996 7995 ] final  125.59 input   59.86 | X-H torsion
[ 10167 10162 10161 10158 ] final -164.24 input  -65.29 | X-H torsion
[ 10718 10713 10712 10709 ] final    8.26 input   66.30 | X-H torsion
[ 10763 10752 10751 10750 ] final -114.26 input  -60.55 | X-H torsion
[ 11005 11000 10999 10996 ] final   44.47 input  -57.11 | X-H torsion

> <Gold.Protein.ActiveResidues>
 VAL166  LYS551  ARG553  GLY616  TRP617  ASP618  TYR619  PRO620  LYS621  CYS622 
 ASP623  PHE694  ASN695  SER759  ASP760  ASP761  ALA762  ILE779  LEU786  VAL792 
 PHE793  MET794  SER795  GLU796  ALA797  LYS798  CYS799  TRP800  GLU811  SER814 

> <Gold.Protein.RotatedAtoms>
  151.2884  133.4177  159.2631 H   0  0  0  0  0  0  0  0  0  0  0  0  # atno 6907 bound_to 6896
  151.0299  134.9532  159.8116 H   0  0  0  0  0  0  0  0  0  0  0  0  # atno 6908 bound_to 6896
  152.5343  134.2845  159.9072 H   0  0  0  0  0  0  0  0  0  0  0  0  # atno 6909 bound_to 6896
  144.8771  140.6452  143.5230 H   0  0  0  0  0  0  0  0  0  0  0  0  # atno 7974 bound_to 7965
  156.2839  140.2712  156.1974 H   0  0  0  0  0  0  0  0  0  0  0  0  # atno 8008 bound_to 7997
  155.0396  140.0386  157.2522 H   0  0  0  0  0  0  0  0  0  0  0  0  # atno 8009 bound_to 7997
  154.7285  140.2702  155.6482 H   0  0  0  0  0  0  0  0  0  0  0  0  # atno 8010 bound_to 7997
  139.6264  144.0523  152.1979 H   0  0  0  0  0  0  0  0  0  0  0  0  # atno 10167 bound_to 10162
  156.9491  130.5890  149.5656 H   0  0  0  0  0  0  0  0  0  0  0  0  # atno 10718 bound_to 10713
  154.8432  135.4424  154.1478 H   0  0  0  0  0  0  0  0  0  0  0  0  # atno 10763 bound_to 10752
  153.2647  135.6939  153.7548 H   0  0  0  0  0  0  0  0  0  0  0  0  # atno 10764 bound_to 10752
  153.6812  135.3402  155.3154 H   0  0  0  0  0  0  0  0  0  0  0  0  # atno 10765 bound_to 10752
  140.1549  134.4414  155.8356 H   0  0  0  0  0  0  0  0  0  0  0  0  # atno 11005 bound_to 11000
  145.4023  139.1595  143.4171 LP  0  0  0  0  0  0  0  0  0  0  0  0  # atno 17320 bound_to 7965
  146.2970  140.4121  142.8718 LP  0  0  0  0  0  0  0  0  0  0  0  0  # atno 17321 bound_to 7965
  140.0178  144.6176  150.7592 LP  0  0  0  0  0  0  0  0  0  0  0  0  # atno 17342 bound_to 10162
  140.7414  143.2817  151.3580 LP  0  0  0  0  0  0  0  0  0  0  0  0  # atno 17343 bound_to 10162
  156.0371  130.5457  150.8680 LP  0  0  0  0  0  0  0  0  0  0  0  0  # atno 17370 bound_to 10713
  157.5734  131.0946  150.9383 LP  0  0  0  0  0  0  0  0  0  0  0  0  # atno 17371 bound_to 10713
  141.2203  133.6888  156.7489 LP  0  0  0  0  0  0  0  0  0  0  0  0  # atno 17394 bound_to 11000
  140.2560  134.8504  157.3713 LP  0  0  0  0  0  0  0  0  0  0  0  0  # atno 17395 bound_to 11000

$$$$
