AV-unprocessed.smi:527|AV-procd|sdf|2823|dock1
  -GOLD-   2262023303D 1   1.00000     0.00000
 Structure written by MMmdl.
 43 44  0  0  0  0  0  0  0  0  2 V2000
  152.5552  138.4315  154.8946 C   0  0  0  0  0  0  0  0  0  0  0  0
  151.0867  138.0678  154.6112 C   0  0  2  0  0  0  0  0  0  0  0  0
  150.2753  139.3522  154.3416 C   0  0  0  0  0  0  0  0  0  0  0  0
  148.8002  139.0539  154.0420 C   0  0  0  0  0  0  0  0  0  0  0  0
  148.1621  138.2491  155.1826 C   0  0  0  0  0  0  0  0  0  0  0  0
  148.9397  136.9485  155.4699 C   0  0  1  0  0  0  0  0  0  0  0  0
  148.7849  135.9919  154.3723 N   0  0  0  0  0  0  0  0  0  0  0  0
  148.2003  134.7885  154.4627 C   0  0  0  0  0  0  0  0  0  0  0  0
  148.0065  134.2073  155.5325 O   0  0  0  0  0  0  0  0  0  0  0  0
  147.8584  134.3267  153.2446 N   0  0  0  0  0  0  0  0  0  0  0  0
  147.0998  133.2484  152.9598 C   0  0  0  0  0  0  0  0  0  0  0  0
  146.5974  132.4907  153.7918 O   0  0  0  0  0  0  0  0  0  0  0  0
  146.8501  132.9870  151.4739 C   0  0  0  0  0  0  0  0  0  0  0  0
  145.4142  132.9353  151.1826 N   0  0  0  0  0  0  0  0  0  0  0  0
  144.5102  131.9976  151.6136 C   0  0  0  0  0  0  0  0  0  0  0  0
  143.2961  132.3533  151.0845 C   0  0  0  0  0  0  0  0  0  0  0  0
  143.5098  133.4908  150.3525 N   0  3  0  0  0  0  0  0  0  0  0  0
  144.7979  133.8437  150.4139 C   0  0  0  0  0  0  0  0  0  0  0  0
  150.4372  137.2364  155.7535 C   0  0  1  0  0  0  0  0  0  0  0  0
  151.2058  135.9368  156.0688 C   0  0  0  0  0  0  0  0  0  0  0  0
  152.6551  138.9769  155.8336 H   0  0  0  0  0  0  0  0  0  0  0  0
  152.9616  139.0606  154.1023 H   0  0  0  0  0  0  0  0  0  0  0  0
  153.1882  137.5463  154.9506 H   0  0  0  0  0  0  0  0  0  0  0  0
  151.0718  137.4690  153.6994 H   0  0  0  0  0  0  0  0  0  0  0  0
  150.3398  140.0154  155.2054 H   0  0  0  0  0  0  0  0  0  0  0  0
  150.7092  139.8987  153.5036 H   0  0  0  0  0  0  0  0  0  0  0  0
  148.2554  139.9875  153.8988 H   0  0  0  0  0  0  0  0  0  0  0  0
  148.7178  138.5028  153.1046 H   0  0  0  0  0  0  0  0  0  0  0  0
  148.1446  138.8617  156.0848 H   0  0  0  0  0  0  0  0  0  0  0  0
  147.1196  138.0309  154.9482 H   0  0  0  0  0  0  0  0  0  0  0  0
  148.5157  136.4976  156.3692 H   0  0  0  0  0  0  0  0  0  0  0  0
  149.1532  136.2756  153.4765 H   0  0  0  0  0  0  0  0  0  0  0  0
  148.2053  134.8517  152.4556 H   0  0  0  0  0  0  0  0  0  0  0  0
  147.3007  133.7674  150.8584 H   0  0  0  0  0  0  0  0  0  0  0  0
  147.2994  132.0377  151.1773 H   0  0  0  0  0  0  0  0  0  0  0  0
  144.7900  131.1681  152.2471 H   0  0  0  0  0  0  0  0  0  0  0  0
  142.3219  131.8939  151.1708 H   0  0  0  0  0  0  0  0  0  0  0  0
  145.2520  134.6922  149.9331 H   0  0  0  0  0  0  0  0  0  0  0  0
  150.4727  137.8463  156.6576 H   0  0  0  0  0  0  0  0  0  0  0  0
  151.3387  135.3199  155.1797 H   0  0  0  0  0  0  0  0  0  0  0  0
  150.6746  135.3398  156.8108 H   0  0  0  0  0  0  0  0  0  0  0  0
  152.1933  136.1442  156.4803 H   0  0  0  0  0  0  0  0  0  0  0  0
  142.7981  133.9928  149.8362 H   0  0  0  0  0  0  0  0  0  0  0  0
  1  2  1  0  0  0  0
  1 21  1  0  0  0  0
  1 22  1  0  0  0  0
  1 23  1  0  0  0  0
  2 19  1  0  0  0  0
  2  3  1  0  0  0  0
  2 24  1  0  0  0  0
  3  4  1  0  0  0  0
  3 25  1  0  0  0  0
  3 26  1  0  0  0  0
  4  5  1  0  0  0  0
  4 27  1  0  0  0  0
  4 28  1  0  0  0  0
  5  6  1  0  0  0  0
  5 29  1  0  0  0  0
  5 30  1  0  0  0  0
  6  7  1  0  0  0  0
  6 19  1  0  0  0  0
  6 31  1  0  0  0  0
  7  8  1  0  0  0  0
  7 32  1  0  0  0  0
  8  9  2  0  0  0  0
  8 10  1  0  0  0  0
 10 11  1  0  0  0  0
 10 33  1  0  0  0  0
 11 12  2  0  0  0  0
 11 13  1  0  0  0  0
 13 14  1  0  0  0  0
 13 34  1  0  0  0  0
 13 35  1  0  0  0  0
 14 18  1  0  0  0  0
 14 15  1  0  0  0  0
 15 16  2  0  0  0  0
 15 36  1  0  0  0  0
 16 17  1  0  0  0  0
 16 37  1  0  0  0  0
 17 18  2  0  0  0  0
 17 43  1  0  0  0  0
 18 38  1  0  0  0  0
 19 20  1  0  0  0  0
 19 39  1  0  0  0  0
 20 40  1  0  0  0  0
 20 41  1  0  0  0  0
 20 42  1  0  0  0  0
M  CHG  1  17   1
M  END
> <s_m_source_file>
AV-unprocessed.smi

> <i_m_source_file_index>
527

> <i_lp_mmshare_version>
43012

> <i_f3d_flags>
0

> <s_epik_input>
W0NIM11bQ0BASF0xW0NIMl1bQ0gyXVtDSDJdW0NASF0oW0NASF0xW0NIM10pW05IXUMoPU8pW05IXUMoPU8pW0NIMl1uMltjSF1bY0hdbltjSF0y

> <s_epik_cmdline>
J2VwaWtfcHl0aG9uJywgJy1waCcsICc3LjAnLCAnLXRuJywgJzgnLCAnLW1hJywgJzIwMCcsICctbWV0YWxfYmluZGluZycsICctaW1hZScsICc8aW5maWxlLm1hZT4nLCAnLW9tYWUnLCAnPG91dGZpbGUubWFlPic=

> <r_lp_tautomer_probability>
1

> <r_epik_Ionization_Penalty>
0.816441

> <r_epik_Ionization_Penalty_Charging>
0

> <r_epik_Ionization_Penalty_Neutral>
0.816441

> <r_epik_State_Penalty>
0.849034

> <r_epik_Charging_Adjusted_Penalty>
0.849034

> <i_epik_Tot_Q>
1

> <i_epik_Tot_abs_Q>
1

> <r_epik_Metal_State_Penalty>
0.984327

> <b_epik_Metal_Only>
0

> <s_lp_Force_Field>
OPLS_2005

> <r_lp_Energy>
15.5075

> <b_lp_Chiralities_Consistent>
1

> <s_lp_Variant>
AV-unprocessed.smi:527-9

> <Gold.Version>
5.8.1

> <Gold.Id.Protein>
6NUR|6NUR_protein|mol2

> <Gold.PLP.Fitness>
45.3771

> <Gold.PLP.PLP>
-31.0631

> <Gold.PLP.part.hbond>
-3.0000

> <Gold.PLP.part.metal>
0.0000

> <Gold.PLP.part.buried>
-1.1664

> <Gold.PLP.part.nonpolar>
-26.1959

> <Gold.PLP.part.repulsive>
0.1558

> <Gold.PLP.ligand.clash>
0.0000

> <Gold.PLP.ligand.torsion>
0.1522

> <Gold.PLP.Chemscore.Hbond>
3.9440

> <Gold.PLP.Chemscore.CHOScore>
0.9156

> <Gold.PLP.Chemscore.Metal>
0.0000

> <Gold.Chemscore.Hbonds>
donor molecule, donor type, donor heavy atom, donor atom, acceptor molecule, acceptor atom, score
      L1  H     7    32       P1  7948  0.94
      L1  H    10    33       P1  7948  1.00
      L1  H    17    43       P1 10186  2.00
      L1  C    18    38       P1  7921  0.95

> <Gold.PLP.Chemscore.Internal.Correction>
0.0396

> <Gold.Rescore>
     Score         DG    S(hbond)    S(metal)    S(lipo)     H(rot)  DE(clash)    DE(int)     intcor
     15.86     -17.34       2.82        0.00      58.20       1.71       0.00       1.48       ----

> <Gold.Chemscore.Fitness>
15.8629

> <Gold.Chemscore.DG>
-17.3450

> <Gold.Chemscore.ZeroCoef>
-5.4800

> <Gold.Chemscore.Hbond>
2.8205

> <Gold.Chemscore.Metal>
0.0000

> <Gold.Chemscore.Lipo>
58.2042

> <Gold.Chemscore.Internal_Hbond>
0.0000

> <Gold.Chemscore.DEClash>
0.0000

> <Gold.Chemscore.DEInternal>
1.4820

> <Gold.Chemscore.Rot>
1.7052

> <Gold.Chemscore.Internal.Correction>
   9.000000E+99

> <Gold.Chemscore.Hbonds>
donor molecule, donor type, donor heavy atom, donor atom, acceptor molecule, acceptor atom, score
      L1  H     7    32       P1  7948  0.85
      L1  H    10    33       P1  7948  0.47
      L1  H    17    43       P1 10186  0.95

> <Gold.Chemscore.Hbond.Weighted>
-9.4204

> <Gold.Chemscore.Metal.Weighted>
-0.0000

> <Gold.Chemscore.Lipo.Weighted>
-6.8099

> <Gold.Chemscore.Internal_Hbond.Weighted>
0.0000

> <Gold.Chemscore.DEClash.Weighted>
0.0000

> <Gold.Chemscore.DEInternal.Weighted>
1.4820

> <Gold.Chemscore.Rot.Weighted>
4.3653

> <Gold.Chemscore.Internal.Correction.Weighted>
   9.000000E+99

> <Gold.Protein.RotatedTorsions>
[ 6907 6896 6895 6894 ] final -128.32 input  -60.11 | X-H torsion
[ 7974 7965 7964 7962 ] final   54.22 input  175.53 | X-H torsion
[ 8008 7997 7996 7995 ] final   78.42 input   59.86 | X-H torsion
[ 10167 10162 10161 10158 ] final   35.36 input  -65.29 | X-H torsion
[ 10718 10713 10712 10709 ] final -103.07 input   66.30 | X-H torsion
[ 10763 10752 10751 10750 ] final  112.75 input  -60.55 | X-H torsion
[ 11005 11000 10999 10996 ] final   85.25 input  -57.11 | X-H torsion

> <Gold.Protein.ActiveResidues>
 VAL166  LYS551  ARG553  GLY616  TRP617  ASP618  TYR619  PRO620  LYS621  CYS622 
 ASP623  PHE694  ASN695  SER759  ASP760  ASP761  ALA762  ILE779  LEU786  VAL792 
 PHE793  MET794  SER795  GLU796  ALA797  LYS798  CYS799  TRP800  GLU811  SER814 

> <Gold.Protein.RotatedAtoms>
  150.9167  133.6930  159.2841 H   0  0  0  0  0  0  0  0  0  0  0  0  # atno 6907 bound_to 6896
  151.4399  135.1018  159.9677 H   0  0  0  0  0  0  0  0  0  0  0  0  # atno 6908 bound_to 6896
  152.4958  133.8578  159.7289 H   0  0  0  0  0  0  0  0  0  0  0  0  # atno 6909 bound_to 6896
  145.9631  139.4077  143.0236 H   0  0  0  0  0  0  0  0  0  0  0  0  # atno 7974 bound_to 7965
  155.8555  140.3456  155.5721 H   0  0  0  0  0  0  0  0  0  0  0  0  # atno 8008 bound_to 7997
  155.7991  140.0882  157.1986 H   0  0  0  0  0  0  0  0  0  0  0  0  # atno 8009 bound_to 7997
  154.4009  140.1469  156.3240 H   0  0  0  0  0  0  0  0  0  0  0  0  # atno 8010 bound_to 7997
  140.4229  144.1434  150.6150 H   0  0  0  0  0  0  0  0  0  0  0  0  # atno 10167 bound_to 10162
  156.0251  130.5450  150.7199 H   0  0  0  0  0  0  0  0  0  0  0  0  # atno 10718 bound_to 10713
  153.4824  135.3676  155.2449 H   0  0  0  0  0  0  0  0  0  0  0  0  # atno 10763 bound_to 10752
  154.8755  135.3957  154.3685 H   0  0  0  0  0  0  0  0  0  0  0  0  # atno 10764 bound_to 10752
  153.4290  135.7082  153.6308 H   0  0  0  0  0  0  0  0  0  0  0  0  # atno 10765 bound_to 10752
  139.8977  134.8273  156.2556 H   0  0  0  0  0  0  0  0  0  0  0  0  # atno 11005 bound_to 11000
  145.8012  140.9770  143.0998 LP  0  0  0  0  0  0  0  0  0  0  0  0  # atno 17320 bound_to 7965
  144.6819  139.9804  143.7483 LP  0  0  0  0  0  0  0  0  0  0  0  0  # atno 17321 bound_to 7965
  140.4514  143.2485  151.9343 LP  0  0  0  0  0  0  0  0  0  0  0  0  # atno 17342 bound_to 10162
  139.4783  144.5559  151.8315 LP  0  0  0  0  0  0  0  0  0  0  0  0  # atno 17343 bound_to 10162
  157.4817  131.0903  151.0528 LP  0  0  0  0  0  0  0  0  0  0  0  0  # atno 17370 bound_to 10713
  157.0959  130.5962  149.5449 LP  0  0  0  0  0  0  0  0  0  0  0  0  # atno 17371 bound_to 10713
  141.0195  133.7049  156.1245 LP  0  0  0  0  0  0  0  0  0  0  0  0  # atno 17394 bound_to 11000
  140.7253  134.4314  157.5571 LP  0  0  0  0  0  0  0  0  0  0  0  0  # atno 17395 bound_to 11000

$$$$
