AV-unprocessed.smi:1372|AV-procd|sdf|5584|dock4
  -GOLD-   22720 5183D 1   1.00000     0.00000
 Structure written by MMmdl.
 42 44  0  0  0  0  0  0  0  0  2 V2000
  150.1978  135.3196  155.1201 C   0  0  0  0  0  0  0  0  0  0  0  0
  151.2697  136.4570  156.0891 S   0  0  0  0  0  0  0  0  0  0  0  0
  150.4480  137.1123  157.1179 O   0  0  0  0  0  0  0  0  0  0  0  0
  152.4836  135.7276  156.4871 O   0  0  0  0  0  0  0  0  0  0  0  0
  151.7357  137.7144  154.8226 C   0  0  0  0  0  0  0  0  0  0  0  0
  150.5912  138.6453  154.5705 C   0  0  0  0  0  0  0  0  0  0  0  0
  149.5004  138.3806  153.7954 N   0  3  0  0  0  0  0  0  0  0  0  0
  148.6506  139.4864  153.7766 C   0  0  0  0  0  0  0  0  0  0  0  0
  147.4382  139.6933  153.1263 C   0  0  0  0  0  0  0  0  0  0  0  0
  146.8257  140.9497  153.3148 C   0  0  0  0  0  0  0  0  0  0  0  0
  147.4185  141.9417  154.1228 C   0  0  0  0  0  0  0  0  0  0  0  0
  148.6478  141.7195  154.7780 C   0  0  0  0  0  0  0  0  0  0  0  0
  149.2456  140.4738  154.5876 C   0  0  0  0  0  0  0  0  0  0  0  0
  150.4336  139.9086  155.0648 N   0  0  0  0  0  0  0  0  0  0  0  0
  151.2909  140.7036  155.9589 C   0  0  0  0  0  0  0  0  0  0  0  0
  150.9011  140.5623  157.4436 C   0  0  2  0  0  0  0  0  0  0  0  0
  149.4937  140.6048  157.5751 O   0  0  0  0  0  0  0  0  0  0  0  0
  151.5879  141.6164  158.2966 C   0  0  0  0  0  0  0  0  0  0  0  0
  151.3754  142.9864  158.0323 C   0  0  0  0  0  0  0  0  0  0  0  0
  152.0022  143.9676  158.8249 C   0  0  0  0  0  0  0  0  0  0  0  0
  152.8430  143.5847  159.8873 C   0  0  0  0  0  0  0  0  0  0  0  0
  153.0568  142.2197  160.1574 C   0  0  0  0  0  0  0  0  0  0  0  0
  152.4305  141.2381  159.3652 C   0  0  0  0  0  0  0  0  0  0  0  0
  149.8503  134.5129  155.7653 H   0  0  0  0  0  0  0  0  0  0  0  0
  150.7650  134.8990  154.2899 H   0  0  0  0  0  0  0  0  0  0  0  0
  149.3384  135.8673  154.7339 H   0  0  0  0  0  0  0  0  0  0  0  0
  152.6023  138.2720  155.1774 H   0  0  0  0  0  0  0  0  0  0  0  0
  152.0157  137.1894  153.9103 H   0  0  0  0  0  0  0  0  0  0  0  0
  146.9837  138.9355  152.5050 H   0  0  0  0  0  0  0  0  0  0  0  0
  145.8833  141.1570  152.8287 H   0  0  0  0  0  0  0  0  0  0  0  0
  146.9207  142.8930  154.2427 H   0  0  0  0  0  0  0  0  0  0  0  0
  149.0943  142.4871  155.3926 H   0  0  0  0  0  0  0  0  0  0  0  0
  152.3275  140.4040  155.8012 H   0  0  0  0  0  0  0  0  0  0  0  0
  151.2321  141.7451  155.6423 H   0  0  0  0  0  0  0  0  0  0  0  0
  151.2152  139.5793  157.7969 H   0  0  0  0  0  0  0  0  0  0  0  0
  149.2650  140.3173  158.4460 H   0  0  0  0  0  0  0  0  0  0  0  0
  150.7300  143.2909  157.2216 H   0  0  0  0  0  0  0  0  0  0  0  0
  151.8373  145.0148  158.6180 H   0  0  0  0  0  0  0  0  0  0  0  0
  153.3231  144.3375  160.4951 H   0  0  0  0  0  0  0  0  0  0  0  0
  153.7004  141.9255  160.9731 H   0  0  0  0  0  0  0  0  0  0  0  0
  152.5974  140.1930  159.5820 H   0  0  0  0  0  0  0  0  0  0  0  0
  149.3583  137.5080  153.3019 H   0  0  0  0  0  0  0  0  0  0  0  0
  1  2  1  0  0  0  0
  1 24  1  0  0  0  0
  1 25  1  0  0  0  0
  1 26  1  0  0  0  0
  2  3  2  0  0  0  0
  2  4  2  0  0  0  0
  2  5  1  0  0  0  0
  5  6  1  0  0  0  0
  5 27  1  0  0  0  0
  5 28  1  0  0  0  0
  6 14  1  0  0  0  0
  6  7  2  0  0  0  0
  7  8  1  0  0  0  0
  7 42  1  0  0  0  0
  8 13  2  0  0  0  0
  8  9  1  0  0  0  0
  9 10  2  0  0  0  0
  9 29  1  0  0  0  0
 10 11  1  0  0  0  0
 10 30  1  0  0  0  0
 11 12  2  0  0  0  0
 11 31  1  0  0  0  0
 12 13  1  0  0  0  0
 12 32  1  0  0  0  0
 13 14  1  0  0  0  0
 14 15  1  0  0  0  0
 15 16  1  0  0  0  0
 15 33  1  0  0  0  0
 15 34  1  0  0  0  0
 16 17  1  0  0  0  0
 16 18  1  0  0  0  0
 16 35  1  0  0  0  0
 17 36  1  0  0  0  0
 18 23  1  0  0  0  0
 18 19  2  0  0  0  0
 19 20  1  0  0  0  0
 19 37  1  0  0  0  0
 20 21  2  0  0  0  0
 20 38  1  0  0  0  0
 21 22  1  0  0  0  0
 21 39  1  0  0  0  0
 22 23  2  0  0  0  0
 22 40  1  0  0  0  0
 23 41  1  0  0  0  0
M  CHG  1   7   1
M  END
> <s_m_source_file>
AV-unprocessed.smi

> <i_m_source_file_index>
1372

> <i_lp_mmshare_version>
43012

> <i_f3d_flags>
0

> <s_epik_input>
W2NIXTFbY0hdW2NIXVtjSF1jKGMxMiluKGMobjIpW0NIMl1TKD1PKSg9TylbQ0gzXSlbQ0gyXVtDQEhdKFtPSF0pYzNbY0hdW2NIXVtjSF1bY0hdW2NIXTM=

> <s_epik_cmdline>
J2VwaWtfcHl0aG9uJywgJy1waCcsICc3LjAnLCAnLXRuJywgJzgnLCAnLW1hJywgJzIwMCcsICctbWV0YWxfYmluZGluZycsICctaW1hZScsICc8aW5maWxlLm1hZT4nLCAnLW9tYWUnLCAnPG91dGZpbGUubWFlPic=

> <r_epik_Ionization_Penalty>
2.1801

> <r_epik_Ionization_Penalty_Charging>
2.1801

> <r_epik_Ionization_Penalty_Neutral>
1.34362e-06

> <r_epik_State_Penalty>
2.32206

> <r_epik_Charging_Adjusted_Penalty>
4.50216

> <i_epik_Tot_Q>
1

> <i_epik_Tot_abs_Q>
1

> <r_epik_Metal_State_Penalty>
6.40294

> <b_epik_Metal_Only>
0

> <s_lp_Force_Field>
OPLS_2005

> <r_lp_Energy>
10.6003

> <b_lp_Chiralities_Consistent>
1

> <s_lp_Variant>
AV-unprocessed.smi:1372-3

> <Gold.Version>
5.8.1

> <Gold.Id.Protein>
6NUR|6NUR_protein|mol2

> <Gold.PLP.Fitness>
57.1309

> <Gold.PLP.PLP>
-50.1240

> <Gold.PLP.part.hbond>
-2.8563

> <Gold.PLP.part.metal>
0.0000

> <Gold.PLP.part.buried>
0.9274

> <Gold.PLP.part.nonpolar>
-48.2576

> <Gold.PLP.part.repulsive>
0.0550

> <Gold.PLP.ligand.clash>
0.0000

> <Gold.PLP.ligand.torsion>
1.0668

> <Gold.PLP.Chemscore.Hbond>
3.0000

> <Gold.PLP.Chemscore.CHOScore>
0.0000

> <Gold.PLP.Chemscore.Metal>
0.0000

> <Gold.Chemscore.Hbonds>
donor molecule, donor type, donor heavy atom, donor atom, acceptor molecule, acceptor atom, score
      L1  H     7    42       P1  7948  2.00
      P1  H 10752 10764       L1     4  1.00

> <Gold.PLP.Chemscore.Internal.Correction>
0.1406

> <Gold.Rescore>
     Score         DG    S(hbond)    S(metal)    S(lipo)     H(rot)  DE(clash)    DE(int)     intcor
     19.42     -20.34       1.88        0.00     125.71       2.40       0.10       0.83       ----

> <Gold.Chemscore.Fitness>
19.4172

> <Gold.Chemscore.DG>
-20.3432

> <Gold.Chemscore.ZeroCoef>
-5.4800

> <Gold.Chemscore.Hbond>
1.8824

> <Gold.Chemscore.Metal>
0.0000

> <Gold.Chemscore.Lipo>
125.7052

> <Gold.Chemscore.Internal_Hbond>
0.0000

> <Gold.Chemscore.DEClash>
0.0982

> <Gold.Chemscore.DEInternal>
0.8278

> <Gold.Chemscore.Rot>
2.3951

> <Gold.Chemscore.Internal.Correction>
   9.000000E+99

> <Gold.Chemscore.Hbonds>
donor molecule, donor type, donor heavy atom, donor atom, acceptor molecule, acceptor atom, score
      L1  H     7    42       P1  7948  0.96
      P1  H 10752 10764       L1     4  0.88

> <Gold.Chemscore.Hbond.Weighted>
-6.2871

> <Gold.Chemscore.Metal.Weighted>
-0.0000

> <Gold.Chemscore.Lipo.Weighted>
-14.7075

> <Gold.Chemscore.Internal_Hbond.Weighted>
0.0000

> <Gold.Chemscore.DEClash.Weighted>
0.0982

> <Gold.Chemscore.DEInternal.Weighted>
0.8278

> <Gold.Chemscore.Rot.Weighted>
6.1314

> <Gold.Chemscore.Internal.Correction.Weighted>
   9.000000E+99

> <Gold.Protein.RotatedTorsions>
[ 6907 6896 6895 6894 ] final   30.26 input  -60.11 | X-H torsion
[ 7974 7965 7964 7962 ] final  154.61 input  175.53 | X-H torsion
[ 8008 7997 7996 7995 ] final   94.69 input   59.86 | X-H torsion
[ 10167 10162 10161 10158 ] final  -60.14 input  -65.29 | X-H torsion
[ 10718 10713 10712 10709 ] final   30.78 input   66.30 | X-H torsion
[ 10763 10752 10751 10750 ] final   -3.90 input  -60.55 | X-H torsion
[ 11005 11000 10999 10996 ] final  150.81 input  -57.11 | X-H torsion

> <Gold.Protein.ActiveResidues>
 VAL166  LYS551  ARG553  GLY616  TRP617  ASP618  TYR619  PRO620  LYS621  CYS622 
 ASP623  PHE694  ASN695  SER759  ASP760  ASP761  ALA762  ILE779  LEU786  VAL792 
 PHE793  MET794  SER795  GLU796  ALA797  LYS798  CYS799  TRP800  GLU811  SER814 

> <Gold.Protein.RotatedAtoms>
  152.0433  134.9698  160.0573 H   0  0  0  0  0  0  0  0  0  0  0  0  # atno 6907 bound_to 6896
  152.1128  133.4305  159.4647 H   0  0  0  0  0  0  0  0  0  0  0  0  # atno 6908 bound_to 6896
  150.6844  134.2547  159.4568 H   0  0  0  0  0  0  0  0  0  0  0  0  # atno 6909 bound_to 6896
  144.8078  139.6957  143.6155 H   0  0  0  0  0  0  0  0  0  0  0  0  # atno 7974 bound_to 7965
  156.0607  140.3296  155.7458 H   0  0  0  0  0  0  0  0  0  0  0  0  # atno 8008 bound_to 7997
  155.5459  140.0606  157.2877 H   0  0  0  0  0  0  0  0  0  0  0  0  # atno 8009 bound_to 7997
  154.4480  140.1902  156.0626 H   0  0  0  0  0  0  0  0  0  0  0  0  # atno 8010 bound_to 7997
  140.6090  143.2382  151.5753 H   0  0  0  0  0  0  0  0  0  0  0  0  # atno 10167 bound_to 10162
  157.2640  130.7175  149.6468 H   0  0  0  0  0  0  0  0  0  0  0  0  # atno 10718 bound_to 10713
  153.3776  135.6997  153.6590 H   0  0  0  0  0  0  0  0  0  0  0  0  # atno 10763 bound_to 10752
  153.5214  135.3611  155.2634 H   0  0  0  0  0  0  0  0  0  0  0  0  # atno 10764 bound_to 10752
  154.8689  135.4159  154.3067 H   0  0  0  0  0  0  0  0  0  0  0  0  # atno 10765 bound_to 10752
  140.1164  134.8891  157.2010 H   0  0  0  0  0  0  0  0  0  0  0  0  # atno 11005 bound_to 11000
  146.2372  139.5928  142.9516 LP  0  0  0  0  0  0  0  0  0  0  0  0  # atno 17320 bound_to 7965
  145.5397  141.0421  143.2337 LP  0  0  0  0  0  0  0  0  0  0  0  0  # atno 17321 bound_to 7965
  139.5347  144.2815  152.1225 LP  0  0  0  0  0  0  0  0  0  0  0  0  # atno 17342 bound_to 10162
  140.2011  144.4657  150.6431 LP  0  0  0  0  0  0  0  0  0  0  0  0  # atno 17343 bound_to 10162
  155.9663  130.4388  150.5234 LP  0  0  0  0  0  0  0  0  0  0  0  0  # atno 17370 bound_to 10713
  157.3145  131.0670  151.1977 LP  0  0  0  0  0  0  0  0  0  0  0  0  # atno 17371 bound_to 10713
  140.3023  134.3118  155.7287 LP  0  0  0  0  0  0  0  0  0  0  0  0  # atno 17394 bound_to 11000
  141.2142  133.7599  156.9658 LP  0  0  0  0  0  0  0  0  0  0  0  0  # atno 17395 bound_to 11000

$$$$
