AV-unprocessed.smi:1334|AV-procd|sdf|5492|dock8
  -GOLD-   22720 5 73D 1   1.00000     0.00000
 Structure written by MMmdl.
 38 39  0  0  0  0  0  0  0  0  1 V2000
  151.6553  137.8193  154.4349 C   0  0  0  0  0  0  0  0  0  0  0  0
  151.6984  139.2509  155.0061 C   0  0  2  0  0  0  0  0  0  0  0  0
  152.2304  139.2847  156.4458 C   0  0  0  0  0  0  0  0  0  0  0  0
  153.2754  138.7013  156.7363 O   0  0  0  0  0  0  0  0  0  0  0  0
  151.4873  139.9582  157.3389 N   0  0  0  0  0  0  0  0  0  0  0  0
  151.7543  140.0468  158.7725 C   0  0  0  0  0  0  0  0  0  0  0  0
  152.8580  141.0750  159.0876 C   0  0  0  0  0  0  0  0  0  0  0  0
  152.3516  142.4899  159.3363 C   0  0  0  0  0  0  0  0  0  0  0  0
  151.7754  143.2185  158.3599 C   0  0  0  0  0  0  0  0  0  0  0  0
  151.2950  144.6493  158.5282 C   0  0  0  0  0  0  0  0  0  0  0  0
  151.8144  145.2974  159.8223 C   0  0  0  0  0  0  0  0  0  0  0  0
  151.7417  144.3220  161.0029 C   0  0  0  0  0  0  0  0  0  0  0  0
  152.5729  143.0551  160.7352 C   0  0  0  0  0  0  0  0  0  0  0  0
  150.4022  139.9154  154.9395 N   0  0  0  0  0  0  0  0  0  0  0  0
  149.2434  139.4834  154.4379 C   0  0  0  0  0  0  0  0  0  0  0  0
  148.2618  140.3718  154.5048 N   0  0  0  0  0  0  0  0  0  0  0  0
  148.9338  141.4106  155.0829 C   0  0  0  0  0  0  0  0  0  0  0  0
  150.2205  141.1947  155.3538 N   0  0  0  0  0  0  0  0  0  0  0  0
  152.6463  137.3644  154.4433 H   0  0  0  0  0  0  0  0  0  0  0  0
  151.3080  137.8248  153.4014 H   0  0  0  0  0  0  0  0  0  0  0  0
  150.9900  137.1681  155.0033 H   0  0  0  0  0  0  0  0  0  0  0  0
  152.3834  139.8262  154.3806 H   0  0  0  0  0  0  0  0  0  0  0  0
  150.6478  140.4107  157.0075 H   0  0  0  0  0  0  0  0  0  0  0  0
  150.8517  140.2986  159.3308 H   0  0  0  0  0  0  0  0  0  0  0  0
  152.0586  139.0620  159.1278 H   0  0  0  0  0  0  0  0  0  0  0  0
  153.4285  140.7486  159.9577 H   0  0  0  0  0  0  0  0  0  0  0  0
  153.5639  141.0955  158.2562 H   0  0  0  0  0  0  0  0  0  0  0  0
  151.6287  142.7847  157.3815 H   0  0  0  0  0  0  0  0  0  0  0  0
  151.6130  145.2380  157.6677 H   0  0  0  0  0  0  0  0  0  0  0  0
  150.2058  144.6436  158.5190 H   0  0  0  0  0  0  0  0  0  0  0  0
  152.8502  145.6093  159.6821 H   0  0  0  0  0  0  0  0  0  0  0  0
  151.2461  146.2022  160.0398 H   0  0  0  0  0  0  0  0  0  0  0  0
  152.0852  144.8063  161.9172 H   0  0  0  0  0  0  0  0  0  0  0  0
  150.7014  144.0427  161.1744 H   0  0  0  0  0  0  0  0  0  0  0  0
  152.3274  142.3074  161.4886 H   0  0  0  0  0  0  0  0  0  0  0  0
  153.6354  143.2737  160.8460 H   0  0  0  0  0  0  0  0  0  0  0  0
  149.1159  138.4991  154.0114 H   0  0  0  0  0  0  0  0  0  0  0  0
  148.4625  142.3570  155.3029 H   0  0  0  0  0  0  0  0  0  0  0  0
  1  2  1  0  0  0  0
  1 19  1  0  0  0  0
  1 20  1  0  0  0  0
  1 21  1  0  0  0  0
  2  3  1  0  0  0  0
  2 14  1  0  0  0  0
  2 22  1  0  0  0  0
  3  4  2  0  0  0  0
  3  5  1  0  0  0  0
  5  6  1  0  0  0  0
  5 23  1  0  0  0  0
  6  7  1  0  0  0  0
  6 24  1  0  0  0  0
  6 25  1  0  0  0  0
  7  8  1  0  0  0  0
  7 26  1  0  0  0  0
  7 27  1  0  0  0  0
  8 13  1  0  0  0  0
  8  9  2  0  0  0  0
  9 10  1  0  0  0  0
  9 28  1  0  0  0  0
 10 11  1  0  0  0  0
 10 29  1  0  0  0  0
 10 30  1  0  0  0  0
 11 12  1  0  0  0  0
 11 31  1  0  0  0  0
 11 32  1  0  0  0  0
 12 13  1  0  0  0  0
 12 33  1  0  0  0  0
 12 34  1  0  0  0  0
 13 35  1  0  0  0  0
 13 36  1  0  0  0  0
 14 18  1  0  0  0  0
 14 15  1  0  0  0  0
 15 16  2  0  0  0  0
 15 37  1  0  0  0  0
 16 17  1  0  0  0  0
 17 18  2  0  0  0  0
 17 38  1  0  0  0  0
M  END
> <s_m_source_file>
AV-unprocessed.smi

> <i_m_source_file_index>
1334

> <i_lp_mmshare_version>
43012

> <i_f3d_flags>
0

> <s_epik_input>
bjFbY0hdbltjSF1uMVtDQEhdKFtDSDNdKUMoPU8pW05IXVtDSDJdW0NIMl1DMj1bQ0hdW0NIMl1bQ0gyXVtDSDJdW0NIMl0y

> <s_epik_cmdline>
J2VwaWtfcHl0aG9uJywgJy1waCcsICc3LjAnLCAnLXRuJywgJzgnLCAnLW1hJywgJzIwMCcsICctbWV0YWxfYmluZGluZycsICctaW1hZScsICc8aW5maWxlLm1hZT4nLCAnLW9tYWUnLCAnPG91dGZpbGUubWFlPic=

> <r_lp_tautomer_probability>
1

> <r_epik_Ionization_Penalty>
1.26383e-05

> <r_epik_Ionization_Penalty_Charging>
0

> <r_epik_Ionization_Penalty_Neutral>
1.26383e-05

> <r_epik_State_Penalty>
-0

> <r_epik_Charging_Adjusted_Penalty>
0

> <i_epik_Tot_Q>
0

> <i_epik_Tot_abs_Q>
0

> <r_epik_Metal_State_Penalty>
-0

> <b_epik_Metal_Only>
0

> <s_lp_Force_Field>
OPLS_2005

> <r_lp_Energy>
12.0281

> <b_lp_Chiralities_Consistent>
1

> <s_lp_Variant>
AV-unprocessed.smi:1334-1

> <Gold.Version>
5.8.1

> <Gold.Id.Protein>
6NUR|6NUR_protein|mol2

> <Gold.PLP.Fitness>
49.4695

> <Gold.PLP.PLP>
-44.3587

> <Gold.PLP.part.hbond>
-2.0000

> <Gold.PLP.part.metal>
0.0000

> <Gold.PLP.part.buried>
-2.7948

> <Gold.PLP.part.nonpolar>
-40.0489

> <Gold.PLP.part.repulsive>
0.2675

> <Gold.PLP.ligand.clash>
0.0000

> <Gold.PLP.ligand.torsion>
0.5009

> <Gold.PLP.Chemscore.Hbond>
1.0000

> <Gold.PLP.Chemscore.CHOScore>
1.0000

> <Gold.PLP.Chemscore.Metal>
0.0000

> <Gold.Chemscore.Hbonds>
donor molecule, donor type, donor heavy atom, donor atom, acceptor molecule, acceptor atom, score
      P1  H  7997  8009       L1     4  1.00
      L1  C    17    38       P1  8028  1.00

> <Gold.PLP.Chemscore.Internal.Correction>
0.1125

> <Gold.Rescore>
     Score         DG    S(hbond)    S(metal)    S(lipo)     H(rot)  DE(clash)    DE(int)     intcor
     12.48     -14.50       0.89        0.00     104.11       2.40       0.01       2.01       ----

> <Gold.Chemscore.Fitness>
12.4788

> <Gold.Chemscore.DG>
-14.4971

> <Gold.Chemscore.ZeroCoef>
-5.4800

> <Gold.Chemscore.Hbond>
0.8931

> <Gold.Chemscore.Metal>
0.0000

> <Gold.Chemscore.Lipo>
104.1107

> <Gold.Chemscore.Internal_Hbond>
0.0000

> <Gold.Chemscore.DEClash>
0.0060

> <Gold.Chemscore.DEInternal>
2.0123

> <Gold.Chemscore.Rot>
2.4011

> <Gold.Chemscore.Internal.Correction>
   9.000000E+99

> <Gold.Chemscore.Hbonds>
donor molecule, donor type, donor heavy atom, donor atom, acceptor molecule, acceptor atom, score
      P1  H  7997  8009       L1     4  0.33

> <Gold.Chemscore.Hbond.Weighted>
-2.9830

> <Gold.Chemscore.Metal.Weighted>
-0.0000

> <Gold.Chemscore.Lipo.Weighted>
-12.1810

> <Gold.Chemscore.Internal_Hbond.Weighted>
0.0000

> <Gold.Chemscore.DEClash.Weighted>
0.0060

> <Gold.Chemscore.DEInternal.Weighted>
2.0123

> <Gold.Chemscore.Rot.Weighted>
6.1469

> <Gold.Chemscore.Internal.Correction.Weighted>
   9.000000E+99

> <Gold.Protein.RotatedTorsions>
[ 6907 6896 6895 6894 ] final  -23.07 input  -60.11 | X-H torsion
[ 7974 7965 7964 7962 ] final  -86.39 input  175.53 | X-H torsion
[ 8008 7997 7996 7995 ] final  171.55 input   59.86 | X-H torsion
[ 10167 10162 10161 10158 ] final -139.01 input  -65.29 | X-H torsion
[ 10718 10713 10712 10709 ] final -104.61 input   66.30 | X-H torsion
[ 10763 10752 10751 10750 ] final  150.43 input  -60.55 | X-H torsion
[ 11005 11000 10999 10996 ] final  101.73 input  -57.11 | X-H torsion

> <Gold.Protein.ActiveResidues>
 VAL166  LYS551  ARG553  GLY616  TRP617  ASP618  TYR619  PRO620  LYS621  CYS622 
 ASP623  PHE694  ASN695  SER759  ASP760  ASP761  ALA762  ILE779  LEU786  VAL792 
 PHE793  MET794  SER795  GLU796  ALA797  LYS798  CYS799  TRP800  GLU811  SER814 

> <Gold.Protein.RotatedAtoms>
  151.2093  135.0475  159.8904 H   0  0  0  0  0  0  0  0  0  0  0  0  # atno 6907 bound_to 6896
  152.5426  134.0762  159.8226 H   0  0  0  0  0  0  0  0  0  0  0  0  # atno 6908 bound_to 6896
  151.0913  133.5266  159.2646 H   0  0  0  0  0  0  0  0  0  0  0  0  # atno 6909 bound_to 6896
  145.4805  140.9557  143.1867 H   0  0  0  0  0  0  0  0  0  0  0  0  # atno 7974 bound_to 7965
  156.1261  140.1509  156.9135 H   0  0  0  0  0  0  0  0  0  0  0  0  # atno 8008 bound_to 7997
  154.4872  140.0862  156.7554 H   0  0  0  0  0  0  0  0  0  0  0  0  # atno 8009 bound_to 7997
  155.4342  140.3428  155.4285 H   0  0  0  0  0  0  0  0  0  0  0  0  # atno 8010 bound_to 7997
  139.8422  143.7307  152.2662 H   0  0  0  0  0  0  0  0  0  0  0  0  # atno 10167 bound_to 10162
  156.0312  130.5524  150.7422 H   0  0  0  0  0  0  0  0  0  0  0  0  # atno 10718 bound_to 10713
  154.0874  135.2855  155.3278 H   0  0  0  0  0  0  0  0  0  0  0  0  # atno 10763 bound_to 10752
  154.6643  135.5323  153.8060 H   0  0  0  0  0  0  0  0  0  0  0  0  # atno 10764 bound_to 10752
  153.0426  135.6541  154.1045 H   0  0  0  0  0  0  0  0  0  0  0  0  # atno 10765 bound_to 10752
  139.8774  134.9195  156.4951 H   0  0  0  0  0  0  0  0  0  0  0  0  # atno 11005 bound_to 11000
  144.7892  139.6364  143.7121 LP  0  0  0  0  0  0  0  0  0  0  0  0  # atno 17320 bound_to 7965
  146.2344  139.5876  142.9534 LP  0  0  0  0  0  0  0  0  0  0  0  0  # atno 17321 bound_to 7965
  139.7548  144.7524  151.0452 LP  0  0  0  0  0  0  0  0  0  0  0  0  # atno 17342 bound_to 10162
  140.7797  143.4819  151.0007 LP  0  0  0  0  0  0  0  0  0  0  0  0  # atno 17343 bound_to 10162
  157.4988  131.0917  151.0340 LP  0  0  0  0  0  0  0  0  0  0  0  0  # atno 17370 bound_to 10713
  157.0726  130.5870  149.5405 LP  0  0  0  0  0  0  0  0  0  0  0  0  # atno 17371 bound_to 10713
  140.8630  133.8045  155.9285 LP  0  0  0  0  0  0  0  0  0  0  0  0  # atno 17394 bound_to 11000
  140.9030  134.2355  157.5031 LP  0  0  0  0  0  0  0  0  0  0  0  0  # atno 17395 bound_to 11000

$$$$
