AV-unprocessed.smi:177|AV-procd|sdf|1443|dock3
  -GOLD-   2262019233D 1   1.00000     0.00000
 Structure written by MMmdl.
 61 65  0  0  0  0  0  0  0  0  1 V2000
  143.3560  132.6263  150.9436 C   0  0  0  0  0  0  0  0  0  0  0  0
  144.4901  132.7497  151.7883 O   0  0  0  0  0  0  0  0  0  0  0  0
  145.7432  132.5536  151.1401 C   0  0  2  0  0  0  0  0  0  0  0  0
  145.8857  131.0504  150.8368 C   0  0  0  0  0  0  0  0  0  0  0  0
  146.0470  130.2163  152.1195 C   0  0  0  0  0  0  0  0  0  0  0  0
  147.2172  130.7312  152.9717 C   0  0  2  0  0  0  0  0  0  0  0  0
  147.2892  129.9701  154.1730 O   0  0  0  0  0  0  0  0  0  0  0  0
  148.4030  130.3484  154.9749 C   0  0  0  0  0  0  0  0  0  0  0  0
  148.2687  131.8258  155.3771 C   0  0  0  0  0  0  0  0  0  0  0  0
  148.1206  132.6640  154.1926 N   0  0  0  0  0  0  0  0  0  0  0  0
  148.1626  133.9766  154.5175 C   0  0  0  0  0  0  0  0  0  0  0  0
  147.0777  134.7212  154.1922 N   0  0  0  0  0  0  0  0  0  0  0  0
  147.0441  136.0221  154.4951 C   0  0  0  0  0  0  0  0  0  0  0  0
  147.9736  136.7616  155.1034 N   0  0  0  0  0  0  0  0  0  0  0  0
  149.0761  136.0211  155.4144 C   0  0  0  0  0  0  0  0  0  0  0  0
  149.2533  134.6316  155.1598 C   0  0  0  0  0  0  0  0  0  0  0  0
  150.4992  134.2238  155.6195 N   0  0  0  0  0  0  0  0  0  0  0  0
  151.0213  135.3042  156.1299 C   0  0  0  0  0  0  0  0  0  0  0  0
  150.2442  136.4368  156.0326 N   0  0  0  0  0  0  0  0  0  0  0  0
  150.5836  137.7677  156.5189 C   0  0  0  0  0  0  0  0  0  0  0  0
  151.5247  138.5959  155.5860 C   0  0  0  0  0  0  0  0  0  0  0  0
  152.9729  138.0414  155.6383 C   0  0  0  0  0  0  0  0  0  0  0  0
  153.8653  138.8008  154.8472 O   0  0  0  0  0  0  0  0  0  0  0  0
  151.0074  138.5494  154.1259 C   0  0  0  0  0  0  0  0  0  0  0  0
  149.7223  139.3734  153.9171 C   0  0  0  0  0  0  0  0  0  0  0  0
  149.9276  140.7179  154.3320 O   0  0  0  0  0  0  0  0  0  0  0  0
  150.2565  140.8277  155.7107 C   0  0  0  0  0  0  0  0  0  0  0  0
  151.5793  140.0920  155.9879 C   0  0  0  0  0  0  0  0  0  0  0  0
  147.0280  132.2253  153.3199 C   0  0  1  0  0  0  0  0  0  0  0  0
  146.9182  133.0451  152.0126 C   0  0  0  0  0  0  0  0  0  0  0  0
  142.4506  132.7258  151.5418 H   0  0  0  0  0  0  0  0  0  0  0  0
  143.3277  131.6508  150.4568 H   0  0  0  0  0  0  0  0  0  0  0  0
  143.3275  133.4018  150.1788 H   0  0  0  0  0  0  0  0  0  0  0  0
  145.7410  133.0927  150.1913 H   0  0  0  0  0  0  0  0  0  0  0  0
  145.0231  130.6997  150.2695 H   0  0  0  0  0  0  0  0  0  0  0  0
  146.7557  130.8940  150.1978 H   0  0  0  0  0  0  0  0  0  0  0  0
  145.1244  130.2544  152.7003 H   0  0  0  0  0  0  0  0  0  0  0  0
  146.2070  129.1690  151.8619 H   0  0  0  0  0  0  0  0  0  0  0  0
  148.1439  130.5948  152.4105 H   0  0  0  0  0  0  0  0  0  0  0  0
  148.4317  129.7175  155.8633 H   0  0  0  0  0  0  0  0  0  0  0  0
  149.3333  130.1764  154.4314 H   0  0  0  0  0  0  0  0  0  0  0  0
  147.4005  131.9569  156.0252 H   0  0  0  0  0  0  0  0  0  0  0  0
  149.1459  132.1329  155.9488 H   0  0  0  0  0  0  0  0  0  0  0  0
  146.1434  136.5455  154.2105 H   0  0  0  0  0  0  0  0  0  0  0  0
  151.9993  135.3038  156.5881 H   0  0  0  0  0  0  0  0  0  0  0  0
  149.6533  138.3100  156.6918 H   0  0  0  0  0  0  0  0  0  0  0  0
  151.0247  137.6425  157.5065 H   0  0  0  0  0  0  0  0  0  0  0  0
  153.3511  138.0487  156.6613 H   0  0  0  0  0  0  0  0  0  0  0  0
  153.0075  137.0027  155.3093 H   0  0  0  0  0  0  0  0  0  0  0  0
  154.1475  138.2705  154.1176 H   0  0  0  0  0  0  0  0  0  0  0  0
  151.7736  138.9428  153.4563 H   0  0  0  0  0  0  0  0  0  0  0  0
  150.8346  137.5189  153.8131 H   0  0  0  0  0  0  0  0  0  0  0  0
  149.4532  139.3750  152.8607 H   0  0  0  0  0  0  0  0  0  0  0  0
  148.8750  138.9409  154.4495 H   0  0  0  0  0  0  0  0  0  0  0  0
  150.3611  141.8840  155.9587 H   0  0  0  0  0  0  0  0  0  0  0  0
  149.4429  140.4418  156.3251 H   0  0  0  0  0  0  0  0  0  0  0  0
  151.8689  140.2127  157.0309 H   0  0  0  0  0  0  0  0  0  0  0  0
  152.3608  140.5922  155.4136 H   0  0  0  0  0  0  0  0  0  0  0  0
  146.0929  132.3176  153.8721 H   0  0  0  0  0  0  0  0  0  0  0  0
  147.8476  132.9507  151.4494 H   0  0  0  0  0  0  0  0  0  0  0  0
  146.8086  134.1088  152.2168 H   0  0  0  0  0  0  0  0  0  0  0  0
  1  2  1  0  0  0  0
  1 31  1  0  0  0  0
  1 32  1  0  0  0  0
  1 33  1  0  0  0  0
  2  3  1  0  0  0  0
  3 30  1  0  0  0  0
  3  4  1  0  0  0  0
  3 34  1  0  0  0  0
  4  5  1  0  0  0  0
  4 35  1  0  0  0  0
  4 36  1  0  0  0  0
  5  6  1  0  0  0  0
  5 37  1  0  0  0  0
  5 38  1  0  0  0  0
  6 29  1  0  0  0  0
  6  7  1  0  0  0  0
  6 39  1  0  0  0  0
  7  8  1  0  0  0  0
  8  9  1  0  0  0  0
  8 40  1  0  0  0  0
  8 41  1  0  0  0  0
  9 10  1  0  0  0  0
  9 42  1  0  0  0  0
  9 43  1  0  0  0  0
 10 11  1  0  0  0  0
 10 29  1  0  0  0  0
 11 16  1  0  0  0  0
 11 12  2  0  0  0  0
 12 13  1  0  0  0  0
 13 14  2  0  0  0  0
 13 44  1  0  0  0  0
 14 15  1  0  0  0  0
 15 19  1  0  0  0  0
 15 16  2  0  0  0  0
 16 17  1  0  0  0  0
 17 18  2  0  0  0  0
 18 19  1  0  0  0  0
 18 45  1  0  0  0  0
 19 20  1  0  0  0  0
 20 21  1  0  0  0  0
 20 46  1  0  0  0  0
 20 47  1  0  0  0  0
 21 28  1  0  0  0  0
 21 22  1  0  0  0  0
 21 24  1  0  0  0  0
 22 23  1  0  0  0  0
 22 48  1  0  0  0  0
 22 49  1  0  0  0  0
 23 50  1  0  0  0  0
 24 25  1  0  0  0  0
 24 51  1  0  0  0  0
 24 52  1  0  0  0  0
 25 26  1  0  0  0  0
 25 53  1  0  0  0  0
 25 54  1  0  0  0  0
 26 27  1  0  0  0  0
 27 28  1  0  0  0  0
 27 55  1  0  0  0  0
 27 56  1  0  0  0  0
 28 57  1  0  0  0  0
 28 58  1  0  0  0  0
 29 30  1  0  0  0  0
 29 59  1  0  0  0  0
 30 60  1  0  0  0  0
 30 61  1  0  0  0  0
M  END
> <s_m_source_file>
AV-unprocessed.smi

> <i_m_source_file_index>
177

> <i_lp_mmshare_version>
43012

> <i_f3d_flags>
0

> <s_epik_input>
W0NIM11PW0NASF0oW0NIMl1bQ0gyXTEpW0NIMl1bQ0BIXShbQ0BASF0xMilOKFtDSDJdW0NIMl1PMiljKG5bY0hdbjMpYyhjMzQpbltjSF1uNFtDSDJdQzUoW0NIMl1bT0hdKVtDSDJdW0NIMl1PW0NIMl1bQ0gyXTU=

> <s_epik_cmdline>
J2VwaWtfcHl0aG9uJywgJy1waCcsICc3LjAnLCAnLXRuJywgJzgnLCAnLW1hJywgJzIwMCcsICctbWV0YWxfYmluZGluZycsICctaW1hZScsICc8aW5maWxlLm1hZT4nLCAnLW9tYWUnLCAnPG91dGZpbGUubWFlPic=

> <r_lp_tautomer_probability>
1

> <r_epik_Ionization_Penalty>
0.0065899

> <r_epik_Ionization_Penalty_Charging>
0

> <r_epik_Ionization_Penalty_Neutral>
0.0065899

> <r_epik_State_Penalty>
0.00470042

> <r_epik_Charging_Adjusted_Penalty>
0.00470042

> <i_epik_Tot_Q>
0

> <i_epik_Tot_abs_Q>
0

> <r_epik_Metal_State_Penalty>
-0

> <b_epik_Metal_Only>
0

> <s_lp_Force_Field>
OPLS_2005

> <r_lp_Energy>
42.7066

> <b_lp_Chiralities_Consistent>
1

> <s_lp_Variant>
AV-unprocessed.smi:177-7

> <Gold.Version>
5.8.1

> <Gold.Id.Protein>
6NUR|6NUR_protein|mol2

> <Gold.PLP.Fitness>
42.5219

> <Gold.PLP.PLP>
-39.2488

> <Gold.PLP.part.hbond>
-2.0000

> <Gold.PLP.part.metal>
0.0000

> <Gold.PLP.part.buried>
-2.4330

> <Gold.PLP.part.nonpolar>
-35.9926

> <Gold.PLP.part.repulsive>
0.6431

> <Gold.PLP.ligand.clash>
0.0000

> <Gold.PLP.ligand.torsion>
0.6058

> <Gold.PLP.Chemscore.Hbond>
1.4392

> <Gold.PLP.Chemscore.CHOScore>
0.0000

> <Gold.PLP.Chemscore.Metal>
0.0000

> <Gold.Chemscore.Hbonds>
donor molecule, donor type, donor heavy atom, donor atom, acceptor molecule, acceptor atom, score
      P1  H  7989  7998       L1    26  0.53
      P1  H  7997  8008       L1    23  0.90

> <Gold.PLP.Chemscore.Internal.Correction>
0.1671

> <Gold.Rescore>
     Score         DG    S(hbond)    S(metal)    S(lipo)     H(rot)  DE(clash)    DE(int)     intcor
     12.21     -14.15       0.92        0.00     104.20       2.58       0.00       1.94       ----

> <Gold.Chemscore.Fitness>
12.2108

> <Gold.Chemscore.DG>
-14.1503

> <Gold.Chemscore.ZeroCoef>
-5.4800

> <Gold.Chemscore.Hbond>
0.9236

> <Gold.Chemscore.Metal>
0.0000

> <Gold.Chemscore.Lipo>
104.2022

> <Gold.Chemscore.Internal_Hbond>
0.0000

> <Gold.Chemscore.DEClash>
0.0000

> <Gold.Chemscore.DEInternal>
1.9395

> <Gold.Chemscore.Rot>
2.5806

> <Gold.Chemscore.Internal.Correction>
   9.000000E+99

> <Gold.Chemscore.Hbonds>
donor molecule, donor type, donor heavy atom, donor atom, acceptor molecule, acceptor atom, score
      P1  H  7989  7998       L1    26  0.03
      P1  H  7997  8008       L1    23  0.75

> <Gold.Chemscore.Hbond.Weighted>
-3.0849

> <Gold.Chemscore.Metal.Weighted>
-0.0000

> <Gold.Chemscore.Lipo.Weighted>
-12.1917

> <Gold.Chemscore.Internal_Hbond.Weighted>
0.0000

> <Gold.Chemscore.DEClash.Weighted>
0.0000

> <Gold.Chemscore.DEInternal.Weighted>
1.9395

> <Gold.Chemscore.Rot.Weighted>
6.6062

> <Gold.Chemscore.Internal.Correction.Weighted>
   9.000000E+99

> <Gold.Protein.RotatedTorsions>
[ 6907 6896 6895 6894 ] final  141.91 input  -60.11 | X-H torsion
[ 7974 7965 7964 7962 ] final  -91.20 input  175.53 | X-H torsion
[ 8008 7997 7996 7995 ] final   -5.55 input   59.86 | X-H torsion
[ 10167 10162 10161 10158 ] final   60.41 input  -65.29 | X-H torsion
[ 10718 10713 10712 10709 ] final   13.00 input   66.30 | X-H torsion
[ 10763 10752 10751 10750 ] final  140.38 input  -60.55 | X-H torsion
[ 11005 11000 10999 10996 ] final    2.08 input  -57.11 | X-H torsion

> <Gold.Protein.ActiveResidues>
 VAL166  LYS551  ARG553  GLY616  TRP617  ASP618  TYR619  PRO620  LYS621  CYS622 
 ASP623  PHE694  ASN695  SER759  ASP760  ASP761  ALA762  ILE779  LEU786  VAL792 
 PHE793  MET794  SER795  GLU796  ALA797  LYS798  CYS799  TRP800  GLU811  SER814 

> <Gold.Protein.RotatedAtoms>
  152.2252  133.5014  159.5184 H   0  0  0  0  0  0  0  0  0  0  0  0  # atno 6907 bound_to 6896
  150.7023  134.1290  159.4072 H   0  0  0  0  0  0  0  0  0  0  0  0  # atno 6908 bound_to 6896
  151.9211  135.0298  160.0573 H   0  0  0  0  0  0  0  0  0  0  0  0  # atno 6909 bound_to 6896
  145.4164  140.9548  143.2205 H   0  0  0  0  0  0  0  0  0  0  0  0  # atno 7974 bound_to 7965
  154.6028  140.2455  155.7770 H   0  0  0  0  0  0  0  0  0  0  0  0  # atno 8008 bound_to 7997
  156.2322  140.2963  156.0169 H   0  0  0  0  0  0  0  0  0  0  0  0  # atno 8009 bound_to 7997
  155.2182  140.0399  157.2934 H   0  0  0  0  0  0  0  0  0  0  0  0  # atno 8010 bound_to 7997
  140.1659  144.4325  150.6686 H   0  0  0  0  0  0  0  0  0  0  0  0  # atno 10167 bound_to 10162
  157.0183  130.6144  149.5717 H   0  0  0  0  0  0  0  0  0  0  0  0  # atno 10718 bound_to 10713
  153.9218  135.3000  155.3447 H   0  0  0  0  0  0  0  0  0  0  0  0  # atno 10763 bound_to 10752
  154.7572  135.4952  153.9399 H   0  0  0  0  0  0  0  0  0  0  0  0  # atno 10764 bound_to 10752
  153.1138  135.6765  153.9557 H   0  0  0  0  0  0  0  0  0  0  0  0  # atno 10765 bound_to 10752
  140.6082  133.9772  155.8164 H   0  0  0  0  0  0  0  0  0  0  0  0  # atno 11005 bound_to 11000
  144.8275  139.5685  143.6959 LP  0  0  0  0  0  0  0  0  0  0  0  0  # atno 17320 bound_to 7965
  146.2679  139.6564  142.9316 LP  0  0  0  0  0  0  0  0  0  0  0  0  # atno 17321 bound_to 7965
  140.6613  143.2253  151.5848 LP  0  0  0  0  0  0  0  0  0  0  0  0  # atno 17342 bound_to 10162
  139.5360  144.2780  152.1252 LP  0  0  0  0  0  0  0  0  0  0  0  0  # atno 17343 bound_to 10162
  156.0111  130.5203  150.7992 LP  0  0  0  0  0  0  0  0  0  0  0  0  # atno 17370 bound_to 10713
  157.5269  131.0934  151.0006 LP  0  0  0  0  0  0  0  0  0  0  0  0  # atno 17371 bound_to 10713
  141.0826  134.0039  157.3363 LP  0  0  0  0  0  0  0  0  0  0  0  0  # atno 17394 bound_to 11000
  139.9203  135.0200  156.8039 LP  0  0  0  0  0  0  0  0  0  0  0  0  # atno 17395 bound_to 11000

$$$$
