AV-unprocessed.smi:94|AV-procd|sdf|852|dock2
  -GOLD-   2262017293D 1   1.00000     0.00000
 Structure written by MMmdl.
 53 55  0  0  0  0  0  0  0  0  1 V2000
  154.4633  139.5258  159.7081 C   0  0  0  0  0  0  0  0  0  0  0  0
  153.4864  139.9927  158.7892 O   0  0  0  0  0  0  0  0  0  0  0  0
  152.9504  141.2506  158.9788 C   0  0  0  0  0  0  0  0  0  0  0  0
  153.5584  142.2375  159.7964 C   0  0  0  0  0  0  0  0  0  0  0  0
  152.9606  143.4993  159.9659 C   0  0  0  0  0  0  0  0  0  0  0  0
  151.7434  143.7955  159.3264 C   0  0  0  0  0  0  0  0  0  0  0  0
  151.0946  145.1514  159.5131 C   0  0  0  0  0  0  0  0  0  0  0  0
  151.1333  142.8253  158.5094 C   0  0  0  0  0  0  0  0  0  0  0  0
  151.7310  141.5566  158.3219 C   0  0  0  0  0  0  0  0  0  0  0  0
  151.0509  140.5061  157.4420 C   0  0  1  0  0  0  0  0  0  0  0  0
  151.8635  140.2584  156.1598 C   0  0  0  0  0  0  0  0  0  0  0  0
  150.8227  139.2446  158.1469 N   0  0  0  0  0  0  0  0  0  0  0  0
  149.6275  138.6723  158.3573 C   0  0  0  0  0  0  0  0  0  0  0  0
  148.5658  139.1659  157.9744 O   0  0  0  0  0  0  0  0  0  0  0  0
  149.6409  137.3436  159.1275 C   0  0  0  0  0  0  0  0  0  0  0  0
  148.2955  136.7416  159.2503 N   0  0  0  0  0  0  0  0  0  0  0  0
  147.6176  136.3236  158.0783 C   0  0  0  0  0  0  0  0  0  0  0  0
  148.1202  136.4674  156.9631 O   0  0  0  0  0  0  0  0  0  0  0  0
  146.3081  135.7172  158.2911 C   0  0  0  0  0  0  0  0  0  0  0  0
  145.5853  135.3080  157.2348 F   0  0  0  0  0  0  0  0  0  0  0  0
  145.8077  135.5598  159.5341 C   0  0  0  0  0  0  0  0  0  0  0  0
  146.4909  135.9525  160.6715 N   0  0  0  0  0  0  0  0  0  0  0  0
  145.9206  135.7620  162.0620 C   0  0  2  0  0  0  0  0  0  0  0  0
  144.6961  134.8257  162.0238 C   0  0  0  0  0  0  0  0  0  0  0  0
  143.6294  135.6343  162.7354 C   0  0  0  0  0  0  0  0  0  0  0  0
  144.0627  137.0613  162.4369 C   0  0  0  0  0  0  0  0  0  0  0  0
  145.4762  136.9891  162.5671 O   0  0  0  0  0  0  0  0  0  0  0  0
  147.7542  136.5700  160.5462 C   0  0  0  0  0  0  0  0  0  0  0  0
  148.3719  136.9429  161.5465 O   0  0  0  0  0  0  0  0  0  0  0  0
  154.7829  138.5263  159.4138 H   0  0  0  0  0  0  0  0  0  0  0  0
  154.0599  139.4581  160.7192 H   0  0  0  0  0  0  0  0  0  0  0  0
  155.3465  140.1659  159.7111 H   0  0  0  0  0  0  0  0  0  0  0  0
  154.4881  142.0512  160.3116 H   0  0  0  0  0  0  0  0  0  0  0  0
  153.4388  144.2375  160.5929 H   0  0  0  0  0  0  0  0  0  0  0  0
  150.0079  145.0712  159.4707 H   0  0  0  0  0  0  0  0  0  0  0  0
  151.4203  145.8344  158.7285 H   0  0  0  0  0  0  0  0  0  0  0  0
  151.3631  145.5827  160.4780 H   0  0  0  0  0  0  0  0  0  0  0  0
  150.1946  143.0635  158.0314 H   0  0  0  0  0  0  0  0  0  0  0  0
  150.0719  140.8960  157.1589 H   0  0  0  0  0  0  0  0  0  0  0  0
  151.9954  141.1822  155.5957 H   0  0  0  0  0  0  0  0  0  0  0  0
  151.3655  139.5447  155.5028 H   0  0  0  0  0  0  0  0  0  0  0  0
  152.8544  139.8645  156.3886 H   0  0  0  0  0  0  0  0  0  0  0  0
  151.6409  138.7716  158.5018 H   0  0  0  0  0  0  0  0  0  0  0  0
  150.3257  136.6461  158.6411 H   0  0  0  0  0  0  0  0  0  0  0  0
  150.0948  137.5230  160.1029 H   0  0  0  0  0  0  0  0  0  0  0  0
  144.8320  135.1069  159.6205 H   0  0  0  0  0  0  0  0  0  0  0  0
  146.7488  135.3929  162.6693 H   0  0  0  0  0  0  0  0  0  0  0  0
  144.3992  134.6300  160.9921 H   0  0  0  0  0  0  0  0  0  0  0  0
  144.9139  133.8774  162.5157 H   0  0  0  0  0  0  0  0  0  0  0  0
  142.6205  135.4121  162.3870 H   0  0  0  0  0  0  0  0  0  0  0  0
  143.6708  135.4482  163.8094 H   0  0  0  0  0  0  0  0  0  0  0  0
  143.7910  137.3458  161.4194 H   0  0  0  0  0  0  0  0  0  0  0  0
  143.6315  137.7872  163.1264 H   0  0  0  0  0  0  0  0  0  0  0  0
  1  2  1  0  0  0  0
  1 30  1  0  0  0  0
  1 31  1  0  0  0  0
  1 32  1  0  0  0  0
  2  3  1  0  0  0  0
  3  9  1  0  0  0  0
  3  4  2  0  0  0  0
  4  5  1  0  0  0  0
  4 33  1  0  0  0  0
  5  6  2  0  0  0  0
  5 34  1  0  0  0  0
  6  7  1  0  0  0  0
  6  8  1  0  0  0  0
  7 35  1  0  0  0  0
  7 36  1  0  0  0  0
  7 37  1  0  0  0  0
  8  9  2  0  0  0  0
  8 38  1  0  0  0  0
  9 10  1  0  0  0  0
 10 11  1  0  0  0  0
 10 12  1  0  0  0  0
 10 39  1  0  0  0  0
 11 40  1  0  0  0  0
 11 41  1  0  0  0  0
 11 42  1  0  0  0  0
 12 13  1  0  0  0  0
 12 43  1  0  0  0  0
 13 14  2  0  0  0  0
 13 15  1  0  0  0  0
 15 16  1  0  0  0  0
 15 44  1  0  0  0  0
 15 45  1  0  0  0  0
 16 28  1  0  0  0  0
 16 17  1  0  0  0  0
 17 18  2  0  0  0  0
 17 19  1  0  0  0  0
 19 20  1  0  0  0  0
 19 21  2  0  0  0  0
 21 22  1  0  0  0  0
 21 46  1  0  0  0  0
 22 23  1  0  0  0  0
 22 28  1  0  0  0  0
 23 27  1  0  0  0  0
 23 24  1  0  0  0  0
 23 47  1  0  0  0  0
 24 25  1  0  0  0  0
 24 48  1  0  0  0  0
 24 49  1  0  0  0  0
 25 26  1  0  0  0  0
 25 50  1  0  0  0  0
 25 51  1  0  0  0  0
 26 27  1  0  0  0  0
 26 52  1  0  0  0  0
 26 53  1  0  0  0  0
 28 29  2  0  0  0  0
M  END
> <s_m_source_file>
AV-unprocessed.smi

> <i_m_source_file_index>
94

> <i_lp_mmshare_version>
43012

> <i_f3d_flags>
0

> <s_epik_input>
W0NIM11PYzFbY0hdW2NIXWMoW0NIM10pW2NIXWMxW0NASF0oW0NIM10pW05IXUMoPU8pW0NIMl1uMmMoPU8pYyhGKVtjSF1uKGMyPU8pW0NAQEhdM1tDSDJdW0NIMl1bQ0gyXU8z

> <s_epik_cmdline>
J2VwaWtfcHl0aG9uJywgJy1waCcsICc3LjAnLCAnLXRuJywgJzgnLCAnLW1hJywgJzIwMCcsICctbWV0YWxfYmluZGluZycsICctaW1hZScsICc8aW5maWxlLm1hZT4nLCAnLW9tYWUnLCAnPG91dGZpbGUubWFlPic=

> <r_lp_tautomer_probability>
1

> <r_epik_Ionization_Penalty>
3.37009e-08

> <r_epik_Ionization_Penalty_Charging>
3.59856e-09

> <r_epik_Ionization_Penalty_Neutral>
3.01024e-08

> <r_epik_State_Penalty>
-0

> <r_epik_Charging_Adjusted_Penalty>
3.59856e-09

> <i_epik_Tot_Q>
0

> <i_epik_Tot_abs_Q>
0

> <r_epik_Metal_State_Penalty>
-0

> <b_epik_Metal_Only>
0

> <s_epik_Chemistry_Notes>
This compound contains an acetal/aminal-like group ( X-CH(R)-Y where X, Y are N, S, or O) that may be acid/base labile, releasing an aldehyde.

> <s_lp_Force_Field>
OPLS_2005

> <r_lp_Energy>
32.1562

> <b_lp_Chiralities_Consistent>
1

> <s_lp_Variant>
AV-unprocessed.smi:94-2

> <Gold.Version>
5.8.1

> <Gold.Id.Protein>
6NUR|6NUR_protein|mol2

> <Gold.PLP.Fitness>
49.1272

> <Gold.PLP.PLP>
-44.2753

> <Gold.PLP.part.hbond>
-2.2843

> <Gold.PLP.part.metal>
0.0000

> <Gold.PLP.part.buried>
-7.3710

> <Gold.PLP.part.nonpolar>
-34.7918

> <Gold.PLP.part.repulsive>
0.0893

> <Gold.PLP.ligand.clash>
0.0000

> <Gold.PLP.ligand.torsion>
0.6864

> <Gold.PLP.Chemscore.Hbond>
2.0000

> <Gold.PLP.Chemscore.CHOScore>
0.0000

> <Gold.PLP.Chemscore.Metal>
0.0000

> <Gold.Chemscore.Hbonds>
donor molecule, donor type, donor heavy atom, donor atom, acceptor molecule, acceptor atom, score
      P1  H  6931  6943       L1    29  0.94
      P1  H  7997  8010       L1     2  0.91

> <Gold.PLP.Chemscore.Internal.Correction>
0.2246

> <Gold.Rescore>
     Score         DG    S(hbond)    S(metal)    S(lipo)     H(rot)  DE(clash)    DE(int)     intcor
     15.35     -16.39       1.38        0.00     105.03       2.34       0.00       1.04       ----

> <Gold.Chemscore.Fitness>
15.3539

> <Gold.Chemscore.DG>
-16.3905

> <Gold.Chemscore.ZeroCoef>
-5.4800

> <Gold.Chemscore.Hbond>
1.3785

> <Gold.Chemscore.Metal>
0.0000

> <Gold.Chemscore.Lipo>
105.0338

> <Gold.Chemscore.Internal_Hbond>
0.0000

> <Gold.Chemscore.DEClash>
0.0000

> <Gold.Chemscore.DEInternal>
1.0367

> <Gold.Chemscore.Rot>
2.3370

> <Gold.Chemscore.Internal.Correction>
   9.000000E+99

> <Gold.Chemscore.Hbonds>
donor molecule, donor type, donor heavy atom, donor atom, acceptor molecule, acceptor atom, score
      P1  H  6931  6943       L1    29  0.90
      P1  H  7997  8010       L1     2  0.14

> <Gold.Chemscore.Hbond.Weighted>
-4.6042

> <Gold.Chemscore.Metal.Weighted>
-0.0000

> <Gold.Chemscore.Lipo.Weighted>
-12.2890

> <Gold.Chemscore.Internal_Hbond.Weighted>
0.0000

> <Gold.Chemscore.DEClash.Weighted>
0.0000

> <Gold.Chemscore.DEInternal.Weighted>
1.0367

> <Gold.Chemscore.Rot.Weighted>
5.9827

> <Gold.Chemscore.Internal.Correction.Weighted>
   9.000000E+99

> <Gold.Protein.RotatedTorsions>
[ 6907 6896 6895 6894 ] final -101.59 input  -60.11 | X-H torsion
[ 7974 7965 7964 7962 ] final -126.50 input  175.53 | X-H torsion
[ 8008 7997 7996 7995 ] final   32.93 input   59.86 | X-H torsion
[ 10167 10162 10161 10158 ] final  -67.01 input  -65.29 | X-H torsion
[ 10718 10713 10712 10709 ] final  -75.51 input   66.30 | X-H torsion
[ 10763 10752 10751 10750 ] final   -8.47 input  -60.55 | X-H torsion
[ 11005 11000 10999 10996 ] final  -65.08 input  -57.11 | X-H torsion

> <Gold.Protein.ActiveResidues>
 VAL166  LYS551  ARG553  GLY616  TRP617  ASP618  TYR619  PRO620  LYS621  CYS622 
 ASP623  PHE694  ASN695  SER759  ASP760  ASP761  ALA762  ILE779  LEU786  VAL792 
 PHE793  MET794  SER795  GLU796  ALA797  LYS798  CYS799  TRP800  GLU811  SER814 

> <Gold.Protein.RotatedAtoms>
  150.7161  134.0710  159.3864 H   0  0  0  0  0  0  0  0  0  0  0  0  # atno 6907 bound_to 6896
  151.8693  135.0493  160.0487 H   0  0  0  0  0  0  0  0  0  0  0  0  # atno 6908 bound_to 6896
  152.2656  133.5300  159.5444 H   0  0  0  0  0  0  0  0  0  0  0  0  # atno 6909 bound_to 6896
  144.9867  140.7692  143.4579 H   0  0  0  0  0  0  0  0  0  0  0  0  # atno 7974 bound_to 7965
  155.1304  140.3256  155.4475 H   0  0  0  0  0  0  0  0  0  0  0  0  # atno 8008 bound_to 7997
  156.2636  140.2011  156.6372 H   0  0  0  0  0  0  0  0  0  0  0  0  # atno 8009 bound_to 7997
  154.6617  140.0546  157.0056 H   0  0  0  0  0  0  0  0  0  0  0  0  # atno 8010 bound_to 7997
  140.5614  143.2313  151.6720 H   0  0  0  0  0  0  0  0  0  0  0  0  # atno 10167 bound_to 10162
  156.0205  130.4442  150.3053 H   0  0  0  0  0  0  0  0  0  0  0  0  # atno 10718 bound_to 10713
  153.4409  135.7013  153.6169 H   0  0  0  0  0  0  0  0  0  0  0  0  # atno 10763 bound_to 10752
  153.4545  135.3750  155.2303 H   0  0  0  0  0  0  0  0  0  0  0  0  # atno 10764 bound_to 10752
  154.8727  135.4005  154.3807 H   0  0  0  0  0  0  0  0  0  0  0  0  # atno 10765 bound_to 10752
  141.1444  133.6676  156.5932 H   0  0  0  0  0  0  0  0  0  0  0  0  # atno 11005 bound_to 11000
  145.2344  139.2100  143.5026 LP  0  0  0  0  0  0  0  0  0  0  0  0  # atno 17320 bound_to 7965
  146.3421  140.2227  142.8592 LP  0  0  0  0  0  0  0  0  0  0  0  0  # atno 17321 bound_to 7965
  139.5072  144.3655  152.0521 LP  0  0  0  0  0  0  0  0  0  0  0  0  # atno 17342 bound_to 10162
  140.2781  144.3889  150.6128 LP  0  0  0  0  0  0  0  0  0  0  0  0  # atno 17343 bound_to 10162
  157.1156  131.0233  151.3030 LP  0  0  0  0  0  0  0  0  0  0  0  0  # atno 17370 bound_to 10713
  157.4670  130.7686  149.7288 LP  0  0  0  0  0  0  0  0  0  0  0  0  # atno 17371 bound_to 10713
  140.3746  134.7576  157.4621 LP  0  0  0  0  0  0  0  0  0  0  0  0  # atno 17394 bound_to 11000
  140.0684  134.5897  155.8669 LP  0  0  0  0  0  0  0  0  0  0  0  0  # atno 17395 bound_to 11000

$$$$
