AV-unprocessed.smi:3073|AV-procd|sdf|11720|dock2
  -GOLD-   2272017123D 1   1.00000     0.00000
 Structure written by MMmdl.
 24 25  0  0  0  0  0  0  0  0  2 V2000
  152.4682  143.5238  162.0902 C   0  0  0  0  0  0  0  0  0  0  0  0
  153.3462  142.4981  162.3313 C   0  0  0  0  0  0  0  0  0  0  0  0
  153.6424  141.5513  160.8991 S   0  0  0  0  0  0  0  0  0  0  0  0
  152.5441  142.6037  160.0116 C   0  0  0  0  0  0  0  0  0  0  0  0
  152.2359  142.4268  158.5582 C   0  0  1  0  0  0  0  0  0  0  0  0
  151.7508  141.0030  158.2272 C   0  0  0  0  0  0  0  0  0  0  0  0
  151.4491  140.8735  156.7263 C   0  0  0  0  0  0  0  0  0  0  0  0
  150.4697  141.9661  156.2656 C   0  0  0  0  0  0  0  0  0  0  0  0
  150.9972  143.3103  156.5861 N   0  3  0  0  0  0  0  0  0  0  0  0
  151.2629  143.5000  158.0294 C   0  0  0  0  0  0  0  0  0  0  0  0
  152.0199  143.5732  160.7681 N   0  0  0  0  0  0  0  0  0  0  0  0
  152.1108  144.2601  162.7951 H   0  0  0  0  0  0  0  0  0  0  0  0
  153.8341  142.2432  163.2606 H   0  0  0  0  0  0  0  0  0  0  0  0
  153.1794  142.5685  158.0284 H   0  0  0  0  0  0  0  0  0  0  0  0
  152.5014  140.2685  158.5218 H   0  0  0  0  0  0  0  0  0  0  0  0
  150.8498  140.7748  158.7984 H   0  0  0  0  0  0  0  0  0  0  0  0
  152.3771  140.9491  156.1576 H   0  0  0  0  0  0  0  0  0  0  0  0
  151.0356  139.8871  156.5130 H   0  0  0  0  0  0  0  0  0  0  0  0
  150.3039  141.8968  155.1905 H   0  0  0  0  0  0  0  0  0  0  0  0
  149.4997  141.8352  156.7474 H   0  0  0  0  0  0  0  0  0  0  0  0
  151.8610  143.4445  156.0800 H   0  0  0  0  0  0  0  0  0  0  0  0
  150.3167  143.4594  158.5707 H   0  0  0  0  0  0  0  0  0  0  0  0
  151.6756  144.4975  158.1831 H   0  0  0  0  0  0  0  0  0  0  0  0
  150.3306  144.0057  156.2820 H   0  0  0  0  0  0  0  0  0  0  0  0
  1 11  1  0  0  0  0
  1  2  2  0  0  0  0
  1 12  1  0  0  0  0
  2  3  1  0  0  0  0
  2 13  1  0  0  0  0
  3  4  1  0  0  0  0
  4  5  1  0  0  0  0
  4 11  2  0  0  0  0
  5 10  1  0  0  0  0
  5  6  1  0  0  0  0
  5 14  1  0  0  0  0
  6  7  1  0  0  0  0
  6 15  1  0  0  0  0
  6 16  1  0  0  0  0
  7  8  1  0  0  0  0
  7 17  1  0  0  0  0
  7 18  1  0  0  0  0
  8  9  1  0  0  0  0
  8 19  1  0  0  0  0
  8 20  1  0  0  0  0
  9 10  1  0  0  0  0
  9 21  1  0  0  0  0
  9 24  1  0  0  0  0
 10 22  1  0  0  0  0
 10 23  1  0  0  0  0
M  CHG  1   9   1
M  END
> <s_m_source_file>
AV-unprocessed.smi

> <i_m_source_file_index>
3073

> <i_lp_mmshare_version>
43012

> <i_f3d_flags>
0

> <s_epik_input>
bjFbY0hdW2NIXXNjMVtDQEBIXTJbQ0gyXVtDSDJdW0NIMl1bTkhdW0NIMl0y

> <s_epik_cmdline>
J2VwaWtfcHl0aG9uJywgJy1waCcsICc3LjAnLCAnLXRuJywgJzgnLCAnLW1hJywgJzIwMCcsICctbWV0YWxfYmluZGluZycsICctaW1hZScsICc8aW5maWxlLm1hZT4nLCAnLW9tYWUnLCAnPG91dGZpbGUubWFlPic=

> <r_lp_tautomer_probability>
1

> <r_epik_Ionization_Penalty>
0.00043192

> <r_epik_Ionization_Penalty_Charging>
0.000426856

> <r_epik_Ionization_Penalty_Neutral>
5.06388e-06

> <r_epik_State_Penalty>
-0

> <r_epik_Charging_Adjusted_Penalty>
0.000426856

> <i_epik_Tot_Q>
1

> <i_epik_Tot_abs_Q>
1

> <r_epik_Metal_State_Penalty>
-0

> <b_epik_Metal_Only>
0

> <s_lp_Force_Field>
OPLS_2005

> <r_lp_Energy>
4.76757

> <b_lp_Chiralities_Consistent>
1

> <s_lp_Variant>
AV-unprocessed.smi:3073-2

> <Gold.Version>
5.8.1

> <Gold.Id.Protein>
6NUR|6NUR_protein|mol2

> <Gold.PLP.Fitness>
35.9878

> <Gold.PLP.PLP>
-30.0153

> <Gold.PLP.part.hbond>
-1.0000

> <Gold.PLP.part.metal>
0.0000

> <Gold.PLP.part.buried>
-3.7359

> <Gold.PLP.part.nonpolar>
-25.2406

> <Gold.PLP.part.repulsive>
0.1501

> <Gold.PLP.ligand.clash>
0.0000

> <Gold.PLP.ligand.torsion>
0.0403

> <Gold.PLP.Chemscore.Hbond>
2.0000

> <Gold.PLP.Chemscore.CHOScore>
0.0000

> <Gold.PLP.Chemscore.Metal>
0.0000

> <Gold.Chemscore.Hbonds>
donor molecule, donor type, donor heavy atom, donor atom, acceptor molecule, acceptor atom, score
      L1  H     9    24       P1  8028  2.00

> <Gold.PLP.Chemscore.Internal.Correction>
0.0531

> <Gold.Rescore>
     Score         DG    S(hbond)    S(metal)    S(lipo)     H(rot)  DE(clash)    DE(int)     intcor
     16.32     -16.35       1.00        0.00      86.28       1.00       0.00       0.03       ----

> <Gold.Chemscore.Fitness>
16.3237

> <Gold.Chemscore.DG>
-16.3533

> <Gold.Chemscore.ZeroCoef>
-5.4800

> <Gold.Chemscore.Hbond>
0.9997

> <Gold.Chemscore.Metal>
0.0000

> <Gold.Chemscore.Lipo>
86.2763

> <Gold.Chemscore.Internal_Hbond>
0.0000

> <Gold.Chemscore.DEClash>
0.0029

> <Gold.Chemscore.DEInternal>
0.0267

> <Gold.Chemscore.Rot>
1.0000

> <Gold.Chemscore.Internal.Correction>
   9.000000E+99

> <Gold.Chemscore.Hbonds>
donor molecule, donor type, donor heavy atom, donor atom, acceptor molecule, acceptor atom, score
      L1  H     9    24       P1  8028  1.00

> <Gold.Chemscore.Hbond.Weighted>
-3.3390

> <Gold.Chemscore.Metal.Weighted>
-0.0000

> <Gold.Chemscore.Lipo.Weighted>
-10.0943

> <Gold.Chemscore.Internal_Hbond.Weighted>
0.0000

> <Gold.Chemscore.DEClash.Weighted>
0.0029

> <Gold.Chemscore.DEInternal.Weighted>
0.0267

> <Gold.Chemscore.Rot.Weighted>
2.5600

> <Gold.Chemscore.Internal.Correction.Weighted>
   9.000000E+99

> <Gold.Protein.RotatedTorsions>
[ 6907 6896 6895 6894 ] final  144.79 input  -60.11 | X-H torsion
[ 7974 7965 7964 7962 ] final  173.14 input  175.53 | X-H torsion
[ 8008 7997 7996 7995 ] final  -49.12 input   59.86 | X-H torsion
[ 10167 10162 10161 10158 ] final    5.58 input  -65.29 | X-H torsion
[ 10718 10713 10712 10709 ] final -106.34 input   66.30 | X-H torsion
[ 10763 10752 10751 10750 ] final  -15.13 input  -60.55 | X-H torsion
[ 11005 11000 10999 10996 ] final   27.07 input  -57.11 | X-H torsion

> <Gold.Protein.ActiveResidues>
 VAL166  LYS551  ARG553  GLY616  TRP617  ASP618  TYR619  PRO620  LYS621  CYS622 
 ASP623  PHE694  ASN695  SER759  ASP760  ASP761  ALA762  ILE779  LEU786  VAL792 
 PHE793  MET794  SER795  GLU796  ALA797  LYS798  CYS799  TRP800  GLU811  SER814 

> <Gold.Protein.RotatedAtoms>
  152.1891  133.4761  159.4998 H   0  0  0  0  0  0  0  0  0  0  0  0  # atno 6907 bound_to 6896
  150.6948  134.1735  159.4230 H   0  0  0  0  0  0  0  0  0  0  0  0  # atno 6908 bound_to 6896
  151.9649  135.0105  160.0600 H   0  0  0  0  0  0  0  0  0  0  0  0  # atno 6909 bound_to 6896
  144.7251  139.9603  143.6434 H   0  0  0  0  0  0  0  0  0  0  0  0  # atno 7974 bound_to 7965
  154.4039  140.1304  156.4451 H   0  0  0  0  0  0  0  0  0  0  0  0  # atno 8008 bound_to 7997
  155.7421  140.3489  155.5089 H   0  0  0  0  0  0  0  0  0  0  0  0  # atno 8009 bound_to 7997
  155.9029  140.1022  157.1327 H   0  0  0  0  0  0  0  0  0  0  0  0  # atno 8010 bound_to 7997
  140.6474  143.7628  150.7521 H   0  0  0  0  0  0  0  0  0  0  0  0  # atno 10167 bound_to 10162
  156.0386  130.5608  150.7667 H   0  0  0  0  0  0  0  0  0  0  0  0  # atno 10718 bound_to 10713
  153.5387  135.7013  153.5647 H   0  0  0  0  0  0  0  0  0  0  0  0  # atno 10763 bound_to 10752
  153.3623  135.3966  155.1727 H   0  0  0  0  0  0  0  0  0  0  0  0  # atno 10764 bound_to 10752
  154.8676  135.3791  154.4889 H   0  0  0  0  0  0  0  0  0  0  0  0  # atno 10765 bound_to 10752
  140.3302  134.2446  155.7703 H   0  0  0  0  0  0  0  0  0  0  0  0  # atno 11005 bound_to 11000
  146.0643  139.3634  143.0562 LP  0  0  0  0  0  0  0  0  0  0  0  0  # atno 17320 bound_to 7965
  145.8052  140.9752  143.0978 LP  0  0  0  0  0  0  0  0  0  0  0  0  # atno 17321 bound_to 7965
  140.1272  143.4559  152.2277 LP  0  0  0  0  0  0  0  0  0  0  0  0  # atno 17342 bound_to 10162
  139.5686  144.7450  151.3953 LP  0  0  0  0  0  0  0  0  0  0  0  0  # atno 17343 bound_to 10162
  157.5172  131.0929  151.0124 LP  0  0  0  0  0  0  0  0  0  0  0  0  # atno 17370 bound_to 10713
  157.0464  130.5769  149.5363 LP  0  0  0  0  0  0  0  0  0  0  0  0  # atno 17371 bound_to 10713
  141.2065  133.7831  157.0172 LP  0  0  0  0  0  0  0  0  0  0  0  0  # atno 17394 bound_to 11000
  140.0867  134.9616  157.1712 LP  0  0  0  0  0  0  0  0  0  0  0  0  # atno 17395 bound_to 11000

$$$$
