AV-unprocessed.smi:1418|AV-procd|sdf|5773|dock2
  -GOLD-   22720 5413D 1   1.00000     0.00000
 Structure written by MMmdl.
 39 41  0  0  0  0  0  0  0  0  1 V2000
  146.5549  140.4427  155.4146 O   0  0  0  0  0  0  0  0  0  0  0  0
  146.9574  141.5064  154.9439 C   0  0  0  0  0  0  0  0  0  0  0  0
  148.1606  141.5184  154.0002 C   0  0  0  0  0  0  0  0  0  0  0  0
  149.3814  141.0107  154.7145 C   0  0  0  0  0  0  0  0  0  0  0  0
  150.2165  139.9966  154.3096 C   0  0  0  0  0  0  0  0  0  0  0  0
  151.5137  139.7253  155.4395 S   0  0  0  0  0  0  0  0  0  0  0  0
  150.8732  141.0346  156.4369 C   0  0  0  0  0  0  0  0  0  0  0  0
  151.4210  141.5065  157.6672 N   0  0  0  0  0  0  0  0  0  0  0  0
  150.9708  142.7522  158.2814 C   0  0  0  0  0  0  0  0  0  0  0  0
  151.9338  143.0221  159.4427 C   0  0  0  0  0  0  0  0  0  0  0  0
  152.6753  141.7064  159.6670 C   0  0  0  0  0  0  0  0  0  0  0  0
  152.3571  140.9000  158.4185 C   0  0  0  0  0  0  0  0  0  0  0  0
  152.9186  139.8307  158.1848 O   0  0  0  0  0  0  0  0  0  0  0  0
  149.7726  141.5952  155.9236 N   0  0  0  0  0  0  0  0  0  0  0  0
  146.3820  142.6936  155.1918 N   0  0  0  0  0  0  0  0  0  0  0  0
  145.1679  142.8971  155.9724 C   0  0  0  0  0  0  0  0  0  0  0  0
  144.0715  143.5272  155.1169 C   0  0  0  0  0  0  0  0  0  0  0  0
  144.4447  144.5593  154.0425 C   0  0  0  0  0  0  0  0  0  0  0  0
  143.1290  145.2821  154.3436 C   0  0  0  0  0  0  0  0  0  0  0  0
  143.1466  144.6002  155.7138 C   0  0  0  0  0  0  0  0  0  0  0  0
  147.9496  140.9071  153.1218 H   0  0  0  0  0  0  0  0  0  0  0  0
  148.3133  142.5355  153.6368 H   0  0  0  0  0  0  0  0  0  0  0  0
  150.1417  139.3882  153.4205 H   0  0  0  0  0  0  0  0  0  0  0  0
  150.9748  143.5768  157.5672 H   0  0  0  0  0  0  0  0  0  0  0  0
  149.9508  142.6238  158.6463 H   0  0  0  0  0  0  0  0  0  0  0  0
  152.6426  143.8046  159.1686 H   0  0  0  0  0  0  0  0  0  0  0  0
  151.4068  143.3543  160.3377 H   0  0  0  0  0  0  0  0  0  0  0  0
  153.7493  141.8540  159.7846 H   0  0  0  0  0  0  0  0  0  0  0  0
  152.2956  141.1804  160.5434 H   0  0  0  0  0  0  0  0  0  0  0  0
  146.7892  143.5135  154.7658 H   0  0  0  0  0  0  0  0  0  0  0  0
  144.8285  141.9584  156.4134 H   0  0  0  0  0  0  0  0  0  0  0  0
  145.4132  143.5525  156.8083 H   0  0  0  0  0  0  0  0  0  0  0  0
  143.4540  142.7548  154.6530 H   0  0  0  0  0  0  0  0  0  0  0  0
  145.3209  145.1524  154.3096 H   0  0  0  0  0  0  0  0  0  0  0  0
  144.5244  144.1575  153.0320 H   0  0  0  0  0  0  0  0  0  0  0  0
  143.2007  146.3696  154.3728 H   0  0  0  0  0  0  0  0  0  0  0  0
  142.3048  144.9444  153.7136 H   0  0  0  0  0  0  0  0  0  0  0  0
  142.1800  144.2286  156.0555 H   0  0  0  0  0  0  0  0  0  0  0  0
  143.6365  145.2057  156.4780 H   0  0  0  0  0  0  0  0  0  0  0  0
  1  2  2  0  0  0  0
  2  3  1  0  0  0  0
  2 15  1  0  0  0  0
  3  4  1  0  0  0  0
  3 21  1  0  0  0  0
  3 22  1  0  0  0  0
  4 14  1  0  0  0  0
  4  5  2  0  0  0  0
  5  6  1  0  0  0  0
  5 23  1  0  0  0  0
  6  7  1  0  0  0  0
  7  8  1  0  0  0  0
  7 14  2  0  0  0  0
  8 12  1  0  0  0  0
  8  9  1  0  0  0  0
  9 10  1  0  0  0  0
  9 24  1  0  0  0  0
  9 25  1  0  0  0  0
 10 11  1  0  0  0  0
 10 26  1  0  0  0  0
 10 27  1  0  0  0  0
 11 12  1  0  0  0  0
 11 28  1  0  0  0  0
 11 29  1  0  0  0  0
 12 13  2  0  0  0  0
 15 16  1  0  0  0  0
 15 30  1  0  0  0  0
 16 17  1  0  0  0  0
 16 31  1  0  0  0  0
 16 32  1  0  0  0  0
 17 20  1  0  0  0  0
 17 18  1  0  0  0  0
 17 33  1  0  0  0  0
 18 19  1  0  0  0  0
 18 34  1  0  0  0  0
 18 35  1  0  0  0  0
 19 20  1  0  0  0  0
 19 36  1  0  0  0  0
 19 37  1  0  0  0  0
 20 38  1  0  0  0  0
 20 39  1  0  0  0  0
M  END
> <s_m_source_file>
AV-unprocessed.smi

> <i_m_source_file_index>
1418

> <i_lp_mmshare_version>
43012

> <i_f3d_flags>
0

> <s_epik_input>
W0NIMl0xW0NIMl1bQ0gyXVtDSF0xW0NIMl1bTkhdQyg9TylbQ0gyXWMyW2NIXXNjKG4yKU4zW0NIMl1bQ0gyXVtDSDJdQzM9Tw==

> <s_epik_cmdline>
J2VwaWtfcHl0aG9uJywgJy1waCcsICc3LjAnLCAnLXRuJywgJzgnLCAnLW1hJywgJzIwMCcsICctbWV0YWxfYmluZGluZycsICctaW1hZScsICc8aW5maWxlLm1hZT4nLCAnLW9tYWUnLCAnPG91dGZpbGUubWFlPic=

> <r_lp_tautomer_probability>
1

> <r_epik_Ionization_Penalty>
2.96456e-05

> <r_epik_Ionization_Penalty_Charging>
0

> <r_epik_Ionization_Penalty_Neutral>
2.96456e-05

> <r_epik_State_Penalty>
-0

> <r_epik_Charging_Adjusted_Penalty>
0

> <i_epik_Tot_Q>
0

> <i_epik_Tot_abs_Q>
0

> <r_epik_Metal_State_Penalty>
-0

> <b_epik_Metal_Only>
0

> <s_lp_Force_Field>
OPLS_2005

> <r_lp_Energy>
26.2197

> <b_lp_Chiralities_Consistent>
1

> <s_lp_Variant>
AV-unprocessed.smi:1418-1

> <Gold.Version>
5.8.1

> <Gold.Id.Protein>
6NUR|6NUR_protein|mol2

> <Gold.PLP.Fitness>
44.9757

> <Gold.PLP.PLP>
-40.7032

> <Gold.PLP.part.hbond>
-2.0000

> <Gold.PLP.part.metal>
0.0000

> <Gold.PLP.part.buried>
-2.4394

> <Gold.PLP.part.nonpolar>
-35.9370

> <Gold.PLP.part.repulsive>
0.2332

> <Gold.PLP.ligand.clash>
0.0000

> <Gold.PLP.ligand.torsion>
0.5187

> <Gold.PLP.Chemscore.Hbond>
1.0229

> <Gold.PLP.Chemscore.CHOScore>
0.7204

> <Gold.PLP.Chemscore.Metal>
0.0000

> <Gold.Chemscore.Hbonds>
donor molecule, donor type, donor heavy atom, donor atom, acceptor molecule, acceptor atom, score
      P1  H  7997  8009       L1    13  0.99
      L1  C     5    23       P1  7957  1.00

> <Gold.PLP.Chemscore.Internal.Correction>
0.0802

> <Gold.Rescore>
     Score         DG    S(hbond)    S(metal)    S(lipo)     H(rot)  DE(clash)    DE(int)     intcor
     13.45     -14.75       0.89        0.00      89.00       1.60       0.29       1.01       ----

> <Gold.Chemscore.Fitness>
13.4514

> <Gold.Chemscore.DG>
-14.7476

> <Gold.Chemscore.ZeroCoef>
-5.4800

> <Gold.Chemscore.Hbond>
0.8864

> <Gold.Chemscore.Metal>
0.0000

> <Gold.Chemscore.Lipo>
88.9963

> <Gold.Chemscore.Internal_Hbond>
0.0000

> <Gold.Chemscore.DEClash>
0.2890

> <Gold.Chemscore.DEInternal>
1.0071

> <Gold.Chemscore.Rot>
1.6038

> <Gold.Chemscore.Internal.Correction>
   9.000000E+99

> <Gold.Chemscore.Hbonds>
donor molecule, donor type, donor heavy atom, donor atom, acceptor molecule, acceptor atom, score
      P1  H  7997  8009       L1    13  0.75

> <Gold.Chemscore.Hbond.Weighted>
-2.9606

> <Gold.Chemscore.Metal.Weighted>
-0.0000

> <Gold.Chemscore.Lipo.Weighted>
-10.4126

> <Gold.Chemscore.Internal_Hbond.Weighted>
0.0000

> <Gold.Chemscore.DEClash.Weighted>
0.2890

> <Gold.Chemscore.DEInternal.Weighted>
1.0071

> <Gold.Chemscore.Rot.Weighted>
4.1056

> <Gold.Chemscore.Internal.Correction.Weighted>
   9.000000E+99

> <Gold.Protein.RotatedTorsions>
[ 6907 6896 6895 6894 ] final  -35.46 input  -60.11 | X-H torsion
[ 7974 7965 7964 7962 ] final  121.56 input  175.53 | X-H torsion
[ 8008 7997 7996 7995 ] final  159.25 input   59.86 | X-H torsion
[ 10167 10162 10161 10158 ] final -110.04 input  -65.29 | X-H torsion
[ 10718 10713 10712 10709 ] final  156.12 input   66.30 | X-H torsion
[ 10763 10752 10751 10750 ] final -137.64 input  -60.55 | X-H torsion
[ 11005 11000 10999 10996 ] final -126.26 input  -57.11 | X-H torsion

> <Gold.Protein.ActiveResidues>
 VAL166  LYS551  ARG553  GLY616  TRP617  ASP618  TYR619  PRO620  LYS621  CYS622 
 ASP623  PHE694  ASN695  SER759  ASP760  ASP761  ALA762  ILE779  LEU786  VAL792 
 PHE793  MET794  SER795  GLU796  ALA797  LYS798  CYS799  TRP800  GLU811  SER814 

> <Gold.Protein.RotatedAtoms>
  151.0395  134.9597  159.8153 H   0  0  0  0  0  0  0  0  0  0  0  0  # atno 6907 bound_to 6896
  152.5361  134.2676  159.8969 H   0  0  0  0  0  0  0  0  0  0  0  0  # atno 6908 bound_to 6896
  151.2688  133.4223  159.2654 H   0  0  0  0  0  0  0  0  0  0  0  0  # atno 6909 bound_to 6896
  145.1179  139.3409  143.4729 H   0  0  0  0  0  0  0  0  0  0  0  0  # atno 7974 bound_to 7965
  156.2251  140.1836  156.7383 H   0  0  0  0  0  0  0  0  0  0  0  0  # atno 8008 bound_to 7997
  154.5928  140.0648  156.9290 H   0  0  0  0  0  0  0  0  0  0  0  0  # atno 8009 bound_to 7997
  155.2308  140.3314  155.4306 H   0  0  0  0  0  0  0  0  0  0  0  0  # atno 8010 bound_to 7997
  140.1488  143.4216  152.1509 H   0  0  0  0  0  0  0  0  0  0  0  0  # atno 10167 bound_to 10162
  157.2093  131.0694  151.1979 H   0  0  0  0  0  0  0  0  0  0  0  0  # atno 10718 bound_to 10713
  154.8657  135.3636  154.5256 H   0  0  0  0  0  0  0  0  0  0  0  0  # atno 10763 bound_to 10752
  153.5884  135.7016  153.5438 H   0  0  0  0  0  0  0  0  0  0  0  0  # atno 10764 bound_to 10752
  153.3395  135.4102  155.1522 H   0  0  0  0  0  0  0  0  0  0  0  0  # atno 10765 bound_to 10752
  140.9695  134.0825  157.3884 H   0  0  0  0  0  0  0  0  0  0  0  0  # atno 11005 bound_to 11000
  146.3523  140.1125  142.8603 LP  0  0  0  0  0  0  0  0  0  0  0  0  # atno 17320 bound_to 7965
  145.0773  140.9197  143.4846 LP  0  0  0  0  0  0  0  0  0  0  0  0  # atno 17321 bound_to 7965
  139.5436  144.7278  151.4655 LP  0  0  0  0  0  0  0  0  0  0  0  0  # atno 17342 bound_to 10162
  140.6715  143.8283  150.7005 LP  0  0  0  0  0  0  0  0  0  0  0  0  # atno 17343 bound_to 10162
  157.3689  130.7170  149.6551 LP  0  0  0  0  0  0  0  0  0  0  0  0  # atno 17370 bound_to 10713
  155.9692  130.4204  150.4423 LP  0  0  0  0  0  0  0  0  0  0  0  0  # atno 17371 bound_to 10713
  139.8907  135.0114  156.6750 LP  0  0  0  0  0  0  0  0  0  0  0  0  # atno 17394 bound_to 11000
  140.7349  133.9027  155.8237 LP  0  0  0  0  0  0  0  0  0  0  0  0  # atno 17395 bound_to 11000

$$$$
