AV-unprocessed.smi:2357|AV-procd|sdf|9402|dock4
  -GOLD-   2272013 33D 1   1.00000     0.00000
 Structure written by MMmdl.
 37 38  0  0  0  0  0  0  0  0  1 V2000
  152.1272  143.9066  160.6339 C   0  0  0  0  0  0  0  0  0  0  0  0
  151.9755  142.9819  159.4404 C   0  0  0  0  0  0  0  0  0  0  0  0
  151.1238  143.3615  158.3325 C   0  0  0  0  0  0  0  0  0  0  0  0
  151.0010  142.5325  157.2853 C   0  0  0  0  0  0  0  0  0  0  0  0
  151.6760  141.3004  157.2280 N   0  0  0  0  0  0  0  0  0  0  0  0
  151.4674  140.4829  156.0208 C   0  0  0  0  0  0  0  0  0  0  0  0
  149.9874  140.2756  155.6662 C   0  0  0  0  0  0  0  0  0  0  0  0
  149.2999  139.4429  156.2597 O   0  0  0  0  0  0  0  0  0  0  0  0
  149.5092  141.0514  154.6819 N   0  0  0  0  0  0  0  0  0  0  0  0
  148.1416  141.0182  154.1761 C   0  0  0  0  0  0  0  0  0  0  0  0
  147.3198  142.2207  154.6704 C   0  0  1  0  0  0  0  0  0  0  0  0
  146.1789  142.6114  153.7361 C   0  0  0  0  0  0  0  0  0  0  0  0
  145.2862  143.4022  154.6662 C   0  0  0  0  0  0  0  0  0  0  0  0
  145.4488  142.6608  155.9938 C   0  0  0  0  0  0  0  0  0  0  0  0
  146.6619  141.9170  155.8954 O   0  0  0  0  0  0  0  0  0  0  0  0
  152.5000  140.8794  158.2344 C   0  0  0  0  0  0  0  0  0  0  0  0
  153.0953  139.8018  158.1754 O   0  0  0  0  0  0  0  0  0  0  0  0
  152.6261  141.7952  159.3798 C   0  0  0  0  0  0  0  0  0  0  0  0
  153.4842  141.3547  160.4322 C   0  0  0  0  0  0  0  0  0  0  0  0
  154.1852  141.0199  161.2906 N   0  0  0  0  0  0  0  0  0  0  0  0
  151.5194  144.8043  160.5171 H   0  0  0  0  0  0  0  0  0  0  0  0
  153.1671  144.2148  160.7467 H   0  0  0  0  0  0  0  0  0  0  0  0
  151.8143  143.4038  161.5496 H   0  0  0  0  0  0  0  0  0  0  0  0
  150.5943  144.3031  158.3417 H   0  0  0  0  0  0  0  0  0  0  0  0
  150.3874  142.7615  156.4260 H   0  0  0  0  0  0  0  0  0  0  0  0
  151.9741  140.9271  155.1622 H   0  0  0  0  0  0  0  0  0  0  0  0
  151.9334  139.5045  156.1490 H   0  0  0  0  0  0  0  0  0  0  0  0
  150.1394  141.7084  154.2450 H   0  0  0  0  0  0  0  0  0  0  0  0
  148.1551  140.9932  153.0853 H   0  0  0  0  0  0  0  0  0  0  0  0
  147.6769  140.0871  154.5013 H   0  0  0  0  0  0  0  0  0  0  0  0
  147.9614  143.0890  154.8303 H   0  0  0  0  0  0  0  0  0  0  0  0
  146.5137  143.1864  152.8722 H   0  0  0  0  0  0  0  0  0  0  0  0
  145.6542  141.7248  153.3771 H   0  0  0  0  0  0  0  0  0  0  0  0
  145.6612  144.4223  154.7601 H   0  0  0  0  0  0  0  0  0  0  0  0
  144.2507  143.4505  154.3280 H   0  0  0  0  0  0  0  0  0  0  0  0
  145.4805  143.3493  156.8387 H   0  0  0  0  0  0  0  0  0  0  0  0
  144.6254  141.9647  156.1554 H   0  0  0  0  0  0  0  0  0  0  0  0
  1  2  1  0  0  0  0
  1 21  1  0  0  0  0
  1 22  1  0  0  0  0
  1 23  1  0  0  0  0
  2 18  2  0  0  0  0
  2  3  1  0  0  0  0
  3  4  2  0  0  0  0
  3 24  1  0  0  0  0
  4  5  1  0  0  0  0
  4 25  1  0  0  0  0
  5  6  1  0  0  0  0
  5 16  1  0  0  0  0
  6  7  1  0  0  0  0
  6 26  1  0  0  0  0
  6 27  1  0  0  0  0
  7  8  2  0  0  0  0
  7  9  1  0  0  0  0
  9 10  1  0  0  0  0
  9 28  1  0  0  0  0
 10 11  1  0  0  0  0
 10 29  1  0  0  0  0
 10 30  1  0  0  0  0
 11 15  1  0  0  0  0
 11 12  1  0  0  0  0
 11 31  1  0  0  0  0
 12 13  1  0  0  0  0
 12 32  1  0  0  0  0
 12 33  1  0  0  0  0
 13 14  1  0  0  0  0
 13 34  1  0  0  0  0
 13 35  1  0  0  0  0
 14 15  1  0  0  0  0
 14 36  1  0  0  0  0
 14 37  1  0  0  0  0
 16 17  2  0  0  0  0
 16 18  1  0  0  0  0
 18 19  1  0  0  0  0
 19 20  3  0  0  0  0
M  END
> <s_m_source_file>
AV-unprocessed.smi

> <i_m_source_file_index>
2357

> <i_lp_mmshare_version>
43012

> <i_f3d_flags>
0

> <s_epik_input>
W0NIM11jMVtjSF1bY0hdbihjKD1PKWMxQyNOKVtDSDJdQyg9TylbTkhdW0NIMl1bQ0BASF0yW0NIMl1bQ0gyXVtDSDJdTzI=

> <s_epik_cmdline>
J2VwaWtfcHl0aG9uJywgJy1waCcsICc3LjAnLCAnLXRuJywgJzgnLCAnLW1hJywgJzIwMCcsICctbWV0YWxfYmluZGluZycsICctaW1hZScsICc8aW5maWxlLm1hZT4nLCAnLW9tYWUnLCAnPG91dGZpbGUubWFlPic=

> <r_lp_tautomer_probability>
1

> <r_epik_Ionization_Penalty>
2.71597e-08

> <r_epik_Ionization_Penalty_Charging>
3.00645e-10

> <r_epik_Ionization_Penalty_Neutral>
2.6859e-08

> <r_epik_State_Penalty>
-0

> <r_epik_Charging_Adjusted_Penalty>
3.00645e-10

> <i_epik_Tot_Q>
0

> <i_epik_Tot_abs_Q>
0

> <r_epik_Metal_State_Penalty>
-0

> <b_epik_Metal_Only>
0

> <s_lp_Force_Field>
OPLS_2005

> <r_lp_Energy>
27.3149

> <b_lp_Chiralities_Consistent>
1

> <s_lp_Variant>
AV-unprocessed.smi:2357-2

> <Gold.Version>
5.8.1

> <Gold.Id.Protein>
6NUR|6NUR_protein|mol2

> <Gold.PLP.Fitness>
45.9011

> <Gold.PLP.PLP>
-41.4697

> <Gold.PLP.part.hbond>
-1.3704

> <Gold.PLP.part.metal>
0.0000

> <Gold.PLP.part.buried>
-5.9549

> <Gold.PLP.part.nonpolar>
-34.0812

> <Gold.PLP.part.repulsive>
0.3133

> <Gold.PLP.ligand.clash>
0.0000

> <Gold.PLP.ligand.torsion>
0.7956

> <Gold.PLP.Chemscore.Hbond>
1.0000

> <Gold.PLP.Chemscore.CHOScore>
1.0000

> <Gold.PLP.Chemscore.Metal>
0.0000

> <Gold.Chemscore.Hbonds>
donor molecule, donor type, donor heavy atom, donor atom, acceptor molecule, acceptor atom, score
      P1  H  7997  8009       L1    17  1.00
      L1  C     4    25       P1  8028  0.87

> <Gold.PLP.Chemscore.Internal.Correction>
0.0227

> <Gold.Rescore>
     Score         DG    S(hbond)    S(metal)    S(lipo)     H(rot)  DE(clash)    DE(int)     intcor
     13.34     -14.10       0.94        0.00      85.25       1.76       0.04       0.71       ----

> <Gold.Chemscore.Fitness>
13.3423

> <Gold.Chemscore.DG>
-14.0952

> <Gold.Chemscore.ZeroCoef>
-5.4800

> <Gold.Chemscore.Hbond>
0.9403

> <Gold.Chemscore.Metal>
0.0000

> <Gold.Chemscore.Lipo>
85.2502

> <Gold.Chemscore.Internal_Hbond>
0.0000

> <Gold.Chemscore.DEClash>
0.0449

> <Gold.Chemscore.DEInternal>
0.7080

> <Gold.Chemscore.Rot>
1.7577

> <Gold.Chemscore.Internal.Correction>
   9.000000E+99

> <Gold.Chemscore.Hbonds>
donor molecule, donor type, donor heavy atom, donor atom, acceptor molecule, acceptor atom, score
      P1  H  7997  8009       L1    17  0.60

> <Gold.Chemscore.Hbond.Weighted>
-3.1407

> <Gold.Chemscore.Metal.Weighted>
-0.0000

> <Gold.Chemscore.Lipo.Weighted>
-9.9743

> <Gold.Chemscore.Internal_Hbond.Weighted>
0.0000

> <Gold.Chemscore.DEClash.Weighted>
0.0449

> <Gold.Chemscore.DEInternal.Weighted>
0.7080

> <Gold.Chemscore.Rot.Weighted>
4.4998

> <Gold.Chemscore.Internal.Correction.Weighted>
   9.000000E+99

> <Gold.Protein.RotatedTorsions>
[ 6907 6896 6895 6894 ] final -156.73 input  -60.11 | X-H torsion
[ 7974 7965 7964 7962 ] final  -64.81 input  175.53 | X-H torsion
[ 8008 7997 7996 7995 ] final  155.43 input   59.86 | X-H torsion
[ 10167 10162 10161 10158 ] final  154.84 input  -65.29 | X-H torsion
[ 10718 10713 10712 10709 ] final   61.01 input   66.30 | X-H torsion
[ 10763 10752 10751 10750 ] final  -19.64 input  -60.55 | X-H torsion
[ 11005 11000 10999 10996 ] final -172.35 input  -57.11 | X-H torsion

> <Gold.Protein.ActiveResidues>
 VAL166  LYS551  ARG553  GLY616  TRP617  ASP618  TYR619  PRO620  LYS621  CYS622 
 ASP623  PHE694  ASN695  SER759  ASP760  ASP761  ALA762  ILE779  LEU786  VAL792 
 PHE793  MET794  SER795  GLU796  ALA797  LYS798  CYS799  TRP800  GLU811  SER814 

> <Gold.Protein.RotatedAtoms>
  151.2921  133.4161  159.2633 H   0  0  0  0  0  0  0  0  0  0  0  0  # atno 6907 bound_to 6896
  151.0269  134.9511  159.8100 H   0  0  0  0  0  0  0  0  0  0  0  0  # atno 6908 bound_to 6896
  152.5337  134.2883  159.9086 H   0  0  0  0  0  0  0  0  0  0  0  0  # atno 6909 bound_to 6896
  145.7621  140.8856  143.0424 H   0  0  0  0  0  0  0  0  0  0  0  0  # atno 7974 bound_to 7965
  156.2478  140.1939  156.6800 H   0  0  0  0  0  0  0  0  0  0  0  0  # atno 8008 bound_to 7997
  154.6329  140.0593  156.9779 H   0  0  0  0  0  0  0  0  0  0  0  0  # atno 8009 bound_to 7997
  155.1683  140.3266  155.4400 H   0  0  0  0  0  0  0  0  0  0  0  0  # atno 8010 bound_to 7997
  139.4822  144.5151  151.7964 H   0  0  0  0  0  0  0  0  0  0  0  0  # atno 10167 bound_to 10162
  157.5796  130.8971  149.9407 H   0  0  0  0  0  0  0  0  0  0  0  0  # atno 10718 bound_to 10713
  153.6079  135.6997  153.5358 H   0  0  0  0  0  0  0  0  0  0  0  0  # atno 10763 bound_to 10752
  153.3042  135.4120  155.1278 H   0  0  0  0  0  0  0  0  0  0  0  0  # atno 10764 bound_to 10752
  154.8569  135.3656  154.5616 H   0  0  0  0  0  0  0  0  0  0  0  0  # atno 10765 bound_to 10752
  140.4980  134.5921  157.4978 H   0  0  0  0  0  0  0  0  0  0  0  0  # atno 11005 bound_to 11000
  144.6828  139.9737  143.7482 LP  0  0  0  0  0  0  0  0  0  0  0  0  # atno 17320 bound_to 7965
  146.0254  139.3287  143.0788 LP  0  0  0  0  0  0  0  0  0  0  0  0  # atno 17321 bound_to 7965
  140.4659  144.1656  150.5911 LP  0  0  0  0  0  0  0  0  0  0  0  0  # atno 17342 bound_to 10162
  140.4435  143.2516  151.9442 LP  0  0  0  0  0  0  0  0  0  0  0  0  # atno 17343 bound_to 10162
  156.0841  130.3670  150.0521 LP  0  0  0  0  0  0  0  0  0  0  0  0  # atno 17370 bound_to 10713
  156.8662  130.9509  151.3613 LP  0  0  0  0  0  0  0  0  0  0  0  0  # atno 17371 bound_to 10713
  139.9730  134.7262  156.0004 LP  0  0  0  0  0  0  0  0  0  0  0  0  # atno 17394 bound_to 11000
  141.1450  133.6557  156.3841 LP  0  0  0  0  0  0  0  0  0  0  0  0  # atno 17395 bound_to 11000

$$$$
