AV-unprocessed.smi:1830|AV-procd|sdf|7455|dock2
  -GOLD-   22720 9143D 1   1.00000     0.00000
 Structure written by MMmdl.
 53 56  0  0  0  0  0  0  0  0  2 V2000
  151.4826  135.6500  155.5583 O   0  0  0  0  0  0  0  0  0  0  0  0
  150.7627  135.9905  154.6200 C   0  0  0  0  0  0  0  0  0  0  0  0
  150.8051  137.2028  154.0504 N   0  0  0  0  0  0  0  0  0  0  0  0
  151.7071  138.2878  154.4286 C   0  0  0  0  0  0  0  0  0  0  0  0
  151.0884  139.2169  155.4885 C   0  0  1  0  0  0  0  0  0  0  0  0
  152.0145  139.4991  156.6974 C   0  0  0  0  0  0  0  0  0  0  0  0
  151.3785  140.4472  157.5909 N   0  0  0  0  0  0  0  0  0  0  0  0
  152.1466  140.8838  158.7338 C   0  0  0  0  0  0  0  0  0  0  0  0
  151.4128  142.1442  159.2247 C   0  0  0  0  0  0  0  0  0  0  0  0
  150.5853  142.6081  158.0054 C   0  0  0  0  0  0  0  0  0  0  0  0
  151.0580  141.6657  156.8971 C   0  0  2  0  0  0  0  0  0  0  0  0
  150.0920  141.3926  155.7348 C   0  0  0  0  0  0  0  0  0  0  0  0
  150.7078  140.4463  154.8569 O   0  0  0  0  0  0  0  0  0  0  0  0
  149.8328  135.2140  154.0395 N   0  0  0  0  0  0  0  0  0  0  0  0
  149.4519  133.8896  154.3964 C   0  0  0  0  0  0  0  0  0  0  0  0
  150.2350  133.1165  155.2922 C   0  0  0  0  0  0  0  0  0  0  0  0
  149.8726  131.7862  155.5748 C   0  0  0  0  0  0  0  0  0  0  0  0
  148.7415  131.2408  154.9442 C   0  0  0  0  0  0  0  0  0  0  0  0
  148.0255  131.9964  154.0862 N   0  3  0  0  0  0  0  0  0  0  0  0
  148.3141  133.2873  153.7846 C   0  0  0  0  0  0  0  0  0  0  0  0
  147.4658  133.9578  152.8741 N   0  0  0  0  0  0  0  0  0  0  0  0
  147.4661  133.5969  151.4610 C   0  0  0  0  0  0  0  0  0  0  0  0
  146.2143  134.2529  150.8850 C   0  0  0  0  0  0  0  0  0  0  0  0
  145.2262  134.1465  152.0427 C   0  0  0  0  0  0  0  0  0  0  0  0
  146.1069  134.2938  153.2884 C   0  0  0  0  0  0  0  0  0  0  0  0
  150.1773  137.3912  153.2826 H   0  0  0  0  0  0  0  0  0  0  0  0
  152.6191  137.8413  154.8254 H   0  0  0  0  0  0  0  0  0  0  0  0
  152.0118  138.8685  153.5565 H   0  0  0  0  0  0  0  0  0  0  0  0
  150.1775  138.7408  155.8562 H   0  0  0  0  0  0  0  0  0  0  0  0
  152.2326  138.5728  157.2298 H   0  0  0  0  0  0  0  0  0  0  0  0
  152.9692  139.9024  156.3583 H   0  0  0  0  0  0  0  0  0  0  0  0
  152.2081  140.1084  159.4978 H   0  0  0  0  0  0  0  0  0  0  0  0
  153.1623  141.1412  158.4291 H   0  0  0  0  0  0  0  0  0  0  0  0
  150.7554  141.9120  160.0632 H   0  0  0  0  0  0  0  0  0  0  0  0
  152.1195  142.9065  159.5538 H   0  0  0  0  0  0  0  0  0  0  0  0
  149.5204  142.4726  158.2000 H   0  0  0  0  0  0  0  0  0  0  0  0
  150.7547  143.6558  157.7554 H   0  0  0  0  0  0  0  0  0  0  0  0
  151.9760  142.0839  156.4783 H   0  0  0  0  0  0  0  0  0  0  0  0
  149.1404  140.9999  156.0965 H   0  0  0  0  0  0  0  0  0  0  0  0
  149.8794  142.3099  155.1855 H   0  0  0  0  0  0  0  0  0  0  0  0
  149.2601  135.6582  153.3366 H   0  0  0  0  0  0  0  0  0  0  0  0
  151.1258  133.5169  155.7522 H   0  0  0  0  0  0  0  0  0  0  0  0
  150.4626  131.1901  156.2557 H   0  0  0  0  0  0  0  0  0  0  0  0
  148.3923  130.2294  155.0939 H   0  0  0  0  0  0  0  0  0  0  0  0
  148.3711  133.9437  150.9613 H   0  0  0  0  0  0  0  0  0  0  0  0
  147.3993  132.5145  151.3427 H   0  0  0  0  0  0  0  0  0  0  0  0
  146.4116  135.3018  150.6592 H   0  0  0  0  0  0  0  0  0  0  0  0
  145.8608  133.7690  149.9741 H   0  0  0  0  0  0  0  0  0  0  0  0
  144.4317  134.8915  151.9950 H   0  0  0  0  0  0  0  0  0  0  0  0
  144.7615  133.1595  152.0361 H   0  0  0  0  0  0  0  0  0  0  0  0
  145.7544  133.6569  154.1009 H   0  0  0  0  0  0  0  0  0  0  0  0
  146.0908  135.3275  153.6349 H   0  0  0  0  0  0  0  0  0  0  0  0
  147.2110  131.5713  153.6428 H   0  0  0  0  0  0  0  0  0  0  0  0
  1  2  2  0  0  0  0
  2  3  1  0  0  0  0
  2 14  1  0  0  0  0
  3  4  1  0  0  0  0
  3 26  1  0  0  0  0
  4  5  1  0  0  0  0
  4 27  1  0  0  0  0
  4 28  1  0  0  0  0
  5 13  1  0  0  0  0
  5  6  1  0  0  0  0
  5 29  1  0  0  0  0
  6  7  1  0  0  0  0
  6 30  1  0  0  0  0
  6 31  1  0  0  0  0
  7 11  1  0  0  0  0
  7  8  1  0  0  0  0
  8  9  1  0  0  0  0
  8 32  1  0  0  0  0
  8 33  1  0  0  0  0
  9 10  1  0  0  0  0
  9 34  1  0  0  0  0
  9 35  1  0  0  0  0
 10 11  1  0  0  0  0
 10 36  1  0  0  0  0
 10 37  1  0  0  0  0
 11 12  1  0  0  0  0
 11 38  1  0  0  0  0
 12 13  1  0  0  0  0
 12 39  1  0  0  0  0
 12 40  1  0  0  0  0
 14 15  1  0  0  0  0
 14 41  1  0  0  0  0
 15 20  1  0  0  0  0
 15 16  2  0  0  0  0
 16 17  1  0  0  0  0
 16 42  1  0  0  0  0
 17 18  2  0  0  0  0
 17 43  1  0  0  0  0
 18 19  1  0  0  0  0
 18 44  1  0  0  0  0
 19 20  2  0  0  0  0
 19 53  1  0  0  0  0
 20 21  1  0  0  0  0
 21 25  1  0  0  0  0
 21 22  1  0  0  0  0
 22 23  1  0  0  0  0
 22 45  1  0  0  0  0
 22 46  1  0  0  0  0
 23 24  1  0  0  0  0
 23 47  1  0  0  0  0
 23 48  1  0  0  0  0
 24 25  1  0  0  0  0
 24 49  1  0  0  0  0
 24 50  1  0  0  0  0
 25 51  1  0  0  0  0
 25 52  1  0  0  0  0
M  CHG  1  19   1
M  END
> <s_m_source_file>
AV-unprocessed.smi

> <i_m_source_file_index>
1830

> <i_lp_mmshare_version>
43012

> <i_f3d_flags>
0

> <s_epik_input>
W0NIMl0xW0NIMl1bQ0gyXVtDQEhdKE4xMilbQ0gyXU9bQ0BASF0oW0NIMl0yKVtDSDJdW05IXUMoPU8pW05IXWMzW2NIXVtjSF1bY0hdbmMzTjRbQ0gyXVtDSDJdW0NIMl1bQ0gyXTQ=

> <s_epik_cmdline>
J2VwaWtfcHl0aG9uJywgJy1waCcsICc3LjAnLCAnLXRuJywgJzgnLCAnLW1hJywgJzIwMCcsICctbWV0YWxfYmluZGluZycsICctaW1hZScsICc8aW5maWxlLm1hZT4nLCAnLW9tYWUnLCAnPG91dGZpbGUubWFlPic=

> <r_epik_Ionization_Penalty>
2.19264

> <r_epik_Ionization_Penalty_Charging>
1.12452

> <r_epik_Ionization_Penalty_Neutral>
1.06812

> <r_epik_State_Penalty>
2.334

> <r_epik_Charging_Adjusted_Penalty>
3.45852

> <i_epik_Tot_Q>
1

> <i_epik_Tot_abs_Q>
1

> <r_epik_Metal_State_Penalty>
2.41144

> <b_epik_Metal_Only>
0

> <s_lp_Force_Field>
OPLS_2005

> <r_lp_Energy>
84.0052

> <b_lp_Chiralities_Consistent>
1

> <s_lp_Variant>
AV-unprocessed.smi:1830-24

> <Gold.Version>
5.8.1

> <Gold.Id.Protein>
6NUR|6NUR_protein|mol2

> <Gold.PLP.Fitness>
50.3377

> <Gold.PLP.PLP>
-40.8834

> <Gold.PLP.part.hbond>
-5.6739

> <Gold.PLP.part.metal>
0.0000

> <Gold.PLP.part.buried>
-2.9790

> <Gold.PLP.part.nonpolar>
-32.2643

> <Gold.PLP.part.repulsive>
0.4334

> <Gold.PLP.ligand.clash>
0.0000

> <Gold.PLP.ligand.torsion>
1.0734

> <Gold.PLP.Chemscore.Hbond>
3.7295

> <Gold.PLP.Chemscore.CHOScore>
0.0000

> <Gold.PLP.Chemscore.Metal>
0.0000

> <Gold.Chemscore.Hbonds>
donor molecule, donor type, donor heavy atom, donor atom, acceptor molecule, acceptor atom, score
      L1  H     3    26       P1  7948  0.44
      L1  H    14    41       P1  7948  1.00
      P1  H  7989  7998       L1    13  1.00
      P1  H 10752 10764       L1     1  1.00

> <Gold.PLP.Chemscore.Internal.Correction>
0.4126

> <Gold.Rescore>
     Score         DG    S(hbond)    S(metal)    S(lipo)     H(rot)  DE(clash)    DE(int)     intcor
     18.70     -22.08       2.75        0.00      93.91       1.40       0.89       2.49       ----

> <Gold.Chemscore.Fitness>
18.6997

> <Gold.Chemscore.DG>
-22.0783

> <Gold.Chemscore.ZeroCoef>
-5.4800

> <Gold.Chemscore.Hbond>
2.7498

> <Gold.Chemscore.Metal>
0.0000

> <Gold.Chemscore.Lipo>
93.9110

> <Gold.Chemscore.Internal_Hbond>
0.0000

> <Gold.Chemscore.DEClash>
0.8860

> <Gold.Chemscore.DEInternal>
2.4927

> <Gold.Chemscore.Rot>
1.3959

> <Gold.Chemscore.Internal.Correction>
   9.000000E+99

> <Gold.Chemscore.Hbonds>
donor molecule, donor type, donor heavy atom, donor atom, acceptor molecule, acceptor atom, score
      L1  H     3    26       P1  7948  0.07
      L1  H    14    41       P1  7948  0.37
      P1  H  7989  7998       L1    13  0.90
      P1  H 10752 10764       L1     1  0.30

> <Gold.Chemscore.Hbond.Weighted>
-9.1844

> <Gold.Chemscore.Metal.Weighted>
-0.0000

> <Gold.Chemscore.Lipo.Weighted>
-10.9876

> <Gold.Chemscore.Internal_Hbond.Weighted>
0.0000

> <Gold.Chemscore.DEClash.Weighted>
0.8860

> <Gold.Chemscore.DEInternal.Weighted>
2.4927

> <Gold.Chemscore.Rot.Weighted>
3.5736

> <Gold.Chemscore.Internal.Correction.Weighted>
   9.000000E+99

> <Gold.Protein.RotatedTorsions>
[ 6907 6896 6895 6894 ] final  -79.44 input  -60.11 | X-H torsion
[ 7974 7965 7964 7962 ] final  -90.12 input  175.53 | X-H torsion
[ 8008 7997 7996 7995 ] final -101.88 input   59.86 | X-H torsion
[ 10167 10162 10161 10158 ] final   54.48 input  -65.29 | X-H torsion
[ 10718 10713 10712 10709 ] final  -62.96 input   66.30 | X-H torsion
[ 10763 10752 10751 10750 ] final  -48.30 input  -60.55 | X-H torsion
[ 11005 11000 10999 10996 ] final -127.96 input  -57.11 | X-H torsion

> <Gold.Protein.ActiveResidues>
 VAL166  LYS551  ARG553  GLY616  TRP617  ASP618  TYR619  PRO620  LYS621  CYS622 
 ASP623  PHE694  ASN695  SER759  ASP760  ASP761  ALA762  ILE779  LEU786  VAL792 
 PHE793  MET794  SER795  GLU796  ALA797  LYS798  CYS799  TRP800  GLU811  SER814 

> <Gold.Protein.RotatedAtoms>
  150.6950  134.4121  159.5166 H   0  0  0  0  0  0  0  0  0  0  0  0  # atno 6907 bound_to 6896
  152.1878  134.8696  160.0529 H   0  0  0  0  0  0  0  0  0  0  0  0  # atno 6908 bound_to 6896
  151.9662  133.3676  159.4091 H   0  0  0  0  0  0  0  0  0  0  0  0  # atno 6909 bound_to 6896
  145.4307  140.9555  143.2130 H   0  0  0  0  0  0  0  0  0  0  0  0  # atno 7974 bound_to 7965
  154.8488  140.0431  157.1590 H   0  0  0  0  0  0  0  0  0  0  0  0  # atno 8008 bound_to 7997
  154.8965  140.2994  155.5321 H   0  0  0  0  0  0  0  0  0  0  0  0  # atno 8009 bound_to 7997
  156.2995  140.2384  156.3987 H   0  0  0  0  0  0  0  0  0  0  0  0  # atno 8010 bound_to 7997
  140.2297  144.3700  150.6419 H   0  0  0  0  0  0  0  0  0  0  0  0  # atno 10167 bound_to 10162
  156.0822  130.4215  150.1208 H   0  0  0  0  0  0  0  0  0  0  0  0  # atno 10718 bound_to 10713
  154.0755  135.6598  153.4830 H   0  0  0  0  0  0  0  0  0  0  0  0  # atno 10763 bound_to 10752
  153.0375  135.5167  154.7525 H   0  0  0  0  0  0  0  0  0  0  0  0  # atno 10764 bound_to 10752
  154.6604  135.3014  154.9841 H   0  0  0  0  0  0  0  0  0  0  0  0  # atno 10765 bound_to 10752
  140.9556  134.1006  157.4019 H   0  0  0  0  0  0  0  0  0  0  0  0  # atno 11005 bound_to 11000
  144.8185  139.5834  143.6997 LP  0  0  0  0  0  0  0  0  0  0  0  0  # atno 17320 bound_to 7965
  146.2609  139.6407  142.9363 LP  0  0  0  0  0  0  0  0  0  0  0  0  # atno 17321 bound_to 7965
  140.6194  143.2175  151.6725 LP  0  0  0  0  0  0  0  0  0  0  0  0  # atno 17342 bound_to 10162
  139.5114  144.3509  152.0653 LP  0  0  0  0  0  0  0  0  0  0  0  0  # atno 17343 bound_to 10162
  156.9237  130.9691  151.3544 LP  0  0  0  0  0  0  0  0  0  0  0  0  # atno 17370 bound_to 10713
  157.5943  130.8466  149.8705 LP  0  0  0  0  0  0  0  0  0  0  0  0  # atno 17371 bound_to 10713
  139.8861  135.0078  156.6477 LP  0  0  0  0  0  0  0  0  0  0  0  0  # atno 17394 bound_to 11000
  140.7541  133.8873  155.8369 LP  0  0  0  0  0  0  0  0  0  0  0  0  # atno 17395 bound_to 11000

$$$$
