AV-unprocessed.smi:852|AV-procd|sdf|3951|dock3
  -GOLD-   22720 1423D 1   1.00000     0.00000
 Structure written by MMmdl.
 30 31  0  0  0  0  0  0  0  0  1 V2000
  152.7651  144.5147  157.9601 C   0  0  0  0  0  0  0  0  0  0  0  0
  151.8560  143.3982  158.5118 C   0  0  1  0  0  0  0  0  0  0  0  0
  150.9278  143.9767  159.5063 C   0  0  0  0  0  0  0  0  0  0  0  0
  150.2013  144.4302  160.2851 N   0  0  0  0  0  0  0  0  0  0  0  0
  151.1128  142.7903  157.4053 N   0  0  0  0  0  0  0  0  0  0  0  0
  149.9801  142.0702  157.4810 C   0  0  0  0  0  0  0  0  0  0  0  0
  149.3930  141.8282  158.5346 O   0  0  0  0  0  0  0  0  0  0  0  0
  149.4180  141.5464  156.1592 C   0  0  0  0  0  0  0  0  0  0  0  0
  150.2772  140.5195  155.5991 N   0  0  0  0  0  0  0  0  0  0  0  0
  150.4868  140.1594  154.3281 C   0  0  0  0  0  0  0  0  0  0  0  0
  151.3505  139.1617  154.1852 N   0  0  0  0  0  0  0  0  0  0  0  0
  151.6476  138.9489  155.5002 C   0  0  0  0  0  0  0  0  0  0  0  0
  152.5872  137.9187  155.9096 C   0  0  0  0  0  0  0  0  0  0  0  0
  153.3353  137.0981  156.2356 N   0  0  0  0  0  0  0  0  0  0  0  0
  151.0398  139.7280  156.3925 N   0  0  0  0  0  0  0  0  0  0  0  0
  152.7375  142.3491  159.1867 C   0  0  0  0  0  0  0  0  0  0  0  0
  152.1728  141.1831  159.9675 C   0  0  0  0  0  0  0  0  0  0  0  0
  152.9205  142.2842  160.6872 C   0  0  0  0  0  0  0  0  0  0  0  0
  153.3702  144.9537  158.7543 H   0  0  0  0  0  0  0  0  0  0  0  0
  152.1904  145.3258  157.5123 H   0  0  0  0  0  0  0  0  0  0  0  0
  153.4477  144.1336  157.1993 H   0  0  0  0  0  0  0  0  0  0  0  0
  151.5092  142.9241  156.4865 H   0  0  0  0  0  0  0  0  0  0  0  0
  148.4202  141.1292  156.3028 H   0  0  0  0  0  0  0  0  0  0  0  0
  149.3225  142.3688  155.4482 H   0  0  0  0  0  0  0  0  0  0  0  0
  149.9965  140.6361  153.4919 H   0  0  0  0  0  0  0  0  0  0  0  0
  153.6323  142.1224  158.6094 H   0  0  0  0  0  0  0  0  0  0  0  0
  151.0956  141.1289  160.1113 H   0  0  0  0  0  0  0  0  0  0  0  0
  152.6733  140.2227  159.8628 H   0  0  0  0  0  0  0  0  0  0  0  0
  153.9161  142.0533  161.0603 H   0  0  0  0  0  0  0  0  0  0  0  0
  152.3398  142.9625  161.3087 H   0  0  0  0  0  0  0  0  0  0  0  0
  1  2  1  0  0  0  0
  1 19  1  0  0  0  0
  1 20  1  0  0  0  0
  1 21  1  0  0  0  0
  2  3  1  0  0  0  0
  2  5  1  0  0  0  0
  2 16  1  0  0  0  0
  3  4  3  0  0  0  0
  5  6  1  0  0  0  0
  5 22  1  0  0  0  0
  6  7  2  0  0  0  0
  6  8  1  0  0  0  0
  8  9  1  0  0  0  0
  8 23  1  0  0  0  0
  8 24  1  0  0  0  0
  9 15  1  0  0  0  0
  9 10  1  0  0  0  0
 10 11  2  0  0  0  0
 10 25  1  0  0  0  0
 11 12  1  0  0  0  0
 12 13  1  0  0  0  0
 12 15  2  0  0  0  0
 13 14  3  0  0  0  0
 16 18  1  0  0  0  0
 16 17  1  0  0  0  0
 16 26  1  0  0  0  0
 17 18  1  0  0  0  0
 17 27  1  0  0  0  0
 17 28  1  0  0  0  0
 18 29  1  0  0  0  0
 18 30  1  0  0  0  0
M  END
> <s_m_source_file>
AV-unprocessed.smi

> <i_m_source_file_index>
852

> <i_lp_mmshare_version>
43012

> <i_f3d_flags>
0

> <s_epik_input>
W0NIMl0xW0NIMl1bQ0hdMVtDQF0oW0NIM10pKEMjTilbTkhdQyg9TylbQ0gyXW4yW2NIXW5jKG4yKUMjTg==

> <s_epik_cmdline>
J2VwaWtfcHl0aG9uJywgJy1waCcsICc3LjAnLCAnLXRuJywgJzgnLCAnLW1hJywgJzIwMCcsICctbWV0YWxfYmluZGluZycsICctaW1hZScsICc8aW5maWxlLm1hZT4nLCAnLW9tYWUnLCAnPG91dGZpbGUubWFlPic=

> <r_lp_tautomer_probability>
1

> <r_epik_Ionization_Penalty>
2.64294e-06

> <r_epik_Ionization_Penalty_Charging>
0

> <r_epik_Ionization_Penalty_Neutral>
2.64294e-06

> <r_epik_State_Penalty>
-0

> <r_epik_Charging_Adjusted_Penalty>
0

> <i_epik_Tot_Q>
0

> <i_epik_Tot_abs_Q>
0

> <r_epik_Metal_State_Penalty>
-0

> <b_epik_Metal_Only>
0

> <s_lp_Force_Field>
OPLS_2005

> <r_lp_Energy>
16.8811

> <b_lp_Chiralities_Consistent>
1

> <s_lp_Variant>
AV-unprocessed.smi:852-1

> <Gold.Version>
5.8.1

> <Gold.Id.Protein>
6NUR|6NUR_protein|mol2

> <Gold.PLP.Fitness>
36.3394

> <Gold.PLP.PLP>
-33.7821

> <Gold.PLP.part.hbond>
-2.4962

> <Gold.PLP.part.metal>
0.0000

> <Gold.PLP.part.buried>
-1.0691

> <Gold.PLP.part.nonpolar>
-30.9029

> <Gold.PLP.part.repulsive>
0.4176

> <Gold.PLP.ligand.clash>
0.0000

> <Gold.PLP.ligand.torsion>
1.7689

> <Gold.PLP.Chemscore.Hbond>
0.5242

> <Gold.PLP.Chemscore.CHOScore>
1.0000

> <Gold.PLP.Chemscore.Metal>
0.0000

> <Gold.Chemscore.Hbonds>
donor molecule, donor type, donor heavy atom, donor atom, acceptor molecule, acceptor atom, score
      P1  H 10752 10765       L1    14  0.61
      L1  C    10    25       P1  7957  1.00

> <Gold.PLP.Chemscore.Internal.Correction>
1.5225

> <Gold.Rescore>
     Score         DG    S(hbond)    S(metal)    S(lipo)     H(rot)  DE(clash)    DE(int)     intcor
      5.57      -9.32       0.90        0.00      60.84       2.46       0.02       3.74       ----

> <Gold.Chemscore.Fitness>
5.5683

> <Gold.Chemscore.DG>
-9.3243

> <Gold.Chemscore.ZeroCoef>
-5.4800

> <Gold.Chemscore.Hbond>
0.9029

> <Gold.Chemscore.Metal>
0.0000

> <Gold.Chemscore.Lipo>
60.8435

> <Gold.Chemscore.Internal_Hbond>
0.0000

> <Gold.Chemscore.DEClash>
0.0208

> <Gold.Chemscore.DEInternal>
3.7352

> <Gold.Chemscore.Rot>
2.4571

> <Gold.Chemscore.Internal.Correction>
   9.000000E+99

> <Gold.Chemscore.Hbonds>
donor molecule, donor type, donor heavy atom, donor atom, acceptor molecule, acceptor atom, score
      P1  H 10752 10765       L1    14  0.61

> <Gold.Chemscore.Hbond.Weighted>
-3.0157

> <Gold.Chemscore.Metal.Weighted>
-0.0000

> <Gold.Chemscore.Lipo.Weighted>
-7.1187

> <Gold.Chemscore.Internal_Hbond.Weighted>
0.0000

> <Gold.Chemscore.DEClash.Weighted>
0.0208

> <Gold.Chemscore.DEInternal.Weighted>
3.7352

> <Gold.Chemscore.Rot.Weighted>
6.2901

> <Gold.Chemscore.Internal.Correction.Weighted>
   9.000000E+99

> <Gold.Protein.RotatedTorsions>
[ 6907 6896 6895 6894 ] final -103.27 input  -60.11 | X-H torsion
[ 7974 7965 7964 7962 ] final   51.86 input  175.53 | X-H torsion
[ 8008 7997 7996 7995 ] final  179.36 input   59.86 | X-H torsion
[ 10167 10162 10161 10158 ] final   12.53 input  -65.29 | X-H torsion
[ 10718 10713 10712 10709 ] final -114.62 input   66.30 | X-H torsion
[ 10763 10752 10751 10750 ] final -123.38 input  -60.55 | X-H torsion
[ 11005 11000 10999 10996 ] final   34.74 input  -57.11 | X-H torsion

> <Gold.Protein.ActiveResidues>
 VAL166  LYS551  ARG553  GLY616  TRP617  ASP618  TYR619  PRO620  LYS621  CYS622 
 ASP623  PHE694  ASN695  SER759  ASP760  ASP761  ALA762  ILE779  LEU786  VAL792 
 PHE793  MET794  SER795  GLU796  ALA797  LYS798  CYS799  TRP800  GLU811  SER814 

> <Gold.Protein.RotatedAtoms>
  150.7233  134.0455  159.3779 H   0  0  0  0  0  0  0  0  0  0  0  0  # atno 6907 bound_to 6896
  151.8430  135.0581  160.0459 H   0  0  0  0  0  0  0  0  0  0  0  0  # atno 6908 bound_to 6896
  152.2848  133.5469  159.5557 H   0  0  0  0  0  0  0  0  0  0  0  0  # atno 6909 bound_to 6896
  145.9871  139.4301  143.0096 H   0  0  0  0  0  0  0  0  0  0  0  0  # atno 7974 bound_to 7965
  156.0443  140.1310  157.0121 H   0  0  0  0  0  0  0  0  0  0  0  0  # atno 8008 bound_to 7997
  154.4405  140.1024  156.6353 H   0  0  0  0  0  0  0  0  0  0  0  0  # atno 8009 bound_to 7997
  155.5620  140.3465  155.4496 H   0  0  0  0  0  0  0  0  0  0  0  0  # atno 8010 bound_to 7997
  140.6062  143.8504  150.7016 H   0  0  0  0  0  0  0  0  0  0  0  0  # atno 10167 bound_to 10162
  156.0842  130.6036  150.8798 H   0  0  0  0  0  0  0  0  0  0  0  0  # atno 10718 bound_to 10713
  154.8707  135.4100  154.2934 H   0  0  0  0  0  0  0  0  0  0  0  0  # atno 10763 bound_to 10752
  153.3806  135.7011  153.6573 H   0  0  0  0  0  0  0  0  0  0  0  0  # atno 10764 bound_to 10752
  153.5397  135.3650  155.2684 H   0  0  0  0  0  0  0  0  0  0  0  0  # atno 10765 bound_to 10752
  140.2498  134.3317  155.7894 H   0  0  0  0  0  0  0  0  0  0  0  0  # atno 11005 bound_to 11000
  145.7685  140.9906  143.1162 LP  0  0  0  0  0  0  0  0  0  0  0  0  # atno 17320 bound_to 7965
  144.6878  139.9417  143.7475 LP  0  0  0  0  0  0  0  0  0  0  0  0  # atno 17321 bound_to 7965
  140.2061  143.3920  152.1754 LP  0  0  0  0  0  0  0  0  0  0  0  0  # atno 17342 bound_to 10162
  139.5326  144.7176  151.5002 LP  0  0  0  0  0  0  0  0  0  0  0  0  # atno 17343 bound_to 10162
  157.5970  131.0942  150.9025 LP  0  0  0  0  0  0  0  0  0  0  0  0  # atno 17370 bound_to 10713
  156.9189  130.5308  149.5279 LP  0  0  0  0  0  0  0  0  0  0  0  0  # atno 17371 bound_to 10713
  141.2202  133.7347  156.9019 LP  0  0  0  0  0  0  0  0  0  0  0  0  # atno 17394 bound_to 11000
  140.1569  134.9192  157.2665 LP  0  0  0  0  0  0  0  0  0  0  0  0  # atno 17395 bound_to 11000

$$$$
