AV-unprocessed.smi:1978|AV-procd|sdf|7999|dock9
  -GOLD-   2272010183D 1   1.00000     0.00000
 Structure written by MMmdl.
 45 46  0  0  0  0  0  0  0  0  2 V2000
  153.5860  142.3294  160.9333 C   0  0  0  0  0  0  0  0  0  0  0  0
  152.6414  142.7789  159.8718 C   0  0  0  0  0  0  0  0  0  0  0  0
  151.6125  142.1602  159.2188 C   0  0  0  0  0  0  0  0  0  0  0  0
  151.1415  143.1687  158.3368 C   0  0  0  0  0  0  0  0  0  0  0  0
  150.0532  142.9200  157.4621 N   0  0  0  0  0  0  0  0  0  0  0  0
  149.3583  141.7781  157.3251 C   0  0  0  0  0  0  0  0  0  0  0  0
  149.5673  140.7384  157.9508 O   0  0  0  0  0  0  0  0  0  0  0  0
  148.3878  141.9032  156.4081 N   0  0  0  0  0  0  0  0  0  0  0  0
  147.4651  140.8391  156.0210 C   0  0  0  0  0  0  0  0  0  0  0  0
  146.4793  141.2535  154.8883 C   0  0  1  0  0  0  0  0  0  0  0  0
  147.1283  142.3530  154.0108 C   0  0  0  0  0  0  0  0  0  0  0  0
  146.0205  140.0834  154.0594 N   0  3  2  0  0  0  0  0  0  0  0  0
  145.3898  138.9883  154.8595 C   0  0  0  0  0  0  0  0  0  0  0  0
  144.7548  137.9095  153.9665 C   0  0  0  0  0  0  0  0  0  0  0  0
  145.7737  137.3235  152.9889 C   0  0  0  0  0  0  0  0  0  0  0  0
  146.4069  138.4591  152.1800 C   0  0  0  0  0  0  0  0  0  0  0  0
  147.0288  139.5441  153.0845 C   0  0  2  0  0  0  0  0  0  0  0  0
  148.3347  139.0612  153.7550 C   0  0  0  0  0  0  0  0  0  0  0  0
  151.8219  144.2999  158.4401 N   0  0  0  0  0  0  0  0  0  0  0  0
  152.7866  144.0561  159.4250 O   0  0  0  0  0  0  0  0  0  0  0  0
  153.4401  141.2738  161.1634 H   0  0  0  0  0  0  0  0  0  0  0  0
  153.4355  142.8994  161.8502 H   0  0  0  0  0  0  0  0  0  0  0  0
  154.6197  142.4658  160.6149 H   0  0  0  0  0  0  0  0  0  0  0  0
  151.2564  141.1496  159.3538 H   0  0  0  0  0  0  0  0  0  0  0  0
  149.7764  143.6948  156.8776 H   0  0  0  0  0  0  0  0  0  0  0  0
  148.2856  142.7910  155.9380 H   0  0  0  0  0  0  0  0  0  0  0  0
  148.0551  139.9786  155.7043 H   0  0  0  0  0  0  0  0  0  0  0  0
  146.9456  140.5416  156.9310 H   0  0  0  0  0  0  0  0  0  0  0  0
  145.5938  141.6906  155.3513 H   0  0  0  0  0  0  0  0  0  0  0  0
  147.5557  143.1580  154.6074 H   0  0  0  0  0  0  0  0  0  0  0  0
  146.4094  142.8436  153.3569 H   0  0  0  0  0  0  0  0  0  0  0  0
  147.9299  141.9460  153.3938 H   0  0  0  0  0  0  0  0  0  0  0  0
  146.1260  138.5436  155.5299 H   0  0  0  0  0  0  0  0  0  0  0  0
  144.5897  139.3688  155.4895 H   0  0  0  0  0  0  0  0  0  0  0  0
  144.3345  137.1154  154.5845 H   0  0  0  0  0  0  0  0  0  0  0  0
  143.9208  138.3402  153.4101 H   0  0  0  0  0  0  0  0  0  0  0  0
  146.5401  136.7694  153.5315 H   0  0  0  0  0  0  0  0  0  0  0  0
  145.2887  136.6103  152.3217 H   0  0  0  0  0  0  0  0  0  0  0  0
  147.1586  138.0576  151.4993 H   0  0  0  0  0  0  0  0  0  0  0  0
  145.6425  138.9138  151.5482 H   0  0  0  0  0  0  0  0  0  0  0  0
  147.2945  140.3392  152.3906 H   0  0  0  0  0  0  0  0  0  0  0  0
  149.0338  138.6842  153.0081 H   0  0  0  0  0  0  0  0  0  0  0  0
  148.1620  138.2570  154.4694 H   0  0  0  0  0  0  0  0  0  0  0  0
  148.8450  139.8656  154.2837 H   0  0  0  0  0  0  0  0  0  0  0  0
  145.2767  140.4502  153.4829 H   0  0  0  0  0  0  0  0  0  0  0  0
  1  2  1  0  0  0  0
  1 21  1  0  0  0  0
  1 22  1  0  0  0  0
  1 23  1  0  0  0  0
  2 20  1  0  0  0  0
  2  3  2  0  0  0  0
  3  4  1  0  0  0  0
  3 24  1  0  0  0  0
  4  5  1  0  0  0  0
  4 19  2  0  0  0  0
  5  6  1  0  0  0  0
  5 25  1  0  0  0  0
  6  7  2  0  0  0  0
  6  8  1  0  0  0  0
  8  9  1  0  0  0  0
  8 26  1  0  0  0  0
  9 10  1  0  0  0  0
  9 27  1  0  0  0  0
  9 28  1  0  0  0  0
 10 11  1  0  0  0  0
 10 12  1  0  0  0  0
 10 29  1  0  0  0  0
 11 30  1  0  0  0  0
 11 31  1  0  0  0  0
 11 32  1  0  0  0  0
 12 17  1  0  0  0  0
 12 13  1  0  0  0  0
 12 45  1  0  0  0  0
 13 14  1  0  0  0  0
 13 33  1  0  0  0  0
 13 34  1  0  0  0  0
 14 15  1  0  0  0  0
 14 35  1  0  0  0  0
 14 36  1  0  0  0  0
 15 16  1  0  0  0  0
 15 37  1  0  0  0  0
 15 38  1  0  0  0  0
 16 17  1  0  0  0  0
 16 39  1  0  0  0  0
 16 40  1  0  0  0  0
 17 18  1  0  0  0  0
 17 41  1  0  0  0  0
 18 42  1  0  0  0  0
 18 43  1  0  0  0  0
 18 44  1  0  0  0  0
 19 20  1  0  0  0  0
M  CHG  1  12   1
M  END
> <s_m_source_file>
AV-unprocessed.smi

> <i_m_source_file_index>
1978

> <i_lp_mmshare_version>
43012

> <i_f3d_flags>
0

> <s_epik_input>
W0NIM11jMVtjSF1jKG5vMSlbTkhdQyg9TylbTkhdW0NIMl1bQ0BIXShbQ0gzXSlOMltDSDJdW0NIMl1bQ0gyXVtDSDJdW0NASF0yW0NIM10=

> <s_epik_cmdline>
J2VwaWtfcHl0aG9uJywgJy1waCcsICc3LjAnLCAnLXRuJywgJzgnLCAnLW1hJywgJzIwMCcsICctbWV0YWxfYmluZGluZycsICctaW1hZScsICc8aW5maWxlLm1hZT4nLCAnLW9tYWUnLCAnPG91dGZpbGUubWFlPic=

> <r_epik_Ionization_Penalty>
0.00265971

> <r_epik_Ionization_Penalty_Charging>
0.00262393

> <r_epik_Ionization_Penalty_Neutral>
3.57846e-05

> <r_epik_State_Penalty>
0.00182566

> <r_epik_Charging_Adjusted_Penalty>
0.00444959

> <i_epik_Tot_Q>
1

> <i_epik_Tot_abs_Q>
1

> <r_epik_Metal_State_Penalty>
0.0216344

> <b_epik_Metal_Only>
0

> <s_lp_Force_Field>
OPLS_2005

> <r_lp_Energy>
22.4222

> <b_lp_Chiralities_Consistent>
1

> <s_lp_Variant>
AV-unprocessed.smi:1978-8

> <Gold.Version>
5.8.1

> <Gold.Id.Protein>
6NUR|6NUR_protein|mol2

> <Gold.PLP.Fitness>
42.6750

> <Gold.PLP.PLP>
-31.7067

> <Gold.PLP.part.hbond>
-3.0000

> <Gold.PLP.part.metal>
0.0000

> <Gold.PLP.part.buried>
-1.6951

> <Gold.PLP.part.nonpolar>
-26.4473

> <Gold.PLP.part.repulsive>
0.1236

> <Gold.PLP.ligand.clash>
0.1799

> <Gold.PLP.ligand.torsion>
0.4666

> <Gold.PLP.Chemscore.Hbond>
4.0000

> <Gold.PLP.Chemscore.CHOScore>
0.0000

> <Gold.PLP.Chemscore.Metal>
0.0000

> <Gold.Chemscore.Hbonds>
donor molecule, donor type, donor heavy atom, donor atom, acceptor molecule, acceptor atom, score
      L1  H     5    25       P1  8028  1.00
      L1  H     8    26       P1  8028  1.00
      L1  H    12    45       P1 10175  2.00

> <Gold.PLP.Chemscore.Internal.Correction>
0.0814

> <Gold.Rescore>
     Score         DG    S(hbond)    S(metal)    S(lipo)     H(rot)  DE(clash)    DE(int)     intcor
     16.54     -19.51       2.85        0.00      72.39       1.55       0.04       2.93       ----

> <Gold.Chemscore.Fitness>
16.5411

> <Gold.Chemscore.DG>
-19.5085

> <Gold.Chemscore.ZeroCoef>
-5.4800

> <Gold.Chemscore.Hbond>
2.8503

> <Gold.Chemscore.Metal>
0.0000

> <Gold.Chemscore.Lipo>
72.3908

> <Gold.Chemscore.Internal_Hbond>
0.0000

> <Gold.Chemscore.DEClash>
0.0405

> <Gold.Chemscore.DEInternal>
2.9269

> <Gold.Chemscore.Rot>
1.5474

> <Gold.Chemscore.Internal.Correction>
   9.000000E+99

> <Gold.Chemscore.Hbonds>
donor molecule, donor type, donor heavy atom, donor atom, acceptor molecule, acceptor atom, score
      L1  H     5    25       P1  8028  0.98
      L1  H     8    26       P1  8028  0.83
      L1  H    12    45       P1 10175  0.98

> <Gold.Chemscore.Hbond.Weighted>
-9.5200

> <Gold.Chemscore.Metal.Weighted>
-0.0000

> <Gold.Chemscore.Lipo.Weighted>
-8.4697

> <Gold.Chemscore.Internal_Hbond.Weighted>
0.0000

> <Gold.Chemscore.DEClash.Weighted>
0.0405

> <Gold.Chemscore.DEInternal.Weighted>
2.9269

> <Gold.Chemscore.Rot.Weighted>
3.9612

> <Gold.Chemscore.Internal.Correction.Weighted>
   9.000000E+99

> <Gold.Protein.RotatedTorsions>
[ 6907 6896 6895 6894 ] final   11.67 input  -60.11 | X-H torsion
[ 7974 7965 7964 7962 ] final  151.86 input  175.53 | X-H torsion
[ 8008 7997 7996 7995 ] final -173.29 input   59.86 | X-H torsion
[ 10167 10162 10161 10158 ] final -117.06 input  -65.29 | X-H torsion
[ 10718 10713 10712 10709 ] final  -80.70 input   66.30 | X-H torsion
[ 10763 10752 10751 10750 ] final  -35.14 input  -60.55 | X-H torsion
[ 11005 11000 10999 10996 ] final   88.54 input  -57.11 | X-H torsion

> <Gold.Protein.ActiveResidues>
 VAL166  LYS551  ARG553  GLY616  TRP617  ASP618  TYR619  PRO620  LYS621  CYS622 
 ASP623  PHE694  ASN695  SER759  ASP760  ASP761  ALA762  ILE779  LEU786  VAL792 
 PHE793  MET794  SER795  GLU796  ALA797  LYS798  CYS799  TRP800  GLU811  SER814 

> <Gold.Protein.RotatedAtoms>
  151.7581  135.0816  160.0341 H   0  0  0  0  0  0  0  0  0  0  0  0  # atno 6907 bound_to 6896
  152.3371  133.6020  159.5859 H   0  0  0  0  0  0  0  0  0  0  0  0  # atno 6908 bound_to 6896
  150.7457  133.9695  159.3583 H   0  0  0  0  0  0  0  0  0  0  0  0  # atno 6909 bound_to 6896
  144.8263  139.6593  143.6078 H   0  0  0  0  0  0  0  0  0  0  0  0  # atno 7974 bound_to 7965
  155.9555  140.1134  157.0941 H   0  0  0  0  0  0  0  0  0  0  0  0  # atno 8008 bound_to 7997
  154.4119  140.1192  156.5176 H   0  0  0  0  0  0  0  0  0  0  0  0  # atno 8009 bound_to 7997
  155.6788  140.3473  155.4849 H   0  0  0  0  0  0  0  0  0  0  0  0  # atno 8010 bound_to 7997
  140.0725  143.4864  152.1972 H   0  0  0  0  0  0  0  0  0  0  0  0  # atno 10167 bound_to 10162
  156.0065  130.4582  150.3840 H   0  0  0  0  0  0  0  0  0  0  0  0  # atno 10718 bound_to 10713
  153.8583  135.6842  153.4785 H   0  0  0  0  0  0  0  0  0  0  0  0  # atno 10763 bound_to 10752
  153.1356  135.4679  154.9415 H   0  0  0  0  0  0  0  0  0  0  0  0  # atno 10764 bound_to 10752
  154.7770  135.3256  154.8019 H   0  0  0  0  0  0  0  0  0  0  0  0  # atno 10765 bound_to 10752
  139.8894  134.8494  156.3015 H   0  0  0  0  0  0  0  0  0  0  0  0  # atno 11005 bound_to 11000
  146.2568  139.6320  142.9389 LP  0  0  0  0  0  0  0  0  0  0  0  0  # atno 17320 bound_to 7965
  145.4994  141.0438  143.2549 LP  0  0  0  0  0  0  0  0  0  0  0  0  # atno 17321 bound_to 7965
  139.5827  144.7518  151.3598 LP  0  0  0  0  0  0  0  0  0  0  0  0  # atno 17342 bound_to 10162
  140.7118  143.7370  150.7581 LP  0  0  0  0  0  0  0  0  0  0  0  0  # atno 17343 bound_to 10162
  157.1918  131.0417  151.2696 LP  0  0  0  0  0  0  0  0  0  0  0  0  # atno 17370 bound_to 10713
  157.4054  130.7356  149.6798 LP  0  0  0  0  0  0  0  0  0  0  0  0  # atno 17371 bound_to 10713
  140.9910  133.7209  156.0814 LP  0  0  0  0  0  0  0  0  0  0  0  0  # atno 17394 bound_to 11000
  140.7625  134.3923  157.5523 LP  0  0  0  0  0  0  0  0  0  0  0  0  # atno 17395 bound_to 11000

$$$$
