AV-unprocessed.smi:177|AV-procd|sdf|1443|dock4
  -GOLD-   2262019233D 1   1.00000     0.00000
 Structure written by MMmdl.
 61 65  0  0  0  0  0  0  0  0  1 V2000
  153.7470  142.6052  159.9981 C   0  0  0  0  0  0  0  0  0  0  0  0
  152.6522  142.3186  159.1412 O   0  0  0  0  0  0  0  0  0  0  0  0
  152.2613  143.3920  158.2904 C   0  0  2  0  0  0  0  0  0  0  0  0
  151.9410  144.6062  159.1820 C   0  0  0  0  0  0  0  0  0  0  0  0
  150.6757  144.3822  160.0281 C   0  0  0  0  0  0  0  0  0  0  0  0
  149.4779  144.0025  159.1439 C   0  0  2  0  0  0  0  0  0  0  0  0
  148.3491  143.7465  159.9733 O   0  0  0  0  0  0  0  0  0  0  0  0
  147.1824  143.4624  159.2085 C   0  0  0  0  0  0  0  0  0  0  0  0
  147.4192  142.2045  158.3575 C   0  0  0  0  0  0  0  0  0  0  0  0
  148.6072  142.3683  157.5273 N   0  0  0  0  0  0  0  0  0  0  0  0
  148.7384  141.3401  156.6580 C   0  0  0  0  0  0  0  0  0  0  0  0
  149.0232  141.6603  155.3719 N   0  0  0  0  0  0  0  0  0  0  0  0
  149.1802  140.6950  154.4615 C   0  0  0  0  0  0  0  0  0  0  0  0
  149.0895  139.3734  154.6222 N   0  0  0  0  0  0  0  0  0  0  0  0
  148.7827  139.0470  155.9106 C   0  0  0  0  0  0  0  0  0  0  0  0
  148.5915  139.9609  156.9854 C   0  0  0  0  0  0  0  0  0  0  0  0
  148.2971  139.2631  158.1500 N   0  0  0  0  0  0  0  0  0  0  0  0
  148.3281  138.0104  157.7890 C   0  0  0  0  0  0  0  0  0  0  0  0
  148.5924  137.7878  156.4561 N   0  0  0  0  0  0  0  0  0  0  0  0
  148.6859  136.4936  155.7933 C   0  0  0  0  0  0  0  0  0  0  0  0
  150.1398  135.9942  155.5131 C   0  0  0  0  0  0  0  0  0  0  0  0
  151.0496  137.1740  155.0798 C   0  0  0  0  0  0  0  0  0  0  0  0
  150.7418  137.6376  153.7801 O   0  0  0  0  0  0  0  0  0  0  0  0
  150.7303  135.3264  156.7808 C   0  0  0  0  0  0  0  0  0  0  0  0
  150.0922  133.9591  157.0925 C   0  0  0  0  0  0  0  0  0  0  0  0
  150.2112  133.0938  155.9704 O   0  0  0  0  0  0  0  0  0  0  0  0
  149.5505  133.5921  154.8146 C   0  0  0  0  0  0  0  0  0  0  0  0
  150.1865  134.9273  154.3895 C   0  0  0  0  0  0  0  0  0  0  0  0
  149.7931  142.7455  158.3015 C   0  0  1  0  0  0  0  0  0  0  0  0
  151.0390  143.0162  157.4253 C   0  0  0  0  0  0  0  0  0  0  0  0
  153.9244  141.7511  160.6512 H   0  0  0  0  0  0  0  0  0  0  0  0
  153.5410  143.4700  160.6298 H   0  0  0  0  0  0  0  0  0  0  0  0
  154.6665  142.7867  159.4426 H   0  0  0  0  0  0  0  0  0  0  0  0
  153.0998  143.6570  157.6441 H   0  0  0  0  0  0  0  0  0  0  0  0
  152.7891  144.8286  159.8303 H   0  0  0  0  0  0  0  0  0  0  0  0
  151.7984  145.4858  158.5530 H   0  0  0  0  0  0  0  0  0  0  0  0
  150.8581  143.5933  160.7590 H   0  0  0  0  0  0  0  0  0  0  0  0
  150.4471  145.2837  160.5972 H   0  0  0  0  0  0  0  0  0  0  0  0
  149.2498  144.8435  158.4857 H   0  0  0  0  0  0  0  0  0  0  0  0
  146.3429  143.3060  159.8860 H   0  0  0  0  0  0  0  0  0  0  0  0
  146.9288  144.3161  158.5782 H   0  0  0  0  0  0  0  0  0  0  0  0
  147.5467  141.3360  159.0059 H   0  0  0  0  0  0  0  0  0  0  0  0
  146.5458  142.0133  157.7320 H   0  0  0  0  0  0  0  0  0  0  0  0
  149.4127  141.0291  153.4611 H   0  0  0  0  0  0  0  0  0  0  0  0
  148.1496  137.2096  158.4913 H   0  0  0  0  0  0  0  0  0  0  0  0
  148.1486  135.7648  156.4013 H   0  0  0  0  0  0  0  0  0  0  0  0
  148.1137  136.5671  154.8699 H   0  0  0  0  0  0  0  0  0  0  0  0
  150.9405  138.0158  155.7647 H   0  0  0  0  0  0  0  0  0  0  0  0
  152.1017  136.8906  155.1125 H   0  0  0  0  0  0  0  0  0  0  0  0
  150.0931  137.0642  153.4013 H   0  0  0  0  0  0  0  0  0  0  0  0
  151.8025  135.1763  156.6464 H   0  0  0  0  0  0  0  0  0  0  0  0
  150.6245  135.9836  157.6448 H   0  0  0  0  0  0  0  0  0  0  0  0
  150.6020  133.4990  157.9392 H   0  0  0  0  0  0  0  0  0  0  0  0
  149.0456  134.0588  157.3810 H   0  0  0  0  0  0  0  0  0  0  0  0
  149.6550  132.8604  154.0134 H   0  0  0  0  0  0  0  0  0  0  0  0
  148.4822  133.6959  155.0053 H   0  0  0  0  0  0  0  0  0  0  0  0
  149.7230  135.2938  153.4745 H   0  0  0  0  0  0  0  0  0  0  0  0
  151.2258  134.7271  154.1241 H   0  0  0  0  0  0  0  0  0  0  0  0
  150.0199  141.9350  158.9939 H   0  0  0  0  0  0  0  0  0  0  0  0
  150.8230  143.8327  156.7351 H   0  0  0  0  0  0  0  0  0  0  0  0
  151.2787  142.1600  156.7972 H   0  0  0  0  0  0  0  0  0  0  0  0
  1  2  1  0  0  0  0
  1 31  1  0  0  0  0
  1 32  1  0  0  0  0
  1 33  1  0  0  0  0
  2  3  1  0  0  0  0
  3 30  1  0  0  0  0
  3  4  1  0  0  0  0
  3 34  1  0  0  0  0
  4  5  1  0  0  0  0
  4 35  1  0  0  0  0
  4 36  1  0  0  0  0
  5  6  1  0  0  0  0
  5 37  1  0  0  0  0
  5 38  1  0  0  0  0
  6 29  1  0  0  0  0
  6  7  1  0  0  0  0
  6 39  1  0  0  0  0
  7  8  1  0  0  0  0
  8  9  1  0  0  0  0
  8 40  1  0  0  0  0
  8 41  1  0  0  0  0
  9 10  1  0  0  0  0
  9 42  1  0  0  0  0
  9 43  1  0  0  0  0
 10 11  1  0  0  0  0
 10 29  1  0  0  0  0
 11 16  1  0  0  0  0
 11 12  2  0  0  0  0
 12 13  1  0  0  0  0
 13 14  2  0  0  0  0
 13 44  1  0  0  0  0
 14 15  1  0  0  0  0
 15 19  1  0  0  0  0
 15 16  2  0  0  0  0
 16 17  1  0  0  0  0
 17 18  2  0  0  0  0
 18 19  1  0  0  0  0
 18 45  1  0  0  0  0
 19 20  1  0  0  0  0
 20 21  1  0  0  0  0
 20 46  1  0  0  0  0
 20 47  1  0  0  0  0
 21 28  1  0  0  0  0
 21 22  1  0  0  0  0
 21 24  1  0  0  0  0
 22 23  1  0  0  0  0
 22 48  1  0  0  0  0
 22 49  1  0  0  0  0
 23 50  1  0  0  0  0
 24 25  1  0  0  0  0
 24 51  1  0  0  0  0
 24 52  1  0  0  0  0
 25 26  1  0  0  0  0
 25 53  1  0  0  0  0
 25 54  1  0  0  0  0
 26 27  1  0  0  0  0
 27 28  1  0  0  0  0
 27 55  1  0  0  0  0
 27 56  1  0  0  0  0
 28 57  1  0  0  0  0
 28 58  1  0  0  0  0
 29 30  1  0  0  0  0
 29 59  1  0  0  0  0
 30 60  1  0  0  0  0
 30 61  1  0  0  0  0
M  END
> <s_m_source_file>
AV-unprocessed.smi

> <i_m_source_file_index>
177

> <i_lp_mmshare_version>
43012

> <i_f3d_flags>
0

> <s_epik_input>
W0NIM11PW0NASF0oW0NIMl1bQ0gyXTEpW0NIMl1bQ0BIXShbQ0BASF0xMilOKFtDSDJdW0NIMl1PMiljKG5bY0hdbjMpYyhjMzQpbltjSF1uNFtDSDJdQzUoW0NIMl1bT0hdKVtDSDJdW0NIMl1PW0NIMl1bQ0gyXTU=

> <s_epik_cmdline>
J2VwaWtfcHl0aG9uJywgJy1waCcsICc3LjAnLCAnLXRuJywgJzgnLCAnLW1hJywgJzIwMCcsICctbWV0YWxfYmluZGluZycsICctaW1hZScsICc8aW5maWxlLm1hZT4nLCAnLW9tYWUnLCAnPG91dGZpbGUubWFlPic=

> <r_lp_tautomer_probability>
1

> <r_epik_Ionization_Penalty>
0.0065899

> <r_epik_Ionization_Penalty_Charging>
0

> <r_epik_Ionization_Penalty_Neutral>
0.0065899

> <r_epik_State_Penalty>
0.00470042

> <r_epik_Charging_Adjusted_Penalty>
0.00470042

> <i_epik_Tot_Q>
0

> <i_epik_Tot_abs_Q>
0

> <r_epik_Metal_State_Penalty>
-0

> <b_epik_Metal_Only>
0

> <s_lp_Force_Field>
OPLS_2005

> <r_lp_Energy>
42.7066

> <b_lp_Chiralities_Consistent>
1

> <s_lp_Variant>
AV-unprocessed.smi:177-7

> <Gold.Version>
5.8.1

> <Gold.Id.Protein>
6NUR|6NUR_protein|mol2

> <Gold.PLP.Fitness>
45.4921

> <Gold.PLP.PLP>
-38.9725

> <Gold.PLP.part.hbond>
-3.9900

> <Gold.PLP.part.metal>
0.0000

> <Gold.PLP.part.buried>
-4.7042

> <Gold.PLP.part.nonpolar>
-31.5706

> <Gold.PLP.part.repulsive>
1.8354

> <Gold.PLP.ligand.clash>
0.0000

> <Gold.PLP.ligand.torsion>
1.1677

> <Gold.PLP.Chemscore.Hbond>
1.8960

> <Gold.PLP.Chemscore.CHOScore>
1.0000

> <Gold.PLP.Chemscore.Metal>
0.0000

> <Gold.Chemscore.Hbonds>
donor molecule, donor type, donor heavy atom, donor atom, acceptor molecule, acceptor atom, score
      L1  H    23    50       P1  7948  0.88
      P1  H  6933  6944       L1     7  0.86
      L1  C    13    44       P1  7957  1.00

> <Gold.PLP.Chemscore.Internal.Correction>
0.1671

> <Gold.Rescore>
     Score         DG    S(hbond)    S(metal)    S(lipo)     H(rot)  DE(clash)    DE(int)     intcor
     11.86     -13.47       1.34        0.00      86.42       2.58       0.41       1.20       ----

> <Gold.Chemscore.Fitness>
11.8613

> <Gold.Chemscore.DG>
-13.4711

> <Gold.Chemscore.ZeroCoef>
-5.4800

> <Gold.Chemscore.Hbond>
1.3431

> <Gold.Chemscore.Metal>
0.0000

> <Gold.Chemscore.Lipo>
86.4231

> <Gold.Chemscore.Internal_Hbond>
0.0000

> <Gold.Chemscore.DEClash>
0.4071

> <Gold.Chemscore.DEInternal>
1.2027

> <Gold.Chemscore.Rot>
2.5806

> <Gold.Chemscore.Internal.Correction>
   9.000000E+99

> <Gold.Chemscore.Hbonds>
donor molecule, donor type, donor heavy atom, donor atom, acceptor molecule, acceptor atom, score
      L1  H    23    50       P1  7948  0.16
      P1  H  6933  6944       L1     7  0.54

> <Gold.Chemscore.Hbond.Weighted>
-4.4858

> <Gold.Chemscore.Metal.Weighted>
-0.0000

> <Gold.Chemscore.Lipo.Weighted>
-10.1115

> <Gold.Chemscore.Internal_Hbond.Weighted>
0.0000

> <Gold.Chemscore.DEClash.Weighted>
0.4071

> <Gold.Chemscore.DEInternal.Weighted>
1.2027

> <Gold.Chemscore.Rot.Weighted>
6.6062

> <Gold.Chemscore.Internal.Correction.Weighted>
   9.000000E+99

> <Gold.Protein.RotatedTorsions>
[ 6907 6896 6895 6894 ] final   -1.00 input  -60.11 | X-H torsion
[ 7974 7965 7964 7962 ] final -132.10 input  175.53 | X-H torsion
[ 8008 7997 7996 7995 ] final  167.76 input   59.86 | X-H torsion
[ 10167 10162 10161 10158 ] final   -6.36 input  -65.29 | X-H torsion
[ 10718 10713 10712 10709 ] final -137.16 input   66.30 | X-H torsion
[ 10763 10752 10751 10750 ] final   46.02 input  -60.55 | X-H torsion
[ 11005 11000 10999 10996 ] final  -87.30 input  -57.11 | X-H torsion

> <Gold.Protein.ActiveResidues>
 VAL166  LYS551  ARG553  GLY616  TRP617  ASP618  TYR619  PRO620  LYS621  CYS622 
 ASP623  PHE694  ASN695  SER759  ASP760  ASP761  ALA762  ILE779  LEU786  VAL792 
 PHE793  MET794  SER795  GLU796  ALA797  LYS798  CYS799  TRP800  GLU811  SER814 

> <Gold.Protein.RotatedAtoms>
  151.5531  135.1067  159.9954 H   0  0  0  0  0  0  0  0  0  0  0  0  # atno 6907 bound_to 6896
  152.4482  133.7573  159.6738 H   0  0  0  0  0  0  0  0  0  0  0  0  # atno 6908 bound_to 6896
  150.8403  133.7879  159.3087 H   0  0  0  0  0  0  0  0  0  0  0  0  # atno 6909 bound_to 6896
  144.9317  140.7136  143.4901 H   0  0  0  0  0  0  0  0  0  0  0  0  # atno 7974 bound_to 7965
  156.1606  140.1608  156.8619 H   0  0  0  0  0  0  0  0  0  0  0  0  # atno 8008 bound_to 7997
  154.5157  140.0790  156.8112 H   0  0  0  0  0  0  0  0  0  0  0  0  # atno 8009 bound_to 7997
  155.3715  140.3400  155.4245 H   0  0  0  0  0  0  0  0  0  0  0  0  # atno 8010 bound_to 7997
  140.6994  143.6202  150.8619 H   0  0  0  0  0  0  0  0  0  0  0  0  # atno 10167 bound_to 10162
  156.2851  130.7343  151.1352 H   0  0  0  0  0  0  0  0  0  0  0  0  # atno 10718 bound_to 10713
  152.9816  135.6021  154.3531 H   0  0  0  0  0  0  0  0  0  0  0  0  # atno 10763 bound_to 10752
  154.3219  135.2769  155.2517 H   0  0  0  0  0  0  0  0  0  0  0  0  # atno 10764 bound_to 10752
  154.4680  135.5949  153.6357 H   0  0  0  0  0  0  0  0  0  0  0  0  # atno 10765 bound_to 10752
  141.1619  133.7503  156.9287 H   0  0  0  0  0  0  0  0  0  0  0  0  # atno 11005 bound_to 11000
  145.3131  139.1812  143.4628 LP  0  0  0  0  0  0  0  0  0  0  0  0  # atno 17320 bound_to 7965
  146.3250  140.3138  142.8628 LP  0  0  0  0  0  0  0  0  0  0  0  0  # atno 17321 bound_to 7965
  139.9923  143.5833  152.2905 LP  0  0  0  0  0  0  0  0  0  0  0  0  # atno 17342 bound_to 10162
  139.6493  144.7660  151.2180 LP  0  0  0  0  0  0  0  0  0  0  0  0  # atno 17343 bound_to 10162
  157.7326  131.0598  150.5620 LP  0  0  0  0  0  0  0  0  0  0  0  0  # atno 17370 bound_to 10713
  156.5730  130.4284  149.6011 LP  0  0  0  0  0  0  0  0  0  0  0  0  # atno 17371 bound_to 10713
  140.1401  134.9299  157.2456 LP  0  0  0  0  0  0  0  0  0  0  0  0  # atno 17394 bound_to 11000
  140.2846  134.3310  155.7333 LP  0  0  0  0  0  0  0  0  0  0  0  0  # atno 17395 bound_to 11000

$$$$
