AV-unprocessed.smi:433|AV-procd|sdf|2551|dock3
  -GOLD-   2262022513D 1   1.00000     0.00000
 Structure written by MMmdl.
 36 37  0  0  0  0  0  0  0  0  1 V2000
  153.7293  141.8496  161.6194 C   0  0  0  0  0  0  0  0  0  0  0  0
  152.9069  142.7499  160.8638 N   0  0  0  0  0  0  0  0  0  0  0  0
  152.3765  143.9033  161.4076 C   0  0  0  0  0  0  0  0  0  0  0  0
  151.5887  144.7480  160.7072 C   0  0  0  0  0  0  0  0  0  0  0  0
  151.2553  144.4803  159.3124 C   0  0  0  0  0  0  0  0  0  0  0  0
  150.5198  145.2091  158.6457 O   0  0  0  0  0  0  0  0  0  0  0  0
  151.8318  143.3002  158.7811 N   0  0  0  0  0  0  0  0  0  0  0  0
  151.5253  142.9567  157.4037 C   0  0  0  0  0  0  0  0  0  0  0  0
  150.6535  141.6862  157.2801 C   0  0  1  0  0  0  0  0  0  0  0  0
  149.2918  142.0604  157.3317 O   0  0  0  0  0  0  0  0  0  0  0  0
  150.8769  140.9540  155.9487 C   0  0  0  0  0  0  0  0  0  0  0  0
  149.9520  141.4631  154.9972 O   0  0  0  0  0  0  0  0  0  0  0  0
  149.2156  140.5676  154.2536 C   0  0  0  0  0  0  0  0  0  0  0  0
  148.1256  141.0879  153.5258 C   0  0  0  0  0  0  0  0  0  0  0  0
  147.3184  140.2464  152.7365 C   0  0  0  0  0  0  0  0  0  0  0  0
  147.5962  138.8689  152.6668 C   0  0  0  0  0  0  0  0  0  0  0  0
  148.6808  138.3362  153.3882 C   0  0  0  0  0  0  0  0  0  0  0  0
  149.4879  139.1781  154.1784 C   0  0  0  0  0  0  0  0  0  0  0  0
  152.6408  142.4049  159.5211 C   0  0  0  0  0  0  0  0  0  0  0  0
  153.0876  141.3655  159.0270 O   0  0  0  0  0  0  0  0  0  0  0  0
  153.8617  142.2706  162.6166 H   0  0  0  0  0  0  0  0  0  0  0  0
  154.6890  141.7682  161.1061 H   0  0  0  0  0  0  0  0  0  0  0  0
  153.2063  140.8929  161.6703 H   0  0  0  0  0  0  0  0  0  0  0  0
  152.5943  144.1421  162.4385 H   0  0  0  0  0  0  0  0  0  0  0  0
  151.1962  145.6328  161.1862 H   0  0  0  0  0  0  0  0  0  0  0  0
  151.0798  143.8268  156.9177 H   0  0  0  0  0  0  0  0  0  0  0  0
  152.4829  142.8379  156.8936 H   0  0  0  0  0  0  0  0  0  0  0  0
  150.8502  140.9937  158.0999 H   0  0  0  0  0  0  0  0  0  0  0  0
  149.1377  142.7224  156.6746 H   0  0  0  0  0  0  0  0  0  0  0  0
  151.8941  141.1325  155.5952 H   0  0  0  0  0  0  0  0  0  0  0  0
  150.7463  139.8787  156.0823 H   0  0  0  0  0  0  0  0  0  0  0  0
  147.9064  142.1446  153.5745 H   0  0  0  0  0  0  0  0  0  0  0  0
  146.4867  140.6588  152.1844 H   0  0  0  0  0  0  0  0  0  0  0  0
  146.9786  138.2221  152.0611 H   0  0  0  0  0  0  0  0  0  0  0  0
  148.8952  137.2790  153.3354 H   0  0  0  0  0  0  0  0  0  0  0  0
  150.3114  138.7337  154.7163 H   0  0  0  0  0  0  0  0  0  0  0  0
  1  2  1  0  0  0  0
  1 21  1  0  0  0  0
  1 22  1  0  0  0  0
  1 23  1  0  0  0  0
  2 19  1  0  0  0  0
  2  3  1  0  0  0  0
  3  4  2  0  0  0  0
  3 24  1  0  0  0  0
  4  5  1  0  0  0  0
  4 25  1  0  0  0  0
  5  6  2  0  0  0  0
  5  7  1  0  0  0  0
  7  8  1  0  0  0  0
  7 19  1  0  0  0  0
  8  9  1  0  0  0  0
  8 26  1  0  0  0  0
  8 27  1  0  0  0  0
  9 10  1  0  0  0  0
  9 11  1  0  0  0  0
  9 28  1  0  0  0  0
 10 29  1  0  0  0  0
 11 12  1  0  0  0  0
 11 30  1  0  0  0  0
 11 31  1  0  0  0  0
 12 13  1  0  0  0  0
 13 18  1  0  0  0  0
 13 14  2  0  0  0  0
 14 15  1  0  0  0  0
 14 32  1  0  0  0  0
 15 16  2  0  0  0  0
 15 33  1  0  0  0  0
 16 17  1  0  0  0  0
 16 34  1  0  0  0  0
 17 18  2  0  0  0  0
 17 35  1  0  0  0  0
 18 36  1  0  0  0  0
 19 20  2  0  0  0  0
M  END
> <s_m_source_file>
AV-unprocessed.smi

> <i_m_source_file_index>
433

> <i_lp_mmshare_version>
43012

> <i_f3d_flags>
0

> <s_epik_input>
W0NIM11uMVtjSF1bY0hdYyg9TyluKGMxPU8pW0NIMl1bQ0BIXShbT0hdKVtDSDJdT2MyW2NIXVtjSF1bY0hdW2NIXVtjSF0y

> <s_epik_cmdline>
J2VwaWtfcHl0aG9uJywgJy1waCcsICc3LjAnLCAnLXRuJywgJzgnLCAnLW1hJywgJzIwMCcsICctbWV0YWxfYmluZGluZycsICctaW1hZScsICc8aW5maWxlLm1hZT4nLCAnLW9tYWUnLCAnPG91dGZpbGUubWFlPic=

> <r_lp_tautomer_probability>
1

> <r_epik_Ionization_Penalty>
2.21742e-07

> <r_epik_Ionization_Penalty_Charging>
1.04568e-07

> <r_epik_Ionization_Penalty_Neutral>
1.17174e-07

> <r_epik_State_Penalty>
-0

> <r_epik_Charging_Adjusted_Penalty>
1.04568e-07

> <i_epik_Tot_Q>
0

> <i_epik_Tot_abs_Q>
0

> <r_epik_Metal_State_Penalty>
-0

> <b_epik_Metal_Only>
0

> <s_lp_Force_Field>
OPLS_2005

> <r_lp_Energy>
22.7461

> <b_lp_Chiralities_Consistent>
1

> <s_lp_Variant>
AV-unprocessed.smi:433-2

> <Gold.Version>
5.8.1

> <Gold.Id.Protein>
6NUR|6NUR_protein|mol2

> <Gold.PLP.Fitness>
47.8233

> <Gold.PLP.PLP>
-47.3565

> <Gold.PLP.part.hbond>
-2.0810

> <Gold.PLP.part.metal>
0.0000

> <Gold.PLP.part.buried>
-3.0716

> <Gold.PLP.part.nonpolar>
-41.3302

> <Gold.PLP.part.repulsive>
0.2986

> <Gold.PLP.ligand.clash>
0.0617

> <Gold.PLP.ligand.torsion>
1.2602

> <Gold.PLP.Chemscore.Hbond>
1.0000

> <Gold.PLP.Chemscore.CHOScore>
0.0000

> <Gold.PLP.Chemscore.Metal>
0.0000

> <Gold.Chemscore.Hbonds>
donor molecule, donor type, donor heavy atom, donor atom, acceptor molecule, acceptor atom, score
      L1  H    10    29       P1  8028  0.44

> <Gold.PLP.Chemscore.Internal.Correction>
0.0489

> <Gold.Rescore>
     Score         DG    S(hbond)    S(metal)    S(lipo)     H(rot)  DE(clash)    DE(int)     intcor
     12.54     -14.10       0.95        0.00     100.28       2.46       0.18       1.37       ----

> <Gold.Chemscore.Fitness>
12.5449

> <Gold.Chemscore.DG>
-14.0963

> <Gold.Chemscore.ZeroCoef>
-5.4800

> <Gold.Chemscore.Hbond>
0.9531

> <Gold.Chemscore.Metal>
0.0000

> <Gold.Chemscore.Lipo>
100.2795

> <Gold.Chemscore.Internal_Hbond>
0.0000

> <Gold.Chemscore.DEClash>
0.1819

> <Gold.Chemscore.DEInternal>
1.3695

> <Gold.Chemscore.Rot>
2.4608

> <Gold.Chemscore.Internal.Correction>
   9.000000E+99

> <Gold.Chemscore.Hbonds>
donor molecule, donor type, donor heavy atom, donor atom, acceptor molecule, acceptor atom, score
      L1  H    10    29       P1  8028  0.45

> <Gold.Chemscore.Hbond.Weighted>
-3.1833

> <Gold.Chemscore.Metal.Weighted>
-0.0000

> <Gold.Chemscore.Lipo.Weighted>
-11.7327

> <Gold.Chemscore.Internal_Hbond.Weighted>
0.0000

> <Gold.Chemscore.DEClash.Weighted>
0.1819

> <Gold.Chemscore.DEInternal.Weighted>
1.3695

> <Gold.Chemscore.Rot.Weighted>
6.2997

> <Gold.Chemscore.Internal.Correction.Weighted>
   9.000000E+99

> <Gold.Protein.RotatedTorsions>
[ 6907 6896 6895 6894 ] final  -74.57 input  -60.11 | X-H torsion
[ 7974 7965 7964 7962 ] final  -99.70 input  175.53 | X-H torsion
[ 8008 7997 7996 7995 ] final -172.77 input   59.86 | X-H torsion
[ 10167 10162 10161 10158 ] final  168.05 input  -65.29 | X-H torsion
[ 10718 10713 10712 10709 ] final  -21.89 input   66.30 | X-H torsion
[ 10763 10752 10751 10750 ] final  173.92 input  -60.55 | X-H torsion
[ 11005 11000 10999 10996 ] final  -80.62 input  -57.11 | X-H torsion

> <Gold.Protein.ActiveResidues>
 VAL166  LYS551  ARG553  GLY616  TRP617  ASP618  TYR619  PRO620  LYS621  CYS622 
 ASP623  PHE694  ASN695  SER759  ASP760  ASP761  ALA762  ILE779  LEU786  VAL792 
 PHE793  MET794  SER795  GLU796  ALA797  LYS798  CYS799  TRP800  GLU811  SER814 

> <Gold.Protein.RotatedAtoms>
  150.7088  134.4849  159.5487 H   0  0  0  0  0  0  0  0  0  0  0  0  # atno 6907 bound_to 6896
  152.2478  134.8160  160.0459 H   0  0  0  0  0  0  0  0  0  0  0  0  # atno 6908 bound_to 6896
  151.8919  133.3483  159.3838 H   0  0  0  0  0  0  0  0  0  0  0  0  # atno 6909 bound_to 6896
  145.3042  140.9385  143.2806 H   0  0  0  0  0  0  0  0  0  0  0  0  # atno 7974 bound_to 7965
  155.9489  140.1122  157.0993 H   0  0  0  0  0  0  0  0  0  0  0  0  # atno 8008 bound_to 7997
  154.4105  140.1204  156.5092 H   0  0  0  0  0  0  0  0  0  0  0  0  # atno 8009 bound_to 7997
  155.6867  140.3473  155.4879 H   0  0  0  0  0  0  0  0  0  0  0  0  # atno 8010 bound_to 7997
  139.4959  144.3856  151.9574 H   0  0  0  0  0  0  0  0  0  0  0  0  # atno 10167 bound_to 10162
  156.5120  130.4612  149.6643 H   0  0  0  0  0  0  0  0  0  0  0  0  # atno 10718 bound_to 10713
  154.4468  135.2763  155.1809 H   0  0  0  0  0  0  0  0  0  0  0  0  # atno 10763 bound_to 10752
  154.3653  135.6120  153.5715 H   0  0  0  0  0  0  0  0  0  0  0  0  # atno 10764 bound_to 10752
  152.9844  135.5844  154.4805 H   0  0  0  0  0  0  0  0  0  0  0  0  # atno 10765 bound_to 10752
  141.1668  133.7158  156.8300 H   0  0  0  0  0  0  0  0  0  0  0  0  # atno 11005 bound_to 11000
  144.9069  139.4578  143.6606 LP  0  0  0  0  0  0  0  0  0  0  0  0  # atno 17320 bound_to 7965
  146.3141  139.7854  142.8997 LP  0  0  0  0  0  0  0  0  0  0  0  0  # atno 17321 bound_to 7965
  140.3293  144.3336  150.5991 LP  0  0  0  0  0  0  0  0  0  0  0  0  # atno 17342 bound_to 10162
  140.5659  143.2186  151.7685 LP  0  0  0  0  0  0  0  0  0  0  0  0  # atno 17343 bound_to 10162
  156.3231  130.7291  151.2207 LP  0  0  0  0  0  0  0  0  0  0  0  0  # atno 17370 bound_to 10713
  157.7449  131.0450  150.4822 LP  0  0  0  0  0  0  0  0  0  0  0  0  # atno 17371 bound_to 10713
  140.2058  134.8864  157.3220 LP  0  0  0  0  0  0  0  0  0  0  0  0  # atno 17394 bound_to 11000
  140.2139  134.4105  155.7599 LP  0  0  0  0  0  0  0  0  0  0  0  0  # atno 17395 bound_to 11000

$$$$
