AV-unprocessed.smi:2459|AV-procd|sdf|9713|dock6
  -GOLD-   2272013353D 1   1.00000     0.00000
 Structure written by MMmdl.
 46 47  0  0  0  0  0  0  0  0  1 V2000
  144.0886  132.0293  150.8268 C   0  0  0  0  0  0  0  0  0  0  0  0
  144.6624  132.6132  151.9952 O   0  0  0  0  0  0  0  0  0  0  0  0
  144.5393  134.0324  152.1724 C   0  0  0  0  0  0  0  0  0  0  0  0
  145.0907  134.7852  150.9385 C   0  0  0  0  0  0  0  0  0  0  0  0
  143.0299  134.3037  152.2992 C   0  0  0  0  0  0  0  0  0  0  0  0
  145.2381  134.4834  153.4767 C   0  0  0  0  0  0  0  0  0  0  0  0
  146.1750  135.2800  153.4222 O   0  0  0  0  0  0  0  0  0  0  0  0
  144.7611  133.9543  154.6203 N   0  0  0  0  0  0  0  0  0  0  0  0
  145.2048  134.1549  155.9553 C   0  0  0  0  0  0  0  0  0  0  0  0
  144.3714  133.7036  156.9978 C   0  0  0  0  0  0  0  0  0  0  0  0
  144.6703  133.8388  158.3059 N   0  0  0  0  0  0  0  0  0  0  0  0
  145.8306  134.4492  158.6434 C   0  0  0  0  0  0  0  0  0  0  0  0
  146.1246  134.5717  160.0104 N   0  0  0  0  0  0  0  0  0  0  0  0
  146.1880  135.9581  160.4656 C   0  0  0  0  0  0  0  0  0  0  0  0
  146.2834  136.0241  161.9994 C   0  0  0  0  0  0  0  0  0  0  0  0
  147.4627  135.1817  162.5125 C   0  0  0  0  0  0  0  0  0  0  0  0
  147.3618  133.7433  161.9788 C   0  0  0  0  0  0  0  0  0  0  0  0
  147.2392  133.7338  160.4454 C   0  0  0  0  0  0  0  0  0  0  0  0
  146.7325  134.9549  157.6765 C   0  0  0  0  0  0  0  0  0  0  0  0
  148.0231  135.6453  158.0816 C   0  0  0  0  0  0  0  0  0  0  0  0
  146.4086  134.8078  156.3114 C   0  0  0  0  0  0  0  0  0  0  0  0
  144.3699  130.9775  150.7814 H   0  0  0  0  0  0  0  0  0  0  0  0
  144.4328  132.4996  149.9057 H   0  0  0  0  0  0  0  0  0  0  0  0
  142.9997  132.0702  150.8522 H   0  0  0  0  0  0  0  0  0  0  0  0
  144.8376  135.8457  150.9732 H   0  0  0  0  0  0  0  0  0  0  0  0
  144.6720  134.3831  150.0153 H   0  0  0  0  0  0  0  0  0  0  0  0
  146.1769  134.7180  150.8665 H   0  0  0  0  0  0  0  0  0  0  0  0
  142.8227  135.3668  152.4303 H   0  0  0  0  0  0  0  0  0  0  0  0
  142.5978  133.7751  153.1499 H   0  0  0  0  0  0  0  0  0  0  0  0
  142.4971  133.9730  151.4071 H   0  0  0  0  0  0  0  0  0  0  0  0
  144.0316  133.2650  154.5067 H   0  0  0  0  0  0  0  0  0  0  0  0
  143.4353  133.2115  156.7774 H   0  0  0  0  0  0  0  0  0  0  0  0
  147.0544  136.4485  160.0193 H   0  0  0  0  0  0  0  0  0  0  0  0
  145.3035  136.4981  160.1248 H   0  0  0  0  0  0  0  0  0  0  0  0
  146.3924  137.0595  162.3230 H   0  0  0  0  0  0  0  0  0  0  0  0
  145.3542  135.6578  162.4380 H   0  0  0  0  0  0  0  0  0  0  0  0
  148.4019  135.6288  162.1846 H   0  0  0  0  0  0  0  0  0  0  0  0
  147.4802  135.1801  163.6027 H   0  0  0  0  0  0  0  0  0  0  0  0
  148.2334  133.1660  162.2876 H   0  0  0  0  0  0  0  0  0  0  0  0
  146.4921  133.2513  162.4163 H   0  0  0  0  0  0  0  0  0  0  0  0
  147.0914  132.7128  160.0908 H   0  0  0  0  0  0  0  0  0  0  0  0
  148.1654  134.0974  159.9980 H   0  0  0  0  0  0  0  0  0  0  0  0
  148.5913  135.9711  157.2101 H   0  0  0  0  0  0  0  0  0  0  0  0
  148.6509  134.9666  158.6598 H   0  0  0  0  0  0  0  0  0  0  0  0
  147.8092  136.5220  158.6935 H   0  0  0  0  0  0  0  0  0  0  0  0
  147.0799  135.2075  155.5675 H   0  0  0  0  0  0  0  0  0  0  0  0
  1  2  1  0  0  0  0
  1 22  1  0  0  0  0
  1 23  1  0  0  0  0
  1 24  1  0  0  0  0
  2  3  1  0  0  0  0
  3  4  1  0  0  0  0
  3  5  1  0  0  0  0
  3  6  1  0  0  0  0
  4 25  1  0  0  0  0
  4 26  1  0  0  0  0
  4 27  1  0  0  0  0
  5 28  1  0  0  0  0
  5 29  1  0  0  0  0
  5 30  1  0  0  0  0
  6  7  2  0  0  0  0
  6  8  1  0  0  0  0
  8  9  1  0  0  0  0
  8 31  1  0  0  0  0
  9 21  1  0  0  0  0
  9 10  2  0  0  0  0
 10 11  1  0  0  0  0
 10 32  1  0  0  0  0
 11 12  2  0  0  0  0
 12 13  1  0  0  0  0
 12 19  1  0  0  0  0
 13 18  1  0  0  0  0
 13 14  1  0  0  0  0
 14 15  1  0  0  0  0
 14 33  1  0  0  0  0
 14 34  1  0  0  0  0
 15 16  1  0  0  0  0
 15 35  1  0  0  0  0
 15 36  1  0  0  0  0
 16 17  1  0  0  0  0
 16 37  1  0  0  0  0
 16 38  1  0  0  0  0
 17 18  1  0  0  0  0
 17 39  1  0  0  0  0
 17 40  1  0  0  0  0
 18 41  1  0  0  0  0
 18 42  1  0  0  0  0
 19 20  1  0  0  0  0
 19 21  2  0  0  0  0
 20 43  1  0  0  0  0
 20 44  1  0  0  0  0
 20 45  1  0  0  0  0
 21 46  1  0  0  0  0
M  END
> <s_m_source_file>
AV-unprocessed.smi

> <i_m_source_file_index>
2459

> <i_lp_mmshare_version>
43012

> <i_f3d_flags>
0

> <s_epik_input>
W0NIM11PQyhbQ0gzXSkoW0NIM10pQyg9TylbTkhdYzFbY0hdbmMoYyhbQ0gzXSlbY0hdMSlOMltDSDJdW0NIMl1bQ0gyXVtDSDJdW0NIMl0y

> <s_epik_cmdline>
J2VwaWtfcHl0aG9uJywgJy1waCcsICc3LjAnLCAnLXRuJywgJzgnLCAnLW1hJywgJzIwMCcsICctbWV0YWxfYmluZGluZycsICctaW1hZScsICc8aW5maWxlLm1hZT4nLCAnLW9tYWUnLCAnPG91dGZpbGUubWFlPic=

> <r_lp_tautomer_probability>
1

> <r_epik_Ionization_Penalty>
0.0966188

> <r_epik_Ionization_Penalty_Charging>
0

> <r_epik_Ionization_Penalty_Neutral>
0.0966188

> <r_epik_State_Penalty>
1.07001

> <r_epik_Charging_Adjusted_Penalty>
1.07001

> <i_epik_Tot_Q>
0

> <i_epik_Tot_abs_Q>
0

> <r_epik_Metal_State_Penalty>
1.00145

> <b_epik_Metal_Only>
0

> <s_lp_Force_Field>
OPLS_2005

> <r_lp_Energy>
29.1962

> <b_lp_Chiralities_Consistent>
1

> <s_lp_Variant>
AV-unprocessed.smi:2459-2

> <Gold.Version>
5.8.1

> <Gold.Id.Protein>
6NUR|6NUR_protein|mol2

> <Gold.PLP.Fitness>
30.6708

> <Gold.PLP.PLP>
-24.8646

> <Gold.PLP.part.hbond>
-1.0000

> <Gold.PLP.part.metal>
0.0000

> <Gold.PLP.part.buried>
-4.6498

> <Gold.PLP.part.nonpolar>
-19.7056

> <Gold.PLP.part.repulsive>
0.2359

> <Gold.PLP.ligand.clash>
0.0000

> <Gold.PLP.ligand.torsion>
0.1914

> <Gold.PLP.Chemscore.Hbond>
1.0000

> <Gold.PLP.Chemscore.CHOScore>
0.9947

> <Gold.PLP.Chemscore.Metal>
0.0000

> <Gold.Chemscore.Hbonds>
donor molecule, donor type, donor heavy atom, donor atom, acceptor molecule, acceptor atom, score
      L1  H     8    31       P1 10957  0.96
      L1  C    10    32       P1 10957  0.97

> <Gold.PLP.Chemscore.Internal.Correction>
0.2050

> <Gold.Rescore>
     Score         DG    S(hbond)    S(metal)    S(lipo)     H(rot)  DE(clash)    DE(int)     intcor
     10.95     -13.04       1.00        0.00      64.93       1.32       0.00       2.09       ----

> <Gold.Chemscore.Fitness>
10.9492

> <Gold.Chemscore.DG>
-13.0404

> <Gold.Chemscore.ZeroCoef>
-5.4800

> <Gold.Chemscore.Hbond>
1.0000

> <Gold.Chemscore.Metal>
0.0000

> <Gold.Chemscore.Lipo>
64.9303

> <Gold.Chemscore.Internal_Hbond>
0.0000

> <Gold.Chemscore.DEClash>
0.0038

> <Gold.Chemscore.DEInternal>
2.0874

> <Gold.Chemscore.Rot>
1.3189

> <Gold.Chemscore.Internal.Correction>
   9.000000E+99

> <Gold.Chemscore.Hbonds>
donor molecule, donor type, donor heavy atom, donor atom, acceptor molecule, acceptor atom, score
      L1  H     8    31       P1 10957  0.91

> <Gold.Chemscore.Hbond.Weighted>
-3.3399

> <Gold.Chemscore.Metal.Weighted>
-0.0000

> <Gold.Chemscore.Lipo.Weighted>
-7.5968

> <Gold.Chemscore.Internal_Hbond.Weighted>
0.0000

> <Gold.Chemscore.DEClash.Weighted>
0.0038

> <Gold.Chemscore.DEInternal.Weighted>
2.0874

> <Gold.Chemscore.Rot.Weighted>
3.3764

> <Gold.Chemscore.Internal.Correction.Weighted>
   9.000000E+99

> <Gold.Protein.RotatedTorsions>
[ 6907 6896 6895 6894 ] final  140.40 input  -60.11 | X-H torsion
[ 7974 7965 7964 7962 ] final   37.81 input  175.53 | X-H torsion
[ 8008 7997 7996 7995 ] final   91.22 input   59.86 | X-H torsion
[ 10167 10162 10161 10158 ] final  -98.61 input  -65.29 | X-H torsion
[ 10718 10713 10712 10709 ] final   -4.21 input   66.30 | X-H torsion
[ 10763 10752 10751 10750 ] final  120.41 input  -60.55 | X-H torsion
[ 11005 11000 10999 10996 ] final  -46.75 input  -57.11 | X-H torsion

> <Gold.Protein.ActiveResidues>
 VAL166  LYS551  ARG553  GLY616  TRP617  ASP618  TYR619  PRO620  LYS621  CYS622 
 ASP623  PHE694  ASN695  SER759  ASP760  ASP761  ALA762  ILE779  LEU786  VAL792 
 PHE793  MET794  SER795  GLU796  ALA797  LYS798  CYS799  TRP800  GLU811  SER814 

> <Gold.Protein.RotatedAtoms>
  152.2435  133.5155  159.5283 H   0  0  0  0  0  0  0  0  0  0  0  0  # atno 6907 bound_to 6896
  150.7071  134.1057  159.3991 H   0  0  0  0  0  0  0  0  0  0  0  0  # atno 6908 bound_to 6896
  151.8977  135.0391  160.0554 H   0  0  0  0  0  0  0  0  0  0  0  0  # atno 6909 bound_to 6896
  146.1110  139.5849  142.9352 H   0  0  0  0  0  0  0  0  0  0  0  0  # atno 7974 bound_to 7965
  156.0212  140.3340  155.7041 H   0  0  0  0  0  0  0  0  0  0  0  0  # atno 8008 bound_to 7997
  155.6019  140.0656  157.2748 H   0  0  0  0  0  0  0  0  0  0  0  0  # atno 8009 bound_to 7997
  154.4317  140.1809  156.1170 H   0  0  0  0  0  0  0  0  0  0  0  0  # atno 8010 bound_to 7997
  140.2711  143.3343  152.0533 H   0  0  0  0  0  0  0  0  0  0  0  0  # atno 10167 bound_to 10162
  156.7646  130.5280  149.5778 H   0  0  0  0  0  0  0  0  0  0  0  0  # atno 10718 bound_to 10713
  153.5981  135.3453  155.2935 H   0  0  0  0  0  0  0  0  0  0  0  0  # atno 10763 bound_to 10752
  154.8641  135.4221  154.2442 H   0  0  0  0  0  0  0  0  0  0  0  0  # atno 10764 bound_to 10752
  153.3265  135.7041  153.7056 H   0  0  0  0  0  0  0  0  0  0  0  0  # atno 10765 bound_to 10752
  141.0598  133.6713  156.3199 H   0  0  0  0  0  0  0  0  0  0  0  0  # atno 11005 bound_to 11000
  145.5664  141.0399  143.2198 LP  0  0  0  0  0  0  0  0  0  0  0  0  # atno 17320 bound_to 7965
  144.7511  139.7191  143.7272 LP  0  0  0  0  0  0  0  0  0  0  0  0  # atno 17321 bound_to 7965
  139.4988  144.6655  151.6365 LP  0  0  0  0  0  0  0  0  0  0  0  0  # atno 17342 bound_to 10162
  140.5889  143.9815  150.6312 LP  0  0  0  0  0  0  0  0  0  0  0  0  # atno 17343 bound_to 10162
  156.1317  130.6182  151.0342 LP  0  0  0  0  0  0  0  0  0  0  0  0  # atno 17370 bound_to 10713
  157.6719  131.0859  150.7591 LP  0  0  0  0  0  0  0  0  0  0  0  0  # atno 17371 bound_to 10713
  140.5891  134.5668  157.5496 LP  0  0  0  0  0  0  0  0  0  0  0  0  # atno 17394 bound_to 11000
  139.9422  134.7766  156.0649 LP  0  0  0  0  0  0  0  0  0  0  0  0  # atno 17395 bound_to 11000

$$$$
