AV-unprocessed.smi:2344|AV-procd|sdf|9359|dock7
  -GOLD-   2272012583D 1   1.00000     0.00000
 Structure written by MMmdl.
 35 36  0  0  0  0  0  0  0  0  1 V2000
  153.0857  143.4046  162.4447 C   0  0  0  0  0  0  0  0  0  0  0  0
  152.3566  143.3091  161.1210 C   0  0  0  0  0  0  0  0  0  0  0  0
  151.5026  144.3415  160.6904 C   0  0  0  0  0  0  0  0  0  0  0  0
  150.8440  144.2059  159.4532 C   0  0  0  0  0  0  0  0  0  0  0  0
  151.0531  143.0437  158.6771 C   0  0  0  0  0  0  0  0  0  0  0  0
  150.3435  143.0074  157.4472 N   0  0  0  0  0  0  0  0  0  0  0  0
  150.2403  141.9886  156.5757 C   0  0  0  0  0  0  0  0  0  0  0  0
  150.7568  140.8790  156.7105 O   0  0  0  0  0  0  0  0  0  0  0  0
  149.4906  142.3298  155.5178 N   0  0  0  0  0  0  0  0  0  0  0  0
  149.1796  141.4481  154.3983 C   0  0  2  0  0  0  0  0  0  0  0  0
  148.0023  141.9726  153.6232 C   0  0  0  0  0  0  0  0  0  0  0  0
  146.9863  141.1135  153.5875 C   0  0  0  0  0  0  0  0  0  0  0  0
  147.2623  139.8464  154.3534 C   0  0  1  0  0  0  0  0  0  0  0  0
  147.0608  138.5923  153.4870 C   0  0  0  0  0  0  0  0  0  0  0  0
  147.7527  138.7284  152.2639 O   0  0  0  0  0  0  0  0  0  0  0  0
  148.7181  140.0389  154.8536 C   0  0  0  0  0  0  0  0  0  0  0  0
  151.8772  142.0535  159.1013 N   0  0  0  0  0  0  0  0  0  0  0  0
  152.5078  142.1838  160.2874 C   0  0  0  0  0  0  0  0  0  0  0  0
  150.0349  141.3781  153.7238 H   0  0  0  0  0  0  0  0  0  0  0  0
  146.5769  139.8227  155.2017 H   0  0  0  0  0  0  0  0  0  0  0  0
  153.4321  144.4234  162.6205 H   0  0  0  0  0  0  0  0  0  0  0  0
  153.9532  142.7442  162.4614 H   0  0  0  0  0  0  0  0  0  0  0  0
  152.4212  143.1205  163.2610 H   0  0  0  0  0  0  0  0  0  0  0  0
  151.3523  145.2234  161.2957 H   0  0  0  0  0  0  0  0  0  0  0  0
  150.1856  144.9899  159.1077 H   0  0  0  0  0  0  0  0  0  0  0  0
  149.8599  143.8580  157.2008 H   0  0  0  0  0  0  0  0  0  0  0  0
  149.1031  143.2613  155.4857 H   0  0  0  0  0  0  0  0  0  0  0  0
  148.0132  142.9414  153.1459 H   0  0  0  0  0  0  0  0  0  0  0  0
  146.0459  141.2872  153.0854 H   0  0  0  0  0  0  0  0  0  0  0  0
  147.4417  137.7095  154.0013 H   0  0  0  0  0  0  0  0  0  0  0  0
  146.0023  138.4200  153.2878 H   0  0  0  0  0  0  0  0  0  0  0  0
  148.0422  137.8731  151.9854 H   0  0  0  0  0  0  0  0  0  0  0  0
  149.3825  139.2840  154.4311 H   0  0  0  0  0  0  0  0  0  0  0  0
  148.7660  139.9201  155.9370 H   0  0  0  0  0  0  0  0  0  0  0  0
  153.1501  141.3651  160.5768 H   0  0  0  0  0  0  0  0  0  0  0  0
  1  2  1  0  0  0  0
  1 21  1  0  0  0  0
  1 22  1  0  0  0  0
  1 23  1  0  0  0  0
  2 18  1  0  0  0  0
  2  3  2  0  0  0  0
  3  4  1  0  0  0  0
  3 24  1  0  0  0  0
  4  5  2  0  0  0  0
  4 25  1  0  0  0  0
  5  6  1  0  0  0  0
  5 17  1  0  0  0  0
  6  7  1  0  0  0  0
  6 26  1  0  0  0  0
  7  8  2  0  0  0  0
  7  9  1  0  0  0  0
  9 10  1  0  0  0  0
  9 27  1  0  0  0  0
 10 19  1  0  0  0  0
 10 16  1  0  0  0  0
 10 11  1  0  0  0  0
 11 12  2  0  0  0  0
 11 28  1  0  0  0  0
 12 13  1  0  0  0  0
 12 29  1  0  0  0  0
 13 20  1  0  0  0  0
 13 14  1  0  0  0  0
 13 16  1  0  0  0  0
 14 15  1  0  0  0  0
 14 30  1  0  0  0  0
 14 31  1  0  0  0  0
 15 32  1  0  0  0  0
 16 33  1  0  0  0  0
 16 34  1  0  0  0  0
 17 18  2  0  0  0  0
 18 35  1  0  0  0  0
M  END
> <s_m_source_file>
AV-unprocessed.smi

> <i_m_source_file_index>
2344

> <i_lp_mmshare_version>
43012

> <i_f3d_flags>
0

> <s_epik_input>
W0NIM11jMVtjSF1bY0hdYyhuW2NIXTEpW05IXUMoPU8pW05IXVtDQEBIXTJbQ0hdPVtDSF1bQ0BASF0oW0NIMl0yKVtDSDJdW09IXQ==

> <s_epik_cmdline>
J2VwaWtfcHl0aG9uJywgJy1waCcsICc3LjAnLCAnLXRuJywgJzgnLCAnLW1hJywgJzIwMCcsICctbWV0YWxfYmluZGluZycsICctaW1hZScsICc8aW5maWxlLm1hZT4nLCAnLW9tYWUnLCAnPG91dGZpbGUubWFlPic=

> <r_lp_tautomer_probability>
1

> <r_epik_Ionization_Penalty>
5.7643e-05

> <r_epik_Ionization_Penalty_Charging>
0

> <r_epik_Ionization_Penalty_Neutral>
5.7643e-05

> <r_epik_State_Penalty>
-0

> <r_epik_Charging_Adjusted_Penalty>
0

> <i_epik_Tot_Q>
0

> <i_epik_Tot_abs_Q>
0

> <r_epik_Metal_State_Penalty>
-0

> <b_epik_Metal_Only>
0

> <s_lp_Force_Field>
OPLS_2005

> <r_lp_Energy>
17.7036

> <b_lp_Chiralities_Consistent>
1

> <s_lp_Variant>
AV-unprocessed.smi:2344-3

> <Gold.Version>
5.8.1

> <Gold.Id.Protein>
6NUR|6NUR_protein|mol2

> <Gold.PLP.Fitness>
45.1231

> <Gold.PLP.PLP>
-36.9643

> <Gold.PLP.part.hbond>
-3.9868

> <Gold.PLP.part.metal>
0.0000

> <Gold.PLP.part.buried>
-4.5912

> <Gold.PLP.part.nonpolar>
-27.2567

> <Gold.PLP.part.repulsive>
0.2137

> <Gold.PLP.ligand.clash>
0.0000

> <Gold.PLP.ligand.torsion>
0.2472

> <Gold.PLP.Chemscore.Hbond>
2.8800

> <Gold.PLP.Chemscore.CHOScore>
0.0000

> <Gold.PLP.Chemscore.Metal>
0.0000

> <Gold.Chemscore.Hbonds>
donor molecule, donor type, donor heavy atom, donor atom, acceptor molecule, acceptor atom, score
      L1  H     6    26       P1  8028  0.85
      L1  H     9    27       P1  8028  0.88
      L1  H    15    32       P1  7948  1.00

> <Gold.PLP.Chemscore.Internal.Correction>
0.0133

> <Gold.Rescore>
     Score         DG    S(hbond)    S(metal)    S(lipo)     H(rot)  DE(clash)    DE(int)     intcor
     17.70     -20.80       2.85        0.00      89.43       1.82       0.50       2.60       ----

> <Gold.Chemscore.Fitness>
17.6999

> <Gold.Chemscore.DG>
-20.8018

> <Gold.Chemscore.ZeroCoef>
-5.4800

> <Gold.Chemscore.Hbond>
2.8483

> <Gold.Chemscore.Metal>
0.0000

> <Gold.Chemscore.Lipo>
89.4307

> <Gold.Chemscore.Internal_Hbond>
0.0000

> <Gold.Chemscore.DEClash>
0.4998

> <Gold.Chemscore.DEInternal>
2.6020

> <Gold.Chemscore.Rot>
1.8184

> <Gold.Chemscore.Internal.Correction>
   9.000000E+99

> <Gold.Chemscore.Hbonds>
donor molecule, donor type, donor heavy atom, donor atom, acceptor molecule, acceptor atom, score
      L1  H     6    26       P1  8028  0.68
      L1  H     9    27       P1  8028  0.85
      L1  H    15    32       P1  7948  1.00

> <Gold.Chemscore.Hbond.Weighted>
-9.5134

> <Gold.Chemscore.Metal.Weighted>
-0.0000

> <Gold.Chemscore.Lipo.Weighted>
-10.4634

> <Gold.Chemscore.Internal_Hbond.Weighted>
0.0000

> <Gold.Chemscore.DEClash.Weighted>
0.4998

> <Gold.Chemscore.DEInternal.Weighted>
2.6020

> <Gold.Chemscore.Rot.Weighted>
4.6551

> <Gold.Chemscore.Internal.Correction.Weighted>
   9.000000E+99

> <Gold.Protein.RotatedTorsions>
[ 6907 6896 6895 6894 ] final -117.67 input  -60.11 | X-H torsion
[ 7974 7965 7964 7962 ] final   68.03 input  175.53 | X-H torsion
[ 8008 7997 7996 7995 ] final  -99.67 input   59.86 | X-H torsion
[ 10167 10162 10161 10158 ] final  118.28 input  -65.29 | X-H torsion
[ 10718 10713 10712 10709 ] final   76.36 input   66.30 | X-H torsion
[ 10763 10752 10751 10750 ] final  100.71 input  -60.55 | X-H torsion
[ 11005 11000 10999 10996 ] final   33.95 input  -57.11 | X-H torsion

> <Gold.Protein.ActiveResidues>
 VAL166  LYS551  ARG553  GLY616  TRP617  ASP618  TYR619  PRO620  LYS621  CYS622 
 ASP623  PHE694  ASN695  SER759  ASP760  ASP761  ALA762  ILE779  LEU786  VAL792 
 PHE793  MET794  SER795  GLU796  ALA797  LYS798  CYS799  TRP800  GLU811  SER814 

> <Gold.Protein.RotatedAtoms>
  150.8156  133.8344  159.3162 H   0  0  0  0  0  0  0  0  0  0  0  0  # atno 6907 bound_to 6896
  151.6117  135.1038  160.0092 H   0  0  0  0  0  0  0  0  0  0  0  0  # atno 6908 bound_to 6896
  152.4247  133.7134  159.6549 H   0  0  0  0  0  0  0  0  0  0  0  0  # atno 6909 bound_to 6896
  145.8075  139.3014  143.1119 H   0  0  0  0  0  0  0  0  0  0  0  0  # atno 7974 bound_to 7965
  154.8180  140.0446  157.1391 H   0  0  0  0  0  0  0  0  0  0  0  0  # atno 8008 bound_to 7997
  154.9292  140.3037  155.5156 H   0  0  0  0  0  0  0  0  0  0  0  0  # atno 8009 bound_to 7997
  156.2978  140.2326  156.4350 H   0  0  0  0  0  0  0  0  0  0  0  0  # atno 8010 bound_to 7997
  139.6122  144.7084  151.2818 H   0  0  0  0  0  0  0  0  0  0  0  0  # atno 10167 bound_to 10162
  157.6670  130.9770  150.1485 H   0  0  0  0  0  0  0  0  0  0  0  0  # atno 10718 bound_to 10713
  153.3174  135.4069  155.1388 H   0  0  0  0  0  0  0  0  0  0  0  0  # atno 10763 bound_to 10752
  154.8592  135.3579  154.5642 H   0  0  0  0  0  0  0  0  0  0  0  0  # atno 10764 bound_to 10752
  153.6074  135.7069  153.5419 H   0  0  0  0  0  0  0  0  0  0  0  0  # atno 10765 bound_to 10752
  140.2578  134.3227  155.7868 H   0  0  0  0  0  0  0  0  0  0  0  0  # atno 11005 bound_to 11000
  145.9813  140.8680  143.0113 LP  0  0  0  0  0  0  0  0  0  0  0  0  # atno 17320 bound_to 7965
  144.6761  140.2084  143.7379 LP  0  0  0  0  0  0  0  0  0  0  0  0  # atno 17321 bound_to 7965
  140.7327  143.6816  150.7996 LP  0  0  0  0  0  0  0  0  0  0  0  0  # atno 17342 bound_to 10162
  140.0413  143.5343  152.2716 LP  0  0  0  0  0  0  0  0  0  0  0  0  # atno 17343 bound_to 10162
  156.2290  130.3680  149.8467 LP  0  0  0  0  0  0  0  0  0  0  0  0  # atno 17370 bound_to 10713
  156.6299  130.8661  151.3493 LP  0  0  0  0  0  0  0  0  0  0  0  0  # atno 17371 bound_to 10713
  141.2194  133.7391  156.9139 LP  0  0  0  0  0  0  0  0  0  0  0  0  # atno 17394 bound_to 11000
  140.1494  134.9240  157.2572 LP  0  0  0  0  0  0  0  0  0  0  0  0  # atno 17395 bound_to 11000

$$$$
