AV-unprocessed.smi:439|AV-procd|sdf|2580|dock2
  -GOLD-   2262022563D 1   1.00000     0.00000
 Structure written by MMmdl.
 45 46  0  0  0  0  0  0  0  0  2 V2000
  145.4353  130.4659  153.3186 C   0  0  0  0  0  0  0  0  0  0  0  0
  146.9327  130.4211  153.6515 C   0  0  0  0  0  0  0  0  0  0  0  0
  147.4120  131.6063  154.5050 C   0  0  0  0  0  0  0  0  0  0  0  0
  148.9356  131.6297  154.7305 C   0  0  0  0  0  0  0  0  0  0  0  0
  149.3393  132.7887  155.5553 N   0  0  0  0  0  0  0  0  0  0  0  0
  149.1640  134.1001  155.0371 C   0  0  0  0  0  0  0  0  0  0  0  0
  148.6191  134.2565  153.7702 N   0  0  0  0  0  0  0  0  0  0  0  0
  149.5039  135.1809  155.7902 C   0  0  0  0  0  0  0  0  0  0  0  0
  149.3647  136.5034  155.3121 N   0  0  0  0  0  0  0  0  0  0  0  0
  150.5922  137.3189  155.3122 C   0  0  0  0  0  0  0  0  0  0  0  0
  150.9389  137.8322  153.9056 C   0  0  0  0  0  0  0  0  0  0  0  0
  148.1742  137.0689  154.9447 C   0  0  0  0  0  0  0  0  0  0  0  0
  147.1627  136.3786  154.7968 O   0  0  0  0  0  0  0  0  0  0  0  0
  148.1452  138.5249  154.7692 C   0  0  0  0  0  0  0  0  0  0  0  0
  147.4871  139.0373  153.7038 C   0  0  0  0  0  0  0  0  0  0  0  0
  147.3474  140.3819  153.4641 O   0  0  0  0  0  0  0  0  0  0  0  0
  147.7407  141.2247  154.5411 C   0  0  0  0  0  0  0  0  0  0  0  0
  149.0063  140.6792  155.2165 C   0  0  0  0  0  0  0  0  0  0  0  0
  148.7730  139.3529  155.6724 O   0  0  0  0  0  0  0  0  0  0  0  0
  150.0913  134.9605  157.1192 C   0  0  0  0  0  0  0  0  0  0  0  0
  150.4337  135.9183  157.8131 O   0  0  0  0  0  0  0  0  0  0  0  0
  150.2435  133.6773  157.5391 N   0  5  0  0  0  0  0  0  0  0  0  0
  149.8924  132.5928  156.7915 C   0  0  0  0  0  0  0  0  0  0  0  0
  150.0646  131.4439  157.2013 O   0  0  0  0  0  0  0  0  0  0  0  0
  145.1632  129.6441  152.6559 H   0  0  0  0  0  0  0  0  0  0  0  0
  145.1713  131.3976  152.8178 H   0  0  0  0  0  0  0  0  0  0  0  0
  144.8214  130.3794  154.2148 H   0  0  0  0  0  0  0  0  0  0  0  0
  147.1722  129.4826  154.1526 H   0  0  0  0  0  0  0  0  0  0  0  0
  147.4938  130.4162  152.7166 H   0  0  0  0  0  0  0  0  0  0  0  0
  147.1169  132.5316  154.0086 H   0  0  0  0  0  0  0  0  0  0  0  0
  146.8904  131.6008  155.4628 H   0  0  0  0  0  0  0  0  0  0  0  0
  149.2720  130.6992  155.1861 H   0  0  0  0  0  0  0  0  0  0  0  0
  149.4450  131.6342  153.7656 H   0  0  0  0  0  0  0  0  0  0  0  0
  148.3442  133.4648  153.2072 H   0  0  0  0  0  0  0  0  0  0  0  0
  148.5308  135.1661  153.3404 H   0  0  0  0  0  0  0  0  0  0  0  0
  150.4775  138.1792  155.9724 H   0  0  0  0  0  0  0  0  0  0  0  0
  151.4302  136.7529  155.7223 H   0  0  0  0  0  0  0  0  0  0  0  0
  151.8426  138.4412  153.9292 H   0  0  0  0  0  0  0  0  0  0  0  0
  150.1349  138.4490  153.5030 H   0  0  0  0  0  0  0  0  0  0  0  0
  151.1110  137.0122  153.2083 H   0  0  0  0  0  0  0  0  0  0  0  0
  146.9818  138.4469  152.9528 H   0  0  0  0  0  0  0  0  0  0  0  0
  147.9144  142.2320  154.1619 H   0  0  0  0  0  0  0  0  0  0  0  0
  146.9241  141.2891  155.2615 H   0  0  0  0  0  0  0  0  0  0  0  0
  149.8461  140.6784  154.5199 H   0  0  0  0  0  0  0  0  0  0  0  0
  149.2905  141.3031  156.0639 H   0  0  0  0  0  0  0  0  0  0  0  0
  1  2  1  0  0  0  0
  1 25  1  0  0  0  0
  1 26  1  0  0  0  0
  1 27  1  0  0  0  0
  2  3  1  0  0  0  0
  2 28  1  0  0  0  0
  2 29  1  0  0  0  0
  3  4  1  0  0  0  0
  3 30  1  0  0  0  0
  3 31  1  0  0  0  0
  4  5  1  0  0  0  0
  4 32  1  0  0  0  0
  4 33  1  0  0  0  0
  5 23  1  0  0  0  0
  5  6  1  0  0  0  0
  6  7  1  0  0  0  0
  6  8  2  0  0  0  0
  7 34  1  0  0  0  0
  7 35  1  0  0  0  0
  8  9  1  0  0  0  0
  8 20  1  0  0  0  0
  9 10  1  0  0  0  0
  9 12  1  0  0  0  0
 10 11  1  0  0  0  0
 10 36  1  0  0  0  0
 10 37  1  0  0  0  0
 11 38  1  0  0  0  0
 11 39  1  0  0  0  0
 11 40  1  0  0  0  0
 12 13  2  0  0  0  0
 12 14  1  0  0  0  0
 14 19  1  0  0  0  0
 14 15  2  0  0  0  0
 15 16  1  0  0  0  0
 15 41  1  0  0  0  0
 16 17  1  0  0  0  0
 17 18  1  0  0  0  0
 17 42  1  0  0  0  0
 17 43  1  0  0  0  0
 18 19  1  0  0  0  0
 18 44  1  0  0  0  0
 18 45  1  0  0  0  0
 20 21  2  0  0  0  0
 20 22  1  0  0  0  0
 22 23  1  0  0  0  0
 23 24  2  0  0  0  0
M  CHG  1  22  -1
M  END
> <s_m_source_file>
AV-unprocessed.smi

> <i_m_source_file_index>
439

> <i_lp_mmshare_version>
43012

> <i_f3d_flags>
0

> <s_epik_input>
W0NIM11bQ0gyXVtDSDJdW0NIMl1uMWMoW05IMl0pYyhjKD1PKVtuSF1jMT1PKU4oW0NIMl1bQ0gzXSlDKD1PKUMyPVtDSF1PW0NIMl1bQ0gyXU8y

> <s_epik_cmdline>
J2VwaWtfcHl0aG9uJywgJy1waCcsICc3LjAnLCAnLXRuJywgJzgnLCAnLW1hJywgJzIwMCcsICctbWV0YWxfYmluZGluZycsICctaW1hZScsICc8aW5maWxlLm1hZT4nLCAnLW9tYWUnLCAnPG91dGZpbGUubWFlPic=

> <r_lp_tautomer_probability>
1

> <r_epik_Ionization_Penalty>
6.21372

> <r_epik_Ionization_Penalty_Charging>
0.188923

> <r_epik_Ionization_Penalty_Neutral>
6.0248

> <r_epik_State_Penalty>
6.02477

> <r_epik_Charging_Adjusted_Penalty>
6.2137

> <i_epik_Tot_Q>
-1

> <i_epik_Tot_abs_Q>
1

> <r_epik_Metal_State_Penalty>
1.95433

> <b_epik_Metal_Only>
1

> <s_epik_Chemistry_Notes>
This compound has an imine and may undergo hydrolysis.

> <s_lp_Force_Field>
OPLS_2005

> <r_lp_Energy>
37.3971

> <b_lp_Chiralities_Consistent>
1

> <s_lp_Variant>
AV-unprocessed.smi:439-2

> <Gold.Version>
5.8.1

> <Gold.Id.Protein>
6NUR|6NUR_protein|mol2

> <Gold.PLP.Fitness>
35.6993

> <Gold.PLP.PLP>
-25.9920

> <Gold.PLP.part.hbond>
-2.9565

> <Gold.PLP.part.metal>
0.0000

> <Gold.PLP.part.buried>
-0.5083

> <Gold.PLP.part.nonpolar>
-23.5813

> <Gold.PLP.part.repulsive>
1.8223

> <Gold.PLP.ligand.clash>
0.0000

> <Gold.PLP.ligand.torsion>
1.8788

> <Gold.PLP.Chemscore.Hbond>
3.0000

> <Gold.PLP.Chemscore.CHOScore>
0.2986

> <Gold.PLP.Chemscore.Metal>
0.0000

> <Gold.Chemscore.Hbonds>
donor molecule, donor type, donor heavy atom, donor atom, acceptor molecule, acceptor atom, score
      L1  H     7    35       P1  7948  0.90
      P1  H  6896  6909       L1    22  1.95

> <Gold.PLP.Chemscore.Internal.Correction>
3.5689

> <Gold.Rescore>
     Score         DG    S(hbond)    S(metal)    S(lipo)     H(rot)  DE(clash)    DE(int)     intcor
      8.11     -13.05       1.54        0.00      56.44       1.63       0.37       4.56       ----

> <Gold.Chemscore.Fitness>
8.1134

> <Gold.Chemscore.DG>
-13.0482

> <Gold.Chemscore.ZeroCoef>
-5.4800

> <Gold.Chemscore.Hbond>
1.5401

> <Gold.Chemscore.Metal>
0.0000

> <Gold.Chemscore.Lipo>
56.4416

> <Gold.Chemscore.Internal_Hbond>
0.0000

> <Gold.Chemscore.DEClash>
0.3702

> <Gold.Chemscore.DEInternal>
4.5646

> <Gold.Chemscore.Rot>
1.6325

> <Gold.Chemscore.Internal.Correction>
   9.000000E+99

> <Gold.Chemscore.Hbonds>
donor molecule, donor type, donor heavy atom, donor atom, acceptor molecule, acceptor atom, score
      L1  H     7    35       P1  7948  0.76
      P1  H  6896  6907       L1    21  0.01
      P1  H  6896  6909       L1    22  0.61

> <Gold.Chemscore.Hbond.Weighted>
-5.1438

> <Gold.Chemscore.Metal.Weighted>
-0.0000

> <Gold.Chemscore.Lipo.Weighted>
-6.6037

> <Gold.Chemscore.Internal_Hbond.Weighted>
0.0000

> <Gold.Chemscore.DEClash.Weighted>
0.3702

> <Gold.Chemscore.DEInternal.Weighted>
4.5646

> <Gold.Chemscore.Rot.Weighted>
4.1793

> <Gold.Chemscore.Internal.Correction.Weighted>
   9.000000E+99

> <Gold.Protein.RotatedTorsions>
[ 6907 6896 6895 6894 ] final   -6.11 input  -60.11 | X-H torsion
[ 7974 7965 7964 7962 ] final  -60.87 input  175.53 | X-H torsion
[ 8008 7997 7996 7995 ] final   26.04 input   59.86 | X-H torsion
[ 10167 10162 10161 10158 ] final  -62.65 input  -65.29 | X-H torsion
[ 10718 10713 10712 10709 ] final  -96.77 input   66.30 | X-H torsion
[ 10763 10752 10751 10750 ] final    5.47 input  -60.55 | X-H torsion
[ 11005 11000 10999 10996 ] final  -38.93 input  -57.11 | X-H torsion

> <Gold.Protein.ActiveResidues>
 VAL166  LYS551  ARG553  GLY616  TRP617  ASP618  TYR619  PRO620  LYS621  CYS622 
 ASP623  PHE694  ASN695  SER759  ASP760  ASP761  ALA762  ILE779  LEU786  VAL792 
 PHE793  MET794  SER795  GLU796  ALA797  LYS798  CYS799  TRP800  GLU811  SER814 

> <Gold.Protein.RotatedAtoms>
  151.4709  135.1045  159.9750 H   0  0  0  0  0  0  0  0  0  0  0  0  # atno 6907 bound_to 6896
  152.4817  133.8267  159.7092 H   0  0  0  0  0  0  0  0  0  0  0  0  # atno 6908 bound_to 6896
  150.8894  133.7203  159.2936 H   0  0  0  0  0  0  0  0  0  0  0  0  # atno 6909 bound_to 6896
  145.8103  140.8603  143.0185 H   0  0  0  0  0  0  0  0  0  0  0  0  # atno 7974 bound_to 7965
  155.0210  140.3147  155.4793 H   0  0  0  0  0  0  0  0  0  0  0  0  # atno 8008 bound_to 7997
  156.2892  140.2197  156.5270 H   0  0  0  0  0  0  0  0  0  0  0  0  # atno 8009 bound_to 7997
  154.7452  140.0470  157.0833 H   0  0  0  0  0  0  0  0  0  0  0  0  # atno 8010 bound_to 7997
  140.5924  143.2344  151.6110 H   0  0  0  0  0  0  0  0  0  0  0  0  # atno 10167 bound_to 10162
  156.0069  130.5165  150.6275 H   0  0  0  0  0  0  0  0  0  0  0  0  # atno 10718 bound_to 10713
  153.2590  135.6921  153.7599 H   0  0  0  0  0  0  0  0  0  0  0  0  # atno 10763 bound_to 10752
  153.6665  135.3351  155.3142 H   0  0  0  0  0  0  0  0  0  0  0  0  # atno 10764 bound_to 10752
  154.8423  135.4489  154.1573 H   0  0  0  0  0  0  0  0  0  0  0  0  # atno 10765 bound_to 10752
  141.0065  133.6929  156.2119 H   0  0  0  0  0  0  0  0  0  0  0  0  # atno 11005 bound_to 11000
  144.6758  140.0385  143.7481 LP  0  0  0  0  0  0  0  0  0  0  0  0  # atno 17320 bound_to 7965
  145.9785  139.2923  143.1056 LP  0  0  0  0  0  0  0  0  0  0  0  0  # atno 17321 bound_to 7965
  139.5236  144.3128  152.0978 LP  0  0  0  0  0  0  0  0  0  0  0  0  # atno 17342 bound_to 10162
  140.2295  144.4383  150.6306 LP  0  0  0  0  0  0  0  0  0  0  0  0  # atno 17343 bound_to 10162
  157.4079  131.0819  151.1248 LP  0  0  0  0  0  0  0  0  0  0  0  0  # atno 17370 bound_to 10713
  157.1889  130.6343  149.5697 LP  0  0  0  0  0  0  0  0  0  0  0  0  # atno 17371 bound_to 10713
  140.6805  134.4772  157.5589 LP  0  0  0  0  0  0  0  0  0  0  0  0  # atno 17394 bound_to 11000
  139.9066  134.8436  156.1684 LP  0  0  0  0  0  0  0  0  0  0  0  0  # atno 17395 bound_to 11000

$$$$
