AV-unprocessed.smi:687|AV-procd|sdf|3353|dock3
  -GOLD-   22720 0323D 1   1.00000     0.00000
 Structure written by MMmdl.
 40 41  0  0  0  0  0  0  0  0  1 V2000
  149.3124  140.4446  156.5524 O   0  0  0  0  0  0  0  0  0  0  0  0
  149.1736  141.6254  156.2363 C   0  0  0  0  0  0  0  0  0  0  0  0
  149.9373  142.6371  156.6819 N   0  0  0  0  0  0  0  0  0  0  0  0
  151.0171  142.5799  157.6027 C   0  0  0  0  0  0  0  0  0  0  0  0
  151.6360  143.7898  157.9784 C   0  0  0  0  0  0  0  0  0  0  0  0
  152.6965  143.7590  158.9036 C   0  0  0  0  0  0  0  0  0  0  0  0
  153.0908  142.5130  159.4286 C   0  0  0  0  0  0  0  0  0  0  0  0
  152.4980  141.3475  159.0939 N   0  0  0  0  0  0  0  0  0  0  0  0
  151.4834  141.3842  158.2030 C   0  0  0  0  0  0  0  0  0  0  0  0
  148.2470  142.0707  155.3707 N   0  0  0  0  0  0  0  0  0  0  0  0
  147.2326  141.2981  154.6346 C   0  0  0  0  0  0  0  0  0  0  0  0
  147.8821  140.0962  153.8906 C   0  0  0  0  0  0  0  0  0  0  0  0
  146.9381  139.2689  152.9962 C   0  0  0  0  0  0  0  0  0  0  0  0
  147.6928  138.3676  152.2156 O   0  0  0  0  0  0  0  0  0  0  0  0
  146.1268  140.7698  155.5920 C   0  0  0  0  0  0  0  0  0  0  0  0
  145.3245  141.8934  156.2718 C   0  0  0  0  0  0  0  0  0  0  0  0
  144.6875  142.8219  155.2297 C   0  0  0  0  0  0  0  0  0  0  0  0
  145.7481  143.3822  154.2725 C   0  0  0  0  0  0  0  0  0  0  0  0
  146.5636  142.2544  153.6108 C   0  0  0  0  0  0  0  0  0  0  0  0
  149.7703  143.5399  156.2627 H   0  0  0  0  0  0  0  0  0  0  0  0
  151.3081  144.7302  157.5599 H   0  0  0  0  0  0  0  0  0  0  0  0
  153.1949  144.6686  159.2046 H   0  0  0  0  0  0  0  0  0  0  0  0
  153.9004  142.4519  160.1406 H   0  0  0  0  0  0  0  0  0  0  0  0
  151.0299  140.4278  157.9933 H   0  0  0  0  0  0  0  0  0  0  0  0
  148.2380  143.0647  155.1957 H   0  0  0  0  0  0  0  0  0  0  0  0
  148.7104  140.4536  153.2778 H   0  0  0  0  0  0  0  0  0  0  0  0
  148.3404  139.4314  154.6243 H   0  0  0  0  0  0  0  0  0  0  0  0
  146.2287  138.6952  153.5914 H   0  0  0  0  0  0  0  0  0  0  0  0
  146.3636  139.9089  152.3264 H   0  0  0  0  0  0  0  0  0  0  0  0
  148.4003  138.8427  151.8069 H   0  0  0  0  0  0  0  0  0  0  0  0
  145.4326  140.1466  155.0263 H   0  0  0  0  0  0  0  0  0  0  0  0
  146.5468  140.1125  156.3532 H   0  0  0  0  0  0  0  0  0  0  0  0
  144.5478  141.4616  156.9035 H   0  0  0  0  0  0  0  0  0  0  0  0
  145.9724  142.4685  156.9344 H   0  0  0  0  0  0  0  0  0  0  0  0
  143.9363  142.2721  154.6613 H   0  0  0  0  0  0  0  0  0  0  0  0
  144.1637  143.6387  155.7272 H   0  0  0  0  0  0  0  0  0  0  0  0
  145.2665  143.9879  153.5046 H   0  0  0  0  0  0  0  0  0  0  0  0
  146.4132  144.0538  154.8162 H   0  0  0  0  0  0  0  0  0  0  0  0
  147.3130  142.7035  152.9590 H   0  0  0  0  0  0  0  0  0  0  0  0
  145.9019  141.6835  152.9578 H   0  0  0  0  0  0  0  0  0  0  0  0
  1  2  2  0  0  0  0
  2  3  1  0  0  0  0
  2 10  1  0  0  0  0
  3  4  1  0  0  0  0
  3 20  1  0  0  0  0
  4  9  1  0  0  0  0
  4  5  2  0  0  0  0
  5  6  1  0  0  0  0
  5 21  1  0  0  0  0
  6  7  2  0  0  0  0
  6 22  1  0  0  0  0
  7  8  1  0  0  0  0
  7 23  1  0  0  0  0
  8  9  2  0  0  0  0
  9 24  1  0  0  0  0
 10 11  1  0  0  0  0
 10 25  1  0  0  0  0
 11 19  1  0  0  0  0
 11 12  1  0  0  0  0
 11 15  1  0  0  0  0
 12 13  1  0  0  0  0
 12 26  1  0  0  0  0
 12 27  1  0  0  0  0
 13 14  1  0  0  0  0
 13 28  1  0  0  0  0
 13 29  1  0  0  0  0
 14 30  1  0  0  0  0
 15 16  1  0  0  0  0
 15 31  1  0  0  0  0
 15 32  1  0  0  0  0
 16 17  1  0  0  0  0
 16 33  1  0  0  0  0
 16 34  1  0  0  0  0
 17 18  1  0  0  0  0
 17 35  1  0  0  0  0
 17 36  1  0  0  0  0
 18 19  1  0  0  0  0
 18 37  1  0  0  0  0
 18 38  1  0  0  0  0
 19 39  1  0  0  0  0
 19 40  1  0  0  0  0
M  END
> <s_m_source_file>
AV-unprocessed.smi

> <i_m_source_file_index>
687

> <i_lp_mmshare_version>
43012

> <i_f3d_flags>
0

> <s_epik_input>
W0NIMl0xW0NIMl1bQ0gyXVtDSDJdW0NIMl1DMShbQ0gyXVtDSDJdW09IXSlbTkhdQyg9TylbTkhdYzJbY0hdW2NIXVtjSF1uW2NIXTI=

> <s_epik_cmdline>
J2VwaWtfcHl0aG9uJywgJy1waCcsICc3LjAnLCAnLXRuJywgJzgnLCAnLW1hJywgJzIwMCcsICctbWV0YWxfYmluZGluZycsICctaW1hZScsICc8aW5maWxlLm1hZT4nLCAnLW9tYWUnLCAnPG91dGZpbGUubWFlPic=

> <r_epik_Ionization_Penalty>
0.00504975

> <r_epik_Ionization_Penalty_Charging>
0

> <r_epik_Ionization_Penalty_Neutral>
0.00504975

> <r_epik_State_Penalty>
0.00364262

> <r_epik_Charging_Adjusted_Penalty>
0.00364262

> <i_epik_Tot_Q>
0

> <i_epik_Tot_abs_Q>
0

> <r_epik_Metal_State_Penalty>
-0

> <b_epik_Metal_Only>
0

> <s_lp_Force_Field>
OPLS_2005

> <r_lp_Energy>
17.0091

> <b_lp_Chiralities_Consistent>
1

> <s_lp_Variant>
AV-unprocessed.smi:687-1

> <Gold.Version>
5.8.1

> <Gold.Id.Protein>
6NUR|6NUR_protein|mol2

> <Gold.PLP.Fitness>
46.9362

> <Gold.PLP.PLP>
-38.3668

> <Gold.PLP.part.hbond>
-4.0447

> <Gold.PLP.part.metal>
0.0000

> <Gold.PLP.part.buried>
-5.3681

> <Gold.PLP.part.nonpolar>
-29.5849

> <Gold.PLP.part.repulsive>
0.2118

> <Gold.PLP.ligand.clash>
0.0000

> <Gold.PLP.ligand.torsion>
0.1592

> <Gold.PLP.Chemscore.Hbond>
2.9600

> <Gold.PLP.Chemscore.CHOScore>
0.0000

> <Gold.PLP.Chemscore.Metal>
0.0000

> <Gold.Chemscore.Hbonds>
donor molecule, donor type, donor heavy atom, donor atom, acceptor molecule, acceptor atom, score
      L1  H     3    20       P1  8028  1.00
      L1  H    10    25       P1  8028  0.98
      L1  H    14    30       P1  7957  1.00

> <Gold.PLP.Chemscore.Internal.Correction>
0.0078

> <Gold.Rescore>
     Score         DG    S(hbond)    S(metal)    S(lipo)     H(rot)  DE(clash)    DE(int)     intcor
     18.92     -20.41       2.85        0.00      90.89       2.04       0.15       1.34       ----

> <Gold.Chemscore.Fitness>
18.9201

> <Gold.Chemscore.DG>
-20.4059

> <Gold.Chemscore.ZeroCoef>
-5.4800

> <Gold.Chemscore.Hbond>
2.8487

> <Gold.Chemscore.Metal>
0.0000

> <Gold.Chemscore.Lipo>
90.8891

> <Gold.Chemscore.Internal_Hbond>
0.0000

> <Gold.Chemscore.DEClash>
0.1457

> <Gold.Chemscore.DEInternal>
1.3401

> <Gold.Chemscore.Rot>
2.0402

> <Gold.Chemscore.Internal.Correction>
   9.000000E+99

> <Gold.Chemscore.Hbonds>
donor molecule, donor type, donor heavy atom, donor atom, acceptor molecule, acceptor atom, score
      L1  H     3    20       P1  8028  0.97
      L1  H    10    25       P1  8028  0.91
      L1  H    14    30       P1  7957  0.82

> <Gold.Chemscore.Hbond.Weighted>
-9.5148

> <Gold.Chemscore.Metal.Weighted>
-0.0000

> <Gold.Chemscore.Lipo.Weighted>
-10.6340

> <Gold.Chemscore.Internal_Hbond.Weighted>
0.0000

> <Gold.Chemscore.DEClash.Weighted>
0.1457

> <Gold.Chemscore.DEInternal.Weighted>
1.3401

> <Gold.Chemscore.Rot.Weighted>
5.2228

> <Gold.Chemscore.Internal.Correction.Weighted>
   9.000000E+99

> <Gold.Protein.RotatedTorsions>
[ 6907 6896 6895 6894 ] final   29.19 input  -60.11 | X-H torsion
[ 7974 7965 7964 7962 ] final   92.37 input  175.53 | X-H torsion
[ 8008 7997 7996 7995 ] final   69.94 input   59.86 | X-H torsion
[ 10167 10162 10161 10158 ] final -172.62 input  -65.29 | X-H torsion
[ 10718 10713 10712 10709 ] final    0.94 input   66.30 | X-H torsion
[ 10763 10752 10751 10750 ] final   29.75 input  -60.55 | X-H torsion
[ 11005 11000 10999 10996 ] final  -63.51 input  -57.11 | X-H torsion

> <Gold.Protein.ActiveResidues>
 VAL166  LYS551  ARG553  GLY616  TRP617  ASP618  TYR619  PRO620  LYS621  CYS622 
 ASP623  PHE694  ASN695  SER759  ASP760  ASP761  ALA762  ILE779  LEU786  VAL792 
 PHE793  MET794  SER795  GLU796  ALA797  LYS798  CYS799  TRP800  GLU811  SER814 

> <Gold.Protein.RotatedAtoms>
  152.0280  134.9784  160.0571 H   0  0  0  0  0  0  0  0  0  0  0  0  # atno 6907 bound_to 6896
  152.1272  133.4382  159.4712 H   0  0  0  0  0  0  0  0  0  0  0  0  # atno 6908 bound_to 6896
  150.6853  134.2382  159.4505 H   0  0  0  0  0  0  0  0  0  0  0  0  # atno 6909 bound_to 6896
  145.4932  139.2276  143.2818 H   0  0  0  0  0  0  0  0  0  0  0  0  # atno 7974 bound_to 7965
  155.7313  140.3492  155.5060 H   0  0  0  0  0  0  0  0  0  0  0  0  # atno 8008 bound_to 7997
  155.9180  140.1062  157.1250 H   0  0  0  0  0  0  0  0  0  0  0  0  # atno 8009 bound_to 7997
  154.4065  140.1255  156.4629 H   0  0  0  0  0  0  0  0  0  0  0  0  # atno 8010 bound_to 7997
  139.5734  144.1589  152.1416 H   0  0  0  0  0  0  0  0  0  0  0  0  # atno 10167 bound_to 10162
  156.8409  130.5520  149.5678 H   0  0  0  0  0  0  0  0  0  0  0  0  # atno 10718 bound_to 10713
  153.0411  135.6481  154.0939 H   0  0  0  0  0  0  0  0  0  0  0  0  # atno 10763 bound_to 10752
  154.0646  135.2885  155.3320 H   0  0  0  0  0  0  0  0  0  0  0  0  # atno 10764 bound_to 10752
  154.6635  135.5383  153.8112 H   0  0  0  0  0  0  0  0  0  0  0  0  # atno 10765 bound_to 10752
  141.1395  133.6653  156.5692 H   0  0  0  0  0  0  0  0  0  0  0  0  # atno 11005 bound_to 11000
  146.2271  140.5727  142.8991 LP  0  0  0  0  0  0  0  0  0  0  0  0  # atno 17320 bound_to 7965
  144.7822  140.5863  143.6598 LP  0  0  0  0  0  0  0  0  0  0  0  0  # atno 17321 bound_to 7965
  140.1126  144.5443  150.6915 LP  0  0  0  0  0  0  0  0  0  0  0  0  # atno 17342 bound_to 10162
  140.7018  143.2440  151.4843 LP  0  0  0  0  0  0  0  0  0  0  0  0  # atno 17343 bound_to 10162
  156.0881  130.5874  150.9685 LP  0  0  0  0  0  0  0  0  0  0  0  0  # atno 17370 bound_to 10713
  157.6356  131.0916  150.8355 LP  0  0  0  0  0  0  0  0  0  0  0  0  # atno 17371 bound_to 10713
  140.3926  134.7426  157.4731 LP  0  0  0  0  0  0  0  0  0  0  0  0  # atno 17394 bound_to 11000
  140.0555  134.6070  155.8811 LP  0  0  0  0  0  0  0  0  0  0  0  0  # atno 17395 bound_to 11000

$$$$
