AV-unprocessed.smi:10|AV-procd|sdf|54|dock6
  -GOLD-   2262015173D 1   1.00000     0.00000
 Structure written by MMmdl.
 34 36  0  0  0  0  0  0  0  0  1 V2000
  152.6282  143.5589  162.1615 C   0  0  0  0  0  0  0  0  0  0  0  0
  152.8122  142.5613  161.1278 N   0  0  0  0  0  0  0  0  0  0  0  0
  153.6423  141.5017  161.1524 C   0  0  0  0  0  0  0  0  0  0  0  0
  153.6158  140.7374  160.0618 N   0  0  0  0  0  0  0  0  0  0  0  0
  152.6733  141.3833  159.2695 C   0  0  0  0  0  0  0  0  0  0  0  0
  152.1656  141.0589  157.9167 C   0  0  0  0  0  0  0  0  0  0  0  0
  152.5551  140.0770  157.2839 O   0  0  0  0  0  0  0  0  0  0  0  0
  151.2373  141.9539  157.4640 N   0  0  0  0  0  0  0  0  0  0  0  0
  150.6286  141.8018  156.1334 C   0  0  0  0  0  0  0  0  0  0  0  0
  149.2113  141.1924  156.2035 C   0  0  1  0  0  0  0  0  0  0  0  0
  148.3437  142.1484  156.7817 O   0  0  0  0  0  0  0  0  0  0  0  0
  148.6808  140.8218  154.8150 C   0  0  0  0  0  0  0  0  0  0  0  0
  148.1034  141.8900  153.8722 C   0  0  0  0  0  0  0  0  0  0  0  0
  147.1392  140.8255  153.3379 C   0  0  0  0  0  0  0  0  0  0  0  0
  147.3612  140.0518  154.6421 C   0  0  0  0  0  0  0  0  0  0  0  0
  150.7995  143.0691  158.2402 C   0  0  0  0  0  0  0  0  0  0  0  0
  151.2279  143.3797  159.4361 N   0  0  0  0  0  0  0  0  0  0  0  0
  152.1729  142.4903  159.8962 C   0  0  0  0  0  0  0  0  0  0  0  0
  153.2329  143.3141  163.0352 H   0  0  0  0  0  0  0  0  0  0  0  0
  151.5787  143.5947  162.4548 H   0  0  0  0  0  0  0  0  0  0  0  0
  152.9284  144.5367  161.7843 H   0  0  0  0  0  0  0  0  0  0  0  0
  154.2850  141.2842  161.9929 H   0  0  0  0  0  0  0  0  0  0  0  0
  150.6149  142.7423  155.5782 H   0  0  0  0  0  0  0  0  0  0  0  0
  151.2712  141.1504  155.5380 H   0  0  0  0  0  0  0  0  0  0  0  0
  149.2092  140.3024  156.8341 H   0  0  0  0  0  0  0  0  0  0  0  0
  148.5651  143.0000  156.4368 H   0  0  0  0  0  0  0  0  0  0  0  0
  149.4525  140.2773  154.2657 H   0  0  0  0  0  0  0  0  0  0  0  0
  147.5885  142.6962  154.3970 H   0  0  0  0  0  0  0  0  0  0  0  0
  148.8095  142.2776  153.1371 H   0  0  0  0  0  0  0  0  0  0  0  0
  146.1176  141.1725  153.1809 H   0  0  0  0  0  0  0  0  0  0  0  0
  147.5291  140.3023  152.4634 H   0  0  0  0  0  0  0  0  0  0  0  0
  147.4760  138.9746  154.5188 H   0  0  0  0  0  0  0  0  0  0  0  0
  146.6131  140.2901  155.3995 H   0  0  0  0  0  0  0  0  0  0  0  0
  150.0406  143.6765  157.7440 H   0  0  0  0  0  0  0  0  0  0  0  0
  1  2  1  0  0  0  0
  1 19  1  0  0  0  0
  1 20  1  0  0  0  0
  1 21  1  0  0  0  0
  2 18  1  0  0  0  0
  2  3  1  0  0  0  0
  3  4  2  0  0  0  0
  3 22  1  0  0  0  0
  4  5  1  0  0  0  0
  5 18  2  0  0  0  0
  5  6  1  0  0  0  0
  6  7  2  0  0  0  0
  6  8  1  0  0  0  0
  8  9  1  0  0  0  0
  8 16  1  0  0  0  0
  9 10  1  0  0  0  0
  9 23  1  0  0  0  0
  9 24  1  0  0  0  0
 10 11  1  0  0  0  0
 10 12  1  0  0  0  0
 10 25  1  0  0  0  0
 11 26  1  0  0  0  0
 12 15  1  0  0  0  0
 12 13  1  0  0  0  0
 12 27  1  0  0  0  0
 13 14  1  0  0  0  0
 13 28  1  0  0  0  0
 13 29  1  0  0  0  0
 14 15  1  0  0  0  0
 14 30  1  0  0  0  0
 14 31  1  0  0  0  0
 15 32  1  0  0  0  0
 15 33  1  0  0  0  0
 16 17  2  0  0  0  0
 16 34  1  0  0  0  0
 17 18  1  0  0  0  0
M  END
> <s_m_source_file>
AV-unprocessed.smi

> <i_m_source_file_index>
10

> <i_lp_mmshare_version>
43012

> <i_f3d_flags>
0

> <s_epik_input>
bjFbY0hdbihbQ0gzXSljKGMxMiluW2NIXW4oYzI9TylbQ0gyXVtDQEhdKFtPSF0pW0NIXTNbQ0gyXVtDSDJdW0NIMl0z

> <s_epik_cmdline>
J2VwaWtfcHl0aG9uJywgJy1waCcsICc3LjAnLCAnLXRuJywgJzgnLCAnLW1hJywgJzIwMCcsICctbWV0YWxfYmluZGluZycsICctaW1hZScsICc8aW5maWxlLm1hZT4nLCAnLW9tYWUnLCAnPG91dGZpbGUubWFlPic=

> <r_lp_tautomer_probability>
1

> <r_epik_Ionization_Penalty>
0.0003743

> <r_epik_Ionization_Penalty_Charging>
2.98177e-12

> <r_epik_Ionization_Penalty_Neutral>
0.000374299

> <r_epik_State_Penalty>
0.000224514

> <r_epik_Charging_Adjusted_Penalty>
0.000224514

> <i_epik_Tot_Q>
0

> <i_epik_Tot_abs_Q>
0

> <r_epik_Metal_State_Penalty>
-0

> <b_epik_Metal_Only>
0

> <s_lp_Force_Field>
OPLS_2005

> <r_lp_Energy>
33.6231

> <b_lp_Chiralities_Consistent>
1

> <s_lp_Variant>
AV-unprocessed.smi:10-2

> <Gold.Version>
5.8.1

> <Gold.Id.Protein>
6NUR|6NUR_protein|mol2

> <Gold.PLP.Fitness>
46.1528

> <Gold.PLP.PLP>
-38.0879

> <Gold.PLP.part.hbond>
-2.0000

> <Gold.PLP.part.metal>
0.0000

> <Gold.PLP.part.buried>
-5.0953

> <Gold.PLP.part.nonpolar>
-31.0390

> <Gold.PLP.part.repulsive>
0.0385

> <Gold.PLP.ligand.clash>
0.0000

> <Gold.PLP.ligand.torsion>
0.5069

> <Gold.PLP.Chemscore.Hbond>
2.0000

> <Gold.PLP.Chemscore.CHOScore>
1.0000

> <Gold.PLP.Chemscore.Metal>
0.0000

> <Gold.Chemscore.Hbonds>
donor molecule, donor type, donor heavy atom, donor atom, acceptor molecule, acceptor atom, score
      L1  H    11    26       P1  8028  1.00
      P1  H  7997  8009       L1     7  1.00
      L1  C    16    34       P1  8028  0.87

> <Gold.PLP.Chemscore.Internal.Correction>
0.0787

> <Gold.Rescore>
     Score         DG    S(hbond)    S(metal)    S(lipo)     H(rot)  DE(clash)    DE(int)     intcor
     10.19     -12.92       1.81        0.00      61.84       2.28       1.35       1.38       ----

> <Gold.Chemscore.Fitness>
10.1947

> <Gold.Chemscore.DG>
-12.9184

> <Gold.Chemscore.ZeroCoef>
-5.4800

> <Gold.Chemscore.Hbond>
1.8103

> <Gold.Chemscore.Metal>
0.0000

> <Gold.Chemscore.Lipo>
61.8373

> <Gold.Chemscore.Internal_Hbond>
0.0000

> <Gold.Chemscore.DEClash>
1.3481

> <Gold.Chemscore.DEInternal>
1.3756

> <Gold.Chemscore.Rot>
2.2824

> <Gold.Chemscore.Internal.Correction>
   9.000000E+99

> <Gold.Chemscore.Hbonds>
donor molecule, donor type, donor heavy atom, donor atom, acceptor molecule, acceptor atom, score
      L1  H    11    26       P1  8028  0.88
      P1  H  7997  8009       L1     7  0.85

> <Gold.Chemscore.Hbond.Weighted>
-6.0465

> <Gold.Chemscore.Metal.Weighted>
-0.0000

> <Gold.Chemscore.Lipo.Weighted>
-7.2350

> <Gold.Chemscore.Internal_Hbond.Weighted>
0.0000

> <Gold.Chemscore.DEClash.Weighted>
1.3481

> <Gold.Chemscore.DEInternal.Weighted>
1.3756

> <Gold.Chemscore.Rot.Weighted>
5.8431

> <Gold.Chemscore.Internal.Correction.Weighted>
   9.000000E+99

> <Gold.Protein.RotatedTorsions>
[ 6907 6896 6895 6894 ] final  -67.84 input  -60.11 | X-H torsion
[ 7974 7965 7964 7962 ] final  103.60 input  175.53 | X-H torsion
[ 8008 7997 7996 7995 ] final  166.63 input   59.86 | X-H torsion
[ 10167 10162 10161 10158 ] final   66.72 input  -65.29 | X-H torsion
[ 10718 10713 10712 10709 ] final  -76.79 input   66.30 | X-H torsion
[ 10763 10752 10751 10750 ] final    6.31 input  -60.55 | X-H torsion
[ 11005 11000 10999 10996 ] final   -9.50 input  -57.11 | X-H torsion

> <Gold.Protein.ActiveResidues>
 VAL166  LYS551  ARG553  GLY616  TRP617  ASP618  TYR619  PRO620  LYS621  CYS622 
 ASP623  PHE694  ASN695  SER759  ASP760  ASP761  ALA762  ILE779  LEU786  VAL792 
 PHE793  MET794  SER795  GLU796  ALA797  LYS798  CYS799  TRP800  GLU811  SER814 

> <Gold.Protein.RotatedAtoms>
  150.7388  134.5824  159.5945 H   0  0  0  0  0  0  0  0  0  0  0  0  # atno 6907 bound_to 6896
  152.3234  134.7348  160.0317 H   0  0  0  0  0  0  0  0  0  0  0  0  # atno 6908 bound_to 6896
  151.7856  133.3318  159.3521 H   0  0  0  0  0  0  0  0  0  0  0  0  # atno 6909 bound_to 6896
  145.3438  139.2456  143.3595 H   0  0  0  0  0  0  0  0  0  0  0  0  # atno 7974 bound_to 7965
  156.1702  140.1638  156.8460 H   0  0  0  0  0  0  0  0  0  0  0  0  # atno 8008 bound_to 7997
  154.5249  140.0769  156.8275 H   0  0  0  0  0  0  0  0  0  0  0  0  # atno 8009 bound_to 7997
  155.3527  140.3391  155.4242 H   0  0  0  0  0  0  0  0  0  0  0  0  # atno 8010 bound_to 7997
  140.0974  144.4934  150.7059 H   0  0  0  0  0  0  0  0  0  0  0  0  # atno 10167 bound_to 10162
  156.0164  130.4474  150.3246 H   0  0  0  0  0  0  0  0  0  0  0  0  # atno 10718 bound_to 10713
  153.2492  135.6912  153.7697 H   0  0  0  0  0  0  0  0  0  0  0  0  # atno 10763 bound_to 10752
  153.6798  135.3330  155.3176 H   0  0  0  0  0  0  0  0  0  0  0  0  # atno 10764 bound_to 10752
  154.8387  135.4520  154.1443 H   0  0  0  0  0  0  0  0  0  0  0  0  # atno 10765 bound_to 10752
  140.7348  133.8719  155.8921 H   0  0  0  0  0  0  0  0  0  0  0  0  # atno 11005 bound_to 11000
  146.2996  140.4040  142.8709 LP  0  0  0  0  0  0  0  0  0  0  0  0  # atno 17320 bound_to 7965
  144.8770  140.7349  143.6011 LP  0  0  0  0  0  0  0  0  0  0  0  0  # atno 17321 bound_to 7965
  140.6996  143.2426  151.4902 LP  0  0  0  0  0  0  0  0  0  0  0  0  # atno 17342 bound_to 10162
  139.5690  144.1972  152.1809 LP  0  0  0  0  0  0  0  0  0  0  0  0  # atno 17343 bound_to 10162
  157.1346  131.0280  151.2954 LP  0  0  0  0  0  0  0  0  0  0  0  0  # atno 17370 bound_to 10713
  157.4523  130.7605  149.7162 LP  0  0  0  0  0  0  0  0  0  0  0  0  # atno 17371 bound_to 10713
  140.9889  134.1305  157.4426 LP  0  0  0  0  0  0  0  0  0  0  0  0  # atno 17394 bound_to 11000
  139.8818  135.0034  156.6186 LP  0  0  0  0  0  0  0  0  0  0  0  0  # atno 17395 bound_to 11000

$$$$
