AV-unprocessed.smi:286|AV-procd|sdf|2176|dock3
  -GOLD-   2262021543D 1   1.00000     0.00000
 Structure written by MMmdl.
 46 48  0  0  0  0  0  0  0  0  1 V2000
  148.9172  135.3142  154.9172 O   0  0  0  0  0  0  0  0  0  0  0  0
  149.4650  134.2525  155.2184 C   0  0  0  0  0  0  0  0  0  0  0  0
  150.7222  134.1825  155.9559 C   0  0  0  0  0  0  0  0  0  0  0  0
  151.3474  135.3174  156.3125 F   0  0  0  0  0  0  0  0  0  0  0  0
  151.2739  132.9943  156.2841 C   0  0  0  0  0  0  0  0  0  0  0  0
  150.6968  131.7782  155.9595 N   0  0  0  0  0  0  0  0  0  0  0  0
  151.3510  130.4722  156.3498 C   0  0  1  0  0  0  0  0  0  0  0  0
  151.7552  129.6863  155.0967 C   0  0  0  0  0  0  0  0  0  0  0  0
  153.2144  130.0599  154.9477 C   0  0  0  0  0  0  0  0  0  0  0  0
  153.6454  130.1945  156.4031 C   0  0  0  0  0  0  0  0  0  0  0  0
  152.5161  130.7451  157.0747 O   0  0  0  0  0  0  0  0  0  0  0  0
  149.4891  131.7488  155.2289 C   0  0  0  0  0  0  0  0  0  0  0  0
  148.9620  130.6777  154.9183 O   0  0  0  0  0  0  0  0  0  0  0  0
  148.9146  132.9929  154.8749 N   0  0  0  0  0  0  0  0  0  0  0  0
  147.6569  132.9724  154.1460 C   0  0  0  0  0  0  0  0  0  0  0  0
  147.8165  132.5805  152.6584 C   0  0  1  0  0  0  0  0  0  0  0  0
  148.0284  131.1843  152.5711 O   0  0  0  0  0  0  0  0  0  0  0  0
  146.5830  132.9657  151.8053 C   0  0  0  0  0  0  0  0  0  0  0  0
  146.2527  134.4770  151.8306 C   0  0  0  0  0  0  0  0  0  0  0  0
  145.0548  134.8086  150.9255 C   0  0  0  0  0  0  0  0  0  0  0  0
  143.8213  133.9734  151.3014 C   0  0  0  0  0  0  0  0  0  0  0  0
  144.1396  132.4707  151.2716 C   0  0  0  0  0  0  0  0  0  0  0  0
  145.3349  132.1359  152.1790 C   0  0  0  0  0  0  0  0  0  0  0  0
  152.2092  133.0080  156.8237 H   0  0  0  0  0  0  0  0  0  0  0  0
  150.6396  129.9481  156.9897 H   0  0  0  0  0  0  0  0  0  0  0  0
  151.6533  128.6209  155.3069 H   0  0  0  0  0  0  0  0  0  0  0  0
  151.1408  129.9362  154.2308 H   0  0  0  0  0  0  0  0  0  0  0  0
  153.7930  129.3171  154.3980 H   0  0  0  0  0  0  0  0  0  0  0  0
  153.3100  131.0172  154.4337 H   0  0  0  0  0  0  0  0  0  0  0  0
  153.8616  129.2131  156.8275 H   0  0  0  0  0  0  0  0  0  0  0  0
  154.5292  130.8211  156.5251 H   0  0  0  0  0  0  0  0  0  0  0  0
  146.9495  132.3318  154.6753 H   0  0  0  0  0  0  0  0  0  0  0  0
  147.2335  133.9734  154.2469 H   0  0  0  0  0  0  0  0  0  0  0  0
  148.6899  133.0817  152.2390 H   0  0  0  0  0  0  0  0  0  0  0  0
  148.4781  130.9992  151.7609 H   0  0  0  0  0  0  0  0  0  0  0  0
  146.8274  132.7077  150.7734 H   0  0  0  0  0  0  0  0  0  0  0  0
  146.0296  134.7958  152.8495 H   0  0  0  0  0  0  0  0  0  0  0  0
  147.1145  135.0613  151.5077 H   0  0  0  0  0  0  0  0  0  0  0  0
  144.8197  135.8708  150.9965 H   0  0  0  0  0  0  0  0  0  0  0  0
  145.3205  134.6201  149.8846 H   0  0  0  0  0  0  0  0  0  0  0  0
  143.4787  134.2549  152.2980 H   0  0  0  0  0  0  0  0  0  0  0  0
  143.0006  134.1938  150.6179 H   0  0  0  0  0  0  0  0  0  0  0  0
  143.2649  131.8996  151.5837 H   0  0  0  0  0  0  0  0  0  0  0  0
  144.3599  132.1636  150.2482 H   0  0  0  0  0  0  0  0  0  0  0  0
  145.5579  131.0709  152.1054 H   0  0  0  0  0  0  0  0  0  0  0  0
  145.0590  132.3215  153.2177 H   0  0  0  0  0  0  0  0  0  0  0  0
  1  2  2  0  0  0  0
  2 14  1  0  0  0  0
  2  3  1  0  0  0  0
  3  4  1  0  0  0  0
  3  5  2  0  0  0  0
  5  6  1  0  0  0  0
  5 24  1  0  0  0  0
  6  7  1  0  0  0  0
  6 12  1  0  0  0  0
  7 11  1  0  0  0  0
  7  8  1  0  0  0  0
  7 25  1  0  0  0  0
  8  9  1  0  0  0  0
  8 26  1  0  0  0  0
  8 27  1  0  0  0  0
  9 10  1  0  0  0  0
  9 28  1  0  0  0  0
  9 29  1  0  0  0  0
 10 11  1  0  0  0  0
 10 30  1  0  0  0  0
 10 31  1  0  0  0  0
 12 13  2  0  0  0  0
 12 14  1  0  0  0  0
 14 15  1  0  0  0  0
 15 16  1  0  0  0  0
 15 32  1  0  0  0  0
 15 33  1  0  0  0  0
 16 17  1  0  0  0  0
 16 18  1  0  0  0  0
 16 34  1  0  0  0  0
 17 35  1  0  0  0  0
 18 23  1  0  0  0  0
 18 19  1  0  0  0  0
 18 36  1  0  0  0  0
 19 20  1  0  0  0  0
 19 37  1  0  0  0  0
 19 38  1  0  0  0  0
 20 21  1  0  0  0  0
 20 39  1  0  0  0  0
 20 40  1  0  0  0  0
 21 22  1  0  0  0  0
 21 41  1  0  0  0  0
 21 42  1  0  0  0  0
 22 23  1  0  0  0  0
 22 43  1  0  0  0  0
 22 44  1  0  0  0  0
 23 45  1  0  0  0  0
 23 46  1  0  0  0  0
M  END
> <s_m_source_file>
AV-unprocessed.smi

> <i_m_source_file_index>
286

> <i_lp_mmshare_version>
43012

> <i_f3d_flags>
0

> <s_epik_input>
TzFbQ0gyXVtDSDJdW0NIMl1bQ0BIXTFuKFtjSF1jKEYpYzI9TyljKD1PKW4yW0NIMl1bQ0BIXShbT0hdKVtDSF0zW0NIMl1bQ0gyXVtDSDJdW0NIMl1bQ0gyXTM=

> <s_epik_cmdline>
J2VwaWtfcHl0aG9uJywgJy1waCcsICc3LjAnLCAnLXRuJywgJzgnLCAnLW1hJywgJzIwMCcsICctbWV0YWxfYmluZGluZycsICctaW1hZScsICc8aW5maWxlLm1hZT4nLCAnLW9tYWUnLCAnPG91dGZpbGUubWFlPic=

> <r_lp_tautomer_probability>
1

> <r_epik_Ionization_Penalty>
3.15564e-07

> <r_epik_Ionization_Penalty_Charging>
2.06416e-08

> <r_epik_Ionization_Penalty_Neutral>
2.94923e-07

> <r_epik_State_Penalty>
-0

> <r_epik_Charging_Adjusted_Penalty>
2.06416e-08

> <i_epik_Tot_Q>
0

> <i_epik_Tot_abs_Q>
0

> <r_epik_Metal_State_Penalty>
-0

> <b_epik_Metal_Only>
0

> <s_epik_Chemistry_Notes>
This compound contains an acetal/aminal-like group ( X-CH(R)-Y where X, Y are N, S, or O) that may be acid/base labile, releasing an aldehyde.

> <s_lp_Force_Field>
OPLS_2005

> <r_lp_Energy>
42.0749

> <b_lp_Chiralities_Consistent>
1

> <s_lp_Variant>
AV-unprocessed.smi:286-4

> <Gold.Version>
5.8.1

> <Gold.Id.Protein>
6NUR|6NUR_protein|mol2

> <Gold.PLP.Fitness>
38.4238

> <Gold.PLP.PLP>
-36.0494

> <Gold.PLP.part.hbond>
-0.9293

> <Gold.PLP.part.metal>
0.0000

> <Gold.PLP.part.buried>
-3.8429

> <Gold.PLP.part.nonpolar>
-31.6781

> <Gold.PLP.part.repulsive>
0.1558

> <Gold.PLP.ligand.clash>
0.0000

> <Gold.PLP.ligand.torsion>
0.3442

> <Gold.PLP.Chemscore.Hbond>
1.0000

> <Gold.PLP.Chemscore.CHOScore>
0.0000

> <Gold.PLP.Chemscore.Metal>
0.0000

> <Gold.Chemscore.Hbonds>
donor molecule, donor type, donor heavy atom, donor atom, acceptor molecule, acceptor atom, score
      L1  H    17    35       P1 10747  1.00

> <Gold.PLP.Chemscore.Internal.Correction>
0.0628

> <Gold.Rescore>
     Score         DG    S(hbond)    S(metal)    S(lipo)     H(rot)  DE(clash)    DE(int)     intcor
     10.94     -11.48       0.97        0.00      73.38       2.28       0.00       0.55       ----

> <Gold.Chemscore.Fitness>
10.9376

> <Gold.Chemscore.DG>
-11.4833

> <Gold.Chemscore.ZeroCoef>
-5.4800

> <Gold.Chemscore.Hbond>
0.9712

> <Gold.Chemscore.Metal>
0.0000

> <Gold.Chemscore.Lipo>
73.3762

> <Gold.Chemscore.Internal_Hbond>
0.0000

> <Gold.Chemscore.DEClash>
0.0000

> <Gold.Chemscore.DEInternal>
0.5457

> <Gold.Chemscore.Rot>
2.2756

> <Gold.Chemscore.Internal.Correction>
   9.000000E+99

> <Gold.Chemscore.Hbonds>
donor molecule, donor type, donor heavy atom, donor atom, acceptor molecule, acceptor atom, score
      L1  H    17    35       P1 10747  0.95

> <Gold.Chemscore.Hbond.Weighted>
-3.2437

> <Gold.Chemscore.Metal.Weighted>
-0.0000

> <Gold.Chemscore.Lipo.Weighted>
-8.5850

> <Gold.Chemscore.Internal_Hbond.Weighted>
0.0000

> <Gold.Chemscore.DEClash.Weighted>
0.0000

> <Gold.Chemscore.DEInternal.Weighted>
0.5457

> <Gold.Chemscore.Rot.Weighted>
5.8254

> <Gold.Chemscore.Internal.Correction.Weighted>
   9.000000E+99

> <Gold.Protein.RotatedTorsions>
[ 6907 6896 6895 6894 ] final -175.63 input  -60.11 | X-H torsion
[ 7974 7965 7964 7962 ] final -141.25 input  175.53 | X-H torsion
[ 8008 7997 7996 7995 ] final  150.49 input   59.86 | X-H torsion
[ 10167 10162 10161 10158 ] final -116.24 input  -65.29 | X-H torsion
[ 10718 10713 10712 10709 ] final   57.85 input   66.30 | X-H torsion
[ 10763 10752 10751 10750 ] final   38.01 input  -60.55 | X-H torsion
[ 11005 11000 10999 10996 ] final  144.45 input  -57.11 | X-H torsion

> <Gold.Protein.ActiveResidues>
 VAL166  LYS551  ARG553  GLY616  TRP617  ASP618  TYR619  PRO620  LYS621  CYS622 
 ASP623  PHE694  ASN695  SER759  ASP760  ASP761  ALA762  ILE779  LEU786  VAL792 
 PHE793  MET794  SER795  GLU796  ALA797  LYS798  CYS799  TRP800  GLU811  SER814 

> <Gold.Protein.RotatedAtoms>
  151.5917  133.3366  159.3028 H   0  0  0  0  0  0  0  0  0  0  0  0  # atno 6907 bound_to 6896
  150.8256  134.7489  159.6821 H   0  0  0  0  0  0  0  0  0  0  0  0  # atno 6908 bound_to 6896
  152.4346  134.5717  159.9975 H   0  0  0  0  0  0  0  0  0  0  0  0  # atno 6909 bound_to 6896
  144.8534  140.6102  143.5375 H   0  0  0  0  0  0  0  0  0  0  0  0  # atno 7974 bound_to 7965
  156.2713  140.2073  156.6026 H   0  0  0  0  0  0  0  0  0  0  0  0  # atno 8008 bound_to 7997
  154.6895  140.0531  157.0372 H   0  0  0  0  0  0  0  0  0  0  0  0  # atno 8009 bound_to 7997
  155.0887  140.3194  155.4583 H   0  0  0  0  0  0  0  0  0  0  0  0  # atno 8010 bound_to 7997
  140.0814  143.4784  152.1924 H   0  0  0  0  0  0  0  0  0  0  0  0  # atno 10167 bound_to 10162
  157.5548  130.8792  149.9019 H   0  0  0  0  0  0  0  0  0  0  0  0  # atno 10718 bound_to 10713
  153.0016  135.6261  154.2236 H   0  0  0  0  0  0  0  0  0  0  0  0  # atno 10763 bound_to 10752
  154.1979  135.2805  155.3002 H   0  0  0  0  0  0  0  0  0  0  0  0  # atno 10764 bound_to 10752
  154.5707  135.5677  153.7152 H   0  0  0  0  0  0  0  0  0  0  0  0  # atno 10765 bound_to 10752
  140.0633  134.9192  157.1221 H   0  0  0  0  0  0  0  0  0  0  0  0  # atno 11005 bound_to 11000
  145.4455  139.1530  143.3947 LP  0  0  0  0  0  0  0  0  0  0  0  0  # atno 17320 bound_to 7965
  146.2803  140.4578  142.8779 LP  0  0  0  0  0  0  0  0  0  0  0  0  # atno 17321 bound_to 7965
  139.5777  144.7496  151.3720 LP  0  0  0  0  0  0  0  0  0  0  0  0  # atno 17342 bound_to 10162
  140.7076  143.7474  150.7509 LP  0  0  0  0  0  0  0  0  0  0  0  0  # atno 17343 bound_to 10162
  156.0609  130.3700  150.0985 LP  0  0  0  0  0  0  0  0  0  0  0  0  # atno 17370 bound_to 10713
  156.9155  130.9665  151.3556 LP  0  0  0  0  0  0  0  0  0  0  0  0  # atno 17371 bound_to 10713
  140.3737  134.2362  155.7176 LP  0  0  0  0  0  0  0  0  0  0  0  0  # atno 17394 bound_to 11000
  141.1982  133.8041  157.0592 LP  0  0  0  0  0  0  0  0  0  0  0  0  # atno 17395 bound_to 11000

$$$$
