AV-unprocessed.smi:2528|AV-procd|sdf|9954|dock4
  -GOLD-   2272013593D 1   1.00000     0.00000
 Structure written by MMmdl.
 44 46  0  0  0  0  0  0  0  0  2 V2000
  144.5589  136.9644  151.8574 O   0  0  0  0  0  0  0  0  0  0  0  0
  145.7381  136.6265  151.9654 C   0  0  0  0  0  0  0  0  0  0  0  0
  146.7244  137.4864  152.2587 N   0  0  0  0  0  0  0  0  0  0  0  0
  146.5396  138.9147  152.4913 C   0  0  0  0  0  0  0  0  0  0  0  0
  146.9840  139.3245  153.9141 C   0  0  2  0  0  0  0  0  0  0  0  0
  145.8130  139.7402  154.8242 C   0  0  0  0  0  0  0  0  0  0  0  0
  145.2739  141.0660  154.4417 N   0  3  1  0  0  0  0  0  0  0  0  0
  144.1188  141.4645  155.2860 C   0  0  0  0  0  0  0  0  0  0  0  0
  143.5242  142.8019  154.8191 C   0  0  0  0  0  0  0  0  0  0  0  0
  144.5968  143.8978  154.8113 C   0  0  0  0  0  0  0  0  0  0  0  0
  145.7875  143.4570  153.9498 C   0  0  0  0  0  0  0  0  0  0  0  0
  146.3472  142.0968  154.4144 C   0  0  2  0  0  0  0  0  0  0  0  0
  147.4982  141.6322  153.5020 C   0  0  0  0  0  0  0  0  0  0  0  0
  147.9739  140.3536  153.9088 O   0  0  0  0  0  0  0  0  0  0  0  0
  146.2070  135.3752  151.8157 N   0  0  0  0  0  0  0  0  0  0  0  0
  145.4797  134.1994  151.4886 C   0  0  0  0  0  0  0  0  0  0  0  0
  146.2443  133.0112  151.4591 C   0  0  0  0  0  0  0  0  0  0  0  0
  145.6167  131.7909  151.1423 C   0  0  0  0  0  0  0  0  0  0  0  0
  144.2386  131.7899  150.8622 C   0  0  0  0  0  0  0  0  0  0  0  0
  143.5508  133.0161  150.9139 C   0  0  0  0  0  0  0  0  0  0  0  0
  144.1503  134.1870  151.2174 N   0  0  0  0  0  0  0  0  0  0  0  0
  147.6656  137.1282  152.3312 H   0  0  0  0  0  0  0  0  0  0  0  0
  147.0906  139.4631  151.7281 H   0  0  0  0  0  0  0  0  0  0  0  0
  145.4905  139.1749  152.3399 H   0  0  0  0  0  0  0  0  0  0  0  0
  147.4527  138.4539  154.3743 H   0  0  0  0  0  0  0  0  0  0  0  0
  145.0224  138.9897  154.7853 H   0  0  0  0  0  0  0  0  0  0  0  0
  146.1553  139.7819  155.8597 H   0  0  0  0  0  0  0  0  0  0  0  0
  143.3517  140.6904  155.2424 H   0  0  0  0  0  0  0  0  0  0  0  0
  144.4353  141.5397  156.3278 H   0  0  0  0  0  0  0  0  0  0  0  0
  143.1052  142.6891  153.8182 H   0  0  0  0  0  0  0  0  0  0  0  0
  142.6990  143.0916  155.4702 H   0  0  0  0  0  0  0  0  0  0  0  0
  144.1799  144.8310  154.4312 H   0  0  0  0  0  0  0  0  0  0  0  0
  144.9307  144.0956  155.8307 H   0  0  0  0  0  0  0  0  0  0  0  0
  145.4739  143.3921  152.9068 H   0  0  0  0  0  0  0  0  0  0  0  0
  146.5694  144.2161  153.9895 H   0  0  0  0  0  0  0  0  0  0  0  0
  146.7348  142.2075  155.4288 H   0  0  0  0  0  0  0  0  0  0  0  0
  147.1895  141.6108  152.4568 H   0  0  0  0  0  0  0  0  0  0  0  0
  148.3270  142.3382  153.5603 H   0  0  0  0  0  0  0  0  0  0  0  0
  147.1996  135.2480  151.9451 H   0  0  0  0  0  0  0  0  0  0  0  0
  147.3024  133.0296  151.6764 H   0  0  0  0  0  0  0  0  0  0  0  0
  146.1839  130.8723  151.1139 H   0  0  0  0  0  0  0  0  0  0  0  0
  143.7225  130.8741  150.6145 H   0  0  0  0  0  0  0  0  0  0  0  0
  142.4921  133.0590  150.7056 H   0  0  0  0  0  0  0  0  0  0  0  0
  144.9277  140.9799  153.4968 H   0  0  0  0  0  0  0  0  0  0  0  0
  1  2  2  0  0  0  0
  2  3  1  0  0  0  0
  2 15  1  0  0  0  0
  3  4  1  0  0  0  0
  3 22  1  0  0  0  0
  4  5  1  0  0  0  0
  4 23  1  0  0  0  0
  4 24  1  0  0  0  0
  5 14  1  0  0  0  0
  5  6  1  0  0  0  0
  5 25  1  0  0  0  0
  6  7  1  0  0  0  0
  6 26  1  0  0  0  0
  6 27  1  0  0  0  0
  7 12  1  0  0  0  0
  7  8  1  0  0  0  0
  7 44  1  0  0  0  0
  8  9  1  0  0  0  0
  8 28  1  0  0  0  0
  8 29  1  0  0  0  0
  9 10  1  0  0  0  0
  9 30  1  0  0  0  0
  9 31  1  0  0  0  0
 10 11  1  0  0  0  0
 10 32  1  0  0  0  0
 10 33  1  0  0  0  0
 11 12  1  0  0  0  0
 11 34  1  0  0  0  0
 11 35  1  0  0  0  0
 12 13  1  0  0  0  0
 12 36  1  0  0  0  0
 13 14  1  0  0  0  0
 13 37  1  0  0  0  0
 13 38  1  0  0  0  0
 15 16  1  0  0  0  0
 15 39  1  0  0  0  0
 16 21  1  0  0  0  0
 16 17  2  0  0  0  0
 17 18  1  0  0  0  0
 17 40  1  0  0  0  0
 18 19  2  0  0  0  0
 18 41  1  0  0  0  0
 19 20  1  0  0  0  0
 19 42  1  0  0  0  0
 20 21  2  0  0  0  0
 20 43  1  0  0  0  0
M  CHG  1   7   1
M  END
> <s_m_source_file>
AV-unprocessed.smi

> <i_m_source_file_index>
2528

> <i_lp_mmshare_version>
43012

> <i_f3d_flags>
0

> <s_epik_input>
bjFbY0hdW2NIXVtjSF1bY0hdYzFbTkhdQyg9TylbTkhdW0NIMl1bQ0BIXShbQ0gyXTIpT1tDSDJdW0NAQEhdKE4yMylbQ0gyXVtDSDJdW0NIMl1bQ0gyXTM=

> <s_epik_cmdline>
J2VwaWtfcHl0aG9uJywgJy1waCcsICc3LjAnLCAnLXRuJywgJzgnLCAnLW1hJywgJzIwMCcsICctbWV0YWxfYmluZGluZycsICctaW1hZScsICc8aW5maWxlLm1hZT4nLCAnLW9tYWUnLCAnPG91dGZpbGUubWFlPic=

> <r_epik_Ionization_Penalty>
0.0932337

> <r_epik_Ionization_Penalty_Charging>
0.0931942

> <r_epik_Ionization_Penalty_Neutral>
3.9565e-05

> <r_epik_State_Penalty>
0.0834605

> <r_epik_Charging_Adjusted_Penalty>
0.176655

> <i_epik_Tot_Q>
1

> <i_epik_Tot_abs_Q>
1

> <r_epik_Metal_State_Penalty>
0.0834607

> <b_epik_Metal_Only>
0

> <s_lp_Force_Field>
OPLS_2005

> <r_lp_Energy>
28.0782

> <b_lp_Chiralities_Consistent>
1

> <s_lp_Variant>
AV-unprocessed.smi:2528-7

> <Gold.Version>
5.8.1

> <Gold.Id.Protein>
6NUR|6NUR_protein|mol2

> <Gold.PLP.Fitness>
47.9361

> <Gold.PLP.PLP>
-34.5064

> <Gold.PLP.part.hbond>
-2.9630

> <Gold.PLP.part.metal>
0.0000

> <Gold.PLP.part.buried>
-7.0910

> <Gold.PLP.part.nonpolar>
-27.3648

> <Gold.PLP.part.repulsive>
2.6551

> <Gold.PLP.ligand.clash>
0.0000

> <Gold.PLP.ligand.torsion>
0.7285

> <Gold.PLP.Chemscore.Hbond>
3.9600

> <Gold.PLP.Chemscore.CHOScore>
0.9992

> <Gold.PLP.Chemscore.Metal>
0.0000

> <Gold.Chemscore.Hbonds>
donor molecule, donor type, donor heavy atom, donor atom, acceptor molecule, acceptor atom, score
      L1  H     3    22       P1  7948  1.00
      L1  H     7    44       P1 10175  1.92
      L1  H    15    39       P1  7948  0.85
      L1  C    20    43       P1 10186  1.00

> <Gold.PLP.Chemscore.Internal.Correction>
0.0091

> <Gold.Rescore>
     Score         DG    S(hbond)    S(metal)    S(lipo)     H(rot)  DE(clash)    DE(int)     intcor
     17.58     -19.81       2.92        0.00      67.25       1.29       0.21       2.03       ----

> <Gold.Chemscore.Fitness>
17.5758

> <Gold.Chemscore.DG>
-19.8076

> <Gold.Chemscore.ZeroCoef>
-5.4800

> <Gold.Chemscore.Hbond>
2.9205

> <Gold.Chemscore.Metal>
0.0000

> <Gold.Chemscore.Lipo>
67.2486

> <Gold.Chemscore.Internal_Hbond>
0.0000

> <Gold.Chemscore.DEClash>
0.2067

> <Gold.Chemscore.DEInternal>
2.0251

> <Gold.Chemscore.Rot>
1.2870

> <Gold.Chemscore.Internal.Correction>
   9.000000E+99

> <Gold.Chemscore.Hbonds>
donor molecule, donor type, donor heavy atom, donor atom, acceptor molecule, acceptor atom, score
      L1  H     3    22       P1  7948  0.97
      L1  H     7    44       P1 10175  0.60
      L1  H    15    39       P1  7948  0.82

> <Gold.Chemscore.Hbond.Weighted>
-9.7544

> <Gold.Chemscore.Metal.Weighted>
-0.0000

> <Gold.Chemscore.Lipo.Weighted>
-7.8681

> <Gold.Chemscore.Internal_Hbond.Weighted>
0.0000

> <Gold.Chemscore.DEClash.Weighted>
0.2067

> <Gold.Chemscore.DEInternal.Weighted>
2.0251

> <Gold.Chemscore.Rot.Weighted>
3.2948

> <Gold.Chemscore.Internal.Correction.Weighted>
   9.000000E+99

> <Gold.Protein.RotatedTorsions>
[ 6907 6896 6895 6894 ] final   34.27 input  -60.11 | X-H torsion
[ 7974 7965 7964 7962 ] final  140.38 input  175.53 | X-H torsion
[ 8008 7997 7996 7995 ] final  -98.44 input   59.86 | X-H torsion
[ 10167 10162 10161 10158 ] final -162.42 input  -65.29 | X-H torsion
[ 10718 10713 10712 10709 ] final  -62.04 input   66.30 | X-H torsion
[ 10763 10752 10751 10750 ] final -111.86 input  -60.55 | X-H torsion
[ 11005 11000 10999 10996 ] final -144.83 input  -57.11 | X-H torsion

> <Gold.Protein.ActiveResidues>
 VAL166  LYS551  ARG553  GLY616  TRP617  ASP618  TYR619  PRO620  LYS621  CYS622 
 ASP623  PHE694  ASN695  SER759  ASP760  ASP761  ALA762  ILE779  LEU786  VAL792 
 PHE793  MET794  SER795  GLU796  ALA797  LYS798  CYS799  TRP800  GLU811  SER814 

> <Gold.Protein.RotatedAtoms>
  152.1001  134.9347  160.0569 H   0  0  0  0  0  0  0  0  0  0  0  0  # atno 6907 bound_to 6896
  152.0565  133.4037  159.4407 H   0  0  0  0  0  0  0  0  0  0  0  0  # atno 6908 bound_to 6896
  150.6839  134.3169  159.4813 H   0  0  0  0  0  0  0  0  0  0  0  0  # atno 6909 bound_to 6896
  144.9192  139.5190  143.5671 H   0  0  0  0  0  0  0  0  0  0  0  0  # atno 7974 bound_to 7965
  154.8012  140.0455  157.1274 H   0  0  0  0  0  0  0  0  0  0  0  0  # atno 8008 bound_to 7997
  154.9476  140.3061  155.5070 H   0  0  0  0  0  0  0  0  0  0  0  0  # atno 8009 bound_to 7997
  156.2962  140.2294  156.4551 H   0  0  0  0  0  0  0  0  0  0  0  0  # atno 8010 bound_to 7997
  139.6394  144.0289  152.2080 H   0  0  0  0  0  0  0  0  0  0  0  0  # atno 10167 bound_to 10162
  156.0881  130.4205  150.1079 H   0  0  0  0  0  0  0  0  0  0  0  0  # atno 10718 bound_to 10713
  154.8321  135.4512  154.1104 H   0  0  0  0  0  0  0  0  0  0  0  0  # atno 10763 bound_to 10752
  153.2368  135.6912  153.7834 H   0  0  0  0  0  0  0  0  0  0  0  0  # atno 10764 bound_to 10752
  153.7196  135.3344  155.3240 H   0  0  0  0  0  0  0  0  0  0  0  0  # atno 10765 bound_to 10752
  140.7984  134.2885  157.4987 H   0  0  0  0  0  0  0  0  0  0  0  0  # atno 11005 bound_to 11000
  146.3196  139.8058  142.8956 LP  0  0  0  0  0  0  0  0  0  0  0  0  # atno 17320 bound_to 7965
  145.3325  141.0270  143.3438 LP  0  0  0  0  0  0  0  0  0  0  0  0  # atno 17321 bound_to 7965
  139.9974  144.6318  150.7760 LP  0  0  0  0  0  0  0  0  0  0  0  0  # atno 17342 bound_to 10162
  140.7482  143.2919  151.3307 LP  0  0  0  0  0  0  0  0  0  0  0  0  # atno 17343 bound_to 10162
  156.9095  130.9647  151.3565 LP  0  0  0  0  0  0  0  0  0  0  0  0  # atno 17370 bound_to 10713
  157.6022  130.8521  149.8820 LP  0  0  0  0  0  0  0  0  0  0  0  0  # atno 17371 bound_to 10713
  139.8724  134.9415  156.3800 LP  0  0  0  0  0  0  0  0  0  0  0  0  # atno 17394 bound_to 11000
  140.9319  133.7573  156.0035 LP  0  0  0  0  0  0  0  0  0  0  0  0  # atno 17395 bound_to 11000

$$$$
