AV-unprocessed.smi:1705|AV-procd|sdf|6885|dock3
  -GOLD-   22720 8 93D 1   1.00000     0.00000
 Structure written by MMmdl.
 38 39  0  0  0  0  0  0  0  0  1 V2000
  152.0585  139.5828  155.1099 C   0  0  0  0  0  0  0  0  0  0  0  0
  150.8711  139.9051  156.0302 C   0  0  1  0  0  0  0  0  0  0  0  0
  151.1460  141.1221  156.7795 N   0  0  0  0  0  0  0  0  0  0  0  0
  151.8579  141.2205  157.9709 C   0  0  0  0  0  0  0  0  0  0  0  0
  152.3957  140.1266  158.5806 C   0  0  0  0  0  0  0  0  0  0  0  0
  152.3212  138.8041  158.0441 C   0  0  0  0  0  0  0  0  0  0  0  0
  152.2815  137.7412  157.5859 N   0  0  0  0  0  0  0  0  0  0  0  0
  153.1339  140.2252  159.8380 C   0  0  0  0  0  0  0  0  0  0  0  0
  153.6295  139.2581  160.4215 O   0  0  0  0  0  0  0  0  0  0  0  0
  153.2425  141.5299  160.3598 N   0  0  0  0  0  0  0  0  0  0  0  0
  153.9557  141.6629  161.6149 C   0  0  0  0  0  0  0  0  0  0  0  0
  152.6931  142.6779  159.7521 C   0  0  0  0  0  0  0  0  0  0  0  0
  152.7985  143.7968  160.2637 O   0  0  0  0  0  0  0  0  0  0  0  0
  152.0062  142.4950  158.5266 N   0  0  0  0  0  0  0  0  0  0  0  0
  151.4580  143.7097  157.9566 C   0  0  0  0  0  0  0  0  0  0  0  0
  149.5549  140.0710  155.2483 C   0  0  1  0  0  0  0  0  0  0  0  0
  148.3590  140.5166  156.0886 C   0  0  0  0  0  0  0  0  0  0  0  0
  147.4352  141.1572  155.0667 C   0  0  0  0  0  0  0  0  0  0  0  0
  148.3591  141.4932  153.8924 C   0  0  0  0  0  0  0  0  0  0  0  0
  149.6671  141.1443  154.3256 O   0  0  0  0  0  0  0  0  0  0  0  0
  151.9178  138.6313  154.5973 H   0  0  0  0  0  0  0  0  0  0  0  0
  152.9890  139.5126  155.6728 H   0  0  0  0  0  0  0  0  0  0  0  0
  152.1907  140.3547  154.3511 H   0  0  0  0  0  0  0  0  0  0  0  0
  150.7384  139.0786  156.7278 H   0  0  0  0  0  0  0  0  0  0  0  0
  150.3908  141.7880  156.7003 H   0  0  0  0  0  0  0  0  0  0  0  0
  154.0800  142.7074  161.8970 H   0  0  0  0  0  0  0  0  0  0  0  0
  154.9400  141.2097  161.4831 H   0  0  0  0  0  0  0  0  0  0  0  0
  153.3725  141.1351  162.3714 H   0  0  0  0  0  0  0  0  0  0  0  0
  150.6739  144.0573  158.6314 H   0  0  0  0  0  0  0  0  0  0  0  0
  151.0445  143.5197  156.9690 H   0  0  0  0  0  0  0  0  0  0  0  0
  152.2693  144.4346  157.8669 H   0  0  0  0  0  0  0  0  0  0  0  0
  149.3095  139.1565  154.7044 H   0  0  0  0  0  0  0  0  0  0  0  0
  147.8875  139.6939  156.6266 H   0  0  0  0  0  0  0  0  0  0  0  0
  148.6713  141.2642  156.8190 H   0  0  0  0  0  0  0  0  0  0  0  0
  146.6601  140.4586  154.7494 H   0  0  0  0  0  0  0  0  0  0  0  0
  146.9447  142.0427  155.4721 H   0  0  0  0  0  0  0  0  0  0  0  0
  148.0979  140.8997  153.0154 H   0  0  0  0  0  0  0  0  0  0  0  0
  148.3148  142.5467  153.6158 H   0  0  0  0  0  0  0  0  0  0  0  0
  1  2  1  0  0  0  0
  1 21  1  0  0  0  0
  1 22  1  0  0  0  0
  1 23  1  0  0  0  0
  2  3  1  0  0  0  0
  2 16  1  0  0  0  0
  2 24  1  0  0  0  0
  3  4  1  0  0  0  0
  3 25  1  0  0  0  0
  4 14  1  0  0  0  0
  4  5  2  0  0  0  0
  5  6  1  0  0  0  0
  5  8  1  0  0  0  0
  6  7  3  0  0  0  0
  8  9  2  0  0  0  0
  8 10  1  0  0  0  0
 10 11  1  0  0  0  0
 10 12  1  0  0  0  0
 11 26  1  0  0  0  0
 11 27  1  0  0  0  0
 11 28  1  0  0  0  0
 12 13  2  0  0  0  0
 12 14  1  0  0  0  0
 14 15  1  0  0  0  0
 15 29  1  0  0  0  0
 15 30  1  0  0  0  0
 15 31  1  0  0  0  0
 16 20  1  0  0  0  0
 16 17  1  0  0  0  0
 16 32  1  0  0  0  0
 17 18  1  0  0  0  0
 17 33  1  0  0  0  0
 17 34  1  0  0  0  0
 18 19  1  0  0  0  0
 18 35  1  0  0  0  0
 18 36  1  0  0  0  0
 19 20  1  0  0  0  0
 19 37  1  0  0  0  0
 19 38  1  0  0  0  0
M  END
> <s_m_source_file>
AV-unprocessed.smi

> <i_m_source_file_index>
1705

> <i_lp_mmshare_version>
43012

> <i_f3d_flags>
0

> <s_epik_input>
TzFbQ0gyXVtDSDJdW0NIMl1bQ0BIXTFbQ0BIXShbQ0gzXSlbTkhdYzJjKEMjTiljKD1PKW4oW0NIM10pYyg9TyluMltDSDNd

> <s_epik_cmdline>
J2VwaWtfcHl0aG9uJywgJy1waCcsICc3LjAnLCAnLXRuJywgJzgnLCAnLW1hJywgJzIwMCcsICctbWV0YWxfYmluZGluZycsICctaW1hZScsICc8aW5maWxlLm1hZT4nLCAnLW9tYWUnLCAnPG91dGZpbGUubWFlPic=

> <r_epik_Ionization_Penalty>
0.000446268

> <r_epik_Ionization_Penalty_Charging>
9.41922e-10

> <r_epik_Ionization_Penalty_Neutral>
0.000446267

> <r_epik_State_Penalty>
0.000275531

> <r_epik_Charging_Adjusted_Penalty>
0.000275532

> <i_epik_Tot_Q>
0

> <i_epik_Tot_abs_Q>
0

> <r_epik_Metal_State_Penalty>
-0

> <b_epik_Metal_Only>
0

> <s_lp_Force_Field>
OPLS_2005

> <r_lp_Energy>
37.8394

> <b_lp_Chiralities_Consistent>
1

> <s_lp_Variant>
AV-unprocessed.smi:1705-4

> <Gold.Version>
5.8.1

> <Gold.Id.Protein>
6NUR|6NUR_protein|mol2

> <Gold.PLP.Fitness>
36.7520

> <Gold.PLP.PLP>
-35.8516

> <Gold.PLP.part.hbond>
-1.2776

> <Gold.PLP.part.metal>
0.0000

> <Gold.PLP.part.buried>
-0.4094

> <Gold.PLP.part.nonpolar>
-32.7039

> <Gold.PLP.part.repulsive>
0.2680

> <Gold.PLP.ligand.clash>
9.0509

> <Gold.PLP.ligand.torsion>
0.3803

> <Gold.PLP.Chemscore.Hbond>
0.5440

> <Gold.PLP.Chemscore.CHOScore>
0.0000

> <Gold.PLP.Chemscore.Metal>
0.0000

> <Gold.Chemscore.Hbonds>
donor molecule, donor type, donor heavy atom, donor atom, acceptor molecule, acceptor atom, score
      P1  H  7989  7998       L1    20  0.35

> <Gold.PLP.Chemscore.Internal.Correction>
9.0800

> <Gold.Rescore>
     Score         DG    S(hbond)    S(metal)    S(lipo)     H(rot)  DE(clash)    DE(int)     intcor
      8.97     -12.14       0.81        0.00      61.82       1.28       0.05       3.12       ----

> <Gold.Chemscore.Fitness>
8.9680

> <Gold.Chemscore.DG>
-12.1385

> <Gold.Chemscore.ZeroCoef>
-5.4800

> <Gold.Chemscore.Hbond>
0.8075

> <Gold.Chemscore.Metal>
0.0000

> <Gold.Chemscore.Lipo>
61.8220

> <Gold.Chemscore.Internal_Hbond>
0.0000

> <Gold.Chemscore.DEClash>
0.0474

> <Gold.Chemscore.DEInternal>
3.1231

> <Gold.Chemscore.Rot>
1.2780

> <Gold.Chemscore.Internal.Correction>
   9.000000E+99

> <Gold.Chemscore.Hbonds>
donor molecule, donor type, donor heavy atom, donor atom, acceptor molecule, acceptor atom, score
      P1  H  7989  7998       L1    20  0.16

> <Gold.Chemscore.Hbond.Weighted>
-2.6970

> <Gold.Chemscore.Metal.Weighted>
-0.0000

> <Gold.Chemscore.Lipo.Weighted>
-7.2332

> <Gold.Chemscore.Internal_Hbond.Weighted>
0.0000

> <Gold.Chemscore.DEClash.Weighted>
0.0474

> <Gold.Chemscore.DEInternal.Weighted>
3.1231

> <Gold.Chemscore.Rot.Weighted>
3.2717

> <Gold.Chemscore.Internal.Correction.Weighted>
   9.000000E+99

> <Gold.Protein.RotatedTorsions>
[ 6907 6896 6895 6894 ] final -102.02 input  -60.11 | X-H torsion
[ 7974 7965 7964 7962 ] final   27.92 input  175.53 | X-H torsion
[ 8008 7997 7996 7995 ] final  -85.32 input   59.86 | X-H torsion
[ 10167 10162 10161 10158 ] final -158.65 input  -65.29 | X-H torsion
[ 10718 10713 10712 10709 ] final  127.19 input   66.30 | X-H torsion
[ 10763 10752 10751 10750 ] final  103.43 input  -60.55 | X-H torsion
[ 11005 11000 10999 10996 ] final  148.50 input  -57.11 | X-H torsion

> <Gold.Protein.ActiveResidues>
 VAL166  LYS551  ARG553  GLY616  TRP617  ASP618  TYR619  PRO620  LYS621  CYS622 
 ASP623  PHE694  ASN695  SER759  ASP760  ASP761  ALA762  ILE779  LEU786  VAL792 
 PHE793  MET794  SER795  GLU796  ALA797  LYS798  CYS799  TRP800  GLU811  SER814 

> <Gold.Protein.RotatedAtoms>
  150.7179  134.0645  159.3842 H   0  0  0  0  0  0  0  0  0  0  0  0  # atno 6907 bound_to 6896
  151.8625  135.0516  160.0480 H   0  0  0  0  0  0  0  0  0  0  0  0  # atno 6908 bound_to 6896
  152.2706  133.5343  159.5473 H   0  0  0  0  0  0  0  0  0  0  0  0  # atno 6909 bound_to 6896
  146.1757  139.7126  142.8936 H   0  0  0  0  0  0  0  0  0  0  0  0  # atno 7974 bound_to 7965
  154.6395  140.0593  156.9828 H   0  0  0  0  0  0  0  0  0  0  0  0  # atno 8008 bound_to 7997
  155.1540  140.3276  155.4407 H   0  0  0  0  0  0  0  0  0  0  0  0  # atno 8009 bound_to 7997
  156.2524  140.1942  156.6650 H   0  0  0  0  0  0  0  0  0  0  0  0  # atno 8010 bound_to 7997
  139.6676  143.9802  152.2264 H   0  0  0  0  0  0  0  0  0  0  0  0  # atno 10167 bound_to 10162
  157.5354  131.1098  150.8943 H   0  0  0  0  0  0  0  0  0  0  0  0  # atno 10718 bound_to 10713
  153.3526  135.3977  155.1657 H   0  0  0  0  0  0  0  0  0  0  0  0  # atno 10763 bound_to 10752
  154.8665  135.3660  154.5203 H   0  0  0  0  0  0  0  0  0  0  0  0  # atno 10764 bound_to 10752
  153.5655  135.7080  153.5588 H   0  0  0  0  0  0  0  0  0  0  0  0  # atno 10765 bound_to 10752
  140.0965  134.9009  157.1731 H   0  0  0  0  0  0  0  0  0  0  0  0  # atno 11005 bound_to 11000
  145.4217  141.0407  143.2960 LP  0  0  0  0  0  0  0  0  0  0  0  0  # atno 17320 bound_to 7965
  144.8233  139.5753  143.6977 LP  0  0  0  0  0  0  0  0  0  0  0  0  # atno 17321 bound_to 7965
  139.9558  144.6590  150.8127 LP  0  0  0  0  0  0  0  0  0  0  0  0  # atno 17342 bound_to 10162
  140.7605  143.3153  151.2748 LP  0  0  0  0  0  0  0  0  0  0  0  0  # atno 17343 bound_to 10162
  156.9511  130.5420  149.5282 LP  0  0  0  0  0  0  0  0  0  0  0  0  # atno 17370 bound_to 10713
  156.0455  130.5532  150.8870 LP  0  0  0  0  0  0  0  0  0  0  0  0  # atno 17371 bound_to 10713
  140.3279  134.2842  155.7233 LP  0  0  0  0  0  0  0  0  0  0  0  0  # atno 17394 bound_to 11000
  141.2093  133.7752  157.0003 LP  0  0  0  0  0  0  0  0  0  0  0  0  # atno 17395 bound_to 11000

$$$$
