AV-unprocessed.smi:51|AV-procd|sdf|503|dock4
  -GOLD-   2262016373D 1   1.00000     0.00000
 Structure written by MMmdl.
 26 27  0  0  0  0  0  0  0  0  3 V2000
  152.4649  138.5378  159.2833 O   0  0  0  0  0  0  0  0  0  0  0  0
  153.0950  139.3361  158.5568 C   0  0  0  0  0  0  0  0  0  0  0  0
  153.2552  139.2205  157.3214 O   0  5  0  0  0  0  0  0  0  0  0  0
  153.7364  140.5449  159.2556 C   0  0  2  0  0  0  0  0  0  0  0  0
  154.6370  140.1328  160.4346 C   0  0  0  0  0  0  0  0  0  0  0  0
  153.7350  140.2938  161.6609 C   0  0  1  0  0  0  0  0  0  0  0  0
  154.4681  140.5083  162.8482 O   0  0  0  0  0  0  0  0  0  0  0  0
  152.8590  141.4920  161.2924 C   0  0  0  0  0  0  0  0  0  0  0  0
  152.7189  141.4132  159.8447 N   0  0  0  0  0  0  0  0  0  0  0  0
  152.0010  142.3777  159.1088 C   0  0  0  0  0  0  0  0  0  0  0  0
  151.7767  143.6840  159.5945 C   0  0  0  0  0  0  0  0  0  0  0  0
  151.0556  144.5659  158.7696 C   0  0  0  0  0  0  0  0  0  0  0  0
  150.5998  144.1564  157.5618 N   0  3  0  0  0  0  0  0  0  0  0  0
  150.8421  142.9017  157.1572 C   0  0  0  0  0  0  0  0  0  0  0  0
  151.5225  142.0176  157.8954 N   0  0  0  0  0  0  0  0  0  0  0  0
  154.3337  141.0991  158.5304 H   0  0  0  0  0  0  0  0  0  0  0  0
  155.0474  139.1258  160.3450 H   0  0  0  0  0  0  0  0  0  0  0  0
  155.4793  140.8235  160.4962 H   0  0  0  0  0  0  0  0  0  0  0  0
  153.1130  139.4053  161.7779 H   0  0  0  0  0  0  0  0  0  0  0  0
  155.2667  140.0054  162.7996 H   0  0  0  0  0  0  0  0  0  0  0  0
  151.8951  141.4521  161.8014 H   0  0  0  0  0  0  0  0  0  0  0  0
  153.3485  142.4326  161.5504 H   0  0  0  0  0  0  0  0  0  0  0  0
  152.1420  144.0170  160.5544 H   0  0  0  0  0  0  0  0  0  0  0  0
  150.8299  145.5876  159.0372 H   0  0  0  0  0  0  0  0  0  0  0  0
  150.4602  142.6211  156.1868 H   0  0  0  0  0  0  0  0  0  0  0  0
  150.0792  144.8048  156.9711 H   0  0  0  0  0  0  0  0  0  0  0  0
  1  2  2  0  0  0  0
  2  3  1  0  0  0  0
  2  4  1  0  0  0  0
  4  9  1  0  0  0  0
  4  5  1  0  0  0  0
  4 16  1  0  0  0  0
  5  6  1  0  0  0  0
  5 17  1  0  0  0  0
  5 18  1  0  0  0  0
  6  7  1  0  0  0  0
  6  8  1  0  0  0  0
  6 19  1  0  0  0  0
  7 20  1  0  0  0  0
  8  9  1  0  0  0  0
  8 21  1  0  0  0  0
  8 22  1  0  0  0  0
  9 10  1  0  0  0  0
 10 15  1  0  0  0  0
 10 11  2  0  0  0  0
 11 12  1  0  0  0  0
 11 23  1  0  0  0  0
 12 13  2  0  0  0  0
 12 24  1  0  0  0  0
 13 14  1  0  0  0  0
 13 26  1  0  0  0  0
 14 15  2  0  0  0  0
 14 25  1  0  0  0  0
M  CHG  1   3  -1
M  CHG  1  13   1
M  END
> <s_m_source_file>
AV-unprocessed.smi

> <i_m_source_file_index>
51

> <i_lp_mmshare_version>
43012

> <i_f3d_flags>
0

> <s_epik_input>
Tz1DKFtPSF0pW0NAQEhdMVtDSDJdW0NAQEhdKFtPSF0pW0NIMl1OMWMyW2NIXVtjSF1uW2NIXW4y

> <s_epik_cmdline>
J2VwaWtfcHl0aG9uJywgJy1waCcsICc3LjAnLCAnLXRuJywgJzgnLCAnLW1hJywgJzIwMCcsICctbWV0YWxfYmluZGluZycsICctaW1hZScsICc8aW5maWxlLm1hZT4nLCAnLW9tYWUnLCAnPG91dGZpbGUubWFlPic=

> <r_lp_tautomer_probability>
0.999336

> <r_epik_Ionization_Penalty>
0.688427

> <r_epik_Ionization_Penalty_Charging>
0.688427

> <r_epik_Ionization_Penalty_Neutral>
1.98379e-07

> <r_epik_State_Penalty>
0.709817

> <r_epik_Charging_Adjusted_Penalty>
1.39824

> <i_epik_Tot_Q>
0

> <i_epik_Tot_abs_Q>
2

> <r_epik_Metal_State_Penalty>
0.873261

> <b_epik_Metal_Only>
0

> <s_lp_Force_Field>
OPLS_2005

> <r_lp_Energy>
13.2296

> <b_lp_Chiralities_Consistent>
1

> <s_lp_Variant>
AV-unprocessed.smi:51-5

> <Gold.Version>
5.8.1

> <Gold.Id.Protein>
6NUR|6NUR_protein|mol2

> <Gold.PLP.Fitness>
45.2633

> <Gold.PLP.PLP>
-34.2453

> <Gold.PLP.part.hbond>
-3.0000

> <Gold.PLP.part.metal>
0.0000

> <Gold.PLP.part.buried>
-3.3558

> <Gold.PLP.part.nonpolar>
-27.9877

> <Gold.PLP.part.repulsive>
0.0449

> <Gold.PLP.ligand.clash>
0.0000

> <Gold.PLP.ligand.torsion>
0.5238

> <Gold.PLP.Chemscore.Hbond>
3.9840

> <Gold.PLP.Chemscore.CHOScore>
0.0000

> <Gold.PLP.Chemscore.Metal>
0.0000

> <Gold.Chemscore.Hbonds>
donor molecule, donor type, donor heavy atom, donor atom, acceptor molecule, acceptor atom, score
      L1  H    13    26       P1  8028  1.60
      P1  H  7997  8009       L1     3  2.00
      L1  C    14    25       P1  8028  0.26

> <Gold.PLP.Chemscore.Internal.Correction>
0.1136

> <Gold.Rescore>
     Score         DG    S(hbond)    S(metal)    S(lipo)     H(rot)  DE(clash)    DE(int)     intcor
     13.72     -14.13       1.95        0.00      55.51       1.70       0.15       0.27       ----

> <Gold.Chemscore.Fitness>
13.7158

> <Gold.Chemscore.DG>
-14.1345

> <Gold.Chemscore.ZeroCoef>
-5.4800

> <Gold.Chemscore.Hbond>
1.9513

> <Gold.Chemscore.Metal>
0.0000

> <Gold.Chemscore.Lipo>
55.5053

> <Gold.Chemscore.Internal_Hbond>
0.0000

> <Gold.Chemscore.DEClash>
0.1517

> <Gold.Chemscore.DEInternal>
0.2671

> <Gold.Chemscore.Rot>
1.7020

> <Gold.Chemscore.Internal.Correction>
   9.000000E+99

> <Gold.Chemscore.Hbonds>
donor molecule, donor type, donor heavy atom, donor atom, acceptor molecule, acceptor atom, score
      L1  H    13    26       P1  8028  0.24
      P1  H  7997  8009       L1     3  0.86

> <Gold.Chemscore.Hbond.Weighted>
-6.5175

> <Gold.Chemscore.Metal.Weighted>
-0.0000

> <Gold.Chemscore.Lipo.Weighted>
-6.4941

> <Gold.Chemscore.Internal_Hbond.Weighted>
0.0000

> <Gold.Chemscore.DEClash.Weighted>
0.1517

> <Gold.Chemscore.DEInternal.Weighted>
0.2671

> <Gold.Chemscore.Rot.Weighted>
4.3571

> <Gold.Chemscore.Internal.Correction.Weighted>
   9.000000E+99

> <Gold.Protein.RotatedTorsions>
[ 6907 6896 6895 6894 ] final  -97.70 input  -60.11 | X-H torsion
[ 7974 7965 7964 7962 ] final   99.80 input  175.53 | X-H torsion
[ 8008 7997 7996 7995 ] final  174.43 input   59.86 | X-H torsion
[ 10167 10162 10161 10158 ] final  115.73 input  -65.29 | X-H torsion
[ 10718 10713 10712 10709 ] final  127.00 input   66.30 | X-H torsion
[ 10763 10752 10751 10750 ] final   29.17 input  -60.55 | X-H torsion
[ 11005 11000 10999 10996 ] final  176.48 input  -57.11 | X-H torsion

> <Gold.Protein.ActiveResidues>
 VAL166  LYS551  ARG553  GLY616  TRP617  ASP618  TYR619  PRO620  LYS621  CYS622 
 ASP623  PHE694  ASN695  SER759  ASP760  ASP761  ALA762  ILE779  LEU786  VAL792 
 PHE793  MET794  SER795  GLU796  ALA797  LYS798  CYS799  TRP800  GLU811  SER814 

> <Gold.Protein.RotatedAtoms>
  150.7024  134.1308  159.4068 H   0  0  0  0  0  0  0  0  0  0  0  0  # atno 6907 bound_to 6896
  151.9293  135.0261  160.0537 H   0  0  0  0  0  0  0  0  0  0  0  0  # atno 6908 bound_to 6896
  152.2189  133.4933  159.5188 H   0  0  0  0  0  0  0  0  0  0  0  0  # atno 6909 bound_to 6896
  145.3941  139.2358  143.3336 H   0  0  0  0  0  0  0  0  0  0  0  0  # atno 7974 bound_to 7965
  156.0975  140.1435  156.9511 H   0  0  0  0  0  0  0  0  0  0  0  0  # atno 8008 bound_to 7997
  154.4681  140.0919  156.7119 H   0  0  0  0  0  0  0  0  0  0  0  0  # atno 8009 bound_to 7997
  155.4816  140.3445  155.4343 H   0  0  0  0  0  0  0  0  0  0  0  0  # atno 8010 bound_to 7997
  139.6297  144.7113  151.2459 H   0  0  0  0  0  0  0  0  0  0  0  0  # atno 10167 bound_to 10162
  157.5370  131.1097  150.8919 H   0  0  0  0  0  0  0  0  0  0  0  0  # atno 10718 bound_to 10713
  153.0447  135.6495  154.0849 H   0  0  0  0  0  0  0  0  0  0  0  0  # atno 10763 bound_to 10752
  154.0549  135.2892  155.3336 H   0  0  0  0  0  0  0  0  0  0  0  0  # atno 10764 bound_to 10752
  154.6695  135.5361  153.8186 H   0  0  0  0  0  0  0  0  0  0  0  0  # atno 10765 bound_to 10752
  140.3736  134.7008  157.4407 H   0  0  0  0  0  0  0  0  0  0  0  0  # atno 11005 bound_to 11000
  146.2783  140.4628  142.8786 LP  0  0  0  0  0  0  0  0  0  0  0  0  # atno 17320 bound_to 7965
  144.8419  140.6871  143.6223 LP  0  0  0  0  0  0  0  0  0  0  0  0  # atno 17321 bound_to 7965
  140.7432  143.6503  150.8254 LP  0  0  0  0  0  0  0  0  0  0  0  0  # atno 17342 bound_to 10162
  140.0126  143.5626  152.2833 LP  0  0  0  0  0  0  0  0  0  0  0  0  # atno 17343 bound_to 10162
  156.9483  130.5410  149.5282 LP  0  0  0  0  0  0  0  0  0  0  0  0  # atno 17370 bound_to 10713
  156.0467  130.5542  150.8896 LP  0  0  0  0  0  0  0  0  0  0  0  0  # atno 17371 bound_to 10713
  140.0533  134.6100  155.8836 LP  0  0  0  0  0  0  0  0  0  0  0  0  # atno 17394 bound_to 11000
  141.1946  133.6584  156.5605 LP  0  0  0  0  0  0  0  0  0  0  0  0  # atno 17395 bound_to 11000

$$$$
