AV-unprocessed.smi:3036|AV-procd|sdf|11583|dock2
  -GOLD-   2272016553D 1   1.00000     0.00000
 Structure written by MMmdl.
 42 43  0  0  0  0  0  0  0  0  2 V2000
  143.7286  137.1758  152.6111 C   0  0  0  0  0  0  0  0  0  0  0  0
  145.2537  137.1699  152.4409 C   0  0  1  0  0  0  0  0  0  0  0  0
  145.7007  136.0493  151.4829 C   0  0  0  0  0  0  0  0  0  0  0  0
  144.9951  134.8041  151.7242 N   0  0  0  0  0  0  0  0  0  0  0  0
  144.7445  133.7742  150.8421 C   0  0  0  0  0  0  0  0  0  0  0  0
  144.0355  132.8240  151.5191 C   0  0  0  0  0  0  0  0  0  0  0  0
  143.9057  133.3671  152.8279 C   0  0  0  0  0  0  0  0  0  0  0  0
  144.4833  134.5517  152.9472 N   0  0  0  0  0  0  0  0  0  0  0  0
  145.7046  138.4936  151.9534 N   0  3  0  0  0  0  0  0  0  0  0  0
  147.1036  138.8341  152.2940 C   0  0  0  0  0  0  0  0  0  0  0  0
  147.2533  139.3032  153.7558 C   0  0  0  0  0  0  0  0  0  0  0  0
  148.5525  140.0712  154.0651 C   0  0  0  0  0  0  0  0  0  0  0  0
  148.8062  141.0934  153.4278 O   0  0  0  0  0  0  0  0  0  0  0  0
  149.3817  139.5997  155.0271 N   0  0  0  0  0  0  0  0  0  0  0  0
  149.1282  138.3602  155.7682 C   0  0  0  0  0  0  0  0  0  0  0  0
  150.2459  137.3557  155.4355 C   0  0  0  0  0  0  0  0  0  0  0  0
  151.5124  137.9212  155.7643 O   0  0  0  0  0  0  0  0  0  0  0  0
  151.7758  139.1419  155.0770 C   0  0  0  0  0  0  0  0  0  0  0  0
  150.6785  140.1697  155.4071 C   0  0  0  0  0  0  0  0  0  0  0  0
  143.3733  136.2196  152.9963 H   0  0  0  0  0  0  0  0  0  0  0  0
  143.2228  137.3598  151.6624 H   0  0  0  0  0  0  0  0  0  0  0  0
  143.4139  137.9492  153.3128 H   0  0  0  0  0  0  0  0  0  0  0  0
  145.6913  136.9748  153.4218 H   0  0  0  0  0  0  0  0  0  0  0  0
  145.5135  136.3431  150.4493 H   0  0  0  0  0  0  0  0  0  0  0  0
  146.7752  135.8766  151.5664 H   0  0  0  0  0  0  0  0  0  0  0  0
  145.0834  133.8047  149.8169 H   0  0  0  0  0  0  0  0  0  0  0  0
  143.6670  131.8829  151.1382 H   0  0  0  0  0  0  0  0  0  0  0  0
  143.4118  132.9398  153.6883 H   0  0  0  0  0  0  0  0  0  0  0  0
  145.6087  138.5120  150.9472 H   0  0  0  0  0  0  0  0  0  0  0  0
  147.7231  137.9493  152.1419 H   0  0  0  0  0  0  0  0  0  0  0  0
  147.4721  139.5966  151.6056 H   0  0  0  0  0  0  0  0  0  0  0  0
  146.3965  139.9247  154.0195 H   0  0  0  0  0  0  0  0  0  0  0  0
  147.2212  138.4251  154.4018 H   0  0  0  0  0  0  0  0  0  0  0  0
  149.1204  138.5741  156.8379 H   0  0  0  0  0  0  0  0  0  0  0  0
  148.1576  137.9171  155.5418 H   0  0  0  0  0  0  0  0  0  0  0  0
  150.1110  136.4370  156.0068 H   0  0  0  0  0  0  0  0  0  0  0  0
  150.2222  137.0824  154.3794 H   0  0  0  0  0  0  0  0  0  0  0  0
  152.7509  139.5171  155.3874 H   0  0  0  0  0  0  0  0  0  0  0  0
  151.8297  138.9611  154.0024 H   0  0  0  0  0  0  0  0  0  0  0  0
  150.9063  141.1160  154.9196 H   0  0  0  0  0  0  0  0  0  0  0  0
  150.6754  140.3814  156.4772 H   0  0  0  0  0  0  0  0  0  0  0  0
  145.0989  139.1996  152.3467 H   0  0  0  0  0  0  0  0  0  0  0  0
  1  2  1  0  0  0  0
  1 20  1  0  0  0  0
  1 21  1  0  0  0  0
  1 22  1  0  0  0  0
  2  3  1  0  0  0  0
  2  9  1  0  0  0  0
  2 23  1  0  0  0  0
  3  4  1  0  0  0  0
  3 24  1  0  0  0  0
  3 25  1  0  0  0  0
  4  8  1  0  0  0  0
  4  5  1  0  0  0  0
  5  6  2  0  0  0  0
  5 26  1  0  0  0  0
  6  7  1  0  0  0  0
  6 27  1  0  0  0  0
  7  8  2  0  0  0  0
  7 28  1  0  0  0  0
  9 10  1  0  0  0  0
  9 29  1  0  0  0  0
  9 42  1  0  0  0  0
 10 11  1  0  0  0  0
 10 30  1  0  0  0  0
 10 31  1  0  0  0  0
 11 12  1  0  0  0  0
 11 32  1  0  0  0  0
 11 33  1  0  0  0  0
 12 13  2  0  0  0  0
 12 14  1  0  0  0  0
 14 19  1  0  0  0  0
 14 15  1  0  0  0  0
 15 16  1  0  0  0  0
 15 34  1  0  0  0  0
 15 35  1  0  0  0  0
 16 17  1  0  0  0  0
 16 36  1  0  0  0  0
 16 37  1  0  0  0  0
 17 18  1  0  0  0  0
 18 19  1  0  0  0  0
 18 38  1  0  0  0  0
 18 39  1  0  0  0  0
 19 40  1  0  0  0  0
 19 41  1  0  0  0  0
M  CHG  1   9   1
M  END
> <s_m_source_file>
AV-unprocessed.smi

> <i_m_source_file_index>
3036

> <i_lp_mmshare_version>
43012

> <i_f3d_flags>
0

> <s_epik_input>
bjFbY0hdW2NIXVtjSF1uMVtDSDJdW0NAQEhdKFtDSDNdKVtOSF1bQ0gyXVtDSDJdQyg9TylOMltDSDJdW0NIMl1PW0NIMl1bQ0gyXTI=

> <s_epik_cmdline>
J2VwaWtfcHl0aG9uJywgJy1waCcsICc3LjAnLCAnLXRuJywgJzgnLCAnLW1hJywgJzIwMCcsICctbWV0YWxfYmluZGluZycsICctaW1hZScsICc8aW5maWxlLm1hZT4nLCAnLW9tYWUnLCAnPG91dGZpbGUubWFlPic=

> <r_lp_tautomer_probability>
1

> <r_epik_Ionization_Penalty>
0.00797109

> <r_epik_Ionization_Penalty_Charging>
0.0079672

> <r_epik_Ionization_Penalty_Neutral>
3.88864e-06

> <r_epik_State_Penalty>
0.00597998

> <r_epik_Charging_Adjusted_Penalty>
0.0139472

> <i_epik_Tot_Q>
1

> <i_epik_Tot_abs_Q>
1

> <r_epik_Metal_State_Penalty>
0.00598029

> <b_epik_Metal_Only>
0

> <s_lp_Force_Field>
OPLS_2005

> <r_lp_Energy>
23.754

> <b_lp_Chiralities_Consistent>
1

> <s_lp_Variant>
AV-unprocessed.smi:3036-2

> <Gold.Version>
5.8.1

> <Gold.Id.Protein>
6NUR|6NUR_protein|mol2

> <Gold.PLP.Fitness>
48.3535

> <Gold.PLP.PLP>
-31.9768

> <Gold.PLP.part.hbond>
-4.3179

> <Gold.PLP.part.metal>
0.0000

> <Gold.PLP.part.buried>
3.0326

> <Gold.PLP.part.nonpolar>
-33.3311

> <Gold.PLP.part.repulsive>
3.5398

> <Gold.PLP.ligand.clash>
0.0000

> <Gold.PLP.ligand.torsion>
0.9043

> <Gold.PLP.Chemscore.Hbond>
3.9722

> <Gold.PLP.Chemscore.CHOScore>
2.0000

> <Gold.PLP.Chemscore.Metal>
0.0000

> <Gold.Chemscore.Hbonds>
donor molecule, donor type, donor heavy atom, donor atom, acceptor molecule, acceptor atom, score
      L1  H     9    29       P1 10171  0.54
      L1  H     9    42       P1 10175  2.00
      P1  H  8011  8017       L1    13  1.00
      L1  C     5    26       P1  7921  0.77
      L1  C     7    28       P1 10957  0.34

> <Gold.PLP.Chemscore.Internal.Correction>
0.2688

> <Gold.Rescore>
     Score         DG    S(hbond)    S(metal)    S(lipo)     H(rot)  DE(clash)    DE(int)     intcor
     13.38     -16.60       2.39        0.00      72.17       2.07       1.01       2.21       ----

> <Gold.Chemscore.Fitness>
13.3786

> <Gold.Chemscore.DG>
-16.6019

> <Gold.Chemscore.ZeroCoef>
-5.4800

> <Gold.Chemscore.Hbond>
2.3870

> <Gold.Chemscore.Metal>
0.0000

> <Gold.Chemscore.Lipo>
72.1662

> <Gold.Chemscore.Internal_Hbond>
0.0000

> <Gold.Chemscore.DEClash>
1.0090

> <Gold.Chemscore.DEInternal>
2.2142

> <Gold.Chemscore.Rot>
2.0680

> <Gold.Chemscore.Internal.Correction>
   9.000000E+99

> <Gold.Chemscore.Hbonds>
donor molecule, donor type, donor heavy atom, donor atom, acceptor molecule, acceptor atom, score
      L1  H     9    29       P1 10171  0.51
      L1  H     9    42       P1 10175  0.99
      P1  H  8011  8017       L1    13  0.92

> <Gold.Chemscore.Hbond.Weighted>
-7.9725

> <Gold.Chemscore.Metal.Weighted>
-0.0000

> <Gold.Chemscore.Lipo.Weighted>
-8.4434

> <Gold.Chemscore.Internal_Hbond.Weighted>
0.0000

> <Gold.Chemscore.DEClash.Weighted>
1.0090

> <Gold.Chemscore.DEInternal.Weighted>
2.2142

> <Gold.Chemscore.Rot.Weighted>
5.2941

> <Gold.Chemscore.Internal.Correction.Weighted>
   9.000000E+99

> <Gold.Protein.RotatedTorsions>
[ 6907 6896 6895 6894 ] final   18.59 input  -60.11 | X-H torsion
[ 7974 7965 7964 7962 ] final   -3.30 input  175.53 | X-H torsion
[ 8008 7997 7996 7995 ] final   -8.14 input   59.86 | X-H torsion
[ 10167 10162 10161 10158 ] final  -11.27 input  -65.29 | X-H torsion
[ 10718 10713 10712 10709 ] final    0.65 input   66.30 | X-H torsion
[ 10763 10752 10751 10750 ] final   56.41 input  -60.55 | X-H torsion
[ 11005 11000 10999 10996 ] final   28.24 input  -57.11 | X-H torsion

> <Gold.Protein.ActiveResidues>
 VAL166  LYS551  ARG553  GLY616  TRP617  ASP618  TYR619  PRO620  LYS621  CYS622 
 ASP623  PHE694  ASN695  SER759  ASP760  ASP761  ALA762  ILE779  LEU786  VAL792 
 PHE793  MET794  SER795  GLU796  ALA797  LYS798  CYS799  TRP800  GLU811  SER814 

> <Gold.Protein.RotatedAtoms>
  151.8677  135.0501  160.0475 H   0  0  0  0  0  0  0  0  0  0  0  0  # atno 6907 bound_to 6896
  152.2613  133.5295  159.5392 H   0  0  0  0  0  0  0  0  0  0  0  0  # atno 6908 bound_to 6896
  150.7117  134.0742  159.3917 H   0  0  0  0  0  0  0  0  0  0  0  0  # atno 6909 bound_to 6896
  146.2391  140.1701  142.8332 H   0  0  0  0  0  0  0  0  0  0  0  0  # atno 7974 bound_to 7965
  154.5770  140.2389  155.8108 H   0  0  0  0  0  0  0  0  0  0  0  0  # atno 8008 bound_to 7997
  156.2151  140.3015  155.9777 H   0  0  0  0  0  0  0  0  0  0  0  0  # atno 8009 bound_to 7997
  155.2609  140.0414  157.2987 H   0  0  0  0  0  0  0  0  0  0  0  0  # atno 8010 bound_to 7997
  140.7134  143.5658  150.9146 H   0  0  0  0  0  0  0  0  0  0  0  0  # atno 10167 bound_to 10162
  156.8366  130.5506  149.5681 H   0  0  0  0  0  0  0  0  0  0  0  0  # atno 10718 bound_to 10713
  152.9831  135.5677  154.5224 H   0  0  0  0  0  0  0  0  0  0  0  0  # atno 10763 bound_to 10752
  154.4709  135.2785  155.1645 H   0  0  0  0  0  0  0  0  0  0  0  0  # atno 10764 bound_to 10752
  154.3193  135.6272  153.5554 H   0  0  0  0  0  0  0  0  0  0  0  0  # atno 10765 bound_to 10752
  140.3177  134.2578  155.7722 H   0  0  0  0  0  0  0  0  0  0  0  0  # atno 11005 bound_to 11000
  145.0019  140.8639  143.5276 LP  0  0  0  0  0  0  0  0  0  0  0  0  # atno 17320 bound_to 7965
  145.1721  139.2398  143.5336 LP  0  0  0  0  0  0  0  0  0  0  0  0  # atno 17321 bound_to 7965
  139.9384  143.6411  152.3060 LP  0  0  0  0  0  0  0  0  0  0  0  0  # atno 17342 bound_to 10162
  139.6887  144.7649  151.1478 LP  0  0  0  0  0  0  0  0  0  0  0  0  # atno 17343 bound_to 10162
  156.0904  130.5891  150.9723 LP  0  0  0  0  0  0  0  0  0  0  0  0  # atno 17370 bound_to 10713
  157.6378  131.0914  150.8312 LP  0  0  0  0  0  0  0  0  0  0  0  0  # atno 17371 bound_to 10713
  141.2094  133.7751  157.0000 LP  0  0  0  0  0  0  0  0  0  0  0  0  # atno 17394 bound_to 11000
  140.0969  134.9559  157.1863 LP  0  0  0  0  0  0  0  0  0  0  0  0  # atno 17395 bound_to 11000

$$$$
