AV-unprocessed.smi:2062|AV-procd|sdf|8398|dock5
  -GOLD-   2272011 83D 1   1.00000     0.00000
 Structure written by MMmdl.
 43 44  0  0  0  0  0  0  0  0  2 V2000
  144.5554  132.1845  149.6650 C   0  0  0  0  0  0  0  0  0  0  0  0
  145.8818  132.2839  150.4371 C   0  0  0  0  0  0  0  0  0  0  0  0
  145.7935  131.5021  151.7564 C   0  0  0  0  0  0  0  0  0  0  0  0
  146.2890  133.7501  150.7027 C   0  0  0  0  0  0  0  0  0  0  0  0
  145.1515  134.6094  151.1327 N   0  3  1  0  0  0  0  0  0  0  0  0
  144.7575  134.4038  152.5475 C   0  0  0  0  0  0  0  0  0  0  0  0
  145.7276  135.1198  153.5035 C   0  0  0  0  0  0  0  0  0  0  0  0
  145.7782  136.5014  153.1739 O   0  0  0  0  0  0  0  0  0  0  0  0
  146.2685  136.7380  151.8574 C   0  0  2  0  0  0  0  0  0  0  0  0
  146.3497  138.2573  151.6252 C   0  0  0  0  0  0  0  0  0  0  0  0
  147.6199  138.8096  152.0844 N   0  0  0  0  0  0  0  0  0  0  0  0
  147.8691  139.2459  153.3273 C   0  0  0  0  0  0  0  0  0  0  0  0
  147.0360  139.2246  154.2336 O   0  0  0  0  0  0  0  0  0  0  0  0
  149.1305  139.6972  153.4400 N   0  0  0  0  0  0  0  0  0  0  0  0
  149.7712  140.2361  154.5864 C   0  0  0  0  0  0  0  0  0  0  0  0
  151.0707  140.0837  154.8671 N   0  0  0  0  0  0  0  0  0  0  0  0
  151.4276  140.7207  156.0583 C   0  0  0  0  0  0  0  0  0  0  0  0
  150.3800  141.3578  156.6754 C   0  0  0  0  0  0  0  0  0  0  0  0
  148.8949  141.1831  155.7795 S   0  0  0  0  0  0  0  0  0  0  0  0
  145.3150  136.0590  150.8489 C   0  0  0  0  0  0  0  0  0  0  0  0
  143.7378  132.6497  150.2165 H   0  0  0  0  0  0  0  0  0  0  0  0
  144.2838  131.1435  149.4867 H   0  0  0  0  0  0  0  0  0  0  0  0
  144.6213  132.6714  148.6920 H   0  0  0  0  0  0  0  0  0  0  0  0
  146.6529  131.7985  149.8404 H   0  0  0  0  0  0  0  0  0  0  0  0
  145.0303  131.9176  152.4152 H   0  0  0  0  0  0  0  0  0  0  0  0
  146.7431  131.5247  152.2918 H   0  0  0  0  0  0  0  0  0  0  0  0
  145.5440  130.4556  151.5781 H   0  0  0  0  0  0  0  0  0  0  0  0
  147.0524  133.7515  151.4821 H   0  0  0  0  0  0  0  0  0  0  0  0
  146.7655  134.1757  149.8197 H   0  0  0  0  0  0  0  0  0  0  0  0
  143.7538  134.8080  152.6865 H   0  0  0  0  0  0  0  0  0  0  0  0
  144.6929  133.3407  152.7816 H   0  0  0  0  0  0  0  0  0  0  0  0
  145.3823  135.0180  154.5325 H   0  0  0  0  0  0  0  0  0  0  0  0
  146.7262  134.6825  153.4604 H   0  0  0  0  0  0  0  0  0  0  0  0
  147.2715  136.3198  151.7620 H   0  0  0  0  0  0  0  0  0  0  0  0
  146.2749  138.4688  150.5583 H   0  0  0  0  0  0  0  0  0  0  0  0
  145.5087  138.7670  152.0986 H   0  0  0  0  0  0  0  0  0  0  0  0
  148.3624  138.8687  151.4029 H   0  0  0  0  0  0  0  0  0  0  0  0
  149.6994  139.6543  152.6073 H   0  0  0  0  0  0  0  0  0  0  0  0
  152.4530  140.6705  156.3941 H   0  0  0  0  0  0  0  0  0  0  0  0
  150.3920  141.9174  157.5987 H   0  0  0  0  0  0  0  0  0  0  0  0
  145.6542  136.2244  149.8276 H   0  0  0  0  0  0  0  0  0  0  0  0
  144.3311  136.5255  150.9157 H   0  0  0  0  0  0  0  0  0  0  0  0
  144.3658  134.2944  150.5813 H   0  0  0  0  0  0  0  0  0  0  0  0
  1  2  1  0  0  0  0
  1 21  1  0  0  0  0
  1 22  1  0  0  0  0
  1 23  1  0  0  0  0
  2  3  1  0  0  0  0
  2  4  1  0  0  0  0
  2 24  1  0  0  0  0
  3 25  1  0  0  0  0
  3 26  1  0  0  0  0
  3 27  1  0  0  0  0
  4  5  1  0  0  0  0
  4 28  1  0  0  0  0
  4 29  1  0  0  0  0
  5 20  1  0  0  0  0
  5  6  1  0  0  0  0
  5 43  1  0  0  0  0
  6  7  1  0  0  0  0
  6 30  1  0  0  0  0
  6 31  1  0  0  0  0
  7  8  1  0  0  0  0
  7 32  1  0  0  0  0
  7 33  1  0  0  0  0
  8  9  1  0  0  0  0
  9 10  1  0  0  0  0
  9 20  1  0  0  0  0
  9 34  1  0  0  0  0
 10 11  1  0  0  0  0
 10 35  1  0  0  0  0
 10 36  1  0  0  0  0
 11 12  1  0  0  0  0
 11 37  1  0  0  0  0
 12 13  2  0  0  0  0
 12 14  1  0  0  0  0
 14 15  1  0  0  0  0
 14 38  1  0  0  0  0
 15 19  1  0  0  0  0
 15 16  2  0  0  0  0
 16 17  1  0  0  0  0
 17 18  2  0  0  0  0
 17 39  1  0  0  0  0
 18 19  1  0  0  0  0
 18 40  1  0  0  0  0
 20 41  1  0  0  0  0
 20 42  1  0  0  0  0
M  CHG  1   5   1
M  END
> <s_m_source_file>
AV-unprocessed.smi

> <i_m_source_file_index>
2062

> <i_lp_mmshare_version>
43012

> <i_f3d_flags>
0

> <s_epik_input>
W0NIM11bQ0hdKFtDSDNdKVtDSDJdTjFbQ0gyXVtDSDJdT1tDQEhdKFtDSDJdMSlbQ0gyXVtOSF1DKD1PKVtOSF1jMm5bY0hdW2NIXXMy

> <s_epik_cmdline>
J2VwaWtfcHl0aG9uJywgJy1waCcsICc3LjAnLCAnLXRuJywgJzgnLCAnLW1hJywgJzIwMCcsICctbWV0YWxfYmluZGluZycsICctaW1hZScsICc8aW5maWxlLm1hZT4nLCAnLW9tYWUnLCAnPG91dGZpbGUubWFlPic=

> <r_lp_tautomer_probability>
0.999

> <r_epik_Ionization_Penalty>
0.0985527

> <r_epik_Ionization_Penalty_Charging>
0.098413

> <r_epik_Ionization_Penalty_Neutral>
0.000139681

> <r_epik_State_Penalty>
0.0884988

> <r_epik_Charging_Adjusted_Penalty>
0.186912

> <i_epik_Tot_Q>
1

> <i_epik_Tot_abs_Q>
1

> <r_epik_Metal_State_Penalty>
0.141792

> <b_epik_Metal_Only>
0

> <s_lp_Force_Field>
OPLS_2005

> <r_lp_Energy>
18.2091

> <b_lp_Chiralities_Consistent>
1

> <s_lp_Variant>
AV-unprocessed.smi:2062-3

> <Gold.Version>
5.8.1

> <Gold.Id.Protein>
6NUR|6NUR_protein|mol2

> <Gold.PLP.Fitness>
40.0860

> <Gold.PLP.PLP>
-33.8057

> <Gold.PLP.part.hbond>
-3.9143

> <Gold.PLP.part.metal>
0.0000

> <Gold.PLP.part.buried>
-1.5321

> <Gold.PLP.part.nonpolar>
-28.6593

> <Gold.PLP.part.repulsive>
0.5021

> <Gold.PLP.ligand.clash>
0.0000

> <Gold.PLP.ligand.torsion>
1.1017

> <Gold.PLP.Chemscore.Hbond>
2.7920

> <Gold.PLP.Chemscore.CHOScore>
0.0000

> <Gold.PLP.Chemscore.Metal>
0.0000

> <Gold.Chemscore.Hbonds>
donor molecule, donor type, donor heavy atom, donor atom, acceptor molecule, acceptor atom, score
      L1  H    11    37       P1  7957  0.67
      L1  H    14    38       P1  7957  0.71
      P1  H  7989  7998       L1    16  0.80

> <Gold.PLP.Chemscore.Internal.Correction>
0.1076

> <Gold.Rescore>
     Score         DG    S(hbond)    S(metal)    S(lipo)     H(rot)  DE(clash)    DE(int)     intcor
     16.21     -18.90       2.64        0.00      77.88       1.76       1.49       1.19       ----

> <Gold.Chemscore.Fitness>
16.2145

> <Gold.Chemscore.DG>
-18.8952

> <Gold.Chemscore.ZeroCoef>
-5.4800

> <Gold.Chemscore.Hbond>
2.6374

> <Gold.Chemscore.Metal>
0.0000

> <Gold.Chemscore.Lipo>
77.8789

> <Gold.Chemscore.Internal_Hbond>
0.0000

> <Gold.Chemscore.DEClash>
1.4884

> <Gold.Chemscore.DEInternal>
1.1924

> <Gold.Chemscore.Rot>
1.7599

> <Gold.Chemscore.Internal.Correction>
   9.000000E+99

> <Gold.Chemscore.Hbonds>
donor molecule, donor type, donor heavy atom, donor atom, acceptor molecule, acceptor atom, score
      L1  H    11    37       P1  7957  0.30
      L1  H    14    38       P1  7957  0.70
      P1  H  7989  7998       L1    16  0.10

> <Gold.Chemscore.Hbond.Weighted>
-8.8088

> <Gold.Chemscore.Metal.Weighted>
-0.0000

> <Gold.Chemscore.Lipo.Weighted>
-9.1118

> <Gold.Chemscore.Internal_Hbond.Weighted>
0.0000

> <Gold.Chemscore.DEClash.Weighted>
1.4884

> <Gold.Chemscore.DEInternal.Weighted>
1.1924

> <Gold.Chemscore.Rot.Weighted>
4.5054

> <Gold.Chemscore.Internal.Correction.Weighted>
   9.000000E+99

> <Gold.Protein.RotatedTorsions>
[ 6907 6896 6895 6894 ] final -172.01 input  -60.11 | X-H torsion
[ 7974 7965 7964 7962 ] final -128.44 input  175.53 | X-H torsion
[ 8008 7997 7996 7995 ] final  -41.92 input   59.86 | X-H torsion
[ 10167 10162 10161 10158 ] final  177.94 input  -65.29 | X-H torsion
[ 10718 10713 10712 10709 ] final  -12.04 input   66.30 | X-H torsion
[ 10763 10752 10751 10750 ] final  -46.48 input  -60.55 | X-H torsion
[ 11005 11000 10999 10996 ] final   75.29 input  -57.11 | X-H torsion

> <Gold.Protein.ActiveResidues>
 VAL166  LYS551  ARG553  GLY616  TRP617  ASP618  TYR619  PRO620  LYS621  CYS622 
 ASP623  PHE694  ASN695  SER759  ASP760  ASP761  ALA762  ILE779  LEU786  VAL792 
 PHE793  MET794  SER795  GLU796  ALA797  LYS798  CYS799  TRP800  GLU811  SER814 

> <Gold.Protein.RotatedAtoms>
  151.5331  133.3445  159.2921 H   0  0  0  0  0  0  0  0  0  0  0  0  # atno 6907 bound_to 6896
  150.8581  134.7928  159.7073 H   0  0  0  0  0  0  0  0  0  0  0  0  # atno 6908 bound_to 6896
  152.4609  134.5195  159.9830 H   0  0  0  0  0  0  0  0  0  0  0  0  # atno 6909 bound_to 6896
  144.9671  140.7507  143.4693 H   0  0  0  0  0  0  0  0  0  0  0  0  # atno 7974 bound_to 7965
  154.4001  140.1487  156.3270 H   0  0  0  0  0  0  0  0  0  0  0  0  # atno 8008 bound_to 7997
  155.8478  140.3459  155.5652 H   0  0  0  0  0  0  0  0  0  0  0  0  # atno 8009 bound_to 7997
  155.8017  140.0871  157.1944 H   0  0  0  0  0  0  0  0  0  0  0  0  # atno 8010 bound_to 7997
  139.5273  144.2739  152.0605 H   0  0  0  0  0  0  0  0  0  0  0  0  # atno 10167 bound_to 10162
  156.6504  130.4953  149.6064 H   0  0  0  0  0  0  0  0  0  0  0  0  # atno 10718 bound_to 10713
  154.0458  135.6638  153.4795 H   0  0  0  0  0  0  0  0  0  0  0  0  # atno 10763 bound_to 10752
  153.0483  135.5100  154.7799 H   0  0  0  0  0  0  0  0  0  0  0  0  # atno 10764 bound_to 10752
  154.6789  135.3041  154.9606 H   0  0  0  0  0  0  0  0  0  0  0  0  # atno 10765 bound_to 10752
  139.9350  134.7505  156.1253 H   0  0  0  0  0  0  0  0  0  0  0  0  # atno 11005 bound_to 11000
  145.2614  139.1991  143.4890 LP  0  0  0  0  0  0  0  0  0  0  0  0  # atno 17320 bound_to 7965
  146.3371  140.2545  142.8599 LP  0  0  0  0  0  0  0  0  0  0  0  0  # atno 17321 bound_to 7965
  140.2197  144.4479  150.6347 LP  0  0  0  0  0  0  0  0  0  0  0  0  # atno 17342 bound_to 10162
  140.6427  143.2207  151.6255 LP  0  0  0  0  0  0  0  0  0  0  0  0  # atno 17343 bound_to 10162
  156.2089  130.6666  151.1248 LP  0  0  0  0  0  0  0  0  0  0  0  0  # atno 17370 bound_to 10713
  157.7143  131.0718  150.6387 LP  0  0  0  0  0  0  0  0  0  0  0  0  # atno 17371 bound_to 10713
  141.0959  133.6695  156.2645 LP  0  0  0  0  0  0  0  0  0  0  0  0  # atno 17394 bound_to 11000
  140.6099  134.5469  157.5532 LP  0  0  0  0  0  0  0  0  0  0  0  0  # atno 17395 bound_to 11000

$$$$
