AV-unprocessed.smi:652|AV-procd|sdf|3203|dock8
  -GOLD-   22720 0143D 1   1.00000     0.00000
 Structure written by MMmdl.
 48 49  0  0  0  0  0  0  0  0  2 V2000
  147.1153  133.4140  160.8718 C   0  0  0  0  0  0  0  0  0  0  0  0
  147.7441  134.6835  161.4671 C   0  0  0  0  0  0  0  0  0  0  0  0
  147.0334  135.1167  162.7563 C   0  0  0  0  0  0  0  0  0  0  0  0
  147.7025  135.7759  160.4990 N   0  0  0  0  0  0  0  0  0  0  0  0
  148.3039  135.7779  159.2988 C   0  0  0  0  0  0  0  0  0  0  0  0
  148.9712  134.8337  158.8753 O   0  0  0  0  0  0  0  0  0  0  0  0
  148.1250  137.0440  158.4561 C   0  0  0  0  0  0  0  0  0  0  0  0
  148.9709  137.0258  157.1671 C   0  0  0  0  0  0  0  0  0  0  0  0
  149.0090  138.2927  156.4371 N   0  0  0  0  0  0  0  0  0  0  0  0
  149.1436  138.0635  155.0027 C   0  0  0  0  0  0  0  0  0  0  0  0
  149.1735  139.3810  154.2096 C   0  0  0  0  0  0  0  0  0  0  0  0
  150.2348  140.2025  154.6854 O   0  0  0  0  0  0  0  0  0  0  0  0
  150.1385  140.4829  156.0798 C   0  0  2  0  0  0  0  0  0  0  0  0
  151.2938  141.4126  156.4834 C   0  0  0  0  0  0  0  0  0  0  0  0
  150.8500  142.7812  156.7066 N   0  0  0  0  0  0  0  0  0  0  0  0
  151.2769  143.4925  157.8353 C   0  0  0  0  0  0  0  0  0  0  0  0
  152.1418  142.9669  158.8229 C   0  0  0  0  0  0  0  0  0  0  0  0
  152.4901  143.7885  159.9086 C   0  0  0  0  0  0  0  0  0  0  0  0
  151.9522  145.0872  159.9418 C   0  0  0  0  0  0  0  0  0  0  0  0
  151.1271  145.5714  158.9870 N   0  0  0  0  0  0  0  0  0  0  0  0
  150.8128  144.7609  157.9607 N   0  3  0  0  0  0  0  0  0  0  0  0
  150.0935  139.1643  156.8819 C   0  0  0  0  0  0  0  0  0  0  0  0
  147.1489  132.5899  161.5850 H   0  0  0  0  0  0  0  0  0  0  0  0
  147.6455  133.0916  159.9751 H   0  0  0  0  0  0  0  0  0  0  0  0
  146.0715  133.5769  160.6013 H   0  0  0  0  0  0  0  0  0  0  0  0
  148.7848  134.4704  161.7188 H   0  0  0  0  0  0  0  0  0  0  0  0
  147.0777  134.3302  163.5104 H   0  0  0  0  0  0  0  0  0  0  0  0
  145.9825  135.3445  162.5747 H   0  0  0  0  0  0  0  0  0  0  0  0
  147.4989  136.0062  163.1820 H   0  0  0  0  0  0  0  0  0  0  0  0
  147.1748  136.5953  160.7631 H   0  0  0  0  0  0  0  0  0  0  0  0
  147.0711  137.1559  158.1966 H   0  0  0  0  0  0  0  0  0  0  0  0
  148.3896  137.8965  159.0813 H   0  0  0  0  0  0  0  0  0  0  0  0
  149.9888  136.7080  157.3994 H   0  0  0  0  0  0  0  0  0  0  0  0
  148.5606  136.2575  156.5098 H   0  0  0  0  0  0  0  0  0  0  0  0
  150.0566  137.5010  154.8013 H   0  0  0  0  0  0  0  0  0  0  0  0
  148.3152  137.4499  154.6466 H   0  0  0  0  0  0  0  0  0  0  0  0
  149.3258  139.1822  153.1488 H   0  0  0  0  0  0  0  0  0  0  0  0
  148.2240  139.9099  154.3041 H   0  0  0  0  0  0  0  0  0  0  0  0
  149.2056  141.0233  156.2498 H   0  0  0  0  0  0  0  0  0  0  0  0
  151.7635  141.0357  157.3929 H   0  0  0  0  0  0  0  0  0  0  0  0
  152.0546  141.4071  155.7019 H   0  0  0  0  0  0  0  0  0  0  0  0
  150.0884  143.1380  156.1470 H   0  0  0  0  0  0  0  0  0  0  0  0
  152.5358  141.9635  158.7626 H   0  0  0  0  0  0  0  0  0  0  0  0
  153.1468  143.4359  160.6901 H   0  0  0  0  0  0  0  0  0  0  0  0
  152.1891  145.7566  160.7556 H   0  0  0  0  0  0  0  0  0  0  0  0
  149.9746  139.4041  157.9379 H   0  0  0  0  0  0  0  0  0  0  0  0
  151.0444  138.6383  156.7855 H   0  0  0  0  0  0  0  0  0  0  0  0
  150.1896  145.1187  157.2365 H   0  0  0  0  0  0  0  0  0  0  0  0
  1  2  1  0  0  0  0
  1 23  1  0  0  0  0
  1 24  1  0  0  0  0
  1 25  1  0  0  0  0
  2  3  1  0  0  0  0
  2  4  1  0  0  0  0
  2 26  1  0  0  0  0
  3 27  1  0  0  0  0
  3 28  1  0  0  0  0
  3 29  1  0  0  0  0
  4  5  1  0  0  0  0
  4 30  1  0  0  0  0
  5  6  2  0  0  0  0
  5  7  1  0  0  0  0
  7  8  1  0  0  0  0
  7 31  1  0  0  0  0
  7 32  1  0  0  0  0
  8  9  1  0  0  0  0
  8 33  1  0  0  0  0
  8 34  1  0  0  0  0
  9 22  1  0  0  0  0
  9 10  1  0  0  0  0
 10 11  1  0  0  0  0
 10 35  1  0  0  0  0
 10 36  1  0  0  0  0
 11 12  1  0  0  0  0
 11 37  1  0  0  0  0
 11 38  1  0  0  0  0
 12 13  1  0  0  0  0
 13 14  1  0  0  0  0
 13 22  1  0  0  0  0
 13 39  1  0  0  0  0
 14 15  1  0  0  0  0
 14 40  1  0  0  0  0
 14 41  1  0  0  0  0
 15 16  1  0  0  0  0
 15 42  1  0  0  0  0
 16 21  1  0  0  0  0
 16 17  2  0  0  0  0
 17 18  1  0  0  0  0
 17 43  1  0  0  0  0
 18 19  2  0  0  0  0
 18 44  1  0  0  0  0
 19 20  1  0  0  0  0
 19 45  1  0  0  0  0
 20 21  2  0  0  0  0
 21 48  1  0  0  0  0
 22 46  1  0  0  0  0
 22 47  1  0  0  0  0
M  CHG  1  21   1
M  END
> <s_m_source_file>
AV-unprocessed.smi

> <i_m_source_file_index>
652

> <i_lp_mmshare_version>
43012

> <i_f3d_flags>
0

> <s_epik_input>
W0NIM11bQ0hdKFtDSDNdKVtOSF1DKD1PKVtDSDJdW0NIMl1OMVtDSDJdW0NIMl1PW0NASF0oW0NIMl0xKVtDSDJdW05IXWMyW2NIXVtjSF1bY0hdbm4y

> <s_epik_cmdline>
J2VwaWtfcHl0aG9uJywgJy1waCcsICc3LjAnLCAnLXRuJywgJzgnLCAnLW1hJywgJzIwMCcsICctbWV0YWxfYmluZGluZycsICctaW1hZScsICc8aW5maWxlLm1hZT4nLCAnLW9tYWUnLCAnPG91dGZpbGUubWFlPic=

> <r_epik_Ionization_Penalty>
2.70989

> <r_epik_Ionization_Penalty_Charging>
2.3023

> <r_epik_Ionization_Penalty_Neutral>
0.407592

> <r_epik_State_Penalty>
2.65305

> <r_epik_Charging_Adjusted_Penalty>
4.95534

> <i_epik_Tot_Q>
1

> <i_epik_Tot_abs_Q>
1

> <r_epik_Metal_State_Penalty>
2.66064

> <b_epik_Metal_Only>
0

> <s_lp_Force_Field>
OPLS_2005

> <r_lp_Energy>
34.9838

> <b_lp_Chiralities_Consistent>
1

> <s_lp_Variant>
AV-unprocessed.smi:652-12

> <Gold.Version>
5.8.1

> <Gold.Id.Protein>
6NUR|6NUR_protein|mol2

> <Gold.PLP.Fitness>
52.2095

> <Gold.PLP.PLP>
-38.6028

> <Gold.PLP.part.hbond>
-5.4359

> <Gold.PLP.part.metal>
0.0000

> <Gold.PLP.part.buried>
-5.1871

> <Gold.PLP.part.nonpolar>
-28.3426

> <Gold.PLP.part.repulsive>
0.5586

> <Gold.PLP.ligand.clash>
0.0000

> <Gold.PLP.ligand.torsion>
1.1983

> <Gold.PLP.Chemscore.Hbond>
5.3088

> <Gold.PLP.Chemscore.CHOScore>
0.0000

> <Gold.PLP.Chemscore.Metal>
0.0000

> <Gold.Chemscore.Hbonds>
donor molecule, donor type, donor heavy atom, donor atom, acceptor molecule, acceptor atom, score
      L1  H    15    42       P1  8028  1.87
      L1  H    21    48       P1  8028  1.29
      P1  H  6896  6908       L1     6  1.00
      P1  H  7989  7998       L1    12  1.00

> <Gold.PLP.Chemscore.Internal.Correction>
0.0770

> <Gold.Rescore>
     Score         DG    S(hbond)    S(metal)    S(lipo)     H(rot)  DE(clash)    DE(int)     intcor
     18.20     -19.67       2.87        0.00      89.15       2.28       0.08       1.39       ----

> <Gold.Chemscore.Fitness>
18.2028

> <Gold.Chemscore.DG>
-19.6682

> <Gold.Chemscore.ZeroCoef>
-5.4800

> <Gold.Chemscore.Hbond>
2.8701

> <Gold.Chemscore.Metal>
0.0000

> <Gold.Chemscore.Lipo>
89.1510

> <Gold.Chemscore.Internal_Hbond>
0.0000

> <Gold.Chemscore.DEClash>
0.0775

> <Gold.Chemscore.DEInternal>
1.3878

> <Gold.Chemscore.Rot>
2.2768

> <Gold.Chemscore.Internal.Correction>
   9.000000E+99

> <Gold.Chemscore.Hbonds>
donor molecule, donor type, donor heavy atom, donor atom, acceptor molecule, acceptor atom, score
      L1  H    15    42       P1  8028  0.84
      L1  H    21    48       P1  8028  0.05
      P1  H  6896  6908       L1     6  1.00
      P1  H  7989  7998       L1    12  0.96

> <Gold.Chemscore.Hbond.Weighted>
-9.5862

> <Gold.Chemscore.Metal.Weighted>
-0.0000

> <Gold.Chemscore.Lipo.Weighted>
-10.4307

> <Gold.Chemscore.Internal_Hbond.Weighted>
0.0000

> <Gold.Chemscore.DEClash.Weighted>
0.0775

> <Gold.Chemscore.DEInternal.Weighted>
1.3878

> <Gold.Chemscore.Rot.Weighted>
5.8286

> <Gold.Chemscore.Internal.Correction.Weighted>
   9.000000E+99

> <Gold.Protein.RotatedTorsions>
[ 6907 6896 6895 6894 ] final  158.57 input  -60.11 | X-H torsion
[ 7974 7965 7964 7962 ] final  172.88 input  175.53 | X-H torsion
[ 8008 7997 7996 7995 ] final   43.32 input   59.86 | X-H torsion
[ 10167 10162 10161 10158 ] final  148.85 input  -65.29 | X-H torsion
[ 10718 10713 10712 10709 ] final  -33.17 input   66.30 | X-H torsion
[ 10763 10752 10751 10750 ] final   -8.46 input  -60.55 | X-H torsion
[ 11005 11000 10999 10996 ] final -138.04 input  -57.11 | X-H torsion

> <Gold.Protein.ActiveResidues>
 VAL166  LYS551  ARG553  GLY616  TRP617  ASP618  TYR619  PRO620  LYS621  CYS622 
 ASP623  PHE694  ASN695  SER759  ASP760  ASP761  ALA762  ILE779  LEU786  VAL792 
 PHE793  MET794  SER795  GLU796  ALA797  LYS798  CYS799  TRP800  GLU811  SER814 

> <Gold.Protein.RotatedAtoms>
  151.9984  133.3816  159.4171 H   0  0  0  0  0  0  0  0  0  0  0  0  # atno 6907 bound_to 6896
  150.6913  134.3861  159.5065 H   0  0  0  0  0  0  0  0  0  0  0  0  # atno 6908 bound_to 6896
  152.1604  134.8916  160.0592 H   0  0  0  0  0  0  0  0  0  0  0  0  # atno 6909 bound_to 6896
  144.7257  139.9564  143.6433 H   0  0  0  0  0  0  0  0  0  0  0  0  # atno 7974 bound_to 7965
  155.3008  140.3385  155.4248 H   0  0  0  0  0  0  0  0  0  0  0  0  # atno 8008 bound_to 7997
  156.2002  140.1730  156.7954 H   0  0  0  0  0  0  0  0  0  0  0  0  # atno 8009 bound_to 7997
  154.5549  140.0698  156.8712 H   0  0  0  0  0  0  0  0  0  0  0  0  # atno 8010 bound_to 7997
  139.4869  144.5647  151.7166 H   0  0  0  0  0  0  0  0  0  0  0  0  # atno 10167 bound_to 10162
  156.3659  130.4331  149.7585 H   0  0  0  0  0  0  0  0  0  0  0  0  # atno 10718 bound_to 10713
  153.4408  135.7013  153.6170 H   0  0  0  0  0  0  0  0  0  0  0  0  # atno 10763 bound_to 10752
  153.4546  135.3750  155.2303 H   0  0  0  0  0  0  0  0  0  0  0  0  # atno 10764 bound_to 10752
  154.8727  135.4005  154.3806 H   0  0  0  0  0  0  0  0  0  0  0  0  # atno 10765 bound_to 10752
  140.8654  134.2117  157.4683 H   0  0  0  0  0  0  0  0  0  0  0  0  # atno 11005 bound_to 11000
  146.0671  139.3662  143.0545 LP  0  0  0  0  0  0  0  0  0  0  0  0  # atno 17320 bound_to 7965
  145.8016  140.9768  143.0995 LP  0  0  0  0  0  0  0  0  0  0  0  0  # atno 17321 bound_to 7965
  140.5223  144.0859  150.6026 LP  0  0  0  0  0  0  0  0  0  0  0  0  # atno 17342 bound_to 10162
  140.3821  143.2797  152.0158 LP  0  0  0  0  0  0  0  0  0  0  0  0  # atno 17343 bound_to 10162
  156.4731  130.8006  151.3023 LP  0  0  0  0  0  0  0  0  0  0  0  0  # atno 17370 bound_to 10713
  157.7479  131.0029  150.3019 LP  0  0  0  0  0  0  0  0  0  0  0  0  # atno 17371 bound_to 10713
  139.8709  134.9749  156.4864 LP  0  0  0  0  0  0  0  0  0  0  0  0  # atno 17394 bound_to 11000
  140.8635  133.8042  155.9289 LP  0  0  0  0  0  0  0  0  0  0  0  0  # atno 17395 bound_to 11000

$$$$
