AV-unprocessed.smi:1464|AV-procd|sdf|5939|dock10
  -GOLD-   22720 6 23D 1   1.00000     0.00000
 Structure written by MMmdl.
 40 41  0  0  0  0  0  0  0  0  2 V2000
  153.2136  142.5989  160.7297 C   0  0  0  0  0  0  0  0  0  0  0  0
  153.0472  142.7281  159.2015 C   0  0  2  0  0  0  0  0  0  0  0  0
  153.0978  144.2010  158.7469 C   0  0  0  0  0  0  0  0  0  0  0  0
  151.8220  144.9702  159.1244 C   0  0  0  0  0  0  0  0  0  0  0  0
  150.5717  144.2761  158.5664 C   0  0  0  0  0  0  0  0  0  0  0  0
  150.4860  142.8014  159.0055 C   0  0  1  0  0  0  0  0  0  0  0  0
  149.3216  142.1888  158.3670 N   0  0  0  0  0  0  0  0  0  0  0  0
  148.0439  142.5727  158.5157 C   0  0  0  0  0  0  0  0  0  0  0  0
  147.6994  143.5142  159.2320 O   0  0  0  0  0  0  0  0  0  0  0  0
  147.0131  141.7483  157.7280 C   0  0  0  0  0  0  0  0  0  0  0  0
  147.0705  141.9406  156.2715 N   0  0  0  0  0  0  0  0  0  0  0  0
  148.2897  141.4230  155.6559 N   0  5  0  0  0  0  0  0  0  0  0  0
  148.4417  141.5149  154.3080 C   0  0  0  0  0  0  0  0  0  0  0  0
  149.4287  141.0825  153.7177 O   0  0  0  0  0  0  0  0  0  0  0  0
  147.3868  142.1588  153.5428 C   0  0  0  0  0  0  0  0  0  0  0  0
  146.2854  142.6535  154.1411 C   0  0  0  0  0  0  0  0  0  0  0  0
  146.0766  142.5700  155.5816 C   0  0  0  0  0  0  0  0  0  0  0  0
  145.0765  143.0272  156.1354 O   0  0  0  0  0  0  0  0  0  0  0  0
  151.7803  142.0297  158.6380 C   0  0  2  0  0  0  0  0  0  0  0  0
  151.7177  140.5351  159.0112 C   0  0  0  0  0  0  0  0  0  0  0  0
  152.3693  143.0206  161.2743 H   0  0  0  0  0  0  0  0  0  0  0  0
  154.1114  143.1170  161.0674 H   0  0  0  0  0  0  0  0  0  0  0  0
  153.3166  141.5580  161.0353 H   0  0  0  0  0  0  0  0  0  0  0  0
  153.9135  142.2339  158.7594 H   0  0  0  0  0  0  0  0  0  0  0  0
  153.9714  144.6980  159.1700 H   0  0  0  0  0  0  0  0  0  0  0  0
  153.2256  144.2379  157.6643 H   0  0  0  0  0  0  0  0  0  0  0  0
  151.7430  145.0563  160.2084 H   0  0  0  0  0  0  0  0  0  0  0  0
  151.8788  145.9895  158.7417 H   0  0  0  0  0  0  0  0  0  0  0  0
  149.6795  144.8141  158.8900 H   0  0  0  0  0  0  0  0  0  0  0  0
  150.5879  144.3351  157.4771 H   0  0  0  0  0  0  0  0  0  0  0  0
  150.3696  142.7785  160.0898 H   0  0  0  0  0  0  0  0  0  0  0  0
  149.5023  141.4010  157.7619 H   0  0  0  0  0  0  0  0  0  0  0  0
  147.1544  140.6922  157.9645 H   0  0  0  0  0  0  0  0  0  0  0  0
  146.0190  141.9998  158.1024 H   0  0  0  0  0  0  0  0  0  0  0  0
  147.4901  142.2446  152.4711 H   0  0  0  0  0  0  0  0  0  0  0  0
  145.5278  143.1254  153.5336 H   0  0  0  0  0  0  0  0  0  0  0  0
  151.8716  142.0644  157.5509 H   0  0  0  0  0  0  0  0  0  0  0  0
  151.4948  140.3945  160.0690 H   0  0  0  0  0  0  0  0  0  0  0  0
  152.6632  140.0360  158.7981 H   0  0  0  0  0  0  0  0  0  0  0  0
  150.9455  140.0141  158.4449 H   0  0  0  0  0  0  0  0  0  0  0  0
  1  2  1  0  0  0  0
  1 21  1  0  0  0  0
  1 22  1  0  0  0  0
  1 23  1  0  0  0  0
  2 19  1  0  0  0  0
  2  3  1  0  0  0  0
  2 24  1  0  0  0  0
  3  4  1  0  0  0  0
  3 25  1  0  0  0  0
  3 26  1  0  0  0  0
  4  5  1  0  0  0  0
  4 27  1  0  0  0  0
  4 28  1  0  0  0  0
  5  6  1  0  0  0  0
  5 29  1  0  0  0  0
  5 30  1  0  0  0  0
  6  7  1  0  0  0  0
  6 19  1  0  0  0  0
  6 31  1  0  0  0  0
  7  8  1  0  0  0  0
  7 32  1  0  0  0  0
  8  9  2  0  0  0  0
  8 10  1  0  0  0  0
 10 33  1  0  0  0  0
 10 34  1  0  0  0  0
 10 11  1  0  0  0  0
 11 12  1  0  0  0  0
 11 17  1  0  0  0  0
 12 13  1  0  0  0  0
 13 14  2  0  0  0  0
 13 15  1  0  0  0  0
 15 35  1  0  0  0  0
 15 16  2  0  0  0  0
 16 36  1  0  0  0  0
 16 17  1  0  0  0  0
 17 18  2  0  0  0  0
 19 20  1  0  0  0  0
 19 37  1  0  0  0  0
 20 38  1  0  0  0  0
 20 39  1  0  0  0  0
 20 40  1  0  0  0  0
M  CHG  1  12  -1
M  END
> <s_m_source_file>
AV-unprocessed.smi

> <i_m_source_file_index>
1464

> <i_lp_mmshare_version>
43012

> <i_f3d_flags>
0

> <s_epik_input>
W0NIM11bQ0BASF0xW0NIMl1bQ0gyXVtDSDJdW0NASF0oW0NASF0xW0NIM10pW05IXUMoPU8pW0NIMl1uMltuSF1jKD1PKVtjSF1bY0hdYzI9Tw==

> <s_epik_cmdline>
J2VwaWtfcHl0aG9uJywgJy1waCcsICc3LjAnLCAnLXRuJywgJzgnLCAnLW1hJywgJzIwMCcsICctbWV0YWxfYmluZGluZycsICctaW1hZScsICc8aW5maWxlLm1hZT4nLCAnLW9tYWUnLCAnPG91dGZpbGUubWFlPic=

> <r_lp_tautomer_probability>
1

> <r_epik_Ionization_Penalty>
0.101366

> <r_epik_Ionization_Penalty_Charging>
0.101366

> <r_epik_Ionization_Penalty_Neutral>
1.90469e-08

> <r_epik_State_Penalty>
0.035861

> <r_epik_Charging_Adjusted_Penalty>
0.137227

> <i_epik_Tot_Q>
-1

> <i_epik_Tot_abs_Q>
1

> <r_epik_Metal_State_Penalty>
0.035861

> <b_epik_Metal_Only>
0

> <s_lp_Force_Field>
OPLS_2005

> <r_lp_Energy>
29.8831

> <b_lp_Chiralities_Consistent>
1

> <s_lp_Variant>
AV-unprocessed.smi:1464-5

> <Gold.Version>
5.8.1

> <Gold.Id.Protein>
6NUR|6NUR_protein|mol2

> <Gold.PLP.Fitness>
40.0334

> <Gold.PLP.PLP>
-36.8156

> <Gold.PLP.part.hbond>
-2.0000

> <Gold.PLP.part.metal>
0.0000

> <Gold.PLP.part.buried>
-6.4048

> <Gold.PLP.part.nonpolar>
-30.9416

> <Gold.PLP.part.repulsive>
3.1267

> <Gold.PLP.ligand.clash>
0.0000

> <Gold.PLP.ligand.torsion>
0.1542

> <Gold.PLP.Chemscore.Hbond>
1.1736

> <Gold.PLP.Chemscore.CHOScore>
0.0000

> <Gold.PLP.Chemscore.Metal>
0.0000

> <Gold.Chemscore.Hbonds>
donor molecule, donor type, donor heavy atom, donor atom, acceptor molecule, acceptor atom, score
      P1  H  7989  7998       L1    14  0.18
      P1  H  8011  8017       L1    14  0.96

> <Gold.PLP.Chemscore.Internal.Correction>
0.0054

> <Gold.Rescore>
     Score         DG    S(hbond)    S(metal)    S(lipo)     H(rot)  DE(clash)    DE(int)     intcor
     12.86     -15.91       0.91        0.00      99.22       1.64       1.32       1.74       ----

> <Gold.Chemscore.Fitness>
12.8568

> <Gold.Chemscore.DG>
-15.9143

> <Gold.Chemscore.ZeroCoef>
-5.4800

> <Gold.Chemscore.Hbond>
0.9084

> <Gold.Chemscore.Metal>
0.0000

> <Gold.Chemscore.Lipo>
99.2162

> <Gold.Chemscore.Internal_Hbond>
0.0000

> <Gold.Chemscore.DEClash>
1.3154

> <Gold.Chemscore.DEInternal>
1.7421

> <Gold.Chemscore.Rot>
1.6438

> <Gold.Chemscore.Internal.Correction>
   9.000000E+99

> <Gold.Chemscore.Hbonds>
donor molecule, donor type, donor heavy atom, donor atom, acceptor molecule, acceptor atom, score
      P1  H  7989  7998       L1    14  0.18
      P1  H  8011  8017       L1    14  0.45

> <Gold.Chemscore.Hbond.Weighted>
-3.0340

> <Gold.Chemscore.Metal.Weighted>
-0.0000

> <Gold.Chemscore.Lipo.Weighted>
-11.6083

> <Gold.Chemscore.Internal_Hbond.Weighted>
0.0000

> <Gold.Chemscore.DEClash.Weighted>
1.3154

> <Gold.Chemscore.DEInternal.Weighted>
1.7421

> <Gold.Chemscore.Rot.Weighted>
4.2080

> <Gold.Chemscore.Internal.Correction.Weighted>
   9.000000E+99

> <Gold.Protein.RotatedTorsions>
[ 6907 6896 6895 6894 ] final  -28.05 input  -60.11 | X-H torsion
[ 7974 7965 7964 7962 ] final -144.95 input  175.53 | X-H torsion
[ 8008 7997 7996 7995 ] final -154.15 input   59.86 | X-H torsion
[ 10167 10162 10161 10158 ] final -143.51 input  -65.29 | X-H torsion
[ 10718 10713 10712 10709 ] final -143.50 input   66.30 | X-H torsion
[ 10763 10752 10751 10750 ] final -142.12 input  -60.55 | X-H torsion
[ 11005 11000 10999 10996 ] final -136.01 input  -57.11 | X-H torsion

> <Gold.Protein.ActiveResidues>
 VAL166  LYS551  ARG553  GLY616  TRP617  ASP618  TYR619  PRO620  LYS621  CYS622 
 ASP623  PHE694  ASN695  SER759  ASP760  ASP761  ALA762  ILE779  LEU786  VAL792 
 PHE793  MET794  SER795  GLU796  ALA797  LYS798  CYS799  TRP800  GLU811  SER814 

> <Gold.Protein.RotatedAtoms>
  151.1384  135.0167  159.8614 H   0  0  0  0  0  0  0  0  0  0  0  0  # atno 6907 bound_to 6896
  152.5452  134.1528  159.8535 H   0  0  0  0  0  0  0  0  0  0  0  0  # atno 6908 bound_to 6896
  151.1601  133.4805  159.2627 H   0  0  0  0  0  0  0  0  0  0  0  0  # atno 6909 bound_to 6896
  144.8261  140.5645  143.5546 H   0  0  0  0  0  0  0  0  0  0  0  0  # atno 7974 bound_to 7965
  155.6818  140.0745  157.2481 H   0  0  0  0  0  0  0  0  0  0  0  0  # atno 8008 bound_to 7997
  154.4104  140.1680  156.2043 H   0  0  0  0  0  0  0  0  0  0  0  0  # atno 8009 bound_to 7997
  155.9528  140.3376  155.6425 H   0  0  0  0  0  0  0  0  0  0  0  0  # atno 8010 bound_to 7997
  139.7986  143.7865  152.2656 H   0  0  0  0  0  0  0  0  0  0  0  0  # atno 10167 bound_to 10162
  156.3587  130.7727  151.1891 H   0  0  0  0  0  0  0  0  0  0  0  0  # atno 10718 bound_to 10713
  154.8521  135.3505  154.5977 H   0  0  0  0  0  0  0  0  0  0  0  0  # atno 10763 bound_to 10752
  153.6586  135.6991  153.5190 H   0  0  0  0  0  0  0  0  0  0  0  0  # atno 10764 bound_to 10752
  153.2836  135.4256  155.1059 H   0  0  0  0  0  0  0  0  0  0  0  0  # atno 10765 bound_to 10752
  140.8845  134.1890  157.4569 H   0  0  0  0  0  0  0  0  0  0  0  0  # atno 11005 bound_to 11000
  145.4997  139.1484  143.3664 LP  0  0  0  0  0  0  0  0  0  0  0  0  # atno 17320 bound_to 7965
  146.2566  140.5137  142.8871 LP  0  0  0  0  0  0  0  0  0  0  0  0  # atno 17321 bound_to 7965
  139.7978  144.7386  150.9866 LP  0  0  0  0  0  0  0  0  0  0  0  0  # atno 17342 bound_to 10162
  140.7820  143.4376  151.0600 LP  0  0  0  0  0  0  0  0  0  0  0  0  # atno 17343 bound_to 10162
  157.7471  131.0406  150.4607 LP  0  0  0  0  0  0  0  0  0  0  0  0  # atno 17370 bound_to 10713
  156.4814  130.4074  149.6459 LP  0  0  0  0  0  0  0  0  0  0  0  0  # atno 17371 bound_to 10713
  139.8723  134.9832  156.5186 LP  0  0  0  0  0  0  0  0  0  0  0  0  # atno 17394 bound_to 11000
  140.8422  133.8196  155.9086 LP  0  0  0  0  0  0  0  0  0  0  0  0  # atno 17395 bound_to 11000

$$$$
