AV-unprocessed.smi:343|AV-procd|sdf|2388|dock8
  -GOLD-   2262022313D 1   1.00000     0.00000
 Structure written by MMmdl.
 42 44  0  0  0  0  0  0  0  0  1 V2000
  151.0341  145.5746  160.0903 C   0  0  0  0  0  0  0  0  0  0  0  0
  151.8706  144.3470  160.3136 C   0  0  0  0  0  0  0  0  0  0  0  0
  152.3002  144.0679  161.5332 N   0  0  0  0  0  0  0  0  0  0  0  0
  153.0018  142.9247  161.3979 N   0  0  0  0  0  0  0  0  0  0  0  0
  153.6197  142.3263  162.5652 C   0  0  0  0  0  0  0  0  0  0  0  0
  153.0190  142.4828  160.0896 C   0  0  0  0  0  0  0  0  0  0  0  0
  153.7263  141.2316  159.6791 C   0  0  0  0  0  0  0  0  0  0  0  0
  152.2932  143.3810  159.3535 C   0  0  0  0  0  0  0  0  0  0  0  0
  151.9924  143.3620  157.8756 C   0  0  0  0  0  0  0  0  0  0  0  0
  151.3468  142.0286  157.4991 C   0  0  0  0  0  0  0  0  0  0  0  0
  151.1585  141.1716  158.3621 O   0  0  0  0  0  0  0  0  0  0  0  0
  151.0030  141.8759  156.2103 N   0  0  0  0  0  0  0  0  0  0  0  0
  150.3118  140.7244  155.6429 C   0  0  0  0  0  0  0  0  0  0  0  0
  151.2875  139.6424  155.2194 C   0  0  0  0  0  0  0  0  0  0  0  0
  150.8645  138.5109  154.3127 C   0  0  0  0  0  0  0  0  0  0  0  0
  151.1803  138.2394  155.7664 C   0  0  0  0  0  0  0  0  0  0  0  0
  149.4134  141.1098  154.4790 C   0  0  0  0  0  0  0  0  0  0  0  0
  148.0397  141.6950  154.7045 C   0  0  0  0  0  0  0  0  0  0  0  0
  148.1843  140.3029  154.1325 C   0  0  0  0  0  0  0  0  0  0  0  0
  150.1708  145.3512  159.4634 H   0  0  0  0  0  0  0  0  0  0  0  0
  151.6131  146.3531  159.5935 H   0  0  0  0  0  0  0  0  0  0  0  0
  150.6602  145.9858  161.0288 H   0  0  0  0  0  0  0  0  0  0  0  0
  153.2977  141.2887  162.6594 H   0  0  0  0  0  0  0  0  0  0  0  0
  153.3376  142.8657  163.4705 H   0  0  0  0  0  0  0  0  0  0  0  0
  154.7046  142.3551  162.4597 H   0  0  0  0  0  0  0  0  0  0  0  0
  153.7520  141.1301  158.5942 H   0  0  0  0  0  0  0  0  0  0  0  0
  153.2227  140.3540  160.0845 H   0  0  0  0  0  0  0  0  0  0  0  0
  154.7557  141.2293  160.0380 H   0  0  0  0  0  0  0  0  0  0  0  0
  151.3206  144.1725  157.5909 H   0  0  0  0  0  0  0  0  0  0  0  0
  152.8988  143.5013  157.2856 H   0  0  0  0  0  0  0  0  0  0  0  0
  151.2026  142.6381  155.5791 H   0  0  0  0  0  0  0  0  0  0  0  0
  149.6773  140.2902  156.4184 H   0  0  0  0  0  0  0  0  0  0  0  0
  152.3004  140.0107  155.0656 H   0  0  0  0  0  0  0  0  0  0  0  0
  149.8201  138.4589  154.0117 H   0  0  0  0  0  0  0  0  0  0  0  0
  151.5815  138.1701  153.5687 H   0  0  0  0  0  0  0  0  0  0  0  0
  152.1076  137.7167  155.9925 H   0  0  0  0  0  0  0  0  0  0  0  0
  150.3456  138.0159  156.4281 H   0  0  0  0  0  0  0  0  0  0  0  0
  149.9608  141.5148  153.6294 H   0  0  0  0  0  0  0  0  0  0  0  0
  147.6842  141.7803  155.7293 H   0  0  0  0  0  0  0  0  0  0  0  0
  147.7173  142.4872  154.0320 H   0  0  0  0  0  0  0  0  0  0  0  0
  147.9547  140.1654  153.0778 H   0  0  0  0  0  0  0  0  0  0  0  0
  147.9209  139.4689  154.7798 H   0  0  0  0  0  0  0  0  0  0  0  0
  1  2  1  0  0  0  0
  1 20  1  0  0  0  0
  1 21  1  0  0  0  0
  1 22  1  0  0  0  0
  2  8  1  0  0  0  0
  2  3  2  0  0  0  0
  3  4  1  0  0  0  0
  4  5  1  0  0  0  0
  4  6  1  0  0  0  0
  5 23  1  0  0  0  0
  5 24  1  0  0  0  0
  5 25  1  0  0  0  0
  6  7  1  0  0  0  0
  6  8  2  0  0  0  0
  7 26  1  0  0  0  0
  7 27  1  0  0  0  0
  7 28  1  0  0  0  0
  8  9  1  0  0  0  0
  9 10  1  0  0  0  0
  9 29  1  0  0  0  0
  9 30  1  0  0  0  0
 10 11  2  0  0  0  0
 10 12  1  0  0  0  0
 12 13  1  0  0  0  0
 12 31  1  0  0  0  0
 13 14  1  0  0  0  0
 13 17  1  0  0  0  0
 13 32  1  0  0  0  0
 14 16  1  0  0  0  0
 14 15  1  0  0  0  0
 14 33  1  0  0  0  0
 15 16  1  0  0  0  0
 15 34  1  0  0  0  0
 15 35  1  0  0  0  0
 16 36  1  0  0  0  0
 16 37  1  0  0  0  0
 17 19  1  0  0  0  0
 17 18  1  0  0  0  0
 17 38  1  0  0  0  0
 18 19  1  0  0  0  0
 18 39  1  0  0  0  0
 18 40  1  0  0  0  0
 19 41  1  0  0  0  0
 19 42  1  0  0  0  0
M  END
> <s_m_source_file>
AV-unprocessed.smi

> <i_m_source_file_index>
343

> <i_lp_mmshare_version>
43012

> <i_f3d_flags>
0

> <s_epik_input>
W0NIM11jMW5uKFtDSDNdKWMoW0NIM10pYzFbQ0gyXUMoPU8pW05IXVtDSF0oW0NIXTJbQ0gyXVtDSDJdMilbQ0hdM1tDSDJdW0NIMl0z

> <s_epik_cmdline>
J2VwaWtfcHl0aG9uJywgJy1waCcsICc3LjAnLCAnLXRuJywgJzgnLCAnLW1hJywgJzIwMCcsICctbWV0YWxfYmluZGluZycsICctaW1hZScsICc8aW5maWxlLm1hZT4nLCAnLW9tYWUnLCAnPG91dGZpbGUubWFlPic=

> <r_lp_tautomer_probability>
1

> <r_epik_Ionization_Penalty>
0.00332543

> <r_epik_Ionization_Penalty_Charging>
0

> <r_epik_Ionization_Penalty_Neutral>
0.00332543

> <r_epik_State_Penalty>
0.00235125

> <r_epik_Charging_Adjusted_Penalty>
0.00235125

> <i_epik_Tot_Q>
0

> <i_epik_Tot_abs_Q>
0

> <r_epik_Metal_State_Penalty>
-0

> <b_epik_Metal_Only>
0

> <s_lp_Force_Field>
OPLS_2005

> <r_lp_Energy>
17.7033

> <b_lp_Chiralities_Consistent>
1

> <s_lp_Variant>
AV-unprocessed.smi:343-1

> <Gold.Version>
5.8.1

> <Gold.Id.Protein>
6NUR|6NUR_protein|mol2

> <Gold.PLP.Fitness>
47.6502

> <Gold.PLP.PLP>
-49.1182

> <Gold.PLP.part.hbond>
0.0000

> <Gold.PLP.part.metal>
0.0000

> <Gold.PLP.part.buried>
-3.1658

> <Gold.PLP.part.nonpolar>
-45.0070

> <Gold.PLP.part.repulsive>
0.2935

> <Gold.PLP.ligand.clash>
0.0000

> <Gold.PLP.ligand.torsion>
1.8000

> <Gold.PLP.Chemscore.Hbond>
0.0000

> <Gold.PLP.Chemscore.CHOScore>
0.0000

> <Gold.PLP.Chemscore.Metal>
0.0000

> <Gold.PLP.Chemscore.Internal.Correction>
2.1321

> <Gold.Rescore>
     Score         DG    S(hbond)    S(metal)    S(lipo)     H(rot)  DE(clash)    DE(int)     intcor
     13.62     -16.70       0.00        0.00     127.95       1.46       0.11       2.97       ----

> <Gold.Chemscore.Fitness>
13.6233

> <Gold.Chemscore.DG>
-16.6993

> <Gold.Chemscore.ZeroCoef>
-5.4800

> <Gold.Chemscore.Hbond>
0.0000

> <Gold.Chemscore.Metal>
0.0000

> <Gold.Chemscore.Lipo>
127.9454

> <Gold.Chemscore.Internal_Hbond>
0.0000

> <Gold.Chemscore.DEClash>
0.1061

> <Gold.Chemscore.DEInternal>
2.9699

> <Gold.Chemscore.Rot>
1.4650

> <Gold.Chemscore.Internal.Correction>
   9.000000E+99

> <Gold.Chemscore.Hbond.Weighted>
-0.0000

> <Gold.Chemscore.Metal.Weighted>
-0.0000

> <Gold.Chemscore.Lipo.Weighted>
-14.9696

> <Gold.Chemscore.Internal_Hbond.Weighted>
0.0000

> <Gold.Chemscore.DEClash.Weighted>
0.1061

> <Gold.Chemscore.DEInternal.Weighted>
2.9699

> <Gold.Chemscore.Rot.Weighted>
3.7503

> <Gold.Chemscore.Internal.Correction.Weighted>
   9.000000E+99

> <Gold.Protein.RotatedTorsions>
[ 6907 6896 6895 6894 ] final  109.18 input  -60.11 | X-H torsion
[ 7974 7965 7964 7962 ] final   84.81 input  175.53 | X-H torsion
[ 8008 7997 7996 7995 ] final  -66.64 input   59.86 | X-H torsion
[ 10167 10162 10161 10158 ] final  179.25 input  -65.29 | X-H torsion
[ 10718 10713 10712 10709 ] final   16.25 input   66.30 | X-H torsion
[ 10763 10752 10751 10750 ] final -163.59 input  -60.55 | X-H torsion
[ 11005 11000 10999 10996 ] final  -34.67 input  -57.11 | X-H torsion

> <Gold.Protein.ActiveResidues>
 VAL166  LYS551  ARG553  GLY616  TRP617  ASP618  TYR619  PRO620  LYS621  CYS622 
 ASP623  PHE694  ASN695  SER759  ASP760  ASP761  ALA762  ILE779  LEU786  VAL792 
 PHE793  MET794  SER795  GLU796  ALA797  LYS798  CYS799  TRP800  GLU811  SER814 

> <Gold.Protein.RotatedAtoms>
  152.5079  133.8981  159.7426 H   0  0  0  0  0  0  0  0  0  0  0  0  # atno 6907 bound_to 6896
  150.9403  133.6655  159.2799 H   0  0  0  0  0  0  0  0  0  0  0  0  # atno 6908 bound_to 6896
  151.3969  135.0970  159.9596 H   0  0  0  0  0  0  0  0  0  0  0  0  # atno 6909 bound_to 6896
  145.5938  139.2342  143.2284 H   0  0  0  0  0  0  0  0  0  0  0  0  # atno 7974 bound_to 7965
  154.4747  140.0909  156.7233 H   0  0  0  0  0  0  0  0  0  0  0  0  # atno 8008 bound_to 7997
  155.4628  140.3461  155.4297 H   0  0  0  0  0  0  0  0  0  0  0  0  # atno 8009 bound_to 7997
  156.1097  140.1444  156.9343 H   0  0  0  0  0  0  0  0  0  0  0  0  # atno 8010 bound_to 7997
  139.5328  144.2583  152.0728 H   0  0  0  0  0  0  0  0  0  0  0  0  # atno 10167 bound_to 10162
  157.0651  130.6325  149.5794 H   0  0  0  0  0  0  0  0  0  0  0  0  # atno 10718 bound_to 10713
  154.7108  135.3006  154.9200 H   0  0  0  0  0  0  0  0  0  0  0  0  # atno 10763 bound_to 10752
  154.0102  135.6696  153.4769 H   0  0  0  0  0  0  0  0  0  0  0  0  # atno 10764 bound_to 10752
  153.0754  135.5038  154.8306 H   0  0  0  0  0  0  0  0  0  0  0  0  # atno 10765 bound_to 10752
  140.9734  133.7096  156.1562 H   0  0  0  0  0  0  0  0  0  0  0  0  # atno 11005 bound_to 11000
  146.1627  140.6764  142.9270 LP  0  0  0  0  0  0  0  0  0  0  0  0  # atno 17320 bound_to 7965
  144.7339  140.4753  143.6917 LP  0  0  0  0  0  0  0  0  0  0  0  0  # atno 17321 bound_to 7965
  140.2049  144.4621  150.6413 LP  0  0  0  0  0  0  0  0  0  0  0  0  # atno 17342 bound_to 10162
  140.6517  143.2227  151.6061 LP  0  0  0  0  0  0  0  0  0  0  0  0  # atno 17343 bound_to 10162
  155.9967  130.5036  150.7505 LP  0  0  0  0  0  0  0  0  0  0  0  0  # atno 17370 bound_to 10713
  157.4923  131.0912  151.0412 LP  0  0  0  0  0  0  0  0  0  0  0  0  # atno 17371 bound_to 10713
  140.7294  134.4271  157.5567 LP  0  0  0  0  0  0  0  0  0  0  0  0  # atno 17394 bound_to 11000
  139.8921  134.8763  156.2287 LP  0  0  0  0  0  0  0  0  0  0  0  0  # atno 17395 bound_to 11000

$$$$
