AV-unprocessed.smi:246|AV-procd|sdf|1885|dock8
  -GOLD-   2262020543D 1   1.00000     0.00000
 Structure written by MMmdl.
 57 60  0  0  0  0  0  0  0  0  1 V2000
  145.3347  132.3771  150.6941 C   0  0  0  0  0  0  0  0  0  0  0  0
  146.3769  133.2862  151.3593 C   0  0  0  0  0  0  0  0  0  0  0  0
  146.7625  132.7987  152.6369 O   0  0  0  0  0  0  0  0  0  0  0  0
  148.1208  133.0457  152.9696 C   0  0  0  0  0  0  0  0  0  0  0  0
  148.3597  132.6305  154.4239 C   0  0  0  0  0  0  0  0  0  0  0  0
  149.7517  132.4398  154.6273 O   0  0  0  0  0  0  0  0  0  0  0  0
  150.4017  133.5647  155.2004 C   0  0  2  0  0  0  0  0  0  0  0  0
  150.0810  133.6798  156.6900 C   0  0  0  0  0  0  0  0  0  0  0  0
  150.3230  135.1611  156.9731 C   0  0  0  0  0  0  0  0  0  0  0  0
  149.9346  135.8411  155.7448 N   0  0  0  0  0  0  0  0  0  0  0  0
  150.1629  137.1666  155.5549 C   0  0  0  0  0  0  0  0  0  0  0  0
  149.8439  137.7185  154.3540 N   0  0  0  0  0  0  0  0  0  0  0  0
  150.0450  139.0200  154.1292 C   0  0  0  0  0  0  0  0  0  0  0  0
  150.5515  139.9395  154.9515 N   0  0  0  0  0  0  0  0  0  0  0  0
  150.8901  139.3931  156.1534 C   0  0  0  0  0  0  0  0  0  0  0  0
  150.7343  138.0295  156.5368 C   0  0  0  0  0  0  0  0  0  0  0  0
  151.2033  137.8550  157.8349 N   0  0  0  0  0  0  0  0  0  0  0  0
  151.5995  139.0431  158.1998 C   0  0  0  0  0  0  0  0  0  0  0  0
  151.4429  140.0272  157.2521 N   0  0  0  0  0  0  0  0  0  0  0  0
  151.7904  141.4298  157.3979 C   0  0  0  0  0  0  0  0  0  0  0  0
  150.5452  142.3280  157.5294 C   0  0  2  0  0  0  0  0  0  0  0  0
  150.2207  142.8630  156.2603 O   0  0  0  0  0  0  0  0  0  0  0  0
  150.7631  143.4872  158.5189 C   0  0  1  0  0  0  0  0  0  0  0  0
  151.5827  143.1197  159.7572 C   0  0  0  0  0  0  0  0  0  0  0  0
  152.1941  144.4428  160.1909 C   0  0  0  0  0  0  0  0  0  0  0  0
  152.0081  145.3557  158.9762 C   0  0  0  0  0  0  0  0  0  0  0  0
  151.5673  144.4992  157.9323 O   0  0  0  0  0  0  0  0  0  0  0  0
  149.9142  134.9042  154.6293 C   0  0  0  0  0  0  0  0  0  0  0  0
  151.4844  133.4853  155.0855 H   0  0  0  0  0  0  0  0  0  0  0  0
  144.9854  132.8133  149.7583 H   0  0  0  0  0  0  0  0  0  0  0  0
  144.4677  132.2402  151.3404 H   0  0  0  0  0  0  0  0  0  0  0  0
  145.7407  131.3929  150.4630 H   0  0  0  0  0  0  0  0  0  0  0  0
  147.2456  133.4262  150.7143 H   0  0  0  0  0  0  0  0  0  0  0  0
  145.9382  134.2734  151.5047 H   0  0  0  0  0  0  0  0  0  0  0  0
  148.8046  132.5116  152.3097 H   0  0  0  0  0  0  0  0  0  0  0  0
  148.3261  134.1115  152.8608 H   0  0  0  0  0  0  0  0  0  0  0  0
  148.0062  133.4204  155.0882 H   0  0  0  0  0  0  0  0  0  0  0  0
  147.7935  131.7281  154.6578 H   0  0  0  0  0  0  0  0  0  0  0  0
  149.0313  133.4393  156.8652 H   0  0  0  0  0  0  0  0  0  0  0  0
  150.6879  133.0211  157.3115 H   0  0  0  0  0  0  0  0  0  0  0  0
  149.7418  135.5088  157.8278 H   0  0  0  0  0  0  0  0  0  0  0  0
  151.3797  135.3414  157.1761 H   0  0  0  0  0  0  0  0  0  0  0  0
  149.7565  139.3754  153.1509 H   0  0  0  0  0  0  0  0  0  0  0  0
  152.0161  139.2370  159.1777 H   0  0  0  0  0  0  0  0  0  0  0  0
  152.4228  141.5291  158.2809 H   0  0  0  0  0  0  0  0  0  0  0  0
  152.3981  141.7355  156.5451 H   0  0  0  0  0  0  0  0  0  0  0  0
  149.7008  141.7241  157.8649 H   0  0  0  0  0  0  0  0  0  0  0  0
  149.4268  143.3692  156.3423 H   0  0  0  0  0  0  0  0  0  0  0  0
  149.8074  143.9226  158.8187 H   0  0  0  0  0  0  0  0  0  0  0  0
  150.9787  142.6566  160.5380 H   0  0  0  0  0  0  0  0  0  0  0  0
  152.3777  142.4220  159.4901 H   0  0  0  0  0  0  0  0  0  0  0  0
  151.6824  144.8536  161.0620 H   0  0  0  0  0  0  0  0  0  0  0  0
  153.2468  144.3192  160.4468 H   0  0  0  0  0  0  0  0  0  0  0  0
  151.2409  146.1057  159.1734 H   0  0  0  0  0  0  0  0  0  0  0  0
  152.9263  145.8729  158.6972 H   0  0  0  0  0  0  0  0  0  0  0  0
  150.5472  135.2255  153.8016 H   0  0  0  0  0  0  0  0  0  0  0  0
  148.8889  134.8213  154.2674 H   0  0  0  0  0  0  0  0  0  0  0  0
  1  2  1  0  0  0  0
  1 30  1  0  0  0  0
  1 31  1  0  0  0  0
  1 32  1  0  0  0  0
  2  3  1  0  0  0  0
  2 33  1  0  0  0  0
  2 34  1  0  0  0  0
  3  4  1  0  0  0  0
  4  5  1  0  0  0  0
  4 35  1  0  0  0  0
  4 36  1  0  0  0  0
  5  6  1  0  0  0  0
  5 37  1  0  0  0  0
  5 38  1  0  0  0  0
  6  7  1  0  0  0  0
  7 29  1  0  0  0  0
  7 28  1  0  0  0  0
  7  8  1  0  0  0  0
  8  9  1  0  0  0  0
  8 39  1  0  0  0  0
  8 40  1  0  0  0  0
  9 10  1  0  0  0  0
  9 41  1  0  0  0  0
  9 42  1  0  0  0  0
 10 11  1  0  0  0  0
 10 28  1  0  0  0  0
 11 16  1  0  0  0  0
 11 12  2  0  0  0  0
 12 13  1  0  0  0  0
 13 14  2  0  0  0  0
 13 43  1  0  0  0  0
 14 15  1  0  0  0  0
 15 19  1  0  0  0  0
 15 16  2  0  0  0  0
 16 17  1  0  0  0  0
 17 18  2  0  0  0  0
 18 19  1  0  0  0  0
 18 44  1  0  0  0  0
 19 20  1  0  0  0  0
 20 21  1  0  0  0  0
 20 45  1  0  0  0  0
 20 46  1  0  0  0  0
 21 22  1  0  0  0  0
 21 23  1  0  0  0  0
 21 47  1  0  0  0  0
 22 48  1  0  0  0  0
 23 27  1  0  0  0  0
 23 24  1  0  0  0  0
 23 49  1  0  0  0  0
 24 25  1  0  0  0  0
 24 50  1  0  0  0  0
 24 51  1  0  0  0  0
 25 26  1  0  0  0  0
 25 52  1  0  0  0  0
 25 53  1  0  0  0  0
 26 27  1  0  0  0  0
 26 54  1  0  0  0  0
 26 55  1  0  0  0  0
 28 56  1  0  0  0  0
 28 57  1  0  0  0  0
M  END
> <s_m_source_file>
AV-unprocessed.smi

> <i_m_source_file_index>
246

> <i_lp_mmshare_version>
43012

> <i_f3d_flags>
0

> <s_epik_input>
W0NIM11bQ0gyXU9bQ0gyXVtDSDJdT1tDQEhdMVtDSDJdW0NIMl1OKFtDSDJdMSljKG5bY0hdbjIpYyhjMjMpbltjSF1uM1tDSDJdW0NASF0oW09IXSlbQ0BASF00W0NIMl1bQ0gyXVtDSDJdTzQ=

> <s_epik_cmdline>
J2VwaWtfcHl0aG9uJywgJy1waCcsICc3LjAnLCAnLXRuJywgJzgnLCAnLW1hJywgJzIwMCcsICctbWV0YWxfYmluZGluZycsICctaW1hZScsICc8aW5maWxlLm1hZT4nLCAnLW9tYWUnLCAnPG91dGZpbGUubWFlPic=

> <r_lp_tautomer_probability>
1

> <r_epik_Ionization_Penalty>
0.0024631

> <r_epik_Ionization_Penalty_Charging>
0

> <r_epik_Ionization_Penalty_Neutral>
0.0024631

> <r_epik_State_Penalty>
0.00162428

> <r_epik_Charging_Adjusted_Penalty>
0.00162428

> <i_epik_Tot_Q>
0

> <i_epik_Tot_abs_Q>
0

> <r_epik_Metal_State_Penalty>
-0

> <b_epik_Metal_Only>
0

> <s_lp_Force_Field>
OPLS_2005

> <r_lp_Energy>
48.9745

> <b_lp_Chiralities_Consistent>
1

> <s_lp_Variant>
AV-unprocessed.smi:246-6

> <Gold.Version>
5.8.1

> <Gold.Id.Protein>
6NUR|6NUR_protein|mol2

> <Gold.PLP.Fitness>
50.8027

> <Gold.PLP.PLP>
-46.3289

> <Gold.PLP.part.hbond>
-2.0000

> <Gold.PLP.part.metal>
0.0000

> <Gold.PLP.part.buried>
-9.2683

> <Gold.PLP.part.nonpolar>
-36.2700

> <Gold.PLP.part.repulsive>
0.9597

> <Gold.PLP.ligand.clash>
0.0000

> <Gold.PLP.ligand.torsion>
1.8516

> <Gold.PLP.Chemscore.Hbond>
1.5500

> <Gold.PLP.Chemscore.CHOScore>
1.0000

> <Gold.PLP.Chemscore.Metal>
0.0000

> <Gold.Chemscore.Hbonds>
donor molecule, donor type, donor heavy atom, donor atom, acceptor molecule, acceptor atom, score
      L1  H    22    48       P1  8028  0.69
      P1  H  7989  7998       L1    14  0.69
      L1  C    13    43       P1  7957  1.00

> <Gold.PLP.Chemscore.Internal.Correction>
0.5269

> <Gold.Rescore>
     Score         DG    S(hbond)    S(metal)    S(lipo)     H(rot)  DE(clash)    DE(int)     intcor
     10.83     -14.16       1.01        0.00     113.11       3.10       0.07       3.25       ----

> <Gold.Chemscore.Fitness>
10.8339

> <Gold.Chemscore.DG>
-14.1570

> <Gold.Chemscore.ZeroCoef>
-5.4800

> <Gold.Chemscore.Hbond>
1.0137

> <Gold.Chemscore.Metal>
0.0000

> <Gold.Chemscore.Lipo>
113.1117

> <Gold.Chemscore.Internal_Hbond>
0.0000

> <Gold.Chemscore.DEClash>
0.0732

> <Gold.Chemscore.DEInternal>
3.2499

> <Gold.Chemscore.Rot>
3.1026

> <Gold.Chemscore.Internal.Correction>
   9.000000E+99

> <Gold.Chemscore.Hbonds>
donor molecule, donor type, donor heavy atom, donor atom, acceptor molecule, acceptor atom, score
      L1  H    22    48       P1  8028  0.67
      P1  H  7989  7998       L1    14  0.07

> <Gold.Chemscore.Hbond.Weighted>
-3.3856

> <Gold.Chemscore.Metal.Weighted>
-0.0000

> <Gold.Chemscore.Lipo.Weighted>
-13.2341

> <Gold.Chemscore.Internal_Hbond.Weighted>
0.0000

> <Gold.Chemscore.DEClash.Weighted>
0.0732

> <Gold.Chemscore.DEInternal.Weighted>
3.2499

> <Gold.Chemscore.Rot.Weighted>
7.9426

> <Gold.Chemscore.Internal.Correction.Weighted>
   9.000000E+99

> <Gold.Protein.RotatedTorsions>
[ 6907 6896 6895 6894 ] final -146.12 input  -60.11 | X-H torsion
[ 7974 7965 7964 7962 ] final  174.64 input  175.53 | X-H torsion
[ 8008 7997 7996 7995 ] final  -23.95 input   59.86 | X-H torsion
[ 10167 10162 10161 10158 ] final    6.31 input  -65.29 | X-H torsion
[ 10718 10713 10712 10709 ] final   23.25 input   66.30 | X-H torsion
[ 10763 10752 10751 10750 ] final   57.13 input  -60.55 | X-H torsion
[ 11005 11000 10999 10996 ] final  162.48 input  -57.11 | X-H torsion

> <Gold.Protein.ActiveResidues>
 VAL166  LYS551  ARG553  GLY616  TRP617  ASP618  TYR619  PRO620  LYS621  CYS622 
 ASP623  PHE694  ASN695  SER759  ASP760  ASP761  ALA762  ILE779  LEU786  VAL792 
 PHE793  MET794  SER795  GLU796  ALA797  LYS798  CYS799  TRP800  GLU811  SER814 

> <Gold.Protein.RotatedAtoms>
  151.1372  133.4996  159.2597 H   0  0  0  0  0  0  0  0  0  0  0  0  # atno 6907 bound_to 6896
  151.1694  135.0310  159.8755 H   0  0  0  0  0  0  0  0  0  0  0  0  # atno 6908 bound_to 6896
  152.5461  134.1236  159.8463 H   0  0  0  0  0  0  0  0  0  0  0  0  # atno 6909 bound_to 6896
  144.7217  139.9827  143.6439 H   0  0  0  0  0  0  0  0  0  0  0  0  # atno 7974 bound_to 7965
  154.4556  140.1966  156.0390 H   0  0  0  0  0  0  0  0  0  0  0  0  # atno 8008 bound_to 7997
  156.0739  140.3281  155.7581 H   0  0  0  0  0  0  0  0  0  0  0  0  # atno 8009 bound_to 7997
  155.5220  140.0570  157.2896 H   0  0  0  0  0  0  0  0  0  0  0  0  # atno 8010 bound_to 7997
  140.6434  143.7719  150.7463 H   0  0  0  0  0  0  0  0  0  0  0  0  # atno 10167 bound_to 10162
  157.1635  130.6727  149.6052 H   0  0  0  0  0  0  0  0  0  0  0  0  # atno 10718 bound_to 10713
  152.9844  135.5652  154.5342 H   0  0  0  0  0  0  0  0  0  0  0  0  # atno 10763 bound_to 10752
  154.4808  135.2788  155.1574 H   0  0  0  0  0  0  0  0  0  0  0  0  # atno 10764 bound_to 10752
  154.3084  135.6293  153.5508 H   0  0  0  0  0  0  0  0  0  0  0  0  # atno 10765 bound_to 10752
  140.2262  134.8159  157.3270 H   0  0  0  0  0  0  0  0  0  0  0  0  # atno 11005 bound_to 11000
  146.0474  139.3479  143.0660 LP  0  0  0  0  0  0  0  0  0  0  0  0  # atno 17320 bound_to 7965
  145.8258  140.9656  143.0875 LP  0  0  0  0  0  0  0  0  0  0  0  0  # atno 17321 bound_to 7965
  140.1355  143.4488  152.2227 LP  0  0  0  0  0  0  0  0  0  0  0  0  # atno 17342 bound_to 10162
  139.5644  144.7426  151.4063 LP  0  0  0  0  0  0  0  0  0  0  0  0  # atno 17343 bound_to 10162
  155.9750  130.4703  150.6426 LP  0  0  0  0  0  0  0  0  0  0  0  0  # atno 17370 bound_to 10713
  157.4110  131.0823  151.1221 LP  0  0  0  0  0  0  0  0  0  0  0  0  # atno 17371 bound_to 10713
  140.1798  134.4503  155.7779 LP  0  0  0  0  0  0  0  0  0  0  0  0  # atno 17394 bound_to 11000
  141.2220  133.6979  156.7850 LP  0  0  0  0  0  0  0  0  0  0  0  0  # atno 17395 bound_to 11000

$$$$
