AV-unprocessed.smi:3231|AV-procd|sdf|12336|dock5
  -GOLD-   2272018193D 1   1.00000     0.00000
 Structure written by MMmdl.
 42 43  0  0  0  0  0  0  0  0  3 V2000
  146.5119  137.6777  150.1361 O   0  0  0  0  0  0  0  0  0  0  0  0
  146.3902  136.9776  151.3581 C   0  0  1  0  0  0  0  0  0  0  0  0
  146.3793  138.0274  152.4853 C   0  0  0  0  0  0  0  0  0  0  0  0
  147.7345  138.5411  152.7706 N   0  3  0  0  0  0  0  0  0  0  0  0
  147.8169  139.3646  153.9923 C   0  0  0  0  0  0  0  0  0  0  0  0
  148.6656  140.6216  153.7533 C   0  0  0  0  0  0  0  0  0  0  0  0
  149.6265  140.8306  154.8186 N   0  0  0  0  0  0  0  0  0  0  0  0
  149.5734  141.7341  155.8592 C   0  0  0  0  0  0  0  0  0  0  0  0
  150.7045  141.5609  156.6041 C   0  0  0  0  0  0  0  0  0  0  0  0
  151.3981  140.5176  155.9296 C   0  0  0  0  0  0  0  0  0  0  0  0
  150.7501  140.0832  154.8605 N   0  0  0  0  0  0  0  0  0  0  0  0
  145.0930  136.1385  151.3209 C   0  0  0  0  0  0  0  0  0  0  0  0
  145.2544  134.8307  150.6327 N   0  3  0  0  0  0  0  0  0  0  0  0
  146.1672  133.8933  151.3343 C   0  0  0  0  0  0  0  0  0  0  0  0
  146.2964  132.5762  150.5493 C   0  0  0  0  0  0  0  0  0  0  0  0
  145.0089  132.0025  150.3635 O   0  0  0  0  0  0  0  0  0  0  0  0
  144.1537  132.8513  149.6092 C   0  0  0  0  0  0  0  0  0  0  0  0
  143.9508  134.1768  150.3629 C   0  0  0  0  0  0  0  0  0  0  0  0
  145.6525  137.9338  149.8383 H   0  0  0  0  0  0  0  0  0  0  0  0
  147.2710  136.3467  151.4740 H   0  0  0  0  0  0  0  0  0  0  0  0
  145.7557  138.8752  152.1968 H   0  0  0  0  0  0  0  0  0  0  0  0
  145.9428  137.6070  153.3928 H   0  0  0  0  0  0  0  0  0  0  0  0
  148.3632  137.7578  152.8757 H   0  0  0  0  0  0  0  0  0  0  0  0
  146.8114  139.6481  154.3067 H   0  0  0  0  0  0  0  0  0  0  0  0
  148.2496  138.7661  154.7951 H   0  0  0  0  0  0  0  0  0  0  0  0
  149.2078  140.5452  152.8094 H   0  0  0  0  0  0  0  0  0  0  0  0
  148.0280  141.5040  153.6831 H   0  0  0  0  0  0  0  0  0  0  0  0
  148.7457  142.4170  155.9830 H   0  0  0  0  0  0  0  0  0  0  0  0
  150.9938  142.0988  157.4948 H   0  0  0  0  0  0  0  0  0  0  0  0
  152.3462  140.0665  156.1829 H   0  0  0  0  0  0  0  0  0  0  0  0
  144.7217  135.9600  152.3311 H   0  0  0  0  0  0  0  0  0  0  0  0
  144.3203  136.7200  150.8146 H   0  0  0  0  0  0  0  0  0  0  0  0
  147.1556  134.3349  151.4531 H   0  0  0  0  0  0  0  0  0  0  0  0
  145.7854  133.6899  152.3361 H   0  0  0  0  0  0  0  0  0  0  0  0
  146.7781  132.7418  149.5842 H   0  0  0  0  0  0  0  0  0  0  0  0
  146.9206  131.8715  151.0991 H   0  0  0  0  0  0  0  0  0  0  0  0
  144.5740  133.0254  148.6174 H   0  0  0  0  0  0  0  0  0  0  0  0
  143.1961  132.3505  149.4657 H   0  0  0  0  0  0  0  0  0  0  0  0
  143.4302  133.9945  151.3042 H   0  0  0  0  0  0  0  0  0  0  0  0
  143.3191  134.8391  149.7698 H   0  0  0  0  0  0  0  0  0  0  0  0
  148.0395  139.1000  151.9864 H   0  0  0  0  0  0  0  0  0  0  0  0
  145.6619  135.0241  149.7290 H   0  0  0  0  0  0  0  0  0  0  0  0
  1  2  1  0  0  0  0
  1 19  1  0  0  0  0
  2  3  1  0  0  0  0
  2 12  1  0  0  0  0
  2 20  1  0  0  0  0
  3  4  1  0  0  0  0
  3 21  1  0  0  0  0
  3 22  1  0  0  0  0
  4  5  1  0  0  0  0
  4 23  1  0  0  0  0
  4 41  1  0  0  0  0
  5  6  1  0  0  0  0
  5 24  1  0  0  0  0
  5 25  1  0  0  0  0
  6  7  1  0  0  0  0
  6 26  1  0  0  0  0
  6 27  1  0  0  0  0
  7 11  1  0  0  0  0
  7  8  1  0  0  0  0
  8  9  2  0  0  0  0
  8 28  1  0  0  0  0
  9 10  1  0  0  0  0
  9 29  1  0  0  0  0
 10 11  2  0  0  0  0
 10 30  1  0  0  0  0
 12 13  1  0  0  0  0
 12 31  1  0  0  0  0
 12 32  1  0  0  0  0
 13 18  1  0  0  0  0
 13 14  1  0  0  0  0
 13 42  1  0  0  0  0
 14 15  1  0  0  0  0
 14 33  1  0  0  0  0
 14 34  1  0  0  0  0
 15 16  1  0  0  0  0
 15 35  1  0  0  0  0
 15 36  1  0  0  0  0
 16 17  1  0  0  0  0
 17 18  1  0  0  0  0
 17 37  1  0  0  0  0
 17 38  1  0  0  0  0
 18 39  1  0  0  0  0
 18 40  1  0  0  0  0
M  CHG  1   4   1
M  CHG  1  13   1
M  END
> <s_m_source_file>
AV-unprocessed.smi

> <i_m_source_file_index>
3231

> <i_lp_mmshare_version>
43012

> <i_f3d_flags>
0

> <s_epik_input>
W0NIMl0xW0NIMl1PW0NIMl1bQ0gyXU4xW0NIMl1bQ0BIXShbT0hdKVtDSDJdW05IXVtDSDJdW0NIMl1uMltjSF1bY0hdW2NIXW4y

> <s_epik_cmdline>
J2VwaWtfcHl0aG9uJywgJy1waCcsICc3LjAnLCAnLXRuJywgJzgnLCAnLW1hJywgJzIwMCcsICctbWV0YWxfYmluZGluZycsICctaW1hZScsICc8aW5maWxlLm1hZT4nLCAnLW9tYWUnLCAnPG91dGZpbGUubWFlPic=

> <r_lp_tautomer_probability>
1

> <r_epik_Ionization_Penalty>
2.09881

> <r_epik_Ionization_Penalty_Charging>
2.09628

> <r_epik_Ionization_Penalty_Neutral>
0.0025303

> <r_epik_State_Penalty>
1.58657

> <r_epik_Charging_Adjusted_Penalty>
3.68285

> <i_epik_Tot_Q>
2

> <i_epik_Tot_abs_Q>
2

> <r_epik_Metal_State_Penalty>
1.58685

> <b_epik_Metal_Only>
0

> <s_lp_Force_Field>
OPLS_2005

> <r_lp_Energy>
27.3068

> <b_lp_Chiralities_Consistent>
1

> <s_lp_Variant>
AV-unprocessed.smi:3231-6

> <Gold.Version>
5.8.1

> <Gold.Id.Protein>
6NUR|6NUR_protein|mol2

> <Gold.PLP.Fitness>
53.0212

> <Gold.PLP.PLP>
-33.8679

> <Gold.PLP.part.hbond>
-6.0000

> <Gold.PLP.part.metal>
0.0000

> <Gold.PLP.part.buried>
4.7914

> <Gold.PLP.part.nonpolar>
-33.3628

> <Gold.PLP.part.repulsive>
0.3250

> <Gold.PLP.ligand.clash>
0.0000

> <Gold.PLP.ligand.torsion>
1.3078

> <Gold.PLP.Chemscore.Hbond>
6.3033

> <Gold.PLP.Chemscore.CHOScore>
0.8624

> <Gold.PLP.Chemscore.Metal>
0.0000

> <Gold.Chemscore.Hbonds>
donor molecule, donor type, donor heavy atom, donor atom, acceptor molecule, acceptor atom, score
      L1  H     1    19       P1 10171  1.00
      L1  H     4    23       P1  7948  1.54
      L1  H     4    41       P1  7957  0.91
      L1  H    13    42       P1  7921  0.70
      P1  H  7954  7966       L1     1  0.72
      P1  H  7989  7998       L1    11  0.90
      L1  C     8    28       P1  8028  0.90

> <Gold.PLP.Chemscore.Internal.Correction>
0.2720

> <Gold.Rescore>
     Score         DG    S(hbond)    S(metal)    S(lipo)     H(rot)  DE(clash)    DE(int)     intcor
     19.17     -23.03       4.50        0.00      85.97       2.94       2.34       1.52       ----

> <Gold.Chemscore.Fitness>
19.1722

> <Gold.Chemscore.DG>
-23.0296

> <Gold.Chemscore.ZeroCoef>
-5.4800

> <Gold.Chemscore.Hbond>
4.4990

> <Gold.Chemscore.Metal>
0.0000

> <Gold.Chemscore.Lipo>
85.9731

> <Gold.Chemscore.Internal_Hbond>
0.0000

> <Gold.Chemscore.DEClash>
2.3365

> <Gold.Chemscore.DEInternal>
1.5209

> <Gold.Chemscore.Rot>
2.9437

> <Gold.Chemscore.Internal.Correction>
   9.000000E+99

> <Gold.Chemscore.Hbonds>
donor molecule, donor type, donor heavy atom, donor atom, acceptor molecule, acceptor atom, score
      L1  H     1    19       P1 10171  1.00
      L1  H     4    23       P1  7948  0.76
      L1  H     4    41       P1  7957  0.87
      L1  H    13    42       P1  7921  0.66
      P1  H  7954  7966       L1     1  0.40
      P1  H  7989  7998       L1    11  0.07

> <Gold.Chemscore.Hbond.Weighted>
-15.0266

> <Gold.Chemscore.Metal.Weighted>
-0.0000

> <Gold.Chemscore.Lipo.Weighted>
-10.0589

> <Gold.Chemscore.Internal_Hbond.Weighted>
0.0000

> <Gold.Chemscore.DEClash.Weighted>
2.3365

> <Gold.Chemscore.DEInternal.Weighted>
1.5209

> <Gold.Chemscore.Rot.Weighted>
7.5359

> <Gold.Chemscore.Internal.Correction.Weighted>
   9.000000E+99

> <Gold.Protein.RotatedTorsions>
[ 6907 6896 6895 6894 ] final  160.17 input  -60.11 | X-H torsion
[ 7974 7965 7964 7962 ] final  142.22 input  175.53 | X-H torsion
[ 8008 7997 7996 7995 ] final  158.11 input   59.86 | X-H torsion
[ 10167 10162 10161 10158 ] final  121.46 input  -65.29 | X-H torsion
[ 10718 10713 10712 10709 ] final   31.77 input   66.30 | X-H torsion
[ 10763 10752 10751 10750 ] final   73.32 input  -60.55 | X-H torsion
[ 11005 11000 10999 10996 ] final   19.59 input  -57.11 | X-H torsion

> <Gold.Protein.ActiveResidues>
 VAL166  LYS551  ARG553  GLY616  TRP617  ASP618  TYR619  PRO620  LYS621  CYS622 
 ASP623  PHE694  ASN695  SER759  ASP760  ASP761  ALA762  ILE779  LEU786  VAL792 
 PHE793  MET794  SER795  GLU796  ALA797  LYS798  CYS799  TRP800  GLU811  SER814 

> <Gold.Protein.RotatedAtoms>
  151.9747  133.3737  159.4084 H   0  0  0  0  0  0  0  0  0  0  0  0  # atno 6907 bound_to 6896
  150.6943  134.4103  159.5168 H   0  0  0  0  0  0  0  0  0  0  0  0  # atno 6908 bound_to 6896
  152.1812  134.8752  160.0577 H   0  0  0  0  0  0  0  0  0  0  0  0  # atno 6909 bound_to 6896
  144.9027  139.5400  143.5746 H   0  0  0  0  0  0  0  0  0  0  0  0  # atno 7974 bound_to 7965
  156.2323  140.1867  156.7211 H   0  0  0  0  0  0  0  0  0  0  0  0  # atno 8008 bound_to 7997
  154.6044  140.0631  156.9439 H   0  0  0  0  0  0  0  0  0  0  0  0  # atno 8009 bound_to 7997
  155.2120  140.3300  155.4330 H   0  0  0  0  0  0  0  0  0  0  0  0  # atno 8010 bound_to 7997
  139.5918  144.7028  151.3271 H   0  0  0  0  0  0  0  0  0  0  0  0  # atno 10167 bound_to 10162
  157.2767  130.7235  149.6534 H   0  0  0  0  0  0  0  0  0  0  0  0  # atno 10718 bound_to 10713
  153.0514  135.5067  154.7876 H   0  0  0  0  0  0  0  0  0  0  0  0  # atno 10763 bound_to 10752
  154.6735  135.2957  154.9712 H   0  0  0  0  0  0  0  0  0  0  0  0  # atno 10764 bound_to 10752
  154.0522  135.6702  153.4854 H   0  0  0  0  0  0  0  0  0  0  0  0  # atno 10765 bound_to 10752
  140.4121  134.1608  155.7668 H   0  0  0  0  0  0  0  0  0  0  0  0  # atno 11005 bound_to 11000
  146.3117  139.7770  142.9015 LP  0  0  0  0  0  0  0  0  0  0  0  0  # atno 17320 bound_to 7965
  145.3588  141.0322  143.3296 LP  0  0  0  0  0  0  0  0  0  0  0  0  # atno 17321 bound_to 7965
  140.7179  143.7215  150.7692 LP  0  0  0  0  0  0  0  0  0  0  0  0  # atno 17342 bound_to 10162
  140.0773  143.5003  152.2549 LP  0  0  0  0  0  0  0  0  0  0  0  0  # atno 17343 bound_to 10162
  155.9664  130.4350  150.5075 LP  0  0  0  0  0  0  0  0  0  0  0  0  # atno 17370 bound_to 10713
  157.3011  131.0645  151.2067 LP  0  0  0  0  0  0  0  0  0  0  0  0  # atno 17371 bound_to 10713
  141.1817  133.8399  157.1234 LP  0  0  0  0  0  0  0  0  0  0  0  0  # atno 17394 bound_to 11000
  140.0260  134.9923  157.0687 LP  0  0  0  0  0  0  0  0  0  0  0  0  # atno 17395 bound_to 11000

$$$$
