AV-unprocessed.smi:1487|AV-procd|sdf|6008|dock2
  -GOLD-   22720 6103D 1   1.00000     0.00000
 Structure written by MMmdl.
 48 50  0  0  0  0  0  0  0  0  2 V2000
  153.7012  142.0378  162.2028 C   0  0  0  0  0  0  0  0  0  0  0  0
  153.0547  141.9307  160.8332 C   0  0  0  0  0  0  0  0  0  0  0  0
  153.3086  140.7882  160.0414 C   0  0  0  0  0  0  0  0  0  0  0  0
  152.7292  140.6510  158.7612 C   0  0  0  0  0  0  0  0  0  0  0  0
  152.8380  139.6327  157.8296 N   0  0  0  0  0  0  0  0  0  0  0  0
  152.0708  140.0878  156.8434 C   0  0  0  0  0  0  0  0  0  0  0  0
  151.4722  141.2804  157.0280 N   0  0  0  0  0  0  0  0  0  0  0  0
  150.5966  141.9725  156.0988 C   0  0  0  0  0  0  0  0  0  0  0  0
  149.3974  141.1101  155.6597 C   0  0  1  0  0  0  0  0  0  0  0  0
  148.3619  141.9503  155.1865 O   0  0  0  0  0  0  0  0  0  0  0  0
  149.7844  140.1310  154.5338 C   0  0  0  0  0  0  0  0  0  0  0  0
  148.6706  139.2203  154.1632 N   0  3  1  0  0  0  0  0  0  0  0  0
  147.8350  138.8427  155.3331 C   0  0  0  0  0  0  0  0  0  0  0  0
  146.7804  137.7906  154.9495 C   0  0  0  0  0  0  0  0  0  0  0  0
  145.9041  138.2843  153.7913 C   0  0  0  0  0  0  0  0  0  0  0  0
  146.7910  138.6952  152.6070 C   0  0  1  0  0  0  0  0  0  0  0  0
  145.9854  139.2326  151.5797 O   0  0  0  0  0  0  0  0  0  0  0  0
  147.8413  139.7344  153.0401 C   0  0  0  0  0  0  0  0  0  0  0  0
  151.8815  141.6963  158.2908 C   0  0  0  0  0  0  0  0  0  0  0  0
  151.6201  142.8374  159.0700 C   0  0  0  0  0  0  0  0  0  0  0  0
  152.2081  142.9589  160.3462 C   0  0  0  0  0  0  0  0  0  0  0  0
  151.9224  144.1965  161.1785 C   0  0  0  0  0  0  0  0  0  0  0  0
  154.2681  141.1389  162.4466 H   0  0  0  0  0  0  0  0  0  0  0  0
  152.9445  142.1734  162.9757 H   0  0  0  0  0  0  0  0  0  0  0  0
  154.3859  142.8856  162.2345 H   0  0  0  0  0  0  0  0  0  0  0  0
  153.9543  140.0056  160.4118 H   0  0  0  0  0  0  0  0  0  0  0  0
  151.9349  139.5209  155.9340 H   0  0  0  0  0  0  0  0  0  0  0  0
  150.2532  142.8964  156.5661 H   0  0  0  0  0  0  0  0  0  0  0  0
  151.1869  142.2663  155.2299 H   0  0  0  0  0  0  0  0  0  0  0  0
  149.0243  140.5676  156.5281 H   0  0  0  0  0  0  0  0  0  0  0  0
  148.6781  142.8416  155.1780 H   0  0  0  0  0  0  0  0  0  0  0  0
  150.0928  140.7140  153.6641 H   0  0  0  0  0  0  0  0  0  0  0  0
  150.6539  139.5377  154.8212 H   0  0  0  0  0  0  0  0  0  0  0  0
  148.4687  138.4373  156.1232 H   0  0  0  0  0  0  0  0  0  0  0  0
  147.3509  139.7323  155.7393 H   0  0  0  0  0  0  0  0  0  0  0  0
  147.2766  136.8621  154.6635 H   0  0  0  0  0  0  0  0  0  0  0  0
  146.1574  137.5546  155.8128 H   0  0  0  0  0  0  0  0  0  0  0  0
  145.2043  137.5033  153.4908 H   0  0  0  0  0  0  0  0  0  0  0  0
  145.3037  139.1325  154.1237 H   0  0  0  0  0  0  0  0  0  0  0  0
  147.2971  137.8145  152.2087 H   0  0  0  0  0  0  0  0  0  0  0  0
  145.2958  139.7477  151.9703 H   0  0  0  0  0  0  0  0  0  0  0  0
  147.3524  140.6605  153.3477 H   0  0  0  0  0  0  0  0  0  0  0  0
  148.4730  139.9808  152.1870 H   0  0  0  0  0  0  0  0  0  0  0  0
  150.9729  143.6135  158.6890 H   0  0  0  0  0  0  0  0  0  0  0  0
  151.2787  144.8962  160.6443 H   0  0  0  0  0  0  0  0  0  0  0  0
  152.8496  144.7156  161.4230 H   0  0  0  0  0  0  0  0  0  0  0  0
  151.4219  143.9240  162.1079 H   0  0  0  0  0  0  0  0  0  0  0  0
  149.1050  138.3655  153.8442 H   0  0  0  0  0  0  0  0  0  0  0  0
  1  2  1  0  0  0  0
  1 23  1  0  0  0  0
  1 24  1  0  0  0  0
  1 25  1  0  0  0  0
  2 21  1  0  0  0  0
  2  3  2  0  0  0  0
  3  4  1  0  0  0  0
  3 26  1  0  0  0  0
  4 19  2  0  0  0  0
  4  5  1  0  0  0  0
  5  6  2  0  0  0  0
  6  7  1  0  0  0  0
  6 27  1  0  0  0  0
  7  8  1  0  0  0  0
  7 19  1  0  0  0  0
  8  9  1  0  0  0  0
  8 28  1  0  0  0  0
  8 29  1  0  0  0  0
  9 10  1  0  0  0  0
  9 11  1  0  0  0  0
  9 30  1  0  0  0  0
 10 31  1  0  0  0  0
 11 12  1  0  0  0  0
 11 32  1  0  0  0  0
 11 33  1  0  0  0  0
 12 18  1  0  0  0  0
 12 13  1  0  0  0  0
 12 48  1  0  0  0  0
 13 14  1  0  0  0  0
 13 34  1  0  0  0  0
 13 35  1  0  0  0  0
 14 15  1  0  0  0  0
 14 36  1  0  0  0  0
 14 37  1  0  0  0  0
 15 16  1  0  0  0  0
 15 38  1  0  0  0  0
 15 39  1  0  0  0  0
 16 17  1  0  0  0  0
 16 18  1  0  0  0  0
 16 40  1  0  0  0  0
 17 41  1  0  0  0  0
 18 42  1  0  0  0  0
 18 43  1  0  0  0  0
 19 20  1  0  0  0  0
 20 21  2  0  0  0  0
 20 44  1  0  0  0  0
 21 22  1  0  0  0  0
 22 45  1  0  0  0  0
 22 46  1  0  0  0  0
 22 47  1  0  0  0  0
M  CHG  1  12   1
M  END
> <s_m_source_file>
AV-unprocessed.smi

> <i_m_source_file_index>
1487

> <i_lp_mmshare_version>
43012

> <i_f3d_flags>
0

> <s_epik_input>
W0NIM11jKFtjSF0xKWMoW0NIM10pW2NIXWMoYzEyKW4oW2NIXW4yKVtDSDJdW0NASF0oW09IXSlbQ0gyXU4zW0NIMl1bQ0gyXVtDSDJdW0NAQEhdKFtPSF0pW0NIMl0z

> <s_epik_cmdline>
J2VwaWtfcHl0aG9uJywgJy1waCcsICc3LjAnLCAnLXRuJywgJzgnLCAnLW1hJywgJzIwMCcsICctbWV0YWxfYmluZGluZycsICctaW1hZScsICc8aW5maWxlLm1hZT4nLCAnLW9tYWUnLCAnPG91dGZpbGUubWFlPic=

> <r_epik_Ionization_Penalty>
0.0940186

> <r_epik_Ionization_Penalty_Charging>
0.00679686

> <r_epik_Ionization_Penalty_Neutral>
0.0872218

> <r_epik_State_Penalty>
0.0799311

> <r_epik_Charging_Adjusted_Penalty>
0.086728

> <i_epik_Tot_Q>
1

> <i_epik_Tot_abs_Q>
1

> <r_epik_Metal_State_Penalty>
7.95545e-05

> <b_epik_Metal_Only>
0

> <s_lp_Force_Field>
OPLS_2005

> <r_lp_Energy>
21.5016

> <b_lp_Chiralities_Consistent>
1

> <s_lp_Variant>
AV-unprocessed.smi:1487-2

> <Gold.Version>
5.8.1

> <Gold.Id.Protein>
6NUR|6NUR_protein|mol2

> <Gold.PLP.Fitness>
50.7181

> <Gold.PLP.PLP>
-42.8731

> <Gold.PLP.part.hbond>
-4.3083

> <Gold.PLP.part.metal>
0.0000

> <Gold.PLP.part.buried>
-0.8269

> <Gold.PLP.part.nonpolar>
-37.7754

> <Gold.PLP.part.repulsive>
0.0427

> <Gold.PLP.ligand.clash>
0.0000

> <Gold.PLP.ligand.torsion>
0.5967

> <Gold.PLP.Chemscore.Hbond>
3.0000

> <Gold.PLP.Chemscore.CHOScore>
0.0000

> <Gold.PLP.Chemscore.Metal>
0.0000

> <Gold.Chemscore.Hbonds>
donor molecule, donor type, donor heavy atom, donor atom, acceptor molecule, acceptor atom, score
      L1  H    10    31       P1  8028  1.00
      L1  H    17    41       P1 10175  1.00
      P1  H  7997  8009       L1     5  0.95

> <Gold.PLP.Chemscore.Internal.Correction>
0.0384

> <Gold.Rescore>
     Score         DG    S(hbond)    S(metal)    S(lipo)     H(rot)  DE(clash)    DE(int)     intcor
     18.13     -19.15       2.02        0.00     117.56       2.67       0.37       0.65       ----

> <Gold.Chemscore.Fitness>
18.1302

> <Gold.Chemscore.DG>
-19.1509

> <Gold.Chemscore.ZeroCoef>
-5.4800

> <Gold.Chemscore.Hbond>
2.0224

> <Gold.Chemscore.Metal>
0.0000

> <Gold.Chemscore.Lipo>
117.5601

> <Gold.Chemscore.Internal_Hbond>
0.0000

> <Gold.Chemscore.DEClash>
0.3688

> <Gold.Chemscore.DEInternal>
0.6519

> <Gold.Chemscore.Rot>
2.6712

> <Gold.Chemscore.Internal.Correction>
   9.000000E+99

> <Gold.Chemscore.Hbonds>
donor molecule, donor type, donor heavy atom, donor atom, acceptor molecule, acceptor atom, score
      L1  H    10    31       P1  8028  0.99
      L1  H    17    41       P1 10175  0.82
      P1  H  7997  8009       L1     5  0.05

> <Gold.Chemscore.Hbond.Weighted>
-6.7547

> <Gold.Chemscore.Metal.Weighted>
-0.0000

> <Gold.Chemscore.Lipo.Weighted>
-13.7545

> <Gold.Chemscore.Internal_Hbond.Weighted>
0.0000

> <Gold.Chemscore.DEClash.Weighted>
0.3688

> <Gold.Chemscore.DEInternal.Weighted>
0.6519

> <Gold.Chemscore.Rot.Weighted>
6.8383

> <Gold.Chemscore.Internal.Correction.Weighted>
   9.000000E+99

> <Gold.Protein.RotatedTorsions>
[ 6907 6896 6895 6894 ] final   16.01 input  -60.11 | X-H torsion
[ 7974 7965 7964 7962 ] final  126.03 input  175.53 | X-H torsion
[ 8008 7997 7996 7995 ] final  150.56 input   59.86 | X-H torsion
[ 10167 10162 10161 10158 ] final  158.60 input  -65.29 | X-H torsion
[ 10718 10713 10712 10709 ] final  151.84 input   66.30 | X-H torsion
[ 10763 10752 10751 10750 ] final    5.04 input  -60.55 | X-H torsion
[ 11005 11000 10999 10996 ] final  -78.98 input  -57.11 | X-H torsion

> <Gold.Protein.ActiveResidues>
 VAL166  LYS551  ARG553  GLY616  TRP617  ASP618  TYR619  PRO620  LYS621  CYS622 
 ASP623  PHE694  ASN695  SER759  ASP760  ASP761  ALA762  ILE779  LEU786  VAL792 
 PHE793  MET794  SER795  GLU796  ALA797  LYS798  CYS799  TRP800  GLU811  SER814 

> <Gold.Protein.RotatedAtoms>
  151.8271  135.0633  160.0431 H   0  0  0  0  0  0  0  0  0  0  0  0  # atno 6907 bound_to 6896
  152.2908  133.5555  159.5564 H   0  0  0  0  0  0  0  0  0  0  0  0  # atno 6908 bound_to 6896
  150.7229  134.0348  159.3787 H   0  0  0  0  0  0  0  0  0  0  0  0  # atno 6909 bound_to 6896
  145.0663  139.3765  143.4980 H   0  0  0  0  0  0  0  0  0  0  0  0  # atno 7974 bound_to 7965
  156.2710  140.2071  156.6037 H   0  0  0  0  0  0  0  0  0  0  0  0  # atno 8008 bound_to 7997
  154.6886  140.0532  157.0364 H   0  0  0  0  0  0  0  0  0  0  0  0  # atno 8009 bound_to 7997
  155.0898  140.3195  155.4580 H   0  0  0  0  0  0  0  0  0  0  0  0  # atno 8010 bound_to 7997
  139.4827  144.4809  151.8446 H   0  0  0  0  0  0  0  0  0  0  0  0  # atno 10167 bound_to 10162
  157.2654  131.0806  151.1636 H   0  0  0  0  0  0  0  0  0  0  0  0  # atno 10718 bound_to 10713
  153.2641  135.6926  153.7548 H   0  0  0  0  0  0  0  0  0  0  0  0  # atno 10763 bound_to 10752
  153.6596  135.3363  155.3124 H   0  0  0  0  0  0  0  0  0  0  0  0  # atno 10764 bound_to 10752
  154.8441  135.4474  154.1642 H   0  0  0  0  0  0  0  0  0  0  0  0  # atno 10765 bound_to 10752
  141.1666  133.7086  156.8054 H   0  0  0  0  0  0  0  0  0  0  0  0  # atno 11005 bound_to 11000
  146.3527  140.0386  142.8645 LP  0  0  0  0  0  0  0  0  0  0  0  0  # atno 17320 bound_to 7965
  145.1347  140.9538  143.4524 LP  0  0  0  0  0  0  0  0  0  0  0  0  # atno 17321 bound_to 7965
  140.4285  144.2148  150.5887 LP  0  0  0  0  0  0  0  0  0  0  0  0  # atno 17342 bound_to 10162
  140.4803  143.2381  151.8964 LP  0  0  0  0  0  0  0  0  0  0  0  0  # atno 17343 bound_to 10162
  157.3129  130.6899  149.6226 LP  0  0  0  0  0  0  0  0  0  0  0  0  # atno 17370 bound_to 10713
  155.9663  130.4358  150.5107 LP  0  0  0  0  0  0  0  0  0  0  0  0  # atno 17371 bound_to 10713
  140.2226  134.8746  157.3393 LP  0  0  0  0  0  0  0  0  0  0  0  0  # atno 17394 bound_to 11000
  140.1972  134.4299  155.7682 LP  0  0  0  0  0  0  0  0  0  0  0  0  # atno 17395 bound_to 11000

$$$$
