AV-unprocessed.smi:2061|AV-procd|sdf|8382|dock9
  -GOLD-   2272011 63D 1   1.00000     0.00000
 Structure written by MMmdl.
 45 46  0  0  0  0  0  0  0  0  3 V2000
  145.9782  134.9989  162.1844 C   0  0  0  0  0  0  0  0  0  0  0  0
  147.0994  135.6149  161.4197 C   0  0  0  0  0  0  0  0  0  0  0  0
  147.8521  135.1808  160.3656 C   0  0  0  0  0  0  0  0  0  0  0  0
  148.7374  136.2677  160.1295 C   0  0  0  0  0  0  0  0  0  0  0  0
  149.6926  136.3165  159.1882 N   0  5  0  0  0  0  0  0  0  0  0  0
  150.5609  137.3526  159.1514 C   0  0  0  0  0  0  0  0  0  0  0  0
  151.2554  137.7616  160.0849 O   0  0  0  0  0  0  0  0  0  0  0  0
  150.6239  137.9590  157.9576 N   0  0  0  0  0  0  0  0  0  0  0  0
  151.4548  139.1144  157.6331 C   0  0  0  0  0  0  0  0  0  0  0  0
  150.6456  140.4340  157.5259 C   0  0  2  0  0  0  0  0  0  0  0  0
  150.2797  140.7169  156.0483 C   0  0  0  0  0  0  0  0  0  0  0  0
  151.3988  141.5504  158.1842 N   0  3  1  0  0  0  0  0  0  0  0  0
  150.6597  142.8334  158.3385 C   0  0  0  0  0  0  0  0  0  0  0  0
  151.5451  143.9273  158.9702 C   0  0  2  0  0  0  0  0  0  0  0  0
  152.5977  144.4986  158.0028 C   0  0  0  0  0  0  0  0  0  0  0  0
  152.1283  143.4628  160.1855 O   0  0  0  0  0  0  0  0  0  0  0  0
  152.8787  142.2601  160.0588 C   0  0  1  0  0  0  0  0  0  0  0  0
  153.4328  141.9038  161.4427 C   0  0  0  0  0  0  0  0  0  0  0  0
  151.9694  141.1533  159.4983 C   0  0  0  0  0  0  0  0  0  0  0  0
  148.5507  137.2657  160.9769 N   0  0  0  0  0  0  0  0  0  0  0  0
  147.4970  136.8577  161.8035 O   0  0  0  0  0  0  0  0  0  0  0  0
  146.2142  133.9693  162.4530 H   0  0  0  0  0  0  0  0  0  0  0  0
  145.0648  134.9931  161.5900 H   0  0  0  0  0  0  0  0  0  0  0  0
  145.7798  135.5501  163.1038 H   0  0  0  0  0  0  0  0  0  0  0  0
  147.7794  134.2385  159.8437 H   0  0  0  0  0  0  0  0  0  0  0  0
  150.0429  137.5889  157.2196 H   0  0  0  0  0  0  0  0  0  0  0  0
  152.2490  139.1778  158.3760 H   0  0  0  0  0  0  0  0  0  0  0  0
  151.9498  138.9098  156.6834 H   0  0  0  0  0  0  0  0  0  0  0  0
  149.7025  140.3171  158.0622 H   0  0  0  0  0  0  0  0  0  0  0  0
  149.7560  139.8756  155.5949 H   0  0  0  0  0  0  0  0  0  0  0  0
  151.1687  140.9087  155.4466 H   0  0  0  0  0  0  0  0  0  0  0  0
  149.6066  141.5683  155.9491 H   0  0  0  0  0  0  0  0  0  0  0  0
  150.3062  143.2071  157.3780 H   0  0  0  0  0  0  0  0  0  0  0  0
  149.7807  142.6638  158.9622 H   0  0  0  0  0  0  0  0  0  0  0  0
  150.8953  144.7573  159.2494 H   0  0  0  0  0  0  0  0  0  0  0  0
  152.1182  144.9858  157.1533 H   0  0  0  0  0  0  0  0  0  0  0  0
  153.2551  143.7270  157.6030 H   0  0  0  0  0  0  0  0  0  0  0  0
  153.2190  145.2437  158.5002 H   0  0  0  0  0  0  0  0  0  0  0  0
  153.7236  142.4167  159.3879 H   0  0  0  0  0  0  0  0  0  0  0  0
  154.0233  140.9880  161.4058 H   0  0  0  0  0  0  0  0  0  0  0  0
  152.6289  141.7550  162.1643 H   0  0  0  0  0  0  0  0  0  0  0  0
  154.0767  142.6981  161.8213 H   0  0  0  0  0  0  0  0  0  0  0  0
  151.1576  140.9449  160.1976 H   0  0  0  0  0  0  0  0  0  0  0  0
  152.5489  140.2358  159.4134 H   0  0  0  0  0  0  0  0  0  0  0  0
  152.1776  141.7546  157.5746 H   0  0  0  0  0  0  0  0  0  0  0  0
  1  2  1  0  0  0  0
  1 22  1  0  0  0  0
  1 23  1  0  0  0  0
  1 24  1  0  0  0  0
  2 21  1  0  0  0  0
  2  3  2  0  0  0  0
  3  4  1  0  0  0  0
  3 25  1  0  0  0  0
  4  5  1  0  0  0  0
  4 20  2  0  0  0  0
  5  6  1  0  0  0  0
  6  7  2  0  0  0  0
  6  8  1  0  0  0  0
  8  9  1  0  0  0  0
  8 26  1  0  0  0  0
  9 10  1  0  0  0  0
  9 27  1  0  0  0  0
  9 28  1  0  0  0  0
 10 11  1  0  0  0  0
 10 12  1  0  0  0  0
 10 29  1  0  0  0  0
 11 30  1  0  0  0  0
 11 31  1  0  0  0  0
 11 32  1  0  0  0  0
 12 19  1  0  0  0  0
 12 13  1  0  0  0  0
 12 45  1  0  0  0  0
 13 14  1  0  0  0  0
 13 33  1  0  0  0  0
 13 34  1  0  0  0  0
 14 15  1  0  0  0  0
 14 16  1  0  0  0  0
 14 35  1  0  0  0  0
 15 36  1  0  0  0  0
 15 37  1  0  0  0  0
 15 38  1  0  0  0  0
 16 17  1  0  0  0  0
 17 18  1  0  0  0  0
 17 19  1  0  0  0  0
 17 39  1  0  0  0  0
 18 40  1  0  0  0  0
 18 41  1  0  0  0  0
 18 42  1  0  0  0  0
 19 43  1  0  0  0  0
 19 44  1  0  0  0  0
 20 21  1  0  0  0  0
M  CHG  1   5  -1
M  CHG  1  12   1
M  END
> <s_m_source_file>
AV-unprocessed.smi

> <i_m_source_file_index>
2061

> <i_lp_mmshare_version>
43012

> <i_f3d_flags>
0

> <s_epik_input>
W0NIM11jMVtjSF1jKG5vMSlbTkhdQyg9TylbTkhdW0NIMl1bQ0BIXShbQ0gzXSlOMltDSDJdW0NAQEhdKFtDSDNdKU9bQ0BASF0oW0NIM10pW0NIMl0y

> <s_epik_cmdline>
J2VwaWtfcHl0aG9uJywgJy1waCcsICc3LjAnLCAnLXRuJywgJzgnLCAnLW1hJywgJzIwMCcsICctbWV0YWxfYmluZGluZycsICctaW1hZScsICc8aW5maWxlLm1hZT4nLCAnLW9tYWUnLCAnPG91dGZpbGUubWFlPic=

> <r_epik_Ionization_Penalty>
6.73511

> <r_epik_Ionization_Penalty_Charging>
6.73502

> <r_epik_Ionization_Penalty_Neutral>
9.50841e-05

> <r_epik_State_Penalty>
6.93549

> <r_epik_Charging_Adjusted_Penalty>
13.6705

> <i_epik_Tot_Q>
0

> <i_epik_Tot_abs_Q>
2

> <r_epik_Metal_State_Penalty>
2.87211

> <b_epik_Metal_Only>
1

> <s_lp_Force_Field>
OPLS_2005

> <r_lp_Energy>
12.0901

> <b_lp_Chiralities_Consistent>
1

> <s_lp_Variant>
AV-unprocessed.smi:2061-23

> <Gold.Version>
5.8.1

> <Gold.Id.Protein>
6NUR|6NUR_protein|mol2

> <Gold.PLP.Fitness>
44.0854

> <Gold.PLP.PLP>
-38.8198

> <Gold.PLP.part.hbond>
-4.6345

> <Gold.PLP.part.metal>
0.0000

> <Gold.PLP.part.buried>
-4.3659

> <Gold.PLP.part.nonpolar>
-32.1096

> <Gold.PLP.part.repulsive>
0.1754

> <Gold.PLP.ligand.clash>
0.0000

> <Gold.PLP.ligand.torsion>
1.2376

> <Gold.PLP.Chemscore.Hbond>
2.5595

> <Gold.PLP.Chemscore.CHOScore>
0.0000

> <Gold.PLP.Chemscore.Metal>
0.0000

> <Gold.Chemscore.Hbonds>
donor molecule, donor type, donor heavy atom, donor atom, acceptor molecule, acceptor atom, score
      P1  H  6896  6909       L1     5  1.90
      P1  H  6931  6943       L1    20  0.51

> <Gold.PLP.Chemscore.Internal.Correction>
0.0624

> <Gold.Rescore>
     Score         DG    S(hbond)    S(metal)    S(lipo)     H(rot)  DE(clash)    DE(int)     intcor
     12.71     -17.12       1.50        0.00      90.73       1.56       1.84       2.57       ----

> <Gold.Chemscore.Fitness>
12.7092

> <Gold.Chemscore.DG>
-17.1184

> <Gold.Chemscore.ZeroCoef>
-5.4800

> <Gold.Chemscore.Hbond>
1.4980

> <Gold.Chemscore.Metal>
0.0000

> <Gold.Chemscore.Lipo>
90.7346

> <Gold.Chemscore.Internal_Hbond>
0.0000

> <Gold.Chemscore.DEClash>
1.8406

> <Gold.Chemscore.DEInternal>
2.5686

> <Gold.Chemscore.Rot>
1.5550

> <Gold.Chemscore.Internal.Correction>
   9.000000E+99

> <Gold.Chemscore.Hbonds>
donor molecule, donor type, donor heavy atom, donor atom, acceptor molecule, acceptor atom, score
      P1  H  6896  6909       L1     5  0.07
      P1  H  6931  6943       L1    20  0.06

> <Gold.Chemscore.Hbond.Weighted>
-5.0034

> <Gold.Chemscore.Metal.Weighted>
-0.0000

> <Gold.Chemscore.Lipo.Weighted>
-10.6159

> <Gold.Chemscore.Internal_Hbond.Weighted>
0.0000

> <Gold.Chemscore.DEClash.Weighted>
1.8406

> <Gold.Chemscore.DEInternal.Weighted>
2.5686

> <Gold.Chemscore.Rot.Weighted>
3.9809

> <Gold.Chemscore.Internal.Correction.Weighted>
   9.000000E+99

> <Gold.Protein.RotatedTorsions>
[ 6907 6896 6895 6894 ] final   75.51 input  -60.11 | X-H torsion
[ 7974 7965 7964 7962 ] final   77.25 input  175.53 | X-H torsion
[ 8008 7997 7996 7995 ] final   -5.89 input   59.86 | X-H torsion
[ 10167 10162 10161 10158 ] final  170.10 input  -65.29 | X-H torsion
[ 10718 10713 10712 10709 ] final -155.08 input   66.30 | X-H torsion
[ 10763 10752 10751 10750 ] final   24.65 input  -60.55 | X-H torsion
[ 11005 11000 10999 10996 ] final  -72.92 input  -57.11 | X-H torsion

> <Gold.Protein.ActiveResidues>
 VAL166  LYS551  ARG553  GLY616  TRP617  ASP618  TYR619  PRO620  LYS621  CYS622 
 ASP623  PHE694  ASN695  SER759  ASP760  ASP761  ALA762  ILE779  LEU786  VAL792 
 PHE793  MET794  SER795  GLU796  ALA797  LYS798  CYS799  TRP800  GLU811  SER814 

> <Gold.Protein.RotatedAtoms>
  152.5029  134.4109  159.9447 H   0  0  0  0  0  0  0  0  0  0  0  0  # atno 6907 bound_to 6896
  151.4077  133.3731  159.2748 H   0  0  0  0  0  0  0  0  0  0  0  0  # atno 6908 bound_to 6896
  150.9315  134.8751  159.7613 H   0  0  0  0  0  0  0  0  0  0  0  0  # atno 6909 bound_to 6896
  145.6924  139.2557  143.1752 H   0  0  0  0  0  0  0  0  0  0  0  0  # atno 7974 bound_to 7965
  154.5993  140.2447  155.7814 H   0  0  0  0  0  0  0  0  0  0  0  0  # atno 8008 bound_to 7997
  156.2300  140.2970  156.0117 H   0  0  0  0  0  0  0  0  0  0  0  0  # atno 8009 bound_to 7997
  155.2239  140.0401  157.2943 H   0  0  0  0  0  0  0  0  0  0  0  0  # atno 8010 bound_to 7997
  139.5009  144.3634  151.9801 H   0  0  0  0  0  0  0  0  0  0  0  0  # atno 10167 bound_to 10162
  156.5080  130.8422  151.2635 H   0  0  0  0  0  0  0  0  0  0  0  0  # atno 10718 bound_to 10713
  153.0748  135.6600  154.0169 H   0  0  0  0  0  0  0  0  0  0  0  0  # atno 10763 bound_to 10752
  153.9805  135.2955  155.3422 H   0  0  0  0  0  0  0  0  0  0  0  0  # atno 10764 bound_to 10752
  154.7134  135.5196  153.8770 H   0  0  0  0  0  0  0  0  0  0  0  0  # atno 10765 bound_to 10752
  141.1615  133.6862  156.7132 H   0  0  0  0  0  0  0  0  0  0  0  0  # atno 11005 bound_to 11000
  146.0870  140.7700  142.9614 LP  0  0  0  0  0  0  0  0  0  0  0  0  # atno 17320 bound_to 7965
  144.6992  140.3577  143.7170 LP  0  0  0  0  0  0  0  0  0  0  0  0  # atno 17321 bound_to 7965
  140.3070  144.3582  150.6044 LP  0  0  0  0  0  0  0  0  0  0  0  0  # atno 17342 bound_to 10162
  140.5829  143.2171  151.7395 LP  0  0  0  0  0  0  0  0  0  0  0  0  # atno 17343 bound_to 10162
  157.7454  130.9959  150.2761 LP  0  0  0  0  0  0  0  0  0  0  0  0  # atno 17370 bound_to 10713
  156.3268  130.3794  149.7526 LP  0  0  0  0  0  0  0  0  0  0  0  0  # atno 17371 bound_to 10713
  140.2871  134.8270  157.3985 LP  0  0  0  0  0  0  0  0  0  0  0  0  # atno 17394 bound_to 11000
  140.1380  134.5009  155.8053 LP  0  0  0  0  0  0  0  0  0  0  0  0  # atno 17395 bound_to 11000

$$$$
