AV-unprocessed.smi:3034|AV-procd|sdf|11577|dock9
  -GOLD-   2272016543D 1   1.00000     0.00000
 Structure written by MMmdl.
 32 32  0  0  0  0  0  0  0  0  1 V2000
  144.1251  144.0430  159.8458 C   0  0  0  0  0  0  0  0  0  0  0  0
  144.7283  144.9281  160.9414 C   0  0  0  0  0  0  0  0  0  0  0  0
  146.0890  145.5142  160.5433 C   0  0  0  0  0  0  0  0  0  0  0  0
  147.3994  144.2223  160.5951 S   0  0  0  0  0  0  0  0  0  0  0  0
  147.7822  143.9847  161.9951 O   0  0  0  0  0  0  0  0  0  0  0  0
  146.9798  143.0949  159.7486 O   0  0  0  0  0  0  0  0  0  0  0  0
  148.7260  144.9981  159.8183 N   0  0  0  0  0  0  0  0  0  0  0  0
  149.8918  144.1783  159.4872 C   0  0  0  0  0  0  0  0  0  0  0  0
  151.1977  144.9037  159.8563 C   0  0  2  0  0  0  0  0  0  0  0  0
  151.5803  145.7282  158.7711 O   0  0  0  0  0  0  0  0  0  0  0  0
  152.2911  143.9071  160.2175 C   0  0  0  0  0  0  0  0  0  0  0  0
  152.8677  143.9192  161.5062 C   0  0  0  0  0  0  0  0  0  0  0  0
  153.8628  142.9697  161.8083 C   0  0  0  0  0  0  0  0  0  0  0  0
  154.2430  142.0462  160.8162 C   0  0  0  0  0  0  0  0  0  0  0  0
  153.6082  142.1135  159.5603 C   0  0  0  0  0  0  0  0  0  0  0  0
  152.6527  143.0194  159.2611 N   0  0  0  0  0  0  0  0  0  0  0  0
  143.1692  143.6277  160.1658 H   0  0  0  0  0  0  0  0  0  0  0  0
  144.7855  143.2099  159.6032 H   0  0  0  0  0  0  0  0  0  0  0  0
  143.9512  144.6118  158.9319 H   0  0  0  0  0  0  0  0  0  0  0  0
  144.0353  145.7381  161.1708 H   0  0  0  0  0  0  0  0  0  0  0  0
  144.8371  144.3460  161.8570 H   0  0  0  0  0  0  0  0  0  0  0  0
  146.0528  145.9212  159.5325 H   0  0  0  0  0  0  0  0  0  0  0  0
  146.3795  146.3202  161.2175 H   0  0  0  0  0  0  0  0  0  0  0  0
  149.0049  145.8354  160.3287 H   0  0  0  0  0  0  0  0  0  0  0  0
  149.8193  143.2515  160.0582 H   0  0  0  0  0  0  0  0  0  0  0  0
  149.8705  143.9050  158.4312 H   0  0  0  0  0  0  0  0  0  0  0  0
  151.0253  145.5501  160.7183 H   0  0  0  0  0  0  0  0  0  0  0  0
  152.1044  145.2143  158.1763 H   0  0  0  0  0  0  0  0  0  0  0  0
  152.5531  144.6361  162.2504 H   0  0  0  0  0  0  0  0  0  0  0  0
  154.3243  142.9488  162.7844 H   0  0  0  0  0  0  0  0  0  0  0  0
  155.0017  141.3033  161.0131 H   0  0  0  0  0  0  0  0  0  0  0  0
  153.8740  141.4203  158.7759 H   0  0  0  0  0  0  0  0  0  0  0  0
  1  2  1  0  0  0  0
  1 17  1  0  0  0  0
  1 18  1  0  0  0  0
  1 19  1  0  0  0  0
  2  3  1  0  0  0  0
  2 20  1  0  0  0  0
  2 21  1  0  0  0  0
  3  4  1  0  0  0  0
  3 22  1  0  0  0  0
  3 23  1  0  0  0  0
  4  5  2  0  0  0  0
  4  6  2  0  0  0  0
  4  7  1  0  0  0  0
  7  8  1  0  0  0  0
  7 24  1  0  0  0  0
  8  9  1  0  0  0  0
  8 25  1  0  0  0  0
  8 26  1  0  0  0  0
  9 10  1  0  0  0  0
  9 11  1  0  0  0  0
  9 27  1  0  0  0  0
 10 28  1  0  0  0  0
 11 16  1  0  0  0  0
 11 12  2  0  0  0  0
 12 13  1  0  0  0  0
 12 29  1  0  0  0  0
 13 14  2  0  0  0  0
 13 30  1  0  0  0  0
 14 15  1  0  0  0  0
 14 31  1  0  0  0  0
 15 16  2  0  0  0  0
 15 32  1  0  0  0  0
M  END
> <s_m_source_file>
AV-unprocessed.smi

> <i_m_source_file_index>
3034

> <i_lp_mmshare_version>
43012

> <i_f3d_flags>
0

> <s_epik_input>
W0NIM11bQ0gyXVtDSDJdUyg9TykoPU8pW05IXVtDSDJdW0NASF0oW09IXSljMVtjSF1bY0hdW2NIXVtjSF1uMQ==

> <s_epik_cmdline>
J2VwaWtfcHl0aG9uJywgJy1waCcsICc3LjAnLCAnLXRuJywgJzgnLCAnLW1hJywgJzIwMCcsICctbWV0YWxfYmluZGluZycsICctaW1hZScsICc8aW5maWxlLm1hZT4nLCAnLW9tYWUnLCAnPG91dGZpbGUubWFlPic=

> <r_epik_Ionization_Penalty>
0.00187371

> <r_epik_Ionization_Penalty_Charging>
0

> <r_epik_Ionization_Penalty_Neutral>
0.00187371

> <r_epik_State_Penalty>
0.0012608

> <r_epik_Charging_Adjusted_Penalty>
0.0012608

> <i_epik_Tot_Q>
0

> <i_epik_Tot_abs_Q>
0

> <r_epik_Metal_State_Penalty>
0.0168387

> <b_epik_Metal_Only>
0

> <s_lp_Force_Field>
OPLS_2005

> <r_lp_Energy>
4.86563

> <b_lp_Chiralities_Consistent>
1

> <s_lp_Variant>
AV-unprocessed.smi:3034-1

> <Gold.Version>
5.8.1

> <Gold.Id.Protein>
6NUR|6NUR_protein|mol2

> <Gold.PLP.Fitness>
37.5072

> <Gold.PLP.PLP>
-36.3900

> <Gold.PLP.part.hbond>
-3.0841

> <Gold.PLP.part.metal>
0.0000

> <Gold.PLP.part.buried>
-7.5681

> <Gold.PLP.part.nonpolar>
-25.9851

> <Gold.PLP.part.repulsive>
0.5414

> <Gold.PLP.ligand.clash>
0.0000

> <Gold.PLP.ligand.torsion>
1.0332

> <Gold.PLP.Chemscore.Hbond>
1.0000

> <Gold.PLP.Chemscore.CHOScore>
0.0000

> <Gold.PLP.Chemscore.Metal>
0.0000

> <Gold.Chemscore.Hbonds>
donor molecule, donor type, donor heavy atom, donor atom, acceptor molecule, acceptor atom, score
      P1  H  6933  6944       L1     5  0.40

> <Gold.PLP.Chemscore.Internal.Correction>
0.1835

> <Gold.Rescore>
     Score         DG    S(hbond)    S(metal)    S(lipo)     H(rot)  DE(clash)    DE(int)     intcor
     10.46     -11.59       0.96        0.00      82.31       2.63       0.06       1.07       ----

> <Gold.Chemscore.Fitness>
10.4625

> <Gold.Chemscore.DG>
-11.5930

> <Gold.Chemscore.ZeroCoef>
-5.4800

> <Gold.Chemscore.Hbond>
0.9609

> <Gold.Chemscore.Metal>
0.0000

> <Gold.Chemscore.Lipo>
82.3094

> <Gold.Chemscore.Internal_Hbond>
0.0000

> <Gold.Chemscore.DEClash>
0.0588

> <Gold.Chemscore.DEInternal>
1.0717

> <Gold.Chemscore.Rot>
2.6275

> <Gold.Chemscore.Internal.Correction>
   9.000000E+99

> <Gold.Chemscore.Hbonds>
donor molecule, donor type, donor heavy atom, donor atom, acceptor molecule, acceptor atom, score
      P1  H  6933  6944       L1     5  0.01
      P1  H  6934  6946       L1     6  0.06

> <Gold.Chemscore.Hbond.Weighted>
-3.2093

> <Gold.Chemscore.Metal.Weighted>
-0.0000

> <Gold.Chemscore.Lipo.Weighted>
-9.6302

> <Gold.Chemscore.Internal_Hbond.Weighted>
0.0000

> <Gold.Chemscore.DEClash.Weighted>
0.0588

> <Gold.Chemscore.DEInternal.Weighted>
1.0717

> <Gold.Chemscore.Rot.Weighted>
6.7265

> <Gold.Chemscore.Internal.Correction.Weighted>
   9.000000E+99

> <Gold.Protein.RotatedTorsions>
[ 6907 6896 6895 6894 ] final -102.26 input  -60.11 | X-H torsion
[ 7974 7965 7964 7962 ] final  -89.93 input  175.53 | X-H torsion
[ 8008 7997 7996 7995 ] final    5.48 input   59.86 | X-H torsion
[ 10167 10162 10161 10158 ] final  -98.05 input  -65.29 | X-H torsion
[ 10718 10713 10712 10709 ] final   77.88 input   66.30 | X-H torsion
[ 10763 10752 10751 10750 ] final  119.86 input  -60.55 | X-H torsion
[ 11005 11000 10999 10996 ] final  -49.00 input  -57.11 | X-H torsion

> <Gold.Protein.ActiveResidues>
 VAL166  LYS551  ARG553  GLY616  TRP617  ASP618  TYR619  PRO620  LYS621  CYS622 
 ASP623  PHE694  ASN695  SER759  ASP760  ASP761  ALA762  ILE779  LEU786  VAL792 
 PHE793  MET794  SER795  GLU796  ALA797  LYS798  CYS799  TRP800  GLU811  SER814 

> <Gold.Protein.RotatedAtoms>
  150.7189  134.0608  159.3830 H   0  0  0  0  0  0  0  0  0  0  0  0  # atno 6907 bound_to 6896
  151.8587  135.0529  160.0476 H   0  0  0  0  0  0  0  0  0  0  0  0  # atno 6908 bound_to 6896
  152.2734  133.5367  159.5489 H   0  0  0  0  0  0  0  0  0  0  0  0  # atno 6909 bound_to 6896
  145.4332  140.9556  143.2116 H   0  0  0  0  0  0  0  0  0  0  0  0  # atno 7974 bound_to 7965
  154.7290  140.2726  155.6473 H   0  0  0  0  0  0  0  0  0  0  0  0  # atno 8008 bound_to 7997
  156.2844  140.2719  156.1909 H   0  0  0  0  0  0  0  0  0  0  0  0  # atno 8009 bound_to 7997
  155.0407  140.0371  157.2498 H   0  0  0  0  0  0  0  0  0  0  0  0  # atno 8010 bound_to 7997
  140.2770  143.3306  152.0479 H   0  0  0  0  0  0  0  0  0  0  0  0  # atno 10167 bound_to 10162
  157.6726  130.9842  150.1705 H   0  0  0  0  0  0  0  0  0  0  0  0  # atno 10718 bound_to 10713
  153.5895  135.3468  155.2905 H   0  0  0  0  0  0  0  0  0  0  0  0  # atno 10763 bound_to 10752
  154.8655  135.4201  154.2532 H   0  0  0  0  0  0  0  0  0  0  0  0  # atno 10764 bound_to 10752
  153.3336  135.7046  153.6997 H   0  0  0  0  0  0  0  0  0  0  0  0  # atno 10765 bound_to 10752
  141.0734  133.6672  156.3522 H   0  0  0  0  0  0  0  0  0  0  0  0  # atno 11005 bound_to 11000
  144.8169  139.5861  143.7004 LP  0  0  0  0  0  0  0  0  0  0  0  0  # atno 17320 bound_to 7965
  146.2596  139.6379  142.9371 LP  0  0  0  0  0  0  0  0  0  0  0  0  # atno 17321 bound_to 7965
  139.4973  144.6618  151.6448 LP  0  0  0  0  0  0  0  0  0  0  0  0  # atno 17342 bound_to 10162
  140.5843  143.9891  150.6286 LP  0  0  0  0  0  0  0  0  0  0  0  0  # atno 17343 bound_to 10162
  156.2460  130.3695  149.8284 LP  0  0  0  0  0  0  0  0  0  0  0  0  # atno 17370 bound_to 10713
  156.6070  130.8571  151.3445 LP  0  0  0  0  0  0  0  0  0  0  0  0  # atno 17371 bound_to 10713
  140.5626  134.5919  157.5437 LP  0  0  0  0  0  0  0  0  0  0  0  0  # atno 17394 bound_to 11000
  139.9546  134.7557  156.0370 LP  0  0  0  0  0  0  0  0  0  0  0  0  # atno 17395 bound_to 11000

$$$$
