AV-unprocessed.smi:2100|AV-procd|sdf|8576|dock5
  -GOLD-   2272011303D 1   1.00000     0.00000
 Structure written by MMmdl.
 40 41  0  0  0  0  0  0  0  0  2 V2000
  148.9502  140.5084  153.6054 C   0  0  0  0  0  0  0  0  0  0  0  0
  149.6245  139.3765  154.3881 C   0  0  2  0  0  0  0  0  0  0  0  0
  149.4760  139.5643  155.9064 C   0  0  0  0  0  0  0  0  0  0  0  0
  150.2345  138.5358  156.6428 N   0  0  0  0  0  0  0  0  0  0  0  0
  149.9126  138.3585  158.3401 S   0  0  0  0  0  0  0  0  0  0  0  0
  148.4517  138.4354  158.5034 O   0  0  0  0  0  0  0  0  0  0  0  0
  150.5861  137.1138  158.7462 O   0  0  0  0  0  0  0  0  0  0  0  0
  150.6647  139.7078  158.8268 N   0  5  0  0  0  0  0  0  0  0  0  0
  152.0969  139.6840  159.0687 C   0  0  0  0  0  0  0  0  0  0  0  0
  152.7731  140.8867  158.3703 C   0  0  0  0  0  0  0  0  0  0  0  0
  152.4937  142.2473  159.0072 C   0  0  0  0  0  0  0  0  0  0  0  0
  152.3241  143.3976  158.2024 C   0  0  0  0  0  0  0  0  0  0  0  0
  152.0696  144.6310  158.8307 C   0  0  0  0  0  0  0  0  0  0  0  0
  151.9817  144.6712  160.2352 C   0  0  0  0  0  0  0  0  0  0  0  0
  152.1539  143.4699  160.9511 C   0  0  0  0  0  0  0  0  0  0  0  0
  152.4005  142.2816  160.3594 N   0  0  0  0  0  0  0  0  0  0  0  0
  151.6398  138.4519  156.2135 C   0  0  0  0  0  0  0  0  0  0  0  0
  151.7618  138.3387  154.6810 C   0  0  1  0  0  0  0  0  0  0  0  0
  151.4222  136.9364  154.1442 C   0  0  0  0  0  0  0  0  0  0  0  0
  151.0031  139.3583  154.0356 O   0  0  0  0  0  0  0  0  0  0  0  0
  147.8843  140.5578  153.8299 H   0  0  0  0  0  0  0  0  0  0  0  0
  149.0573  140.3570  152.5312 H   0  0  0  0  0  0  0  0  0  0  0  0
  149.3897  141.4753  153.8519 H   0  0  0  0  0  0  0  0  0  0  0  0
  149.1535  138.4395  154.0907 H   0  0  0  0  0  0  0  0  0  0  0  0
  149.8389  140.5482  156.2063 H   0  0  0  0  0  0  0  0  0  0  0  0
  148.4202  139.5255  156.1730 H   0  0  0  0  0  0  0  0  0  0  0  0
  152.3138  139.7296  160.1363 H   0  0  0  0  0  0  0  0  0  0  0  0
  152.5570  138.7617  158.7121 H   0  0  0  0  0  0  0  0  0  0  0  0
  153.8519  140.7308  158.3266 H   0  0  0  0  0  0  0  0  0  0  0  0
  152.4414  140.9233  157.3319 H   0  0  0  0  0  0  0  0  0  0  0  0
  152.4037  143.3352  157.1268 H   0  0  0  0  0  0  0  0  0  0  0  0
  151.9446  145.5298  158.2452 H   0  0  0  0  0  0  0  0  0  0  0  0
  151.7871  145.5994  160.7514 H   0  0  0  0  0  0  0  0  0  0  0  0
  152.0908  143.4637  162.0293 H   0  0  0  0  0  0  0  0  0  0  0  0
  152.1589  139.3455  156.5620 H   0  0  0  0  0  0  0  0  0  0  0  0
  152.1280  137.6006  156.6875 H   0  0  0  0  0  0  0  0  0  0  0  0
  152.8028  138.5291  154.4186 H   0  0  0  0  0  0  0  0  0  0  0  0
  152.1171  136.1940  154.5371 H   0  0  0  0  0  0  0  0  0  0  0  0
  151.4903  136.9087  153.0565 H   0  0  0  0  0  0  0  0  0  0  0  0
  150.4192  136.6177  154.4274 H   0  0  0  0  0  0  0  0  0  0  0  0
  1  2  1  0  0  0  0
  1 21  1  0  0  0  0
  1 22  1  0  0  0  0
  1 23  1  0  0  0  0
  2 20  1  0  0  0  0
  2  3  1  0  0  0  0
  2 24  1  0  0  0  0
  3  4  1  0  0  0  0
  3 25  1  0  0  0  0
  3 26  1  0  0  0  0
  4  5  1  0  0  0  0
  4 17  1  0  0  0  0
  5  6  2  0  0  0  0
  5  7  2  0  0  0  0
  5  8  1  0  0  0  0
  8  9  1  0  0  0  0
  9 10  1  0  0  0  0
  9 27  1  0  0  0  0
  9 28  1  0  0  0  0
 10 11  1  0  0  0  0
 10 29  1  0  0  0  0
 10 30  1  0  0  0  0
 11 16  1  0  0  0  0
 11 12  2  0  0  0  0
 12 13  1  0  0  0  0
 12 31  1  0  0  0  0
 13 14  2  0  0  0  0
 13 32  1  0  0  0  0
 14 15  1  0  0  0  0
 14 33  1  0  0  0  0
 15 16  2  0  0  0  0
 15 34  1  0  0  0  0
 17 18  1  0  0  0  0
 17 35  1  0  0  0  0
 17 36  1  0  0  0  0
 18 19  1  0  0  0  0
 18 20  1  0  0  0  0
 18 37  1  0  0  0  0
 19 38  1  0  0  0  0
 19 39  1  0  0  0  0
 19 40  1  0  0  0  0
M  CHG  1   8  -1
M  END
> <s_m_source_file>
AV-unprocessed.smi

> <i_m_source_file_index>
2100

> <i_lp_mmshare_version>
43012

> <i_f3d_flags>
0

> <s_epik_input>
W0NIM11bQ0BASF0xW0NIMl1OKFtDSDJdW0NASF0oTzEpW0NIM10pUyg9TykoPU8pW05IXVtDSDJdW0NIMl1jMltjSF1bY0hdW2NIXVtjSF1uMg==

> <s_epik_cmdline>
J2VwaWtfcHl0aG9uJywgJy1waCcsICc3LjAnLCAnLXRuJywgJzgnLCAnLW1hJywgJzIwMCcsICctbWV0YWxfYmluZGluZycsICctaW1hZScsICc8aW5maWxlLm1hZT4nLCAnLW9tYWUnLCAnPG91dGZpbGUubWFlPic=

> <r_epik_Ionization_Penalty>
1.27779

> <r_epik_Ionization_Penalty_Charging>
1.20871

> <r_epik_Ionization_Penalty_Neutral>
0.0690773

> <r_epik_State_Penalty>
1.64557

> <r_epik_Charging_Adjusted_Penalty>
2.85428

> <i_epik_Tot_Q>
-1

> <i_epik_Tot_abs_Q>
1

> <r_epik_Metal_State_Penalty>
0.643506

> <b_epik_Metal_Only>
0

> <s_lp_Force_Field>
OPLS_2005

> <r_lp_Energy>
11.2488

> <b_lp_Chiralities_Consistent>
1

> <s_lp_Variant>
AV-unprocessed.smi:2100-4

> <Gold.Version>
5.8.1

> <Gold.Id.Protein>
6NUR|6NUR_protein|mol2

> <Gold.PLP.Fitness>
44.3246

> <Gold.PLP.PLP>
-39.9027

> <Gold.PLP.part.hbond>
-3.3358

> <Gold.PLP.part.metal>
0.0000

> <Gold.PLP.part.buried>
-4.8019

> <Gold.PLP.part.nonpolar>
-33.9023

> <Gold.PLP.part.repulsive>
0.1183

> <Gold.PLP.ligand.clash>
0.0000

> <Gold.PLP.ligand.torsion>
1.2038

> <Gold.PLP.Chemscore.Hbond>
1.7736

> <Gold.PLP.Chemscore.CHOScore>
0.0000

> <Gold.PLP.Chemscore.Metal>
0.0000

> <Gold.Chemscore.Hbonds>
donor molecule, donor type, donor heavy atom, donor atom, acceptor molecule, acceptor atom, score
      P1  H  6896  6908       L1     7  0.15
      P1  H  7989  7998       L1    20  1.00

> <Gold.PLP.Chemscore.Internal.Correction>
1.5088

> <Gold.Rescore>
     Score         DG    S(hbond)    S(metal)    S(lipo)     H(rot)  DE(clash)    DE(int)     intcor
     19.90     -20.78       1.87        0.00     109.48       1.47       0.08       0.79       ----

> <Gold.Chemscore.Fitness>
19.9023

> <Gold.Chemscore.DG>
-20.7792

> <Gold.Chemscore.ZeroCoef>
-5.4800

> <Gold.Chemscore.Hbond>
1.8745

> <Gold.Chemscore.Metal>
0.0000

> <Gold.Chemscore.Lipo>
109.4832

> <Gold.Chemscore.Internal_Hbond>
0.0000

> <Gold.Chemscore.DEClash>
0.0830

> <Gold.Chemscore.DEInternal>
0.7939

> <Gold.Chemscore.Rot>
1.4731

> <Gold.Chemscore.Internal.Correction>
   9.000000E+99

> <Gold.Chemscore.Hbonds>
donor molecule, donor type, donor heavy atom, donor atom, acceptor molecule, acceptor atom, score
      P1  H  6896  6908       L1     7  0.17
      P1  H  7989  7998       L1    20  0.90

> <Gold.Chemscore.Hbond.Weighted>
-6.2609

> <Gold.Chemscore.Metal.Weighted>
-0.0000

> <Gold.Chemscore.Lipo.Weighted>
-12.8095

> <Gold.Chemscore.Internal_Hbond.Weighted>
0.0000

> <Gold.Chemscore.DEClash.Weighted>
0.0830

> <Gold.Chemscore.DEInternal.Weighted>
0.7939

> <Gold.Chemscore.Rot.Weighted>
3.7712

> <Gold.Chemscore.Internal.Correction.Weighted>
   9.000000E+99

> <Gold.Protein.RotatedTorsions>
[ 6907 6896 6895 6894 ] final -147.60 input  -60.11 | X-H torsion
[ 7974 7965 7964 7962 ] final  -66.91 input  175.53 | X-H torsion
[ 8008 7997 7996 7995 ] final  -49.89 input   59.86 | X-H torsion
[ 10167 10162 10161 10158 ] final  139.70 input  -65.29 | X-H torsion
[ 10718 10713 10712 10709 ] final  -36.56 input   66.30 | X-H torsion
[ 10763 10752 10751 10750 ] final   55.43 input  -60.55 | X-H torsion
[ 11005 11000 10999 10996 ] final   19.92 input  -57.11 | X-H torsion

> <Gold.Protein.ActiveResidues>
 VAL166  LYS551  ARG553  GLY616  TRP617  ASP618  TYR619  PRO620  LYS621  CYS622 
 ASP623  PHE694  ASN695  SER759  ASP760  ASP761  ALA762  ILE779  LEU786  VAL792 
 PHE793  MET794  SER795  GLU796  ALA797  LYS798  CYS799  TRP800  GLU811  SER814 

> <Gold.Protein.RotatedAtoms>
  151.1580  133.4863  159.2594 H   0  0  0  0  0  0  0  0  0  0  0  0  # atno 6907 bound_to 6896
  151.1484  135.0214  159.8667 H   0  0  0  0  0  0  0  0  0  0  0  0  # atno 6908 bound_to 6896
  152.5463  134.1467  159.8554 H   0  0  0  0  0  0  0  0  0  0  0  0  # atno 6909 bound_to 6896
  145.7359  140.8976  143.0555 H   0  0  0  0  0  0  0  0  0  0  0  0  # atno 7974 bound_to 7965
  154.4052  140.1285  156.4577 H   0  0  0  0  0  0  0  0  0  0  0  0  # atno 8008 bound_to 7997
  155.7304  140.3491  155.5037 H   0  0  0  0  0  0  0  0  0  0  0  0  # atno 8009 bound_to 7997
  155.9133  140.1039  157.1253 H   0  0  0  0  0  0  0  0  0  0  0  0  # atno 8010 bound_to 7997
  139.5071  144.6279  151.5892 H   0  0  0  0  0  0  0  0  0  0  0  0  # atno 10167 bound_to 10162
  156.3254  130.4271  149.7922 H   0  0  0  0  0  0  0  0  0  0  0  0  # atno 10718 bound_to 10713
  152.9817  135.5711  154.5066 H   0  0  0  0  0  0  0  0  0  0  0  0  # atno 10763 bound_to 10752
  154.4576  135.2780  155.1738 H   0  0  0  0  0  0  0  0  0  0  0  0  # atno 10764 bound_to 10752
  154.3339  135.6243  153.5618 H   0  0  0  0  0  0  0  0  0  0  0  0  # atno 10765 bound_to 10752
  140.4084  134.1644  155.7666 H   0  0  0  0  0  0  0  0  0  0  0  0  # atno 11005 bound_to 11000
  144.6882  139.9394  143.7474 LP  0  0  0  0  0  0  0  0  0  0  0  0  # atno 17320 bound_to 7965
  146.0494  139.3496  143.0649 LP  0  0  0  0  0  0  0  0  0  0  0  0  # atno 17321 bound_to 7965
  140.6002  143.9624  150.6381 LP  0  0  0  0  0  0  0  0  0  0  0  0  # atno 17342 bound_to 10162
  140.2833  143.3374  152.1131 LP  0  0  0  0  0  0  0  0  0  0  0  0  # atno 17343 bound_to 10162
  156.5214  130.8216  151.3205 LP  0  0  0  0  0  0  0  0  0  0  0  0  # atno 17370 bound_to 10713
  157.7420  130.9881  150.2485 LP  0  0  0  0  0  0  0  0  0  0  0  0  # atno 17371 bound_to 10713
  141.1830  133.8372  157.1188 LP  0  0  0  0  0  0  0  0  0  0  0  0  # atno 17394 bound_to 11000
  140.0285  134.9912  157.0734 LP  0  0  0  0  0  0  0  0  0  0  0  0  # atno 17395 bound_to 11000

$$$$
