AV-unprocessed.smi:2848|AV-procd|sdf|10956|dock5
  -GOLD-   2272015413D 1   1.00000     0.00000
 Structure written by MMmdl.
 26 27  0  0  0  0  0  0  0  0  1 V2000
  151.1452  145.2530  158.3352 Cl  0  0  0  0  0  0  0  0  0  0  0  0
  151.6706  143.6902  158.8568 C   0  0  0  0  0  0  0  0  0  0  0  0
  152.5313  143.5777  159.9678 C   0  0  0  0  0  0  0  0  0  0  0  0
  152.9872  142.3984  160.4398 N   0  0  0  0  0  0  0  0  0  0  0  0
  152.5925  141.2743  159.8064 C   0  0  0  0  0  0  0  0  0  0  0  0
  151.7352  141.2737  158.6880 C   0  0  0  0  0  0  0  0  0  0  0  0
  151.2572  142.5109  158.1948 C   0  0  0  0  0  0  0  0  0  0  0  0
  150.4017  142.6033  157.0864 N   0  0  0  0  0  0  0  0  0  0  0  0
  149.6786  141.4357  156.6049 C   0  0  0  0  0  0  0  0  0  0  0  0
  150.5576  140.4689  155.8357 C   0  0  0  0  0  0  0  0  0  0  0  0
  151.9030  140.5498  155.7795 C   0  0  0  0  0  0  0  0  0  0  0  0
  152.6920  139.6215  155.1490 O   0  0  0  0  0  0  0  0  0  0  0  0
  152.0208  138.4112  154.8160 C   0  0  0  0  0  0  0  0  0  0  0  0
  150.6186  138.7083  154.2602 C   0  0  0  0  0  0  0  0  0  0  0  0
  149.8577  139.4798  155.1851 O   0  0  0  0  0  0  0  0  0  0  0  0
  152.8638  144.4606  160.4937 H   0  0  0  0  0  0  0  0  0  0  0  0
  152.9728  140.3446  160.2027 H   0  0  0  0  0  0  0  0  0  0  0  0
  151.4642  140.3336  158.2317 H   0  0  0  0  0  0  0  0  0  0  0  0
  150.0606  143.5151  156.8164 H   0  0  0  0  0  0  0  0  0  0  0  0
  149.2480  140.9005  157.4516 H   0  0  0  0  0  0  0  0  0  0  0  0
  148.8559  141.7582  155.9656 H   0  0  0  0  0  0  0  0  0  0  0  0
  152.4878  141.3145  156.2691 H   0  0  0  0  0  0  0  0  0  0  0  0
  152.6136  137.8628  154.0839 H   0  0  0  0  0  0  0  0  0  0  0  0
  151.9508  137.7844  155.7062 H   0  0  0  0  0  0  0  0  0  0  0  0
  150.6928  139.2548  153.3191 H   0  0  0  0  0  0  0  0  0  0  0  0
  150.0877  137.7800  154.0492 H   0  0  0  0  0  0  0  0  0  0  0  0
  1  2  1  0  0  0  0
  2  7  1  0  0  0  0
  2  3  2  0  0  0  0
  3  4  1  0  0  0  0
  3 16  1  0  0  0  0
  4  5  2  0  0  0  0
  5  6  1  0  0  0  0
  5 17  1  0  0  0  0
  6  7  2  0  0  0  0
  6 18  1  0  0  0  0
  7  8  1  0  0  0  0
  8  9  1  0  0  0  0
  8 19  1  0  0  0  0
  9 10  1  0  0  0  0
  9 20  1  0  0  0  0
  9 21  1  0  0  0  0
 10 15  1  0  0  0  0
 10 11  2  0  0  0  0
 11 12  1  0  0  0  0
 11 22  1  0  0  0  0
 12 13  1  0  0  0  0
 13 14  1  0  0  0  0
 13 23  1  0  0  0  0
 13 24  1  0  0  0  0
 14 15  1  0  0  0  0
 14 25  1  0  0  0  0
 14 26  1  0  0  0  0
M  END
> <s_m_source_file>
AV-unprocessed.smi

> <i_m_source_file_index>
2848

> <i_lp_mmshare_version>
43012

> <i_f3d_flags>
0

> <s_epik_input>
Q2xjMVtjSF1uW2NIXVtjSF1jMVtOSF1bQ0gyXUMyPVtDSF1PW0NIMl1bQ0gyXU8y

> <s_epik_cmdline>
J2VwaWtfcHl0aG9uJywgJy1waCcsICc3LjAnLCAnLXRuJywgJzgnLCAnLW1hJywgJzIwMCcsICctbWV0YWxfYmluZGluZycsICctaW1hZScsICc8aW5maWxlLm1hZT4nLCAnLW9tYWUnLCAnPG91dGZpbGUubWFlPic=

> <r_lp_tautomer_probability>
0.999999

> <r_epik_Ionization_Penalty>
1.20444

> <r_epik_Ionization_Penalty_Charging>
0

> <r_epik_Ionization_Penalty_Neutral>
1.20444

> <r_epik_State_Penalty>
1.27033

> <r_epik_Charging_Adjusted_Penalty>
1.27033

> <i_epik_Tot_Q>
0

> <i_epik_Tot_abs_Q>
0

> <r_epik_Metal_State_Penalty>
0.00444713

> <b_epik_Metal_Only>
0

> <s_lp_Force_Field>
OPLS_2005

> <r_lp_Energy>
2.57385

> <b_lp_Chiralities_Consistent>
1

> <s_lp_Variant>
AV-unprocessed.smi:2848-2

> <Gold.Version>
5.8.1

> <Gold.Id.Protein>
6NUR|6NUR_protein|mol2

> <Gold.PLP.Fitness>
37.3738

> <Gold.PLP.PLP>
-31.9169

> <Gold.PLP.part.hbond>
-3.0000

> <Gold.PLP.part.metal>
0.0000

> <Gold.PLP.part.buried>
-4.7264

> <Gold.PLP.part.nonpolar>
-24.0210

> <Gold.PLP.part.repulsive>
0.0824

> <Gold.PLP.ligand.clash>
0.0000

> <Gold.PLP.ligand.torsion>
0.2585

> <Gold.PLP.Chemscore.Hbond>
1.9913

> <Gold.PLP.Chemscore.CHOScore>
0.0000

> <Gold.PLP.Chemscore.Metal>
0.0000

> <Gold.Chemscore.Hbonds>
donor molecule, donor type, donor heavy atom, donor atom, acceptor molecule, acceptor atom, score
      L1  H     8    19       P1  8028  0.99
      P1  H  7997  8008       L1    12  1.00

> <Gold.PLP.Chemscore.Internal.Correction>
0.0000

> <Gold.Rescore>
     Score         DG    S(hbond)    S(metal)    S(lipo)     H(rot)  DE(clash)    DE(int)     intcor
     18.06     -18.79       1.63        0.00      93.38       1.19       0.48       0.25       ----

> <Gold.Chemscore.Fitness>
18.0565

> <Gold.Chemscore.DG>
-18.7888

> <Gold.Chemscore.ZeroCoef>
-5.4800

> <Gold.Chemscore.Hbond>
1.6284

> <Gold.Chemscore.Metal>
0.0000

> <Gold.Chemscore.Lipo>
93.3824

> <Gold.Chemscore.Internal_Hbond>
0.0000

> <Gold.Chemscore.DEClash>
0.4789

> <Gold.Chemscore.DEInternal>
0.2534

> <Gold.Chemscore.Rot>
1.1937

> <Gold.Chemscore.Internal.Correction>
   9.000000E+99

> <Gold.Chemscore.Hbonds>
donor molecule, donor type, donor heavy atom, donor atom, acceptor molecule, acceptor atom, score
      L1  H     8    19       P1  8028  0.89
      P1  H  7997  8008       L1    12  0.24

> <Gold.Chemscore.Hbond.Weighted>
-5.4389

> <Gold.Chemscore.Metal.Weighted>
-0.0000

> <Gold.Chemscore.Lipo.Weighted>
-10.9257

> <Gold.Chemscore.Internal_Hbond.Weighted>
0.0000

> <Gold.Chemscore.DEClash.Weighted>
0.4789

> <Gold.Chemscore.DEInternal.Weighted>
0.2534

> <Gold.Chemscore.Rot.Weighted>
3.0558

> <Gold.Chemscore.Internal.Correction.Weighted>
   9.000000E+99

> <Gold.Protein.RotatedTorsions>
[ 6907 6896 6895 6894 ] final  177.01 input  -60.11 | X-H torsion
[ 7974 7965 7964 7962 ] final   67.35 input  175.53 | X-H torsion
[ 8008 7997 7996 7995 ] final   -6.91 input   59.86 | X-H torsion
[ 10167 10162 10161 10158 ] final  129.92 input  -65.29 | X-H torsion
[ 10718 10713 10712 10709 ] final  -21.57 input   66.30 | X-H torsion
[ 10763 10752 10751 10750 ] final  130.07 input  -60.55 | X-H torsion
[ 11005 11000 10999 10996 ] final  -43.64 input  -57.11 | X-H torsion

> <Gold.Protein.ActiveResidues>
 VAL166  LYS551  ARG553  GLY616  TRP617  ASP618  TYR619  PRO620  LYS621  CYS622 
 ASP623  PHE694  ASN695  SER759  ASP760  ASP761  ALA762  ILE779  LEU786  VAL792 
 PHE793  MET794  SER795  GLU796  ALA797  LYS798  CYS799  TRP800  GLU811  SER814 

> <Gold.Protein.RotatedAtoms>
  151.7109  133.3312  159.3290 H   0  0  0  0  0  0  0  0  0  0  0  0  # atno 6907 bound_to 6896
  150.7694  134.6533  159.6309 H   0  0  0  0  0  0  0  0  0  0  0  0  # atno 6908 bound_to 6896
  152.3712  134.6734  160.0227 H   0  0  0  0  0  0  0  0  0  0  0  0  # atno 6909 bound_to 6896
  145.8157  139.3057  143.1072 H   0  0  0  0  0  0  0  0  0  0  0  0  # atno 7974 bound_to 7965
  154.5891  140.2421  155.7946 H   0  0  0  0  0  0  0  0  0  0  0  0  # atno 8008 bound_to 7997
  156.2234  140.2990  155.9962 H   0  0  0  0  0  0  0  0  0  0  0  0  # atno 8009 bound_to 7997
  155.2406  140.0407  157.2965 H   0  0  0  0  0  0  0  0  0  0  0  0  # atno 8010 bound_to 7997
  139.5454  144.6769  151.4489 H   0  0  0  0  0  0  0  0  0  0  0  0  # atno 10167 bound_to 10162
  156.5163  130.4622  149.6621 H   0  0  0  0  0  0  0  0  0  0  0  0  # atno 10718 bound_to 10713
  153.7521  135.3208  155.3323 H   0  0  0  0  0  0  0  0  0  0  0  0  # atno 10763 bound_to 10752
  154.8259  135.4569  154.0922 H   0  0  0  0  0  0  0  0  0  0  0  0  # atno 10764 bound_to 10752
  153.2127  135.6938  153.8176 H   0  0  0  0  0  0  0  0  0  0  0  0  # atno 10765 bound_to 10752
  141.0397  133.6785  156.2761 H   0  0  0  0  0  0  0  0  0  0  0  0  # atno 11005 bound_to 11000
  145.9729  140.8746  143.0153 LP  0  0  0  0  0  0  0  0  0  0  0  0  # atno 17320 bound_to 7965
  144.6752  140.1971  143.7391 LP  0  0  0  0  0  0  0  0  0  0  0  0  # atno 17321 bound_to 7965
  140.6700  143.8313  150.6988 LP  0  0  0  0  0  0  0  0  0  0  0  0  # atno 17342 bound_to 10162
  140.1735  143.4175  152.1984 LP  0  0  0  0  0  0  0  0  0  0  0  0  # atno 17343 bound_to 10162
  156.3192  130.7271  151.2179 LP  0  0  0  0  0  0  0  0  0  0  0  0  # atno 17370 bound_to 10713
  157.7443  131.0460  150.4873 LP  0  0  0  0  0  0  0  0  0  0  0  0  # atno 17371 bound_to 10713
  140.6257  134.5316  157.5553 LP  0  0  0  0  0  0  0  0  0  0  0  0  # atno 17394 bound_to 11000
  139.9267  134.8043  156.1049 LP  0  0  0  0  0  0  0  0  0  0  0  0  # atno 17395 bound_to 11000

$$$$
