AV-unprocessed.smi:15|AV-procd|sdf|79|dock10
  -GOLD-   2262015213D 1   1.00000     0.00000
 Structure written by MMmdl.
 53 56  0  0  0  0  0  0  0  0  1 V2000
  151.7009  139.3783  155.2041 C   0  0  0  0  0  0  0  0  0  0  0  0
  150.5966  140.3181  155.7139 C   0  0  0  0  0  0  0  0  0  0  0  0
  150.6546  140.5544  157.1566 N   0  0  0  0  0  0  0  0  0  0  0  0
  149.8408  141.6501  157.6769 C   0  0  0  0  0  0  0  0  0  0  0  0
  150.6671  142.6414  158.5107 C   0  0  2  0  0  0  0  0  0  0  0  0
  151.4751  143.6380  157.6787 C   0  0  0  0  0  0  0  0  0  0  0  0
  152.6701  143.9665  158.5619 C   0  0  0  0  0  0  0  0  0  0  0  0
  152.6014  142.9316  159.6879 C   0  0  0  0  0  0  0  0  0  0  0  0
  151.6784  141.9546  159.2295 O   0  0  0  0  0  0  0  0  0  0  0  0
  150.5495  139.4409  157.9137 C   0  0  0  0  0  0  0  0  0  0  0  0
  151.6872  138.9547  158.4672 N   0  0  0  0  0  0  0  0  0  0  0  0
  151.6405  137.8579  159.2298 C   0  0  0  0  0  0  0  0  0  0  0  0
  150.5812  137.1167  159.5633 N   0  0  0  0  0  0  0  0  0  0  0  0
  149.4353  137.6107  159.0124 C   0  0  0  0  0  0  0  0  0  0  0  0
  149.3297  138.7584  158.1783 C   0  0  0  0  0  0  0  0  0  0  0  0
  148.0061  138.9560  157.8057 N   0  0  0  0  0  0  0  0  0  0  0  0
  147.3647  137.9791  158.3867 C   0  0  0  0  0  0  0  0  0  0  0  0
  148.1438  137.1302  159.1414 N   0  0  0  0  0  0  0  0  0  0  0  0
  147.6900  135.9745  159.9006 C   0  0  0  0  0  0  0  0  0  0  0  0
  146.9211  136.3519  161.1943 C   0  0  1  0  0  0  0  0  0  0  0  0
  147.8022  137.0826  162.0306 O   0  0  0  0  0  0  0  0  0  0  0  0
  145.6904  137.2203  160.9399 C   0  0  0  0  0  0  0  0  0  0  0  0
  144.7583  136.8410  162.0802 C   0  0  0  0  0  0  0  0  0  0  0  0
  144.9595  135.4428  162.1804 O   0  0  0  0  0  0  0  0  0  0  0  0
  146.3503  135.1711  162.0307 C   0  0  1  0  0  0  0  0  0  0  0  0
  146.4939  133.7620  161.4347 C   0  0  0  0  0  0  0  0  0  0  0  0
  151.6527  139.2830  154.1194 H   0  0  0  0  0  0  0  0  0  0  0  0
  151.6072  138.3764  155.6240 H   0  0  0  0  0  0  0  0  0  0  0  0
  152.6896  139.7601  155.4600 H   0  0  0  0  0  0  0  0  0  0  0  0
  150.6850  141.2728  155.1960 H   0  0  0  0  0  0  0  0  0  0  0  0
  149.6184  139.9182  155.4458 H   0  0  0  0  0  0  0  0  0  0  0  0
  149.3835  142.1747  156.8373 H   0  0  0  0  0  0  0  0  0  0  0  0
  149.0180  141.2679  158.2842 H   0  0  0  0  0  0  0  0  0  0  0  0
  150.0384  143.1709  159.2283 H   0  0  0  0  0  0  0  0  0  0  0  0
  151.8226  143.1686  156.7572 H   0  0  0  0  0  0  0  0  0  0  0  0
  150.8932  144.5184  157.4048 H   0  0  0  0  0  0  0  0  0  0  0  0
  153.5987  143.8777  157.9971 H   0  0  0  0  0  0  0  0  0  0  0  0
  152.6156  144.9802  158.9605 H   0  0  0  0  0  0  0  0  0  0  0  0
  153.5717  142.4874  159.9105 H   0  0  0  0  0  0  0  0  0  0  0  0
  152.2170  143.3855  160.6025 H   0  0  0  0  0  0  0  0  0  0  0  0
  152.5873  137.5278  159.6312 H   0  0  0  0  0  0  0  0  0  0  0  0
  146.2962  137.8553  158.2863 H   0  0  0  0  0  0  0  0  0  0  0  0
  147.0577  135.3790  159.2414 H   0  0  0  0  0  0  0  0  0  0  0  0
  148.5580  135.3576  160.1372 H   0  0  0  0  0  0  0  0  0  0  0  0
  147.5127  136.9901  162.9255 H   0  0  0  0  0  0  0  0  0  0  0  0
  145.9032  138.2895  160.8952 H   0  0  0  0  0  0  0  0  0  0  0  0
  145.2194  136.9365  159.9979 H   0  0  0  0  0  0  0  0  0  0  0  0
  145.0537  137.3272  163.0112 H   0  0  0  0  0  0  0  0  0  0  0  0
  143.7162  137.0852  161.8739 H   0  0  0  0  0  0  0  0  0  0  0  0
  146.7908  135.1666  163.0297 H   0  0  0  0  0  0  0  0  0  0  0  0
  147.5410  133.4906  161.3016 H   0  0  0  0  0  0  0  0  0  0  0  0
  145.9929  133.6811  160.4699 H   0  0  0  0  0  0  0  0  0  0  0  0
  146.0468  133.0194  162.0960 H   0  0  0  0  0  0  0  0  0  0  0  0
  1  2  1  0  0  0  0
  1 27  1  0  0  0  0
  1 28  1  0  0  0  0
  1 29  1  0  0  0  0
  2  3  1  0  0  0  0
  2 30  1  0  0  0  0
  2 31  1  0  0  0  0
  3  4  1  0  0  0  0
  3 10  1  0  0  0  0
  4  5  1  0  0  0  0
  4 32  1  0  0  0  0
  4 33  1  0  0  0  0
  5  9  1  0  0  0  0
  5  6  1  0  0  0  0
  5 34  1  0  0  0  0
  6  7  1  0  0  0  0
  6 35  1  0  0  0  0
  6 36  1  0  0  0  0
  7  8  1  0  0  0  0
  7 37  1  0  0  0  0
  7 38  1  0  0  0  0
  8  9  1  0  0  0  0
  8 39  1  0  0  0  0
  8 40  1  0  0  0  0
 10 15  1  0  0  0  0
 10 11  2  0  0  0  0
 11 12  1  0  0  0  0
 12 13  2  0  0  0  0
 12 41  1  0  0  0  0
 13 14  1  0  0  0  0
 14 18  1  0  0  0  0
 14 15  2  0  0  0  0
 15 16  1  0  0  0  0
 16 17  2  0  0  0  0
 17 18  1  0  0  0  0
 17 42  1  0  0  0  0
 18 19  1  0  0  0  0
 19 20  1  0  0  0  0
 19 43  1  0  0  0  0
 19 44  1  0  0  0  0
 20 25  1  0  0  0  0
 20 21  1  0  0  0  0
 20 22  1  0  0  0  0
 21 45  1  0  0  0  0
 22 23  1  0  0  0  0
 22 46  1  0  0  0  0
 22 47  1  0  0  0  0
 23 24  1  0  0  0  0
 23 48  1  0  0  0  0
 23 49  1  0  0  0  0
 24 25  1  0  0  0  0
 25 26  1  0  0  0  0
 25 50  1  0  0  0  0
 26 51  1  0  0  0  0
 26 52  1  0  0  0  0
 26 53  1  0  0  0  0
M  END
> <s_m_source_file>
AV-unprocessed.smi

> <i_m_source_file_index>
15

> <i_lp_mmshare_version>
43012

> <i_f3d_flags>
0

> <s_epik_input>
TzFbQ0gyXVtDSDJdW0NIMl1bQ0BIXTFbQ0gyXU4oW0NIMl1bQ0gzXSljKG5bY0hdbjIpYyhjMjMpbltjSF1uM1tDSDJdW0NAQF00KFtPSF0pW0NIMl1bQ0gyXU9bQ0BIXTRbQ0gzXQ==

> <s_epik_cmdline>
J2VwaWtfcHl0aG9uJywgJy1waCcsICc3LjAnLCAnLXRuJywgJzgnLCAnLW1hJywgJzIwMCcsICctbWV0YWxfYmluZGluZycsICctaW1hZScsICc8aW5maWxlLm1hZT4nLCAnLW9tYWUnLCAnPG91dGZpbGUubWFlPic=

> <r_lp_tautomer_probability>
1

> <r_epik_Ionization_Penalty>
0.00360814

> <r_epik_Ionization_Penalty_Charging>
0

> <r_epik_Ionization_Penalty_Neutral>
0.00360814

> <r_epik_State_Penalty>
0.00237482

> <r_epik_Charging_Adjusted_Penalty>
0.00237482

> <i_epik_Tot_Q>
0

> <i_epik_Tot_abs_Q>
0

> <r_epik_Metal_State_Penalty>
-0

> <b_epik_Metal_Only>
0

> <s_lp_Force_Field>
OPLS_2005

> <r_lp_Energy>
46.4206

> <b_lp_Chiralities_Consistent>
1

> <s_lp_Variant>
AV-unprocessed.smi:15-1

> <Gold.Version>
5.8.1

> <Gold.Id.Protein>
6NUR|6NUR_protein|mol2

> <Gold.PLP.Fitness>
52.1598

> <Gold.PLP.PLP>
-48.2708

> <Gold.PLP.part.hbond>
-1.9592

> <Gold.PLP.part.metal>
0.0000

> <Gold.PLP.part.buried>
-8.2955

> <Gold.PLP.part.nonpolar>
-39.6585

> <Gold.PLP.part.repulsive>
0.0000

> <Gold.PLP.ligand.clash>
0.0000

> <Gold.PLP.ligand.torsion>
1.2835

> <Gold.PLP.Chemscore.Hbond>
2.0000

> <Gold.PLP.Chemscore.CHOScore>
0.0000

> <Gold.PLP.Chemscore.Metal>
0.0000

> <Gold.Chemscore.Hbonds>
donor molecule, donor type, donor heavy atom, donor atom, acceptor molecule, acceptor atom, score
      P1  H  6896  6907       L1    13  0.78
      P1  H  6931  6943       L1    21  1.00
      P1  H  6934  6947       L1    21  0.10

> <Gold.PLP.Chemscore.Internal.Correction>
0.4559

> <Gold.Rescore>
     Score         DG    S(hbond)    S(metal)    S(lipo)     H(rot)  DE(clash)    DE(int)     intcor
     16.23     -17.56       1.84        0.00     109.92       2.71       0.02       1.31       ----

> <Gold.Chemscore.Fitness>
16.2282

> <Gold.Chemscore.DG>
-17.5595

> <Gold.Chemscore.ZeroCoef>
-5.4800

> <Gold.Chemscore.Hbond>
1.8411

> <Gold.Chemscore.Metal>
0.0000

> <Gold.Chemscore.Lipo>
109.9248

> <Gold.Chemscore.Internal_Hbond>
0.0000

> <Gold.Chemscore.DEClash>
0.0222

> <Gold.Chemscore.DEInternal>
1.3091

> <Gold.Chemscore.Rot>
2.7074

> <Gold.Chemscore.Internal.Correction>
   9.000000E+99

> <Gold.Chemscore.Hbonds>
donor molecule, donor type, donor heavy atom, donor atom, acceptor molecule, acceptor atom, score
      P1  H  6896  6907       L1    13  0.60
      P1  H  6931  6943       L1    21  0.73

> <Gold.Chemscore.Hbond.Weighted>
-6.1491

> <Gold.Chemscore.Metal.Weighted>
-0.0000

> <Gold.Chemscore.Lipo.Weighted>
-12.8612

> <Gold.Chemscore.Internal_Hbond.Weighted>
0.0000

> <Gold.Chemscore.DEClash.Weighted>
0.0222

> <Gold.Chemscore.DEInternal.Weighted>
1.3091

> <Gold.Chemscore.Rot.Weighted>
6.9308

> <Gold.Chemscore.Internal.Correction.Weighted>
   9.000000E+99

> <Gold.Protein.RotatedTorsions>
[ 6907 6896 6895 6894 ] final  -26.39 input  -60.11 | X-H torsion
[ 7974 7965 7964 7962 ] final  136.82 input  175.53 | X-H torsion
[ 8008 7997 7996 7995 ] final  156.97 input   59.86 | X-H torsion
[ 10167 10162 10161 10158 ] final  114.40 input  -65.29 | X-H torsion
[ 10718 10713 10712 10709 ] final  148.87 input   66.30 | X-H torsion
[ 10763 10752 10751 10750 ] final   44.02 input  -60.55 | X-H torsion
[ 11005 11000 10999 10996 ] final   29.40 input  -57.11 | X-H torsion

> <Gold.Protein.ActiveResidues>
 VAL166  LYS551  ARG553  GLY616  TRP617  ASP618  TYR619  PRO620  LYS621  CYS622 
 ASP623  PHE694  ASN695  SER759  ASP760  ASP761  ALA762  ILE779  LEU786  VAL792 
 PHE793  MET794  SER795  GLU796  ALA797  LYS798  CYS799  TRP800  GLU811  SER814 

> <Gold.Protein.RotatedAtoms>
  151.1617  135.0276  159.8712 H   0  0  0  0  0  0  0  0  0  0  0  0  # atno 6907 bound_to 6896
  152.5451  134.1271  159.8433 H   0  0  0  0  0  0  0  0  0  0  0  0  # atno 6908 bound_to 6896
  151.1367  133.4953  159.2630 H   0  0  0  0  0  0  0  0  0  0  0  0  # atno 6909 bound_to 6896
  144.9527  139.4800  143.5518 H   0  0  0  0  0  0  0  0  0  0  0  0  # atno 7974 bound_to 7965
  156.2391  140.1898  156.7037 H   0  0  0  0  0  0  0  0  0  0  0  0  # atno 8008 bound_to 7997
  154.6163  140.0615  156.9585 H   0  0  0  0  0  0  0  0  0  0  0  0  # atno 8009 bound_to 7997
  155.1933  140.3286  155.4357 H   0  0  0  0  0  0  0  0  0  0  0  0  # atno 8010 bound_to 7997
  139.6391  144.7122  151.2273 H   0  0  0  0  0  0  0  0  0  0  0  0  # atno 10167 bound_to 10162
  157.3032  131.0874  151.1374 H   0  0  0  0  0  0  0  0  0  0  0  0  # atno 10718 bound_to 10713
  152.9849  135.6083  154.3205 H   0  0  0  0  0  0  0  0  0  0  0  0  # atno 10763 bound_to 10752
  154.2915  135.2774  155.2654 H   0  0  0  0  0  0  0  0  0  0  0  0  # atno 10764 bound_to 10752
  154.4947  135.5883  153.6542 H   0  0  0  0  0  0  0  0  0  0  0  0  # atno 10765 bound_to 10752
  140.3053  134.2710  155.7745 H   0  0  0  0  0  0  0  0  0  0  0  0  # atno 11005 bound_to 11000
  146.3326  139.8624  142.8854 LP  0  0  0  0  0  0  0  0  0  0  0  0  # atno 17320 bound_to 7965
  145.2819  141.0141  143.3712 LP  0  0  0  0  0  0  0  0  0  0  0  0  # atno 17321 bound_to 7965
  140.7481  143.6343  150.8394 LP  0  0  0  0  0  0  0  0  0  0  0  0  # atno 17342 bound_to 10162
  139.9978  143.5777  152.2887 LP  0  0  0  0  0  0  0  0  0  0  0  0  # atno 17343 bound_to 10162
  157.2725  130.6711  149.6026 LP  0  0  0  0  0  0  0  0  0  0  0  0  # atno 17370 bound_to 10713
  155.9673  130.4475  150.5582 LP  0  0  0  0  0  0  0  0  0  0  0  0  # atno 17371 bound_to 10713
  141.2119  133.7673  156.9828 LP  0  0  0  0  0  0  0  0  0  0  0  0  # atno 17394 bound_to 11000
  140.1072  134.9499  157.2012 LP  0  0  0  0  0  0  0  0  0  0  0  0  # atno 17395 bound_to 11000

$$$$
