AV-unprocessed.smi:2387|AV-procd|sdf|9469|dock1
  -GOLD-   2272013 93D 1   1.00000     0.00000
 Structure written by MMmdl.
 47 49  0  0  0  0  0  0  0  0  1 V2000
  144.2512  132.0363  149.9159 C   0  0  0  0  0  0  0  0  0  0  0  0
  144.5913  133.3810  150.5239 C   0  0  0  0  0  0  0  0  0  0  0  0
  145.3671  133.4699  151.6979 C   0  0  0  0  0  0  0  0  0  0  0  0
  145.6520  134.7456  152.2220 C   0  0  0  0  0  0  0  0  0  0  0  0
  145.1433  135.8875  151.5569 C   0  0  0  0  0  0  0  0  0  0  0  0
  145.3742  137.2265  151.9732 N   0  0  0  0  0  0  0  0  0  0  0  0
  146.1368  137.6686  152.9874 C   0  0  0  0  0  0  0  0  0  0  0  0
  146.7685  136.9549  153.7658 O   0  0  0  0  0  0  0  0  0  0  0  0
  146.1157  139.0113  153.0569 N   0  0  0  0  0  0  0  0  0  0  0  0
  146.7905  139.8740  154.0439 C   0  0  0  0  0  0  0  0  0  0  0  0
  148.0554  139.2147  154.6608 C   0  0  0  0  0  0  0  0  0  0  0  0
  148.1245  139.0432  155.8787 O   0  0  0  0  0  0  0  0  0  0  0  0
  149.0569  138.8687  153.8336 N   0  0  0  0  0  0  0  0  0  0  0  0
  150.3160  138.2615  154.2431 C   0  0  0  0  0  0  0  0  0  0  0  0
  151.2180  139.1584  155.0695 C   0  0  0  0  0  0  0  0  0  0  0  0
  152.6806  138.8310  155.2560 C   0  0  0  0  0  0  0  0  0  0  0  0
  151.7243  138.7032  156.4177 C   0  0  0  0  0  0  0  0  0  0  0  0
  147.1974  141.1999  153.3391 C   0  0  0  0  0  0  0  0  0  0  0  0
  146.3886  142.3314  153.9810 C   0  0  0  0  0  0  0  0  0  0  0  0
  146.0452  141.8199  155.3724 C   0  0  0  0  0  0  0  0  0  0  0  0
  145.7968  140.3295  155.1516 C   0  0  0  0  0  0  0  0  0  0  0  0
  144.3905  135.6824  150.3816 C   0  0  0  0  0  0  0  0  0  0  0  0
  144.1124  134.4631  149.8732 N   0  0  0  0  0  0  0  0  0  0  0  0
  144.7112  131.2211  150.4751 H   0  0  0  0  0  0  0  0  0  0  0  0
  144.6057  131.9840  148.8860 H   0  0  0  0  0  0  0  0  0  0  0  0
  143.1718  131.8826  149.9164 H   0  0  0  0  0  0  0  0  0  0  0  0
  145.7413  132.5826  152.1869 H   0  0  0  0  0  0  0  0  0  0  0  0
  146.2618  134.8203  153.1088 H   0  0  0  0  0  0  0  0  0  0  0  0
  144.8508  137.9297  151.4723 H   0  0  0  0  0  0  0  0  0  0  0  0
  145.5629  139.4950  152.3647 H   0  0  0  0  0  0  0  0  0  0  0  0
  148.9325  139.0384  152.8463 H   0  0  0  0  0  0  0  0  0  0  0  0
  150.1153  137.3501  154.8085 H   0  0  0  0  0  0  0  0  0  0  0  0
  150.8477  137.9500  153.3433 H   0  0  0  0  0  0  0  0  0  0  0  0
  150.9680  140.2156  155.0005 H   0  0  0  0  0  0  0  0  0  0  0  0
  153.0559  137.9116  154.8110 H   0  0  0  0  0  0  0  0  0  0  0  0
  153.3825  139.6626  155.2702 H   0  0  0  0  0  0  0  0  0  0  0  0
  151.7895  139.4490  157.2074 H   0  0  0  0  0  0  0  0  0  0  0  0
  151.4647  137.6985  156.7452 H   0  0  0  0  0  0  0  0  0  0  0  0
  148.2601  141.4151  153.4677 H   0  0  0  0  0  0  0  0  0  0  0  0
  147.0283  141.1741  152.2615 H   0  0  0  0  0  0  0  0  0  0  0  0
  146.9324  143.2762  154.0039 H   0  0  0  0  0  0  0  0  0  0  0  0
  145.4695  142.4909  153.4155 H   0  0  0  0  0  0  0  0  0  0  0  0
  146.8941  141.9629  156.0421 H   0  0  0  0  0  0  0  0  0  0  0  0
  145.1852  142.3296  155.8075 H   0  0  0  0  0  0  0  0  0  0  0  0
  144.7650  140.2033  154.8193 H   0  0  0  0  0  0  0  0  0  0  0  0
  145.8910  139.7641  156.0803 H   0  0  0  0  0  0  0  0  0  0  0  0
  143.9929  136.5231  149.8320 H   0  0  0  0  0  0  0  0  0  0  0  0
  1  2  1  0  0  0  0
  1 24  1  0  0  0  0
  1 25  1  0  0  0  0
  1 26  1  0  0  0  0
  2 23  1  0  0  0  0
  2  3  2  0  0  0  0
  3  4  1  0  0  0  0
  3 27  1  0  0  0  0
  4  5  2  0  0  0  0
  4 28  1  0  0  0  0
  5  6  1  0  0  0  0
  5 22  1  0  0  0  0
  6  7  1  0  0  0  0
  6 29  1  0  0  0  0
  7  8  2  0  0  0  0
  7  9  1  0  0  0  0
  9 10  1  0  0  0  0
  9 30  1  0  0  0  0
 10 21  1  0  0  0  0
 10 11  1  0  0  0  0
 10 18  1  0  0  0  0
 11 12  2  0  0  0  0
 11 13  1  0  0  0  0
 13 14  1  0  0  0  0
 13 31  1  0  0  0  0
 14 15  1  0  0  0  0
 14 32  1  0  0  0  0
 14 33  1  0  0  0  0
 15 17  1  0  0  0  0
 15 16  1  0  0  0  0
 15 34  1  0  0  0  0
 16 17  1  0  0  0  0
 16 35  1  0  0  0  0
 16 36  1  0  0  0  0
 17 37  1  0  0  0  0
 17 38  1  0  0  0  0
 18 19  1  0  0  0  0
 18 39  1  0  0  0  0
 18 40  1  0  0  0  0
 19 20  1  0  0  0  0
 19 41  1  0  0  0  0
 19 42  1  0  0  0  0
 20 21  1  0  0  0  0
 20 43  1  0  0  0  0
 20 44  1  0  0  0  0
 21 45  1  0  0  0  0
 21 46  1  0  0  0  0
 22 23  2  0  0  0  0
 22 47  1  0  0  0  0
M  END
> <s_m_source_file>
AV-unprocessed.smi

> <i_m_source_file_index>
2387

> <i_lp_mmshare_version>
43012

> <i_f3d_flags>
0

> <s_epik_input>
W0NIM11jMVtjSF1bY0hdYyhbY0hdbjEpW05IXUMoPU8pW05IXUMyKFtDSDJdW0NIMl1bQ0gyXVtDSDJdMilDKD1PKVtOSF1bQ0gyXVtDSF0zW0NIMl1bQ0gyXTM=

> <s_epik_cmdline>
J2VwaWtfcHl0aG9uJywgJy1waCcsICc3LjAnLCAnLXRuJywgJzgnLCAnLW1hJywgJzIwMCcsICctbWV0YWxfYmluZGluZycsICctaW1hZScsICc8aW5maWxlLm1hZT4nLCAnLW9tYWUnLCAnPG91dGZpbGUubWFlPic=

> <r_epik_Ionization_Penalty>
0.0173464

> <r_epik_Ionization_Penalty_Charging>
0

> <r_epik_Ionization_Penalty_Neutral>
0.0173464

> <r_epik_State_Penalty>
0.0137159

> <r_epik_Charging_Adjusted_Penalty>
0.0137159

> <i_epik_Tot_Q>
0

> <i_epik_Tot_abs_Q>
0

> <r_epik_Metal_State_Penalty>
0.0133255

> <b_epik_Metal_Only>
0

> <s_lp_Force_Field>
OPLS_2005

> <r_lp_Energy>
29.6161

> <b_lp_Chiralities_Consistent>
1

> <s_lp_Variant>
AV-unprocessed.smi:2387-1

> <Gold.Version>
5.8.1

> <Gold.Id.Protein>
6NUR|6NUR_protein|mol2

> <Gold.PLP.Fitness>
47.6980

> <Gold.PLP.PLP>
-38.5522

> <Gold.PLP.part.hbond>
-3.1806

> <Gold.PLP.part.metal>
0.0000

> <Gold.PLP.part.buried>
-5.0206

> <Gold.PLP.part.nonpolar>
-33.3571

> <Gold.PLP.part.repulsive>
2.3913

> <Gold.PLP.ligand.clash>
0.0000

> <Gold.PLP.ligand.torsion>
0.9983

> <Gold.PLP.Chemscore.Hbond>
2.4934

> <Gold.PLP.Chemscore.CHOScore>
0.9996

> <Gold.PLP.Chemscore.Metal>
0.0000

> <Gold.Chemscore.Hbonds>
donor molecule, donor type, donor heavy atom, donor atom, acceptor molecule, acceptor atom, score
      L1  H     6    29       P1 10171  0.99
      L1  H     9    30       P1 10175  0.51
      L1  H    13    31       P1  7957  0.86
      L1  C    22    47       P1 10171  1.00

> <Gold.PLP.Chemscore.Internal.Correction>
0.6637

> <Gold.Rescore>
     Score         DG    S(hbond)    S(metal)    S(lipo)     H(rot)  DE(clash)    DE(int)     intcor
     14.16     -20.45       2.32        0.00      96.49       1.59       1.54       4.75       ----

> <Gold.Chemscore.Fitness>
14.1560

> <Gold.Chemscore.DG>
-20.4510

> <Gold.Chemscore.ZeroCoef>
-5.4800

> <Gold.Chemscore.Hbond>
2.3243

> <Gold.Chemscore.Metal>
0.0000

> <Gold.Chemscore.Lipo>
96.4862

> <Gold.Chemscore.Internal_Hbond>
0.0000

> <Gold.Chemscore.DEClash>
1.5443

> <Gold.Chemscore.DEInternal>
4.7508

> <Gold.Chemscore.Rot>
1.5941

> <Gold.Chemscore.Internal.Correction>
   9.000000E+99

> <Gold.Chemscore.Hbonds>
donor molecule, donor type, donor heavy atom, donor atom, acceptor molecule, acceptor atom, score
      L1  H     6    29       P1 10171  0.89
      L1  H     9    30       P1 10175  0.51
      L1  H    13    31       P1  7957  0.79

> <Gold.Chemscore.Hbond.Weighted>
-7.7631

> <Gold.Chemscore.Metal.Weighted>
-0.0000

> <Gold.Chemscore.Lipo.Weighted>
-11.2889

> <Gold.Chemscore.Internal_Hbond.Weighted>
0.0000

> <Gold.Chemscore.DEClash.Weighted>
1.5443

> <Gold.Chemscore.DEInternal.Weighted>
4.7508

> <Gold.Chemscore.Rot.Weighted>
4.0809

> <Gold.Chemscore.Internal.Correction.Weighted>
   9.000000E+99

> <Gold.Protein.RotatedTorsions>
[ 6907 6896 6895 6894 ] final   11.88 input  -60.11 | X-H torsion
[ 7974 7965 7964 7962 ] final  -34.52 input  175.53 | X-H torsion
[ 8008 7997 7996 7995 ] final  -54.47 input   59.86 | X-H torsion
[ 10167 10162 10161 10158 ] final    2.30 input  -65.29 | X-H torsion
[ 10718 10713 10712 10709 ] final  155.31 input   66.30 | X-H torsion
[ 10763 10752 10751 10750 ] final  -69.49 input  -60.55 | X-H torsion
[ 11005 11000 10999 10996 ] final  -33.85 input  -57.11 | X-H torsion

> <Gold.Protein.ActiveResidues>
 VAL166  LYS551  ARG553  GLY616  TRP617  ASP618  TYR619  PRO620  LYS621  CYS622 
 ASP623  PHE694  ASN695  SER759  ASP760  ASP761  ALA762  ILE779  LEU786  VAL792 
 PHE793  MET794  SER795  GLU796  ALA797  LYS798  CYS799  TRP800  GLU811  SER814 

> <Gold.Protein.RotatedAtoms>
  151.7613  135.0809  160.0345 H   0  0  0  0  0  0  0  0  0  0  0  0  # atno 6907 bound_to 6896
  152.3351  133.5998  159.5845 H   0  0  0  0  0  0  0  0  0  0  0  0  # atno 6908 bound_to 6896
  150.7445  133.9725  159.3592 H   0  0  0  0  0  0  0  0  0  0  0  0  # atno 6909 bound_to 6896
  146.0822  140.6049  142.8903 H   0  0  0  0  0  0  0  0  0  0  0  0  # atno 7974 bound_to 7965
  154.4164  140.1175  156.5321 H   0  0  0  0  0  0  0  0  0  0  0  0  # atno 8008 bound_to 7997
  155.6595  140.3496  155.4758 H   0  0  0  0  0  0  0  0  0  0  0  0  # atno 8009 bound_to 7997
  155.9725  140.1144  157.0789 H   0  0  0  0  0  0  0  0  0  0  0  0  # atno 8010 bound_to 7997
  140.6642  143.7225  150.7795 H   0  0  0  0  0  0  0  0  0  0  0  0  # atno 10167 bound_to 10162
  157.2201  131.0716  151.1917 H   0  0  0  0  0  0  0  0  0  0  0  0  # atno 10718 bound_to 10713
  154.4042  135.6024  153.5915 H   0  0  0  0  0  0  0  0  0  0  0  0  # atno 10763 bound_to 10752
  152.9789  135.5914  154.4148 H   0  0  0  0  0  0  0  0  0  0  0  0  # atno 10764 bound_to 10752
  154.3951  135.2842  155.2109 H   0  0  0  0  0  0  0  0  0  0  0  0  # atno 10765 bound_to 10752
  140.9668  133.7132  156.1458 H   0  0  0  0  0  0  0  0  0  0  0  0  # atno 11005 bound_to 11000
  144.7301  140.4646  143.6944 LP  0  0  0  0  0  0  0  0  0  0  0  0  # atno 17320 bound_to 7965
  145.6196  139.1522  143.3030 LP  0  0  0  0  0  0  0  0  0  0  0  0  # atno 17321 bound_to 7965
  140.0899  143.4888  152.2484 LP  0  0  0  0  0  0  0  0  0  0  0  0  # atno 17342 bound_to 10162
  139.5885  144.7540  151.3460 LP  0  0  0  0  0  0  0  0  0  0  0  0  # atno 17343 bound_to 10162
  157.3585  130.7119  149.6486 LP  0  0  0  0  0  0  0  0  0  0  0  0  # atno 17370 bound_to 10713
  155.9683  130.4232  150.4553 LP  0  0  0  0  0  0  0  0  0  0  0  0  # atno 17371 bound_to 10713
  140.7387  134.4174  157.5557 LP  0  0  0  0  0  0  0  0  0  0  0  0  # atno 17394 bound_to 11000
  139.8897  134.8822  156.2405 LP  0  0  0  0  0  0  0  0  0  0  0  0  # atno 17395 bound_to 11000

$$$$
