AV-unprocessed.smi:3257|AV-procd|sdf|12467|dock5
  -GOLD-   2272018363D 1   1.00000     0.00000
 Structure written by MMmdl.
 38 39  0  0  0  0  0  0  0  0  1 V2000
  150.9058  145.1517  159.2241 C   0  0  0  0  0  0  0  0  0  0  0  0
  151.6965  144.1163  159.8545 N   0  0  0  0  0  0  0  0  0  0  0  0
  152.4592  143.1349  159.2592 C   0  0  0  0  0  0  0  0  0  0  0  0
  153.0216  142.3902  160.2576 C   0  0  0  0  0  0  0  0  0  0  0  0
  153.9400  141.2060  160.1442 C   0  0  0  0  0  0  0  0  0  0  0  0
  153.1616  139.9151  159.8427 C   0  0  0  0  0  0  0  0  0  0  0  0
  152.6457  139.9067  158.4791 N   0  0  0  0  0  0  0  0  0  0  0  0
  151.5783  139.2089  158.0548 C   0  0  0  0  0  0  0  0  0  0  0  0
  150.9212  138.4954  158.8142 O   0  0  0  0  0  0  0  0  0  0  0  0
  151.2813  139.3671  156.7395 N   0  0  0  0  0  0  0  0  0  0  0  0
  152.1052  140.0645  155.7352 C   0  0  0  0  0  0  0  0  0  0  0  0
  152.7417  139.0191  154.8010 C   0  0  0  0  0  0  0  0  0  0  0  0
  151.6558  138.1443  154.1436 C   0  0  0  0  0  0  0  0  0  0  0  0
  152.2596  137.0947  153.4175 O   0  0  0  0  0  0  0  0  0  0  0  0
  150.6848  137.5650  155.1917 C   0  0  0  0  0  0  0  0  0  0  0  0
  150.1463  138.6774  156.1106 C   0  0  0  0  0  0  0  0  0  0  0  0
  152.5293  143.0040  161.4447 C   0  0  0  0  0  0  0  0  0  0  0  0
  151.7372  144.0354  161.2004 N   0  0  0  0  0  0  0  0  0  0  0  0
  151.1461  145.2099  158.1621 H   0  0  0  0  0  0  0  0  0  0  0  0
  151.1172  146.1164  159.6873 H   0  0  0  0  0  0  0  0  0  0  0  0
  149.8458  144.9236  159.3368 H   0  0  0  0  0  0  0  0  0  0  0  0
  152.5402  143.0488  158.1856 H   0  0  0  0  0  0  0  0  0  0  0  0
  154.6814  141.3747  159.3622 H   0  0  0  0  0  0  0  0  0  0  0  0
  154.5077  141.0769  161.0665 H   0  0  0  0  0  0  0  0  0  0  0  0
  153.8162  139.0505  159.9563 H   0  0  0  0  0  0  0  0  0  0  0  0
  152.3457  139.7827  160.5558 H   0  0  0  0  0  0  0  0  0  0  0  0
  153.1360  140.4744  157.8037 H   0  0  0  0  0  0  0  0  0  0  0  0
  151.4691  140.7377  155.1588 H   0  0  0  0  0  0  0  0  0  0  0  0
  152.8817  140.6999  156.1607 H   0  0  0  0  0  0  0  0  0  0  0  0
  153.3392  139.5154  154.0356 H   0  0  0  0  0  0  0  0  0  0  0  0
  153.4276  138.3939  155.3750 H   0  0  0  0  0  0  0  0  0  0  0  0
  151.0894  138.7549  153.4394 H   0  0  0  0  0  0  0  0  0  0  0  0
  151.7963  136.9881  152.6006 H   0  0  0  0  0  0  0  0  0  0  0  0
  149.8578  137.0551  154.6968 H   0  0  0  0  0  0  0  0  0  0  0  0
  151.1950  136.8141  155.7973 H   0  0  0  0  0  0  0  0  0  0  0  0
  149.4526  138.2540  156.8381 H   0  0  0  0  0  0  0  0  0  0  0  0
  149.5631  139.3940  155.5306 H   0  0  0  0  0  0  0  0  0  0  0  0
  152.7239  142.7313  162.4714 H   0  0  0  0  0  0  0  0  0  0  0  0
  1  2  1  0  0  0  0
  1 19  1  0  0  0  0
  1 20  1  0  0  0  0
  1 21  1  0  0  0  0
  2 18  1  0  0  0  0
  2  3  1  0  0  0  0
  3  4  2  0  0  0  0
  3 22  1  0  0  0  0
  4  5  1  0  0  0  0
  4 17  1  0  0  0  0
  5  6  1  0  0  0  0
  5 23  1  0  0  0  0
  5 24  1  0  0  0  0
  6  7  1  0  0  0  0
  6 25  1  0  0  0  0
  6 26  1  0  0  0  0
  7  8  1  0  0  0  0
  7 27  1  0  0  0  0
  8  9  2  0  0  0  0
  8 10  1  0  0  0  0
 10 16  1  0  0  0  0
 10 11  1  0  0  0  0
 11 12  1  0  0  0  0
 11 28  1  0  0  0  0
 11 29  1  0  0  0  0
 12 13  1  0  0  0  0
 12 30  1  0  0  0  0
 12 31  1  0  0  0  0
 13 14  1  0  0  0  0
 13 15  1  0  0  0  0
 13 32  1  0  0  0  0
 14 33  1  0  0  0  0
 15 16  1  0  0  0  0
 15 34  1  0  0  0  0
 15 35  1  0  0  0  0
 16 36  1  0  0  0  0
 16 37  1  0  0  0  0
 17 18  2  0  0  0  0
 17 38  1  0  0  0  0
M  END
> <s_m_source_file>
AV-unprocessed.smi

> <i_m_source_file_index>
3257

> <i_lp_mmshare_version>
43012

> <i_f3d_flags>
0

> <s_epik_input>
W0NIM11uMVtjSF1jKFtjSF1uMSlbQ0gyXVtDSDJdW05IXUMoPU8pTjJbQ0gyXVtDSDJdW0NIXShbT0hdKVtDSDJdW0NIMl0y

> <s_epik_cmdline>
J2VwaWtfcHl0aG9uJywgJy1waCcsICc3LjAnLCAnLXRuJywgJzgnLCAnLW1hJywgJzIwMCcsICctbWV0YWxfYmluZGluZycsICctaW1hZScsICc8aW5maWxlLm1hZT4nLCAnLW9tYWUnLCAnPG91dGZpbGUubWFlPic=

> <r_lp_tautomer_probability>
1

> <r_epik_Ionization_Penalty>
0.000563034

> <r_epik_Ionization_Penalty_Charging>
0

> <r_epik_Ionization_Penalty_Neutral>
0.000563034

> <r_epik_State_Penalty>
-0

> <r_epik_Charging_Adjusted_Penalty>
0

> <i_epik_Tot_Q>
0

> <i_epik_Tot_abs_Q>
0

> <r_epik_Metal_State_Penalty>
-0

> <b_epik_Metal_Only>
0

> <s_lp_Force_Field>
OPLS_2005

> <r_lp_Energy>
25.1646

> <b_lp_Chiralities_Consistent>
1

> <s_lp_Variant>
AV-unprocessed.smi:3257-1

> <Gold.Version>
5.8.1

> <Gold.Id.Protein>
6NUR|6NUR_protein|mol2

> <Gold.PLP.Fitness>
47.0449

> <Gold.PLP.PLP>
-42.0178

> <Gold.PLP.part.hbond>
-1.5593

> <Gold.PLP.part.metal>
0.0000

> <Gold.PLP.part.buried>
-4.6535

> <Gold.PLP.part.nonpolar>
-34.5361

> <Gold.PLP.part.repulsive>
0.2241

> <Gold.PLP.ligand.clash>
0.0000

> <Gold.PLP.ligand.torsion>
0.5062

> <Gold.PLP.Chemscore.Hbond>
2.0000

> <Gold.PLP.Chemscore.CHOScore>
0.0000

> <Gold.PLP.Chemscore.Metal>
0.0000

> <Gold.Chemscore.Hbonds>
donor molecule, donor type, donor heavy atom, donor atom, acceptor molecule, acceptor atom, score
      L1  H    14    33       P1  7949  0.98
      P1  H 10752 10763       L1    14  1.00

> <Gold.PLP.Chemscore.Internal.Correction>
0.0395

> <Gold.Rescore>
     Score         DG    S(hbond)    S(metal)    S(lipo)     H(rot)  DE(clash)    DE(int)     intcor
     17.71     -18.32       1.79        0.00     101.21       1.95       0.09       0.51       ----

> <Gold.Chemscore.Fitness>
17.7097

> <Gold.Chemscore.DG>
-18.3164

> <Gold.Chemscore.ZeroCoef>
-5.4800

> <Gold.Chemscore.Hbond>
1.7890

> <Gold.Chemscore.Metal>
0.0000

> <Gold.Chemscore.Lipo>
101.2068

> <Gold.Chemscore.Internal_Hbond>
0.0000

> <Gold.Chemscore.DEClash>
0.0936

> <Gold.Chemscore.DEInternal>
0.5131

> <Gold.Chemscore.Rot>
1.9454

> <Gold.Chemscore.Internal.Correction>
   9.000000E+99

> <Gold.Chemscore.Hbonds>
donor molecule, donor type, donor heavy atom, donor atom, acceptor molecule, acceptor atom, score
      L1  H    14    33       P1  7949  0.92
      P1  H 10752 10763       L1    14  0.75

> <Gold.Chemscore.Hbond.Weighted>
-5.9754

> <Gold.Chemscore.Metal.Weighted>
-0.0000

> <Gold.Chemscore.Lipo.Weighted>
-11.8412

> <Gold.Chemscore.Internal_Hbond.Weighted>
0.0000

> <Gold.Chemscore.DEClash.Weighted>
0.0936

> <Gold.Chemscore.DEInternal.Weighted>
0.5131

> <Gold.Chemscore.Rot.Weighted>
4.9802

> <Gold.Chemscore.Internal.Correction.Weighted>
   9.000000E+99

> <Gold.Protein.RotatedTorsions>
[ 6907 6896 6895 6894 ] final  -33.16 input  -60.11 | X-H torsion
[ 7974 7965 7964 7962 ] final   20.70 input  175.53 | X-H torsion
[ 8008 7997 7996 7995 ] final -163.73 input   59.86 | X-H torsion
[ 10167 10162 10161 10158 ] final   97.42 input  -65.29 | X-H torsion
[ 10718 10713 10712 10709 ] final -160.03 input   66.30 | X-H torsion
[ 10763 10752 10751 10750 ] final    4.33 input  -60.55 | X-H torsion
[ 11005 11000 10999 10996 ] final    6.03 input  -57.11 | X-H torsion

> <Gold.Protein.ActiveResidues>
 VAL166  LYS551  ARG553  GLY616  TRP617  ASP618  TYR619  PRO620  LYS621  CYS622 
 ASP623  PHE694  ASN695  SER759  ASP760  ASP761  ALA762  ILE779  LEU786  VAL792 
 PHE793  MET794  SER795  GLU796  ALA797  LYS798  CYS799  TRP800  GLU811  SER814 

> <Gold.Protein.RotatedAtoms>
  151.0692  134.9787  159.8299 H   0  0  0  0  0  0  0  0  0  0  0  0  # atno 6907 bound_to 6896
  152.5406  134.2321  159.8839 H   0  0  0  0  0  0  0  0  0  0  0  0  # atno 6908 bound_to 6896
  151.2344  133.4389  159.2638 H   0  0  0  0  0  0  0  0  0  0  0  0  # atno 6909 bound_to 6896
  146.2101  139.8132  142.8695 H   0  0  0  0  0  0  0  0  0  0  0  0  # atno 7974 bound_to 7965
  155.8255  140.0926  157.1824 H   0  0  0  0  0  0  0  0  0  0  0  0  # atno 8008 bound_to 7997
  154.3979  140.1429  156.3611 H   0  0  0  0  0  0  0  0  0  0  0  0  # atno 8009 bound_to 7997
  155.8221  140.3446  155.5523 H   0  0  0  0  0  0  0  0  0  0  0  0  # atno 8010 bound_to 7997
  139.7802  144.6891  151.0033 H   0  0  0  0  0  0  0  0  0  0  0  0  # atno 10167 bound_to 10162
  156.5764  130.8710  151.2852 H   0  0  0  0  0  0  0  0  0  0  0  0  # atno 10718 bound_to 10713
  153.2725  135.6933  153.7466 H   0  0  0  0  0  0  0  0  0  0  0  0  # atno 10763 bound_to 10752
  153.6484  135.3381  155.3093 H   0  0  0  0  0  0  0  0  0  0  0  0  # atno 10764 bound_to 10752
  154.8469  135.4448  154.1753 H   0  0  0  0  0  0  0  0  0  0  0  0  # atno 10765 bound_to 10752
  140.5640  134.0165  155.7982 H   0  0  0  0  0  0  0  0  0  0  0  0  # atno 11005 bound_to 11000
  145.3174  141.0235  143.3520 LP  0  0  0  0  0  0  0  0  0  0  0  0  # atno 17320 bound_to 7965
  144.8892  139.4798  143.6686 LP  0  0  0  0  0  0  0  0  0  0  0  0  # atno 17321 bound_to 7965
  140.7818  143.4491  151.0439 LP  0  0  0  0  0  0  0  0  0  0  0  0  # atno 17342 bound_to 10162
  139.8172  143.7870  152.3175 LP  0  0  0  0  0  0  0  0  0  0  0  0  # atno 17343 bound_to 10162
  157.7336  130.9734  150.1989 LP  0  0  0  0  0  0  0  0  0  0  0  0  # atno 17370 bound_to 10713
  156.2670  130.3717  149.8071 LP  0  0  0  0  0  0  0  0  0  0  0  0  # atno 17371 bound_to 10713
  141.1097  133.9636  157.2933 LP  0  0  0  0  0  0  0  0  0  0  0  0  # atno 17394 bound_to 11000
  139.9394  135.0193  156.8659 LP  0  0  0  0  0  0  0  0  0  0  0  0  # atno 17395 bound_to 11000

$$$$
