AV-unprocessed.smi:2007|AV-procd|sdf|8134|dock6
  -GOLD-   2272010373D 1   1.00000     0.00000
 Structure written by MMmdl.
 36 37  0  0  0  0  0  0  0  0  1 V2000
  150.2577  133.2426  155.3857 C   0  0  0  0  0  0  0  0  0  0  0  0
  149.8582  134.6792  155.0234 C   0  0  1  0  0  0  0  0  0  0  0  0
  151.1050  135.5609  154.7913 C   0  0  0  0  0  0  0  0  0  0  0  0
  150.9559  136.9752  155.1376 N   0  0  0  0  0  0  0  0  0  0  0  0
  152.1874  137.7375  154.9412 C   0  0  0  0  0  0  0  0  0  0  0  0
  152.0038  139.2216  155.3021 C   0  0  0  0  0  0  0  0  0  0  0  0
  150.9388  139.7726  154.5340 O   0  0  0  0  0  0  0  0  0  0  0  0
  149.7084  139.0826  154.7276 C   0  0  0  0  0  0  0  0  0  0  0  0
  149.8878  137.5983  154.3643 C   0  0  0  0  0  0  0  0  0  0  0  0
  149.0258  134.6511  153.8216 N   0  0  0  0  0  0  0  0  0  0  0  0
  147.9780  133.8403  153.6106 C   0  0  0  0  0  0  0  0  0  0  0  0
  147.6008  132.9877  154.4151 O   0  0  0  0  0  0  0  0  0  0  0  0
  147.4063  134.0888  152.4193 N   0  0  0  0  0  0  0  0  0  0  0  0
  146.2695  133.4633  151.8437 C   0  0  0  0  0  0  0  0  0  0  0  0
  145.1802  134.1166  151.4222 N   0  0  0  0  0  0  0  0  0  0  0  0
  144.2190  133.2494  150.8968 C   0  0  0  0  0  0  0  0  0  0  0  0
  144.5956  131.9296  150.9266 C   0  0  0  0  0  0  0  0  0  0  0  0
  146.1818  131.7223  151.6200 S   0  0  0  0  0  0  0  0  0  0  0  0
  150.8632  133.2214  156.2921 H   0  0  0  0  0  0  0  0  0  0  0  0
  150.8372  132.7765  154.5880 H   0  0  0  0  0  0  0  0  0  0  0  0
  149.3777  132.6237  155.5646 H   0  0  0  0  0  0  0  0  0  0  0  0
  149.2869  135.0650  155.8681 H   0  0  0  0  0  0  0  0  0  0  0  0
  151.9496  135.1436  155.3416 H   0  0  0  0  0  0  0  0  0  0  0  0
  151.3734  135.4827  153.7367 H   0  0  0  0  0  0  0  0  0  0  0  0
  152.9913  137.3300  155.5522 H   0  0  0  0  0  0  0  0  0  0  0  0
  152.5124  137.6554  153.9031 H   0  0  0  0  0  0  0  0  0  0  0  0
  151.7917  139.3351  156.3665 H   0  0  0  0  0  0  0  0  0  0  0  0
  152.9180  139.7782  155.0961 H   0  0  0  0  0  0  0  0  0  0  0  0
  149.3818  139.1899  155.7632 H   0  0  0  0  0  0  0  0  0  0  0  0
  148.9419  139.5370  154.1001 H   0  0  0  0  0  0  0  0  0  0  0  0
  150.1031  137.5109  153.2982 H   0  0  0  0  0  0  0  0  0  0  0  0
  148.9490  137.0711  154.5372 H   0  0  0  0  0  0  0  0  0  0  0  0
  149.2567  135.3186  153.1007 H   0  0  0  0  0  0  0  0  0  0  0  0
  147.8278  134.8178  151.8629 H   0  0  0  0  0  0  0  0  0  0  0  0
  143.2924  133.6579  150.5219 H   0  0  0  0  0  0  0  0  0  0  0  0
  144.0381  131.0706  150.5836 H   0  0  0  0  0  0  0  0  0  0  0  0
  1  2  1  0  0  0  0
  1 19  1  0  0  0  0
  1 20  1  0  0  0  0
  1 21  1  0  0  0  0
  2  3  1  0  0  0  0
  2 10  1  0  0  0  0
  2 22  1  0  0  0  0
  3  4  1  0  0  0  0
  3 23  1  0  0  0  0
  3 24  1  0  0  0  0
  4  9  1  0  0  0  0
  4  5  1  0  0  0  0
  5  6  1  0  0  0  0
  5 25  1  0  0  0  0
  5 26  1  0  0  0  0
  6  7  1  0  0  0  0
  6 27  1  0  0  0  0
  6 28  1  0  0  0  0
  7  8  1  0  0  0  0
  8  9  1  0  0  0  0
  8 29  1  0  0  0  0
  8 30  1  0  0  0  0
  9 31  1  0  0  0  0
  9 32  1  0  0  0  0
 10 11  1  0  0  0  0
 10 33  1  0  0  0  0
 11 12  2  0  0  0  0
 11 13  1  0  0  0  0
 13 14  1  0  0  0  0
 13 34  1  0  0  0  0
 14 18  1  0  0  0  0
 14 15  2  0  0  0  0
 15 16  1  0  0  0  0
 16 17  2  0  0  0  0
 16 35  1  0  0  0  0
 17 18  1  0  0  0  0
 17 36  1  0  0  0  0
M  END
> <s_m_source_file>
AV-unprocessed.smi

> <i_m_source_file_index>
2007

> <i_lp_mmshare_version>
43012

> <i_f3d_flags>
0

> <s_epik_input>
W0NIMl0xW0NIMl1PW0NIMl1bQ0gyXU4xW0NIMl1bQ0BASF0oW0NIM10pW05IXUMoPU8pW05IXWMybltjSF1bY0hdczI=

> <s_epik_cmdline>
J2VwaWtfcHl0aG9uJywgJy1waCcsICc3LjAnLCAnLXRuJywgJzgnLCAnLW1hJywgJzIwMCcsICctbWV0YWxfYmluZGluZycsICctaW1hZScsICc8aW5maWxlLm1hZT4nLCAnLW9tYWUnLCAnPG91dGZpbGUubWFlPic=

> <r_lp_tautomer_probability>
0.999

> <r_epik_Ionization_Penalty>
0.219197

> <r_epik_Ionization_Penalty_Charging>
0

> <r_epik_Ionization_Penalty_Neutral>
0.219197

> <r_epik_State_Penalty>
0.209349

> <r_epik_Charging_Adjusted_Penalty>
0.209349

> <i_epik_Tot_Q>
0

> <i_epik_Tot_abs_Q>
0

> <r_epik_Metal_State_Penalty>
0.254604

> <b_epik_Metal_Only>
0

> <s_lp_Force_Field>
OPLS_2005

> <r_lp_Energy>
23.7512

> <b_lp_Chiralities_Consistent>
1

> <s_lp_Variant>
AV-unprocessed.smi:2007-2

> <Gold.Version>
5.8.1

> <Gold.Id.Protein>
6NUR|6NUR_protein|mol2

> <Gold.PLP.Fitness>
37.3141

> <Gold.PLP.PLP>
-27.3574

> <Gold.PLP.part.hbond>
-3.0000

> <Gold.PLP.part.metal>
0.0000

> <Gold.PLP.part.buried>
-2.4253

> <Gold.PLP.part.nonpolar>
-22.3885

> <Gold.PLP.part.repulsive>
0.3934

> <Gold.PLP.ligand.clash>
0.0000

> <Gold.PLP.ligand.torsion>
1.0165

> <Gold.PLP.Chemscore.Hbond>
2.9920

> <Gold.PLP.Chemscore.CHOScore>
1.0000

> <Gold.PLP.Chemscore.Metal>
0.0000

> <Gold.Chemscore.Hbonds>
donor molecule, donor type, donor heavy atom, donor atom, acceptor molecule, acceptor atom, score
      L1  H    10    33       P1  7948  0.74
      L1  H    13    34       P1  7948  0.94
      P1  H  7989  7998       L1     7  1.00
      L1  C    16    35       P1 10186  0.84

> <Gold.PLP.Chemscore.Internal.Correction>
0.0137

> <Gold.Rescore>
     Score         DG    S(hbond)    S(metal)    S(lipo)     H(rot)  DE(clash)    DE(int)     intcor
     15.42     -18.02       2.83        0.00      60.94       1.58       0.01       2.58       ----

> <Gold.Chemscore.Fitness>
15.4231

> <Gold.Chemscore.DG>
-18.0150

> <Gold.Chemscore.ZeroCoef>
-5.4800

> <Gold.Chemscore.Hbond>
2.8312

> <Gold.Chemscore.Metal>
0.0000

> <Gold.Chemscore.Lipo>
60.9405

> <Gold.Chemscore.Internal_Hbond>
0.0000

> <Gold.Chemscore.DEClash>
0.0149

> <Gold.Chemscore.DEInternal>
2.5770

> <Gold.Chemscore.Rot>
1.5825

> <Gold.Chemscore.Internal.Correction>
   9.000000E+99

> <Gold.Chemscore.Hbonds>
donor molecule, donor type, donor heavy atom, donor atom, acceptor molecule, acceptor atom, score
      L1  H    10    33       P1  7948  0.09
      L1  H    13    34       P1  7948  0.36
      P1  H  7989  7998       L1     7  0.55

> <Gold.Chemscore.Hbond.Weighted>
-9.4562

> <Gold.Chemscore.Metal.Weighted>
-0.0000

> <Gold.Chemscore.Lipo.Weighted>
-7.1300

> <Gold.Chemscore.Internal_Hbond.Weighted>
0.0000

> <Gold.Chemscore.DEClash.Weighted>
0.0149

> <Gold.Chemscore.DEInternal.Weighted>
2.5770

> <Gold.Chemscore.Rot.Weighted>
4.0512

> <Gold.Chemscore.Internal.Correction.Weighted>
   9.000000E+99

> <Gold.Protein.RotatedTorsions>
[ 6907 6896 6895 6894 ] final   61.17 input  -60.11 | X-H torsion
[ 7974 7965 7964 7962 ] final  -28.63 input  175.53 | X-H torsion
[ 8008 7997 7996 7995 ] final  -65.66 input   59.86 | X-H torsion
[ 10167 10162 10161 10158 ] final  128.46 input  -65.29 | X-H torsion
[ 10718 10713 10712 10709 ] final -154.20 input   66.30 | X-H torsion
[ 10763 10752 10751 10750 ] final -144.46 input  -60.55 | X-H torsion
[ 11005 11000 10999 10996 ] final  120.83 input  -57.11 | X-H torsion

> <Gold.Protein.ActiveResidues>
 VAL166  LYS551  ARG553  GLY616  TRP617  ASP618  TYR619  PRO620  LYS621  CYS622 
 ASP623  PHE694  ASN695  SER759  ASP760  ASP761  ALA762  ILE779  LEU786  VAL792 
 PHE793  MET794  SER795  GLU796  ALA797  LYS798  CYS799  TRP800  GLU811  SER814 

> <Gold.Protein.RotatedAtoms>
  152.4066  134.6196  160.0047 H   0  0  0  0  0  0  0  0  0  0  0  0  # atno 6907 bound_to 6896
  151.6386  133.3322  159.3133 H   0  0  0  0  0  0  0  0  0  0  0  0  # atno 6908 bound_to 6896
  150.7960  134.7062  159.6622 H   0  0  0  0  0  0  0  0  0  0  0  0  # atno 6909 bound_to 6896
  146.1274  140.5307  142.8708 H   0  0  0  0  0  0  0  0  0  0  0  0  # atno 7974 bound_to 7965
  154.4685  140.0928  156.7084 H   0  0  0  0  0  0  0  0  0  0  0  0  # atno 8008 bound_to 7997
  155.4789  140.3467  155.4318 H   0  0  0  0  0  0  0  0  0  0  0  0  # atno 8009 bound_to 7997
  156.0999  140.1419  156.9470 H   0  0  0  0  0  0  0  0  0  0  0  0  # atno 8010 bound_to 7997
  139.5526  144.6825  151.4278 H   0  0  0  0  0  0  0  0  0  0  0  0  # atno 10167 bound_to 10162
  156.4961  130.8370  151.2590 H   0  0  0  0  0  0  0  0  0  0  0  0  # atno 10718 bound_to 10713
  154.8427  135.3439  154.6350 H   0  0  0  0  0  0  0  0  0  0  0  0  # atno 10763 bound_to 10752
  153.6960  135.6972  153.5081 H   0  0  0  0  0  0  0  0  0  0  0  0  # atno 10764 bound_to 10752
  153.2559  135.4338  155.0799 H   0  0  0  0  0  0  0  0  0  0  0  0  # atno 10765 bound_to 10752
  139.9201  134.9636  156.7866 H   0  0  0  0  0  0  0  0  0  0  0  0  # atno 11005 bound_to 11000
  144.7656  140.5523  143.6705 LP  0  0  0  0  0  0  0  0  0  0  0  0  # atno 17320 bound_to 7965
  145.5335  139.1475  143.3487 LP  0  0  0  0  0  0  0  0  0  0  0  0  # atno 17321 bound_to 7965
  140.6792  143.8120  150.7099 LP  0  0  0  0  0  0  0  0  0  0  0  0  # atno 17342 bound_to 10162
  140.1568  143.4309  152.2094 LP  0  0  0  0  0  0  0  0  0  0  0  0  # atno 17343 bound_to 10162
  157.7468  130.9997  150.2899 LP  0  0  0  0  0  0  0  0  0  0  0  0  # atno 17370 bound_to 10713
  156.3378  130.3810  149.7435 LP  0  0  0  0  0  0  0  0  0  0  0  0  # atno 17371 bound_to 10713
  140.6501  133.9739  155.7751 LP  0  0  0  0  0  0  0  0  0  0  0  0  # atno 17394 bound_to 11000
  141.0714  134.0200  157.3521 LP  0  0  0  0  0  0  0  0  0  0  0  0  # atno 17395 bound_to 11000

$$$$
