AV-unprocessed.smi:153|AV-procd|sdf|1252|dock7
  -GOLD-   2262018483D 1   1.00000     0.00000
 Structure written by MMmdl.
 60 63  0  0  0  0  0  0  0  0  2 V2000
  151.9857  138.9602  158.5309 C   0  0  0  0  0  0  0  0  0  0  0  0
  152.6435  140.3035  158.1695 C   0  0  2  0  0  0  0  0  0  0  0  0
  153.8182  140.5002  158.9543 O   0  0  0  0  0  0  0  0  0  0  0  0
  153.6644  141.6498  159.7720 C   0  0  0  0  0  0  0  0  0  0  0  0
  152.7540  142.5585  158.9572 C   0  0  0  0  0  0  0  0  0  0  0  0
  151.7705  141.5743  158.3404 C   0  0  2  0  0  0  0  0  0  0  0  0
  150.7304  141.3485  159.2790 O   0  0  0  0  0  0  0  0  0  0  0  0
  151.1448  142.1054  157.0268 C   0  0  0  0  0  0  0  0  0  0  0  0
  150.0058  141.3226  156.5744 N   0  0  0  0  0  0  0  0  0  0  0  0
  148.7175  141.3905  157.0530 C   0  0  0  0  0  0  0  0  0  0  0  0
  147.8609  140.6128  156.4511 N   0  0  0  0  0  0  0  0  0  0  0  0
  148.6182  139.9341  155.5026 C   0  0  0  0  0  0  0  0  0  0  0  0
  148.3259  138.9745  154.4880 C   0  0  0  0  0  0  0  0  0  0  0  0
  147.0871  138.4951  154.2103 N   0  0  0  0  0  0  0  0  0  0  0  0
  146.0886  138.4655  155.2714 C   0  0  0  0  0  0  0  0  0  0  0  0
  146.6371  138.5267  152.8172 C   0  0  0  0  0  0  0  0  0  0  0  0
  146.7031  137.1491  152.1202 C   0  0  2  0  0  0  0  0  0  0  0  0
  146.4759  137.3707  150.7429 O   0  0  0  0  0  0  0  0  0  0  0  0
  145.6382  136.1485  152.6290 C   0  0  0  0  0  0  0  0  0  0  0  0
  145.5000  134.9405  151.7761 N   0  3  0  0  0  0  0  0  0  0  0  0
  146.8011  134.3289  151.3996 C   0  0  0  0  0  0  0  0  0  0  0  0
  146.5864  133.0719  150.5397 C   0  0  0  0  0  0  0  0  0  0  0  0
  145.7586  132.1496  151.2352 O   0  0  0  0  0  0  0  0  0  0  0  0
  144.4714  132.6922  151.4980 C   0  0  0  0  0  0  0  0  0  0  0  0
  144.6120  133.9292  152.3999 C   0  0  0  0  0  0  0  0  0  0  0  0
  149.3566  138.5552  153.7093 N   0  0  0  0  0  0  0  0  0  0  0  0
  150.5903  139.0274  153.9065 C   0  0  0  0  0  0  0  0  0  0  0  0
  151.0049  139.9274  154.7989 N   0  0  0  0  0  0  0  0  0  0  0  0
  149.9741  140.3638  155.5773 C   0  0  0  0  0  0  0  0  0  0  0  0
  151.0591  138.8152  157.9765 H   0  0  0  0  0  0  0  0  0  0  0  0
  151.7526  138.9016  159.5944 H   0  0  0  0  0  0  0  0  0  0  0  0
  152.6483  138.1272  158.2952 H   0  0  0  0  0  0  0  0  0  0  0  0
  152.9931  140.2471  157.1383 H   0  0  0  0  0  0  0  0  0  0  0  0
  153.1876  141.3632  160.7104 H   0  0  0  0  0  0  0  0  0  0  0  0
  154.6253  142.1102  160.0024 H   0  0  0  0  0  0  0  0  0  0  0  0
  152.2805  143.3386  159.5548 H   0  0  0  0  0  0  0  0  0  0  0  0
  153.3423  143.0465  158.1788 H   0  0  0  0  0  0  0  0  0  0  0  0
  150.9229  141.8368  160.0650 H   0  0  0  0  0  0  0  0  0  0  0  0
  150.8271  143.1420  157.1472 H   0  0  0  0  0  0  0  0  0  0  0  0
  151.8890  142.1056  156.2293 H   0  0  0  0  0  0  0  0  0  0  0  0
  148.4262  142.0546  157.8535 H   0  0  0  0  0  0  0  0  0  0  0  0
  146.5337  138.1607  156.2193 H   0  0  0  0  0  0  0  0  0  0  0  0
  145.3014  137.7508  155.0301 H   0  0  0  0  0  0  0  0  0  0  0  0
  145.6274  139.4446  155.4015 H   0  0  0  0  0  0  0  0  0  0  0  0
  145.6345  138.9470  152.7311 H   0  0  0  0  0  0  0  0  0  0  0  0
  147.2899  139.2244  152.2909 H   0  0  0  0  0  0  0  0  0  0  0  0
  147.7109  136.7518  152.2280 H   0  0  0  0  0  0  0  0  0  0  0  0
  145.5483  137.3194  150.5721 H   0  0  0  0  0  0  0  0  0  0  0  0
  145.8639  135.8043  153.6359 H   0  0  0  0  0  0  0  0  0  0  0  0
  144.6793  136.6651  152.6995 H   0  0  0  0  0  0  0  0  0  0  0  0
  147.4127  135.0364  150.8419 H   0  0  0  0  0  0  0  0  0  0  0  0
  147.3611  134.0697  152.2984 H   0  0  0  0  0  0  0  0  0  0  0  0
  146.1387  133.3289  149.5781 H   0  0  0  0  0  0  0  0  0  0  0  0
  147.5435  132.5951  150.3270 H   0  0  0  0  0  0  0  0  0  0  0  0
  143.9691  132.9442  150.5626 H   0  0  0  0  0  0  0  0  0  0  0  0
  143.8629  131.9347  151.9922 H   0  0  0  0  0  0  0  0  0  0  0  0
  145.0152  133.6365  153.3705 H   0  0  0  0  0  0  0  0  0  0  0  0
  143.6280  134.3634  152.5811 H   0  0  0  0  0  0  0  0  0  0  0  0
  151.3521  138.6353  153.2488 H   0  0  0  0  0  0  0  0  0  0  0  0
  145.0457  135.2316  150.9222 H   0  0  0  0  0  0  0  0  0  0  0  0
  1  2  1  0  0  0  0
  1 30  1  0  0  0  0
  1 31  1  0  0  0  0
  1 32  1  0  0  0  0
  2  6  1  0  0  0  0
  2  3  1  0  0  0  0
  2 33  1  0  0  0  0
  3  4  1  0  0  0  0
  4  5  1  0  0  0  0
  4 34  1  0  0  0  0
  4 35  1  0  0  0  0
  5  6  1  0  0  0  0
  5 36  1  0  0  0  0
  5 37  1  0  0  0  0
  6  7  1  0  0  0  0
  6  8  1  0  0  0  0
  7 38  1  0  0  0  0
  8  9  1  0  0  0  0
  8 39  1  0  0  0  0
  8 40  1  0  0  0  0
  9 29  1  0  0  0  0
  9 10  1  0  0  0  0
 10 11  2  0  0  0  0
 10 41  1  0  0  0  0
 11 12  1  0  0  0  0
 12 29  2  0  0  0  0
 12 13  1  0  0  0  0
 13 14  1  0  0  0  0
 13 26  2  0  0  0  0
 14 15  1  0  0  0  0
 14 16  1  0  0  0  0
 15 42  1  0  0  0  0
 15 43  1  0  0  0  0
 15 44  1  0  0  0  0
 16 17  1  0  0  0  0
 16 45  1  0  0  0  0
 16 46  1  0  0  0  0
 17 18  1  0  0  0  0
 17 19  1  0  0  0  0
 17 47  1  0  0  0  0
 18 48  1  0  0  0  0
 19 20  1  0  0  0  0
 19 49  1  0  0  0  0
 19 50  1  0  0  0  0
 20 25  1  0  0  0  0
 20 21  1  0  0  0  0
 20 60  1  0  0  0  0
 21 22  1  0  0  0  0
 21 51  1  0  0  0  0
 21 52  1  0  0  0  0
 22 23  1  0  0  0  0
 22 53  1  0  0  0  0
 22 54  1  0  0  0  0
 23 24  1  0  0  0  0
 24 25  1  0  0  0  0
 24 55  1  0  0  0  0
 24 56  1  0  0  0  0
 25 57  1  0  0  0  0
 25 58  1  0  0  0  0
 26 27  1  0  0  0  0
 27 28  2  0  0  0  0
 27 59  1  0  0  0  0
 28 29  1  0  0  0  0
M  CHG  1  20   1
M  END
> <s_m_source_file>
AV-unprocessed.smi

> <i_m_source_file_index>
153

> <i_lp_mmshare_version>
43012

> <i_f3d_flags>
0

> <s_epik_input>
W0NIMl0xW0NIMl1PW0NAQEhdKFtDSDNdKVtDQEBdMShbT0hdKVtDSDJdbihbY0hdbjIpYyhjMjMpbltjSF1uYzNOKFtDSDNdKVtDSDJdW0NASF0oW09IXSlbQ0gyXU40W0NIMl1bQ0gyXU9bQ0gyXVtDSDJdNA==

> <s_epik_cmdline>
J2VwaWtfcHl0aG9uJywgJy1waCcsICc3LjAnLCAnLXRuJywgJzgnLCAnLW1hJywgJzIwMCcsICctbWV0YWxfYmluZGluZycsICctaW1hZScsICc8aW5maWxlLm1hZT4nLCAnLW9tYWUnLCAnPG91dGZpbGUubWFlPic=

> <r_lp_tautomer_probability>
1

> <r_epik_Ionization_Penalty>
0.403509

> <r_epik_Ionization_Penalty_Charging>
0.40072

> <r_epik_Ionization_Penalty_Neutral>
0.00278876

> <r_epik_State_Penalty>
0.400058

> <r_epik_Charging_Adjusted_Penalty>
0.800778

> <i_epik_Tot_Q>
1

> <i_epik_Tot_abs_Q>
1

> <r_epik_Metal_State_Penalty>
0.400321

> <b_epik_Metal_Only>
0

> <s_lp_Force_Field>
OPLS_2005

> <r_lp_Energy>
42.6993

> <b_lp_Chiralities_Consistent>
1

> <s_lp_Variant>
AV-unprocessed.smi:153-3

> <Gold.Version>
5.8.1

> <Gold.Id.Protein>
6NUR|6NUR_protein|mol2

> <Gold.PLP.Fitness>
49.9284

> <Gold.PLP.PLP>
-42.8501

> <Gold.PLP.part.hbond>
-5.0000

> <Gold.PLP.part.metal>
0.0000

> <Gold.PLP.part.buried>
-3.1583

> <Gold.PLP.part.nonpolar>
-36.7597

> <Gold.PLP.part.repulsive>
1.6487

> <Gold.PLP.ligand.clash>
0.0000

> <Gold.PLP.ligand.torsion>
1.4162

> <Gold.PLP.Chemscore.Hbond>
2.7000

> <Gold.PLP.Chemscore.CHOScore>
0.4112

> <Gold.PLP.Chemscore.Metal>
0.0000

> <Gold.Chemscore.Hbonds>
donor molecule, donor type, donor heavy atom, donor atom, acceptor molecule, acceptor atom, score
      L1  H    18    48       P1 10171  0.40
      P1  H  7954  7966       L1    18  1.00
      P1  H  7989  7998       L1    28  0.45

> <Gold.PLP.Chemscore.Internal.Correction>
0.5770

> <Gold.Rescore>
     Score         DG    S(hbond)    S(metal)    S(lipo)     H(rot)  DE(clash)    DE(int)     intcor
      9.49     -13.60       1.91        0.00      94.01       3.62       1.41       2.70       ----

> <Gold.Chemscore.Fitness>
9.4942

> <Gold.Chemscore.DG>
-13.6023

> <Gold.Chemscore.ZeroCoef>
-5.4800

> <Gold.Chemscore.Hbond>
1.9118

> <Gold.Chemscore.Metal>
0.0000

> <Gold.Chemscore.Lipo>
94.0106

> <Gold.Chemscore.Internal_Hbond>
0.0000

> <Gold.Chemscore.DEClash>
1.4099

> <Gold.Chemscore.DEInternal>
2.6982

> <Gold.Chemscore.Rot>
3.6182

> <Gold.Chemscore.Internal.Correction>
   9.000000E+99

> <Gold.Chemscore.Hbonds>
donor molecule, donor type, donor heavy atom, donor atom, acceptor molecule, acceptor atom, score
      L1  H    18    48       P1 10171  0.40
      P1  H  7954  7966       L1    18  0.71
      P1  H  7989  7998       L1    28  0.02

> <Gold.Chemscore.Hbond.Weighted>
-6.3855

> <Gold.Chemscore.Metal.Weighted>
-0.0000

> <Gold.Chemscore.Lipo.Weighted>
-10.9992

> <Gold.Chemscore.Internal_Hbond.Weighted>
0.0000

> <Gold.Chemscore.DEClash.Weighted>
1.4099

> <Gold.Chemscore.DEInternal.Weighted>
2.6982

> <Gold.Chemscore.Rot.Weighted>
9.2625

> <Gold.Chemscore.Internal.Correction.Weighted>
   9.000000E+99

> <Gold.Protein.RotatedTorsions>
[ 6907 6896 6895 6894 ] final -109.61 input  -60.11 | X-H torsion
[ 7974 7965 7964 7962 ] final   41.56 input  175.53 | X-H torsion
[ 8008 7997 7996 7995 ] final   39.76 input   59.86 | X-H torsion
[ 10167 10162 10161 10158 ] final   74.20 input  -65.29 | X-H torsion
[ 10718 10713 10712 10709 ] final  146.84 input   66.30 | X-H torsion
[ 10763 10752 10751 10750 ] final   -9.46 input  -60.55 | X-H torsion
[ 11005 11000 10999 10996 ] final  -23.72 input  -57.11 | X-H torsion

> <Gold.Protein.ActiveResidues>
 VAL166  LYS551  ARG553  GLY616  TRP617  ASP618  TYR619  PRO620  LYS621  CYS622 
 ASP623  PHE694  ASN695  SER759  ASP760  ASP761  ALA762  ILE779  LEU786  VAL792 
 PHE793  MET794  SER795  GLU796  ALA797  LYS798  CYS799  TRP800  GLU811  SER814 

> <Gold.Protein.RotatedAtoms>
  150.7573  133.9504  159.3483 H   0  0  0  0  0  0  0  0  0  0  0  0  # atno 6907 bound_to 6896
  151.7420  135.0850  160.0326 H   0  0  0  0  0  0  0  0  0  0  0  0  # atno 6908 bound_to 6896
  152.3522  133.6156  159.5989 H   0  0  0  0  0  0  0  0  0  0  0  0  # atno 6909 bound_to 6896
  146.0813  139.5401  142.9535 H   0  0  0  0  0  0  0  0  0  0  0  0  # atno 7974 bound_to 7965
  155.2419  140.3346  155.4291 H   0  0  0  0  0  0  0  0  0  0  0  0  # atno 8008 bound_to 7997
  156.2252  140.1826  156.7425 H   0  0  0  0  0  0  0  0  0  0  0  0  # atno 8009 bound_to 7997
  154.5887  140.0641  156.9194 H   0  0  0  0  0  0  0  0  0  0  0  0  # atno 8010 bound_to 7997
  140.0162  144.5575  150.7618 H   0  0  0  0  0  0  0  0  0  0  0  0  # atno 10167 bound_to 10162
  157.3283  131.0916  151.1184 H   0  0  0  0  0  0  0  0  0  0  0  0  # atno 10718 bound_to 10713
  153.4550  135.7015  153.6085 H   0  0  0  0  0  0  0  0  0  0  0  0  # atno 10763 bound_to 10752
  153.4403  135.3781  155.2224 H   0  0  0  0  0  0  0  0  0  0  0  0  # atno 10764 bound_to 10752
  154.8728  135.3972  154.3968 H   0  0  0  0  0  0  0  0  0  0  0  0  # atno 10765 bound_to 10752
  140.8778  133.7675  156.0265 H   0  0  0  0  0  0  0  0  0  0  0  0  # atno 11005 bound_to 11000
  145.6212  141.0322  143.1913 LP  0  0  0  0  0  0  0  0  0  0  0  0  # atno 17320 bound_to 7965
  144.7295  139.7769  143.7352 LP  0  0  0  0  0  0  0  0  0  0  0  0  # atno 17321 bound_to 7965
  140.7361  143.2749  151.3773 LP  0  0  0  0  0  0  0  0  0  0  0  0  # atno 17342 bound_to 10162
  139.6171  144.0982  152.2355 LP  0  0  0  0  0  0  0  0  0  0  0  0  # atno 17343 bound_to 10162
  157.2442  130.6583  149.5903 LP  0  0  0  0  0  0  0  0  0  0  0  0  # atno 17370 bound_to 10713
  155.9693  130.4559  150.5904 LP  0  0  0  0  0  0  0  0  0  0  0  0  # atno 17371 bound_to 10713
  140.8497  134.2969  157.5280 LP  0  0  0  0  0  0  0  0  0  0  0  0  # atno 17394 bound_to 11000
  139.8717  134.9461  156.3928 LP  0  0  0  0  0  0  0  0  0  0  0  0  # atno 17395 bound_to 11000

$$$$
