AV-unprocessed.smi:3259|AV-procd|sdf|12474|dock9
  -GOLD-   2272018373D 1   1.00000     0.00000
 Structure written by MMmdl.
 39 40  0  0  0  0  0  0  0  0  1 V2000
  147.6617  138.5420  155.3061 C   0  0  0  0  0  0  0  0  0  0  0  0
  149.0091  138.9751  155.4477 O   0  0  0  0  0  0  0  0  0  0  0  0
  149.2250  140.3254  155.8807 C   0  0  1  0  0  0  0  0  0  0  0  0
  148.5980  141.3132  154.8886 C   0  0  0  0  0  0  0  0  0  0  0  0
  148.9117  140.4596  157.3833 C   0  0  0  0  0  0  0  0  0  0  0  0
  150.3213  139.9343  157.6475 C   0  0  2  0  0  0  0  0  0  0  0  0
  150.9583  140.5839  158.7877 N   0  0  0  0  0  0  0  0  0  0  0  0
  152.2688  140.5146  159.0665 C   0  0  0  0  0  0  0  0  0  0  0  0
  153.0777  139.9036  158.3687 O   0  0  0  0  0  0  0  0  0  0  0  0
  152.7417  141.2544  160.3190 C   0  0  0  0  0  0  0  0  0  0  0  0
  152.5032  142.6830  160.2111 N   0  0  0  0  0  0  0  0  0  0  0  0
  152.0470  143.5522  161.1806 C   0  0  0  0  0  0  0  0  0  0  0  0
  151.9871  144.7949  160.6178 C   0  0  0  0  0  0  0  0  0  0  0  0
  152.4320  144.5831  159.2831 C   0  0  0  0  0  0  0  0  0  0  0  0
  152.7390  143.3186  159.0423 N   0  0  0  0  0  0  0  0  0  0  0  0
  150.7341  140.4876  156.2591 C   0  0  0  0  0  0  0  0  0  0  0  0
  151.7341  139.6374  155.4674 C   0  0  0  0  0  0  0  0  0  0  0  0
  151.2891  141.9243  156.2249 C   0  0  0  0  0  0  0  0  0  0  0  0
  147.6520  137.4675  155.1246 H   0  0  0  0  0  0  0  0  0  0  0  0
  147.1745  139.0158  154.4543 H   0  0  0  0  0  0  0  0  0  0  0  0
  147.0674  138.7307  156.1994 H   0  0  0  0  0  0  0  0  0  0  0  0
  148.8432  142.3458  155.1343 H   0  0  0  0  0  0  0  0  0  0  0  0
  147.5098  141.2543  154.8864 H   0  0  0  0  0  0  0  0  0  0  0  0
  148.9464  141.1272  153.8725 H   0  0  0  0  0  0  0  0  0  0  0  0
  148.7649  141.4956  157.6945 H   0  0  0  0  0  0  0  0  0  0  0  0
  148.1180  139.8211  157.7696 H   0  0  0  0  0  0  0  0  0  0  0  0
  150.3406  138.8427  157.6932 H   0  0  0  0  0  0  0  0  0  0  0  0
  150.3629  141.1109  159.4095 H   0  0  0  0  0  0  0  0  0  0  0  0
  152.2273  140.8688  161.2005 H   0  0  0  0  0  0  0  0  0  0  0  0
  153.8085  141.0839  160.4709 H   0  0  0  0  0  0  0  0  0  0  0  0
  151.8074  143.2180  162.1791 H   0  0  0  0  0  0  0  0  0  0  0  0
  151.6742  145.7150  161.0884 H   0  0  0  0  0  0  0  0  0  0  0  0
  152.5401  145.3052  158.4874 H   0  0  0  0  0  0  0  0  0  0  0  0
  152.7495  139.7537  155.8478 H   0  0  0  0  0  0  0  0  0  0  0  0
  151.7430  139.9125  154.4122 H   0  0  0  0  0  0  0  0  0  0  0  0
  151.5013  138.5739  155.5238 H   0  0  0  0  0  0  0  0  0  0  0  0
  152.2858  141.9810  156.6638 H   0  0  0  0  0  0  0  0  0  0  0  0
  150.6596  142.6227  156.7761 H   0  0  0  0  0  0  0  0  0  0  0  0
  151.3665  142.2984  155.2035 H   0  0  0  0  0  0  0  0  0  0  0  0
  1  2  1  0  0  0  0
  1 19  1  0  0  0  0
  1 20  1  0  0  0  0
  1 21  1  0  0  0  0
  2  3  1  0  0  0  0
  3 16  1  0  0  0  0
  3  4  1  0  0  0  0
  3  5  1  0  0  0  0
  4 22  1  0  0  0  0
  4 23  1  0  0  0  0
  4 24  1  0  0  0  0
  5  6  1  0  0  0  0
  5 25  1  0  0  0  0
  5 26  1  0  0  0  0
  6  7  1  0  0  0  0
  6 16  1  0  0  0  0
  6 27  1  0  0  0  0
  7  8  1  0  0  0  0
  7 28  1  0  0  0  0
  8  9  2  0  0  0  0
  8 10  1  0  0  0  0
 10 11  1  0  0  0  0
 10 29  1  0  0  0  0
 10 30  1  0  0  0  0
 11 15  1  0  0  0  0
 11 12  1  0  0  0  0
 12 13  2  0  0  0  0
 12 31  1  0  0  0  0
 13 14  1  0  0  0  0
 13 32  1  0  0  0  0
 14 15  2  0  0  0  0
 14 33  1  0  0  0  0
 16 17  1  0  0  0  0
 16 18  1  0  0  0  0
 17 34  1  0  0  0  0
 17 35  1  0  0  0  0
 17 36  1  0  0  0  0
 18 37  1  0  0  0  0
 18 38  1  0  0  0  0
 18 39  1  0  0  0  0
M  END
> <s_m_source_file>
AV-unprocessed.smi

> <i_m_source_file_index>
3259

> <i_lp_mmshare_version>
43012

> <i_f3d_flags>
0

> <s_epik_input>
W0NIM11PW0NAQF0xKFtDSDNdKVtDSDJdW0NASF0oQzEoW0NIM10pW0NIM10pW05IXUMoPU8pW0NIMl1uMltjSF1bY0hdW2NIXW4y

> <s_epik_cmdline>
J2VwaWtfcHl0aG9uJywgJy1waCcsICc3LjAnLCAnLXRuJywgJzgnLCAnLW1hJywgJzIwMCcsICctbWV0YWxfYmluZGluZycsICctaW1hZScsICc8aW5maWxlLm1hZT4nLCAnLW9tYWUnLCAnPG91dGZpbGUubWFlPic=

> <r_lp_tautomer_probability>
1

> <r_epik_Ionization_Penalty>
1.78399e-05

> <r_epik_Ionization_Penalty_Charging>
0

> <r_epik_Ionization_Penalty_Neutral>
1.78399e-05

> <r_epik_State_Penalty>
-0

> <r_epik_Charging_Adjusted_Penalty>
0

> <i_epik_Tot_Q>
0

> <i_epik_Tot_abs_Q>
0

> <r_epik_Metal_State_Penalty>
-0

> <b_epik_Metal_Only>
0

> <s_lp_Force_Field>
OPLS_2005

> <r_lp_Energy>
23.5096

> <b_lp_Chiralities_Consistent>
1

> <s_lp_Variant>
AV-unprocessed.smi:3259-3

> <Gold.Version>
5.8.1

> <Gold.Id.Protein>
6NUR|6NUR_protein|mol2

> <Gold.PLP.Fitness>
37.2501

> <Gold.PLP.PLP>
-34.7981

> <Gold.PLP.part.hbond>
-1.0000

> <Gold.PLP.part.metal>
0.0000

> <Gold.PLP.part.buried>
-4.4183

> <Gold.PLP.part.nonpolar>
-28.4700

> <Gold.PLP.part.repulsive>
0.2189

> <Gold.PLP.ligand.clash>
0.0000

> <Gold.PLP.ligand.torsion>
0.4614

> <Gold.PLP.Chemscore.Hbond>
1.0000

> <Gold.PLP.Chemscore.CHOScore>
0.0000

> <Gold.PLP.Chemscore.Metal>
0.0000

> <Gold.Chemscore.Hbonds>
donor molecule, donor type, donor heavy atom, donor atom, acceptor molecule, acceptor atom, score
      P1  H  7997  8009       L1     9  0.93

> <Gold.PLP.Chemscore.Internal.Correction>
0.3747

> <Gold.Rescore>
     Score         DG    S(hbond)    S(metal)    S(lipo)     H(rot)  DE(clash)    DE(int)     intcor
     13.87     -14.37       1.00        0.00      82.42       1.60       0.01       0.49       ----

> <Gold.Chemscore.Fitness>
13.8704

> <Gold.Chemscore.DG>
-14.3749

> <Gold.Chemscore.ZeroCoef>
-5.4800

> <Gold.Chemscore.Hbond>
0.9994

> <Gold.Chemscore.Metal>
0.0000

> <Gold.Chemscore.Lipo>
82.4186

> <Gold.Chemscore.Internal_Hbond>
0.0000

> <Gold.Chemscore.DEClash>
0.0147

> <Gold.Chemscore.DEInternal>
0.4898

> <Gold.Chemscore.Rot>
1.5962

> <Gold.Chemscore.Internal.Correction>
   9.000000E+99

> <Gold.Chemscore.Hbonds>
donor molecule, donor type, donor heavy atom, donor atom, acceptor molecule, acceptor atom, score
      P1  H  7997  8009       L1     9  0.84

> <Gold.Chemscore.Hbond.Weighted>
-3.3381

> <Gold.Chemscore.Metal.Weighted>
-0.0000

> <Gold.Chemscore.Lipo.Weighted>
-9.6430

> <Gold.Chemscore.Internal_Hbond.Weighted>
0.0000

> <Gold.Chemscore.DEClash.Weighted>
0.0147

> <Gold.Chemscore.DEInternal.Weighted>
0.4898

> <Gold.Chemscore.Rot.Weighted>
4.0862

> <Gold.Chemscore.Internal.Correction.Weighted>
   9.000000E+99

> <Gold.Protein.RotatedTorsions>
[ 6907 6896 6895 6894 ] final   15.27 input  -60.11 | X-H torsion
[ 7974 7965 7964 7962 ] final  -87.71 input  175.53 | X-H torsion
[ 8008 7997 7996 7995 ] final  168.03 input   59.86 | X-H torsion
[ 10167 10162 10161 10158 ] final  150.18 input  -65.29 | X-H torsion
[ 10718 10713 10712 10709 ] final  141.65 input   66.30 | X-H torsion
[ 10763 10752 10751 10750 ] final -110.54 input  -60.55 | X-H torsion
[ 11005 11000 10999 10996 ] final   75.44 input  -57.11 | X-H torsion

> <Gold.Protein.ActiveResidues>
 VAL166  LYS551  ARG553  GLY616  TRP617  ASP618  TYR619  PRO620  LYS621  CYS622 
 ASP623  PHE694  ASN695  SER759  ASP760  ASP761  ALA762  ILE779  LEU786  VAL792 
 PHE793  MET794  SER795  GLU796  ALA797  LYS798  CYS799  TRP800  GLU811  SER814 

> <Gold.Protein.RotatedAtoms>
  151.8155  135.0668  160.0418 H   0  0  0  0  0  0  0  0  0  0  0  0  # atno 6907 bound_to 6896
  152.2989  133.5631  159.5614 H   0  0  0  0  0  0  0  0  0  0  0  0  # atno 6908 bound_to 6896
  150.7264  134.0236  159.3751 H   0  0  0  0  0  0  0  0  0  0  0  0  # atno 6909 bound_to 6896
  145.4629  140.9561  143.1959 H   0  0  0  0  0  0  0  0  0  0  0  0  # atno 7974 bound_to 7965
  156.1582  140.1601  156.8657 H   0  0  0  0  0  0  0  0  0  0  0  0  # atno 8008 bound_to 7997
  154.5135  140.0795  156.8072 H   0  0  0  0  0  0  0  0  0  0  0  0  # atno 8009 bound_to 7997
  155.3760  140.3402  155.4247 H   0  0  0  0  0  0  0  0  0  0  0  0  # atno 8010 bound_to 7997
  139.4853  144.5542  151.7346 H   0  0  0  0  0  0  0  0  0  0  0  0  # atno 10167 bound_to 10162
  157.3896  131.1003  151.0660 H   0  0  0  0  0  0  0  0  0  0  0  0  # atno 10718 bound_to 10713
  154.8253  135.4560  154.0901 H   0  0  0  0  0  0  0  0  0  0  0  0  # atno 10763 bound_to 10752
  153.2220  135.6895  153.7995 H   0  0  0  0  0  0  0  0  0  0  0  0  # atno 10764 bound_to 10752
  153.7409  135.3312  155.3280 H   0  0  0  0  0  0  0  0  0  0  0  0  # atno 10765 bound_to 10752
  139.9344  134.7517  156.1271 H   0  0  0  0  0  0  0  0  0  0  0  0  # atno 11005 bound_to 11000
  144.7991  139.6175  143.7079 LP  0  0  0  0  0  0  0  0  0  0  0  0  # atno 17320 bound_to 7965
  146.2440  139.6060  142.9472 LP  0  0  0  0  0  0  0  0  0  0  0  0  # atno 17321 bound_to 7965
  140.5101  144.1038  150.5993 LP  0  0  0  0  0  0  0  0  0  0  0  0  # atno 17342 bound_to 10162
  140.3960  143.2728  152.0004 LP  0  0  0  0  0  0  0  0  0  0  0  0  # atno 17343 bound_to 10162
  157.1699  130.6262  149.5637 LP  0  0  0  0  0  0  0  0  0  0  0  0  # atno 17370 bound_to 10713
  155.9795  130.4789  150.6718 LP  0  0  0  0  0  0  0  0  0  0  0  0  # atno 17371 bound_to 10713
  141.0950  133.6699  156.2624 LP  0  0  0  0  0  0  0  0  0  0  0  0  # atno 17394 bound_to 11000
  140.6116  134.5453  157.5534 LP  0  0  0  0  0  0  0  0  0  0  0  0  # atno 17395 bound_to 11000

$$$$
