AV-unprocessed.smi:1757|AV-procd|sdf|7075|dock2
  -GOLD-   22720 8293D 1   1.00000     0.00000
 Structure written by MMmdl.
 40 41  0  0  0  0  0  0  0  0  2 V2000
  143.9607  132.4639  151.1183 C   0  0  0  0  0  0  0  0  0  0  0  0
  144.3887  133.8345  151.4714 N   0  3  2  0  0  0  0  0  0  0  0  0
  143.4240  134.5128  152.3724 C   0  0  0  0  0  0  0  0  0  0  0  0
  143.9587  135.8822  152.8242 C   0  0  0  0  0  0  0  0  0  0  0  0
  144.2984  136.7713  151.6164 C   0  0  1  0  0  0  0  0  0  0  0  0
  144.9057  138.0193  152.0716 N   0  0  0  0  0  0  0  0  0  0  0  0
  146.0788  138.1347  152.7108 C   0  0  0  0  0  0  0  0  0  0  0  0
  146.7941  137.1744  152.9959 O   0  0  0  0  0  0  0  0  0  0  0  0
  146.3388  139.4220  153.0037 N   0  0  0  0  0  0  0  0  0  0  0  0
  147.4672  139.9746  153.6314 C   0  0  0  0  0  0  0  0  0  0  0  0
  148.5968  139.2843  153.9367 C   0  0  0  0  0  0  0  0  0  0  0  0
  149.7381  139.9199  154.5754 C   0  0  0  0  0  0  0  0  0  0  0  0
  150.9990  139.1536  154.9424 C   0  0  0  0  0  0  0  0  0  0  0  0
  150.7456  138.3037  155.9372 F   0  0  0  0  0  0  0  0  0  0  0  0
  151.4298  138.4469  153.8976 F   0  0  0  0  0  0  0  0  0  0  0  0
  151.9791  139.9705  155.3288 F   0  0  0  0  0  0  0  0  0  0  0  0
  149.6232  141.2337  154.8407 C   0  0  0  0  0  0  0  0  0  0  0  0
  148.4708  141.9531  154.5165 N   0  0  0  0  0  0  0  0  0  0  0  0
  147.3809  141.4147  153.9249 C   0  0  0  0  0  0  0  0  0  0  0  0
  146.4033  142.1162  153.6667 O   0  0  0  0  0  0  0  0  0  0  0  0
  145.2642  136.0285  150.6777 C   0  0  0  0  0  0  0  0  0  0  0  0
  144.7027  134.6545  150.2747 C   0  0  0  0  0  0  0  0  0  0  0  0
  148.4648  142.9371  154.7431 H   0  0  0  0  0  0  0  0  0  0  0  0
  143.0290  132.4788  150.5512 H   0  0  0  0  0  0  0  0  0  0  0  0
  143.8055  131.8657  152.0168 H   0  0  0  0  0  0  0  0  0  0  0  0
  144.7210  131.9660  150.5157 H   0  0  0  0  0  0  0  0  0  0  0  0
  142.4675  134.6333  151.8607 H   0  0  0  0  0  0  0  0  0  0  0  0
  143.2392  133.8888  153.2477 H   0  0  0  0  0  0  0  0  0  0  0  0
  143.2193  136.3761  153.4560 H   0  0  0  0  0  0  0  0  0  0  0  0
  144.8465  135.7381  153.4420 H   0  0  0  0  0  0  0  0  0  0  0  0
  143.3741  136.9704  151.0705 H   0  0  0  0  0  0  0  0  0  0  0  0
  144.3890  138.8670  151.8870 H   0  0  0  0  0  0  0  0  0  0  0  0
  145.6146  140.0897  152.7812 H   0  0  0  0  0  0  0  0  0  0  0  0
  148.6841  138.2388  153.6900 H   0  0  0  0  0  0  0  0  0  0  0  0
  150.3936  141.8243  155.3145 H   0  0  0  0  0  0  0  0  0  0  0  0
  145.4518  136.6262  149.7847 H   0  0  0  0  0  0  0  0  0  0  0  0
  146.2296  135.8945  151.1683 H   0  0  0  0  0  0  0  0  0  0  0  0
  145.4320  134.1321  149.6544 H   0  0  0  0  0  0  0  0  0  0  0  0
  143.8029  134.7794  149.6700 H   0  0  0  0  0  0  0  0  0  0  0  0
  145.2503  133.7399  151.9901 H   0  0  0  0  0  0  0  0  0  0  0  0
  1  2  1  0  0  0  0
  1 24  1  0  0  0  0
  1 25  1  0  0  0  0
  1 26  1  0  0  0  0
  2 22  1  0  0  0  0
  2  3  1  0  0  0  0
  2 40  1  0  0  0  0
  3  4  1  0  0  0  0
  3 27  1  0  0  0  0
  3 28  1  0  0  0  0
  4  5  1  0  0  0  0
  4 29  1  0  0  0  0
  4 30  1  0  0  0  0
  5  6  1  0  0  0  0
  5 21  1  0  0  0  0
  5 31  1  0  0  0  0
  6  7  1  0  0  0  0
  6 32  1  0  0  0  0
  7  8  2  0  0  0  0
  7  9  1  0  0  0  0
  9 10  1  0  0  0  0
  9 33  1  0  0  0  0
 10 19  1  0  0  0  0
 10 11  2  0  0  0  0
 11 12  1  0  0  0  0
 11 34  1  0  0  0  0
 12 13  1  0  0  0  0
 12 17  2  0  0  0  0
 13 14  1  0  0  0  0
 13 15  1  0  0  0  0
 13 16  1  0  0  0  0
 17 18  1  0  0  0  0
 17 35  1  0  0  0  0
 18 23  1  0  0  0  0
 18 19  1  0  0  0  0
 19 20  2  0  0  0  0
 21 22  1  0  0  0  0
 21 36  1  0  0  0  0
 21 37  1  0  0  0  0
 22 38  1  0  0  0  0
 22 39  1  0  0  0  0
M  CHG  1   2   1
M  END
> <s_m_source_file>
AV-unprocessed.smi

> <i_m_source_file_index>
1757

> <i_lp_mmshare_version>
43012

> <i_f3d_flags>
0

> <s_epik_input>
W0NIM11OMVtDSDJdW0NIMl1bQ0hdKFtDSDJdW0NIMl0xKVtOSF1DKD1PKVtOSF1jMltjSF1jKEMoRikoRilGKVtjSF1bbkhdYzI9Tw==

> <s_epik_cmdline>
J2VwaWtfcHl0aG9uJywgJy1waCcsICc3LjAnLCAnLXRuJywgJzgnLCAnLW1hJywgJzIwMCcsICctbWV0YWxfYmluZGluZycsICctaW1hZScsICc8aW5maWxlLm1hZT4nLCAnLW9tYWUnLCAnPG91dGZpbGUubWFlPic=

> <r_lp_tautomer_probability>
1

> <r_epik_Ionization_Penalty>
0.00859077

> <r_epik_Ionization_Penalty_Charging>
0.00857233

> <r_epik_Ionization_Penalty_Neutral>
1.84472e-05

> <r_epik_State_Penalty>
-0

> <r_epik_Charging_Adjusted_Penalty>
0.00857233

> <i_epik_Tot_Q>
1

> <i_epik_Tot_abs_Q>
1

> <r_epik_Metal_State_Penalty>
0.377538

> <b_epik_Metal_Only>
0

> <s_lp_Force_Field>
OPLS_2005

> <r_lp_Energy>
26.9081

> <b_lp_Chiralities_Consistent>
1

> <s_lp_Variant>
AV-unprocessed.smi:1757-1

> <Gold.Version>
5.8.1

> <Gold.Id.Protein>
6NUR|6NUR_protein|mol2

> <Gold.PLP.Fitness>
44.2234

> <Gold.PLP.PLP>
-37.0010

> <Gold.PLP.part.hbond>
-4.0000

> <Gold.PLP.part.metal>
0.0000

> <Gold.PLP.part.buried>
-2.2459

> <Gold.PLP.part.nonpolar>
-32.8739

> <Gold.PLP.part.repulsive>
3.0849

> <Gold.PLP.ligand.clash>
1.1790

> <Gold.PLP.ligand.torsion>
0.2904

> <Gold.PLP.Chemscore.Hbond>
2.9920

> <Gold.PLP.Chemscore.CHOScore>
0.0000

> <Gold.PLP.Chemscore.Metal>
0.0000

> <Gold.Chemscore.Hbonds>
donor molecule, donor type, donor heavy atom, donor atom, acceptor molecule, acceptor atom, score
      L1  H     6    32       P1 10175  1.00
      L1  H     9    33       P1 10175  0.99
      L1  H    18    23       P1  8028  1.00

> <Gold.PLP.Chemscore.Internal.Correction>
0.0063

> <Gold.Rescore>
     Score         DG    S(hbond)    S(metal)    S(lipo)     H(rot)  DE(clash)    DE(int)     intcor
     16.78     -19.68       2.93        0.00      59.66       1.00       0.40       2.50       ----

> <Gold.Chemscore.Fitness>
16.7760

> <Gold.Chemscore.DG>
-19.6757

> <Gold.Chemscore.ZeroCoef>
-5.4800

> <Gold.Chemscore.Hbond>
2.9269

> <Gold.Chemscore.Metal>
0.0000

> <Gold.Chemscore.Lipo>
59.6575

> <Gold.Chemscore.Internal_Hbond>
0.0000

> <Gold.Chemscore.DEClash>
0.3964

> <Gold.Chemscore.DEInternal>
2.5033

> <Gold.Chemscore.Rot>
1.0000

> <Gold.Chemscore.Internal.Correction>
   9.000000E+99

> <Gold.Chemscore.Hbonds>
donor molecule, donor type, donor heavy atom, donor atom, acceptor molecule, acceptor atom, score
      L1  H     6    32       P1 10175  0.96
      L1  H     9    33       P1 10175  0.88
      L1  H    18    23       P1  8028  0.93

> <Gold.Chemscore.Hbond.Weighted>
-9.7758

> <Gold.Chemscore.Metal.Weighted>
-0.0000

> <Gold.Chemscore.Lipo.Weighted>
-6.9799

> <Gold.Chemscore.Internal_Hbond.Weighted>
0.0000

> <Gold.Chemscore.DEClash.Weighted>
0.3964

> <Gold.Chemscore.DEInternal.Weighted>
2.5033

> <Gold.Chemscore.Rot.Weighted>
2.5600

> <Gold.Chemscore.Internal.Correction.Weighted>
   9.000000E+99

> <Gold.Protein.RotatedTorsions>
[ 6907 6896 6895 6894 ] final  -11.34 input  -60.11 | X-H torsion
[ 7974 7965 7964 7962 ] final  126.52 input  175.53 | X-H torsion
[ 8008 7997 7996 7995 ] final    2.99 input   59.86 | X-H torsion
[ 10167 10162 10161 10158 ] final  -40.81 input  -65.29 | X-H torsion
[ 10718 10713 10712 10709 ] final  -85.92 input   66.30 | X-H torsion
[ 10763 10752 10751 10750 ] final   36.51 input  -60.55 | X-H torsion
[ 11005 11000 10999 10996 ] final   97.68 input  -57.11 | X-H torsion

> <Gold.Protein.ActiveResidues>
 VAL166  LYS551  ARG553  GLY616  TRP617  ASP618  TYR619  PRO620  LYS621  CYS622 
 ASP623  PHE694  ASN695  SER759  ASP760  ASP761  ALA762  ILE779  LEU786  VAL792 
 PHE793  MET794  SER795  GLU796  ALA797  LYS798  CYS799  TRP800  GLU811  SER814 

> <Gold.Protein.RotatedAtoms>
  151.3877  135.0951  159.9516 H   0  0  0  0  0  0  0  0  0  0  0  0  # atno 6907 bound_to 6896
  152.5089  133.9010  159.7451 H   0  0  0  0  0  0  0  0  0  0  0  0  # atno 6908 bound_to 6896
  150.9457  133.6550  159.2810 H   0  0  0  0  0  0  0  0  0  0  0  0  # atno 6909 bound_to 6896
  145.0608  139.3806  143.5007 H   0  0  0  0  0  0  0  0  0  0  0  0  # atno 7974 bound_to 7965
  154.6983  140.2667  155.6745 H   0  0  0  0  0  0  0  0  0  0  0  0  # atno 8008 bound_to 7997
  156.2756  140.2777  156.1508 H   0  0  0  0  0  0  0  0  0  0  0  0  # atno 8009 bound_to 7997
  155.0801  140.0372  157.2626 H   0  0  0  0  0  0  0  0  0  0  0  0  # atno 8010 bound_to 7997
  140.7023  143.3131  151.2976 H   0  0  0  0  0  0  0  0  0  0  0  0  # atno 10167 bound_to 10162
  155.9993  130.4747  150.4636 H   0  0  0  0  0  0  0  0  0  0  0  0  # atno 10718 bound_to 10713
  153.0074  135.6304  154.1996 H   0  0  0  0  0  0  0  0  0  0  0  0  # atno 10763 bound_to 10752
  154.1739  135.2817  155.3074 H   0  0  0  0  0  0  0  0  0  0  0  0  # atno 10764 bound_to 10752
  154.5887  135.5624  153.7316 H   0  0  0  0  0  0  0  0  0  0  0  0  # atno 10765 bound_to 10752
  139.8775  134.9012  156.4343 H   0  0  0  0  0  0  0  0  0  0  0  0  # atno 11005 bound_to 11000
  146.3524  140.0305  142.8651 LP  0  0  0  0  0  0  0  0  0  0  0  0  # atno 17320 bound_to 7965
  145.1411  140.9572  143.4488 LP  0  0  0  0  0  0  0  0  0  0  0  0  # atno 17321 bound_to 7965
  139.6561  144.0273  152.2661 LP  0  0  0  0  0  0  0  0  0  0  0  0  # atno 17342 bound_to 10162
  139.9825  144.6418  150.7887 LP  0  0  0  0  0  0  0  0  0  0  0  0  # atno 17343 bound_to 10162
  157.2658  131.0576  151.2291 LP  0  0  0  0  0  0  0  0  0  0  0  0  # atno 17370 bound_to 10713
  157.3390  130.7023  149.6370 LP  0  0  0  0  0  0  0  0  0  0  0  0  # atno 17371 bound_to 10713
  140.9044  133.7756  155.9718 LP  0  0  0  0  0  0  0  0  0  0  0  0  # atno 17394 bound_to 11000
  140.8615  134.2835  157.5232 LP  0  0  0  0  0  0  0  0  0  0  0  0  # atno 17395 bound_to 11000

$$$$
