AV-unprocessed.smi:1331|AV-procd|sdf|5487|dock7
  -GOLD-   22720 5 63D 1   1.00000     0.00000
 Structure written by MMmdl.
 38 39  0  0  0  0  0  0  0  0  1 V2000
  154.2118  140.1959  161.0062 C   0  0  0  0  0  0  0  0  0  0  0  0
  153.6216  141.3337  160.1598 C   0  0  2  0  0  0  0  0  0  0  0  0
  152.8607  142.3541  161.0278 C   0  0  0  0  0  0  0  0  0  0  0  0
  152.5396  143.5670  160.2953 N   0  0  0  0  0  0  0  0  0  0  0  0
  152.7208  143.8293  158.9538 C   0  0  0  0  0  0  0  0  0  0  0  0
  152.2594  145.0932  158.7212 C   0  0  0  0  0  0  0  0  0  0  0  0
  151.8089  145.5291  159.9986 C   0  0  0  0  0  0  0  0  0  0  0  0
  151.9788  144.6141  160.9390 N   0  0  0  0  0  0  0  0  0  0  0  0
  152.7318  140.7823  159.1407 N   0  0  0  0  0  0  0  0  0  0  0  0
  153.0213  139.7602  158.3214 C   0  0  0  0  0  0  0  0  0  0  0  0
  154.0792  139.1319  158.3706 O   0  0  0  0  0  0  0  0  0  0  0  0
  151.9520  139.3984  157.2825 C   0  0  0  0  0  0  0  0  0  0  0  0
  152.4155  138.2260  156.3915 C   0  0  0  0  0  0  0  0  0  0  0  0
  151.3540  137.8719  155.3373 C   0  0  0  0  0  0  0  0  0  0  0  0
  150.9906  139.0951  154.4809 C   0  0  0  0  0  0  0  0  0  0  0  0
  150.5337  140.2716  155.3580 C   0  0  0  0  0  0  0  0  0  0  0  0
  151.5934  140.6239  156.4149 C   0  0  0  0  0  0  0  0  0  0  0  0
  154.8919  140.5841  161.7645 H   0  0  0  0  0  0  0  0  0  0  0  0
  154.7759  139.4963  160.3880 H   0  0  0  0  0  0  0  0  0  0  0  0
  153.4293  139.6338  161.5169 H   0  0  0  0  0  0  0  0  0  0  0  0
  154.4482  141.8583  159.6764 H   0  0  0  0  0  0  0  0  0  0  0  0
  151.9413  141.9173  161.4217 H   0  0  0  0  0  0  0  0  0  0  0  0
  153.4648  142.6365  161.8908 H   0  0  0  0  0  0  0  0  0  0  0  0
  153.1548  143.1013  158.2842 H   0  0  0  0  0  0  0  0  0  0  0  0
  152.2445  145.6248  157.7816 H   0  0  0  0  0  0  0  0  0  0  0  0
  151.3666  146.4768  160.2683 H   0  0  0  0  0  0  0  0  0  0  0  0
  151.8394  141.2405  159.0238 H   0  0  0  0  0  0  0  0  0  0  0  0
  151.0512  139.0836  157.8132 H   0  0  0  0  0  0  0  0  0  0  0  0
  153.3489  138.4812  155.8869 H   0  0  0  0  0  0  0  0  0  0  0  0
  152.6264  137.3490  157.0048 H   0  0  0  0  0  0  0  0  0  0  0  0
  151.7182  137.0663  154.6992 H   0  0  0  0  0  0  0  0  0  0  0  0
  150.4589  137.4931  155.8325 H   0  0  0  0  0  0  0  0  0  0  0  0
  151.8558  139.3957  153.8889 H   0  0  0  0  0  0  0  0  0  0  0  0
  150.2057  138.8327  153.7710 H   0  0  0  0  0  0  0  0  0  0  0  0
  150.3280  141.1420  154.7342 H   0  0  0  0  0  0  0  0  0  0  0  0
  149.5956  140.0168  155.8524 H   0  0  0  0  0  0  0  0  0  0  0  0
  151.2237  141.4341  157.0451 H   0  0  0  0  0  0  0  0  0  0  0  0
  152.4852  141.0051  155.9144 H   0  0  0  0  0  0  0  0  0  0  0  0
  1  2  1  0  0  0  0
  1 18  1  0  0  0  0
  1 19  1  0  0  0  0
  1 20  1  0  0  0  0
  2  3  1  0  0  0  0
  2  9  1  0  0  0  0
  2 21  1  0  0  0  0
  3  4  1  0  0  0  0
  3 22  1  0  0  0  0
  3 23  1  0  0  0  0
  4  8  1  0  0  0  0
  4  5  1  0  0  0  0
  5  6  2  0  0  0  0
  5 24  1  0  0  0  0
  6  7  1  0  0  0  0
  6 25  1  0  0  0  0
  7  8  2  0  0  0  0
  7 26  1  0  0  0  0
  9 10  1  0  0  0  0
  9 27  1  0  0  0  0
 10 11  2  0  0  0  0
 10 12  1  0  0  0  0
 12 17  1  0  0  0  0
 12 13  1  0  0  0  0
 12 28  1  0  0  0  0
 13 14  1  0  0  0  0
 13 29  1  0  0  0  0
 13 30  1  0  0  0  0
 14 15  1  0  0  0  0
 14 31  1  0  0  0  0
 14 32  1  0  0  0  0
 15 16  1  0  0  0  0
 15 33  1  0  0  0  0
 15 34  1  0  0  0  0
 16 17  1  0  0  0  0
 16 35  1  0  0  0  0
 16 36  1  0  0  0  0
 17 37  1  0  0  0  0
 17 38  1  0  0  0  0
M  END
> <s_m_source_file>
AV-unprocessed.smi

> <i_m_source_file_index>
1331

> <i_lp_mmshare_version>
43012

> <i_f3d_flags>
0

> <s_epik_input>
bjFbY0hdW2NIXVtjSF1uMVtDSDJdW0NAQEhdKFtDSDNdKVtOSF1DKD1PKVtDSF0yW0NIMl1bQ0gyXVtDSDJdW0NIMl1bQ0gyXTI=

> <s_epik_cmdline>
J2VwaWtfcHl0aG9uJywgJy1waCcsICc3LjAnLCAnLXRuJywgJzgnLCAnLW1hJywgJzIwMCcsICctbWV0YWxfYmluZGluZycsICctaW1hZScsICc8aW5maWxlLm1hZT4nLCAnLW9tYWUnLCAnPG91dGZpbGUubWFlPic=

> <r_lp_tautomer_probability>
1

> <r_epik_Ionization_Penalty>
0.000326658

> <r_epik_Ionization_Penalty_Charging>
0

> <r_epik_Ionization_Penalty_Neutral>
0.000326658

> <r_epik_State_Penalty>
-0

> <r_epik_Charging_Adjusted_Penalty>
0

> <i_epik_Tot_Q>
0

> <i_epik_Tot_abs_Q>
0

> <r_epik_Metal_State_Penalty>
-0

> <b_epik_Metal_Only>
0

> <s_lp_Force_Field>
OPLS_2005

> <r_lp_Energy>
10.6365

> <b_lp_Chiralities_Consistent>
1

> <s_lp_Variant>
AV-unprocessed.smi:1331-1

> <Gold.Version>
5.8.1

> <Gold.Id.Protein>
6NUR|6NUR_protein|mol2

> <Gold.PLP.Fitness>
45.0380

> <Gold.PLP.PLP>
-42.4190

> <Gold.PLP.part.hbond>
-1.0000

> <Gold.PLP.part.metal>
0.0000

> <Gold.PLP.part.buried>
-2.8161

> <Gold.PLP.part.nonpolar>
-37.8076

> <Gold.PLP.part.repulsive>
0.2735

> <Gold.PLP.ligand.clash>
0.0000

> <Gold.PLP.ligand.torsion>
0.2076

> <Gold.PLP.Chemscore.Hbond>
1.0000

> <Gold.PLP.Chemscore.CHOScore>
0.0000

> <Gold.PLP.Chemscore.Metal>
0.0000

> <Gold.Chemscore.Hbonds>
donor molecule, donor type, donor heavy atom, donor atom, acceptor molecule, acceptor atom, score
      P1  H  7997  8009       L1    11  1.00

> <Gold.PLP.Chemscore.Internal.Correction>
0.0342

> <Gold.Rescore>
     Score         DG    S(hbond)    S(metal)    S(lipo)     H(rot)  DE(clash)    DE(int)     intcor
     15.27     -16.75       0.77        0.00     106.87       1.49       0.00       1.48       ----

> <Gold.Chemscore.Fitness>
15.2717

> <Gold.Chemscore.DG>
-16.7544

> <Gold.Chemscore.ZeroCoef>
-5.4800

> <Gold.Chemscore.Hbond>
0.7741

> <Gold.Chemscore.Metal>
0.0000

> <Gold.Chemscore.Lipo>
106.8706

> <Gold.Chemscore.Internal_Hbond>
0.0000

> <Gold.Chemscore.DEClash>
0.0042

> <Gold.Chemscore.DEInternal>
1.4785

> <Gold.Chemscore.Rot>
1.4902

> <Gold.Chemscore.Internal.Correction>
   9.000000E+99

> <Gold.Chemscore.Hbonds>
donor molecule, donor type, donor heavy atom, donor atom, acceptor molecule, acceptor atom, score
      P1  H  7997  8009       L1    11  0.30

> <Gold.Chemscore.Hbond.Weighted>
-2.5854

> <Gold.Chemscore.Metal.Weighted>
-0.0000

> <Gold.Chemscore.Lipo.Weighted>
-12.5039

> <Gold.Chemscore.Internal_Hbond.Weighted>
0.0000

> <Gold.Chemscore.DEClash.Weighted>
0.0042

> <Gold.Chemscore.DEInternal.Weighted>
1.4785

> <Gold.Chemscore.Rot.Weighted>
3.8149

> <Gold.Chemscore.Internal.Correction.Weighted>
   9.000000E+99

> <Gold.Protein.RotatedTorsions>
[ 6907 6896 6895 6894 ] final  149.64 input  -60.11 | X-H torsion
[ 7974 7965 7964 7962 ] final -142.13 input  175.53 | X-H torsion
[ 8008 7997 7996 7995 ] final  123.90 input   59.86 | X-H torsion
[ 10167 10162 10161 10158 ] final   24.30 input  -65.29 | X-H torsion
[ 10718 10713 10712 10709 ] final   75.92 input   66.30 | X-H torsion
[ 10763 10752 10751 10750 ] final  -41.34 input  -60.55 | X-H torsion
[ 11005 11000 10999 10996 ] final   93.82 input  -57.11 | X-H torsion

> <Gold.Protein.ActiveResidues>
 VAL166  LYS551  ARG553  GLY616  TRP617  ASP618  TYR619  PRO620  LYS621  CYS622 
 ASP623  PHE694  ASN695  SER759  ASP760  ASP761  ALA762  ILE779  LEU786  VAL792 
 PHE793  MET794  SER795  GLU796  ALA797  LYS798  CYS799  TRP800  GLU811  SER814 

> <Gold.Protein.RotatedAtoms>
  152.1252  133.4376  159.4694 H   0  0  0  0  0  0  0  0  0  0  0  0  # atno 6907 bound_to 6896
  150.6874  134.2486  159.4511 H   0  0  0  0  0  0  0  0  0  0  0  0  # atno 6908 bound_to 6896
  152.0366  134.9736  160.0624 H   0  0  0  0  0  0  0  0  0  0  0  0  # atno 6909 bound_to 6896
  144.8466  140.5995  143.5417 H   0  0  0  0  0  0  0  0  0  0  0  0  # atno 7974 bound_to 7965
  156.2782  140.2752  156.1701 H   0  0  0  0  0  0  0  0  0  0  0  0  # atno 8008 bound_to 7997
  155.0664  140.0387  157.2611 H   0  0  0  0  0  0  0  0  0  0  0  0  # atno 8009 bound_to 7997
  154.7076  140.2662  155.6665 H   0  0  0  0  0  0  0  0  0  0  0  0  # atno 8010 bound_to 7997
  140.5200  144.0019  150.6412 H   0  0  0  0  0  0  0  0  0  0  0  0  # atno 10167 bound_to 10162
  157.6653  130.9750  150.1423 H   0  0  0  0  0  0  0  0  0  0  0  0  # atno 10718 bound_to 10713
  153.9609  135.6739  153.4745 H   0  0  0  0  0  0  0  0  0  0  0  0  # atno 10763 bound_to 10752
  153.0839  135.4909  154.8554 H   0  0  0  0  0  0  0  0  0  0  0  0  # atno 10764 bound_to 10752
  154.7273  135.3130  154.8909 H   0  0  0  0  0  0  0  0  0  0  0  0  # atno 10765 bound_to 10752
  139.8805  134.8811  156.3774 H   0  0  0  0  0  0  0  0  0  0  0  0  # atno 11005 bound_to 11000
  145.4584  139.1515  143.3880 LP  0  0  0  0  0  0  0  0  0  0  0  0  # atno 17320 bound_to 7965
  146.2749  140.4713  142.8799 LP  0  0  0  0  0  0  0  0  0  0  0  0  # atno 17321 bound_to 7965
  140.3365  143.3045  152.0633 LP  0  0  0  0  0  0  0  0  0  0  0  0  # atno 17342 bound_to 10162
  139.4920  144.6472  151.6752 LP  0  0  0  0  0  0  0  0  0  0  0  0  # atno 17343 bound_to 10162
  156.2243  130.3676  149.8519 LP  0  0  0  0  0  0  0  0  0  0  0  0  # atno 17370 bound_to 10713
  156.6364  130.8687  151.3505 LP  0  0  0  0  0  0  0  0  0  0  0  0  # atno 17371 bound_to 10713
  140.9422  133.7506  156.0162 LP  0  0  0  0  0  0  0  0  0  0  0  0  # atno 17394 bound_to 11000
  140.8205  134.3295  157.5383 LP  0  0  0  0  0  0  0  0  0  0  0  0  # atno 17395 bound_to 11000

$$$$
