AV-unprocessed.smi:1640|AV-procd|sdf|6555|dock9
  -GOLD-   22720 7243D 1   1.00000     0.00000
 Structure written by MMmdl.
 46 47  0  0  0  0  0  0  0  0  2 V2000
  146.2420  134.2449  162.4369 C   0  0  0  0  0  0  0  0  0  0  0  0
  147.1636  135.4338  162.1162 C   0  0  0  0  0  0  0  0  0  0  0  0
  146.4333  136.7610  162.3720 C   0  0  0  0  0  0  0  0  0  0  0  0
  147.7102  135.3810  160.6753 C   0  0  0  0  0  0  0  0  0  0  0  0
  148.4887  136.6407  160.2574 C   0  0  0  0  0  0  0  0  0  0  0  0
  148.9788  136.5895  158.4793 S   0  0  0  0  0  0  0  0  0  0  0  0
  148.4661  135.3213  157.9354 O   0  0  0  0  0  0  0  0  0  0  0  0
  148.4585  137.8346  157.8913 O   0  0  0  0  0  0  0  0  0  0  0  0
  150.5935  136.5996  158.6151 N   0  5  0  0  0  0  0  0  0  0  0  0
  151.3247  137.8162  158.3105 C   0  0  0  0  0  0  0  0  0  0  0  0
  151.2468  138.1633  156.8158 C   0  0  0  0  0  0  0  0  0  0  0  0
  151.1967  137.0982  155.8839 C   0  0  0  0  0  0  0  0  0  0  0  0
  151.1076  137.3778  154.5086 C   0  0  0  0  0  0  0  0  0  0  0  0
  151.0712  138.7218  154.1037 C   0  0  0  0  0  0  0  0  0  0  0  0
  151.1207  139.7533  154.9687 N   0  0  0  0  0  0  0  0  0  0  0  0
  151.2076  139.5006  156.2993 C   0  0  0  0  0  0  0  0  0  0  0  0
  151.2829  140.6427  157.1261 N   0  0  0  0  0  0  0  0  0  0  0  0
  152.4152  140.6231  158.0432 C   0  0  0  0  0  0  0  0  0  0  0  0
  152.2810  141.7695  159.0594 C   0  0  0  0  0  0  0  0  0  0  0  0
  152.1608  143.0101  158.3673 O   0  0  0  0  0  0  0  0  0  0  0  0
  151.0109  143.0446  157.5255 C   0  0  0  0  0  0  0  0  0  0  0  0
  151.1121  141.9322  156.4675 C   0  0  0  0  0  0  0  0  0  0  0  0
  145.4001  134.1996  161.7457 H   0  0  0  0  0  0  0  0  0  0  0  0
  145.8383  134.3243  163.4466 H   0  0  0  0  0  0  0  0  0  0  0  0
  146.7733  133.2954  162.3792 H   0  0  0  0  0  0  0  0  0  0  0  0
  148.0118  135.3955  162.8009 H   0  0  0  0  0  0  0  0  0  0  0  0
  145.5622  136.8648  161.7242 H   0  0  0  0  0  0  0  0  0  0  0  0
  147.0881  137.6132  162.1881 H   0  0  0  0  0  0  0  0  0  0  0  0
  146.0908  136.8295  163.4049 H   0  0  0  0  0  0  0  0  0  0  0  0
  148.3422  134.5004  160.5537 H   0  0  0  0  0  0  0  0  0  0  0  0
  146.8734  135.2480  159.9891 H   0  0  0  0  0  0  0  0  0  0  0  0
  147.8641  137.5229  160.3960 H   0  0  0  0  0  0  0  0  0  0  0  0
  149.3924  136.7831  160.8488 H   0  0  0  0  0  0  0  0  0  0  0  0
  150.9537  138.6615  158.8909 H   0  0  0  0  0  0  0  0  0  0  0  0
  152.3808  137.7342  158.5698 H   0  0  0  0  0  0  0  0  0  0  0  0
  151.2235  136.0636  156.1990 H   0  0  0  0  0  0  0  0  0  0  0  0
  151.0676  136.5792  153.7828 H   0  0  0  0  0  0  0  0  0  0  0  0
  151.0020  138.9768  153.0566 H   0  0  0  0  0  0  0  0  0  0  0  0
  152.4663  139.6665  158.5636 H   0  0  0  0  0  0  0  0  0  0  0  0
  153.3415  140.7301  157.4774 H   0  0  0  0  0  0  0  0  0  0  0  0
  151.4151  141.6159  159.7052 H   0  0  0  0  0  0  0  0  0  0  0  0
  153.1583  141.8040  159.7054 H   0  0  0  0  0  0  0  0  0  0  0  0
  150.1059  142.9303  158.1243 H   0  0  0  0  0  0  0  0  0  0  0  0
  150.9528  144.0196  157.0416 H   0  0  0  0  0  0  0  0  0  0  0  0
  151.9584  142.1282  155.8076 H   0  0  0  0  0  0  0  0  0  0  0  0
  150.2134  141.9158  155.8500 H   0  0  0  0  0  0  0  0  0  0  0  0
  1  2  1  0  0  0  0
  1 23  1  0  0  0  0
  1 24  1  0  0  0  0
  1 25  1  0  0  0  0
  2  3  1  0  0  0  0
  2  4  1  0  0  0  0
  2 26  1  0  0  0  0
  3 27  1  0  0  0  0
  3 28  1  0  0  0  0
  3 29  1  0  0  0  0
  4  5  1  0  0  0  0
  4 30  1  0  0  0  0
  4 31  1  0  0  0  0
  5  6  1  0  0  0  0
  5 32  1  0  0  0  0
  5 33  1  0  0  0  0
  6  7  2  0  0  0  0
  6  8  2  0  0  0  0
  6  9  1  0  0  0  0
  9 10  1  0  0  0  0
 10 11  1  0  0  0  0
 10 34  1  0  0  0  0
 10 35  1  0  0  0  0
 11 16  1  0  0  0  0
 11 12  2  0  0  0  0
 12 13  1  0  0  0  0
 12 36  1  0  0  0  0
 13 14  2  0  0  0  0
 13 37  1  0  0  0  0
 14 15  1  0  0  0  0
 14 38  1  0  0  0  0
 15 16  2  0  0  0  0
 16 17  1  0  0  0  0
 17 22  1  0  0  0  0
 17 18  1  0  0  0  0
 18 19  1  0  0  0  0
 18 39  1  0  0  0  0
 18 40  1  0  0  0  0
 19 20  1  0  0  0  0
 19 41  1  0  0  0  0
 19 42  1  0  0  0  0
 20 21  1  0  0  0  0
 21 22  1  0  0  0  0
 21 43  1  0  0  0  0
 21 44  1  0  0  0  0
 22 45  1  0  0  0  0
 22 46  1  0  0  0  0
M  CHG  1   9  -1
M  END
> <s_m_source_file>
AV-unprocessed.smi

> <i_m_source_file_index>
1640

> <i_lp_mmshare_version>
43012

> <i_f3d_flags>
0

> <s_epik_input>
W0NIM11bQ0hdKFtDSDNdKVtDSDJdW0NIMl1TKD1PKSg9TylbTkhdW0NIMl1jMVtjSF1bY0hdW2NIXW5jMU4yW0NIMl1bQ0gyXU9bQ0gyXVtDSDJdMg==

> <s_epik_cmdline>
J2VwaWtfcHl0aG9uJywgJy1waCcsICc3LjAnLCAnLXRuJywgJzgnLCAnLW1hJywgJzIwMCcsICctbWV0YWxfYmluZGluZycsICctaW1hZScsICc8aW5maWxlLm1hZT4nLCAnLW9tYWUnLCAnPG91dGZpbGUubWFlPic=

> <r_lp_tautomer_probability>
1

> <r_epik_Ionization_Penalty>
6.15599

> <r_epik_Ionization_Penalty_Charging>
6.0779

> <r_epik_Ionization_Penalty_Neutral>
0.078089

> <r_epik_State_Penalty>
6.0833

> <r_epik_Charging_Adjusted_Penalty>
12.1612

> <i_epik_Tot_Q>
-1

> <i_epik_Tot_abs_Q>
1

> <r_epik_Metal_State_Penalty>
2.0323

> <b_epik_Metal_Only>
1

> <s_lp_Force_Field>
OPLS_2005

> <r_lp_Energy>
20.5141

> <b_lp_Chiralities_Consistent>
1

> <s_lp_Variant>
AV-unprocessed.smi:1640-2

> <Gold.Version>
5.8.1

> <Gold.Id.Protein>
6NUR|6NUR_protein|mol2

> <Gold.PLP.Fitness>
46.3361

> <Gold.PLP.PLP>
-36.9861

> <Gold.PLP.part.hbond>
-2.0000

> <Gold.PLP.part.metal>
0.0000

> <Gold.PLP.part.buried>
-5.2626

> <Gold.PLP.part.nonpolar>
-29.3527

> <Gold.PLP.part.repulsive>
0.0675

> <Gold.PLP.ligand.clash>
0.0000

> <Gold.PLP.ligand.torsion>
1.0518

> <Gold.PLP.Chemscore.Hbond>
2.4020

> <Gold.PLP.Chemscore.CHOScore>
1.0000

> <Gold.PLP.Chemscore.Metal>
0.0000

> <Gold.Chemscore.Hbonds>
donor molecule, donor type, donor heavy atom, donor atom, acceptor molecule, acceptor atom, score
      P1  H  6896  6908       L1     9  1.95
      P1  H  7989  7998       L1    15  0.40
      L1  C    14    38       P1  7957  0.90

> <Gold.PLP.Chemscore.Internal.Correction>
1.2476

> <Gold.Rescore>
     Score         DG    S(hbond)    S(metal)    S(lipo)     H(rot)  DE(clash)    DE(int)     intcor
     14.72     -15.99       1.08        0.00      96.89       1.73       0.05       1.22       ----

> <Gold.Chemscore.Fitness>
14.7176

> <Gold.Chemscore.DG>
-15.9924

> <Gold.Chemscore.ZeroCoef>
-5.4800

> <Gold.Chemscore.Hbond>
1.0831

> <Gold.Chemscore.Metal>
0.0000

> <Gold.Chemscore.Lipo>
96.8863

> <Gold.Chemscore.Internal_Hbond>
0.0000

> <Gold.Chemscore.DEClash>
0.0504

> <Gold.Chemscore.DEInternal>
1.2244

> <Gold.Chemscore.Rot>
1.7347

> <Gold.Chemscore.Internal.Correction>
   9.000000E+99

> <Gold.Chemscore.Hbonds>
donor molecule, donor type, donor heavy atom, donor atom, acceptor molecule, acceptor atom, score
      P1  H  6896  6908       L1     9  0.35
      P1  H  7989  7998       L1    15  0.01

> <Gold.Chemscore.Hbond.Weighted>
-3.6176

> <Gold.Chemscore.Metal.Weighted>
-0.0000

> <Gold.Chemscore.Lipo.Weighted>
-11.3357

> <Gold.Chemscore.Internal_Hbond.Weighted>
0.0000

> <Gold.Chemscore.DEClash.Weighted>
0.0504

> <Gold.Chemscore.DEInternal.Weighted>
1.2244

> <Gold.Chemscore.Rot.Weighted>
4.4409

> <Gold.Chemscore.Internal.Correction.Weighted>
   9.000000E+99

> <Gold.Protein.RotatedTorsions>
[ 6907 6896 6895 6894 ] final -162.19 input  -60.11 | X-H torsion
[ 7974 7965 7964 7962 ] final  129.32 input  175.53 | X-H torsion
[ 8008 7997 7996 7995 ] final  -38.91 input   59.86 | X-H torsion
[ 10167 10162 10161 10158 ] final    6.99 input  -65.29 | X-H torsion
[ 10718 10713 10712 10709 ] final  -50.87 input   66.30 | X-H torsion
[ 10763 10752 10751 10750 ] final  -35.13 input  -60.55 | X-H torsion
[ 11005 11000 10999 10996 ] final  -87.02 input  -57.11 | X-H torsion

> <Gold.Protein.ActiveResidues>
 VAL166  LYS551  ARG553  GLY616  TRP617  ASP618  TYR619  PRO620  LYS621  CYS622 
 ASP623  PHE694  ASN695  SER759  ASP760  ASP761  ALA762  ILE779  LEU786  VAL792 
 PHE793  MET794  SER795  GLU796  ALA797  LYS798  CYS799  TRP800  GLU811  SER814 

> <Gold.Protein.RotatedAtoms>
  151.3764  133.3836  159.2704 H   0  0  0  0  0  0  0  0  0  0  0  0  # atno 6907 bound_to 6896
  150.9611  134.9000  159.7741 H   0  0  0  0  0  0  0  0  0  0  0  0  # atno 6908 bound_to 6896
  152.5150  134.3723  159.9374 H   0  0  0  0  0  0  0  0  0  0  0  0  # atno 6909 bound_to 6896
  145.0299  139.4055  143.5155 H   0  0  0  0  0  0  0  0  0  0  0  0  # atno 7974 bound_to 7965
  154.4030  140.1565  156.2777 H   0  0  0  0  0  0  0  0  0  0  0  0  # atno 8008 bound_to 7997
  155.8897  140.3439  155.5925 H   0  0  0  0  0  0  0  0  0  0  0  0  # atno 8009 bound_to 7997
  155.7573  140.0813  157.2163 H   0  0  0  0  0  0  0  0  0  0  0  0  # atno 8010 bound_to 7997
  140.6397  143.7804  150.7410 H   0  0  0  0  0  0  0  0  0  0  0  0  # atno 10167 bound_to 10162
  156.1761  130.4150  149.9575 H   0  0  0  0  0  0  0  0  0  0  0  0  # atno 10718 bound_to 10713
  153.8581  135.6842  153.4785 H   0  0  0  0  0  0  0  0  0  0  0  0  # atno 10763 bound_to 10752
  153.1358  135.4678  154.9418 H   0  0  0  0  0  0  0  0  0  0  0  0  # atno 10764 bound_to 10752
  154.7771  135.3257  154.8017 H   0  0  0  0  0  0  0  0  0  0  0  0  # atno 10765 bound_to 10752
  141.1622  133.7487  156.9246 H   0  0  0  0  0  0  0  0  0  0  0  0  # atno 11005 bound_to 11000
  146.3497  139.9843  142.8692 LP  0  0  0  0  0  0  0  0  0  0  0  0  # atno 17320 bound_to 7965
  145.1784  140.9755  143.4280 LP  0  0  0  0  0  0  0  0  0  0  0  0  # atno 17321 bound_to 7965
  140.1433  143.4422  152.2180 LP  0  0  0  0  0  0  0  0  0  0  0  0  # atno 17342 bound_to 10162
  139.5606  144.7403  151.4166 LP  0  0  0  0  0  0  0  0  0  0  0  0  # atno 17343 bound_to 10162
  156.7360  130.9061  151.3629 LP  0  0  0  0  0  0  0  0  0  0  0  0  # atno 17370 bound_to 10713
  157.6837  130.9164  150.0331 LP  0  0  0  0  0  0  0  0  0  0  0  0  # atno 17371 bound_to 10713
  140.1428  134.9282  157.2490 LP  0  0  0  0  0  0  0  0  0  0  0  0  # atno 17394 bound_to 11000
  140.2816  134.3343  155.7341 LP  0  0  0  0  0  0  0  0  0  0  0  0  # atno 17395 bound_to 11000

$$$$
