AV-unprocessed.smi:2973|AV-procd|sdf|11349|dock6
  -GOLD-   2272016263D 1   1.00000     0.00000
 Structure written by MMmdl.
 49 51  0  0  0  0  0  0  0  0  3 V2000
  151.5063  140.2762  157.3355 C   0  0  0  0  0  0  0  0  0  0  0  0
  150.4290  140.6667  156.2988 C   0  0  2  0  0  0  0  0  0  0  0  0
  149.1345  141.0972  157.0241 C   0  0  0  0  0  0  0  0  0  0  0  0
  148.0538  141.5686  156.0402 C   0  0  0  0  0  0  0  0  0  0  0  0
  147.7401  140.4869  154.9993 C   0  0  0  0  0  0  0  0  0  0  0  0
  149.0143  140.0516  154.2549 C   0  0  0  0  0  0  0  0  0  0  0  0
  150.1544  139.5851  155.1999 C   0  0  1  0  0  0  0  0  0  0  0  0
  151.3495  139.3605  154.4045 N   0  5  0  0  0  0  0  0  0  0  0  0
  151.7086  138.0597  154.4998 C   0  0  0  0  0  0  0  0  0  0  0  0
  152.6807  137.5237  153.9682 O   0  0  0  0  0  0  0  0  0  0  0  0
  150.8523  137.3783  155.2834 N   0  0  0  0  0  0  0  0  0  0  0  0
  150.9782  135.9550  155.6233 C   0  0  0  0  0  0  0  0  0  0  0  0
  149.6261  135.2296  155.6620 C   0  0  0  0  0  0  0  0  0  0  0  0
  149.1811  134.7726  156.7162 O   0  0  0  0  0  0  0  0  0  0  0  0
  148.9707  135.1451  154.4948 N   0  0  0  0  0  0  0  0  0  0  0  0
  147.6809  134.4923  154.3071 C   0  0  0  0  0  0  0  0  0  0  0  0
  147.6765  133.5955  153.0571 C   0  0  0  0  0  0  0  0  0  0  0  0
  146.5350  133.9285  152.1172 C   0  0  0  0  0  0  0  0  0  0  0  0
  145.5125  133.0010  151.8219 C   0  0  0  0  0  0  0  0  0  0  0  0
  144.4728  133.3774  150.9462 C   0  0  0  0  0  0  0  0  0  0  0  0
  144.4770  134.6713  150.3855 C   0  0  0  0  0  0  0  0  0  0  0  0
  145.5222  135.5580  150.7157 C   0  0  0  0  0  0  0  0  0  0  0  0
  146.5001  135.1606  151.5592 N   0  3  0  0  0  0  0  0  0  0  0  0
  149.8948  138.1853  155.7536 C   0  0  0  0  0  0  0  0  0  0  0  0
  148.9703  137.8800  156.5082 O   0  0  0  0  0  0  0  0  0  0  0  0
  151.1987  139.4232  157.9406 H   0  0  0  0  0  0  0  0  0  0  0  0
  151.7043  141.1029  158.0179 H   0  0  0  0  0  0  0  0  0  0  0  0
  152.4525  140.0218  156.8580 H   0  0  0  0  0  0  0  0  0  0  0  0
  150.8073  141.5524  155.7851 H   0  0  0  0  0  0  0  0  0  0  0  0
  148.7468  140.2760  157.6274 H   0  0  0  0  0  0  0  0  0  0  0  0
  149.3556  141.9046  157.7230 H   0  0  0  0  0  0  0  0  0  0  0  0
  147.1471  141.8351  156.5837 H   0  0  0  0  0  0  0  0  0  0  0  0
  148.3901  142.4749  155.5351 H   0  0  0  0  0  0  0  0  0  0  0  0
  147.2733  139.6306  155.4856 H   0  0  0  0  0  0  0  0  0  0  0  0
  147.0086  140.8646  154.2845 H   0  0  0  0  0  0  0  0  0  0  0  0
  148.7609  139.2627  153.5446 H   0  0  0  0  0  0  0  0  0  0  0  0
  149.3651  140.8904  153.6512 H   0  0  0  0  0  0  0  0  0  0  0  0
  151.6208  135.4476  154.9022 H   0  0  0  0  0  0  0  0  0  0  0  0
  151.4784  135.8518  156.5882 H   0  0  0  0  0  0  0  0  0  0  0  0
  149.4026  135.5551  153.6793 H   0  0  0  0  0  0  0  0  0  0  0  0
  147.4261  133.9118  155.1956 H   0  0  0  0  0  0  0  0  0  0  0  0
  146.9209  135.2684  154.2141 H   0  0  0  0  0  0  0  0  0  0  0  0
  148.6205  133.6968  152.5196 H   0  0  0  0  0  0  0  0  0  0  0  0
  147.5992  132.5457  153.3436 H   0  0  0  0  0  0  0  0  0  0  0  0
  145.5222  132.0142  152.2623 H   0  0  0  0  0  0  0  0  0  0  0  0
  143.6812  132.6817  150.7080 H   0  0  0  0  0  0  0  0  0  0  0  0
  143.6897  134.9794  149.7128 H   0  0  0  0  0  0  0  0  0  0  0  0
  145.6044  136.5653  150.3344 H   0  0  0  0  0  0  0  0  0  0  0  0
  147.2461  135.8194  151.7843 H   0  0  0  0  0  0  0  0  0  0  0  0
  1  2  1  0  0  0  0
  1 26  1  0  0  0  0
  1 27  1  0  0  0  0
  1 28  1  0  0  0  0
  2  7  1  0  0  0  0
  2  3  1  0  0  0  0
  2 29  1  0  0  0  0
  3  4  1  0  0  0  0
  3 30  1  0  0  0  0
  3 31  1  0  0  0  0
  4  5  1  0  0  0  0
  4 32  1  0  0  0  0
  4 33  1  0  0  0  0
  5  6  1  0  0  0  0
  5 34  1  0  0  0  0
  5 35  1  0  0  0  0
  6  7  1  0  0  0  0
  6 36  1  0  0  0  0
  6 37  1  0  0  0  0
  7 24  1  0  0  0  0
  7  8  1  0  0  0  0
  8  9  1  0  0  0  0
  9 10  2  0  0  0  0
  9 11  1  0  0  0  0
 11 12  1  0  0  0  0
 11 24  1  0  0  0  0
 12 13  1  0  0  0  0
 12 38  1  0  0  0  0
 12 39  1  0  0  0  0
 13 14  2  0  0  0  0
 13 15  1  0  0  0  0
 15 16  1  0  0  0  0
 15 40  1  0  0  0  0
 16 17  1  0  0  0  0
 16 41  1  0  0  0  0
 16 42  1  0  0  0  0
 17 18  1  0  0  0  0
 17 43  1  0  0  0  0
 17 44  1  0  0  0  0
 18 23  1  0  0  0  0
 18 19  2  0  0  0  0
 19 20  1  0  0  0  0
 19 45  1  0  0  0  0
 20 21  2  0  0  0  0
 20 46  1  0  0  0  0
 21 22  1  0  0  0  0
 21 47  1  0  0  0  0
 22 23  2  0  0  0  0
 22 48  1  0  0  0  0
 23 49  1  0  0  0  0
 24 25  2  0  0  0  0
M  CHG  1   8  -1
M  CHG  1  23   1
M  END
> <s_m_source_file>
AV-unprocessed.smi

> <i_m_source_file_index>
2973

> <i_lp_mmshare_version>
43012

> <i_f3d_flags>
0

> <s_epik_input>
W0NIMl0xW0NIMl1bQ0gyXVtDSDJdW0NAQEhdKFtDSDNdKVtDQF0xMltOSF1DKD1PKU4oQzI9TylbQ0gyXUMoPU8pW05IXVtDSDJdW0NIMl1jM1tjSF1bY0hdW2NIXVtjSF1uMw==

> <s_epik_cmdline>
J2VwaWtfcHl0aG9uJywgJy1waCcsICc3LjAnLCAnLXRuJywgJzgnLCAnLW1hJywgJzIwMCcsICctbWV0YWxfYmluZGluZycsICctaW1hZScsICc8aW5maWxlLm1hZT4nLCAnLW9tYWUnLCAnPG91dGZpbGUubWFlPic=

> <r_lp_tautomer_probability>
1

> <r_epik_Ionization_Penalty>
7.89073

> <r_epik_Ionization_Penalty_Charging>
7.89073

> <r_epik_Ionization_Penalty_Neutral>
1.56557e-07

> <r_epik_State_Penalty>
8.01193

> <r_epik_Charging_Adjusted_Penalty>
15.9027

> <i_epik_Tot_Q>
0

> <i_epik_Tot_abs_Q>
2

> <r_epik_Metal_State_Penalty>
3.98737

> <b_epik_Metal_Only>
1

> <s_lp_Force_Field>
OPLS_2005

> <r_lp_Energy>
17.4929

> <b_lp_Chiralities_Consistent>
1

> <s_lp_Variant>
AV-unprocessed.smi:2973-13

> <Gold.Version>
5.8.1

> <Gold.Id.Protein>
6NUR|6NUR_protein|mol2

> <Gold.PLP.Fitness>
48.4043

> <Gold.PLP.PLP>
-36.3146

> <Gold.PLP.part.hbond>
-4.0000

> <Gold.PLP.part.metal>
0.0000

> <Gold.PLP.part.buried>
-3.4535

> <Gold.PLP.part.nonpolar>
-29.0087

> <Gold.PLP.part.repulsive>
0.3293

> <Gold.PLP.ligand.clash>
0.0000

> <Gold.PLP.ligand.torsion>
0.7750

> <Gold.PLP.Chemscore.Hbond>
4.5360

> <Gold.PLP.Chemscore.CHOScore>
0.0000

> <Gold.PLP.Chemscore.Metal>
0.0000

> <Gold.Chemscore.Hbonds>
donor molecule, donor type, donor heavy atom, donor atom, acceptor molecule, acceptor atom, score
      L1  H    15    40       P1  7948  0.85
      L1  H    23    49       P1  7948  1.95
      P1  H  7989  7998       L1     8  1.00
      P1  H 10752 10765       L1    10  0.64

> <Gold.PLP.Chemscore.Internal.Correction>
0.0317

> <Gold.Rescore>
     Score         DG    S(hbond)    S(metal)    S(lipo)     H(rot)  DE(clash)    DE(int)     intcor
     17.65     -19.80       3.07        0.00      76.62       1.92       0.06       2.10       ----

> <Gold.Chemscore.Fitness>
17.6469

> <Gold.Chemscore.DG>
-19.8015

> <Gold.Chemscore.ZeroCoef>
-5.4800

> <Gold.Chemscore.Hbond>
3.0736

> <Gold.Chemscore.Metal>
0.0000

> <Gold.Chemscore.Lipo>
76.6200

> <Gold.Chemscore.Internal_Hbond>
0.0000

> <Gold.Chemscore.DEClash>
0.0560

> <Gold.Chemscore.DEInternal>
2.0987

> <Gold.Chemscore.Rot>
1.9175

> <Gold.Chemscore.Internal.Correction>
   9.000000E+99

> <Gold.Chemscore.Hbonds>
donor molecule, donor type, donor heavy atom, donor atom, acceptor molecule, acceptor atom, score
      L1  H    15    40       P1  7948  0.28
      L1  H    23    49       P1  7948  0.93
      P1  H  7989  7998       L1     8  0.60
      P1  H 10752 10765       L1    10  0.64

> <Gold.Chemscore.Hbond.Weighted>
-10.2657

> <Gold.Chemscore.Metal.Weighted>
-0.0000

> <Gold.Chemscore.Lipo.Weighted>
-8.9645

> <Gold.Chemscore.Internal_Hbond.Weighted>
0.0000

> <Gold.Chemscore.DEClash.Weighted>
0.0560

> <Gold.Chemscore.DEInternal.Weighted>
2.0987

> <Gold.Chemscore.Rot.Weighted>
4.9087

> <Gold.Chemscore.Internal.Correction.Weighted>
   9.000000E+99

> <Gold.Protein.RotatedTorsions>
[ 6907 6896 6895 6894 ] final -142.01 input  -60.11 | X-H torsion
[ 7974 7965 7964 7962 ] final   -3.48 input  175.53 | X-H torsion
[ 8008 7997 7996 7995 ] final  168.30 input   59.86 | X-H torsion
[ 10167 10162 10161 10158 ] final  104.04 input  -65.29 | X-H torsion
[ 10718 10713 10712 10709 ] final -128.86 input   66.30 | X-H torsion
[ 10763 10752 10751 10750 ] final  140.32 input  -60.55 | X-H torsion
[ 11005 11000 10999 10996 ] final   -2.58 input  -57.11 | X-H torsion

> <Gold.Protein.ActiveResidues>
 VAL166  LYS551  ARG553  GLY616  TRP617  ASP618  TYR619  PRO620  LYS621  CYS622 
 ASP623  PHE694  ASN695  SER759  ASP760  ASP761  ALA762  ILE779  LEU786  VAL792 
 PHE793  MET794  SER795  GLU796  ALA797  LYS798  CYS799  TRP800  GLU811  SER814 

> <Gold.Protein.RotatedAtoms>
  151.0814  133.5387  159.2620 H   0  0  0  0  0  0  0  0  0  0  0  0  # atno 6907 bound_to 6896
  151.2289  135.0546  159.8990 H   0  0  0  0  0  0  0  0  0  0  0  0  # atno 6908 bound_to 6896
  152.5424  134.0605  159.8204 H   0  0  0  0  0  0  0  0  0  0  0  0  # atno 6909 bound_to 6896
  146.2389  140.1727  142.8332 H   0  0  0  0  0  0  0  0  0  0  0  0  # atno 7974 bound_to 7965
  156.1559  140.1594  156.8694 H   0  0  0  0  0  0  0  0  0  0  0  0  # atno 8008 bound_to 7997
  154.5114  140.0800  156.8033 H   0  0  0  0  0  0  0  0  0  0  0  0  # atno 8009 bound_to 7997
  155.3805  140.3405  155.4249 H   0  0  0  0  0  0  0  0  0  0  0  0  # atno 8010 bound_to 7997
  139.7211  144.7058  151.0871 H   0  0  0  0  0  0  0  0  0  0  0  0  # atno 10167 bound_to 10162
  156.1991  130.6845  151.0517 H   0  0  0  0  0  0  0  0  0  0  0  0  # atno 10718 bound_to 10713
  153.9208  135.3001  155.3447 H   0  0  0  0  0  0  0  0  0  0  0  0  # atno 10763 bound_to 10752
  154.7577  135.4949  153.9408 H   0  0  0  0  0  0  0  0  0  0  0  0  # atno 10764 bound_to 10752
  153.1143  135.6767  153.9549 H   0  0  0  0  0  0  0  0  0  0  0  0  # atno 10765 bound_to 10752
  140.6599  133.9330  155.8430 H   0  0  0  0  0  0  0  0  0  0  0  0  # atno 11005 bound_to 11000
  144.9998  140.8622  143.5288 LP  0  0  0  0  0  0  0  0  0  0  0  0  # atno 17320 bound_to 7965
  145.1745  139.2386  143.5325 LP  0  0  0  0  0  0  0  0  0  0  0  0  # atno 17321 bound_to 7965
  140.7754  143.5165  150.9588 LP  0  0  0  0  0  0  0  0  0  0  0  0  # atno 17342 bound_to 10162
  139.8852  143.7022  152.3152 LP  0  0  0  0  0  0  0  0  0  0  0  0  # atno 17343 bound_to 10162
  157.6975  131.0788  150.6924 LP  0  0  0  0  0  0  0  0  0  0  0  0  # atno 17370 bound_to 10713
  156.6981  130.4615  149.5580 LP  0  0  0  0  0  0  0  0  0  0  0  0  # atno 17371 bound_to 10713
  141.0473  134.0535  157.3828 LP  0  0  0  0  0  0  0  0  0  0  0  0  # atno 17394 bound_to 11000
  139.9016  135.0166  156.7297 LP  0  0  0  0  0  0  0  0  0  0  0  0  # atno 17395 bound_to 11000

$$$$
