AV-unprocessed.smi:3314|AV-procd|sdf|12736|dock5
  -GOLD-   2272019 83D 1   1.00000     0.00000
 Structure written by MMmdl.
 37 38  0  0  0  0  0  0  0  0  1 V2000
  151.8929  145.7629  159.8936 C   0  0  0  0  0  0  0  0  0  0  0  0
  151.9682  144.3543  159.3427 C   0  0  0  0  0  0  0  0  0  0  0  0
  152.8378  143.4013  159.9070 C   0  0  0  0  0  0  0  0  0  0  0  0
  152.8625  142.1094  159.3456 C   0  0  0  0  0  0  0  0  0  0  0  0
  153.7708  141.0338  159.9031 C   0  0  0  0  0  0  0  0  0  0  0  0
  152.0946  141.7475  158.2957 N   0  0  0  0  0  0  0  0  0  0  0  0
  151.2536  142.6572  157.7443 C   0  0  0  0  0  0  0  0  0  0  0  0
  150.4073  142.3793  156.6388 N   0  0  0  0  0  0  0  0  0  0  0  0
  150.3481  141.2613  155.8911 C   0  0  0  0  0  0  0  0  0  0  0  0
  151.0516  140.2655  156.0676 O   0  0  0  0  0  0  0  0  0  0  0  0
  149.3224  141.2962  154.7519 C   0  0  1  0  0  0  0  0  0  0  0  0
  148.7118  139.9130  154.4316 C   0  0  0  0  0  0  0  0  0  0  0  0
  147.7006  140.0029  153.3863 N   0  0  0  0  0  0  0  0  0  0  0  0
  147.1307  138.7004  153.0775 C   0  0  0  0  0  0  0  0  0  0  0  0
  146.6755  140.9597  153.7818 C   0  0  0  0  0  0  0  0  0  0  0  0
  147.2795  142.3357  154.1121 C   0  0  0  0  0  0  0  0  0  0  0  0
  148.2774  142.1953  155.1195 O   0  0  0  0  0  0  0  0  0  0  0  0
  151.1655  143.9741  158.2485 C   0  0  0  0  0  0  0  0  0  0  0  0
  152.5561  145.8910  160.7496 H   0  0  0  0  0  0  0  0  0  0  0  0
  150.8755  145.9899  160.2132 H   0  0  0  0  0  0  0  0  0  0  0  0
  152.1815  146.4830  159.1275 H   0  0  0  0  0  0  0  0  0  0  0  0
  153.4684  143.6532  160.7473 H   0  0  0  0  0  0  0  0  0  0  0  0
  154.3974  141.4222  160.7065 H   0  0  0  0  0  0  0  0  0  0  0  0
  154.4235  140.6442  159.1213 H   0  0  0  0  0  0  0  0  0  0  0  0
  153.1795  140.2084  160.3004 H   0  0  0  0  0  0  0  0  0  0  0  0
  149.7740  143.1211  156.3785 H   0  0  0  0  0  0  0  0  0  0  0  0
  149.8236  141.6814  153.8617 H   0  0  0  0  0  0  0  0  0  0  0  0
  149.5014  139.2284  154.1188 H   0  0  0  0  0  0  0  0  0  0  0  0
  148.2676  139.4871  155.3333 H   0  0  0  0  0  0  0  0  0  0  0  0
  146.4006  138.7800  152.2714 H   0  0  0  0  0  0  0  0  0  0  0  0
  146.6320  138.2710  153.9475 H   0  0  0  0  0  0  0  0  0  0  0  0
  147.9070  138.0063  152.7540 H   0  0  0  0  0  0  0  0  0  0  0  0
  145.9409  141.0674  152.9828 H   0  0  0  0  0  0  0  0  0  0  0  0
  146.1362  140.5853  154.6533 H   0  0  0  0  0  0  0  0  0  0  0  0
  147.7162  142.7892  153.2211 H   0  0  0  0  0  0  0  0  0  0  0  0
  146.5049  143.0139  154.4703 H   0  0  0  0  0  0  0  0  0  0  0  0
  150.4913  144.6897  157.8001 H   0  0  0  0  0  0  0  0  0  0  0  0
  1  2  1  0  0  0  0
  1 19  1  0  0  0  0
  1 20  1  0  0  0  0
  1 21  1  0  0  0  0
  2 18  1  0  0  0  0
  2  3  2  0  0  0  0
  3  4  1  0  0  0  0
  3 22  1  0  0  0  0
  4  5  1  0  0  0  0
  4  6  2  0  0  0  0
  5 23  1  0  0  0  0
  5 24  1  0  0  0  0
  5 25  1  0  0  0  0
  6  7  1  0  0  0  0
  7  8  1  0  0  0  0
  7 18  2  0  0  0  0
  8  9  1  0  0  0  0
  8 26  1  0  0  0  0
  9 10  2  0  0  0  0
  9 11  1  0  0  0  0
 11 17  1  0  0  0  0
 11 12  1  0  0  0  0
 11 27  1  0  0  0  0
 12 13  1  0  0  0  0
 12 28  1  0  0  0  0
 12 29  1  0  0  0  0
 13 14  1  0  0  0  0
 13 15  1  0  0  0  0
 14 30  1  0  0  0  0
 14 31  1  0  0  0  0
 14 32  1  0  0  0  0
 15 16  1  0  0  0  0
 15 33  1  0  0  0  0
 15 34  1  0  0  0  0
 16 17  1  0  0  0  0
 16 35  1  0  0  0  0
 16 36  1  0  0  0  0
 18 37  1  0  0  0  0
M  END
> <s_m_source_file>
AV-unprocessed.smi

> <i_m_source_file_index>
3314

> <i_lp_mmshare_version>
43012

> <i_f3d_flags>
0

> <s_epik_input>
W0NIM11jMVtjSF1jKFtDSDNdKW5jKFtjSF0xKVtOSF1DKD1PKVtDQEBIXTJbQ0gyXU4oW0NIM10pW0NIMl1bQ0gyXU8y

> <s_epik_cmdline>
J2VwaWtfcHl0aG9uJywgJy1waCcsICc3LjAnLCAnLXRuJywgJzgnLCAnLW1hJywgJzIwMCcsICctbWV0YWxfYmluZGluZycsICctaW1hZScsICc8aW5maWxlLm1hZT4nLCAnLW9tYWUnLCAnPG91dGZpbGUubWFlPic=

> <r_epik_Ionization_Penalty>
0.55509

> <r_epik_Ionization_Penalty_Charging>
0

> <r_epik_Ionization_Penalty_Neutral>
0.55509

> <r_epik_State_Penalty>
0.632277

> <r_epik_Charging_Adjusted_Penalty>
0.632277

> <i_epik_Tot_Q>
0

> <i_epik_Tot_abs_Q>
0

> <r_epik_Metal_State_Penalty>
0.606221

> <b_epik_Metal_Only>
0

> <s_lp_Force_Field>
OPLS_2005

> <r_lp_Energy>
21.1919

> <b_lp_Chiralities_Consistent>
1

> <s_lp_Variant>
AV-unprocessed.smi:3314-6

> <Gold.Version>
5.8.1

> <Gold.Id.Protein>
6NUR|6NUR_protein|mol2

> <Gold.PLP.Fitness>
40.6017

> <Gold.PLP.PLP>
-39.0854

> <Gold.PLP.part.hbond>
-1.0000

> <Gold.PLP.part.metal>
0.0000

> <Gold.PLP.part.buried>
-5.9665

> <Gold.PLP.part.nonpolar>
-37.5455

> <Gold.PLP.part.repulsive>
4.7560

> <Gold.PLP.ligand.clash>
0.0000

> <Gold.PLP.ligand.torsion>
0.7429

> <Gold.PLP.Chemscore.Hbond>
1.0000

> <Gold.PLP.Chemscore.CHOScore>
0.0000

> <Gold.PLP.Chemscore.Metal>
0.0000

> <Gold.Chemscore.Hbonds>
donor molecule, donor type, donor heavy atom, donor atom, acceptor molecule, acceptor atom, score
      L1  H     8    26       P1  8028  1.00

> <Gold.PLP.Chemscore.Internal.Correction>
0.0020

> <Gold.Rescore>
     Score         DG    S(hbond)    S(metal)    S(lipo)     H(rot)  DE(clash)    DE(int)     intcor
     14.44     -17.77       0.97        0.00      99.16       1.00       1.30       2.03       ----

> <Gold.Chemscore.Fitness>
14.4429

> <Gold.Chemscore.DG>
-17.7695

> <Gold.Chemscore.ZeroCoef>
-5.4800

> <Gold.Chemscore.Hbond>
0.9725

> <Gold.Chemscore.Metal>
0.0000

> <Gold.Chemscore.Lipo>
99.1573

> <Gold.Chemscore.Internal_Hbond>
0.0000

> <Gold.Chemscore.DEClash>
1.2984

> <Gold.Chemscore.DEInternal>
2.0282

> <Gold.Chemscore.Rot>
1.0000

> <Gold.Chemscore.Internal.Correction>
   9.000000E+99

> <Gold.Chemscore.Hbonds>
donor molecule, donor type, donor heavy atom, donor atom, acceptor molecule, acceptor atom, score
      L1  H     8    26       P1  8028  0.98

> <Gold.Chemscore.Hbond.Weighted>
-3.2481

> <Gold.Chemscore.Metal.Weighted>
-0.0000

> <Gold.Chemscore.Lipo.Weighted>
-11.6014

> <Gold.Chemscore.Internal_Hbond.Weighted>
0.0000

> <Gold.Chemscore.DEClash.Weighted>
1.2984

> <Gold.Chemscore.DEInternal.Weighted>
2.0282

> <Gold.Chemscore.Rot.Weighted>
2.5600

> <Gold.Chemscore.Internal.Correction.Weighted>
   9.000000E+99

> <Gold.Protein.RotatedTorsions>
[ 6907 6896 6895 6894 ] final  153.35 input  -60.11 | X-H torsion
[ 7974 7965 7964 7962 ] final  -57.61 input  175.53 | X-H torsion
[ 8008 7997 7996 7995 ] final  121.66 input   59.86 | X-H torsion
[ 10167 10162 10161 10158 ] final -136.66 input  -65.29 | X-H torsion
[ 10718 10713 10712 10709 ] final  -39.39 input   66.30 | X-H torsion
[ 10763 10752 10751 10750 ] final   18.42 input  -60.55 | X-H torsion
[ 11005 11000 10999 10996 ] final   48.08 input  -57.11 | X-H torsion

> <Gold.Protein.ActiveResidues>
 VAL166  LYS551  ARG553  GLY616  TRP617  ASP618  TYR619  PRO620  LYS621  CYS622 
 ASP623  PHE694  ASN695  SER759  ASP760  ASP761  ALA762  ILE779  LEU786  VAL792 
 PHE793  MET794  SER795  GLU796  ALA797  LYS798  CYS799  TRP800  GLU811  SER814 

> <Gold.Protein.RotatedAtoms>
  152.0739  133.4120  159.4471 H   0  0  0  0  0  0  0  0  0  0  0  0  # atno 6907 bound_to 6896
  150.6863  134.3059  159.4735 H   0  0  0  0  0  0  0  0  0  0  0  0  # atno 6908 bound_to 6896
  152.0894  134.9417  160.0623 H   0  0  0  0  0  0  0  0  0  0  0  0  # atno 6909 bound_to 6896
  145.8490  140.8365  142.9995 H   0  0  0  0  0  0  0  0  0  0  0  0  # atno 7974 bound_to 7965
  156.2696  140.2803  156.1344 H   0  0  0  0  0  0  0  0  0  0  0  0  # atno 8008 bound_to 7997
  155.1020  140.0390  157.2717 H   0  0  0  0  0  0  0  0  0  0  0  0  # atno 8009 bound_to 7997
  154.6808  140.2608  155.6916 H   0  0  0  0  0  0  0  0  0  0  0  0  # atno 8010 bound_to 7997
  139.8656  143.7022  152.2645 H   0  0  0  0  0  0  0  0  0  0  0  0  # atno 10167 bound_to 10162
  156.2930  130.4230  149.8219 H   0  0  0  0  0  0  0  0  0  0  0  0  # atno 10718 bound_to 10713
  153.1251  135.6728  153.9271 H   0  0  0  0  0  0  0  0  0  0  0  0  # atno 10763 bound_to 10752
  153.8774  135.3062  155.3445 H   0  0  0  0  0  0  0  0  0  0  0  0  # atno 10764 bound_to 10752
  154.7657  135.4965  153.9630 H   0  0  0  0  0  0  0  0  0  0  0  0  # atno 10765 bound_to 10752
  140.1223  134.4814  155.8588 H   0  0  0  0  0  0  0  0  0  0  0  0  # atno 11005 bound_to 11000
  144.6730  140.0925  143.7464 LP  0  0  0  0  0  0  0  0  0  0  0  0  # atno 17320 bound_to 7965
  145.9379  139.2649  143.1286 LP  0  0  0  0  0  0  0  0  0  0  0  0  # atno 17321 bound_to 7965
  139.7332  144.7577  151.0768 LP  0  0  0  0  0  0  0  0  0  0  0  0  # atno 17342 bound_to 10162
  140.7768  143.5062  150.9709 LP  0  0  0  0  0  0  0  0  0  0  0  0  # atno 17343 bound_to 10162
  156.5625  130.8390  151.3333 LP  0  0  0  0  0  0  0  0  0  0  0  0  # atno 17370 bound_to 10713
  157.7347  130.9751  150.2046 LP  0  0  0  0  0  0  0  0  0  0  0  0  # atno 17371 bound_to 10713
  141.2154  133.6765  156.6911 LP  0  0  0  0  0  0  0  0  0  0  0  0  # atno 17394 bound_to 11000
  140.2950  134.8210  157.4049 LP  0  0  0  0  0  0  0  0  0  0  0  0  # atno 17395 bound_to 11000

$$$$
