AV-unprocessed.smi:573|AV-procd|sdf|2971|dock8
  -GOLD-   2262023473D 1   1.00000     0.00000
 Structure written by MMmdl.
 44 46  0  0  0  0  0  0  0  0  1 V2000
  145.9054  143.0716  154.7673 C   0  0  0  0  0  0  0  0  0  0  0  0
  146.5085  142.0519  153.7884 C   0  0  2  0  0  0  0  0  0  0  0  0
  146.0494  140.7510  154.0928 O   0  0  0  0  0  0  0  0  0  0  0  0
  148.0479  142.0515  153.7175 C   0  0  0  0  0  0  0  0  0  0  0  0
  148.6783  141.9055  155.0185 N   0  0  0  0  0  0  0  0  0  0  0  0
  149.6892  141.0703  155.4788 C   0  0  0  0  0  0  0  0  0  0  0  0
  150.3160  140.1722  154.7209 N   0  0  0  0  0  0  0  0  0  0  0  0
  151.2085  139.6085  155.6132 C   0  0  0  0  0  0  0  0  0  0  0  0
  152.1673  138.5867  155.4285 C   0  0  0  0  0  0  0  0  0  0  0  0
  152.9789  138.1666  156.5028 C   0  0  0  0  0  0  0  0  0  0  0  0
  152.8428  138.7591  157.7750 C   0  0  0  0  0  0  0  0  0  0  0  0
  151.8944  139.7793  157.9814 C   0  0  0  0  0  0  0  0  0  0  0  0
  151.0883  140.1979  156.9057 C   0  0  0  0  0  0  0  0  0  0  0  0
  150.0855  141.1537  156.7703 N   0  0  0  0  0  0  0  0  0  0  0  0
  149.5828  142.0418  157.8091 C   0  0  0  0  0  0  0  0  0  0  0  0
  150.6052  143.1271  158.1839 C   0  0  2  0  0  0  0  0  0  0  0  0
  151.7269  142.5782  159.0858 C   0  0  0  0  0  0  0  0  0  0  0  0
  152.6888  143.7011  159.4902 C   0  0  0  0  0  0  0  0  0  0  0  0
  151.8992  144.8638  160.1013 C   0  0  0  0  0  0  0  0  0  0  0  0
  150.7653  145.2958  159.1576 C   0  0  0  0  0  0  0  0  0  0  0  0
  149.9277  144.1825  158.8637 O   0  0  0  0  0  0  0  0  0  0  0  0
  146.2559  144.0799  154.5456 H   0  0  0  0  0  0  0  0  0  0  0  0
  146.1698  142.8459  155.8008 H   0  0  0  0  0  0  0  0  0  0  0  0
  144.8172  143.0786  154.7021 H   0  0  0  0  0  0  0  0  0  0  0  0
  146.1334  142.2821  152.7909 H   0  0  0  0  0  0  0  0  0  0  0  0
  145.3282  140.5460  153.5178 H   0  0  0  0  0  0  0  0  0  0  0  0
  148.4001  141.2566  153.0595 H   0  0  0  0  0  0  0  0  0  0  0  0
  148.3905  142.9891  153.2781 H   0  0  0  0  0  0  0  0  0  0  0  0
  148.3571  142.5817  155.6959 H   0  0  0  0  0  0  0  0  0  0  0  0
  152.2780  138.1247  154.4588 H   0  0  0  0  0  0  0  0  0  0  0  0
  153.7085  137.3850  156.3501 H   0  0  0  0  0  0  0  0  0  0  0  0
  153.4667  138.4292  158.5928 H   0  0  0  0  0  0  0  0  0  0  0  0
  151.7864  140.2328  158.9554 H   0  0  0  0  0  0  0  0  0  0  0  0
  148.6585  142.5007  157.4569 H   0  0  0  0  0  0  0  0  0  0  0  0
  149.3146  141.4480  158.6837 H   0  0  0  0  0  0  0  0  0  0  0  0
  151.0440  143.5244  157.2667 H   0  0  0  0  0  0  0  0  0  0  0  0
  151.2936  142.1297  159.9809 H   0  0  0  0  0  0  0  0  0  0  0  0
  152.2731  141.7867  158.5719 H   0  0  0  0  0  0  0  0  0  0  0  0
  153.4312  143.3310  160.1976 H   0  0  0  0  0  0  0  0  0  0  0  0
  153.2358  144.0493  158.6133 H   0  0  0  0  0  0  0  0  0  0  0  0
  151.4774  144.5570  161.0591 H   0  0  0  0  0  0  0  0  0  0  0  0
  152.5621  145.7047  160.3058 H   0  0  0  0  0  0  0  0  0  0  0  0
  150.1632  146.0741  159.6267 H   0  0  0  0  0  0  0  0  0  0  0  0
  151.1653  145.7169  158.2340 H   0  0  0  0  0  0  0  0  0  0  0  0
  1  2  1  0  0  0  0
  1 22  1  0  0  0  0
  1 23  1  0  0  0  0
  1 24  1  0  0  0  0
  2  3  1  0  0  0  0
  2  4  1  0  0  0  0
  2 25  1  0  0  0  0
  3 26  1  0  0  0  0
  4  5  1  0  0  0  0
  4 27  1  0  0  0  0
  4 28  1  0  0  0  0
  5  6  1  0  0  0  0
  5 29  1  0  0  0  0
  6 14  1  0  0  0  0
  6  7  2  0  0  0  0
  7  8  1  0  0  0  0
  8 13  2  0  0  0  0
  8  9  1  0  0  0  0
  9 10  2  0  0  0  0
  9 30  1  0  0  0  0
 10 11  1  0  0  0  0
 10 31  1  0  0  0  0
 11 12  2  0  0  0  0
 11 32  1  0  0  0  0
 12 13  1  0  0  0  0
 12 33  1  0  0  0  0
 13 14  1  0  0  0  0
 14 15  1  0  0  0  0
 15 16  1  0  0  0  0
 15 34  1  0  0  0  0
 15 35  1  0  0  0  0
 16 21  1  0  0  0  0
 16 17  1  0  0  0  0
 16 36  1  0  0  0  0
 17 18  1  0  0  0  0
 17 37  1  0  0  0  0
 17 38  1  0  0  0  0
 18 19  1  0  0  0  0
 18 39  1  0  0  0  0
 18 40  1  0  0  0  0
 19 20  1  0  0  0  0
 19 41  1  0  0  0  0
 19 42  1  0  0  0  0
 20 21  1  0  0  0  0
 20 43  1  0  0  0  0
 20 44  1  0  0  0  0
M  END
> <s_m_source_file>
AV-unprocessed.smi

> <i_m_source_file_index>
573

> <i_lp_mmshare_version>
43012

> <i_f3d_flags>
0

> <s_epik_input>
W0NIM11bQ0BIXShbT0hdKVtDSDJdW05IXWMobjEpbihjKGMxMilbY0hdW2NIXVtjSF1bY0hdMilbQ0gyXVtDQEBIXTNbQ0gyXVtDSDJdW0NIMl1bQ0gyXU8z

> <s_epik_cmdline>
J2VwaWtfcHl0aG9uJywgJy1waCcsICc3LjAnLCAnLXRuJywgJzgnLCAnLW1hJywgJzIwMCcsICctbWV0YWxfYmluZGluZycsICctaW1hZScsICc8aW5maWxlLm1hZT4nLCAnLW9tYWUnLCAnPG91dGZpbGUubWFlPic=

> <r_epik_Ionization_Penalty>
1.30635

> <r_epik_Ionization_Penalty_Charging>
0

> <r_epik_Ionization_Penalty_Neutral>
1.30635

> <r_epik_State_Penalty>
1.38073

> <r_epik_Charging_Adjusted_Penalty>
1.38073

> <i_epik_Tot_Q>
0

> <i_epik_Tot_abs_Q>
0

> <r_epik_Metal_State_Penalty>
0.00547412

> <b_epik_Metal_Only>
0

> <s_lp_Force_Field>
OPLS_2005

> <r_lp_Energy>
12.415

> <b_lp_Chiralities_Consistent>
1

> <s_lp_Variant>
AV-unprocessed.smi:573-5

> <Gold.Version>
5.8.1

> <Gold.Id.Protein>
6NUR|6NUR_protein|mol2

> <Gold.PLP.Fitness>
47.9186

> <Gold.PLP.PLP>
-42.2482

> <Gold.PLP.part.hbond>
-3.0000

> <Gold.PLP.part.metal>
0.0000

> <Gold.PLP.part.buried>
-4.6793

> <Gold.PLP.part.nonpolar>
-35.5888

> <Gold.PLP.part.repulsive>
0.4029

> <Gold.PLP.ligand.clash>
0.0000

> <Gold.PLP.ligand.torsion>
0.3596

> <Gold.PLP.Chemscore.Hbond>
2.1247

> <Gold.PLP.Chemscore.CHOScore>
0.0000

> <Gold.PLP.Chemscore.Metal>
0.0000

> <Gold.Chemscore.Hbonds>
donor molecule, donor type, donor heavy atom, donor atom, acceptor molecule, acceptor atom, score
      L1  H     3    26       P1 10175  1.00
      L1  H     5    29       P1  8028  0.30
      P1  H  7989  7998       L1     7  0.85

> <Gold.PLP.Chemscore.Internal.Correction>
0.0154

> <Gold.Rescore>
     Score         DG    S(hbond)    S(metal)    S(lipo)     H(rot)  DE(clash)    DE(int)     intcor
     17.20     -18.15       1.40        0.00     112.67       2.02       0.49       0.46       ----

> <Gold.Chemscore.Fitness>
17.1997

> <Gold.Chemscore.DG>
-18.1478

> <Gold.Chemscore.ZeroCoef>
-5.4800

> <Gold.Chemscore.Hbond>
1.3960

> <Gold.Chemscore.Metal>
0.0000

> <Gold.Chemscore.Lipo>
112.6717

> <Gold.Chemscore.Internal_Hbond>
0.0000

> <Gold.Chemscore.DEClash>
0.4922

> <Gold.Chemscore.DEInternal>
0.4560

> <Gold.Chemscore.Rot>
2.0224

> <Gold.Chemscore.Internal.Correction>
   9.000000E+99

> <Gold.Chemscore.Hbonds>
donor molecule, donor type, donor heavy atom, donor atom, acceptor molecule, acceptor atom, score
      L1  H     3    26       P1 10175  0.97
      L1  H     5    29       P1  8028  0.29
      P1  H  7989  7998       L1     7  0.13

> <Gold.Chemscore.Hbond.Weighted>
-4.6625

> <Gold.Chemscore.Metal.Weighted>
-0.0000

> <Gold.Chemscore.Lipo.Weighted>
-13.1826

> <Gold.Chemscore.Internal_Hbond.Weighted>
0.0000

> <Gold.Chemscore.DEClash.Weighted>
0.4922

> <Gold.Chemscore.DEInternal.Weighted>
0.4560

> <Gold.Chemscore.Rot.Weighted>
5.1773

> <Gold.Chemscore.Internal.Correction.Weighted>
   9.000000E+99

> <Gold.Protein.RotatedTorsions>
[ 6907 6896 6895 6894 ] final  -43.65 input  -60.11 | X-H torsion
[ 7974 7965 7964 7962 ] final -134.69 input  175.53 | X-H torsion
[ 8008 7997 7996 7995 ] final -171.07 input   59.86 | X-H torsion
[ 10167 10162 10161 10158 ] final  -30.16 input  -65.29 | X-H torsion
[ 10718 10713 10712 10709 ] final  -85.09 input   66.30 | X-H torsion
[ 10763 10752 10751 10750 ] final -130.73 input  -60.55 | X-H torsion
[ 11005 11000 10999 10996 ] final -125.76 input  -57.11 | X-H torsion

> <Gold.Protein.ActiveResidues>
 VAL166  LYS551  ARG553  GLY616  TRP617  ASP618  TYR619  PRO620  LYS621  CYS622 
 ASP623  PHE694  ASN695  SER759  ASP760  ASP761  ALA762  ILE779  LEU786  VAL792 
 PHE793  MET794  SER795  GLU796  ALA797  LYS798  CYS799  TRP800  GLU811  SER814 

> <Gold.Protein.RotatedAtoms>
  150.9416  134.8824  159.7615 H   0  0  0  0  0  0  0  0  0  0  0  0  # atno 6907 bound_to 6896
  152.5082  134.3934  159.9401 H   0  0  0  0  0  0  0  0  0  0  0  0  # atno 6908 bound_to 6896
  151.3954  133.3735  159.2761 H   0  0  0  0  0  0  0  0  0  0  0  0  # atno 6909 bound_to 6896
  144.9080  140.6859  143.5043 H   0  0  0  0  0  0  0  0  0  0  0  0  # atno 7974 bound_to 7965
  155.9267  140.1084  157.1164 H   0  0  0  0  0  0  0  0  0  0  0  0  # atno 8008 bound_to 7997
  154.4063  140.1245  156.4815 H   0  0  0  0  0  0  0  0  0  0  0  0  # atno 8009 bound_to 7997
  155.7129  140.3470  155.4984 H   0  0  0  0  0  0  0  0  0  0  0  0  # atno 8010 bound_to 7997
  140.7252  143.3870  151.1497 H   0  0  0  0  0  0  0  0  0  0  0  0  # atno 10167 bound_to 10162
  156.0000  130.4719  150.4509 H   0  0  0  0  0  0  0  0  0  0  0  0  # atno 10718 bound_to 10713
  154.8754  135.3853  154.4131 H   0  0  0  0  0  0  0  0  0  0  0  0  # atno 10763 bound_to 10752
  153.4843  135.7030  153.5925 H   0  0  0  0  0  0  0  0  0  0  0  0  # atno 10764 bound_to 10752
  153.4327  135.3875  155.2147 H   0  0  0  0  0  0  0  0  0  0  0  0  # atno 10765 bound_to 10752
  140.9736  134.0771  157.3843 H   0  0  0  0  0  0  0  0  0  0  0  0  # atno 11005 bound_to 11000
  145.3502  139.1708  143.4439 LP  0  0  0  0  0  0  0  0  0  0  0  0  # atno 17320 bound_to 7965
  146.3144  140.3553  142.8660 LP  0  0  0  0  0  0  0  0  0  0  0  0  # atno 17321 bound_to 7965
  139.7469  143.8838  152.3066 LP  0  0  0  0  0  0  0  0  0  0  0  0  # atno 17342 bound_to 10162
  139.8678  144.7084  150.9023 LP  0  0  0  0  0  0  0  0  0  0  0  0  # atno 17343 bound_to 10162
  157.2542  131.0553  151.2361 LP  0  0  0  0  0  0  0  0  0  0  0  0  # atno 17370 bound_to 10713
  157.3499  130.7076  149.6434 LP  0  0  0  0  0  0  0  0  0  0  0  0  # atno 17371 bound_to 10713
  139.8922  135.0123  156.6831 LP  0  0  0  0  0  0  0  0  0  0  0  0  # atno 17394 bound_to 11000
  140.7292  133.9073  155.8199 LP  0  0  0  0  0  0  0  0  0  0  0  0  # atno 17395 bound_to 11000

$$$$
