AV-unprocessed.smi:580|AV-procd|sdf|2989|dock7
  -GOLD-   2262023493D 1   1.00000     0.00000
 Structure written by MMmdl.
 36 37  0  0  0  0  0  0  0  0  1 V2000
  147.2520  142.2210  153.8467 C   0  0  0  0  0  0  0  0  0  0  0  0
  148.4850  141.6517  154.4605 C   0  0  0  0  0  0  0  0  0  0  0  0
  149.0027  141.6988  155.7244 C   0  0  0  0  0  0  0  0  0  0  0  0
  150.1989  140.9421  155.6084 C   0  0  0  0  0  0  0  0  0  0  0  0
  151.0483  140.7462  156.7274 N   0  0  0  0  0  0  0  0  0  0  0  0
  151.4912  141.6762  157.5907 C   0  0  0  0  0  0  0  0  0  0  0  0
  151.2220  142.8768  157.5392 O   0  0  0  0  0  0  0  0  0  0  0  0
  152.2815  141.1339  158.5289 N   0  0  0  0  0  0  0  0  0  0  0  0
  152.9396  141.8717  159.6033 C   0  0  2  0  0  0  0  0  0  0  0  0
  153.4732  140.9035  160.6776 C   0  0  0  0  0  0  0  0  0  0  0  0
  154.1063  141.6626  161.8548 C   0  0  0  0  0  0  0  0  0  0  0  0
  153.1230  142.6732  162.4757 C   0  0  1  0  0  0  0  0  0  0  0  0
  153.7648  143.4347  163.6442 C   0  0  0  0  0  0  0  0  0  0  0  0
  152.5931  143.6378  161.3972 C   0  0  0  0  0  0  0  0  0  0  0  0
  151.9539  142.8786  160.2231 C   0  0  0  0  0  0  0  0  0  0  0  0
  150.3948  140.4769  154.3841 N   0  0  0  0  0  0  0  0  0  0  0  0
  149.2976  140.9296  153.6420 O   0  0  0  0  0  0  0  0  0  0  0  0
  146.5696  142.5891  154.6128 H   0  0  0  0  0  0  0  0  0  0  0  0
  146.7264  141.4662  153.2613 H   0  0  0  0  0  0  0  0  0  0  0  0
  147.4987  143.0516  153.1852 H   0  0  0  0  0  0  0  0  0  0  0  0
  148.5890  142.1942  156.5902 H   0  0  0  0  0  0  0  0  0  0  0  0
  151.3568  139.7978  156.8832 H   0  0  0  0  0  0  0  0  0  0  0  0
  152.4479  140.1388  158.4944 H   0  0  0  0  0  0  0  0  0  0  0  0
  153.7782  142.4341  159.1874 H   0  0  0  0  0  0  0  0  0  0  0  0
  152.6604  140.2767  161.0473 H   0  0  0  0  0  0  0  0  0  0  0  0
  154.2103  140.2273  160.2428 H   0  0  0  0  0  0  0  0  0  0  0  0
  154.4358  140.9499  162.6115 H   0  0  0  0  0  0  0  0  0  0  0  0
  155.0015  142.1820  161.5102 H   0  0  0  0  0  0  0  0  0  0  0  0
  152.2741  142.1155  162.8739 H   0  0  0  0  0  0  0  0  0  0  0  0
  154.6270  144.0147  163.3137 H   0  0  0  0  0  0  0  0  0  0  0  0
  154.1032  142.7484  164.4210 H   0  0  0  0  0  0  0  0  0  0  0  0
  153.0543  144.1245  164.1008 H   0  0  0  0  0  0  0  0  0  0  0  0
  151.8609  144.3189  161.8327 H   0  0  0  0  0  0  0  0  0  0  0  0
  153.4087  144.2593  161.0251 H   0  0  0  0  0  0  0  0  0  0  0  0
  151.6204  143.5892  159.4659 H   0  0  0  0  0  0  0  0  0  0  0  0
  151.0611  142.3578  160.5731 H   0  0  0  0  0  0  0  0  0  0  0  0
  1  2  1  0  0  0  0
  1 18  1  0  0  0  0
  1 19  1  0  0  0  0
  1 20  1  0  0  0  0
  2 17  1  0  0  0  0
  2  3  2  0  0  0  0
  3  4  1  0  0  0  0
  3 21  1  0  0  0  0
  4  5  1  0  0  0  0
  4 16  2  0  0  0  0
  5  6  1  0  0  0  0
  5 22  1  0  0  0  0
  6  7  2  0  0  0  0
  6  8  1  0  0  0  0
  8  9  1  0  0  0  0
  8 23  1  0  0  0  0
  9 15  1  0  0  0  0
  9 10  1  0  0  0  0
  9 24  1  0  0  0  0
 10 11  1  0  0  0  0
 10 25  1  0  0  0  0
 10 26  1  0  0  0  0
 11 12  1  0  0  0  0
 11 27  1  0  0  0  0
 11 28  1  0  0  0  0
 12 13  1  0  0  0  0
 12 14  1  0  0  0  0
 12 29  1  0  0  0  0
 13 30  1  0  0  0  0
 13 31  1  0  0  0  0
 13 32  1  0  0  0  0
 14 15  1  0  0  0  0
 14 33  1  0  0  0  0
 14 34  1  0  0  0  0
 15 35  1  0  0  0  0
 15 36  1  0  0  0  0
 16 17  1  0  0  0  0
M  END
> <s_m_source_file>
AV-unprocessed.smi

> <i_m_source_file_index>
580

> <i_lp_mmshare_version>
43012

> <i_f3d_flags>
0

> <s_epik_input>
W0NIM11jMVtjSF1jKG5vMSlbTkhdQyg9TylbTkhdW0NAQEhdMltDSDJdW0NIMl1bQ0BASF0oW0NIM10pW0NIMl1bQ0gyXTI=

> <s_epik_cmdline>
J2VwaWtfcHl0aG9uJywgJy1waCcsICc3LjAnLCAnLXRuJywgJzgnLCAnLW1hJywgJzIwMCcsICctbWV0YWxfYmluZGluZycsICctaW1hZScsICc8aW5maWxlLm1hZT4nLCAnLW9tYWUnLCAnPG91dGZpbGUubWFlPic=

> <r_lp_tautomer_probability>
1

> <r_epik_Ionization_Penalty>
2.357e-05

> <r_epik_Ionization_Penalty_Charging>
0

> <r_epik_Ionization_Penalty_Neutral>
2.357e-05

> <r_epik_State_Penalty>
-0

> <r_epik_Charging_Adjusted_Penalty>
0

> <i_epik_Tot_Q>
0

> <i_epik_Tot_abs_Q>
0

> <r_epik_Metal_State_Penalty>
-0

> <b_epik_Metal_Only>
0

> <s_lp_Force_Field>
OPLS_2005

> <r_lp_Energy>
6.68451

> <b_lp_Chiralities_Consistent>
1

> <s_lp_Variant>
AV-unprocessed.smi:580-1

> <Gold.Version>
5.8.1

> <Gold.Id.Protein>
6NUR|6NUR_protein|mol2

> <Gold.PLP.Fitness>
42.4551

> <Gold.PLP.PLP>
-37.7766

> <Gold.PLP.part.hbond>
-2.7903

> <Gold.PLP.part.metal>
0.0000

> <Gold.PLP.part.buried>
-3.4814

> <Gold.PLP.part.nonpolar>
-32.8889

> <Gold.PLP.part.repulsive>
3.5329

> <Gold.PLP.ligand.clash>
0.0000

> <Gold.PLP.ligand.torsion>
0.6022

> <Gold.PLP.Chemscore.Hbond>
1.9600

> <Gold.PLP.Chemscore.CHOScore>
0.0000

> <Gold.PLP.Chemscore.Metal>
0.0000

> <Gold.Chemscore.Hbonds>
donor molecule, donor type, donor heavy atom, donor atom, acceptor molecule, acceptor atom, score
      P1  H  7989  7998       L1    16  0.96
      P1  H  8011  8017       L1    17  0.93

> <Gold.PLP.Chemscore.Internal.Correction>
0.0029

> <Gold.Rescore>
     Score         DG    S(hbond)    S(metal)    S(lipo)     H(rot)  DE(clash)    DE(int)     intcor
     13.72     -17.37       0.97        0.00      95.89       1.00       1.69       1.96       ----

> <Gold.Chemscore.Fitness>
13.7221

> <Gold.Chemscore.DG>
-17.3670

> <Gold.Chemscore.ZeroCoef>
-5.4800

> <Gold.Chemscore.Hbond>
0.9663

> <Gold.Chemscore.Metal>
0.0000

> <Gold.Chemscore.Lipo>
95.8945

> <Gold.Chemscore.Internal_Hbond>
0.0000

> <Gold.Chemscore.DEClash>
1.6861

> <Gold.Chemscore.DEInternal>
1.9588

> <Gold.Chemscore.Rot>
1.0000

> <Gold.Chemscore.Internal.Correction>
   9.000000E+99

> <Gold.Chemscore.Hbonds>
donor molecule, donor type, donor heavy atom, donor atom, acceptor molecule, acceptor atom, score
      P1  H  7989  7998       L1    16  0.35
      P1  H  8011  8017       L1    17  0.16

> <Gold.Chemscore.Hbond.Weighted>
-3.2273

> <Gold.Chemscore.Metal.Weighted>
-0.0000

> <Gold.Chemscore.Lipo.Weighted>
-11.2197

> <Gold.Chemscore.Internal_Hbond.Weighted>
0.0000

> <Gold.Chemscore.DEClash.Weighted>
1.6861

> <Gold.Chemscore.DEInternal.Weighted>
1.9588

> <Gold.Chemscore.Rot.Weighted>
2.5600

> <Gold.Chemscore.Internal.Correction.Weighted>
   9.000000E+99

> <Gold.Protein.RotatedTorsions>
[ 6907 6896 6895 6894 ] final    4.25 input  -60.11 | X-H torsion
[ 7974 7965 7964 7962 ] final   -2.55 input  175.53 | X-H torsion
[ 8008 7997 7996 7995 ] final    7.69 input   59.86 | X-H torsion
[ 10167 10162 10161 10158 ] final  135.64 input  -65.29 | X-H torsion
[ 10718 10713 10712 10709 ] final -165.29 input   66.30 | X-H torsion
[ 10763 10752 10751 10750 ] final -145.14 input  -60.55 | X-H torsion
[ 11005 11000 10999 10996 ] final -149.32 input  -57.11 | X-H torsion

> <Gold.Protein.ActiveResidues>
 VAL166  LYS551  ARG553  GLY616  TRP617  ASP618  TYR619  PRO620  LYS621  CYS622 
 ASP623  PHE694  ASN695  SER759  ASP760  ASP761  ALA762  ILE779  LEU786  VAL792 
 PHE793  MET794  SER795  GLU796  ALA797  LYS798  CYS799  TRP800  GLU811  SER814 

> <Gold.Protein.RotatedAtoms>
  151.6382  135.1015  160.0135 H   0  0  0  0  0  0  0  0  0  0  0  0  # atno 6907 bound_to 6896
  152.4069  133.6898  159.6372 H   0  0  0  0  0  0  0  0  0  0  0  0  # atno 6908 bound_to 6896
  150.7962  133.8611  159.3273 H   0  0  0  0  0  0  0  0  0  0  0  0  # atno 6909 bound_to 6896
  146.2403  140.1588  142.8333 H   0  0  0  0  0  0  0  0  0  0  0  0  # atno 7974 bound_to 7965
  154.7571  140.2777  155.6245 H   0  0  0  0  0  0  0  0  0  0  0  0  # atno 8008 bound_to 7997
  156.2908  140.2667  156.2266 H   0  0  0  0  0  0  0  0  0  0  0  0  # atno 8009 bound_to 7997
  155.0064  140.0372  157.2371 H   0  0  0  0  0  0  0  0  0  0  0  0  # atno 8010 bound_to 7997
  139.5209  144.6506  151.5312 H   0  0  0  0  0  0  0  0  0  0  0  0  # atno 10167 bound_to 10162
  156.6513  130.9008  151.3013 H   0  0  0  0  0  0  0  0  0  0  0  0  # atno 10718 bound_to 10713
  154.8397  135.3421  154.6457 H   0  0  0  0  0  0  0  0  0  0  0  0  # atno 10763 bound_to 10752
  153.7069  135.6966  153.5052 H   0  0  0  0  0  0  0  0  0  0  0  0  # atno 10764 bound_to 10752
  153.2480  135.4362  155.0722 H   0  0  0  0  0  0  0  0  0  0  0  0  # atno 10765 bound_to 10752
  140.7519  134.3396  157.5123 H   0  0  0  0  0  0  0  0  0  0  0  0  # atno 11005 bound_to 11000
  145.0107  140.8711  143.5226 LP  0  0  0  0  0  0  0  0  0  0  0  0  # atno 17320 bound_to 7965
  145.1621  139.2452  143.5386 LP  0  0  0  0  0  0  0  0  0  0  0  0  # atno 17321 bound_to 7965
  140.6310  143.9076  150.6605 LP  0  0  0  0  0  0  0  0  0  0  0  0  # atno 17342 bound_to 10162
  140.2380  143.3685  152.1510 LP  0  0  0  0  0  0  0  0  0  0  0  0  # atno 17343 bound_to 10162
  157.7140  130.9474  150.1189 LP  0  0  0  0  0  0  0  0  0  0  0  0  # atno 17370 bound_to 10713
  156.2082  130.3665  149.8702 LP  0  0  0  0  0  0  0  0  0  0  0  0  # atno 17371 bound_to 10713
  139.8786  134.9147  156.3115 LP  0  0  0  0  0  0  0  0  0  0  0  0  # atno 17394 bound_to 11000
  140.9743  133.7308  156.0579 LP  0  0  0  0  0  0  0  0  0  0  0  0  # atno 17395 bound_to 11000

$$$$
