AV-unprocessed.smi:62|AV-procd|sdf|606|dock8
  -GOLD-   2262016503D 1   1.00000     0.00000
 Structure written by MMmdl.
 30 31  0  0  0  0  0  0  0  0  2 V2000
  152.0135  144.2651  159.2944 C   0  0  0  0  0  0  0  0  0  0  0  0
  152.5674  142.9373  159.1398 N   0  0  0  0  0  0  0  0  0  0  0  0
  152.0204  141.8446  158.5076 C   0  0  0  0  0  0  0  0  0  0  0  0
  152.9069  140.8087  158.6107 C   0  0  0  0  0  0  0  0  0  0  0  0
  152.7165  139.4216  158.0435 C   0  0  0  0  0  0  0  0  0  0  0  0
  152.5115  139.4298  156.5983 N   0  0  0  0  0  0  0  0  0  0  0  0
  151.1523  139.7456  156.1919 C   0  0  0  0  0  0  0  0  0  0  0  0
  150.9974  139.2315  154.7538 C   0  0  0  0  0  0  0  0  0  0  0  0
  152.1852  138.2727  154.5692 C   0  0  2  0  0  0  0  0  0  0  0  0
  151.8013  137.0186  154.0455 O   0  0  0  0  0  0  0  0  0  0  0  0
  152.7719  138.1490  155.9763 C   0  0  0  0  0  0  0  0  0  0  0  0
  153.9955  141.3856  159.3501 C   0  0  0  0  0  0  0  0  0  0  0  0
  155.2289  140.6047  159.7217 C   0  0  0  0  0  0  0  0  0  0  0  0
  155.5826  139.6216  159.0346 O   0  0  0  0  0  0  0  0  0  0  0  0
  155.8680  140.9714  160.7328 O   0  5  0  0  0  0  0  0  0  0  0  0
  153.7788  142.6590  159.6553 N   0  0  0  0  0  0  0  0  0  0  0  0
  150.9876  144.2879  158.9255 H   0  0  0  0  0  0  0  0  0  0  0  0
  152.6109  144.9806  158.7287 H   0  0  0  0  0  0  0  0  0  0  0  0
  152.0171  144.5478  160.3477 H   0  0  0  0  0  0  0  0  0  0  0  0
  151.0517  141.8918  158.0331 H   0  0  0  0  0  0  0  0  0  0  0  0
  153.5780  138.7967  158.2796 H   0  0  0  0  0  0  0  0  0  0  0  0
  151.8719  138.9264  158.5247 H   0  0  0  0  0  0  0  0  0  0  0  0
  150.4408  139.2247  156.8346 H   0  0  0  0  0  0  0  0  0  0  0  0
  150.9495  140.8140  156.2724 H   0  0  0  0  0  0  0  0  0  0  0  0
  150.0335  138.7375  154.6239 H   0  0  0  0  0  0  0  0  0  0  0  0
  151.0527  140.0497  154.0351 H   0  0  0  0  0  0  0  0  0  0  0  0
  152.9216  138.7278  153.9053 H   0  0  0  0  0  0  0  0  0  0  0  0
  151.5697  137.1326  153.1365 H   0  0  0  0  0  0  0  0  0  0  0  0
  153.8371  137.9158  155.9644 H   0  0  0  0  0  0  0  0  0  0  0  0
  152.2605  137.3581  156.5281 H   0  0  0  0  0  0  0  0  0  0  0  0
  1  2  1  0  0  0  0
  1 17  1  0  0  0  0
  1 18  1  0  0  0  0
  1 19  1  0  0  0  0
  2 16  1  0  0  0  0
  2  3  1  0  0  0  0
  3  4  2  0  0  0  0
  3 20  1  0  0  0  0
  4  5  1  0  0  0  0
  4 12  1  0  0  0  0
  5  6  1  0  0  0  0
  5 21  1  0  0  0  0
  5 22  1  0  0  0  0
  6 11  1  0  0  0  0
  6  7  1  0  0  0  0
  7  8  1  0  0  0  0
  7 23  1  0  0  0  0
  7 24  1  0  0  0  0
  8  9  1  0  0  0  0
  8 25  1  0  0  0  0
  8 26  1  0  0  0  0
  9 10  1  0  0  0  0
  9 11  1  0  0  0  0
  9 27  1  0  0  0  0
 10 28  1  0  0  0  0
 11 29  1  0  0  0  0
 11 30  1  0  0  0  0
 12 13  1  0  0  0  0
 12 16  2  0  0  0  0
 13 14  2  0  0  0  0
 13 15  1  0  0  0  0
M  CHG  1  15  -1
M  END
> <s_m_source_file>
AV-unprocessed.smi

> <i_m_source_file_index>
62

> <i_lp_mmshare_version>
43012

> <i_f3d_flags>
0

> <s_epik_input>
W0NIM11uMVtjSF1jKGMobjEpQyg9TylbT0hdKVtDSDJdTjJbQ0gyXVtDSDJdW0NAQEhdKFtPSF0pW0NIMl0y

> <s_epik_cmdline>
J2VwaWtfcHl0aG9uJywgJy1waCcsICc3LjAnLCAnLXRuJywgJzgnLCAnLW1hJywgJzIwMCcsICctbWV0YWxfYmluZGluZycsICctaW1hZScsICc8aW5maWxlLm1hZT4nLCAnLW9tYWUnLCAnPG91dGZpbGUubWFlPic=

> <r_epik_Ionization_Penalty>
1.46526

> <r_epik_Ionization_Penalty_Charging>
0.000523675

> <r_epik_Ionization_Penalty_Neutral>
1.46474

> <r_epik_State_Penalty>
1.55202

> <r_epik_Charging_Adjusted_Penalty>
1.55254

> <i_epik_Tot_Q>
-1

> <i_epik_Tot_abs_Q>
1

> <r_epik_Metal_State_Penalty>
1.552

> <b_epik_Metal_Only>
0

> <s_lp_Force_Field>
OPLS_2005

> <r_lp_Energy>
37.4103

> <b_lp_Chiralities_Consistent>
1

> <s_lp_Variant>
AV-unprocessed.smi:62-6

> <Gold.Version>
5.8.1

> <Gold.Id.Protein>
6NUR|6NUR_protein|mol2

> <Gold.PLP.Fitness>
45.3528

> <Gold.PLP.PLP>
-33.8798

> <Gold.PLP.part.hbond>
-4.9836

> <Gold.PLP.part.metal>
0.0000

> <Gold.PLP.part.buried>
-3.8444

> <Gold.PLP.part.nonpolar>
-25.1632

> <Gold.PLP.part.repulsive>
0.0000

> <Gold.PLP.ligand.clash>
0.0000

> <Gold.PLP.ligand.torsion>
0.4774

> <Gold.PLP.Chemscore.Hbond>
4.1389

> <Gold.PLP.Chemscore.CHOScore>
0.0000

> <Gold.PLP.Chemscore.Metal>
0.0000

> <Gold.Chemscore.Hbonds>
donor molecule, donor type, donor heavy atom, donor atom, acceptor molecule, acceptor atom, score
      L1  H    10    28       P1  7949  0.76
      P1  H  7997  8009       L1    14  2.00
      P1  H  7997  8010       L1     6  0.38
      P1  H 10752 10763       L1    10  1.00

> <Gold.PLP.Chemscore.Internal.Correction>
0.0109

> <Gold.Rescore>
     Score         DG    S(hbond)    S(metal)    S(lipo)     H(rot)  DE(clash)    DE(int)     intcor
     16.86     -17.74       2.61        0.00      69.00       1.77       0.09       0.79       ----

> <Gold.Chemscore.Fitness>
16.8561

> <Gold.Chemscore.DG>
-17.7369

> <Gold.Chemscore.ZeroCoef>
-5.4800

> <Gold.Chemscore.Hbond>
2.6074

> <Gold.Chemscore.Metal>
0.0000

> <Gold.Chemscore.Lipo>
68.9977

> <Gold.Chemscore.Internal_Hbond>
0.0000

> <Gold.Chemscore.DEClash>
0.0910

> <Gold.Chemscore.DEInternal>
0.7899

> <Gold.Chemscore.Rot>
1.7674

> <Gold.Chemscore.Internal.Correction>
   9.000000E+99

> <Gold.Chemscore.Hbonds>
donor molecule, donor type, donor heavy atom, donor atom, acceptor molecule, acceptor atom, score
      L1  H    10    28       P1  7949  0.66
      P1  H  7997  8009       L1    14  0.70
      P1  H  7997  8010       L1     6  0.01
      P1  H 10752 10763       L1    10  0.62

> <Gold.Chemscore.Hbond.Weighted>
-8.7087

> <Gold.Chemscore.Metal.Weighted>
-0.0000

> <Gold.Chemscore.Lipo.Weighted>
-8.0727

> <Gold.Chemscore.Internal_Hbond.Weighted>
0.0000

> <Gold.Chemscore.DEClash.Weighted>
0.0910

> <Gold.Chemscore.DEInternal.Weighted>
0.7899

> <Gold.Chemscore.Rot.Weighted>
4.5245

> <Gold.Chemscore.Internal.Correction.Weighted>
   9.000000E+99

> <Gold.Protein.RotatedTorsions>
[ 6907 6896 6895 6894 ] final  -33.10 input  -60.11 | X-H torsion
[ 7974 7965 7964 7962 ] final  -76.86 input  175.53 | X-H torsion
[ 8008 7997 7996 7995 ] final   96.64 input   59.86 | X-H torsion
[ 10167 10162 10161 10158 ] final   44.16 input  -65.29 | X-H torsion
[ 10718 10713 10712 10709 ] final   78.37 input   66.30 | X-H torsion
[ 10763 10752 10751 10750 ] final   33.20 input  -60.55 | X-H torsion
[ 11005 11000 10999 10996 ] final  -63.50 input  -57.11 | X-H torsion

> <Gold.Protein.ActiveResidues>
 VAL166  LYS551  ARG553  GLY616  TRP617  ASP618  TYR619  PRO620  LYS621  CYS622 
 ASP623  PHE694  ASN695  SER759  ASP760  ASP761  ALA762  ILE779  LEU786  VAL792 
 PHE793  MET794  SER795  GLU796  ALA797  LYS798  CYS799  TRP800  GLU811  SER814 

> <Gold.Protein.RotatedAtoms>
  151.0700  134.9792  159.8303 H   0  0  0  0  0  0  0  0  0  0  0  0  # atno 6907 bound_to 6896
  152.5407  134.2311  159.8835 H   0  0  0  0  0  0  0  0  0  0  0  0  # atno 6908 bound_to 6896
  151.2335  133.4394  159.2638 H   0  0  0  0  0  0  0  0  0  0  0  0  # atno 6909 bound_to 6896
  145.6073  140.9395  143.1208 H   0  0  0  0  0  0  0  0  0  0  0  0  # atno 7974 bound_to 7965
  156.0818  140.3269  155.7703 H   0  0  0  0  0  0  0  0  0  0  0  0  # atno 8008 bound_to 7997
  155.5141  140.0579  157.2936 H   0  0  0  0  0  0  0  0  0  0  0  0  # atno 8009 bound_to 7997
  154.4586  140.1955  156.0324 H   0  0  0  0  0  0  0  0  0  0  0  0  # atno 8010 bound_to 7997
  140.3371  144.2517  150.6160 H   0  0  0  0  0  0  0  0  0  0  0  0  # atno 10167 bound_to 10162
  157.6742  130.9865  150.1776 H   0  0  0  0  0  0  0  0  0  0  0  0  # atno 10718 bound_to 10713
  153.0224  135.6393  154.1474 H   0  0  0  0  0  0  0  0  0  0  0  0  # atno 10763 bound_to 10752
  154.1207  135.2847  155.3210 H   0  0  0  0  0  0  0  0  0  0  0  0  # atno 10764 bound_to 10752
  154.6265  135.5507  153.7695 H   0  0  0  0  0  0  0  0  0  0  0  0  # atno 10765 bound_to 10752
  141.1395  133.6653  156.5690 H   0  0  0  0  0  0  0  0  0  0  0  0  # atno 11005 bound_to 11000
  144.7284  139.7801  143.7356 LP  0  0  0  0  0  0  0  0  0  0  0  0  # atno 17320 bound_to 7965
  146.1531  139.4620  143.0036 LP  0  0  0  0  0  0  0  0  0  0  0  0  # atno 17321 bound_to 7965
  140.5344  143.2236  151.8187 LP  0  0  0  0  0  0  0  0  0  0  0  0  # atno 17342 bound_to 10162
  139.4846  144.4680  151.9460 LP  0  0  0  0  0  0  0  0  0  0  0  0  # atno 17343 bound_to 10162
  156.2516  130.3701  149.8226 LP  0  0  0  0  0  0  0  0  0  0  0  0  # atno 17370 bound_to 10713
  156.5997  130.8541  151.3429 LP  0  0  0  0  0  0  0  0  0  0  0  0  # atno 17371 bound_to 10713
  140.3928  134.7425  157.4732 LP  0  0  0  0  0  0  0  0  0  0  0  0  # atno 17394 bound_to 11000
  140.0554  134.6071  155.8812 LP  0  0  0  0  0  0  0  0  0  0  0  0  # atno 17395 bound_to 11000

$$$$
