AV-unprocessed.smi:3338|AV-procd|sdf|12874|dock5
  -GOLD-   2272019273D 1   1.00000     0.00000
 Structure written by MMmdl.
 44 45  0  0  0  0  0  0  0  0  2 V2000
  143.8394  132.7191  149.1397 C   0  0  0  0  0  0  0  0  0  0  0  0
  143.8371  133.1157  150.6264 C   0  0  1  0  0  0  0  0  0  0  0  0
  144.7768  132.2437  151.4798 C   0  0  0  0  0  0  0  0  0  0  0  0
  146.2483  132.6113  151.2422 C   0  0  0  0  0  0  0  0  0  0  0  0
  146.4810  134.1169  151.4430 C   0  0  0  0  0  0  0  0  0  0  0  0
  145.5853  134.9171  150.5689 N   0  3  2  0  0  0  0  0  0  0  0  0
  145.8912  136.3680  150.6275 C   0  0  0  0  0  0  0  0  0  0  0  0
  145.8872  136.9069  152.0711 C   0  0  0  0  0  0  0  0  0  0  0  0
  146.7155  138.0998  152.1965 N   0  0  0  0  0  0  0  0  0  0  0  0
  146.8793  138.8036  153.3283 C   0  0  0  0  0  0  0  0  0  0  0  0
  146.3208  138.5062  154.3853 O   0  0  0  0  0  0  0  0  0  0  0  0
  147.8153  140.0214  153.2458 C   0  0  1  0  0  0  0  0  0  0  0  0
  147.1046  141.3488  153.5787 C   0  0  0  0  0  0  0  0  0  0  0  0
  148.9981  139.8184  154.0750 N   0  0  0  0  0  0  0  0  0  0  0  0
  149.8504  138.7325  154.0873 C   0  0  0  0  0  0  0  0  0  0  0  0
  150.8051  138.9700  155.0342 C   0  0  0  0  0  0  0  0  0  0  0  0
  150.4482  140.2417  155.5624 C   0  0  0  0  0  0  0  0  0  0  0  0
  149.3643  140.7433  154.9933 N   0  0  0  0  0  0  0  0  0  0  0  0
  144.1519  134.6122  150.8306 C   0  0  0  0  0  0  0  0  0  0  0  0
  144.8122  132.8806  148.6753 H   0  0  0  0  0  0  0  0  0  0  0  0
  143.1070  133.3015  148.5798 H   0  0  0  0  0  0  0  0  0  0  0  0
  143.5827  131.6666  149.0149 H   0  0  0  0  0  0  0  0  0  0  0  0
  142.8217  132.9446  150.9862 H   0  0  0  0  0  0  0  0  0  0  0  0
  144.5409  132.3894  152.5348 H   0  0  0  0  0  0  0  0  0  0  0  0
  144.6120  131.1854  151.2741 H   0  0  0  0  0  0  0  0  0  0  0  0
  146.8855  132.0442  151.9216 H   0  0  0  0  0  0  0  0  0  0  0  0
  146.5465  132.3238  150.2334 H   0  0  0  0  0  0  0  0  0  0  0  0
  146.3143  134.3908  152.4861 H   0  0  0  0  0  0  0  0  0  0  0  0
  147.5228  134.3476  151.2167 H   0  0  0  0  0  0  0  0  0  0  0  0
  146.8457  136.5596  150.1343 H   0  0  0  0  0  0  0  0  0  0  0  0
  145.1394  136.9210  150.0627 H   0  0  0  0  0  0  0  0  0  0  0  0
  144.8705  137.1679  152.3662 H   0  0  0  0  0  0  0  0  0  0  0  0
  146.2319  136.1558  152.7823 H   0  0  0  0  0  0  0  0  0  0  0  0
  147.2045  138.4094  151.3688 H   0  0  0  0  0  0  0  0  0  0  0  0
  148.1560  140.0906  152.2115 H   0  0  0  0  0  0  0  0  0  0  0  0
  146.2643  141.5245  152.9062 H   0  0  0  0  0  0  0  0  0  0  0  0
  147.7879  142.1917  153.4729 H   0  0  0  0  0  0  0  0  0  0  0  0
  146.7209  141.3635  154.5996 H   0  0  0  0  0  0  0  0  0  0  0  0
  149.7097  137.8897  153.4265 H   0  0  0  0  0  0  0  0  0  0  0  0
  151.6326  138.3324  155.3079 H   0  0  0  0  0  0  0  0  0  0  0  0
  150.9392  140.8101  156.3387 H   0  0  0  0  0  0  0  0  0  0  0  0
  143.5072  135.2066  150.1840 H   0  0  0  0  0  0  0  0  0  0  0  0
  143.9094  134.9016  151.8545 H   0  0  0  0  0  0  0  0  0  0  0  0
  145.7822  134.6224  149.6230 H   0  0  0  0  0  0  0  0  0  0  0  0
  1  2  1  0  0  0  0
  1 20  1  0  0  0  0
  1 21  1  0  0  0  0
  1 22  1  0  0  0  0
  2 19  1  0  0  0  0
  2  3  1  0  0  0  0
  2 23  1  0  0  0  0
  3  4  1  0  0  0  0
  3 24  1  0  0  0  0
  3 25  1  0  0  0  0
  4  5  1  0  0  0  0
  4 26  1  0  0  0  0
  4 27  1  0  0  0  0
  5  6  1  0  0  0  0
  5 28  1  0  0  0  0
  5 29  1  0  0  0  0
  6  7  1  0  0  0  0
  6 19  1  0  0  0  0
  6 44  1  0  0  0  0
  7  8  1  0  0  0  0
  7 30  1  0  0  0  0
  7 31  1  0  0  0  0
  8  9  1  0  0  0  0
  8 32  1  0  0  0  0
  8 33  1  0  0  0  0
  9 10  1  0  0  0  0
  9 34  1  0  0  0  0
 10 11  2  0  0  0  0
 10 12  1  0  0  0  0
 12 13  1  0  0  0  0
 12 14  1  0  0  0  0
 12 35  1  0  0  0  0
 13 36  1  0  0  0  0
 13 37  1  0  0  0  0
 13 38  1  0  0  0  0
 14 18  1  0  0  0  0
 14 15  1  0  0  0  0
 15 16  2  0  0  0  0
 15 39  1  0  0  0  0
 16 17  1  0  0  0  0
 16 40  1  0  0  0  0
 17 18  2  0  0  0  0
 17 41  1  0  0  0  0
 19 42  1  0  0  0  0
 19 43  1  0  0  0  0
M  CHG  1   6   1
M  END
> <s_m_source_file>
AV-unprocessed.smi

> <i_m_source_file_index>
3338

> <i_lp_mmshare_version>
43012

> <i_f3d_flags>
0

> <s_epik_input>
W0NIM11bQ0BASF0xW0NIMl1bQ0gyXVtDSDJdTihbQ0gyXTEpW0NIMl1bQ0gyXVtOSF1DKD1PKVtDQEhdKFtDSDNdKW4yW2NIXVtjSF1bY0hdbjI=

> <s_epik_cmdline>
J2VwaWtfcHl0aG9uJywgJy1waCcsICc3LjAnLCAnLXRuJywgJzgnLCAnLW1hJywgJzIwMCcsICctbWV0YWxfYmluZGluZycsICctaW1hZScsICc8aW5maWxlLm1hZT4nLCAnLW9tYWUnLCAnPG91dGZpbGUubWFlPic=

> <r_lp_tautomer_probability>
1

> <r_epik_Ionization_Penalty>
0.00225707

> <r_epik_Ionization_Penalty_Charging>
0.00223709

> <r_epik_Ionization_Penalty_Neutral>
1.99775e-05

> <r_epik_State_Penalty>
0.00153978

> <r_epik_Charging_Adjusted_Penalty>
0.00377687

> <i_epik_Tot_Q>
1

> <i_epik_Tot_abs_Q>
1

> <r_epik_Metal_State_Penalty>
-0

> <b_epik_Metal_Only>
0

> <s_lp_Force_Field>
OPLS_2005

> <r_lp_Energy>
22.3922

> <b_lp_Chiralities_Consistent>
1

> <s_lp_Variant>
AV-unprocessed.smi:3338-6

> <Gold.Version>
5.8.1

> <Gold.Id.Protein>
6NUR|6NUR_protein|mol2

> <Gold.PLP.Fitness>
41.5544

> <Gold.PLP.PLP>
-36.0111

> <Gold.PLP.part.hbond>
-2.0000

> <Gold.PLP.part.metal>
0.0000

> <Gold.PLP.part.buried>
1.0251

> <Gold.PLP.part.nonpolar>
-34.9266

> <Gold.PLP.part.repulsive>
0.3547

> <Gold.PLP.ligand.clash>
0.0000

> <Gold.PLP.ligand.torsion>
0.2890

> <Gold.PLP.Chemscore.Hbond>
1.0000

> <Gold.PLP.Chemscore.CHOScore>
1.0000

> <Gold.PLP.Chemscore.Metal>
0.0000

> <Gold.Chemscore.Hbonds>
donor molecule, donor type, donor heavy atom, donor atom, acceptor molecule, acceptor atom, score
      L1  H     6    44       P1  7921  1.00
      L1  C    15    39       P1  7948  1.00

> <Gold.PLP.Chemscore.Internal.Correction>
0.1212

> <Gold.Rescore>
     Score         DG    S(hbond)    S(metal)    S(lipo)     H(rot)  DE(clash)    DE(int)     intcor
     14.19     -15.90       0.93        0.00     101.05       1.76       1.48       0.23       ----

> <Gold.Chemscore.Fitness>
14.1912

> <Gold.Chemscore.DG>
-15.8998

> <Gold.Chemscore.ZeroCoef>
-5.4800

> <Gold.Chemscore.Hbond>
0.9265

> <Gold.Chemscore.Metal>
0.0000

> <Gold.Chemscore.Lipo>
101.0525

> <Gold.Chemscore.Internal_Hbond>
0.0000

> <Gold.Chemscore.DEClash>
1.4770

> <Gold.Chemscore.DEInternal>
0.2316

> <Gold.Chemscore.Rot>
1.7570

> <Gold.Chemscore.Internal.Correction>
   9.000000E+99

> <Gold.Chemscore.Hbonds>
donor molecule, donor type, donor heavy atom, donor atom, acceptor molecule, acceptor atom, score
      L1  H     6    44       P1  7921  0.76

> <Gold.Chemscore.Hbond.Weighted>
-3.0945

> <Gold.Chemscore.Metal.Weighted>
-0.0000

> <Gold.Chemscore.Lipo.Weighted>
-11.8231

> <Gold.Chemscore.Internal_Hbond.Weighted>
0.0000

> <Gold.Chemscore.DEClash.Weighted>
1.4770

> <Gold.Chemscore.DEInternal.Weighted>
0.2316

> <Gold.Chemscore.Rot.Weighted>
4.4979

> <Gold.Chemscore.Internal.Correction.Weighted>
   9.000000E+99

> <Gold.Protein.RotatedTorsions>
[ 6907 6896 6895 6894 ] final  124.95 input  -60.11 | X-H torsion
[ 7974 7965 7964 7962 ] final  -82.65 input  175.53 | X-H torsion
[ 8008 7997 7996 7995 ] final  121.47 input   59.86 | X-H torsion
[ 10167 10162 10161 10158 ] final  -87.72 input  -65.29 | X-H torsion
[ 10718 10713 10712 10709 ] final -149.85 input   66.30 | X-H torsion
[ 10763 10752 10751 10750 ] final  -18.47 input  -60.55 | X-H torsion
[ 11005 11000 10999 10996 ] final  106.67 input  -57.11 | X-H torsion

> <Gold.Protein.ActiveResidues>
 VAL166  LYS551  ARG553  GLY616  TRP617  ASP618  TYR619  PRO620  LYS621  CYS622 
 ASP623  PHE694  ASN695  SER759  ASP760  ASP761  ALA762  ILE779  LEU786  VAL792 
 PHE793  MET794  SER795  GLU796  ALA797  LYS798  CYS799  TRP800  GLU811  SER814 

> <Gold.Protein.RotatedAtoms>
  152.4034  133.6853  159.6335 H   0  0  0  0  0  0  0  0  0  0  0  0  # atno 6907 bound_to 6896
  150.7922  133.8751  159.3278 H   0  0  0  0  0  0  0  0  0  0  0  0  # atno 6908 bound_to 6896
  151.6511  135.1003  160.0212 H   0  0  0  0  0  0  0  0  0  0  0  0  # atno 6909 bound_to 6896
  145.5304  140.9522  143.1606 H   0  0  0  0  0  0  0  0  0  0  0  0  # atno 7974 bound_to 7965
  156.2688  140.2807  156.1314 H   0  0  0  0  0  0  0  0  0  0  0  0  # atno 8008 bound_to 7997
  155.1050  140.0390  157.2725 H   0  0  0  0  0  0  0  0  0  0  0  0  # atno 8009 bound_to 7997
  154.6786  140.2603  155.6938 H   0  0  0  0  0  0  0  0  0  0  0  0  # atno 8010 bound_to 7997
  140.3817  143.2745  151.9375 H   0  0  0  0  0  0  0  0  0  0  0  0  # atno 10167 bound_to 10162
  156.4385  130.8110  151.2339 H   0  0  0  0  0  0  0  0  0  0  0  0  # atno 10718 bound_to 10713
  153.5898  135.7002  153.5428 H   0  0  0  0  0  0  0  0  0  0  0  0  # atno 10763 bound_to 10752
  153.3188  135.4080  155.1399 H   0  0  0  0  0  0  0  0  0  0  0  0  # atno 10764 bound_to 10752
  154.8602  135.3690  154.5429 H   0  0  0  0  0  0  0  0  0  0  0  0  # atno 10765 bound_to 10752
  139.8817  134.9376  156.5702 H   0  0  0  0  0  0  0  0  0  0  0  0  # atno 11005 bound_to 11000
  144.7629  139.6914  143.7227 LP  0  0  0  0  0  0  0  0  0  0  0  0  # atno 17320 bound_to 7965
  146.2048  139.5365  142.9720 LP  0  0  0  0  0  0  0  0  0  0  0  0  # atno 17321 bound_to 7965
  139.4795  144.5812  151.7929 LP  0  0  0  0  0  0  0  0  0  0  0  0  # atno 17342 bound_to 10162
  140.4931  144.1281  150.5954 LP  0  0  0  0  0  0  0  0  0  0  0  0  # atno 17343 bound_to 10162
  157.7507  131.0175  150.3590 LP  0  0  0  0  0  0  0  0  0  0  0  0  # atno 17370 bound_to 10713
  156.3943  130.3903  149.7007 LP  0  0  0  0  0  0  0  0  0  0  0  0  # atno 17371 bound_to 10713
  140.8104  133.8434  155.8805 LP  0  0  0  0  0  0  0  0  0  0  0  0  # atno 17394 bound_to 11000
  140.9511  134.1777  157.4727 LP  0  0  0  0  0  0  0  0  0  0  0  0  # atno 17395 bound_to 11000

$$$$
