AV-unprocessed.smi:1842|AV-procd|sdf|7499|dock2
  -GOLD-   22720 9203D 1   1.00000     0.00000
 Structure written by MMmdl.
 38 39  0  0  0  0  0  0  0  0  1 V2000
  154.6490  139.0290  159.0066 O   0  0  0  0  0  0  0  0  0  0  0  0
  154.0081  139.7134  159.8041 C   0  0  0  0  0  0  0  0  0  0  0  0
  153.1527  140.8789  159.3043 C   0  0  0  0  0  0  0  0  0  0  0  0
  153.0452  142.0041  160.3493 C   0  0  0  0  0  0  0  0  0  0  0  0
  152.1897  143.1917  159.8742 C   0  0  0  0  0  0  0  0  0  0  0  0
  152.6879  143.8632  158.5908 C   0  0  0  0  0  0  0  0  0  0  0  0
  152.0310  145.2474  158.5892 C   0  0  0  0  0  0  0  0  0  0  0  0
  151.7093  145.5716  160.0560 C   0  0  0  0  0  0  0  0  0  0  0  0
  152.1494  144.3511  160.8730 C   0  0  0  0  0  0  0  0  0  0  0  0
  154.0026  139.4943  161.1275 N   0  0  0  0  0  0  0  0  0  0  0  0
  154.6964  138.4042  161.8067 C   0  0  0  0  0  0  0  0  0  0  0  0
  153.9704  137.0534  161.6527 C   0  0  0  0  0  0  0  0  0  0  0  0
  154.2781  136.1350  162.7331 N   0  0  0  0  0  0  0  0  0  0  0  0
  154.0154  136.3113  164.0851 C   0  0  0  0  0  0  0  0  0  0  0  0
  154.4758  135.1826  164.7249 C   0  0  0  0  0  0  0  0  0  0  0  0
  155.0226  134.3043  163.7919 N   0  0  0  0  0  0  0  0  0  0  0  0
  154.8717  134.9371  162.6357 C   0  0  0  0  0  0  0  0  0  0  0  0
  153.5721  141.2681  158.3753 H   0  0  0  0  0  0  0  0  0  0  0  0
  152.1598  140.4984  159.0626 H   0  0  0  0  0  0  0  0  0  0  0  0
  152.6073  141.6044  161.2652 H   0  0  0  0  0  0  0  0  0  0  0  0
  154.0431  142.3549  160.6182 H   0  0  0  0  0  0  0  0  0  0  0  0
  151.1657  142.8511  159.7118 H   0  0  0  0  0  0  0  0  0  0  0  0
  153.7725  143.9761  158.6270 H   0  0  0  0  0  0  0  0  0  0  0  0
  152.4454  143.2913  157.6947 H   0  0  0  0  0  0  0  0  0  0  0  0
  152.6803  145.9971  158.1357 H   0  0  0  0  0  0  0  0  0  0  0  0
  151.1081  145.2211  158.0087 H   0  0  0  0  0  0  0  0  0  0  0  0
  152.2161  146.4764  160.3933 H   0  0  0  0  0  0  0  0  0  0  0  0
  150.6374  145.7370  160.1710 H   0  0  0  0  0  0  0  0  0  0  0  0
  151.4859  144.1529  161.7153 H   0  0  0  0  0  0  0  0  0  0  0  0
  153.1478  144.5281  161.2761 H   0  0  0  0  0  0  0  0  0  0  0  0
  153.4504  140.1111  161.7059 H   0  0  0  0  0  0  0  0  0  0  0  0
  155.7162  138.3269  161.4269 H   0  0  0  0  0  0  0  0  0  0  0  0
  154.7805  138.6612  162.8630 H   0  0  0  0  0  0  0  0  0  0  0  0
  152.8897  137.1951  161.6071 H   0  0  0  0  0  0  0  0  0  0  0  0
  154.2597  136.5827  160.7125 H   0  0  0  0  0  0  0  0  0  0  0  0
  153.5345  137.1991  164.4689 H   0  0  0  0  0  0  0  0  0  0  0  0
  154.4552  134.9362  165.7763 H   0  0  0  0  0  0  0  0  0  0  0  0
  155.1957  134.5173  161.6942 H   0  0  0  0  0  0  0  0  0  0  0  0
  1  2  2  0  0  0  0
  2  3  1  0  0  0  0
  2 10  1  0  0  0  0
  3  4  1  0  0  0  0
  3 18  1  0  0  0  0
  3 19  1  0  0  0  0
  4  5  1  0  0  0  0
  4 20  1  0  0  0  0
  4 21  1  0  0  0  0
  5  9  1  0  0  0  0
  5  6  1  0  0  0  0
  5 22  1  0  0  0  0
  6  7  1  0  0  0  0
  6 23  1  0  0  0  0
  6 24  1  0  0  0  0
  7  8  1  0  0  0  0
  7 25  1  0  0  0  0
  7 26  1  0  0  0  0
  8  9  1  0  0  0  0
  8 27  1  0  0  0  0
  8 28  1  0  0  0  0
  9 29  1  0  0  0  0
  9 30  1  0  0  0  0
 10 11  1  0  0  0  0
 10 31  1  0  0  0  0
 11 12  1  0  0  0  0
 11 32  1  0  0  0  0
 11 33  1  0  0  0  0
 12 13  1  0  0  0  0
 12 34  1  0  0  0  0
 12 35  1  0  0  0  0
 13 17  1  0  0  0  0
 13 14  1  0  0  0  0
 14 15  2  0  0  0  0
 14 36  1  0  0  0  0
 15 16  1  0  0  0  0
 15 37  1  0  0  0  0
 16 17  2  0  0  0  0
 17 38  1  0  0  0  0
M  END
> <s_m_source_file>
AV-unprocessed.smi

> <i_m_source_file_index>
1842

> <i_lp_mmshare_version>
43012

> <i_f3d_flags>
0

> <s_epik_input>
W0NIMl0xW0NIMl1bQ0gyXVtDSDJdW0NIXTFbQ0gyXVtDSDJdQyg9TylbTkhdW0NIMl1bQ0gyXW4yW2NIXVtjSF1uW2NIXTI=

> <s_epik_cmdline>
J2VwaWtfcHl0aG9uJywgJy1waCcsICc3LjAnLCAnLXRuJywgJzgnLCAnLW1hJywgJzIwMCcsICctbWV0YWxfYmluZGluZycsICctaW1hZScsICc8aW5maWxlLm1hZT4nLCAnLW9tYWUnLCAnPG91dGZpbGUubWFlPic=

> <r_lp_tautomer_probability>
1

> <r_epik_Ionization_Penalty>
0.595716

> <r_epik_Ionization_Penalty_Charging>
0.595716

> <r_epik_Ionization_Penalty_Neutral>
2.42503e-08

> <r_epik_State_Penalty>
0.60967

> <r_epik_Charging_Adjusted_Penalty>
1.20539

> <i_epik_Tot_Q>
0

> <i_epik_Tot_abs_Q>
0

> <r_epik_Metal_State_Penalty>
0.299956

> <b_epik_Metal_Only>
0

> <s_lp_Force_Field>
OPLS_2005

> <r_lp_Energy>
23.0444

> <b_lp_Chiralities_Consistent>
1

> <s_lp_Variant>
AV-unprocessed.smi:1842-2

> <Gold.Version>
5.8.1

> <Gold.Id.Protein>
6NUR|6NUR_protein|mol2

> <Gold.PLP.Fitness>
46.1273

> <Gold.PLP.PLP>
-44.2673

> <Gold.PLP.part.hbond>
-1.0000

> <Gold.PLP.part.metal>
0.0000

> <Gold.PLP.part.buried>
-3.8664

> <Gold.PLP.part.nonpolar>
-39.1173

> <Gold.PLP.part.repulsive>
0.0535

> <Gold.PLP.ligand.clash>
0.0000

> <Gold.PLP.ligand.torsion>
0.6281

> <Gold.PLP.Chemscore.Hbond>
1.0000

> <Gold.PLP.Chemscore.CHOScore>
0.0000

> <Gold.PLP.Chemscore.Metal>
0.0000

> <Gold.Chemscore.Hbonds>
donor molecule, donor type, donor heavy atom, donor atom, acceptor molecule, acceptor atom, score
      P1  H  7997  8009       L1     1  1.00

> <Gold.PLP.Chemscore.Internal.Correction>
0.1161

> <Gold.Rescore>
     Score         DG    S(hbond)    S(metal)    S(lipo)     H(rot)  DE(clash)    DE(int)     intcor
     16.18     -16.93       0.98        0.00     116.95       2.15       0.03       0.72       ----

> <Gold.Chemscore.Fitness>
16.1794

> <Gold.Chemscore.DG>
-16.9267

> <Gold.Chemscore.ZeroCoef>
-5.4800

> <Gold.Chemscore.Hbond>
0.9772

> <Gold.Chemscore.Metal>
0.0000

> <Gold.Chemscore.Lipo>
116.9462

> <Gold.Chemscore.Internal_Hbond>
0.0000

> <Gold.Chemscore.DEClash>
0.0312

> <Gold.Chemscore.DEInternal>
0.7162

> <Gold.Chemscore.Rot>
2.1484

> <Gold.Chemscore.Internal.Correction>
   9.000000E+99

> <Gold.Chemscore.Hbonds>
donor molecule, donor type, donor heavy atom, donor atom, acceptor molecule, acceptor atom, score
      P1  H  7997  8009       L1     1  0.85

> <Gold.Chemscore.Hbond.Weighted>
-3.2640

> <Gold.Chemscore.Metal.Weighted>
-0.0000

> <Gold.Chemscore.Lipo.Weighted>
-13.6827

> <Gold.Chemscore.Internal_Hbond.Weighted>
0.0000

> <Gold.Chemscore.DEClash.Weighted>
0.0312

> <Gold.Chemscore.DEInternal.Weighted>
0.7162

> <Gold.Chemscore.Rot.Weighted>
5.5000

> <Gold.Chemscore.Internal.Correction.Weighted>
   9.000000E+99

> <Gold.Protein.RotatedTorsions>
[ 6907 6896 6895 6894 ] final   12.09 input  -60.11 | X-H torsion
[ 7974 7965 7964 7962 ] final   48.20 input  175.53 | X-H torsion
[ 8008 7997 7996 7995 ] final  114.74 input   59.86 | X-H torsion
[ 10167 10162 10161 10158 ] final  139.16 input  -65.29 | X-H torsion
[ 10718 10713 10712 10709 ] final  -42.19 input   66.30 | X-H torsion
[ 10763 10752 10751 10750 ] final   86.25 input  -60.55 | X-H torsion
[ 11005 11000 10999 10996 ] final   46.44 input  -57.11 | X-H torsion

> <Gold.Protein.ActiveResidues>
 VAL166  LYS551  ARG553  GLY616  TRP617  ASP618  TYR619  PRO620  LYS621  CYS622 
 ASP623  PHE694  ASN695  SER759  ASP760  ASP761  ALA762  ILE779  LEU786  VAL792 
 PHE793  MET794  SER795  GLU796  ALA797  LYS798  CYS799  TRP800  GLU811  SER814 

> <Gold.Protein.RotatedAtoms>
  151.7648  135.0801  160.0350 H   0  0  0  0  0  0  0  0  0  0  0  0  # atno 6907 bound_to 6896
  152.3329  133.5974  159.5830 H   0  0  0  0  0  0  0  0  0  0  0  0  # atno 6908 bound_to 6896
  150.7433  133.9756  159.3601 H   0  0  0  0  0  0  0  0  0  0  0  0  # atno 6909 bound_to 6896
  146.0226  139.4669  142.9887 H   0  0  0  0  0  0  0  0  0  0  0  0  # atno 7974 bound_to 7965
  156.2339  140.2953  156.0261 H   0  0  0  0  0  0  0  0  0  0  0  0  # atno 8008 bound_to 7997
  155.2147  140.0413  157.2956 H   0  0  0  0  0  0  0  0  0  0  0  0  # atno 8009 bound_to 7997
  154.6044  140.2435  155.7757 H   0  0  0  0  0  0  0  0  0  0  0  0  # atno 8010 bound_to 7997
  139.5087  144.6311  151.5815 H   0  0  0  0  0  0  0  0  0  0  0  0  # atno 10167 bound_to 10162
  156.2622  130.4198  149.8529 H   0  0  0  0  0  0  0  0  0  0  0  0  # atno 10718 bound_to 10713
  153.1552  135.4587  154.9694 H   0  0  0  0  0  0  0  0  0  0  0  0  # atno 10763 bound_to 10752
  154.7856  135.3203  154.7896 H   0  0  0  0  0  0  0  0  0  0  0  0  # atno 10764 bound_to 10752
  153.8395  135.6931  153.4859 H   0  0  0  0  0  0  0  0  0  0  0  0  # atno 10765 bound_to 10752
  140.1369  134.4634  155.8479 H   0  0  0  0  0  0  0  0  0  0  0  0  # atno 11005 bound_to 11000
  145.7168  141.0088  143.1424 LP  0  0  0  0  0  0  0  0  0  0  0  0  # atno 17320 bound_to 7965
  144.6996  139.8823  143.7448 LP  0  0  0  0  0  0  0  0  0  0  0  0  # atno 17321 bound_to 7965
  140.6044  143.9551  150.6408 LP  0  0  0  0  0  0  0  0  0  0  0  0  # atno 17342 bound_to 10162
  140.2773  143.3414  152.1183 LP  0  0  0  0  0  0  0  0  0  0  0  0  # atno 17343 bound_to 10162
  156.6040  130.8559  151.3439 LP  0  0  0  0  0  0  0  0  0  0  0  0  # atno 17370 bound_to 10713
  157.7255  130.9616  150.1615 LP  0  0  0  0  0  0  0  0  0  0  0  0  # atno 17371 bound_to 10713
  141.2179  133.6817  156.7173 LP  0  0  0  0  0  0  0  0  0  0  0  0  # atno 17394 bound_to 11000
  140.2772  134.8346  157.3900 LP  0  0  0  0  0  0  0  0  0  0  0  0  # atno 17395 bound_to 11000

$$$$
