AV-unprocessed.smi:40|AV-procd|sdf|369|dock3
  -GOLD-   2262016213D 1   1.00000     0.00000
 Structure written by MMmdl.
 47 48  0  0  0  0  0  0  0  0  1 V2000
  152.4930  144.7232  158.7301 C   0  0  0  0  0  0  0  0  0  0  0  0
  151.2410  144.0224  158.1917 C   0  0  0  0  0  0  0  0  0  0  0  0
  151.5493  142.6434  157.5910 C   0  0  0  0  0  0  0  0  0  0  0  0
  150.3767  142.0799  156.7777 C   0  0  0  0  0  0  0  0  0  0  0  0
  150.8186  140.9745  155.8063 C   0  0  0  0  0  0  0  0  0  0  0  0
  149.8093  140.7217  154.8386 O   0  0  0  0  0  0  0  0  0  0  0  0
  149.3791  139.4629  154.5971 C   0  0  0  0  0  0  0  0  0  0  0  0
  150.0033  138.4457  154.8974 O   0  0  0  0  0  0  0  0  0  0  0  0
  148.0729  139.4738  153.9707 N   0  0  0  0  0  0  0  0  0  0  0  0
  147.3525  138.3951  153.5951 C   0  0  0  0  0  0  0  0  0  0  0  0
  147.3216  137.3657  154.4211 N   0  0  0  0  0  0  0  0  0  0  0  0
  146.6223  136.2146  154.1734 C   0  0  0  0  0  0  0  0  0  0  0  0
  146.6016  135.3008  154.9967 O   0  0  0  0  0  0  0  0  0  0  0  0
  145.9201  136.1303  152.9483 N   0  0  0  0  0  0  0  0  0  0  0  0
  145.1164  134.8876  152.6494 C   0  0  2  0  0  0  0  0  0  0  0  0
  145.9941  133.8586  152.2852 O   0  0  0  0  0  0  0  0  0  0  0  0
  145.5816  133.2542  151.0630 C   0  0  1  0  0  0  0  0  0  0  0  0
  144.7582  131.9940  151.3860 C   0  0  0  0  0  0  0  0  0  0  0  0
  144.8245  134.3780  150.3477 C   0  0  1  0  0  0  0  0  0  0  0  0
  143.9339  133.9459  149.3371 O   0  0  0  0  0  0  0  0  0  0  0  0
  144.1549  135.1500  151.4776 C   0  0  1  0  0  0  0  0  0  0  0  0
  142.8508  134.6822  151.7698 O   0  0  0  0  0  0  0  0  0  0  0  0
  145.9442  137.1999  152.0656 C   0  0  0  0  0  0  0  0  0  0  0  0
  146.6345  138.3284  152.3343 C   0  0  0  0  0  0  0  0  0  0  0  0
  146.6549  139.3395  151.4482 F   0  0  0  0  0  0  0  0  0  0  0  0
  144.6177  134.6081  153.5791 H   0  0  0  0  0  0  0  0  0  0  0  0
  146.4606  132.9612  150.4878 H   0  0  0  0  0  0  0  0  0  0  0  0
  145.5614  135.0325  149.8796 H   0  0  0  0  0  0  0  0  0  0  0  0
  144.0903  136.2153  151.2508 H   0  0  0  0  0  0  0  0  0  0  0  0
  152.2431  145.6999  159.1450 H   0  0  0  0  0  0  0  0  0  0  0  0
  153.2295  144.8757  157.9406 H   0  0  0  0  0  0  0  0  0  0  0  0
  152.9635  144.1369  159.5198 H   0  0  0  0  0  0  0  0  0  0  0  0
  150.5147  143.9161  158.9983 H   0  0  0  0  0  0  0  0  0  0  0  0
  150.7730  144.6544  157.4362 H   0  0  0  0  0  0  0  0  0  0  0  0
  152.4312  142.7141  156.9529 H   0  0  0  0  0  0  0  0  0  0  0  0
  151.8019  141.9470  158.3917 H   0  0  0  0  0  0  0  0  0  0  0  0
  149.6206  141.6825  157.4559 H   0  0  0  0  0  0  0  0  0  0  0  0
  149.9002  142.8887  156.2225 H   0  0  0  0  0  0  0  0  0  0  0  0
  151.7641  141.2315  155.3261 H   0  0  0  0  0  0  0  0  0  0  0  0
  150.9917  140.0511  156.3593 H   0  0  0  0  0  0  0  0  0  0  0  0
  147.7093  140.3913  153.7583 H   0  0  0  0  0  0  0  0  0  0  0  0
  144.4161  131.5005  150.4761 H   0  0  0  0  0  0  0  0  0  0  0  0
  143.8825  132.2198  151.9936 H   0  0  0  0  0  0  0  0  0  0  0  0
  145.3618  131.2744  151.9396 H   0  0  0  0  0  0  0  0  0  0  0  0
  143.0636  134.2331  149.5687 H   0  0  0  0  0  0  0  0  0  0  0  0
  142.4676  134.3480  150.9728 H   0  0  0  0  0  0  0  0  0  0  0  0
  145.4019  137.1474  151.1328 H   0  0  0  0  0  0  0  0  0  0  0  0
  1  2  1  0  0  0  0
  1 30  1  0  0  0  0
  1 31  1  0  0  0  0
  1 32  1  0  0  0  0
  2  3  1  0  0  0  0
  2 33  1  0  0  0  0
  2 34  1  0  0  0  0
  3  4  1  0  0  0  0
  3 35  1  0  0  0  0
  3 36  1  0  0  0  0
  4  5  1  0  0  0  0
  4 37  1  0  0  0  0
  4 38  1  0  0  0  0
  5  6  1  0  0  0  0
  5 39  1  0  0  0  0
  5 40  1  0  0  0  0
  6  7  1  0  0  0  0
  7  8  2  0  0  0  0
  7  9  1  0  0  0  0
  9 10  1  0  0  0  0
  9 41  1  0  0  0  0
 10 24  1  0  0  0  0
 10 11  2  0  0  0  0
 11 12  1  0  0  0  0
 12 13  2  0  0  0  0
 12 14  1  0  0  0  0
 14 15  1  0  0  0  0
 14 23  1  0  0  0  0
 15 26  1  0  0  0  0
 15 21  1  0  0  0  0
 15 16  1  0  0  0  0
 16 17  1  0  0  0  0
 17 27  1  0  0  0  0
 17 18  1  0  0  0  0
 17 19  1  0  0  0  0
 18 42  1  0  0  0  0
 18 43  1  0  0  0  0
 18 44  1  0  0  0  0
 19 28  1  0  0  0  0
 19 20  1  0  0  0  0
 19 21  1  0  0  0  0
 20 45  1  0  0  0  0
 21 29  1  0  0  0  0
 21 22  1  0  0  0  0
 22 46  1  0  0  0  0
 23 24  2  0  0  0  0
 23 47  1  0  0  0  0
 24 25  1  0  0  0  0
M  END
> <s_m_source_file>
AV-unprocessed.smi

> <i_m_source_file_index>
40

> <i_lp_mmshare_version>
43012

> <i_f3d_flags>
0

> <s_epik_input>
W0NIM11bQ0gyXVtDSDJdW0NIMl1bQ0gyXU9DKD1PKVtOSF1jMW5jKD1PKW4oW2NIXWMxRilbQ0BASF0yT1tDQEhdKFtDSDNdKVtDQEBIXShbT0hdKVtDQEhdMltPSF0=

> <s_epik_cmdline>
J2VwaWtfcHl0aG9uJywgJy1waCcsICc3LjAnLCAnLXRuJywgJzgnLCAnLW1hJywgJzIwMCcsICctbWV0YWxfYmluZGluZycsICctaW1hZScsICc8aW5maWxlLm1hZT4nLCAnLW9tYWUnLCAnPG91dGZpbGUubWFlPic=

> <r_lp_tautomer_probability>
1

> <r_epik_Ionization_Penalty>
2.29506e-06

> <r_epik_Ionization_Penalty_Charging>
8.26867e-09

> <r_epik_Ionization_Penalty_Neutral>
2.2868e-06

> <r_epik_State_Penalty>
-0

> <r_epik_Charging_Adjusted_Penalty>
8.26867e-09

> <i_epik_Tot_Q>
0

> <i_epik_Tot_abs_Q>
0

> <r_epik_Metal_State_Penalty>
-0

> <b_epik_Metal_Only>
0

> <s_epik_Chemistry_Notes>
This compound has an ester and may undergo hydrolysis at high or low pH. This compound contains an acetal/aminal-like group ( X-CH(R)-Y where X, Y are N, S, or O) that may be acid/base labile, releasing an aldehyde.

> <s_lp_Force_Field>
OPLS_2005

> <r_lp_Energy>
36.9864

> <b_lp_Chiralities_Consistent>
1

> <s_lp_Variant>
AV-unprocessed.smi:40-3

> <Gold.Version>
5.8.1

> <Gold.Id.Protein>
6NUR|6NUR_protein|mol2

> <Gold.PLP.Fitness>
44.2509

> <Gold.PLP.PLP>
-38.5169

> <Gold.PLP.part.hbond>
-4.1611

> <Gold.PLP.part.metal>
0.0000

> <Gold.PLP.part.buried>
1.6855

> <Gold.PLP.part.nonpolar>
-37.0653

> <Gold.PLP.part.repulsive>
0.5444

> <Gold.PLP.ligand.clash>
0.0000

> <Gold.PLP.ligand.torsion>
1.5140

> <Gold.PLP.Chemscore.Hbond>
1.8432

> <Gold.PLP.Chemscore.CHOScore>
1.0000

> <Gold.PLP.Chemscore.Metal>
0.0000

> <Gold.Chemscore.Hbonds>
donor molecule, donor type, donor heavy atom, donor atom, acceptor molecule, acceptor atom, score
      L1  H    20    45       P1 10186  0.93
      L1  H    22    46       P1 10186  0.83
      L1  C    23    47       P1 10171  1.00

> <Gold.PLP.Chemscore.Internal.Correction>
0.2323

> <Gold.Rescore>
     Score         DG    S(hbond)    S(metal)    S(lipo)     H(rot)  DE(clash)    DE(int)     intcor
      6.82      -9.84       1.01        0.00      89.30       3.70       0.32       2.71       ----

> <Gold.Chemscore.Fitness>
6.8186

> <Gold.Chemscore.DG>
-9.8444

> <Gold.Chemscore.ZeroCoef>
-5.4800

> <Gold.Chemscore.Hbond>
1.0113

> <Gold.Chemscore.Metal>
0.0000

> <Gold.Chemscore.Lipo>
89.2964

> <Gold.Chemscore.Internal_Hbond>
0.0000

> <Gold.Chemscore.DEClash>
0.3183

> <Gold.Chemscore.DEInternal>
2.7075

> <Gold.Chemscore.Rot>
3.6957

> <Gold.Chemscore.Internal.Correction>
   9.000000E+99

> <Gold.Chemscore.Hbonds>
donor molecule, donor type, donor heavy atom, donor atom, acceptor molecule, acceptor atom, score
      L1  H    20    45       P1 10186  0.88
      L1  H    22    46       P1 10186  0.13

> <Gold.Chemscore.Hbond.Weighted>
-3.3777

> <Gold.Chemscore.Metal.Weighted>
-0.0000

> <Gold.Chemscore.Lipo.Weighted>
-10.4477

> <Gold.Chemscore.Internal_Hbond.Weighted>
0.0000

> <Gold.Chemscore.DEClash.Weighted>
0.3183

> <Gold.Chemscore.DEInternal.Weighted>
2.7075

> <Gold.Chemscore.Rot.Weighted>
9.4610

> <Gold.Chemscore.Internal.Correction.Weighted>
   9.000000E+99

> <Gold.Protein.RotatedTorsions>
[ 6907 6896 6895 6894 ] final  -89.01 input  -60.11 | X-H torsion
[ 7974 7965 7964 7962 ] final  -67.01 input  175.53 | X-H torsion
[ 8008 7997 7996 7995 ] final -177.70 input   59.86 | X-H torsion
[ 10167 10162 10161 10158 ] final  -95.61 input  -65.29 | X-H torsion
[ 10718 10713 10712 10709 ] final -144.77 input   66.30 | X-H torsion
[ 10763 10752 10751 10750 ] final   14.83 input  -60.55 | X-H torsion
[ 11005 11000 10999 10996 ] final  176.60 input  -57.11 | X-H torsion

> <Gold.Protein.ActiveResidues>
 VAL166  LYS551  ARG553  GLY616  TRP617  ASP618  TYR619  PRO620  LYS621  CYS622 
 ASP623  PHE694  ASN695  SER759  ASP760  ASP761  ALA762  ILE779  LEU786  VAL792 
 PHE793  MET794  SER795  GLU796  ALA797  LYS798  CYS799  TRP800  GLU811  SER814 

> <Gold.Protein.RotatedAtoms>
  150.6871  134.2654  159.4565 H   0  0  0  0  0  0  0  0  0  0  0  0  # atno 6907 bound_to 6896
  152.0580  134.9609  160.0584 H   0  0  0  0  0  0  0  0  0  0  0  0  # atno 6908 bound_to 6896
  152.1047  133.4234  159.4640 H   0  0  0  0  0  0  0  0  0  0  0  0  # atno 6909 bound_to 6896
  145.7346  140.8981  143.0562 H   0  0  0  0  0  0  0  0  0  0  0  0  # atno 7974 bound_to 7965
  156.0101  140.1239  157.0462 H   0  0  0  0  0  0  0  0  0  0  0  0  # atno 8008 bound_to 7997
  154.4273  140.1089  156.5887 H   0  0  0  0  0  0  0  0  0  0  0  0  # atno 8009 bound_to 7997
  155.6091  140.3471  155.4619 H   0  0  0  0  0  0  0  0  0  0  0  0  # atno 8010 bound_to 7997
  140.3023  143.3155  152.0235 H   0  0  0  0  0  0  0  0  0  0  0  0  # atno 10167 bound_to 10162
  156.3742  130.7803  151.1988 H   0  0  0  0  0  0  0  0  0  0  0  0  # atno 10718 bound_to 10713
  153.1584  135.6791  153.8779 H   0  0  0  0  0  0  0  0  0  0  0  0  # atno 10763 bound_to 10752
  153.8182  135.3133  155.3409 H   0  0  0  0  0  0  0  0  0  0  0  0  # atno 10764 bound_to 10752
  154.7914  135.4832  154.0150 H   0  0  0  0  0  0  0  0  0  0  0  0  # atno 10765 bound_to 10752
  140.3749  134.6997  157.4415 H   0  0  0  0  0  0  0  0  0  0  0  0  # atno 11005 bound_to 11000
  144.6885  139.9377  143.7474 LP  0  0  0  0  0  0  0  0  0  0  0  0  # atno 17320 bound_to 7965
  146.0506  139.3507  143.0642 LP  0  0  0  0  0  0  0  0  0  0  0  0  # atno 17321 bound_to 7965
  139.4912  144.6446  151.6805 LP  0  0  0  0  0  0  0  0  0  0  0  0  # atno 17342 bound_to 10162
  140.5640  144.0221  150.6183 LP  0  0  0  0  0  0  0  0  0  0  0  0  # atno 17343 bound_to 10162
  157.7487  131.0363  150.4404 LP  0  0  0  0  0  0  0  0  0  0  0  0  # atno 17370 bound_to 10713
  156.4636  130.4037  149.6561 LP  0  0  0  0  0  0  0  0  0  0  0  0  # atno 17371 bound_to 10713
  140.0523  134.6113  155.8847 LP  0  0  0  0  0  0  0  0  0  0  0  0  # atno 17394 bound_to 11000
  141.1942  133.6582  156.5586 LP  0  0  0  0  0  0  0  0  0  0  0  0  # atno 17395 bound_to 11000

$$$$
