AV-unprocessed.smi:1885|AV-procd|sdf|7652|dock1
  -GOLD-   22720 9383D 1   1.00000     0.00000
 Structure written by MMmdl.
 44 46  0  0  0  0  0  0  0  0  2 V2000
  152.2414  141.1556  158.6005 C   0  0  0  0  0  0  0  0  0  0  0  0
  152.3505  140.2632  157.5013 O   0  0  0  0  0  0  0  0  0  0  0  0
  151.3361  140.2567  156.5681 C   0  0  0  0  0  0  0  0  0  0  0  0
  150.2825  141.2045  156.5291 C   0  0  0  0  0  0  0  0  0  0  0  0
  149.2847  141.1214  155.5383 C   0  0  0  0  0  0  0  0  0  0  0  0
  149.3251  140.0994  154.5688 C   0  0  0  0  0  0  0  0  0  0  0  0
  148.2349  140.0087  153.5173 C   0  0  0  0  0  0  0  0  0  0  0  0
  147.6970  138.7001  153.4155 O   0  0  0  0  0  0  0  0  0  0  0  0
  146.5462  138.6386  152.5899 C   0  0  0  0  0  0  0  0  0  0  0  0
  146.5215  137.2791  151.8777 C   0  0  2  0  0  0  0  0  0  0  0  0
  146.4793  137.4963  150.4814 O   0  0  0  0  0  0  0  0  0  0  0  0
  145.3185  136.4138  152.3034 C   0  0  0  0  0  0  0  0  0  0  0  0
  145.0854  135.2824  151.3970 N   0  0  0  0  0  0  0  0  0  0  0  0
  144.5079  135.2482  150.1655 C   0  0  0  0  0  0  0  0  0  0  0  0
  144.5336  133.9557  149.7360 N   0  3  0  0  0  0  0  0  0  0  0  0
  145.1361  133.1532  150.7078 C   0  0  0  0  0  0  0  0  0  0  0  0
  145.3914  131.7860  150.7331 C   0  0  0  0  0  0  0  0  0  0  0  0
  146.0298  131.2802  151.8848 C   0  0  0  0  0  0  0  0  0  0  0  0
  146.3023  129.9560  151.9608 F   0  0  0  0  0  0  0  0  0  0  0  0
  146.3892  132.1254  152.9564 C   0  0  0  0  0  0  0  0  0  0  0  0
  147.0010  131.5991  154.0437 F   0  0  0  0  0  0  0  0  0  0  0  0
  146.1237  133.5103  152.9198 C   0  0  0  0  0  0  0  0  0  0  0  0
  145.4931  134.0001  151.7774 C   0  0  0  0  0  0  0  0  0  0  0  0
  150.3657  139.1486  154.6094 C   0  0  0  0  0  0  0  0  0  0  0  0
  151.3627  139.2323  155.6001 C   0  0  0  0  0  0  0  0  0  0  0  0
  153.1165  141.0457  159.2409 H   0  0  0  0  0  0  0  0  0  0  0  0
  151.3606  140.9371  159.2058 H   0  0  0  0  0  0  0  0  0  0  0  0
  152.2043  142.1940  158.2684 H   0  0  0  0  0  0  0  0  0  0  0  0
  150.2157  142.0049  157.2501 H   0  0  0  0  0  0  0  0  0  0  0  0
  148.4859  141.8485  155.5253 H   0  0  0  0  0  0  0  0  0  0  0  0
  147.4466  140.7162  153.7793 H   0  0  0  0  0  0  0  0  0  0  0  0
  148.6400  140.3131  152.5507 H   0  0  0  0  0  0  0  0  0  0  0  0
  145.6401  138.7762  153.1826 H   0  0  0  0  0  0  0  0  0  0  0  0
  146.5867  139.4460  151.8569 H   0  0  0  0  0  0  0  0  0  0  0  0
  147.4508  136.7522  152.0966 H   0  0  0  0  0  0  0  0  0  0  0  0
  145.6273  137.8376  150.2562 H   0  0  0  0  0  0  0  0  0  0  0  0
  145.4542  136.0213  153.3121 H   0  0  0  0  0  0  0  0  0  0  0  0
  144.4067  137.0125  152.3249 H   0  0  0  0  0  0  0  0  0  0  0  0
  144.1057  136.0933  149.6254 H   0  0  0  0  0  0  0  0  0  0  0  0
  145.1185  131.1355  149.9151 H   0  0  0  0  0  0  0  0  0  0  0  0
  146.4037  134.1498  153.7438 H   0  0  0  0  0  0  0  0  0  0  0  0
  150.4054  138.3504  153.8829 H   0  0  0  0  0  0  0  0  0  0  0  0
  152.1562  138.4996  155.6189 H   0  0  0  0  0  0  0  0  0  0  0  0
  144.1673  133.6481  148.8440 H   0  0  0  0  0  0  0  0  0  0  0  0
  1  2  1  0  0  0  0
  1 26  1  0  0  0  0
  1 27  1  0  0  0  0
  1 28  1  0  0  0  0
  2  3  1  0  0  0  0
  3 25  1  0  0  0  0
  3  4  2  0  0  0  0
  4  5  1  0  0  0  0
  4 29  1  0  0  0  0
  5  6  2  0  0  0  0
  5 30  1  0  0  0  0
  6  7  1  0  0  0  0
  6 24  1  0  0  0  0
  7  8  1  0  0  0  0
  7 31  1  0  0  0  0
  7 32  1  0  0  0  0
  8  9  1  0  0  0  0
  9 10  1  0  0  0  0
  9 33  1  0  0  0  0
  9 34  1  0  0  0  0
 10 11  1  0  0  0  0
 10 12  1  0  0  0  0
 10 35  1  0  0  0  0
 11 36  1  0  0  0  0
 12 13  1  0  0  0  0
 12 37  1  0  0  0  0
 12 38  1  0  0  0  0
 13 23  1  0  0  0  0
 13 14  1  0  0  0  0
 14 15  2  0  0  0  0
 14 39  1  0  0  0  0
 15 16  1  0  0  0  0
 15 44  1  0  0  0  0
 16 23  2  0  0  0  0
 16 17  1  0  0  0  0
 17 18  2  0  0  0  0
 17 40  1  0  0  0  0
 18 19  1  0  0  0  0
 18 20  1  0  0  0  0
 20 21  1  0  0  0  0
 20 22  2  0  0  0  0
 22 23  1  0  0  0  0
 22 41  1  0  0  0  0
 24 25  2  0  0  0  0
 24 42  1  0  0  0  0
 25 43  1  0  0  0  0
M  CHG  1  15   1
M  END
> <s_m_source_file>
AV-unprocessed.smi

> <i_m_source_file_index>
1885

> <i_lp_mmshare_version>
43012

> <i_f3d_flags>
0

> <s_epik_input>
W0NIM11PYzFbY0hdW2NIXWMoW2NIXVtjSF0xKVtDSDJdT1tDSDJdW0NASF0oW09IXSlbQ0gyXW4oW2NIXW4yKWMoYzIzKVtjSF1jKEYpYyhGKVtjSF0z

> <s_epik_cmdline>
J2VwaWtfcHl0aG9uJywgJy1waCcsICc3LjAnLCAnLXRuJywgJzgnLCAnLW1hJywgJzIwMCcsICctbWV0YWxfYmluZGluZycsICctaW1hZScsICc8aW5maWxlLm1hZT4nLCAnLW9tYWUnLCAnPG91dGZpbGUubWFlPic=

> <r_lp_tautomer_probability>
1

> <r_epik_Ionization_Penalty>
2.14697

> <r_epik_Ionization_Penalty_Charging>
2.14697

> <r_epik_Ionization_Penalty_Neutral>
9.74819e-07

> <r_epik_State_Penalty>
2.28651

> <r_epik_Charging_Adjusted_Penalty>
4.43348

> <i_epik_Tot_Q>
1

> <i_epik_Tot_abs_Q>
1

> <r_epik_Metal_State_Penalty>
6.36664

> <b_epik_Metal_Only>
0

> <s_lp_Force_Field>
OPLS_2005

> <r_lp_Energy>
20.6569

> <b_lp_Chiralities_Consistent>
1

> <s_lp_Variant>
AV-unprocessed.smi:1885-3

> <Gold.Version>
5.8.1

> <Gold.Id.Protein>
6NUR|6NUR_protein|mol2

> <Gold.PLP.Fitness>
57.0557

> <Gold.PLP.PLP>
-48.1005

> <Gold.PLP.part.hbond>
-4.2675

> <Gold.PLP.part.metal>
0.0000

> <Gold.PLP.part.buried>
1.2220

> <Gold.PLP.part.nonpolar>
-44.7625

> <Gold.PLP.part.repulsive>
0.3231

> <Gold.PLP.ligand.clash>
0.0000

> <Gold.PLP.ligand.torsion>
1.5261

> <Gold.PLP.Chemscore.Hbond>
2.8480

> <Gold.PLP.Chemscore.CHOScore>
1.0000

> <Gold.PLP.Chemscore.Metal>
0.0000

> <Gold.Chemscore.Hbonds>
donor molecule, donor type, donor heavy atom, donor atom, acceptor molecule, acceptor atom, score
      L1  H    11    36       P1 10171  1.00
      P1  H  7954  7966       L1    11  0.93
      P1  H  7997  8009       L1     2  0.54
      L1  C    14    39       P1 10171  1.00

> <Gold.PLP.Chemscore.Internal.Correction>
0.4634

> <Gold.Rescore>
     Score         DG    S(hbond)    S(metal)    S(lipo)     H(rot)  DE(clash)    DE(int)     intcor
     15.60     -19.04       2.70        0.00     105.10       3.03       2.05       1.38       ----

> <Gold.Chemscore.Fitness>
15.6046

> <Gold.Chemscore.DG>
-19.0427

> <Gold.Chemscore.ZeroCoef>
-5.4800

> <Gold.Chemscore.Hbond>
2.6997

> <Gold.Chemscore.Metal>
0.0000

> <Gold.Chemscore.Lipo>
105.1027

> <Gold.Chemscore.Internal_Hbond>
0.0000

> <Gold.Chemscore.DEClash>
2.0532

> <Gold.Chemscore.DEInternal>
1.3849

> <Gold.Chemscore.Rot>
3.0278

> <Gold.Chemscore.Internal.Correction>
   9.000000E+99

> <Gold.Chemscore.Hbonds>
donor molecule, donor type, donor heavy atom, donor atom, acceptor molecule, acceptor atom, score
      L1  H    11    36       P1 10171  0.99
      P1  H  7954  7966       L1    11  0.67
      P1  H  7997  8009       L1     2  0.41

> <Gold.Chemscore.Hbond.Weighted>
-9.0168

> <Gold.Chemscore.Metal.Weighted>
-0.0000

> <Gold.Chemscore.Lipo.Weighted>
-12.2970

> <Gold.Chemscore.Internal_Hbond.Weighted>
0.0000

> <Gold.Chemscore.DEClash.Weighted>
2.0532

> <Gold.Chemscore.DEInternal.Weighted>
1.3849

> <Gold.Chemscore.Rot.Weighted>
7.7512

> <Gold.Chemscore.Internal.Correction.Weighted>
   9.000000E+99

> <Gold.Protein.RotatedTorsions>
[ 6907 6896 6895 6894 ] final   88.89 input  -60.11 | X-H torsion
[ 7974 7965 7964 7962 ] final   -7.33 input  175.53 | X-H torsion
[ 8008 7997 7996 7995 ] final -176.53 input   59.86 | X-H torsion
[ 10167 10162 10161 10158 ] final -101.11 input  -65.29 | X-H torsion
[ 10718 10713 10712 10709 ] final  150.99 input   66.30 | X-H torsion
[ 10763 10752 10751 10750 ] final  -49.07 input  -60.55 | X-H torsion
[ 11005 11000 10999 10996 ] final -158.39 input  -57.11 | X-H torsion

> <Gold.Protein.ActiveResidues>
 VAL166  LYS551  ARG553  GLY616  TRP617  ASP618  TYR619  PRO620  LYS621  CYS622 
 ASP623  PHE694  ASN695  SER759  ASP760  ASP761  ALA762  ILE779  LEU786  VAL792 
 PHE793  MET794  SER795  GLU796  ALA797  LYS798  CYS799  TRP800  GLU811  SER814 

> <Gold.Protein.RotatedAtoms>
  152.5430  134.2051  159.8727 H   0  0  0  0  0  0  0  0  0  0  0  0  # atno 6907 bound_to 6896
  151.2037  133.4589  159.2604 H   0  0  0  0  0  0  0  0  0  0  0  0  # atno 6908 bound_to 6896
  151.0964  134.9959  159.8483 H   0  0  0  0  0  0  0  0  0  0  0  0  # atno 6909 bound_to 6896
  146.2309  140.2304  142.8340 H   0  0  0  0  0  0  0  0  0  0  0  0  # atno 7974 bound_to 7965
  155.9960  140.1211  157.0593 H   0  0  0  0  0  0  0  0  0  0  0  0  # atno 8008 bound_to 7997
  154.4227  140.1116  156.5700 H   0  0  0  0  0  0  0  0  0  0  0  0  # atno 8009 bound_to 7997
  155.6277  140.3472  155.4675 H   0  0  0  0  0  0  0  0  0  0  0  0  # atno 8010 bound_to 7997
  140.2448  143.3513  152.0769 H   0  0  0  0  0  0  0  0  0  0  0  0  # atno 10167 bound_to 10162
  157.2764  131.0827  151.1563 H   0  0  0  0  0  0  0  0  0  0  0  0  # atno 10718 bound_to 10713
  154.0881  135.6581  153.4848 H   0  0  0  0  0  0  0  0  0  0  0  0  # atno 10763 bound_to 10752
  153.0331  135.5196  154.7408 H   0  0  0  0  0  0  0  0  0  0  0  0  # atno 10764 bound_to 10752
  154.6523  135.3003  154.9940 H   0  0  0  0  0  0  0  0  0  0  0  0  # atno 10765 bound_to 10752
  140.6541  134.4419  157.5235 H   0  0  0  0  0  0  0  0  0  0  0  0  # atno 11005 bound_to 11000
  144.9562  140.8229  143.5541 LP  0  0  0  0  0  0  0  0  0  0  0  0  # atno 17320 bound_to 7965
  145.2270  139.2132  143.5063 LP  0  0  0  0  0  0  0  0  0  0  0  0  # atno 17321 bound_to 7965
  139.5065  144.6815  151.5995 LP  0  0  0  0  0  0  0  0  0  0  0  0  # atno 17342 bound_to 10162
  140.6086  143.9478  150.6436 LP  0  0  0  0  0  0  0  0  0  0  0  0  # atno 17343 bound_to 10162
  157.3014  130.6845  149.6166 LP  0  0  0  0  0  0  0  0  0  0  0  0  # atno 17370 bound_to 10713
  155.9664  130.4391  150.5243 LP  0  0  0  0  0  0  0  0  0  0  0  0  # atno 17371 bound_to 10713
  139.9035  134.8501  156.1797 LP  0  0  0  0  0  0  0  0  0  0  0  0  # atno 17394 bound_to 11000
  141.0514  133.6886  156.1780 LP  0  0  0  0  0  0  0  0  0  0  0  0  # atno 17395 bound_to 11000

$$$$
