AV-unprocessed.smi:1202|AV-procd|sdf|5030|dock9
  -GOLD-   22720 4 53D 1   1.00000     0.00000
 Structure written by MMmdl.
 45 46  0  0  0  0  0  0  0  0  2 V2000
  145.5881  135.9642  151.9320 C   0  0  0  0  0  0  0  0  0  0  0  0
  146.5012  137.0216  152.3388 N   0  0  0  0  0  0  0  0  0  0  0  0
  146.2087  137.9615  153.2486 C   0  0  0  0  0  0  0  0  0  0  0  0
  145.1237  138.0264  153.8277 O   0  0  0  0  0  0  0  0  0  0  0  0
  147.3053  138.9935  153.5329 C   0  0  0  0  0  0  0  0  0  0  0  0
  148.5820  138.3796  153.9809 N   0  3  2  0  0  0  0  0  0  0  0  0
  148.4297  137.6194  155.2478 C   0  0  0  0  0  0  0  0  0  0  0  0
  149.7282  136.8773  155.6147 C   0  0  0  0  0  0  0  0  0  0  0  0
  150.9373  137.8258  155.6878 C   0  0  2  0  0  0  0  0  0  0  0  0
  150.8444  138.6828  156.8691 N   0  0  0  0  0  0  0  0  0  0  0  0
  151.8223  139.4782  157.3293 C   0  0  0  0  0  0  0  0  0  0  0  0
  152.9179  139.5861  156.7773 O   0  0  0  0  0  0  0  0  0  0  0  0
  151.4933  140.2878  158.5915 C   0  0  0  0  0  0  0  0  0  0  0  0
  151.8039  141.7210  158.4589 N   0  0  0  0  0  0  0  0  0  0  0  0
  152.6872  142.2772  159.4054 C   0  0  0  0  0  0  0  0  0  0  0  0
  153.0327  143.5741  159.3778 C   0  0  0  0  0  0  0  0  0  0  0  0
  152.4733  144.4078  158.3402 C   0  0  0  0  0  0  0  0  0  0  0  0
  151.6256  143.8862  157.4311 C   0  0  0  0  0  0  0  0  0  0  0  0
  151.2434  142.4696  157.4590 C   0  0  0  0  0  0  0  0  0  0  0  0
  150.4672  141.9844  156.6351 O   0  0  0  0  0  0  0  0  0  0  0  0
  151.0295  138.6493  154.3879 C   0  0  0  0  0  0  0  0  0  0  0  0
  149.7024  139.3549  154.0593 C   0  0  0  0  0  0  0  0  0  0  0  0
  146.0405  135.3669  151.1404 H   0  0  0  0  0  0  0  0  0  0  0  0
  144.6534  136.3792  151.5524 H   0  0  0  0  0  0  0  0  0  0  0  0
  145.3617  135.3037  152.7699 H   0  0  0  0  0  0  0  0  0  0  0  0
  147.4107  137.0381  151.8996 H   0  0  0  0  0  0  0  0  0  0  0  0
  147.4791  139.6202  152.6564 H   0  0  0  0  0  0  0  0  0  0  0  0
  146.9186  139.6485  154.3148 H   0  0  0  0  0  0  0  0  0  0  0  0
  148.1397  138.3005  156.0495 H   0  0  0  0  0  0  0  0  0  0  0  0
  147.6233  136.8924  155.1449 H   0  0  0  0  0  0  0  0  0  0  0  0
  149.6038  136.3485  156.5608 H   0  0  0  0  0  0  0  0  0  0  0  0
  149.9221  136.1103  154.8634 H   0  0  0  0  0  0  0  0  0  0  0  0
  151.8383  137.2170  155.7844 H   0  0  0  0  0  0  0  0  0  0  0  0
  149.9788  138.6549  157.3883 H   0  0  0  0  0  0  0  0  0  0  0  0
  150.4365  140.1443  158.8196 H   0  0  0  0  0  0  0  0  0  0  0  0
  152.0285  139.8665  159.4449 H   0  0  0  0  0  0  0  0  0  0  0  0
  153.0558  141.5892  160.1524 H   0  0  0  0  0  0  0  0  0  0  0  0
  153.7080  143.9837  160.1145 H   0  0  0  0  0  0  0  0  0  0  0  0
  152.7350  145.4547  158.2930 H   0  0  0  0  0  0  0  0  0  0  0  0
  151.2164  144.5255  156.6626 H   0  0  0  0  0  0  0  0  0  0  0  0
  151.8366  139.3802  154.4504 H   0  0  0  0  0  0  0  0  0  0  0  0
  151.2913  137.9850  153.5632 H   0  0  0  0  0  0  0  0  0  0  0  0
  149.8081  139.8834  153.1116 H   0  0  0  0  0  0  0  0  0  0  0  0
  149.4786  140.1102  154.8143 H   0  0  0  0  0  0  0  0  0  0  0  0
  148.8297  137.7036  153.2717 H   0  0  0  0  0  0  0  0  0  0  0  0
  1  2  1  0  0  0  0
  1 23  1  0  0  0  0
  1 24  1  0  0  0  0
  1 25  1  0  0  0  0
  2  3  1  0  0  0  0
  2 26  1  0  0  0  0
  3  4  2  0  0  0  0
  3  5  1  0  0  0  0
  5  6  1  0  0  0  0
  5 27  1  0  0  0  0
  5 28  1  0  0  0  0
  6 22  1  0  0  0  0
  6  7  1  0  0  0  0
  6 45  1  0  0  0  0
  7  8  1  0  0  0  0
  7 29  1  0  0  0  0
  7 30  1  0  0  0  0
  8  9  1  0  0  0  0
  8 31  1  0  0  0  0
  8 32  1  0  0  0  0
  9 10  1  0  0  0  0
  9 21  1  0  0  0  0
  9 33  1  0  0  0  0
 10 11  1  0  0  0  0
 10 34  1  0  0  0  0
 11 12  2  0  0  0  0
 11 13  1  0  0  0  0
 13 14  1  0  0  0  0
 13 35  1  0  0  0  0
 13 36  1  0  0  0  0
 14 19  1  0  0  0  0
 14 15  1  0  0  0  0
 15 16  2  0  0  0  0
 15 37  1  0  0  0  0
 16 17  1  0  0  0  0
 16 38  1  0  0  0  0
 17 18  2  0  0  0  0
 17 39  1  0  0  0  0
 18 19  1  0  0  0  0
 18 40  1  0  0  0  0
 19 20  2  0  0  0  0
 21 22  1  0  0  0  0
 21 41  1  0  0  0  0
 21 42  1  0  0  0  0
 22 43  1  0  0  0  0
 22 44  1  0  0  0  0
M  CHG  1   6   1
M  END
> <s_m_source_file>
AV-unprocessed.smi

> <i_m_source_file_index>
1202

> <i_lp_mmshare_version>
43012

> <i_f3d_flags>
0

> <s_epik_input>
W0NIM11bTkhdQyg9TylbQ0gyXU4xW0NIMl1bQ0gyXVtDSF0oW0NIMl1bQ0gyXTEpW05IXUMoPU8pW0NIMl1uMltjSF1bY0hdW2NIXVtjSF1jMj1P

> <s_epik_cmdline>
J2VwaWtfcHl0aG9uJywgJy1waCcsICc3LjAnLCAnLXRuJywgJzgnLCAnLW1hJywgJzIwMCcsICctbWV0YWxfYmluZGluZycsICctaW1hZScsICc8aW5maWxlLm1hZT4nLCAnLW9tYWUnLCAnPG91dGZpbGUubWFlPic=

> <r_lp_tautomer_probability>
1

> <r_epik_Ionization_Penalty>
0.983979

> <r_epik_Ionization_Penalty_Charging>
0.983957

> <r_epik_Ionization_Penalty_Neutral>
2.18432e-05

> <r_epik_State_Penalty>
1.03106

> <r_epik_Charging_Adjusted_Penalty>
2.01502

> <i_epik_Tot_Q>
1

> <i_epik_Tot_abs_Q>
1

> <r_epik_Metal_State_Penalty>
1.03477

> <b_epik_Metal_Only>
0

> <s_lp_Force_Field>
OPLS_2005

> <r_lp_Energy>
22.4374

> <b_lp_Chiralities_Consistent>
1

> <s_lp_Variant>
AV-unprocessed.smi:1202-3

> <Gold.Version>
5.8.1

> <Gold.Id.Protein>
6NUR|6NUR_protein|mol2

> <Gold.PLP.Fitness>
50.5470

> <Gold.PLP.PLP>
-39.2435

> <Gold.PLP.part.hbond>
-3.0000

> <Gold.PLP.part.metal>
0.0000

> <Gold.PLP.part.buried>
-4.7535

> <Gold.PLP.part.nonpolar>
-33.1107

> <Gold.PLP.part.repulsive>
0.3206

> <Gold.PLP.ligand.clash>
0.0000

> <Gold.PLP.ligand.torsion>
0.2151

> <Gold.PLP.Chemscore.Hbond>
3.8960

> <Gold.PLP.Chemscore.CHOScore>
0.0000

> <Gold.PLP.Chemscore.Metal>
0.0000

> <Gold.Chemscore.Hbonds>
donor molecule, donor type, donor heavy atom, donor atom, acceptor molecule, acceptor atom, score
      L1  H     2    26       P1  7948  0.88
      L1  H     6    45       P1  7948  2.00
      P1  H  7997  8010       L1    12  1.00

> <Gold.PLP.Chemscore.Internal.Correction>
0.0456

> <Gold.Rescore>
     Score         DG    S(hbond)    S(metal)    S(lipo)     H(rot)  DE(clash)    DE(int)     intcor
     18.78     -19.95       2.96        0.00      88.00       2.23       0.02       1.14       ----

> <Gold.Chemscore.Fitness>
18.7819

> <Gold.Chemscore.DG>
-19.9487

> <Gold.Chemscore.ZeroCoef>
-5.4800

> <Gold.Chemscore.Hbond>
2.9622

> <Gold.Chemscore.Metal>
0.0000

> <Gold.Chemscore.Lipo>
87.9951

> <Gold.Chemscore.Internal_Hbond>
0.0000

> <Gold.Chemscore.DEClash>
0.0240

> <Gold.Chemscore.DEInternal>
1.1428

> <Gold.Chemscore.Rot>
2.2346

> <Gold.Chemscore.Internal.Correction>
   9.000000E+99

> <Gold.Chemscore.Hbonds>
donor molecule, donor type, donor heavy atom, donor atom, acceptor molecule, acceptor atom, score
      L1  H     2    26       P1  7948  0.87
      L1  H     6    45       P1  7948  0.93
      P1  H  7997  8010       L1    12  0.95

> <Gold.Chemscore.Hbond.Weighted>
-9.8938

> <Gold.Chemscore.Metal.Weighted>
-0.0000

> <Gold.Chemscore.Lipo.Weighted>
-10.2954

> <Gold.Chemscore.Internal_Hbond.Weighted>
0.0000

> <Gold.Chemscore.DEClash.Weighted>
0.0240

> <Gold.Chemscore.DEInternal.Weighted>
1.1428

> <Gold.Chemscore.Rot.Weighted>
5.7205

> <Gold.Chemscore.Internal.Correction.Weighted>
   9.000000E+99

> <Gold.Protein.RotatedTorsions>
[ 6907 6896 6895 6894 ] final  -44.39 input  -60.11 | X-H torsion
[ 7974 7965 7964 7962 ] final  -70.45 input  175.53 | X-H torsion
[ 8008 7997 7996 7995 ] final   58.26 input   59.86 | X-H torsion
[ 10167 10162 10161 10158 ] final -119.58 input  -65.29 | X-H torsion
[ 10718 10713 10712 10709 ] final   31.54 input   66.30 | X-H torsion
[ 10763 10752 10751 10750 ] final   57.27 input  -60.55 | X-H torsion
[ 11005 11000 10999 10996 ] final  -99.71 input  -57.11 | X-H torsion

> <Gold.Protein.ActiveResidues>
 VAL166  LYS551  ARG553  GLY616  TRP617  ASP618  TYR619  PRO620  LYS621  CYS622 
 ASP623  PHE694  ASN695  SER759  ASP760  ASP761  ALA762  ILE779  LEU786  VAL792 
 PHE793  MET794  SER795  GLU796  ALA797  LYS798  CYS799  TRP800  GLU811  SER814 

> <Gold.Protein.RotatedAtoms>
  150.9333  134.8747  159.7565 H   0  0  0  0  0  0  0  0  0  0  0  0  # atno 6907 bound_to 6896
  152.5048  134.4047  159.9438 H   0  0  0  0  0  0  0  0  0  0  0  0  # atno 6908 bound_to 6896
  151.4073  133.3698  159.2774 H   0  0  0  0  0  0  0  0  0  0  0  0  # atno 6909 bound_to 6896
  145.6908  140.9154  143.0783 H   0  0  0  0  0  0  0  0  0  0  0  0  # atno 7974 bound_to 7965
  155.5471  140.3485  155.4460 H   0  0  0  0  0  0  0  0  0  0  0  0  # atno 8008 bound_to 7997
  156.0609  140.1340  156.9968 H   0  0  0  0  0  0  0  0  0  0  0  0  # atno 8009 bound_to 7997
  154.4479  140.0985  156.6501 H   0  0  0  0  0  0  0  0  0  0  0  0  # atno 8010 bound_to 7997
  140.0451  143.5115  152.2111 H   0  0  0  0  0  0  0  0  0  0  0  0  # atno 10167 bound_to 10162
  157.2738  130.7221  149.6519 H   0  0  0  0  0  0  0  0  0  0  0  0  # atno 10718 bound_to 10713
  152.9847  135.5647  154.5363 H   0  0  0  0  0  0  0  0  0  0  0  0  # atno 10763 bound_to 10752
  154.4825  135.2789  155.1561 H   0  0  0  0  0  0  0  0  0  0  0  0  # atno 10764 bound_to 10752
  154.3064  135.6297  153.5500 H   0  0  0  0  0  0  0  0  0  0  0  0  # atno 10765 bound_to 10752
  141.1298  133.8342  157.1007 H   0  0  0  0  0  0  0  0  0  0  0  0  # atno 11005 bound_to 11000
  144.6997  139.8819  143.7447 LP  0  0  0  0  0  0  0  0  0  0  0  0  # atno 17320 bound_to 7965
  146.0884  139.3873  143.0421 LP  0  0  0  0  0  0  0  0  0  0  0  0  # atno 17321 bound_to 7965
  139.5989  144.7576  151.3219 LP  0  0  0  0  0  0  0  0  0  0  0  0  # atno 17342 bound_to 10162
  140.7242  143.7049  150.7815 LP  0  0  0  0  0  0  0  0  0  0  0  0  # atno 17343 bound_to 10162
  155.9663  130.4359  150.5112 LP  0  0  0  0  0  0  0  0  0  0  0  0  # atno 17370 bound_to 10713
  157.3042  131.0651  151.2047 LP  0  0  0  0  0  0  0  0  0  0  0  0  # atno 17371 bound_to 10713
  140.0335  134.9890  157.0826 LP  0  0  0  0  0  0  0  0  0  0  0  0  # atno 17394 bound_to 11000
  140.4248  134.1843  155.7165 LP  0  0  0  0  0  0  0  0  0  0  0  0  # atno 17395 bound_to 11000

$$$$
