AV-unprocessed.smi:1830|AV-procd|sdf|7451|dock1
  -GOLD-   22720 9143D 1   1.00000     0.00000
 Structure written by MMmdl.
 54 57  0  0  0  0  0  0  0  0  3 V2000
  145.2032  137.8698  152.7750 O   0  0  0  0  0  0  0  0  0  0  0  0
  146.3066  137.3960  152.5069 C   0  0  0  0  0  0  0  0  0  0  0  0
  146.4790  136.1700  151.9938 N   0  0  0  0  0  0  0  0  0  0  0  0
  145.4061  135.2123  151.7429 C   0  0  0  0  0  0  0  0  0  0  0  0
  145.9239  133.8205  151.3329 C   0  0  1  0  0  0  0  0  0  0  0  0
  146.6101  133.0606  152.4962 C   0  0  0  0  0  0  0  0  0  0  0  0
  146.9265  131.6951  152.0380 N   0  3  1  0  0  0  0  0  0  0  0  0
  147.5953  130.7792  152.9781 C   0  0  0  0  0  0  0  0  0  0  0  0
  147.2460  129.3667  152.4675 C   0  0  0  0  0  0  0  0  0  0  0  0
  146.2204  129.5720  151.3375 C   0  0  0  0  0  0  0  0  0  0  0  0
  145.7262  130.9956  151.5745 C   0  0  2  0  0  0  0  0  0  0  0  0
  145.1293  131.7629  150.3887 C   0  0  0  0  0  0  0  0  0  0  0  0
  144.8013  133.0746  150.8497 O   0  0  0  0  0  0  0  0  0  0  0  0
  147.4837  138.0142  152.7026 N   0  0  0  0  0  0  0  0  0  0  0  0
  147.7192  139.2843  153.3030 C   0  0  0  0  0  0  0  0  0  0  0  0
  146.7963  140.3517  153.1544 C   0  0  0  0  0  0  0  0  0  0  0  0
  147.0428  141.5881  153.7799 C   0  0  0  0  0  0  0  0  0  0  0  0
  148.2124  141.7425  154.5430 C   0  0  0  0  0  0  0  0  0  0  0  0
  149.0811  140.7161  154.6486 N   0  3  0  0  0  0  0  0  0  0  0  0
  148.9082  139.5069  154.0582 C   0  0  0  0  0  0  0  0  0  0  0  0
  149.9147  138.5323  154.2493 N   0  0  0  0  0  0  0  0  0  0  0  0
  149.6048  137.2693  154.9100 C   0  0  0  0  0  0  0  0  0  0  0  0
  150.9604  136.6558  155.2493 C   0  0  0  0  0  0  0  0  0  0  0  0
  151.8048  137.8847  155.5718 C   0  0  0  0  0  0  0  0  0  0  0  0
  151.2581  138.9599  154.6266 C   0  0  0  0  0  0  0  0  0  0  0  0
  147.4201  135.8581  151.8028 H   0  0  0  0  0  0  0  0  0  0  0  0
  144.8064  135.1309  152.6500 H   0  0  0  0  0  0  0  0  0  0  0  0
  144.7408  135.6061  150.9725 H   0  0  0  0  0  0  0  0  0  0  0  0
  146.6322  133.9311  150.5098 H   0  0  0  0  0  0  0  0  0  0  0  0
  147.5292  133.5625  152.8006 H   0  0  0  0  0  0  0  0  0  0  0  0
  145.9561  133.0181  153.3686 H   0  0  0  0  0  0  0  0  0  0  0  0
  148.6698  130.9614  153.0064 H   0  0  0  0  0  0  0  0  0  0  0  0
  147.1982  130.9224  153.9843 H   0  0  0  0  0  0  0  0  0  0  0  0
  148.1281  128.8410  152.1006 H   0  0  0  0  0  0  0  0  0  0  0  0
  146.8208  128.7699  153.2751 H   0  0  0  0  0  0  0  0  0  0  0  0
  146.7164  129.5013  150.3684 H   0  0  0  0  0  0  0  0  0  0  0  0
  145.4149  128.8374  151.3582 H   0  0  0  0  0  0  0  0  0  0  0  0
  144.9971  130.9742  152.3876 H   0  0  0  0  0  0  0  0  0  0  0  0
  145.8272  131.8158  149.5515 H   0  0  0  0  0  0  0  0  0  0  0  0
  144.2247  131.2718  150.0301 H   0  0  0  0  0  0  0  0  0  0  0  0
  148.3081  137.4619  152.5182 H   0  0  0  0  0  0  0  0  0  0  0  0
  145.8994  140.2439  152.5634 H   0  0  0  0  0  0  0  0  0  0  0  0
  146.3432  142.4048  153.6770 H   0  0  0  0  0  0  0  0  0  0  0  0
  148.4828  142.6510  155.0616 H   0  0  0  0  0  0  0  0  0  0  0  0
  149.0437  137.4461  155.8284 H   0  0  0  0  0  0  0  0  0  0  0  0
  149.0154  136.6158  154.2659 H   0  0  0  0  0  0  0  0  0  0  0  0
  150.9105  135.9419  156.0718 H   0  0  0  0  0  0  0  0  0  0  0  0
  151.3682  136.1422  154.3773 H   0  0  0  0  0  0  0  0  0  0  0  0
  151.6341  138.1837  156.6069 H   0  0  0  0  0  0  0  0  0  0  0  0
  152.8740  137.7127  155.4451 H   0  0  0  0  0  0  0  0  0  0  0  0
  151.8738  139.0127  153.7284 H   0  0  0  0  0  0  0  0  0  0  0  0
  151.2601  139.9424  155.1010 H   0  0  0  0  0  0  0  0  0  0  0  0
  147.5354  131.7781  151.2364 H   0  0  0  0  0  0  0  0  0  0  0  0
  149.9257  140.8629  155.2016 H   0  0  0  0  0  0  0  0  0  0  0  0
  1  2  2  0  0  0  0
  2  3  1  0  0  0  0
  2 14  1  0  0  0  0
  3  4  1  0  0  0  0
  3 26  1  0  0  0  0
  4  5  1  0  0  0  0
  4 27  1  0  0  0  0
  4 28  1  0  0  0  0
  5 13  1  0  0  0  0
  5  6  1  0  0  0  0
  5 29  1  0  0  0  0
  6  7  1  0  0  0  0
  6 30  1  0  0  0  0
  6 31  1  0  0  0  0
  7 11  1  0  0  0  0
  7  8  1  0  0  0  0
  7 53  1  0  0  0  0
  8  9  1  0  0  0  0
  8 32  1  0  0  0  0
  8 33  1  0  0  0  0
  9 10  1  0  0  0  0
  9 34  1  0  0  0  0
  9 35  1  0  0  0  0
 10 11  1  0  0  0  0
 10 36  1  0  0  0  0
 10 37  1  0  0  0  0
 11 12  1  0  0  0  0
 11 38  1  0  0  0  0
 12 13  1  0  0  0  0
 12 39  1  0  0  0  0
 12 40  1  0  0  0  0
 14 15  1  0  0  0  0
 14 41  1  0  0  0  0
 15 20  1  0  0  0  0
 15 16  2  0  0  0  0
 16 17  1  0  0  0  0
 16 42  1  0  0  0  0
 17 18  2  0  0  0  0
 17 43  1  0  0  0  0
 18 19  1  0  0  0  0
 18 44  1  0  0  0  0
 19 20  2  0  0  0  0
 19 54  1  0  0  0  0
 20 21  1  0  0  0  0
 21 25  1  0  0  0  0
 21 22  1  0  0  0  0
 22 23  1  0  0  0  0
 22 45  1  0  0  0  0
 22 46  1  0  0  0  0
 23 24  1  0  0  0  0
 23 47  1  0  0  0  0
 23 48  1  0  0  0  0
 24 25  1  0  0  0  0
 24 49  1  0  0  0  0
 24 50  1  0  0  0  0
 25 51  1  0  0  0  0
 25 52  1  0  0  0  0
M  CHG  1   7   1
M  CHG  1  19   1
M  END
> <s_m_source_file>
AV-unprocessed.smi

> <i_m_source_file_index>
1830

> <i_lp_mmshare_version>
43012

> <i_f3d_flags>
0

> <s_epik_input>
W0NIMl0xW0NIMl1bQ0gyXVtDQEhdKE4xMilbQ0gyXU9bQ0BASF0oW0NIMl0yKVtDSDJdW05IXUMoPU8pW05IXWMzW2NIXVtjSF1bY0hdbmMzTjRbQ0gyXVtDSDJdW0NIMl1bQ0gyXTQ=

> <s_epik_cmdline>
J2VwaWtfcHl0aG9uJywgJy1waCcsICc3LjAnLCAnLXRuJywgJzgnLCAnLW1hJywgJzIwMCcsICctbWV0YWxfYmluZGluZycsICctaW1hZScsICc8aW5maWxlLm1hZT4nLCAnLW9tYWUnLCAnPG91dGZpbGUubWFlPic=

> <r_lp_tautomer_probability>
0.999994

> <r_epik_Ionization_Penalty>
1.29113

> <r_epik_Ionization_Penalty_Charging>
1.29111

> <r_epik_Ionization_Penalty_Neutral>
1.88144e-05

> <r_epik_State_Penalty>
1.32676

> <r_epik_Charging_Adjusted_Penalty>
2.61787

> <i_epik_Tot_Q>
2

> <i_epik_Tot_abs_Q>
2

> <r_epik_Metal_State_Penalty>
1.40425

> <b_epik_Metal_Only>
0

> <s_lp_Force_Field>
OPLS_2005

> <r_lp_Energy>
72.9797

> <b_lp_Chiralities_Consistent>
1

> <s_lp_Variant>
AV-unprocessed.smi:1830-20

> <Gold.Version>
5.8.1

> <Gold.Id.Protein>
6NUR|6NUR_protein|mol2

> <Gold.PLP.Fitness>
46.7244

> <Gold.PLP.PLP>
-38.9282

> <Gold.PLP.part.hbond>
-2.5090

> <Gold.PLP.part.metal>
0.0000

> <Gold.PLP.part.buried>
-1.5168

> <Gold.PLP.part.nonpolar>
-35.8015

> <Gold.PLP.part.repulsive>
1.4716

> <Gold.PLP.ligand.clash>
0.0000

> <Gold.PLP.ligand.torsion>
0.6215

> <Gold.PLP.Chemscore.Hbond>
2.8715

> <Gold.PLP.Chemscore.CHOScore>
0.0000

> <Gold.PLP.Chemscore.Metal>
0.0000

> <Gold.Chemscore.Hbonds>
donor molecule, donor type, donor heavy atom, donor atom, acceptor molecule, acceptor atom, score
      L1  H     3    26       P1  7948  0.94
      L1  H     7    53       P1 10747  0.85
      L1  H    14    41       P1  7948  0.97

> <Gold.PLP.Chemscore.Internal.Correction>
0.4248

> <Gold.Rescore>
     Score         DG    S(hbond)    S(metal)    S(lipo)     H(rot)  DE(clash)    DE(int)     intcor
     21.10     -23.60       2.66        0.00     110.05       1.43       0.76       1.74       ----

> <Gold.Chemscore.Fitness>
21.1001

> <Gold.Chemscore.DG>
-23.6003

> <Gold.Chemscore.ZeroCoef>
-5.4800

> <Gold.Chemscore.Hbond>
2.6645

> <Gold.Chemscore.Metal>
0.0000

> <Gold.Chemscore.Lipo>
110.0516

> <Gold.Chemscore.Internal_Hbond>
0.0000

> <Gold.Chemscore.DEClash>
0.7556

> <Gold.Chemscore.DEInternal>
1.7446

> <Gold.Chemscore.Rot>
1.4278

> <Gold.Chemscore.Internal.Correction>
   9.000000E+99

> <Gold.Chemscore.Hbonds>
donor molecule, donor type, donor heavy atom, donor atom, acceptor molecule, acceptor atom, score
      L1  H     3    26       P1  7948  0.86
      L1  H     7    53       P1 10747  0.84
      L1  H    14    41       P1  7948  0.86

> <Gold.Chemscore.Hbond.Weighted>
-8.8993

> <Gold.Chemscore.Metal.Weighted>
-0.0000

> <Gold.Chemscore.Lipo.Weighted>
-12.8760

> <Gold.Chemscore.Internal_Hbond.Weighted>
0.0000

> <Gold.Chemscore.DEClash.Weighted>
0.7556

> <Gold.Chemscore.DEInternal.Weighted>
1.7446

> <Gold.Chemscore.Rot.Weighted>
3.6551

> <Gold.Chemscore.Internal.Correction.Weighted>
   9.000000E+99

> <Gold.Protein.RotatedTorsions>
[ 6907 6896 6895 6894 ] final   71.74 input  -60.11 | X-H torsion
[ 7974 7965 7964 7962 ] final  166.87 input  175.53 | X-H torsion
[ 8008 7997 7996 7995 ] final  142.86 input   59.86 | X-H torsion
[ 10167 10162 10161 10158 ] final  -98.52 input  -65.29 | X-H torsion
[ 10718 10713 10712 10709 ] final -125.88 input   66.30 | X-H torsion
[ 10763 10752 10751 10750 ] final  136.20 input  -60.55 | X-H torsion
[ 11005 11000 10999 10996 ] final   36.11 input  -57.11 | X-H torsion

> <Gold.Protein.ActiveResidues>
 VAL166  LYS551  ARG553  GLY616  TRP617  ASP618  TYR619  PRO620  LYS621  CYS622 
 ASP623  PHE694  ASN695  SER759  ASP760  ASP761  ALA762  ILE779  LEU786  VAL792 
 PHE793  MET794  SER795  GLU796  ALA797  LYS798  CYS799  TRP800  GLU811  SER814 

> <Gold.Protein.RotatedAtoms>
  152.4828  134.4675  159.9624 H   0  0  0  0  0  0  0  0  0  0  0  0  # atno 6907 bound_to 6896
  151.4678  133.3570  159.2826 H   0  0  0  0  0  0  0  0  0  0  0  0  # atno 6908 bound_to 6896
  150.8913  134.8342  159.7356 H   0  0  0  0  0  0  0  0  0  0  0  0  # atno 6909 bound_to 6896
  144.7446  139.8678  143.6386 H   0  0  0  0  0  0  0  0  0  0  0  0  # atno 7974 bound_to 7965
  156.2941  140.2277  156.4796 H   0  0  0  0  0  0  0  0  0  0  0  0  # atno 8008 bound_to 7997
  154.7864  140.0457  157.1188 H   0  0  0  0  0  0  0  0  0  0  0  0  # atno 8009 bound_to 7997
  154.9697  140.3065  155.4997 H   0  0  0  0  0  0  0  0  0  0  0  0  # atno 8010 bound_to 7997
  140.2721  143.3337  152.0524 H   0  0  0  0  0  0  0  0  0  0  0  0  # atno 10167 bound_to 10162
  156.1715  130.6671  151.0186 H   0  0  0  0  0  0  0  0  0  0  0  0  # atno 10718 bound_to 10713
  153.8526  135.3077  155.3433 H   0  0  0  0  0  0  0  0  0  0  0  0  # atno 10763 bound_to 10752
  154.7884  135.4796  154.0001 H   0  0  0  0  0  0  0  0  0  0  0  0  # atno 10764 bound_to 10752
  153.1509  135.6843  153.8977 H   0  0  0  0  0  0  0  0  0  0  0  0  # atno 10765 bound_to 10752
  140.2358  134.3473  155.7945 H   0  0  0  0  0  0  0  0  0  0  0  0  # atno 11005 bound_to 11000
  146.1302  139.4336  143.0173 LP  0  0  0  0  0  0  0  0  0  0  0  0  # atno 17320 bound_to 7965
  145.7174  141.0086  143.1420 LP  0  0  0  0  0  0  0  0  0  0  0  0  # atno 17321 bound_to 7965
  139.4986  144.6649  151.6379 LP  0  0  0  0  0  0  0  0  0  0  0  0  # atno 17342 bound_to 10162
  140.5881  143.9828  150.6308 LP  0  0  0  0  0  0  0  0  0  0  0  0  # atno 17343 bound_to 10162
  157.6806  131.0839  150.7379 LP  0  0  0  0  0  0  0  0  0  0  0  0  # atno 17370 bound_to 10713
  156.7438  130.4747  149.5471 LP  0  0  0  0  0  0  0  0  0  0  0  0  # atno 17371 bound_to 10713
  141.2214  133.7271  156.8806 LP  0  0  0  0  0  0  0  0  0  0  0  0  # atno 17394 bound_to 11000
  140.1703  134.9104  157.2825 LP  0  0  0  0  0  0  0  0  0  0  0  0  # atno 17395 bound_to 11000

$$$$
