AV-unprocessed.smi:1572|AV-procd|sdf|6331|dock6
  -GOLD-   22720 6543D 1   1.00000     0.00000
 Structure written by MMmdl.
 42 43  0  0  0  0  0  0  0  0  3 V2000
  144.2200  133.2079  150.7031 C   0  0  0  0  0  0  0  0  0  0  0  0
  145.3705  134.0675  150.4457 N   0  0  0  0  0  0  0  0  0  0  0  0
  145.4227  135.2373  151.3219 C   0  0  0  0  0  0  0  0  0  0  0  0
  145.7908  134.8669  152.7741 C   0  0  0  0  0  0  0  0  0  0  0  0
  147.0998  134.1542  152.8209 N   0  3  0  0  0  0  0  0  0  0  0  0
  147.6786  133.9310  154.1946 C   0  0  0  0  0  0  0  0  0  0  0  0
  146.7675  132.9693  154.9987 C   0  0  0  0  0  0  0  0  0  0  0  0
  149.0469  133.2143  154.0669 C   0  0  0  0  0  0  0  0  0  0  0  0
  147.8328  135.2752  154.9681 C   0  0  0  0  0  0  0  0  0  0  0  0
  149.0508  136.0061  154.6215 N   0  0  0  0  0  0  0  0  0  0  0  0
  150.2206  135.9614  155.2750 C   0  0  0  0  0  0  0  0  0  0  0  0
  150.3433  135.2482  156.2734 O   0  0  0  0  0  0  0  0  0  0  0  0
  151.1720  136.7553  154.7354 N   0  5  0  0  0  0  0  0  0  0  0  0
  151.2605  138.0432  155.1067 C   0  0  0  0  0  0  0  0  0  0  0  0
  152.2954  138.8226  154.7547 N   0  0  0  0  0  0  0  0  0  0  0  0
  152.1927  140.1188  155.2409 N   0  0  0  0  0  0  0  0  0  0  0  0
  151.0714  140.2874  155.9414 C   0  0  0  0  0  0  0  0  0  0  0  0
  150.0400  138.8786  156.0712 S   0  0  0  0  0  0  0  0  0  0  0  0
  147.0326  132.9540  151.9393 C   0  0  0  0  0  0  0  0  0  0  0  0
  146.6463  133.3550  150.5005 C   0  0  0  0  0  0  0  0  0  0  0  0
  143.2948  133.7730  150.5866 H   0  0  0  0  0  0  0  0  0  0  0  0
  144.2292  132.7808  151.7052 H   0  0  0  0  0  0  0  0  0  0  0  0
  144.1964  132.3860  149.9870 H   0  0  0  0  0  0  0  0  0  0  0  0
  146.1623  135.9345  150.9258 H   0  0  0  0  0  0  0  0  0  0  0  0
  144.4642  135.7574  151.2938 H   0  0  0  0  0  0  0  0  0  0  0  0
  145.8275  135.7953  153.3399 H   0  0  0  0  0  0  0  0  0  0  0  0
  145.0044  134.2613  153.2233 H   0  0  0  0  0  0  0  0  0  0  0  0
  147.2516  132.6272  155.9142 H   0  0  0  0  0  0  0  0  0  0  0  0
  146.5168  132.0800  154.4193 H   0  0  0  0  0  0  0  0  0  0  0  0
  145.8369  133.4422  155.3115 H   0  0  0  0  0  0  0  0  0  0  0  0
  149.4004  132.8412  155.0286 H   0  0  0  0  0  0  0  0  0  0  0  0
  149.8291  133.8761  153.6959 H   0  0  0  0  0  0  0  0  0  0  0  0
  148.9859  132.3555  153.3975 H   0  0  0  0  0  0  0  0  0  0  0  0
  146.9642  135.9173  154.8218 H   0  0  0  0  0  0  0  0  0  0  0  0
  147.8863  135.0923  156.0407 H   0  0  0  0  0  0  0  0  0  0  0  0
  149.0046  136.6054  153.8104 H   0  0  0  0  0  0  0  0  0  0  0  0
  150.8500  141.2470  156.3840 H   0  0  0  0  0  0  0  0  0  0  0  0
  147.9971  132.4544  151.8812 H   0  0  0  0  0  0  0  0  0  0  0  0
  146.3272  132.2230  152.3338 H   0  0  0  0  0  0  0  0  0  0  0  0
  146.6004  132.4738  149.8596 H   0  0  0  0  0  0  0  0  0  0  0  0
  147.4215  133.9991  150.0827 H   0  0  0  0  0  0  0  0  0  0  0  0
  147.7534  134.7766  152.3684 H   0  0  0  0  0  0  0  0  0  0  0  0
  1  2  1  0  0  0  0
  1 21  1  0  0  0  0
  1 22  1  0  0  0  0
  1 23  1  0  0  0  0
  2 20  1  0  0  0  0
  2  3  1  0  0  0  0
  3  4  1  0  0  0  0
  3 24  1  0  0  0  0
  3 25  1  0  0  0  0
  4  5  1  0  0  0  0
  4 26  1  0  0  0  0
  4 27  1  0  0  0  0
  5  6  1  0  0  0  0
  5 19  1  0  0  0  0
  5 42  1  0  0  0  0
  6  7  1  0  0  0  0
  6  8  1  0  0  0  0
  6  9  1  0  0  0  0
  7 28  1  0  0  0  0
  7 29  1  0  0  0  0
  7 30  1  0  0  0  0
  8 31  1  0  0  0  0
  8 32  1  0  0  0  0
  8 33  1  0  0  0  0
  9 10  1  0  0  0  0
  9 34  1  0  0  0  0
  9 35  1  0  0  0  0
 10 11  1  0  0  0  0
 10 36  1  0  0  0  0
 11 12  2  0  0  0  0
 11 13  1  0  0  0  0
 13 14  1  0  0  0  0
 14 18  1  0  0  0  0
 14 15  2  0  0  0  0
 15 16  1  0  0  0  0
 16 17  2  0  0  0  0
 17 18  1  0  0  0  0
 17 37  1  0  0  0  0
 19 20  1  0  0  0  0
 19 38  1  0  0  0  0
 19 39  1  0  0  0  0
 20 40  1  0  0  0  0
 20 41  1  0  0  0  0
M  CHG  1   5   1
M  CHG  1  13  -1
M  END
> <s_m_source_file>
AV-unprocessed.smi

> <i_m_source_file_index>
1572

> <i_lp_mmshare_version>
43012

> <i_f3d_flags>
0

> <s_epik_input>
W0NIM11OMVtDSDJdW0NIMl1OKFtDSDJdW0NIMl0xKUMoW0NIM10pKFtDSDNdKVtDSDJdW05IXUMoPU8pW05IXWMybm5bY0hdczI=

> <s_epik_cmdline>
J2VwaWtfcHl0aG9uJywgJy1waCcsICc3LjAnLCAnLXRuJywgJzgnLCAnLW1hJywgJzIwMCcsICctbWV0YWxfYmluZGluZycsICctaW1hZScsICc8aW5maWxlLm1hZT4nLCAnLW9tYWUnLCAnPG91dGZpbGUubWFlPic=

> <r_epik_Ionization_Penalty>
3.12043

> <r_epik_Ionization_Penalty_Charging>
3.08547

> <r_epik_Ionization_Penalty_Neutral>
0.0349584

> <r_epik_State_Penalty>
4.04075

> <r_epik_Charging_Adjusted_Penalty>
7.12622

> <i_epik_Tot_Q>
0

> <i_epik_Tot_abs_Q>
2

> <r_epik_Metal_State_Penalty>
1.47091

> <b_epik_Metal_Only>
1

> <s_lp_Force_Field>
OPLS_2005

> <r_lp_Energy>
19.1563

> <b_lp_Chiralities_Consistent>
1

> <s_lp_Variant>
AV-unprocessed.smi:1572-5

> <Gold.Version>
5.8.1

> <Gold.Id.Protein>
6NUR|6NUR_protein|mol2

> <Gold.PLP.Fitness>
46.3290

> <Gold.PLP.PLP>
-31.4684

> <Gold.PLP.part.hbond>
-5.3230

> <Gold.PLP.part.metal>
0.0000

> <Gold.PLP.part.buried>
-5.5665

> <Gold.PLP.part.nonpolar>
-22.0232

> <Gold.PLP.part.repulsive>
1.1994

> <Gold.PLP.ligand.clash>
0.0000

> <Gold.PLP.ligand.torsion>
1.3329

> <Gold.PLP.Chemscore.Hbond>
5.8000

> <Gold.PLP.Chemscore.CHOScore>
0.0000

> <Gold.PLP.Chemscore.Metal>
0.0000

> <Gold.Chemscore.Hbonds>
donor molecule, donor type, donor heavy atom, donor atom, acceptor molecule, acceptor atom, score
      L1  H     5    42       P1  7948  2.00
      L1  H    10    36       P1  7948  0.66
      P1  H  7989  7998       L1    16  0.49
      P1  H  7997  8009       L1    16  0.10
      P1  H 10752 10763       L1    13  1.59

> <Gold.PLP.Chemscore.Internal.Correction>
0.1264

> <Gold.Rescore>
     Score         DG    S(hbond)    S(metal)    S(lipo)     H(rot)  DE(clash)    DE(int)     intcor
     16.82     -18.41       3.35        0.00      51.36       1.67       0.11       1.48       ----

> <Gold.Chemscore.Fitness>
16.8194

> <Gold.Chemscore.DG>
-18.4144

> <Gold.Chemscore.ZeroCoef>
-5.4800

> <Gold.Chemscore.Hbond>
3.3530

> <Gold.Chemscore.Metal>
0.0000

> <Gold.Chemscore.Lipo>
51.3588

> <Gold.Chemscore.Internal_Hbond>
0.0000

> <Gold.Chemscore.DEClash>
0.1103

> <Gold.Chemscore.DEInternal>
1.4847

> <Gold.Chemscore.Rot>
1.6694

> <Gold.Chemscore.Internal.Correction>
   9.000000E+99

> <Gold.Chemscore.Hbonds>
donor molecule, donor type, donor heavy atom, donor atom, acceptor molecule, acceptor atom, score
      L1  H     5    42       P1  7948  0.82
      L1  H    10    36       P1  7948  0.63
      P1  H  7989  7998       L1    16  0.02
      P1  H  7997  8009       L1    16  0.01
      P1  H 10752 10763       L1    13  0.46

> <Gold.Chemscore.Hbond.Weighted>
-11.1992

> <Gold.Chemscore.Metal.Weighted>
-0.0000

> <Gold.Chemscore.Lipo.Weighted>
-6.0090

> <Gold.Chemscore.Internal_Hbond.Weighted>
0.0000

> <Gold.Chemscore.DEClash.Weighted>
0.1103

> <Gold.Chemscore.DEInternal.Weighted>
1.4847

> <Gold.Chemscore.Rot.Weighted>
4.2738

> <Gold.Chemscore.Internal.Correction.Weighted>
   9.000000E+99

> <Gold.Protein.RotatedTorsions>
[ 6907 6896 6895 6894 ] final   22.22 input  -60.11 | X-H torsion
[ 7974 7965 7964 7962 ] final -121.80 input  175.53 | X-H torsion
[ 8008 7997 7996 7995 ] final -129.36 input   59.86 | X-H torsion
[ 10167 10162 10161 10158 ] final  -71.23 input  -65.29 | X-H torsion
[ 10718 10713 10712 10709 ] final   94.96 input   66.30 | X-H torsion
[ 10763 10752 10751 10750 ] final   57.96 input  -60.55 | X-H torsion
[ 11005 11000 10999 10996 ] final -158.77 input  -57.11 | X-H torsion

> <Gold.Protein.ActiveResidues>
 VAL166  LYS551  ARG553  GLY616  TRP617  ASP618  TYR619  PRO620  LYS621  CYS622 
 ASP623  PHE694  ASN695  SER759  ASP760  ASP761  ALA762  ILE779  LEU786  VAL792 
 PHE793  MET794  SER795  GLU796  ALA797  LYS798  CYS799  TRP800  GLU811  SER814 

> <Gold.Protein.RotatedAtoms>
  151.9237  135.0287  160.0523 H   0  0  0  0  0  0  0  0  0  0  0  0  # atno 6907 bound_to 6896
  152.2177  133.4955  159.5153 H   0  0  0  0  0  0  0  0  0  0  0  0  # atno 6908 bound_to 6896
  150.6992  134.1300  159.4109 H   0  0  0  0  0  0  0  0  0  0  0  0  # atno 6909 bound_to 6896
  145.0364  140.8109  143.4293 H   0  0  0  0  0  0  0  0  0  0  0  0  # atno 7974 bound_to 7965
  155.2779  140.0443  157.3013 H   0  0  0  0  0  0  0  0  0  0  0  0  # atno 8008 bound_to 7997
  154.5614  140.2347  155.8298 H   0  0  0  0  0  0  0  0  0  0  0  0  # atno 8009 bound_to 7997
  156.2050  140.3015  155.9615 H   0  0  0  0  0  0  0  0  0  0  0  0  # atno 8010 bound_to 7997
  140.5290  143.2323  151.7296 H   0  0  0  0  0  0  0  0  0  0  0  0  # atno 10167 bound_to 10162
  157.6943  131.0530  150.4267 H   0  0  0  0  0  0  0  0  0  0  0  0  # atno 10718 bound_to 10713
  152.9860  135.5623  154.5475 H   0  0  0  0  0  0  0  0  0  0  0  0  # atno 10763 bound_to 10752
  154.4918  135.2793  155.1492 H   0  0  0  0  0  0  0  0  0  0  0  0  # atno 10764 bound_to 10752
  154.2959  135.6317  153.5457 H   0  0  0  0  0  0  0  0  0  0  0  0  # atno 10765 bound_to 10752
  140.6499  134.4461  157.5235 H   0  0  0  0  0  0  0  0  0  0  0  0  # atno 11005 bound_to 11000
  145.1704  139.2407  143.5345 LP  0  0  0  0  0  0  0  0  0  0  0  0  # atno 17320 bound_to 7965
  146.3504  140.1454  142.8593 LP  0  0  0  0  0  0  0  0  0  0  0  0  # atno 17321 bound_to 7965
  139.4948  144.4143  152.0047 LP  0  0  0  0  0  0  0  0  0  0  0  0  # atno 17342 bound_to 10162
  140.3244  144.3390  150.6002 LP  0  0  0  0  0  0  0  0  0  0  0  0  # atno 17343 bound_to 10162
  156.4637  130.4037  149.6560 LP  0  0  0  0  0  0  0  0  0  0  0  0  # atno 17370 bound_to 10713
  156.3666  130.7509  151.2487 LP  0  0  0  0  0  0  0  0  0  0  0  0  # atno 17371 bound_to 10713
  139.9049  134.8471  156.1745 LP  0  0  0  0  0  0  0  0  0  0  0  0  # atno 17394 bound_to 11000
  141.0544  133.6872  156.1832 LP  0  0  0  0  0  0  0  0  0  0  0  0  # atno 17395 bound_to 11000

$$$$
