AV-unprocessed.smi:72|AV-procd|sdf|684|dock10
  -GOLD-   2262016593D 1   1.00000     0.00000
 Structure written by MMmdl.
 29 30  0  0  0  0  0  0  0  0  1 V2000
  145.0748  142.3271  154.4934 N   0  0  0  0  0  0  0  0  0  0  0  0
  146.1887  141.6915  154.4160 C   0  0  0  0  0  0  0  0  0  0  0  0
  147.3753  142.0490  155.0728 N   0  0  0  0  0  0  0  0  0  0  0  0
  148.4314  141.3183  154.8880 C   0  0  0  0  0  0  0  0  0  0  0  0
  148.4345  140.1552  154.0148 N   0  0  0  0  0  0  0  0  0  0  0  0
  149.7151  139.3454  153.8819 C   0  0  1  0  0  0  0  0  0  0  0  0
  150.7006  139.8690  154.7248 O   0  0  0  0  0  0  0  0  0  0  0  0
  151.1757  138.8699  155.6281 C   0  0  2  0  0  0  0  0  0  0  0  0
  152.6515  139.1119  155.9929 C   0  0  0  0  0  0  0  0  0  0  0  0
  153.3849  139.4792  154.8441 O   0  0  0  0  0  0  0  0  0  0  0  0
  150.8751  137.5392  154.9215 C   0  0  2  0  0  0  0  0  0  0  0  0
  151.9103  137.1930  154.0182 O   0  0  0  0  0  0  0  0  0  0  0  0
  149.5926  137.8289  154.1549 C   0  0  1  0  0  0  0  0  0  0  0  0
  148.4539  137.4463  154.9025 O   0  0  0  0  0  0  0  0  0  0  0  0
  147.2291  139.7598  153.3746 C   0  0  0  0  0  0  0  0  0  0  0  0
  147.1449  138.7654  152.6575 O   0  0  0  0  0  0  0  0  0  0  0  0
  146.1614  140.5560  153.5979 N   0  0  0  0  0  0  0  0  0  0  0  0
  150.0698  139.5262  152.8662 H   0  0  0  0  0  0  0  0  0  0  0  0
  150.5723  138.8980  156.5355 H   0  0  0  0  0  0  0  0  0  0  0  0
  150.7625  136.7186  155.6316 H   0  0  0  0  0  0  0  0  0  0  0  0
  149.5511  137.2944  153.2047 H   0  0  0  0  0  0  0  0  0  0  0  0
  144.3734  141.8680  153.9300 H   0  0  0  0  0  0  0  0  0  0  0  0
  149.3849  141.5344  155.3720 H   0  0  0  0  0  0  0  0  0  0  0  0
  152.7329  139.9350  156.7034 H   0  0  0  0  0  0  0  0  0  0  0  0
  153.0965  138.2319  156.4587 H   0  0  0  0  0  0  0  0  0  0  0  0
  153.7270  138.6954  154.4419 H   0  0  0  0  0  0  0  0  0  0  0  0
  151.5377  137.1046  153.1543 H   0  0  0  0  0  0  0  0  0  0  0  0
  148.5331  136.5313  155.1233 H   0  0  0  0  0  0  0  0  0  0  0  0
  145.2914  140.3076  153.1501 H   0  0  0  0  0  0  0  0  0  0  0  0
  1  2  2  0  0  0  0
  1 22  1  0  0  0  0
  2 17  1  0  0  0  0
  2  3  1  0  0  0  0
  3  4  2  0  0  0  0
  4  5  1  0  0  0  0
  4 23  1  0  0  0  0
  5  6  1  0  0  0  0
  5 15  1  0  0  0  0
  6 18  1  0  0  0  0
  6 13  1  0  0  0  0
  6  7  1  0  0  0  0
  7  8  1  0  0  0  0
  8 19  1  0  0  0  0
  8  9  1  0  0  0  0
  8 11  1  0  0  0  0
  9 10  1  0  0  0  0
  9 24  1  0  0  0  0
  9 25  1  0  0  0  0
 10 26  1  0  0  0  0
 11 20  1  0  0  0  0
 11 12  1  0  0  0  0
 11 13  1  0  0  0  0
 12 27  1  0  0  0  0
 13 21  1  0  0  0  0
 13 14  1  0  0  0  0
 14 28  1  0  0  0  0
 15 16  2  0  0  0  0
 15 17  1  0  0  0  0
 17 29  1  0  0  0  0
M  END
> <s_m_source_file>
AV-unprocessed.smi

> <i_m_source_file_index>
72

> <i_lp_mmshare_version>
43012

> <i_f3d_flags>
0

> <s_epik_input>
W05IMl1jMW5bY0hdbihjKD1PKW4xKVtDQEBIXTJPW0NASF0oW0NIMl1bT0hdKVtDQEBIXShbT0hdKVtDQEhdMltPSF0=

> <s_epik_cmdline>
J2VwaWtfcHl0aG9uJywgJy1waCcsICc3LjAnLCAnLXRuJywgJzgnLCAnLW1hJywgJzIwMCcsICctbWV0YWxfYmluZGluZycsICctaW1hZScsICc8aW5maWxlLm1hZT4nLCAnLW9tYWUnLCAnPG91dGZpbGUubWFlPic=

> <r_lp_tautomer_probability>
7.17554e-07

> <r_epik_Ionization_Penalty>
0.0066451

> <r_epik_Ionization_Penalty_Charging>
0.00663793

> <r_epik_Ionization_Penalty_Neutral>
7.17052e-06

> <r_epik_State_Penalty>
0.419231

> <r_epik_Charging_Adjusted_Penalty>
0.425868

> <i_epik_Tot_Q>
0

> <i_epik_Tot_abs_Q>
0

> <r_epik_Metal_State_Penalty>
1.44144

> <b_epik_Metal_Only>
0

> <s_epik_Chemistry_Notes>
This compound contains an acetal/aminal-like group ( X-CH(R)-Y where X, Y are N, S, or O) that may be acid/base labile, releasing an aldehyde.

> <s_lp_Force_Field>
OPLS_2005

> <r_lp_Energy>
43.3095

> <b_lp_Chiralities_Consistent>
1

> <s_lp_Variant>
AV-unprocessed.smi:72-22

> <Gold.Version>
5.8.1

> <Gold.Id.Protein>
6NUR|6NUR_protein|mol2

> <Gold.PLP.Fitness>
38.7333

> <Gold.PLP.PLP>
-23.1522

> <Gold.PLP.part.hbond>
-7.0028

> <Gold.PLP.part.metal>
0.0000

> <Gold.PLP.part.buried>
2.6318

> <Gold.PLP.part.nonpolar>
-20.3230

> <Gold.PLP.part.repulsive>
0.5218

> <Gold.PLP.ligand.clash>
0.0000

> <Gold.PLP.ligand.torsion>
0.2368

> <Gold.PLP.Chemscore.Hbond>
5.3417

> <Gold.PLP.Chemscore.CHOScore>
0.0000

> <Gold.PLP.Chemscore.Metal>
0.0000

> <Gold.Chemscore.Hbonds>
donor molecule, donor type, donor heavy atom, donor atom, acceptor molecule, acceptor atom, score
      L1  H     1    22       P1 10175  0.39
      L1  H    12    27       P1  7949  0.99
      L1  H    17    29       P1 10175  1.00
      P1  H  7989  7998       L1     7  0.95
      P1  H  7997  8008       L1    10  0.88
      P1  H 10752 10763       L1    12  0.88

> <Gold.PLP.Chemscore.Internal.Correction>
0.0295

> <Gold.Rescore>
     Score         DG    S(hbond)    S(metal)    S(lipo)     H(rot)  DE(clash)    DE(int)     intcor
      6.86      -9.14       3.25        0.00      27.25       4.06       2.16       0.12       ----

> <Gold.Chemscore.Fitness>
6.8640

> <Gold.Chemscore.DG>
-9.1443

> <Gold.Chemscore.ZeroCoef>
-5.4800

> <Gold.Chemscore.Hbond>
3.2543

> <Gold.Chemscore.Metal>
0.0000

> <Gold.Chemscore.Lipo>
27.2531

> <Gold.Chemscore.Internal_Hbond>
0.0000

> <Gold.Chemscore.DEClash>
2.1623

> <Gold.Chemscore.DEInternal>
0.1179

> <Gold.Chemscore.Rot>
4.0600

> <Gold.Chemscore.Internal.Correction>
   9.000000E+99

> <Gold.Chemscore.Hbonds>
donor molecule, donor type, donor heavy atom, donor atom, acceptor molecule, acceptor atom, score
      L1  H     1    22       P1 10175  0.01
      L1  H    12    27       P1  7949  0.79
      L1  H    17    29       P1 10175  0.98
      P1  H  7989  7998       L1     7  0.22
      P1  H  7997  8008       L1    10  0.15
      P1  H 10752 10763       L1    12  0.17

> <Gold.Chemscore.Hbond.Weighted>
-10.8693

> <Gold.Chemscore.Metal.Weighted>
-0.0000

> <Gold.Chemscore.Lipo.Weighted>
-3.1886

> <Gold.Chemscore.Internal_Hbond.Weighted>
0.0000

> <Gold.Chemscore.DEClash.Weighted>
2.1623

> <Gold.Chemscore.DEInternal.Weighted>
0.1179

> <Gold.Chemscore.Rot.Weighted>
10.3936

> <Gold.Chemscore.Internal.Correction.Weighted>
   9.000000E+99

> <Gold.Protein.RotatedTorsions>
[ 6907 6896 6895 6894 ] final   32.61 input  -60.11 | X-H torsion
[ 7974 7965 7964 7962 ] final -158.76 input  175.53 | X-H torsion
[ 8008 7997 7996 7995 ] final   15.34 input   59.86 | X-H torsion
[ 10167 10162 10161 10158 ] final -178.36 input  -65.29 | X-H torsion
[ 10718 10713 10712 10709 ] final -160.85 input   66.30 | X-H torsion
[ 10763 10752 10751 10750 ] final   19.38 input  -60.55 | X-H torsion
[ 11005 11000 10999 10996 ] final  177.18 input  -57.11 | X-H torsion

> <Gold.Protein.ActiveResidues>
 VAL166  LYS551  ARG553  GLY616  TRP617  ASP618  TYR619  PRO620  LYS621  CYS622 
 ASP623  PHE694  ASN695  SER759  ASP760  ASP761  ALA762  ILE779  LEU786  VAL792 
 PHE793  MET794  SER795  GLU796  ALA797  LYS798  CYS799  TRP800  GLU811  SER814 

> <Gold.Protein.RotatedAtoms>
  152.0768  134.9497  160.0573 H   0  0  0  0  0  0  0  0  0  0  0  0  # atno 6907 bound_to 6896
  152.0801  133.4144  159.4506 H   0  0  0  0  0  0  0  0  0  0  0  0  # atno 6908 bound_to 6896
  150.6836  134.2911  159.4710 H   0  0  0  0  0  0  0  0  0  0  0  0  # atno 6909 bound_to 6896
  144.7492  140.3782  143.6061 H   0  0  0  0  0  0  0  0  0  0  0  0  # atno 7974 bound_to 7965
  154.8613  140.2944  155.5537 H   0  0  0  0  0  0  0  0  0  0  0  0  # atno 8008 bound_to 7997
  156.3020  140.2477  156.3520 H   0  0  0  0  0  0  0  0  0  0  0  0  # atno 8009 bound_to 7997
  154.8916  140.0394  157.1831 H   0  0  0  0  0  0  0  0  0  0  0  0  # atno 8010 bound_to 7997
  139.5436  144.2296  152.0944 H   0  0  0  0  0  0  0  0  0  0  0  0  # atno 10167 bound_to 10162
  156.5880  130.8758  151.2882 H   0  0  0  0  0  0  0  0  0  0  0  0  # atno 10718 bound_to 10713
  153.1167  135.6709  153.9406 H   0  0  0  0  0  0  0  0  0  0  0  0  # atno 10763 bound_to 10752
  153.8933  135.3044  155.3449 H   0  0  0  0  0  0  0  0  0  0  0  0  # atno 10764 bound_to 10752
  154.7583  135.5001  153.9494 H   0  0  0  0  0  0  0  0  0  0  0  0  # atno 10765 bound_to 10752
  140.3812  134.6944  157.4452 H   0  0  0  0  0  0  0  0  0  0  0  0  # atno 11005 bound_to 11000
  145.7006  139.1660  143.2595 LP  0  0  0  0  0  0  0  0  0  0  0  0  # atno 17320 bound_to 7965
  146.1418  140.7047  142.9363 LP  0  0  0  0  0  0  0  0  0  0  0  0  # atno 17321 bound_to 7965
  140.1779  144.4873  150.6544 LP  0  0  0  0  0  0  0  0  0  0  0  0  # atno 17342 bound_to 10162
  140.6676  143.2273  151.5706 LP  0  0  0  0  0  0  0  0  0  0  0  0  # atno 17343 bound_to 10162
  157.7310  130.9694  150.1862 LP  0  0  0  0  0  0  0  0  0  0  0  0  # atno 17370 bound_to 10713
  156.2574  130.3707  149.8167 LP  0  0  0  0  0  0  0  0  0  0  0  0  # atno 17371 bound_to 10713
  140.0477  134.6176  155.8901 LP  0  0  0  0  0  0  0  0  0  0  0  0  # atno 17394 bound_to 11000
  141.1922  133.6574  156.5494 LP  0  0  0  0  0  0  0  0  0  0  0  0  # atno 17395 bound_to 11000

$$$$
