AV-unprocessed.smi:17|AV-procd|sdf|102|dock7
  -GOLD-   2262015253D 1   1.00000     0.00000
 Structure written by MMmdl.
 57 59  0  0  0  0  0  0  0  0  1 V2000
  143.1178  136.2251  152.3084 C   0  0  0  0  0  0  0  0  0  0  0  0
  143.8241  134.8658  152.2039 C   0  0  0  0  0  0  0  0  0  0  0  0
  145.2817  134.9974  152.1199 N   0  0  0  0  0  0  0  0  0  0  0  0
  145.9181  135.7620  153.0488 C   0  0  0  0  0  0  0  0  0  0  0  0
  146.0572  135.2585  154.3038 N   0  0  0  0  0  0  0  0  0  0  0  0
  146.6809  135.9595  155.2538 C   0  0  0  0  0  0  0  0  0  0  0  0
  147.2255  137.1734  155.1710 N   0  0  0  0  0  0  0  0  0  0  0  0
  147.0758  137.6971  153.9216 C   0  0  0  0  0  0  0  0  0  0  0  0
  146.4414  137.0685  152.8109 C   0  0  0  0  0  0  0  0  0  0  0  0
  146.4669  137.9265  151.7157 N   0  0  0  0  0  0  0  0  0  0  0  0
  147.0907  138.9874  152.1475 C   0  0  0  0  0  0  0  0  0  0  0  0
  147.4844  138.9377  153.4640 N   0  0  0  0  0  0  0  0  0  0  0  0
  148.1817  139.9805  154.1965 C   0  0  0  0  0  0  0  0  0  0  0  0
  149.2203  139.4255  155.2026 C   0  0  1  0  0  0  0  0  0  0  0  0
  150.1156  138.3214  154.5886 C   0  0  0  0  0  0  0  0  0  0  0  0
  150.6041  138.6999  153.3180 O   0  0  0  0  0  0  0  0  0  0  0  0
  150.0524  140.5600  155.8526 C   0  0  1  0  0  0  0  0  0  0  0  0
  149.2442  141.5752  156.6414 C   0  0  0  0  0  0  0  0  0  0  0  0
  150.3166  142.2349  157.4994 C   0  0  0  0  0  0  0  0  0  0  0  0
  151.2466  141.2015  157.8003 O   0  0  0  0  0  0  0  0  0  0  0  0
  151.0436  140.0950  156.9261 C   0  0  0  0  0  0  0  0  0  0  0  0
  146.0356  134.4190  151.0017 C   0  0  2  0  0  0  0  0  0  0  0  0
  145.6477  135.0760  149.6664 C   0  0  0  0  0  0  0  0  0  0  0  0
  145.9152  132.8810  150.9326 C   0  0  0  0  0  0  0  0  0  0  0  0
  146.7153  132.1514  149.4301 S   0  0  0  0  0  0  0  0  0  0  0  0
  147.5231  130.6371  150.0955 C   0  0  0  0  0  0  0  0  0  0  0  0
  145.6488  131.7168  148.5156 O   0  0  0  0  0  0  0  0  0  0  0  0
  147.7669  133.0599  148.9479 O   0  0  0  0  0  0  0  0  0  0  0  0
  142.0361  136.0948  152.3419 H   0  0  0  0  0  0  0  0  0  0  0  0
  143.3483  136.8596  151.4528 H   0  0  0  0  0  0  0  0  0  0  0  0
  143.4131  136.7603  153.2111 H   0  0  0  0  0  0  0  0  0  0  0  0
  143.5471  134.2354  153.0490 H   0  0  0  0  0  0  0  0  0  0  0  0
  143.4534  134.3491  151.3196 H   0  0  0  0  0  0  0  0  0  0  0  0
  146.7536  135.4792  156.2183 H   0  0  0  0  0  0  0  0  0  0  0  0
  147.2741  139.8450  151.5168 H   0  0  0  0  0  0  0  0  0  0  0  0
  148.6646  140.6490  153.4829 H   0  0  0  0  0  0  0  0  0  0  0  0
  147.4281  140.5760  154.7118 H   0  0  0  0  0  0  0  0  0  0  0  0
  148.6543  138.9467  156.0032 H   0  0  0  0  0  0  0  0  0  0  0  0
  150.9644  138.1052  155.2368 H   0  0  0  0  0  0  0  0  0  0  0  0
  149.5705  137.3828  154.4888 H   0  0  0  0  0  0  0  0  0  0  0  0
  150.2803  138.0869  152.6756 H   0  0  0  0  0  0  0  0  0  0  0  0
  150.6066  141.0955  155.0796 H   0  0  0  0  0  0  0  0  0  0  0  0
  148.7179  142.2930  156.0113 H   0  0  0  0  0  0  0  0  0  0  0  0
  148.5122  141.0735  157.2760 H   0  0  0  0  0  0  0  0  0  0  0  0
  150.8312  143.0120  156.9326 H   0  0  0  0  0  0  0  0  0  0  0  0
  149.9111  142.6871  158.4047 H   0  0  0  0  0  0  0  0  0  0  0  0
  150.6265  139.2737  157.5108 H   0  0  0  0  0  0  0  0  0  0  0  0
  151.9879  139.7572  156.4987 H   0  0  0  0  0  0  0  0  0  0  0  0
  147.0960  134.6171  151.1447 H   0  0  0  0  0  0  0  0  0  0  0  0
  146.2794  134.7140  148.8551 H   0  0  0  0  0  0  0  0  0  0  0  0
  145.7636  136.1591  149.7118 H   0  0  0  0  0  0  0  0  0  0  0  0
  144.6127  134.8626  149.3983 H   0  0  0  0  0  0  0  0  0  0  0  0
  146.3054  132.3837  151.8198 H   0  0  0  0  0  0  0  0  0  0  0  0
  144.8598  132.6153  150.8701 H   0  0  0  0  0  0  0  0  0  0  0  0
  147.9520  130.0681  149.2710 H   0  0  0  0  0  0  0  0  0  0  0  0
  146.7848  130.0229  150.6103 H   0  0  0  0  0  0  0  0  0  0  0  0
  148.3180  130.9082  150.7865 H   0  0  0  0  0  0  0  0  0  0  0  0
  1  2  1  0  0  0  0
  1 29  1  0  0  0  0
  1 30  1  0  0  0  0
  1 31  1  0  0  0  0
  2  3  1  0  0  0  0
  2 32  1  0  0  0  0
  2 33  1  0  0  0  0
  3  4  1  0  0  0  0
  3 22  1  0  0  0  0
  4  9  1  0  0  0  0
  4  5  2  0  0  0  0
  5  6  1  0  0  0  0
  6  7  2  0  0  0  0
  6 34  1  0  0  0  0
  7  8  1  0  0  0  0
  8 12  1  0  0  0  0
  8  9  2  0  0  0  0
  9 10  1  0  0  0  0
 10 11  2  0  0  0  0
 11 12  1  0  0  0  0
 11 35  1  0  0  0  0
 12 13  1  0  0  0  0
 13 14  1  0  0  0  0
 13 36  1  0  0  0  0
 13 37  1  0  0  0  0
 14 15  1  0  0  0  0
 14 17  1  0  0  0  0
 14 38  1  0  0  0  0
 15 16  1  0  0  0  0
 15 39  1  0  0  0  0
 15 40  1  0  0  0  0
 16 41  1  0  0  0  0
 17 21  1  0  0  0  0
 17 18  1  0  0  0  0
 17 42  1  0  0  0  0
 18 19  1  0  0  0  0
 18 43  1  0  0  0  0
 18 44  1  0  0  0  0
 19 20  1  0  0  0  0
 19 45  1  0  0  0  0
 19 46  1  0  0  0  0
 20 21  1  0  0  0  0
 21 47  1  0  0  0  0
 21 48  1  0  0  0  0
 22 23  1  0  0  0  0
 22 24  1  0  0  0  0
 22 49  1  0  0  0  0
 23 50  1  0  0  0  0
 23 51  1  0  0  0  0
 23 52  1  0  0  0  0
 24 25  1  0  0  0  0
 24 53  1  0  0  0  0
 24 54  1  0  0  0  0
 25 26  1  0  0  0  0
 25 27  2  0  0  0  0
 25 28  2  0  0  0  0
 26 55  1  0  0  0  0
 26 56  1  0  0  0  0
 26 57  1  0  0  0  0
M  END
> <s_m_source_file>
AV-unprocessed.smi

> <i_m_source_file_index>
17

> <i_lp_mmshare_version>
43012

> <i_f3d_flags>
0

> <s_epik_input>
W0NIM11TKD1PKSg9TylbQ0gyXVtDQEBIXShbQ0gzXSlOKFtDSDJdW0NIM10pYyhuW2NIXW4xKWMoYzEyKW5bY0hdbjJbQ0gyXVtDQEhdKFtDSDJdW09IXSlbQ0BASF0zW0NIMl1bQ0gyXU9bQ0gyXTM=

> <s_epik_cmdline>
J2VwaWtfcHl0aG9uJywgJy1waCcsICc3LjAnLCAnLXRuJywgJzgnLCAnLW1hJywgJzIwMCcsICctbWV0YWxfYmluZGluZycsICctaW1hZScsICc8aW5maWxlLm1hZT4nLCAnLW9tYWUnLCAnPG91dGZpbGUubWFlPic=

> <r_lp_tautomer_probability>
1

> <r_epik_Ionization_Penalty>
0.00119955

> <r_epik_Ionization_Penalty_Charging>
0

> <r_epik_Ionization_Penalty_Neutral>
0.00119955

> <r_epik_State_Penalty>
0.000665399

> <r_epik_Charging_Adjusted_Penalty>
0.000665399

> <i_epik_Tot_Q>
0

> <i_epik_Tot_abs_Q>
0

> <r_epik_Metal_State_Penalty>
-0

> <b_epik_Metal_Only>
0

> <s_lp_Force_Field>
OPLS_2005

> <r_lp_Energy>
33.4806

> <b_lp_Chiralities_Consistent>
1

> <s_lp_Variant>
AV-unprocessed.smi:17-4

> <Gold.Version>
5.8.1

> <Gold.Id.Protein>
6NUR|6NUR_protein|mol2

> <Gold.PLP.Fitness>
43.9984

> <Gold.PLP.PLP>
-40.2801

> <Gold.PLP.part.hbond>
-4.0000

> <Gold.PLP.part.metal>
0.0000

> <Gold.PLP.part.buried>
-4.8007

> <Gold.PLP.part.nonpolar>
-32.1616

> <Gold.PLP.part.repulsive>
0.7895

> <Gold.PLP.ligand.clash>
0.0000

> <Gold.PLP.ligand.torsion>
2.4420

> <Gold.PLP.Chemscore.Hbond>
1.8564

> <Gold.PLP.Chemscore.CHOScore>
0.7957

> <Gold.PLP.Chemscore.Metal>
0.0000

> <Gold.Chemscore.Hbonds>
donor molecule, donor type, donor heavy atom, donor atom, acceptor molecule, acceptor atom, score
      L1  H    16    41       P1  7948  0.12
      P1  H  7989  7998       L1    16  0.10
      L1  C    11    35       P1  7957  0.59

> <Gold.PLP.Chemscore.Internal.Correction>
0.6459

> <Gold.Rescore>
     Score         DG    S(hbond)    S(metal)    S(lipo)     H(rot)  DE(clash)    DE(int)     intcor
      5.89     -10.09       1.44        0.00      74.85       3.51       0.26       3.94       ----

> <Gold.Chemscore.Fitness>
5.8911

> <Gold.Chemscore.DG>
-10.0850

> <Gold.Chemscore.ZeroCoef>
-5.4800

> <Gold.Chemscore.Hbond>
1.4440

> <Gold.Chemscore.Metal>
0.0000

> <Gold.Chemscore.Lipo>
74.8454

> <Gold.Chemscore.Internal_Hbond>
0.0000

> <Gold.Chemscore.DEClash>
0.2556

> <Gold.Chemscore.DEInternal>
3.9383

> <Gold.Chemscore.Rot>
3.5059

> <Gold.Chemscore.Internal.Correction>
   9.000000E+99

> <Gold.Chemscore.Hbonds>
donor molecule, donor type, donor heavy atom, donor atom, acceptor molecule, acceptor atom, score
      L1  H    16    41       P1  7948  0.01
      P1  H  7989  7998       L1    16  0.09

> <Gold.Chemscore.Hbond.Weighted>
-4.8231

> <Gold.Chemscore.Metal.Weighted>
-0.0000

> <Gold.Chemscore.Lipo.Weighted>
-8.7569

> <Gold.Chemscore.Internal_Hbond.Weighted>
0.0000

> <Gold.Chemscore.DEClash.Weighted>
0.2556

> <Gold.Chemscore.DEInternal.Weighted>
3.9383

> <Gold.Chemscore.Rot.Weighted>
8.9750

> <Gold.Chemscore.Internal.Correction.Weighted>
   9.000000E+99

> <Gold.Protein.RotatedTorsions>
[ 6907 6896 6895 6894 ] final -115.59 input  -60.11 | X-H torsion
[ 7974 7965 7964 7962 ] final  129.99 input  175.53 | X-H torsion
[ 8008 7997 7996 7995 ] final -173.21 input   59.86 | X-H torsion
[ 10167 10162 10161 10158 ] final   26.74 input  -65.29 | X-H torsion
[ 10718 10713 10712 10709 ] final  161.62 input   66.30 | X-H torsion
[ 10763 10752 10751 10750 ] final  -19.26 input  -60.55 | X-H torsion
[ 11005 11000 10999 10996 ] final  117.54 input  -57.11 | X-H torsion

> <Gold.Protein.ActiveResidues>
 VAL166  LYS551  ARG553  GLY616  TRP617  ASP618  TYR619  PRO620  LYS621  CYS622 
 ASP623  PHE694  ASN695  SER759  ASP760  ASP761  ALA762  ILE779  LEU786  VAL792 
 PHE793  MET794  SER795  GLU796  ALA797  LYS798  CYS799  TRP800  GLU811  SER814 

> <Gold.Protein.RotatedAtoms>
  150.7990  133.8637  159.3238 H   0  0  0  0  0  0  0  0  0  0  0  0  # atno 6907 bound_to 6896
  151.6454  135.1006  160.0159 H   0  0  0  0  0  0  0  0  0  0  0  0  # atno 6908 bound_to 6896
  152.4075  133.6872  159.6404 H   0  0  0  0  0  0  0  0  0  0  0  0  # atno 6909 bound_to 6896
  145.0227  139.4117  143.5189 H   0  0  0  0  0  0  0  0  0  0  0  0  # atno 7974 bound_to 7965
  155.9545  140.1133  157.0948 H   0  0  0  0  0  0  0  0  0  0  0  0  # atno 8008 bound_to 7997
  154.4117  140.1194  156.5163 H   0  0  0  0  0  0  0  0  0  0  0  0  # atno 8009 bound_to 7997
  155.6799  140.3473  155.4853 H   0  0  0  0  0  0  0  0  0  0  0  0  # atno 8010 bound_to 7997
  140.4997  144.0335  150.6328 H   0  0  0  0  0  0  0  0  0  0  0  0  # atno 10167 bound_to 10162
  157.1340  131.0524  151.2358 H   0  0  0  0  0  0  0  0  0  0  0  0  # atno 10718 bound_to 10713
  153.6020  135.6999  153.5380 H   0  0  0  0  0  0  0  0  0  0  0  0  # atno 10763 bound_to 10752
  153.3089  135.4107  155.1318 H   0  0  0  0  0  0  0  0  0  0  0  0  # atno 10764 bound_to 10752
  154.8580  135.3667  154.5556 H   0  0  0  0  0  0  0  0  0  0  0  0  # atno 10765 bound_to 10752
  139.9078  134.9611  156.7366 H   0  0  0  0  0  0  0  0  0  0  0  0  # atno 11005 bound_to 11000
  146.3488  139.9733  142.8704 LP  0  0  0  0  0  0  0  0  0  0  0  0  # atno 17320 bound_to 7965
  145.1874  140.9796  143.4231 LP  0  0  0  0  0  0  0  0  0  0  0  0  # atno 17321 bound_to 7965
  140.3627  143.2899  152.0365 LP  0  0  0  0  0  0  0  0  0  0  0  0  # atno 17342 bound_to 10162
  139.4869  144.6290  151.7107 LP  0  0  0  0  0  0  0  0  0  0  0  0  # atno 17343 bound_to 10162
  157.4367  130.7521  149.7035 LP  0  0  0  0  0  0  0  0  0  0  0  0  # atno 17370 bound_to 10713
  155.9802  130.4032  150.3542 LP  0  0  0  0  0  0  0  0  0  0  0  0  # atno 17371 bound_to 10713
  140.6883  133.9413  155.7951 LP  0  0  0  0  0  0  0  0  0  0  0  0  # atno 17394 bound_to 11000
  141.0460  134.0553  157.3843 LP  0  0  0  0  0  0  0  0  0  0  0  0  # atno 17395 bound_to 11000

$$$$
