AV-unprocessed.smi:890|AV-procd|sdf|4059|dock5
  -GOLD-   22720 1543D 1   1.00000     0.00000
 Structure written by MMmdl.
 51 54  0  0  0  0  0  0  0  0  1 V2000
  150.5975  134.4202  155.7656 O   0  0  0  0  0  0  0  0  0  0  0  0
  150.1397  135.0226  154.7945 C   0  0  0  0  0  0  0  0  0  0  0  0
  149.3473  134.4839  153.8528 N   0  0  0  0  0  0  0  0  0  0  0  0
  148.8572  133.1497  153.7689 C   0  0  0  0  0  0  0  0  0  0  0  0
  149.4964  132.0788  154.4402 C   0  0  0  0  0  0  0  0  0  0  0  0
  148.9801  130.7779  154.3131 C   0  0  0  0  0  0  0  0  0  0  0  0
  147.8368  130.5919  153.5184 C   0  0  0  0  0  0  0  0  0  0  0  0
  147.2055  131.6026  152.8884 N   0  0  0  0  0  0  0  0  0  0  0  0
  147.6829  132.8653  153.0141 C   0  0  0  0  0  0  0  0  0  0  0  0
  146.9677  133.8876  152.3493 N   0  0  0  0  0  0  0  0  0  0  0  0
  146.8829  133.9044  150.8929 C   0  0  0  0  0  0  0  0  0  0  0  0
  145.7497  134.8757  150.5755 C   0  0  0  0  0  0  0  0  0  0  0  0
  144.7740  134.6205  151.7201 C   0  0  0  0  0  0  0  0  0  0  0  0
  145.6856  134.3033  152.9105 C   0  0  0  0  0  0  0  0  0  0  0  0
  150.3916  136.3122  154.5296 N   0  0  0  0  0  0  0  0  0  0  0  0
  151.2295  137.2013  155.3292 C   0  0  0  0  0  0  0  0  0  0  0  0
  150.6369  137.3485  156.7391 C   0  0  0  0  0  0  0  0  0  0  0  0
  151.4006  138.4083  157.5518 C   0  0  0  0  0  0  0  0  0  0  0  0
  151.3587  139.6974  156.8616 N   0  0  0  0  0  0  0  0  0  0  0  0
  152.0383  140.6903  157.6775 C   0  0  0  0  0  0  0  0  0  0  0  0
  151.4869  140.9548  159.0602 C   0  0  0  0  0  0  0  0  0  0  0  0
  151.3031  141.9794  157.9668 C   0  0  0  0  0  0  0  0  0  0  0  0
  152.0453  139.5916  155.5739 C   0  0  0  0  0  0  0  0  0  0  0  0
  151.3184  138.5849  154.6647 C   0  0  0  0  0  0  0  0  0  0  0  0
  149.1422  135.0695  153.0568 H   0  0  0  0  0  0  0  0  0  0  0  0
  150.3679  132.2355  155.0574 H   0  0  0  0  0  0  0  0  0  0  0  0
  149.4499  129.9435  154.8123 H   0  0  0  0  0  0  0  0  0  0  0  0
  147.4120  129.6072  153.3917 H   0  0  0  0  0  0  0  0  0  0  0  0
  147.8253  134.2193  150.4439 H   0  0  0  0  0  0  0  0  0  0  0  0
  146.6314  132.9160  150.5060 H   0  0  0  0  0  0  0  0  0  0  0  0
  146.1143  135.9029  150.6186 H   0  0  0  0  0  0  0  0  0  0  0  0
  145.3097  134.7105  149.5917 H   0  0  0  0  0  0  0  0  0  0  0  0
  144.1078  135.4626  151.9087 H   0  0  0  0  0  0  0  0  0  0  0  0
  144.1583  133.7502  151.4876 H   0  0  0  0  0  0  0  0  0  0  0  0
  145.2494  133.5364  153.5524 H   0  0  0  0  0  0  0  0  0  0  0  0
  145.8393  135.2012  153.5095 H   0  0  0  0  0  0  0  0  0  0  0  0
  149.9731  136.7135  153.7030 H   0  0  0  0  0  0  0  0  0  0  0  0
  152.2389  136.7969  155.4261 H   0  0  0  0  0  0  0  0  0  0  0  0
  149.5848  137.6312  156.6766 H   0  0  0  0  0  0  0  0  0  0  0  0
  150.6697  136.3903  157.2590 H   0  0  0  0  0  0  0  0  0  0  0  0
  150.9447  138.5070  158.5376 H   0  0  0  0  0  0  0  0  0  0  0  0
  152.4349  138.0959  157.7068 H   0  0  0  0  0  0  0  0  0  0  0  0
  153.1192  140.7842  157.5859 H   0  0  0  0  0  0  0  0  0  0  0  0
  150.6081  140.3954  159.3754 H   0  0  0  0  0  0  0  0  0  0  0  0
  152.2010  141.1832  159.8486 H   0  0  0  0  0  0  0  0  0  0  0  0
  151.8940  142.8909  158.0274 H   0  0  0  0  0  0  0  0  0  0  0  0
  150.3021  142.0997  157.5567 H   0  0  0  0  0  0  0  0  0  0  0  0
  152.0638  140.5690  155.0902 H   0  0  0  0  0  0  0  0  0  0  0  0
  153.0829  139.2883  155.7232 H   0  0  0  0  0  0  0  0  0  0  0  0
  151.8387  138.5076  153.7093 H   0  0  0  0  0  0  0  0  0  0  0  0
  150.3174  138.9585  154.4426 H   0  0  0  0  0  0  0  0  0  0  0  0
  1  2  2  0  0  0  0
  2  3  1  0  0  0  0
  2 15  1  0  0  0  0
  3  4  1  0  0  0  0
  3 25  1  0  0  0  0
  4  9  1  0  0  0  0
  4  5  2  0  0  0  0
  5  6  1  0  0  0  0
  5 26  1  0  0  0  0
  6  7  2  0  0  0  0
  6 27  1  0  0  0  0
  7  8  1  0  0  0  0
  7 28  1  0  0  0  0
  8  9  2  0  0  0  0
  9 10  1  0  0  0  0
 10 14  1  0  0  0  0
 10 11  1  0  0  0  0
 11 12  1  0  0  0  0
 11 29  1  0  0  0  0
 11 30  1  0  0  0  0
 12 13  1  0  0  0  0
 12 31  1  0  0  0  0
 12 32  1  0  0  0  0
 13 14  1  0  0  0  0
 13 33  1  0  0  0  0
 13 34  1  0  0  0  0
 14 35  1  0  0  0  0
 14 36  1  0  0  0  0
 15 16  1  0  0  0  0
 15 37  1  0  0  0  0
 16 24  1  0  0  0  0
 16 17  1  0  0  0  0
 16 38  1  0  0  0  0
 17 18  1  0  0  0  0
 17 39  1  0  0  0  0
 17 40  1  0  0  0  0
 18 19  1  0  0  0  0
 18 41  1  0  0  0  0
 18 42  1  0  0  0  0
 19 20  1  0  0  0  0
 19 23  1  0  0  0  0
 20 22  1  0  0  0  0
 20 21  1  0  0  0  0
 20 43  1  0  0  0  0
 21 22  1  0  0  0  0
 21 44  1  0  0  0  0
 21 45  1  0  0  0  0
 22 46  1  0  0  0  0
 22 47  1  0  0  0  0
 23 24  1  0  0  0  0
 23 48  1  0  0  0  0
 23 49  1  0  0  0  0
 24 50  1  0  0  0  0
 24 51  1  0  0  0  0
M  END
> <s_m_source_file>
AV-unprocessed.smi

> <i_m_source_file_index>
890

> <i_lp_mmshare_version>
43012

> <i_f3d_flags>
0

> <s_epik_input>
W0NIMl0xW0NIMl1bQ0hdMU4oW0NIMl1bQ0gyXTIpW0NIMl1bQ0gyXVtDSF0yW05IXUMoPU8pW05IXWMzW2NIXVtjSF1bY0hdbmMzTjRbQ0gyXVtDSDJdW0NIMl1bQ0gyXTQ=

> <s_epik_cmdline>
J2VwaWtfcHl0aG9uJywgJy1waCcsICc3LjAnLCAnLXRuJywgJzgnLCAnLW1hJywgJzIwMCcsICctbWV0YWxfYmluZGluZycsICctaW1hZScsICc8aW5maWxlLm1hZT4nLCAnLW9tYWUnLCAnPG91dGZpbGUubWFlPic=

> <r_lp_tautomer_probability>
1

> <r_epik_Ionization_Penalty>
1.12957

> <r_epik_Ionization_Penalty_Charging>
0

> <r_epik_Ionization_Penalty_Neutral>
1.12957

> <r_epik_State_Penalty>
1.1789

> <r_epik_Charging_Adjusted_Penalty>
1.1789

> <i_epik_Tot_Q>
0

> <i_epik_Tot_abs_Q>
0

> <r_epik_Metal_State_Penalty>
1.14786

> <b_epik_Metal_Only>
0

> <s_lp_Force_Field>
OPLS_2005

> <r_lp_Energy>
50.3158

> <b_lp_Chiralities_Consistent>
1

> <s_lp_Variant>
AV-unprocessed.smi:890-3

> <Gold.Version>
5.8.1

> <Gold.Id.Protein>
6NUR|6NUR_protein|mol2

> <Gold.PLP.Fitness>
43.2927

> <Gold.PLP.PLP>
-38.6338

> <Gold.PLP.part.hbond>
-2.9251

> <Gold.PLP.part.metal>
0.0000

> <Gold.PLP.part.buried>
-4.2597

> <Gold.PLP.part.nonpolar>
-31.4142

> <Gold.PLP.part.repulsive>
0.3694

> <Gold.PLP.ligand.clash>
0.0000

> <Gold.PLP.ligand.torsion>
1.0037

> <Gold.PLP.Chemscore.Hbond>
1.7260

> <Gold.PLP.Chemscore.CHOScore>
0.0000

> <Gold.PLP.Chemscore.Metal>
0.0000

> <Gold.Chemscore.Hbonds>
donor molecule, donor type, donor heavy atom, donor atom, acceptor molecule, acceptor atom, score
      L1  H     3    25       P1  7948  0.70
      L1  H    15    37       P1  7948  0.67

> <Gold.PLP.Chemscore.Internal.Correction>
1.4884

> <Gold.Rescore>
     Score         DG    S(hbond)    S(metal)    S(lipo)     H(rot)  DE(clash)    DE(int)     intcor
     13.95     -16.34       1.21        0.00      86.77       1.30       0.04       2.35       ----

> <Gold.Chemscore.Fitness>
13.9467

> <Gold.Chemscore.DG>
-16.3387

> <Gold.Chemscore.ZeroCoef>
-5.4800

> <Gold.Chemscore.Hbond>
1.2108

> <Gold.Chemscore.Metal>
0.0000

> <Gold.Chemscore.Lipo>
86.7719

> <Gold.Chemscore.Internal_Hbond>
0.0000

> <Gold.Chemscore.DEClash>
0.0408

> <Gold.Chemscore.DEInternal>
2.3512

> <Gold.Chemscore.Rot>
1.3037

> <Gold.Chemscore.Internal.Correction>
   9.000000E+99

> <Gold.Chemscore.Hbonds>
donor molecule, donor type, donor heavy atom, donor atom, acceptor molecule, acceptor atom, score
      L1  H     3    25       P1  7948  0.07
      L1  H    15    37       P1  7948  0.20

> <Gold.Chemscore.Hbond.Weighted>
-4.0440

> <Gold.Chemscore.Metal.Weighted>
-0.0000

> <Gold.Chemscore.Lipo.Weighted>
-10.1523

> <Gold.Chemscore.Internal_Hbond.Weighted>
0.0000

> <Gold.Chemscore.DEClash.Weighted>
0.0408

> <Gold.Chemscore.DEInternal.Weighted>
2.3512

> <Gold.Chemscore.Rot.Weighted>
3.3376

> <Gold.Chemscore.Internal.Correction.Weighted>
   9.000000E+99

> <Gold.Protein.RotatedTorsions>
[ 6907 6896 6895 6894 ] final  169.88 input  -60.11 | X-H torsion
[ 7974 7965 7964 7962 ] final   33.79 input  175.53 | X-H torsion
[ 8008 7997 7996 7995 ] final    4.22 input   59.86 | X-H torsion
[ 10167 10162 10161 10158 ] final  -76.52 input  -65.29 | X-H torsion
[ 10718 10713 10712 10709 ] final   92.34 input   66.30 | X-H torsion
[ 10763 10752 10751 10750 ] final   61.33 input  -60.55 | X-H torsion
[ 11005 11000 10999 10996 ] final  158.74 input  -57.11 | X-H torsion

> <Gold.Protein.ActiveResidues>
 VAL166  LYS551  ARG553  GLY616  TRP617  ASP618  TYR619  PRO620  LYS621  CYS622 
 ASP623  PHE694  ASN695  SER759  ASP760  ASP761  ALA762  ILE779  LEU786  VAL792 
 PHE793  MET794  SER795  GLU796  ALA797  LYS798  CYS799  TRP800  GLU811  SER814 

> <Gold.Protein.RotatedAtoms>
  151.8249  133.3400  159.3595 H   0  0  0  0  0  0  0  0  0  0  0  0  # atno 6907 bound_to 6896
  150.7283  134.5538  159.5817 H   0  0  0  0  0  0  0  0  0  0  0  0  # atno 6908 bound_to 6896
  152.2979  134.7647  160.0415 H   0  0  0  0  0  0  0  0  0  0  0  0  # atno 6909 bound_to 6896
  146.1397  139.6351  142.9171 H   0  0  0  0  0  0  0  0  0  0  0  0  # atno 7974 bound_to 7965
  154.7132  140.2697  155.6610 H   0  0  0  0  0  0  0  0  0  0  0  0  # atno 8008 bound_to 7997
  156.2801  140.2749  156.1704 H   0  0  0  0  0  0  0  0  0  0  0  0  # atno 8009 bound_to 7997
  155.0607  140.0371  157.2565 H   0  0  0  0  0  0  0  0  0  0  0  0  # atno 8010 bound_to 7997
  140.4849  143.2393  151.7999 H   0  0  0  0  0  0  0  0  0  0  0  0  # atno 10167 bound_to 10162
  157.6959  131.0439  150.3866 H   0  0  0  0  0  0  0  0  0  0  0  0  # atno 10718 bound_to 10713
  152.9947  135.5504  154.6016 H   0  0  0  0  0  0  0  0  0  0  0  0  # atno 10763 bound_to 10752
  154.5356  135.2816  155.1143 H   0  0  0  0  0  0  0  0  0  0  0  0  # atno 10764 bound_to 10752
  154.2441  135.6411  153.5270 H   0  0  0  0  0  0  0  0  0  0  0  0  # atno 10765 bound_to 10752
  140.1894  134.8418  157.2895 H   0  0  0  0  0  0  0  0  0  0  0  0  # atno 11005 bound_to 11000
  145.5076  141.0436  143.2506 LP  0  0  0  0  0  0  0  0  0  0  0  0  # atno 17320 bound_to 7965
  144.7778  139.6591  143.7167 LP  0  0  0  0  0  0  0  0  0  0  0  0  # atno 17321 bound_to 7965
  139.4840  144.4724  151.9408 LP  0  0  0  0  0  0  0  0  0  0  0  0  # atno 17342 bound_to 10162
  140.3810  144.2736  150.5908 LP  0  0  0  0  0  0  0  0  0  0  0  0  # atno 17343 bound_to 10162
  156.4274  130.3965  149.6783 LP  0  0  0  0  0  0  0  0  0  0  0  0  # atno 17370 bound_to 10713
  156.4013  130.7676  151.2684 LP  0  0  0  0  0  0  0  0  0  0  0  0  # atno 17371 bound_to 10713
  140.2176  134.4062  155.7581 LP  0  0  0  0  0  0  0  0  0  0  0  0  # atno 17394 bound_to 11000
  141.2226  133.7150  156.8439 LP  0  0  0  0  0  0  0  0  0  0  0  0  # atno 17395 bound_to 11000

$$$$
