AV-unprocessed.smi:1373|AV-procd|sdf|5586|dock10
  -GOLD-   22720 5183D 1   1.00000     0.00000
 Structure written by MMmdl.
 42 43  0  0  0  0  0  0  0  0  1 V2000
  152.0818  145.5993  159.8301 C   0  0  0  0  0  0  0  0  0  0  0  0
  152.3427  144.3891  158.9265 C   0  0  0  0  0  0  0  0  0  0  0  0
  151.1727  144.1003  157.9759 C   0  0  0  0  0  0  0  0  0  0  0  0
  151.3651  142.7958  157.1866 C   0  0  0  0  0  0  0  0  0  0  0  0
  150.2859  142.5892  156.2287 N   0  0  0  0  0  0  0  0  0  0  0  0
  150.1719  141.5342  155.4051 C   0  0  0  0  0  0  0  0  0  0  0  0
  150.9788  140.6049  155.3828 O   0  0  0  0  0  0  0  0  0  0  0  0
  148.9538  141.5084  154.4760 C   0  0  0  0  0  0  0  0  0  0  0  0
  147.6833  141.7145  155.2395 C   0  0  0  0  0  0  0  0  0  0  0  0
  147.3720  140.9566  156.2849 N   0  0  0  0  0  0  0  0  0  0  0  0
  146.1181  141.4461  156.6786 O   0  0  0  0  0  0  0  0  0  0  0  0
  145.8284  142.4519  155.8190 C   0  0  0  0  0  0  0  0  0  0  0  0
  144.5232  143.1670  155.9532 C   0  0  0  0  0  0  0  0  0  0  0  0
  144.5021  144.4713  155.2932 N   0  0  0  0  0  0  0  0  0  0  0  0
  144.7066  144.3367  153.8557 C   0  0  0  0  0  0  0  0  0  0  0  0
  144.6905  145.7007  153.1443 C   0  0  0  0  0  0  0  0  0  0  0  0
  143.4630  146.3680  153.4204 O   0  0  0  0  0  0  0  0  0  0  0  0
  143.2449  146.5616  154.8142 C   0  0  0  0  0  0  0  0  0  0  0  0
  143.2584  145.2016  155.5334 C   0  0  0  0  0  0  0  0  0  0  0  0
  146.7737  142.6736  154.9096 N   0  0  0  0  0  0  0  0  0  0  0  0
  152.9259  145.7756  160.4973 H   0  0  0  0  0  0  0  0  0  0  0  0
  151.1963  145.4461  160.4477 H   0  0  0  0  0  0  0  0  0  0  0  0
  151.9282  146.5042  159.2414 H   0  0  0  0  0  0  0  0  0  0  0  0
  153.2512  144.5620  158.3486 H   0  0  0  0  0  0  0  0  0  0  0  0
  152.5334  143.5124  159.5466 H   0  0  0  0  0  0  0  0  0  0  0  0
  150.2470  144.0482  158.5507 H   0  0  0  0  0  0  0  0  0  0  0  0
  151.0573  144.9318  157.2793 H   0  0  0  0  0  0  0  0  0  0  0  0
  152.3044  142.8310  156.6338 H   0  0  0  0  0  0  0  0  0  0  0  0
  151.4368  141.9436  157.8649 H   0  0  0  0  0  0  0  0  0  0  0  0
  149.5746  143.3049  156.1825 H   0  0  0  0  0  0  0  0  0  0  0  0
  149.0523  142.2825  153.7134 H   0  0  0  0  0  0  0  0  0  0  0  0
  148.9187  140.5514  153.9541 H   0  0  0  0  0  0  0  0  0  0  0  0
  143.7517  142.5261  155.5247 H   0  0  0  0  0  0  0  0  0  0  0  0
  144.2855  143.2746  157.0128 H   0  0  0  0  0  0  0  0  0  0  0  0
  145.6579  143.8404  153.6619 H   0  0  0  0  0  0  0  0  0  0  0  0
  143.9298  143.6998  153.4291 H   0  0  0  0  0  0  0  0  0  0  0  0
  145.5296  146.3168  153.4715 H   0  0  0  0  0  0  0  0  0  0  0  0
  144.7905  145.5681  152.0669 H   0  0  0  0  0  0  0  0  0  0  0  0
  144.0129  147.2210  155.2217 H   0  0  0  0  0  0  0  0  0  0  0  0
  142.2855  147.0579  154.9606 H   0  0  0  0  0  0  0  0  0  0  0  0
  142.4086  144.6061  155.1961 H   0  0  0  0  0  0  0  0  0  0  0  0
  143.1177  145.3689  156.6014 H   0  0  0  0  0  0  0  0  0  0  0  0
  1  2  1  0  0  0  0
  1 21  1  0  0  0  0
  1 22  1  0  0  0  0
  1 23  1  0  0  0  0
  2  3  1  0  0  0  0
  2 24  1  0  0  0  0
  2 25  1  0  0  0  0
  3  4  1  0  0  0  0
  3 26  1  0  0  0  0
  3 27  1  0  0  0  0
  4  5  1  0  0  0  0
  4 28  1  0  0  0  0
  4 29  1  0  0  0  0
  5  6  1  0  0  0  0
  5 30  1  0  0  0  0
  6  7  2  0  0  0  0
  6  8  1  0  0  0  0
  8  9  1  0  0  0  0
  8 31  1  0  0  0  0
  8 32  1  0  0  0  0
  9 20  1  0  0  0  0
  9 10  2  0  0  0  0
 10 11  1  0  0  0  0
 11 12  1  0  0  0  0
 12 13  1  0  0  0  0
 12 20  2  0  0  0  0
 13 14  1  0  0  0  0
 13 33  1  0  0  0  0
 13 34  1  0  0  0  0
 14 19  1  0  0  0  0
 14 15  1  0  0  0  0
 15 16  1  0  0  0  0
 15 35  1  0  0  0  0
 15 36  1  0  0  0  0
 16 17  1  0  0  0  0
 16 37  1  0  0  0  0
 16 38  1  0  0  0  0
 17 18  1  0  0  0  0
 18 19  1  0  0  0  0
 18 39  1  0  0  0  0
 18 40  1  0  0  0  0
 19 41  1  0  0  0  0
 19 42  1  0  0  0  0
M  END
> <s_m_source_file>
AV-unprocessed.smi

> <i_m_source_file_index>
1373

> <i_lp_mmshare_version>
43012

> <i_f3d_flags>
0

> <s_epik_input>
W0NIM11bQ0gyXVtDSDJdW0NIMl1bTkhdQyg9TylbQ0gyXWMxbm9jKG4xKVtDSDJdTjJbQ0gyXVtDSDJdT1tDSDJdW0NIMl0y

> <s_epik_cmdline>
J2VwaWtfcHl0aG9uJywgJy1waCcsICc3LjAnLCAnLXRuJywgJzgnLCAnLW1hJywgJzIwMCcsICctbWV0YWxfYmluZGluZycsICctaW1hZScsICc8aW5maWxlLm1hZT4nLCAnLW9tYWUnLCAnPG91dGZpbGUubWFlPic=

> <r_lp_tautomer_probability>
1

> <r_epik_Ionization_Penalty>
0.0010147

> <r_epik_Ionization_Penalty_Charging>
0

> <r_epik_Ionization_Penalty_Neutral>
0.0010147

> <r_epik_State_Penalty>
0.00066205

> <r_epik_Charging_Adjusted_Penalty>
0.00066205

> <i_epik_Tot_Q>
0

> <i_epik_Tot_abs_Q>
0

> <r_epik_Metal_State_Penalty>
-0

> <b_epik_Metal_Only>
0

> <s_lp_Force_Field>
OPLS_2005

> <r_lp_Energy>
19.0751

> <b_lp_Chiralities_Consistent>
1

> <s_lp_Variant>
AV-unprocessed.smi:1373-1

> <Gold.Version>
5.8.1

> <Gold.Id.Protein>
6NUR|6NUR_protein|mol2

> <Gold.PLP.Fitness>
43.8941

> <Gold.PLP.PLP>
-39.4457

> <Gold.PLP.part.hbond>
-4.0000

> <Gold.PLP.part.metal>
0.0000

> <Gold.PLP.part.buried>
-2.6643

> <Gold.PLP.part.nonpolar>
-32.8454

> <Gold.PLP.part.repulsive>
1.0438

> <Gold.PLP.ligand.clash>
0.0000

> <Gold.PLP.ligand.torsion>
0.3960

> <Gold.PLP.Chemscore.Hbond>
1.7296

> <Gold.PLP.Chemscore.CHOScore>
0.0000

> <Gold.PLP.Chemscore.Metal>
0.0000

> <Gold.Chemscore.Hbonds>
donor molecule, donor type, donor heavy atom, donor atom, acceptor molecule, acceptor atom, score
      L1  H     5    30       P1  8028  1.00
      P1  H  7989  7998       L1     7  0.76

> <Gold.PLP.Chemscore.Internal.Correction>
0.0516

> <Gold.Rescore>
     Score         DG    S(hbond)    S(metal)    S(lipo)     H(rot)  DE(clash)    DE(int)     intcor
     10.88     -12.84       1.00        0.00      84.34       2.29       0.97       0.99       ----

> <Gold.Chemscore.Fitness>
10.8755

> <Gold.Chemscore.DG>
-12.8380

> <Gold.Chemscore.ZeroCoef>
-5.4800

> <Gold.Chemscore.Hbond>
1.0046

> <Gold.Chemscore.Metal>
0.0000

> <Gold.Chemscore.Lipo>
84.3425

> <Gold.Chemscore.Internal_Hbond>
0.0000

> <Gold.Chemscore.DEClash>
0.9696

> <Gold.Chemscore.DEInternal>
0.9929

> <Gold.Chemscore.Rot>
2.2912

> <Gold.Chemscore.Internal.Correction>
   9.000000E+99

> <Gold.Chemscore.Hbonds>
donor molecule, donor type, donor heavy atom, donor atom, acceptor molecule, acceptor atom, score
      L1  H     5    30       P1  8028  0.98
      P1  H  7989  7998       L1     7  0.12

> <Gold.Chemscore.Hbond.Weighted>
-3.3553

> <Gold.Chemscore.Metal.Weighted>
-0.0000

> <Gold.Chemscore.Lipo.Weighted>
-9.8681

> <Gold.Chemscore.Internal_Hbond.Weighted>
0.0000

> <Gold.Chemscore.DEClash.Weighted>
0.9696

> <Gold.Chemscore.DEInternal.Weighted>
0.9929

> <Gold.Chemscore.Rot.Weighted>
5.8654

> <Gold.Chemscore.Internal.Correction.Weighted>
   9.000000E+99

> <Gold.Protein.RotatedTorsions>
[ 6907 6896 6895 6894 ] final  -29.98 input  -60.11 | X-H torsion
[ 7974 7965 7964 7962 ] final  109.76 input  175.53 | X-H torsion
[ 8008 7997 7996 7995 ] final -127.87 input   59.86 | X-H torsion
[ 10167 10162 10161 10158 ] final   91.40 input  -65.29 | X-H torsion
[ 10718 10713 10712 10709 ] final   73.82 input   66.30 | X-H torsion
[ 10763 10752 10751 10750 ] final -162.84 input  -60.55 | X-H torsion
[ 11005 11000 10999 10996 ] final -173.07 input  -57.11 | X-H torsion

> <Gold.Protein.ActiveResidues>
 VAL166  LYS551  ARG553  GLY616  TRP617  ASP618  TYR619  PRO620  LYS621  CYS622 
 ASP623  PHE694  ASN695  SER759  ASP760  ASP761  ALA762  ILE779  LEU786  VAL792 
 PHE793  MET794  SER795  GLU796  ALA797  LYS798  CYS799  TRP800  GLU811  SER814 

> <Gold.Protein.RotatedAtoms>
  151.1118  135.0031  159.8497 H   0  0  0  0  0  0  0  0  0  0  0  0  # atno 6907 bound_to 6896
  152.5443  134.1827  159.8652 H   0  0  0  0  0  0  0  0  0  0  0  0  # atno 6908 bound_to 6896
  151.1877  133.4641  159.2627 H   0  0  0  0  0  0  0  0  0  0  0  0  # atno 6909 bound_to 6896
  145.2636  139.2693  143.4004 H   0  0  0  0  0  0  0  0  0  0  0  0  # atno 7974 bound_to 7965
  155.2532  140.0433  157.2989 H   0  0  0  0  0  0  0  0  0  0  0  0  # atno 8008 bound_to 7997
  154.5756  140.2386  155.8097 H   0  0  0  0  0  0  0  0  0  0  0  0  # atno 8009 bound_to 7997
  156.2155  140.2986  155.9838 H   0  0  0  0  0  0  0  0  0  0  0  0  # atno 8010 bound_to 7997
  139.8379  144.6656  150.9320 H   0  0  0  0  0  0  0  0  0  0  0  0  # atno 10167 bound_to 10162
  157.6565  130.9647  150.1123 H   0  0  0  0  0  0  0  0  0  0  0  0  # atno 10718 bound_to 10713
  154.7177  135.3019  154.9097 H   0  0  0  0  0  0  0  0  0  0  0  0  # atno 10763 bound_to 10752
  153.9978  135.6710  153.4761 H   0  0  0  0  0  0  0  0  0  0  0  0  # atno 10764 bound_to 10752
  153.0808  135.5010  154.8414 H   0  0  0  0  0  0  0  0  0  0  0  0  # atno 10765 bound_to 10752
  140.4899  134.5995  157.4950 H   0  0  0  0  0  0  0  0  0  0  0  0  # atno 11005 bound_to 11000
  146.3268  140.3060  142.8623 LP  0  0  0  0  0  0  0  0  0  0  0  0  # atno 17320 bound_to 7965
  144.9397  140.8064  143.5638 LP  0  0  0  0  0  0  0  0  0  0  0  0  # atno 17321 bound_to 7965
  140.7801  143.3940  151.1261 LP  0  0  0  0  0  0  0  0  0  0  0  0  # atno 17342 bound_to 10162
  139.7589  143.8666  152.3095 LP  0  0  0  0  0  0  0  0  0  0  0  0  # atno 17343 bound_to 10162
  156.2016  130.3660  149.8781 LP  0  0  0  0  0  0  0  0  0  0  0  0  # atno 17370 bound_to 10713
  156.6683  130.8810  151.3558 LP  0  0  0  0  0  0  0  0  0  0  0  0  # atno 17371 bound_to 10713
  139.9775  134.7191  155.9921 LP  0  0  0  0  0  0  0  0  0  0  0  0  # atno 17394 bound_to 11000
  141.1489  133.6551  156.3953 LP  0  0  0  0  0  0  0  0  0  0  0  0  # atno 17395 bound_to 11000

$$$$
