AV-unprocessed.smi:511|AV-procd|sdf|2767|dock5
  -GOLD-   2262023233D 1   1.00000     0.00000
 Structure written by MMmdl.
 44 46  0  0  0  0  0  0  0  0  2 V2000
  155.8499  139.6243  164.0790 C   0  0  0  0  0  0  0  0  0  0  0  0
  156.1783  140.5293  163.0413 O   0  0  0  0  0  0  0  0  0  0  0  0
  155.8512  140.0285  161.7555 C   0  0  0  0  0  0  0  0  0  0  0  0
  154.3580  139.6773  161.7082 C   0  0  0  0  0  0  0  0  0  0  0  0
  153.8821  139.4927  160.3374 N   0  0  0  0  0  0  0  0  0  0  0  0
  153.4100  140.4252  159.4635 C   0  0  0  0  0  0  0  0  0  0  0  0
  153.3443  141.7847  159.7734 N   0  0  0  0  0  0  0  0  0  0  0  0
  153.2155  142.3868  161.0984 C   0  0  0  0  0  0  0  0  0  0  0  0
  152.1014  143.4517  161.1114 C   0  0  0  0  0  0  0  0  0  0  0  0
  152.4449  144.5181  160.1710 N   0  0  0  0  0  0  0  0  0  0  0  0
  151.3911  145.5221  160.1655 C   0  0  0  0  0  0  0  0  0  0  0  0
  152.5782  143.9403  158.8335 C   0  0  0  0  0  0  0  0  0  0  0  0
  153.6767  142.8582  158.8415 C   0  0  0  0  0  0  0  0  0  0  0  0
  152.9739  139.9289  158.3040 N   0  0  0  0  0  0  0  0  0  0  0  0
  153.2115  138.5702  158.4355 C   0  0  0  0  0  0  0  0  0  0  0  0
  153.7477  138.2805  159.6510 C   0  0  0  0  0  0  0  0  0  0  0  0
  154.0739  136.9073  160.0979 C   0  0  0  0  0  0  0  0  0  0  0  0
  154.5229  136.6937  161.2223 O   0  0  0  0  0  0  0  0  0  0  0  0
  153.8115  135.9722  159.1307 N   0  5  0  0  0  0  0  0  0  0  0  0
  153.2825  136.2235  157.8830 C   0  0  0  0  0  0  0  0  0  0  0  0
  153.0834  135.3217  157.0678 O   0  0  0  0  0  0  0  0  0  0  0  0
  152.9651  137.5071  157.5242 N   0  0  0  0  0  0  0  0  0  0  0  0
  152.3922  137.8035  156.2081 C   0  0  0  0  0  0  0  0  0  0  0  0
  156.1285  140.0553  165.0407 H   0  0  0  0  0  0  0  0  0  0  0  0
  156.3862  138.6814  163.9643 H   0  0  0  0  0  0  0  0  0  0  0  0
  154.7789  139.4195  164.0985 H   0  0  0  0  0  0  0  0  0  0  0  0
  156.0758  140.7791  160.9966 H   0  0  0  0  0  0  0  0  0  0  0  0
  156.4540  139.1471  161.5314 H   0  0  0  0  0  0  0  0  0  0  0  0
  154.1814  138.7849  162.2988 H   0  0  0  0  0  0  0  0  0  0  0  0
  153.7657  140.4514  162.1931 H   0  0  0  0  0  0  0  0  0  0  0  0
  153.0286  141.6200  161.8489 H   0  0  0  0  0  0  0  0  0  0  0  0
  154.1678  142.8405  161.3772 H   0  0  0  0  0  0  0  0  0  0  0  0
  151.1403  143.0053  160.8506 H   0  0  0  0  0  0  0  0  0  0  0  0
  152.0030  143.8693  162.1139 H   0  0  0  0  0  0  0  0  0  0  0  0
  151.6312  146.3241  159.4666 H   0  0  0  0  0  0  0  0  0  0  0  0
  151.2812  145.9658  161.1556 H   0  0  0  0  0  0  0  0  0  0  0  0
  150.4316  145.0912  159.8753 H   0  0  0  0  0  0  0  0  0  0  0  0
  151.6290  143.5142  158.5055 H   0  0  0  0  0  0  0  0  0  0  0  0
  152.8405  144.7253  158.1233 H   0  0  0  0  0  0  0  0  0  0  0  0
  154.6428  143.2905  159.1064 H   0  0  0  0  0  0  0  0  0  0  0  0
  153.7845  142.4452  157.8380 H   0  0  0  0  0  0  0  0  0  0  0  0
  151.4831  137.2226  156.0440 H   0  0  0  0  0  0  0  0  0  0  0  0
  153.1037  137.5541  155.4197 H   0  0  0  0  0  0  0  0  0  0  0  0
  152.1287  138.8546  156.0914 H   0  0  0  0  0  0  0  0  0  0  0  0
  1  2  1  0  0  0  0
  1 24  1  0  0  0  0
  1 25  1  0  0  0  0
  1 26  1  0  0  0  0
  2  3  1  0  0  0  0
  3  4  1  0  0  0  0
  3 27  1  0  0  0  0
  3 28  1  0  0  0  0
  4  5  1  0  0  0  0
  4 29  1  0  0  0  0
  4 30  1  0  0  0  0
  5 16  1  0  0  0  0
  5  6  1  0  0  0  0
  6  7  1  0  0  0  0
  6 14  2  0  0  0  0
  7 13  1  0  0  0  0
  7  8  1  0  0  0  0
  8  9  1  0  0  0  0
  8 31  1  0  0  0  0
  8 32  1  0  0  0  0
  9 10  1  0  0  0  0
  9 33  1  0  0  0  0
  9 34  1  0  0  0  0
 10 11  1  0  0  0  0
 10 12  1  0  0  0  0
 11 35  1  0  0  0  0
 11 36  1  0  0  0  0
 11 37  1  0  0  0  0
 12 13  1  0  0  0  0
 12 38  1  0  0  0  0
 12 39  1  0  0  0  0
 13 40  1  0  0  0  0
 13 41  1  0  0  0  0
 14 15  1  0  0  0  0
 15 22  1  0  0  0  0
 15 16  2  0  0  0  0
 16 17  1  0  0  0  0
 17 18  2  0  0  0  0
 17 19  1  0  0  0  0
 19 20  1  0  0  0  0
 20 21  2  0  0  0  0
 20 22  1  0  0  0  0
 22 23  1  0  0  0  0
 23 42  1  0  0  0  0
 23 43  1  0  0  0  0
 23 44  1  0  0  0  0
M  CHG  1  19  -1
M  END
> <s_m_source_file>
AV-unprocessed.smi

> <i_m_source_file_index>
511

> <i_lp_mmshare_version>
43012

> <i_f3d_flags>
0

> <s_epik_input>
W0NIM11uMWMoPU8pW25IXWMoPU8pYyhjMTIpbihbQ0gyXVtDSDJdT1tDSDNdKWMobjIpTjNbQ0gyXVtDSDJdTihbQ0gzXSlbQ0gyXVtDSDJdMw==

> <s_epik_cmdline>
J2VwaWtfcHl0aG9uJywgJy1waCcsICc3LjAnLCAnLXRuJywgJzgnLCAnLW1hJywgJzIwMCcsICctbWV0YWxfYmluZGluZycsICctaW1hZScsICc8aW5maWxlLm1hZT4nLCAnLW9tYWUnLCAnPG91dGZpbGUubWFlPic=

> <r_epik_Ionization_Penalty>
7.66215

> <r_epik_Ionization_Penalty_Charging>
0.0825427

> <r_epik_Ionization_Penalty_Neutral>
7.5796

> <r_epik_State_Penalty>
7.65676

> <r_epik_Charging_Adjusted_Penalty>
7.73931

> <i_epik_Tot_Q>
-1

> <i_epik_Tot_abs_Q>
1

> <r_epik_Metal_State_Penalty>
3.6066

> <b_epik_Metal_Only>
1

> <s_lp_Force_Field>
OPLS_2005

> <r_lp_Energy>
52.5947

> <b_lp_Chiralities_Consistent>
1

> <s_lp_Variant>
AV-unprocessed.smi:511-4

> <Gold.Version>
5.8.1

> <Gold.Id.Protein>
6NUR|6NUR_protein|mol2

> <Gold.PLP.Fitness>
46.4179

> <Gold.PLP.PLP>
-37.4403

> <Gold.PLP.part.hbond>
-4.0000

> <Gold.PLP.part.metal>
0.0000

> <Gold.PLP.part.buried>
-3.9749

> <Gold.PLP.part.nonpolar>
-29.3000

> <Gold.PLP.part.repulsive>
0.0547

> <Gold.PLP.ligand.clash>
0.0000

> <Gold.PLP.ligand.torsion>
0.9043

> <Gold.PLP.Chemscore.Hbond>
3.4875

> <Gold.PLP.Chemscore.CHOScore>
0.0000

> <Gold.PLP.Chemscore.Metal>
0.0000

> <Gold.Chemscore.Hbonds>
donor molecule, donor type, donor heavy atom, donor atom, acceptor molecule, acceptor atom, score
      P1  H  6896  6908       L1    19  1.82
      P1  H  7997  8008       L1    14  0.41
      P1  H 10752 10765       L1    21  1.00

> <Gold.PLP.Chemscore.Internal.Correction>
0.3236

> <Gold.Rescore>
     Score         DG    S(hbond)    S(metal)    S(lipo)     H(rot)  DE(clash)    DE(int)     intcor
     14.52     -16.81       1.34        0.00      90.66       1.47       0.39       1.89       ----

> <Gold.Chemscore.Fitness>
14.5236

> <Gold.Chemscore.DG>
-16.8066

> <Gold.Chemscore.ZeroCoef>
-5.4800

> <Gold.Chemscore.Hbond>
1.3447

> <Gold.Chemscore.Metal>
0.0000

> <Gold.Chemscore.Lipo>
90.6630

> <Gold.Chemscore.Internal_Hbond>
0.0000

> <Gold.Chemscore.DEClash>
0.3884

> <Gold.Chemscore.DEInternal>
1.8946

> <Gold.Chemscore.Rot>
1.4735

> <Gold.Chemscore.Internal.Correction>
   9.000000E+99

> <Gold.Chemscore.Hbonds>
donor molecule, donor type, donor heavy atom, donor atom, acceptor molecule, acceptor atom, score
      P1  H  6896  6908       L1    19  0.15
      P1  H  7997  8008       L1    14  0.01
      P1  H 10752 10765       L1    21  1.00

> <Gold.Chemscore.Hbond.Weighted>
-4.4912

> <Gold.Chemscore.Metal.Weighted>
-0.0000

> <Gold.Chemscore.Lipo.Weighted>
-10.6076

> <Gold.Chemscore.Internal_Hbond.Weighted>
0.0000

> <Gold.Chemscore.DEClash.Weighted>
0.3884

> <Gold.Chemscore.DEInternal.Weighted>
1.8946

> <Gold.Chemscore.Rot.Weighted>
3.7722

> <Gold.Chemscore.Internal.Correction.Weighted>
   9.000000E+99

> <Gold.Protein.RotatedTorsions>
[ 6907 6896 6895 6894 ] final  -63.95 input  -60.11 | X-H torsion
[ 7974 7965 7964 7962 ] final  174.41 input  175.53 | X-H torsion
[ 8008 7997 7996 7995 ] final  -88.64 input   59.86 | X-H torsion
[ 10167 10162 10161 10158 ] final  164.51 input  -65.29 | X-H torsion
[ 10718 10713 10712 10709 ] final   88.22 input   66.30 | X-H torsion
[ 10763 10752 10751 10750 ] final -127.79 input  -60.55 | X-H torsion
[ 11005 11000 10999 10996 ] final   28.75 input  -57.11 | X-H torsion

> <Gold.Protein.ActiveResidues>
 VAL166  LYS551  ARG553  GLY616  TRP617  ASP618  TYR619  PRO620  LYS621  CYS622 
 ASP623  PHE694  ASN695  SER759  ASP760  ASP761  ALA762  ILE779  LEU786  VAL792 
 PHE793  MET794  SER795  GLU796  ALA797  LYS798  CYS799  TRP800  GLU811  SER814 

> <Gold.Protein.RotatedAtoms>
  150.7616  134.6365  159.6214 H   0  0  0  0  0  0  0  0  0  0  0  0  # atno 6907 bound_to 6896
  152.3627  134.6846  160.0211 H   0  0  0  0  0  0  0  0  0  0  0  0  # atno 6908 bound_to 6896
  151.7231  133.3279  159.3357 H   0  0  0  0  0  0  0  0  0  0  0  0  # atno 6909 bound_to 6896
  144.7222  139.9793  143.6438 H   0  0  0  0  0  0  0  0  0  0  0  0  # atno 7974 bound_to 7965
  154.6771  140.0551  157.0227 H   0  0  0  0  0  0  0  0  0  0  0  0  # atno 8008 bound_to 7997
  155.1004  140.3228  155.4530 H   0  0  0  0  0  0  0  0  0  0  0  0  # atno 8009 bound_to 7997
  156.2680  140.2032  156.6130 H   0  0  0  0  0  0  0  0  0  0  0  0  # atno 8010 bound_to 7997
  139.4890  144.4228  151.9166 H   0  0  0  0  0  0  0  0  0  0  0  0  # atno 10167 bound_to 10162
  157.6947  131.0286  150.3242 H   0  0  0  0  0  0  0  0  0  0  0  0  # atno 10718 bound_to 10713
  154.8754  135.3950  154.3651 H   0  0  0  0  0  0  0  0  0  0  0  0  # atno 10763 bound_to 10752
  153.4418  135.7027  153.6169 H   0  0  0  0  0  0  0  0  0  0  0  0  # atno 10764 bound_to 10752
  153.4747  135.3782  155.2379 H   0  0  0  0  0  0  0  0  0  0  0  0  # atno 10765 bound_to 10752
  140.3122  134.2637  155.7732 H   0  0  0  0  0  0  0  0  0  0  0  0  # atno 11005 bound_to 11000
  146.0500  139.3502  143.0645 LP  0  0  0  0  0  0  0  0  0  0  0  0  # atno 17320 bound_to 7965
  145.8227  140.9671  143.0890 LP  0  0  0  0  0  0  0  0  0  0  0  0  # atno 17321 bound_to 7965
  140.3672  144.2900  150.5925 LP  0  0  0  0  0  0  0  0  0  0  0  0  # atno 17342 bound_to 10162
  140.5351  143.2235  151.8176 LP  0  0  0  0  0  0  0  0  0  0  0  0  # atno 17343 bound_to 10162
  156.3725  130.3866  149.7164 LP  0  0  0  0  0  0  0  0  0  0  0  0  # atno 17370 bound_to 10713
  156.4574  130.7935  151.2956 LP  0  0  0  0  0  0  0  0  0  0  0  0  # atno 17371 bound_to 10713
  141.2105  133.7716  156.9924 LP  0  0  0  0  0  0  0  0  0  0  0  0  # atno 17394 bound_to 11000
  140.1014  134.9533  157.1929 LP  0  0  0  0  0  0  0  0  0  0  0  0  # atno 17395 bound_to 11000

$$$$
