AV-unprocessed.smi:2061|AV-procd|sdf|8382|dock7
  -GOLD-   2272011 63D 1   1.00000     0.00000
 Structure written by MMmdl.
 45 46  0  0  0  0  0  0  0  0  3 V2000
  153.2917  141.6622  159.8718 C   0  0  0  0  0  0  0  0  0  0  0  0
  152.4129  141.2559  158.7387 C   0  0  0  0  0  0  0  0  0  0  0  0
  151.2414  141.7579  158.2472 C   0  0  0  0  0  0  0  0  0  0  0  0
  150.9544  140.8986  157.1516 C   0  0  0  0  0  0  0  0  0  0  0  0
  149.8838  140.9782  156.3465 N   0  5  0  0  0  0  0  0  0  0  0  0
  149.8119  140.2174  155.2308 C   0  0  0  0  0  0  0  0  0  0  0  0
  150.7121  140.0348  154.4078 O   0  0  0  0  0  0  0  0  0  0  0  0
  148.6175  139.6357  155.0528 N   0  0  0  0  0  0  0  0  0  0  0  0
  148.2464  138.7809  153.9293 C   0  0  0  0  0  0  0  0  0  0  0  0
  147.0617  139.3454  153.1015 C   0  0  2  0  0  0  0  0  0  0  0  0
  147.0798  140.8934  153.1314 C   0  0  0  0  0  0  0  0  0  0  0  0
  145.7729  138.7489  153.5812 N   0  3  1  0  0  0  0  0  0  0  0  0
  145.6018  137.2892  153.3438 C   0  0  0  0  0  0  0  0  0  0  0  0
  144.2208  136.7936  153.8200 C   0  0  2  0  0  0  0  0  0  0  0  0
  143.0657  137.2128  152.8926 C   0  0  0  0  0  0  0  0  0  0  0  0
  143.9886  137.1758  155.1739 O   0  0  0  0  0  0  0  0  0  0  0  0
  144.1020  138.5727  155.4210 C   0  0  1  0  0  0  0  0  0  0  0  0
  143.8237  138.8108  156.9094 C   0  0  0  0  0  0  0  0  0  0  0  0
  145.5076  139.0461  155.0134 C   0  0  0  0  0  0  0  0  0  0  0  0
  151.8620  139.9484  157.0025 N   0  0  0  0  0  0  0  0  0  0  0  0
  152.8048  140.1747  158.0124 O   0  0  0  0  0  0  0  0  0  0  0  0
  152.7025  141.8467  160.7700 H   0  0  0  0  0  0  0  0  0  0  0  0
  153.8346  142.5754  159.6292 H   0  0  0  0  0  0  0  0  0  0  0  0
  154.0217  140.8857  160.1011 H   0  0  0  0  0  0  0  0  0  0  0  0
  150.6805  142.6061  158.6100 H   0  0  0  0  0  0  0  0  0  0  0  0
  147.9106  139.8072  155.7529 H   0  0  0  0  0  0  0  0  0  0  0  0
  149.1350  138.6206  153.3199 H   0  0  0  0  0  0  0  0  0  0  0  0
  147.9796  137.8031  154.3314 H   0  0  0  0  0  0  0  0  0  0  0  0
  147.1867  139.0537  152.0575 H   0  0  0  0  0  0  0  0  0  0  0  0
  148.0388  141.2914  152.8005 H   0  0  0  0  0  0  0  0  0  0  0  0
  146.8986  141.2754  154.1365 H   0  0  0  0  0  0  0  0  0  0  0  0
  146.3370  141.3244  152.4602 H   0  0  0  0  0  0  0  0  0  0  0  0
  145.6950  137.0444  152.2862 H   0  0  0  0  0  0  0  0  0  0  0  0
  146.3900  136.7492  153.8708 H   0  0  0  0  0  0  0  0  0  0  0  0
  144.2427  135.7033  153.8175 H   0  0  0  0  0  0  0  0  0  0  0  0
  143.1894  136.7785  151.9001 H   0  0  0  0  0  0  0  0  0  0  0  0
  143.0070  138.2936  152.7664 H   0  0  0  0  0  0  0  0  0  0  0  0
  142.1083  136.8684  153.2840 H   0  0  0  0  0  0  0  0  0  0  0  0
  143.3506  139.1152  154.8470 H   0  0  0  0  0  0  0  0  0  0  0  0
  143.8928  139.8702  157.1576 H   0  0  0  0  0  0  0  0  0  0  0  0
  144.5359  138.2729  157.5359 H   0  0  0  0  0  0  0  0  0  0  0  0
  142.8227  138.4723  157.1780 H   0  0  0  0  0  0  0  0  0  0  0  0
  146.2623  138.5554  155.6309 H   0  0  0  0  0  0  0  0  0  0  0  0
  145.5881  140.1128  155.2143 H   0  0  0  0  0  0  0  0  0  0  0  0
  145.0444  139.2004  153.0470 H   0  0  0  0  0  0  0  0  0  0  0  0
  1  2  1  0  0  0  0
  1 22  1  0  0  0  0
  1 23  1  0  0  0  0
  1 24  1  0  0  0  0
  2 21  1  0  0  0  0
  2  3  2  0  0  0  0
  3  4  1  0  0  0  0
  3 25  1  0  0  0  0
  4  5  1  0  0  0  0
  4 20  2  0  0  0  0
  5  6  1  0  0  0  0
  6  7  2  0  0  0  0
  6  8  1  0  0  0  0
  8  9  1  0  0  0  0
  8 26  1  0  0  0  0
  9 10  1  0  0  0  0
  9 27  1  0  0  0  0
  9 28  1  0  0  0  0
 10 11  1  0  0  0  0
 10 12  1  0  0  0  0
 10 29  1  0  0  0  0
 11 30  1  0  0  0  0
 11 31  1  0  0  0  0
 11 32  1  0  0  0  0
 12 19  1  0  0  0  0
 12 13  1  0  0  0  0
 12 45  1  0  0  0  0
 13 14  1  0  0  0  0
 13 33  1  0  0  0  0
 13 34  1  0  0  0  0
 14 15  1  0  0  0  0
 14 16  1  0  0  0  0
 14 35  1  0  0  0  0
 15 36  1  0  0  0  0
 15 37  1  0  0  0  0
 15 38  1  0  0  0  0
 16 17  1  0  0  0  0
 17 18  1  0  0  0  0
 17 19  1  0  0  0  0
 17 39  1  0  0  0  0
 18 40  1  0  0  0  0
 18 41  1  0  0  0  0
 18 42  1  0  0  0  0
 19 43  1  0  0  0  0
 19 44  1  0  0  0  0
 20 21  1  0  0  0  0
M  CHG  1   5  -1
M  CHG  1  12   1
M  END
> <s_m_source_file>
AV-unprocessed.smi

> <i_m_source_file_index>
2061

> <i_lp_mmshare_version>
43012

> <i_f3d_flags>
0

> <s_epik_input>
W0NIM11jMVtjSF1jKG5vMSlbTkhdQyg9TylbTkhdW0NIMl1bQ0BIXShbQ0gzXSlOMltDSDJdW0NAQEhdKFtDSDNdKU9bQ0BASF0oW0NIM10pW0NIMl0y

> <s_epik_cmdline>
J2VwaWtfcHl0aG9uJywgJy1waCcsICc3LjAnLCAnLXRuJywgJzgnLCAnLW1hJywgJzIwMCcsICctbWV0YWxfYmluZGluZycsICctaW1hZScsICc8aW5maWxlLm1hZT4nLCAnLW9tYWUnLCAnPG91dGZpbGUubWFlPic=

> <r_epik_Ionization_Penalty>
6.73511

> <r_epik_Ionization_Penalty_Charging>
6.73502

> <r_epik_Ionization_Penalty_Neutral>
9.50841e-05

> <r_epik_State_Penalty>
6.93549

> <r_epik_Charging_Adjusted_Penalty>
13.6705

> <i_epik_Tot_Q>
0

> <i_epik_Tot_abs_Q>
2

> <r_epik_Metal_State_Penalty>
2.87211

> <b_epik_Metal_Only>
1

> <s_lp_Force_Field>
OPLS_2005

> <r_lp_Energy>
12.0901

> <b_lp_Chiralities_Consistent>
1

> <s_lp_Variant>
AV-unprocessed.smi:2061-23

> <Gold.Version>
5.8.1

> <Gold.Id.Protein>
6NUR|6NUR_protein|mol2

> <Gold.PLP.Fitness>
36.6727

> <Gold.PLP.PLP>
-26.3051

> <Gold.PLP.part.hbond>
-2.9844

> <Gold.PLP.part.metal>
0.0000

> <Gold.PLP.part.buried>
-4.6218

> <Gold.PLP.part.nonpolar>
-19.5973

> <Gold.PLP.part.repulsive>
0.2269

> <Gold.PLP.ligand.clash>
0.0000

> <Gold.PLP.ligand.torsion>
0.8474

> <Gold.PLP.Chemscore.Hbond>
4.0000

> <Gold.PLP.Chemscore.CHOScore>
0.0000

> <Gold.PLP.Chemscore.Metal>
0.0000

> <Gold.Chemscore.Hbonds>
donor molecule, donor type, donor heavy atom, donor atom, acceptor molecule, acceptor atom, score
      L1  H    12    45       P1 10175  2.00
      P1  H  7989  7998       L1     7  1.00
      P1  H  7997  8008       L1    21  0.95

> <Gold.PLP.Chemscore.Internal.Correction>
0.0624

> <Gold.Rescore>
     Score         DG    S(hbond)    S(metal)    S(lipo)     H(rot)  DE(clash)    DE(int)     intcor
     15.07     -17.28       2.74        0.00      56.72       1.56       0.02       2.19       ----

> <Gold.Chemscore.Fitness>
15.0700

> <Gold.Chemscore.DG>
-17.2824

> <Gold.Chemscore.ZeroCoef>
-5.4800

> <Gold.Chemscore.Hbond>
2.7387

> <Gold.Chemscore.Metal>
0.0000

> <Gold.Chemscore.Lipo>
56.7173

> <Gold.Chemscore.Internal_Hbond>
0.0000

> <Gold.Chemscore.DEClash>
0.0246

> <Gold.Chemscore.DEInternal>
2.1878

> <Gold.Chemscore.Rot>
1.5550

> <Gold.Chemscore.Internal.Correction>
   9.000000E+99

> <Gold.Chemscore.Hbonds>
donor molecule, donor type, donor heavy atom, donor atom, acceptor molecule, acceptor atom, score
      L1  H    12    45       P1 10175  0.99
      P1  H  7989  7998       L1     7  0.93
      P1  H  7997  8008       L1    21  0.19

> <Gold.Chemscore.Hbond.Weighted>
-9.1473

> <Gold.Chemscore.Metal.Weighted>
-0.0000

> <Gold.Chemscore.Lipo.Weighted>
-6.6359

> <Gold.Chemscore.Internal_Hbond.Weighted>
0.0000

> <Gold.Chemscore.DEClash.Weighted>
0.0246

> <Gold.Chemscore.DEInternal.Weighted>
2.1878

> <Gold.Chemscore.Rot.Weighted>
3.9809

> <Gold.Chemscore.Internal.Correction.Weighted>
   9.000000E+99

> <Gold.Protein.RotatedTorsions>
[ 6907 6896 6895 6894 ] final -116.33 input  -60.11 | X-H torsion
[ 7974 7965 7964 7962 ] final -113.27 input  175.53 | X-H torsion
[ 8008 7997 7996 7995 ] final  -77.04 input   59.86 | X-H torsion
[ 10167 10162 10161 10158 ] final  110.88 input  -65.29 | X-H torsion
[ 10718 10713 10712 10709 ] final   90.27 input   66.30 | X-H torsion
[ 10763 10752 10751 10750 ] final  -25.42 input  -60.55 | X-H torsion
[ 11005 11000 10999 10996 ] final -124.76 input  -57.11 | X-H torsion

> <Gold.Protein.ActiveResidues>
 VAL166  LYS551  ARG553  GLY616  TRP617  ASP618  TYR619  PRO620  LYS621  CYS622 
 ASP623  PHE694  ASN695  SER759  ASP760  ASP761  ALA762  ILE779  LEU786  VAL792 
 PHE793  MET794  SER795  GLU796  ALA797  LYS798  CYS799  TRP800  GLU811  SER814 

> <Gold.Protein.RotatedAtoms>
  150.8048  133.8532  159.3210 H   0  0  0  0  0  0  0  0  0  0  0  0  # atno 6907 bound_to 6896
  151.6334  135.1019  160.0136 H   0  0  0  0  0  0  0  0  0  0  0  0  # atno 6908 bound_to 6896
  152.4137  133.6965  159.6455 H   0  0  0  0  0  0  0  0  0  0  0  0  # atno 6909 bound_to 6896
  145.1340  140.8740  143.3741 H   0  0  0  0  0  0  0  0  0  0  0  0  # atno 7974 bound_to 7965
  154.5560  140.0717  156.8744 H   0  0  0  0  0  0  0  0  0  0  0  0  # atno 8008 bound_to 7997
  155.2902  140.3377  155.4235 H   0  0  0  0  0  0  0  0  0  0  0  0  # atno 8009 bound_to 7997
  156.2002  140.1719  156.7901 H   0  0  0  0  0  0  0  0  0  0  0  0  # atno 8010 bound_to 7997
  139.6654  144.7127  151.1786 H   0  0  0  0  0  0  0  0  0  0  0  0  # atno 10167 bound_to 10162
  157.6958  131.0364  150.3552 H   0  0  0  0  0  0  0  0  0  0  0  0  # atno 10718 bound_to 10713
  153.6996  135.6957  153.5067 H   0  0  0  0  0  0  0  0  0  0  0  0  # atno 10763 bound_to 10752
  153.2352  135.4324  155.0638 H   0  0  0  0  0  0  0  0  0  0  0  0  # atno 10764 bound_to 10752
  154.8348  135.3494  154.6536 H   0  0  0  0  0  0  0  0  0  0  0  0  # atno 10765 bound_to 10752
  140.9816  134.0665  157.3758 H   0  0  0  0  0  0  0  0  0  0  0  0  # atno 11005 bound_to 11000
  145.0604  139.3110  143.5883 LP  0  0  0  0  0  0  0  0  0  0  0  0  # atno 17320 bound_to 7965
  146.3511  140.0044  142.8673 LP  0  0  0  0  0  0  0  0  0  0  0  0  # atno 17321 bound_to 7965
  140.7597  143.5927  150.8779 LP  0  0  0  0  0  0  0  0  0  0  0  0  # atno 17342 bound_to 10162
  139.9588  143.6187  152.3008 LP  0  0  0  0  0  0  0  0  0  0  0  0  # atno 17343 bound_to 10162
  156.3995  130.3913  149.6970 LP  0  0  0  0  0  0  0  0  0  0  0  0  # atno 17370 bound_to 10713
  156.4292  130.7806  151.2826 LP  0  0  0  0  0  0  0  0  0  0  0  0  # atno 17371 bound_to 10713
  139.8952  135.0140  156.6992 LP  0  0  0  0  0  0  0  0  0  0  0  0  # atno 17394 bound_to 11000
  140.7178  133.9167  155.8126 LP  0  0  0  0  0  0  0  0  0  0  0  0  # atno 17395 bound_to 11000

$$$$
