AV-unprocessed.smi:1638|AV-procd|sdf|6546|dock5
  -GOLD-   22720 7233D 1   1.00000     0.00000
 Structure written by MMmdl.
 41 42  0  0  0  0  0  0  0  0  2 V2000
  151.5658  141.5486  158.2727 C   0  0  0  0  0  0  0  0  0  0  0  0
  151.2194  140.9367  156.9584 C   0  0  0  0  0  0  0  0  0  0  0  0
  152.1065  140.2620  156.2171 N   0  0  0  0  0  0  0  0  0  0  0  0
  151.5534  139.7901  155.0348 N   0  0  0  0  0  0  0  0  0  0  0  0
  150.2613  140.1260  154.9185 C   0  0  0  0  0  0  0  0  0  0  0  0
  149.4536  139.7780  153.8032 N   0  0  0  0  0  0  0  0  0  0  0  0
  148.1798  139.3468  153.8012 C   0  0  0  0  0  0  0  0  0  0  0  0
  147.4707  139.2100  154.7986 O   0  0  0  0  0  0  0  0  0  0  0  0
  147.7554  139.0810  152.5570 N   0  0  0  0  0  0  0  0  0  0  0  0
  146.4235  138.5891  152.2228 C   0  0  0  0  0  0  0  0  0  0  0  0
  145.9588  137.5043  153.2148 C   0  0  0  0  0  0  0  0  0  0  0  0
  146.3990  136.1365  152.8290 N   0  3  0  0  0  0  0  0  0  0  0  0
  145.4277  135.4591  151.9298 C   0  0  0  0  0  0  0  0  0  0  0  0
  146.1577  134.6679  150.8307 C   0  0  0  0  0  0  0  0  0  0  0  0
  146.7158  133.3117  151.2841 C   0  0  0  0  0  0  0  0  0  0  0  0
  147.6732  133.3909  152.4829 C   0  0  0  0  0  0  0  0  0  0  0  0
  146.9548  133.8059  153.7757 C   0  0  0  0  0  0  0  0  0  0  0  0
  146.8427  135.3273  154.0015 C   0  0  0  0  0  0  0  0  0  0  0  0
  149.6092  141.0535  156.2586 S   0  0  0  0  0  0  0  0  0  0  0  0
  152.4804  141.1088  158.6719 H   0  0  0  0  0  0  0  0  0  0  0  0
  150.7597  141.3833  158.9875 H   0  0  0  0  0  0  0  0  0  0  0  0
  151.7155  142.6217  158.1547 H   0  0  0  0  0  0  0  0  0  0  0  0
  149.9038  139.8560  152.9032 H   0  0  0  0  0  0  0  0  0  0  0  0
  148.3999  139.2173  151.7918 H   0  0  0  0  0  0  0  0  0  0  0  0
  145.7336  139.4331  152.2442 H   0  0  0  0  0  0  0  0  0  0  0  0
  146.4319  138.2193  151.1970 H   0  0  0  0  0  0  0  0  0  0  0  0
  146.3072  137.7229  154.2254 H   0  0  0  0  0  0  0  0  0  0  0  0
  144.8689  137.5403  153.2492 H   0  0  0  0  0  0  0  0  0  0  0  0
  144.7226  134.8416  152.4880 H   0  0  0  0  0  0  0  0  0  0  0  0
  144.8161  136.2048  151.4209 H   0  0  0  0  0  0  0  0  0  0  0  0
  145.4602  134.4852  150.0125 H   0  0  0  0  0  0  0  0  0  0  0  0
  146.9573  135.2766  150.4060 H   0  0  0  0  0  0  0  0  0  0  0  0
  145.8903  132.6394  151.5214 H   0  0  0  0  0  0  0  0  0  0  0  0
  147.2393  132.8531  150.4444 H   0  0  0  0  0  0  0  0  0  0  0  0
  148.1033  132.3997  152.6318 H   0  0  0  0  0  0  0  0  0  0  0  0
  148.5127  134.0548  152.2729 H   0  0  0  0  0  0  0  0  0  0  0  0
  145.9691  133.3412  153.8197 H   0  0  0  0  0  0  0  0  0  0  0  0
  147.4987  133.3887  154.6240 H   0  0  0  0  0  0  0  0  0  0  0  0
  147.8187  135.6977  154.3147 H   0  0  0  0  0  0  0  0  0  0  0  0
  146.1651  135.4981  154.8397 H   0  0  0  0  0  0  0  0  0  0  0  0
  147.2199  136.2714  152.2564 H   0  0  0  0  0  0  0  0  0  0  0  0
  1  2  1  0  0  0  0
  1 20  1  0  0  0  0
  1 21  1  0  0  0  0
  1 22  1  0  0  0  0
  2 19  1  0  0  0  0
  2  3  2  0  0  0  0
  3  4  1  0  0  0  0
  4  5  2  0  0  0  0
  5  6  1  0  0  0  0
  5 19  1  0  0  0  0
  6  7  1  0  0  0  0
  6 23  1  0  0  0  0
  7  8  2  0  0  0  0
  7  9  1  0  0  0  0
  9 10  1  0  0  0  0
  9 24  1  0  0  0  0
 10 11  1  0  0  0  0
 10 25  1  0  0  0  0
 10 26  1  0  0  0  0
 11 12  1  0  0  0  0
 11 27  1  0  0  0  0
 11 28  1  0  0  0  0
 12 18  1  0  0  0  0
 12 13  1  0  0  0  0
 12 41  1  0  0  0  0
 13 14  1  0  0  0  0
 13 29  1  0  0  0  0
 13 30  1  0  0  0  0
 14 15  1  0  0  0  0
 14 31  1  0  0  0  0
 14 32  1  0  0  0  0
 15 16  1  0  0  0  0
 15 33  1  0  0  0  0
 15 34  1  0  0  0  0
 16 17  1  0  0  0  0
 16 35  1  0  0  0  0
 16 36  1  0  0  0  0
 17 18  1  0  0  0  0
 17 37  1  0  0  0  0
 17 38  1  0  0  0  0
 18 39  1  0  0  0  0
 18 40  1  0  0  0  0
M  CHG  1  12   1
M  END
> <s_m_source_file>
AV-unprocessed.smi

> <i_m_source_file_index>
1638

> <i_lp_mmshare_version>
43012

> <i_f3d_flags>
0

> <s_epik_input>
W0NIM11jMW5uYyhzMSlbTkhdQyg9TylbTkhdW0NIMl1bQ0gyXU4yW0NIMl1bQ0gyXVtDSDJdW0NIMl1bQ0gyXVtDSDJdMg==

> <s_epik_cmdline>
J2VwaWtfcHl0aG9uJywgJy1waCcsICc3LjAnLCAnLXRuJywgJzgnLCAnLW1hJywgJzIwMCcsICctbWV0YWxfYmluZGluZycsICctaW1hZScsICc8aW5maWxlLm1hZT4nLCAnLW9tYWUnLCAnPG91dGZpbGUubWFlPic=

> <r_lp_tautomer_probability>
1

> <r_epik_Ionization_Penalty>
0.00683162

> <r_epik_Ionization_Penalty_Charging>
0.00256589

> <r_epik_Ionization_Penalty_Neutral>
0.00426573

> <r_epik_State_Penalty>
0.0020046

> <r_epik_Charging_Adjusted_Penalty>
0.00457048

> <i_epik_Tot_Q>
1

> <i_epik_Tot_abs_Q>
1

> <r_epik_Metal_State_Penalty>
0.375345

> <b_epik_Metal_Only>
0

> <s_lp_Force_Field>
OPLS_2005

> <r_lp_Energy>
20.2813

> <b_lp_Chiralities_Consistent>
1

> <s_lp_Variant>
AV-unprocessed.smi:1638-1

> <Gold.Version>
5.8.1

> <Gold.Id.Protein>
6NUR|6NUR_protein|mol2

> <Gold.PLP.Fitness>
42.8834

> <Gold.PLP.PLP>
-30.5485

> <Gold.PLP.part.hbond>
-5.8732

> <Gold.PLP.part.metal>
0.0000

> <Gold.PLP.part.buried>
-1.7244

> <Gold.PLP.part.nonpolar>
-22.1769

> <Gold.PLP.part.repulsive>
0.3166

> <Gold.PLP.ligand.clash>
0.0000

> <Gold.PLP.ligand.torsion>
1.0712

> <Gold.PLP.Chemscore.Hbond>
4.8080

> <Gold.PLP.Chemscore.CHOScore>
0.0000

> <Gold.PLP.Chemscore.Metal>
0.0000

> <Gold.Chemscore.Hbonds>
donor molecule, donor type, donor heavy atom, donor atom, acceptor molecule, acceptor atom, score
      L1  H     6    23       P1  7957  0.90
      L1  H     9    24       P1  7957  1.00
      L1  H    12    41       P1  7948  2.00
      P1  H  7989  7998       L1     4  0.05
      P1  H  7997  8009       L1     3  0.47

> <Gold.PLP.Chemscore.Internal.Correction>
0.0533

> <Gold.Rescore>
     Score         DG    S(hbond)    S(metal)    S(lipo)     H(rot)  DE(clash)    DE(int)     intcor
     18.01     -20.54       3.75        0.00      56.57       1.60       0.01       2.52       ----

> <Gold.Chemscore.Fitness>
18.0091

> <Gold.Chemscore.DG>
-20.5394

> <Gold.Chemscore.ZeroCoef>
-5.4800

> <Gold.Chemscore.Hbond>
3.7516

> <Gold.Chemscore.Metal>
0.0000

> <Gold.Chemscore.Lipo>
56.5690

> <Gold.Chemscore.Internal_Hbond>
0.0000

> <Gold.Chemscore.DEClash>
0.0082

> <Gold.Chemscore.DEInternal>
2.5221

> <Gold.Chemscore.Rot>
1.5975

> <Gold.Chemscore.Internal.Correction>
   9.000000E+99

> <Gold.Chemscore.Hbonds>
donor molecule, donor type, donor heavy atom, donor atom, acceptor molecule, acceptor atom, score
      L1  H     6    23       P1  7957  0.88
      L1  H     9    24       P1  7957  0.90
      L1  H    12    41       P1  7948  0.99
      P1  H  7997  8009       L1     3  0.42

> <Gold.Chemscore.Hbond.Weighted>
-12.5304

> <Gold.Chemscore.Metal.Weighted>
-0.0000

> <Gold.Chemscore.Lipo.Weighted>
-6.6186

> <Gold.Chemscore.Internal_Hbond.Weighted>
0.0000

> <Gold.Chemscore.DEClash.Weighted>
0.0082

> <Gold.Chemscore.DEInternal.Weighted>
2.5221

> <Gold.Chemscore.Rot.Weighted>
4.0896

> <Gold.Chemscore.Internal.Correction.Weighted>
   9.000000E+99

> <Gold.Protein.RotatedTorsions>
[ 6907 6896 6895 6894 ] final  -59.12 input  -60.11 | X-H torsion
[ 7974 7965 7964 7962 ] final   89.36 input  175.53 | X-H torsion
[ 8008 7997 7996 7995 ] final -169.70 input   59.86 | X-H torsion
[ 10167 10162 10161 10158 ] final   22.36 input  -65.29 | X-H torsion
[ 10718 10713 10712 10709 ] final   81.22 input   66.30 | X-H torsion
[ 10763 10752 10751 10750 ] final -113.44 input  -60.55 | X-H torsion
[ 11005 11000 10999 10996 ] final   97.66 input  -57.11 | X-H torsion

> <Gold.Protein.ActiveResidues>
 VAL166  LYS551  ARG553  GLY616  TRP617  ASP618  TYR619  PRO620  LYS621  CYS622 
 ASP623  PHE694  ASN695  SER759  ASP760  ASP761  ALA762  ILE779  LEU786  VAL792 
 PHE793  MET794  SER795  GLU796  ALA797  LYS798  CYS799  TRP800  GLU811  SER814 

> <Gold.Protein.RotatedAtoms>
  150.7954  134.7010  159.6549 H   0  0  0  0  0  0  0  0  0  0  0  0  # atno 6907 bound_to 6896
  152.4066  134.6193  160.0056 H   0  0  0  0  0  0  0  0  0  0  0  0  # atno 6908 bound_to 6896
  151.6449  133.3287  159.3174 H   0  0  0  0  0  0  0  0  0  0  0  0  # atno 6909 bound_to 6896
  145.5334  139.2284  143.2606 H   0  0  0  0  0  0  0  0  0  0  0  0  # atno 7974 bound_to 7965
  155.9085  140.1053  157.1297 H   0  0  0  0  0  0  0  0  0  0  0  0  # atno 8008 bound_to 7997
  154.4036  140.1279  156.4592 H   0  0  0  0  0  0  0  0  0  0  0  0  # atno 8009 bound_to 7997
  155.7338  140.3468  155.5074 H   0  0  0  0  0  0  0  0  0  0  0  0  # atno 8010 bound_to 7997
  140.5354  143.9769  150.6489 H   0  0  0  0  0  0  0  0  0  0  0  0  # atno 10167 bound_to 10162
  157.6827  130.9994  150.2195 H   0  0  0  0  0  0  0  0  0  0  0  0  # atno 10718 bound_to 10713
  154.8396  135.4454  154.1350 H   0  0  0  0  0  0  0  0  0  0  0  0  # atno 10763 bound_to 10752
  153.2550  135.6930  153.7645 H   0  0  0  0  0  0  0  0  0  0  0  0  # atno 10764 bound_to 10752
  153.6943  135.3382  155.3185 H   0  0  0  0  0  0  0  0  0  0  0  0  # atno 10765 bound_to 10752
  139.8775  134.9011  156.4340 H   0  0  0  0  0  0  0  0  0  0  0  0  # atno 11005 bound_to 11000
  146.2029  140.6151  142.9094 LP  0  0  0  0  0  0  0  0  0  0  0  0  # atno 17320 bound_to 7965
  144.7614  140.5431  143.6733 LP  0  0  0  0  0  0  0  0  0  0  0  0  # atno 17321 bound_to 7965
  140.3156  143.3170  152.0836 LP  0  0  0  0  0  0  0  0  0  0  0  0  # atno 17342 bound_to 10162
  139.4969  144.6608  151.6469 LP  0  0  0  0  0  0  0  0  0  0  0  0  # atno 17343 bound_to 10162
  156.2849  130.3738  149.7898 LP  0  0  0  0  0  0  0  0  0  0  0  0  # atno 17370 bound_to 10713
  156.5575  130.8369  151.3319 LP  0  0  0  0  0  0  0  0  0  0  0  0  # atno 17371 bound_to 10713
  140.9047  133.7754  155.9721 LP  0  0  0  0  0  0  0  0  0  0  0  0  # atno 17394 bound_to 11000
  140.8613  134.2837  157.5233 LP  0  0  0  0  0  0  0  0  0  0  0  0  # atno 17395 bound_to 11000

$$$$
