AV-unprocessed.smi:2300|AV-procd|sdf|9233|dock1
  -GOLD-   2272012453D 1   1.00000     0.00000
 Structure written by MMmdl.
 51 52  0  0  0  0  0  0  0  0  1 V2000
  146.9279  138.8045  151.9098 C   0  0  0  0  0  0  0  0  0  0  0  0
  147.2187  139.4198  153.2752 C   0  0  0  0  0  0  0  0  0  0  0  0
  146.5001  139.1471  154.2361 O   0  0  0  0  0  0  0  0  0  0  0  0
  148.2694  140.2511  153.3484 N   0  0  0  0  0  0  0  0  0  0  0  0
  148.7031  140.9499  154.5535 C   0  0  0  0  0  0  0  0  0  0  0  0
  150.1543  140.6004  154.9234 C   0  0  1  0  0  0  0  0  0  0  0  0
  150.4712  140.9498  156.3896 C   0  0  0  0  0  0  0  0  0  0  0  0
  151.8237  140.5183  156.7365 N   0  0  0  0  0  0  0  0  0  0  0  0
  152.3803  140.9958  157.9419 C   0  0  0  0  0  0  0  0  0  0  0  0
  152.1684  142.3299  158.3625 C   0  0  0  0  0  0  0  0  0  0  0  0
  152.7586  142.7184  159.5839 C   0  0  0  0  0  0  0  0  0  0  0  0
  152.5865  144.1286  160.1305 C   0  0  0  0  0  0  0  0  0  0  0  0
  152.0230  144.1223  161.5598 C   0  0  0  0  0  0  0  0  0  0  0  0
  151.7625  145.0119  159.1808 C   0  0  0  0  0  0  0  0  0  0  0  0
  153.4946  141.8562  160.3199 N   0  0  0  0  0  0  0  0  0  0  0  0
  153.6339  140.6174  159.8417 C   0  0  0  0  0  0  0  0  0  0  0  0
  154.4655  139.6495  160.6731 C   0  0  0  0  0  0  0  0  0  0  0  0
  153.7319  138.3206  160.9109 C   0  0  0  0  0  0  0  0  0  0  0  0
  154.9748  140.2958  161.9710 C   0  0  0  0  0  0  0  0  0  0  0  0
  153.1179  140.1491  158.7010 N   0  0  0  0  0  0  0  0  0  0  0  0
  152.0840  139.1153  156.4263 C   0  0  0  0  0  0  0  0  0  0  0  0
  151.6958  138.8086  154.9698 C   0  0  0  0  0  0  0  0  0  0  0  0
  150.3469  139.1999  154.7366 O   0  0  0  0  0  0  0  0  0  0  0  0
  147.7577  138.9551  151.2182 H   0  0  0  0  0  0  0  0  0  0  0  0
  146.0348  139.2563  151.4774 H   0  0  0  0  0  0  0  0  0  0  0  0
  146.7573  137.7318  152.0063 H   0  0  0  0  0  0  0  0  0  0  0  0
  148.8000  140.4224  152.5066 H   0  0  0  0  0  0  0  0  0  0  0  0
  148.5967  142.0269  154.4118 H   0  0  0  0  0  0  0  0  0  0  0  0
  148.0329  140.6791  155.3699 H   0  0  0  0  0  0  0  0  0  0  0  0
  150.8344  141.1504  154.2699 H   0  0  0  0  0  0  0  0  0  0  0  0
  150.3737  142.0269  156.5321 H   0  0  0  0  0  0  0  0  0  0  0  0
  149.7566  140.4660  157.0571 H   0  0  0  0  0  0  0  0  0  0  0  0
  151.5693  143.0231  157.7912 H   0  0  0  0  0  0  0  0  0  0  0  0
  153.5809  144.5731  160.1879 H   0  0  0  0  0  0  0  0  0  0  0  0
  152.6587  143.5406  162.2281 H   0  0  0  0  0  0  0  0  0  0  0  0
  151.0218  143.6915  161.5934 H   0  0  0  0  0  0  0  0  0  0  0  0
  151.9612  145.1342  161.9610 H   0  0  0  0  0  0  0  0  0  0  0  0
  152.2182  145.0530  158.1911 H   0  0  0  0  0  0  0  0  0  0  0  0
  151.6946  146.0335  159.5553 H   0  0  0  0  0  0  0  0  0  0  0  0
  150.7462  144.6341  159.0642 H   0  0  0  0  0  0  0  0  0  0  0  0
  155.3543  139.4051  160.0882 H   0  0  0  0  0  0  0  0  0  0  0  0
  153.4528  137.8536  159.9660 H   0  0  0  0  0  0  0  0  0  0  0  0
  152.8211  138.4660  161.4927 H   0  0  0  0  0  0  0  0  0  0  0  0
  154.3629  137.6164  161.4534 H   0  0  0  0  0  0  0  0  0  0  0  0
  155.5518  141.1967  161.7595 H   0  0  0  0  0  0  0  0  0  0  0  0
  155.6197  139.6116  162.5227 H   0  0  0  0  0  0  0  0  0  0  0  0
  154.1500  140.5749  162.6278 H   0  0  0  0  0  0  0  0  0  0  0  0
  153.1310  138.8558  156.5754 H   0  0  0  0  0  0  0  0  0  0  0  0
  151.5020  138.4922  157.1064 H   0  0  0  0  0  0  0  0  0  0  0  0
  152.3605  139.3223  154.2733 H   0  0  0  0  0  0  0  0  0  0  0  0
  151.7939  137.7410  154.7730 H   0  0  0  0  0  0  0  0  0  0  0  0
  1  2  1  0  0  0  0
  1 24  1  0  0  0  0
  1 25  1  0  0  0  0
  1 26  1  0  0  0  0
  2  3  2  0  0  0  0
  2  4  1  0  0  0  0
  4  5  1  0  0  0  0
  4 27  1  0  0  0  0
  5  6  1  0  0  0  0
  5 28  1  0  0  0  0
  5 29  1  0  0  0  0
  6 23  1  0  0  0  0
  6  7  1  0  0  0  0
  6 30  1  0  0  0  0
  7  8  1  0  0  0  0
  7 31  1  0  0  0  0
  7 32  1  0  0  0  0
  8  9  1  0  0  0  0
  8 21  1  0  0  0  0
  9 20  1  0  0  0  0
  9 10  2  0  0  0  0
 10 11  1  0  0  0  0
 10 33  1  0  0  0  0
 11 12  1  0  0  0  0
 11 15  2  0  0  0  0
 12 13  1  0  0  0  0
 12 14  1  0  0  0  0
 12 34  1  0  0  0  0
 13 35  1  0  0  0  0
 13 36  1  0  0  0  0
 13 37  1  0  0  0  0
 14 38  1  0  0  0  0
 14 39  1  0  0  0  0
 14 40  1  0  0  0  0
 15 16  1  0  0  0  0
 16 17  1  0  0  0  0
 16 20  2  0  0  0  0
 17 18  1  0  0  0  0
 17 19  1  0  0  0  0
 17 41  1  0  0  0  0
 18 42  1  0  0  0  0
 18 43  1  0  0  0  0
 18 44  1  0  0  0  0
 19 45  1  0  0  0  0
 19 46  1  0  0  0  0
 19 47  1  0  0  0  0
 21 22  1  0  0  0  0
 21 48  1  0  0  0  0
 21 49  1  0  0  0  0
 22 23  1  0  0  0  0
 22 50  1  0  0  0  0
 22 51  1  0  0  0  0
M  END
> <s_m_source_file>
AV-unprocessed.smi

> <i_m_source_file_index>
2300

> <i_lp_mmshare_version>
43012

> <i_f3d_flags>
0

> <s_epik_input>
W0NIM11DKD1PKVtOSF1bQ0gyXVtDQEBIXTFbQ0gyXU4oW0NIMl1bQ0gyXU8xKWMyW2NIXWMoW0NIXShbQ0gzXSlbQ0gzXSluYyhuMilbQ0hdKFtDSDNdKVtDSDNd

> <s_epik_cmdline>
J2VwaWtfcHl0aG9uJywgJy1waCcsICc3LjAnLCAnLXRuJywgJzgnLCAnLW1hJywgJzIwMCcsICctbWV0YWxfYmluZGluZycsICctaW1hZScsICc8aW5maWxlLm1hZT4nLCAnLW9tYWUnLCAnPG91dGZpbGUubWFlPic=

> <r_lp_tautomer_probability>
1

> <r_epik_Ionization_Penalty>
0.0035465

> <r_epik_Ionization_Penalty_Charging>
0

> <r_epik_Ionization_Penalty_Neutral>
0.0035465

> <r_epik_State_Penalty>
0.00247846

> <r_epik_Charging_Adjusted_Penalty>
0.00247846

> <i_epik_Tot_Q>
0

> <i_epik_Tot_abs_Q>
0

> <r_epik_Metal_State_Penalty>
-0

> <b_epik_Metal_Only>
0

> <s_lp_Force_Field>
OPLS_2005

> <r_lp_Energy>
1.47364

> <b_lp_Chiralities_Consistent>
1

> <s_lp_Variant>
AV-unprocessed.smi:2300-2

> <Gold.Version>
5.8.1

> <Gold.Id.Protein>
6NUR|6NUR_protein|mol2

> <Gold.PLP.Fitness>
52.7196

> <Gold.PLP.PLP>
-48.1494

> <Gold.PLP.part.hbond>
-2.0000

> <Gold.PLP.part.metal>
0.0000

> <Gold.PLP.part.buried>
-4.2281

> <Gold.PLP.part.nonpolar>
-41.7595

> <Gold.PLP.part.repulsive>
0.3990

> <Gold.PLP.ligand.clash>
0.0000

> <Gold.PLP.ligand.torsion>
0.5699

> <Gold.PLP.Chemscore.Hbond>
1.7410

> <Gold.PLP.Chemscore.CHOScore>
0.0000

> <Gold.PLP.Chemscore.Metal>
0.0000

> <Gold.Chemscore.Hbonds>
donor molecule, donor type, donor heavy atom, donor atom, acceptor molecule, acceptor atom, score
      L1  H     4    27       P1  7957  1.00
      P1  H  7997  8009       L1    20  0.23

> <Gold.PLP.Chemscore.Internal.Correction>
0.4870

> <Gold.Rescore>
     Score         DG    S(hbond)    S(metal)    S(lipo)     H(rot)  DE(clash)    DE(int)     intcor
     18.36     -18.98       1.02        0.00     125.84       1.82       0.13       0.48       ----

> <Gold.Chemscore.Fitness>
18.3574

> <Gold.Chemscore.DG>
-18.9763

> <Gold.Chemscore.ZeroCoef>
-5.4800

> <Gold.Chemscore.Hbond>
1.0245

> <Gold.Chemscore.Metal>
0.0000

> <Gold.Chemscore.Lipo>
125.8350

> <Gold.Chemscore.Internal_Hbond>
0.0000

> <Gold.Chemscore.DEClash>
0.1342

> <Gold.Chemscore.DEInternal>
0.4846

> <Gold.Chemscore.Rot>
1.8156

> <Gold.Chemscore.Internal.Correction>
   9.000000E+99

> <Gold.Chemscore.Hbonds>
donor molecule, donor type, donor heavy atom, donor atom, acceptor molecule, acceptor atom, score
      L1  H     4    27       P1  7957  0.98
      P1  H  7997  8009       L1    20  0.01

> <Gold.Chemscore.Hbond.Weighted>
-3.4217

> <Gold.Chemscore.Metal.Weighted>
-0.0000

> <Gold.Chemscore.Lipo.Weighted>
-14.7227

> <Gold.Chemscore.Internal_Hbond.Weighted>
0.0000

> <Gold.Chemscore.DEClash.Weighted>
0.1342

> <Gold.Chemscore.DEInternal.Weighted>
0.4846

> <Gold.Chemscore.Rot.Weighted>
4.6481

> <Gold.Chemscore.Internal.Correction.Weighted>
   9.000000E+99

> <Gold.Protein.RotatedTorsions>
[ 6907 6896 6895 6894 ] final   78.55 input  -60.11 | X-H torsion
[ 7974 7965 7964 7962 ] final -154.28 input  175.53 | X-H torsion
[ 8008 7997 7996 7995 ] final  152.13 input   59.86 | X-H torsion
[ 10167 10162 10161 10158 ] final  112.27 input  -65.29 | X-H torsion
[ 10718 10713 10712 10709 ] final   19.72 input   66.30 | X-H torsion
[ 10763 10752 10751 10750 ] final    2.96 input  -60.55 | X-H torsion
[ 11005 11000 10999 10996 ] final  -31.28 input  -57.11 | X-H torsion

> <Gold.Protein.ActiveResidues>
 VAL166  LYS551  ARG553  GLY616  TRP617  ASP618  TYR619  PRO620  LYS621  CYS622 
 ASP623  PHE694  ASN695  SER759  ASP760  ASP761  ALA762  ILE779  LEU786  VAL792 
 PHE793  MET794  SER795  GLU796  ALA797  LYS798  CYS799  TRP800  GLU811  SER814 

> <Gold.Protein.RotatedAtoms>
  152.5164  134.3647  159.9296 H   0  0  0  0  0  0  0  0  0  0  0  0  # atno 6907 bound_to 6896
  151.3600  133.3887  159.2696 H   0  0  0  0  0  0  0  0  0  0  0  0  # atno 6908 bound_to 6896
  150.9659  134.9059  159.7817 H   0  0  0  0  0  0  0  0  0  0  0  0  # atno 6909 bound_to 6896
  144.7697  140.4410  143.5916 H   0  0  0  0  0  0  0  0  0  0  0  0  # atno 7974 bound_to 7965
  156.2643  140.2029  156.6285 H   0  0  0  0  0  0  0  0  0  0  0  0  # atno 8008 bound_to 7997
  154.6701  140.0551  157.0180 H   0  0  0  0  0  0  0  0  0  0  0  0  # atno 8009 bound_to 7997
  155.1149  140.3219  155.4515 H   0  0  0  0  0  0  0  0  0  0  0  0  # atno 8010 bound_to 7997
  139.6548  144.7129  151.1978 H   0  0  0  0  0  0  0  0  0  0  0  0  # atno 10167 bound_to 10162
  157.1144  130.6523  149.5906 H   0  0  0  0  0  0  0  0  0  0  0  0  # atno 10718 bound_to 10713
  153.2891  135.6947  153.7310 H   0  0  0  0  0  0  0  0  0  0  0  0  # atno 10763 bound_to 10752
  153.6268  135.3417  155.3029 H   0  0  0  0  0  0  0  0  0  0  0  0  # atno 10764 bound_to 10752
  154.8518  135.4399  154.1968 H   0  0  0  0  0  0  0  0  0  0  0  0  # atno 10765 bound_to 10752
  140.9455  133.7253  156.1140 H   0  0  0  0  0  0  0  0  0  0  0  0  # atno 11005 bound_to 11000
  145.6360  139.1543  143.2942 LP  0  0  0  0  0  0  0  0  0  0  0  0  # atno 17320 bound_to 7965
  146.1834  140.6460  142.9178 LP  0  0  0  0  0  0  0  0  0  0  0  0  # atno 17321 bound_to 7965
  140.7554  143.6090  150.8624 LP  0  0  0  0  0  0  0  0  0  0  0  0  # atno 17342 bound_to 10162
  139.9742  143.6023  152.2964 LP  0  0  0  0  0  0  0  0  0  0  0  0  # atno 17343 bound_to 10162
  155.9843  130.4867  150.6975 LP  0  0  0  0  0  0  0  0  0  0  0  0  # atno 17370 bound_to 10713
  157.4531  131.0875  151.0825 LP  0  0  0  0  0  0  0  0  0  0  0  0  # atno 17371 bound_to 10713
  140.7675  134.3869  157.5514 LP  0  0  0  0  0  0  0  0  0  0  0  0  # atno 17394 bound_to 11000
  139.8832  134.9001  156.2781 LP  0  0  0  0  0  0  0  0  0  0  0  0  # atno 17395 bound_to 11000

$$$$
