AV-unprocessed.smi:2751|AV-procd|sdf|10601|dock8
  -GOLD-   2272015 53D 1   1.00000     0.00000
 Structure written by MMmdl.
 34 35  0  0  0  0  0  0  0  0  1 V2000
  150.1350  139.6004  153.8895 O   0  0  0  0  0  0  0  0  0  0  0  0
  149.4532  139.3034  154.8758 C   0  0  0  0  0  0  0  0  0  0  0  0
  149.7747  139.7343  156.1049 N   0  0  0  0  0  0  0  0  0  0  0  0
  150.9165  140.5806  156.4346 C   0  0  0  0  0  0  0  0  0  0  0  0
  150.4768  142.0065  156.8093 C   0  0  0  0  0  0  0  0  0  0  0  0
  151.5076  142.7387  157.6832 C   0  0  2  0  0  0  0  0  0  0  0  0
  151.8279  141.9580  158.9731 C   0  0  0  0  0  0  0  0  0  0  0  0
  152.7970  142.7504  159.8581 C   0  0  0  0  0  0  0  0  0  0  0  0
  152.2440  144.1590  160.0972 C   0  0  0  0  0  0  0  0  0  0  0  0
  151.8982  144.8303  158.7586 C   0  0  0  0  0  0  0  0  0  0  0  0
  150.9813  144.0181  158.0317 O   0  0  0  0  0  0  0  0  0  0  0  0
  148.2989  138.5346  154.9281 N   0  0  0  0  0  0  0  0  0  0  0  0
  147.5143  138.4663  153.8960 C   0  0  0  0  0  0  0  0  0  0  0  0
  147.5599  139.0405  152.6283 N   0  0  0  0  0  0  0  0  0  0  0  0
  146.4575  138.6284  151.9332 C   0  0  0  0  0  0  0  0  0  0  0  0
  145.7474  137.8294  152.7238 C   0  0  0  0  0  0  0  0  0  0  0  0
  146.3693  137.7109  153.9305 O   0  0  0  0  0  0  0  0  0  0  0  0
  149.1775  139.4580  156.8712 H   0  0  0  0  0  0  0  0  0  0  0  0
  151.4956  140.1322  157.2437 H   0  0  0  0  0  0  0  0  0  0  0  0
  151.5733  140.6095  155.5649 H   0  0  0  0  0  0  0  0  0  0  0  0
  150.2879  142.5844  155.9037 H   0  0  0  0  0  0  0  0  0  0  0  0
  149.5284  141.9593  157.3458 H   0  0  0  0  0  0  0  0  0  0  0  0
  152.4244  142.8726  157.1061 H   0  0  0  0  0  0  0  0  0  0  0  0
  150.9070  141.7644  159.5248 H   0  0  0  0  0  0  0  0  0  0  0  0
  152.2574  140.9855  158.7310 H   0  0  0  0  0  0  0  0  0  0  0  0
  152.9540  142.2364  160.8066 H   0  0  0  0  0  0  0  0  0  0  0  0
  153.7704  142.8154  159.3703 H   0  0  0  0  0  0  0  0  0  0  0  0
  151.3484  144.1006  160.7169 H   0  0  0  0  0  0  0  0  0  0  0  0
  152.9677  144.7611  160.6472 H   0  0  0  0  0  0  0  0  0  0  0  0
  151.4422  145.8047  158.9348 H   0  0  0  0  0  0  0  0  0  0  0  0
  152.7977  145.0027  158.1653 H   0  0  0  0  0  0  0  0  0  0  0  0
  148.2623  139.6584  152.2474 H   0  0  0  0  0  0  0  0  0  0  0  0
  146.2947  138.9609  150.9185 H   0  0  0  0  0  0  0  0  0  0  0  0
  144.8207  137.2930  152.5828 H   0  0  0  0  0  0  0  0  0  0  0  0
  1  2  2  0  0  0  0
  2 12  1  0  0  0  0
  2  3  1  0  0  0  0
  3  4  1  0  0  0  0
  3 18  1  0  0  0  0
  4  5  1  0  0  0  0
  4 19  1  0  0  0  0
  4 20  1  0  0  0  0
  5  6  1  0  0  0  0
  5 21  1  0  0  0  0
  5 22  1  0  0  0  0
  6 11  1  0  0  0  0
  6  7  1  0  0  0  0
  6 23  1  0  0  0  0
  7  8  1  0  0  0  0
  7 24  1  0  0  0  0
  7 25  1  0  0  0  0
  8  9  1  0  0  0  0
  8 26  1  0  0  0  0
  8 27  1  0  0  0  0
  9 10  1  0  0  0  0
  9 28  1  0  0  0  0
  9 29  1  0  0  0  0
 10 11  1  0  0  0  0
 10 30  1  0  0  0  0
 10 31  1  0  0  0  0
 12 13  2  0  0  0  0
 13 17  1  0  0  0  0
 13 14  1  0  0  0  0
 14 32  1  0  0  0  0
 14 15  1  0  0  0  0
 15 33  1  0  0  0  0
 15 16  2  0  0  0  0
 16 34  1  0  0  0  0
 16 17  1  0  0  0  0
M  END
> <s_m_source_file>
AV-unprocessed.smi

> <i_m_source_file_index>
2751

> <i_lp_mmshare_version>
43012

> <i_f3d_flags>
0

> <s_epik_input>
bzFbY0hdW2NIXW5jMVtOSF1DKD1PKVtOSF1bQ0gyXVtDSDJdW0NAQEhdMltDSDJdW0NIMl1bQ0gyXVtDSDJdTzI=

> <s_epik_cmdline>
J2VwaWtfcHl0aG9uJywgJy1waCcsICc3LjAnLCAnLXRuJywgJzgnLCAnLW1hJywgJzIwMCcsICctbWV0YWxfYmluZGluZycsICctaW1hZScsICc8aW5maWxlLm1hZT4nLCAnLW9tYWUnLCAnPG91dGZpbGUubWFlPic=

> <r_lp_tautomer_probability>
0.107061

> <r_epik_Ionization_Penalty>
1.421

> <r_epik_Ionization_Penalty_Charging>
1.42064

> <r_epik_Ionization_Penalty_Neutral>
0.0003614

> <r_epik_State_Penalty>
2.61489

> <r_epik_Charging_Adjusted_Penalty>
4.03553

> <i_epik_Tot_Q>
0

> <i_epik_Tot_abs_Q>
0

> <r_epik_Metal_State_Penalty>
3.57288

> <b_epik_Metal_Only>
0

> <s_lp_Force_Field>
OPLS_2005

> <r_lp_Energy>
32.5826

> <b_lp_Chiralities_Consistent>
1

> <s_lp_Variant>
AV-unprocessed.smi:2751-7

> <Gold.Version>
5.8.1

> <Gold.Id.Protein>
6NUR|6NUR_protein|mol2

> <Gold.PLP.Fitness>
38.3611

> <Gold.PLP.PLP>
-31.6964

> <Gold.PLP.part.hbond>
-2.6082

> <Gold.PLP.part.metal>
0.0000

> <Gold.PLP.part.buried>
-5.6654

> <Gold.PLP.part.nonpolar>
-27.1254

> <Gold.PLP.part.repulsive>
2.6555

> <Gold.PLP.ligand.clash>
0.0000

> <Gold.PLP.ligand.torsion>
0.3516

> <Gold.PLP.Chemscore.Hbond>
1.9920

> <Gold.PLP.Chemscore.CHOScore>
0.4586

> <Gold.PLP.Chemscore.Metal>
0.0000

> <Gold.Chemscore.Hbonds>
donor molecule, donor type, donor heavy atom, donor atom, acceptor molecule, acceptor atom, score
      L1  H    14    32       P1  7957  1.00
      P1  H  7989  7998       L1     1  0.98
      L1  C    15    33       P1 10171  0.52

> <Gold.PLP.Chemscore.Internal.Correction>
0.0161

> <Gold.Rescore>
     Score         DG    S(hbond)    S(metal)    S(lipo)     H(rot)  DE(clash)    DE(int)     intcor
     17.34     -17.72       1.93        0.00      85.35       1.63       0.04       0.34       ----

> <Gold.Chemscore.Fitness>
17.3390

> <Gold.Chemscore.DG>
-17.7221

> <Gold.Chemscore.ZeroCoef>
-5.4800

> <Gold.Chemscore.Hbond>
1.9268

> <Gold.Chemscore.Metal>
0.0000

> <Gold.Chemscore.Lipo>
85.3538

> <Gold.Chemscore.Internal_Hbond>
0.0000

> <Gold.Chemscore.DEClash>
0.0438

> <Gold.Chemscore.DEInternal>
0.3394

> <Gold.Chemscore.Rot>
1.6328

> <Gold.Chemscore.Internal.Correction>
   9.000000E+99

> <Gold.Chemscore.Hbonds>
donor molecule, donor type, donor heavy atom, donor atom, acceptor molecule, acceptor atom, score
      L1  H    14    32       P1  7957  0.96
      P1  H  7989  7998       L1     1  0.91

> <Gold.Chemscore.Hbond.Weighted>
-6.4356

> <Gold.Chemscore.Metal.Weighted>
-0.0000

> <Gold.Chemscore.Lipo.Weighted>
-9.9864

> <Gold.Chemscore.Internal_Hbond.Weighted>
0.0000

> <Gold.Chemscore.DEClash.Weighted>
0.0438

> <Gold.Chemscore.DEInternal.Weighted>
0.3394

> <Gold.Chemscore.Rot.Weighted>
4.1799

> <Gold.Chemscore.Internal.Correction.Weighted>
   9.000000E+99

> <Gold.Protein.RotatedTorsions>
[ 6907 6896 6895 6894 ] final  -45.51 input  -60.11 | X-H torsion
[ 7974 7965 7964 7962 ] final   66.80 input  175.53 | X-H torsion
[ 8008 7997 7996 7995 ] final  106.60 input   59.86 | X-H torsion
[ 10167 10162 10161 10158 ] final -138.41 input  -65.29 | X-H torsion
[ 10718 10713 10712 10709 ] final  105.82 input   66.30 | X-H torsion
[ 10763 10752 10751 10750 ] final  -17.24 input  -60.55 | X-H torsion
[ 11005 11000 10999 10996 ] final -146.38 input  -57.11 | X-H torsion

> <Gold.Protein.ActiveResidues>
 VAL166  LYS551  ARG553  GLY616  TRP617  ASP618  TYR619  PRO620  LYS621  CYS622 
 ASP623  PHE694  ASN695  SER759  ASP760  ASP761  ALA762  ILE779  LEU786  VAL792 
 PHE793  MET794  SER795  GLU796  ALA797  LYS798  CYS799  TRP800  GLU811  SER814 

> <Gold.Protein.RotatedAtoms>
  150.9212  134.8629  159.7489 H   0  0  0  0  0  0  0  0  0  0  0  0  # atno 6907 bound_to 6896
  152.4993  134.4216  159.9492 H   0  0  0  0  0  0  0  0  0  0  0  0  # atno 6908 bound_to 6896
  151.4250  133.3647  159.2796 H   0  0  0  0  0  0  0  0  0  0  0  0  # atno 6909 bound_to 6896
  145.8222  139.3091  143.1036 H   0  0  0  0  0  0  0  0  0  0  0  0  # atno 7974 bound_to 7965
  156.1756  140.3110  155.9053 H   0  0  0  0  0  0  0  0  0  0  0  0  # atno 8008 bound_to 7997
  155.3495  140.0470  157.3063 H   0  0  0  0  0  0  0  0  0  0  0  0  # atno 8009 bound_to 7997
  154.5286  140.2223  155.8854 H   0  0  0  0  0  0  0  0  0  0  0  0  # atno 8010 bound_to 7997
  139.8481  143.7235  152.2659 H   0  0  0  0  0  0  0  0  0  0  0  0  # atno 10167 bound_to 10162
  157.6691  131.0836  150.5915 H   0  0  0  0  0  0  0  0  0  0  0  0  # atno 10718 bound_to 10713
  153.5708  135.7007  153.5505 H   0  0  0  0  0  0  0  0  0  0  0  0  # atno 10763 bound_to 10752
  153.3346  135.4038  155.1523 H   0  0  0  0  0  0  0  0  0  0  0  0  # atno 10764 bound_to 10752
  154.8633  135.3727  154.5231 H   0  0  0  0  0  0  0  0  0  0  0  0  # atno 10765 bound_to 10752
  140.7826  134.3062  157.5040 H   0  0  0  0  0  0  0  0  0  0  0  0  # atno 11005 bound_to 11000
  145.9662  140.8796  143.0186 LP  0  0  0  0  0  0  0  0  0  0  0  0  # atno 17320 bound_to 7965
  144.6746  140.1881  143.7399 LP  0  0  0  0  0  0  0  0  0  0  0  0  # atno 17321 bound_to 7965
  139.7493  144.7538  151.0531 LP  0  0  0  0  0  0  0  0  0  0  0  0  # atno 17342 bound_to 10162
  140.7791  143.4879  150.9931 LP  0  0  0  0  0  0  0  0  0  0  0  0  # atno 17343 bound_to 10162
  156.6215  130.4407  149.5820 LP  0  0  0  0  0  0  0  0  0  0  0  0  # atno 17370 bound_to 10713
  156.2352  130.6818  151.1502 LP  0  0  0  0  0  0  0  0  0  0  0  0  # atno 17371 bound_to 10713
  139.8741  134.9327  156.3561 LP  0  0  0  0  0  0  0  0  0  0  0  0  # atno 17394 bound_to 11000
  140.9468  133.7477  156.0219 LP  0  0  0  0  0  0  0  0  0  0  0  0  # atno 17395 bound_to 11000

$$$$
