AV-unprocessed.smi:1574|AV-procd|sdf|6335|dock5
  -GOLD-   22720 6543D 1   1.00000     0.00000
 Structure written by MMmdl.
 40 41  0  0  0  0  0  0  0  0  1 V2000
  153.3516  141.2920  160.5531 C   0  0  0  0  0  0  0  0  0  0  0  0
  152.8305  142.5597  159.8574 C   0  0  2  0  0  0  0  0  0  0  0  0
  152.6187  143.6938  160.8805 C   0  0  0  0  0  0  0  0  0  0  0  0
  152.0934  144.9737  160.2127 C   0  0  0  0  0  0  0  0  0  0  0  0
  150.7966  144.6979  159.4404 C   0  0  0  0  0  0  0  0  0  0  0  0
  151.0000  143.5779  158.4113 C   0  0  0  0  0  0  0  0  0  0  0  0
  151.5313  142.2853  159.0667 C   0  0  1  0  0  0  0  0  0  0  0  0
  151.8315  141.3445  158.0449 O   0  0  0  0  0  0  0  0  0  0  0  0
  150.7099  140.6127  157.5720 C   0  0  0  0  0  0  0  0  0  0  0  0
  150.3305  141.1410  156.1810 C   0  0  0  0  0  0  0  0  0  0  0  0
  150.3714  140.0778  155.1829 N   0  0  0  0  0  0  0  0  0  0  0  0
  151.4806  139.6286  154.5753 C   0  0  0  0  0  0  0  0  0  0  0  0
  152.5940  140.1257  154.7403 O   0  0  0  0  0  0  0  0  0  0  0  0
  151.3115  138.4228  153.6512 C   0  0  0  0  0  0  0  0  0  0  0  0
  150.9145  137.2447  154.4001 N   0  0  0  0  0  0  0  0  0  0  0  0
  149.7931  136.5216  154.3676 C   0  0  0  0  0  0  0  0  0  0  0  0
  149.8357  135.5134  155.2250 N   0  0  0  0  0  0  0  0  0  0  0  0
  151.0813  135.6539  155.8140 N   0  0  0  0  0  0  0  0  0  0  0  0
  151.7251  136.6805  155.3298 N   0  0  0  0  0  0  0  0  0  0  0  0
  152.6237  140.9029  161.2659 H   0  0  0  0  0  0  0  0  0  0  0  0
  154.2748  141.4942  161.0970 H   0  0  0  0  0  0  0  0  0  0  0  0
  153.5649  140.5027  159.8320 H   0  0  0  0  0  0  0  0  0  0  0  0
  153.5941  142.8878  159.1502 H   0  0  0  0  0  0  0  0  0  0  0  0
  151.9136  143.3709  161.6479 H   0  0  0  0  0  0  0  0  0  0  0  0
  153.5551  143.9117  161.3951 H   0  0  0  0  0  0  0  0  0  0  0  0
  151.9217  145.7433  160.9656 H   0  0  0  0  0  0  0  0  0  0  0  0
  152.8485  145.3689  159.5318 H   0  0  0  0  0  0  0  0  0  0  0  0
  150.0057  144.4168  160.1367 H   0  0  0  0  0  0  0  0  0  0  0  0
  150.4620  145.6063  158.9387 H   0  0  0  0  0  0  0  0  0  0  0  0
  150.0615  143.3938  157.8891 H   0  0  0  0  0  0  0  0  0  0  0  0
  151.7089  143.9115  157.6548 H   0  0  0  0  0  0  0  0  0  0  0  0
  150.7832  141.8785  159.7502 H   0  0  0  0  0  0  0  0  0  0  0  0
  150.9659  139.5539  157.5195 H   0  0  0  0  0  0  0  0  0  0  0  0
  149.8584  140.7004  158.2469 H   0  0  0  0  0  0  0  0  0  0  0  0
  149.3215  141.5536  156.2032 H   0  0  0  0  0  0  0  0  0  0  0  0
  150.9959  141.9546  155.8883 H   0  0  0  0  0  0  0  0  0  0  0  0
  149.4982  139.6116  154.9835 H   0  0  0  0  0  0  0  0  0  0  0  0
  150.5543  138.6337  152.8948 H   0  0  0  0  0  0  0  0  0  0  0  0
  152.2448  138.2165  153.1250 H   0  0  0  0  0  0  0  0  0  0  0  0
  148.9531  136.7328  153.7227 H   0  0  0  0  0  0  0  0  0  0  0  0
  1  2  1  0  0  0  0
  1 20  1  0  0  0  0
  1 21  1  0  0  0  0
  1 22  1  0  0  0  0
  2  7  1  0  0  0  0
  2  3  1  0  0  0  0
  2 23  1  0  0  0  0
  3  4  1  0  0  0  0
  3 24  1  0  0  0  0
  3 25  1  0  0  0  0
  4  5  1  0  0  0  0
  4 26  1  0  0  0  0
  4 27  1  0  0  0  0
  5  6  1  0  0  0  0
  5 28  1  0  0  0  0
  5 29  1  0  0  0  0
  6  7  1  0  0  0  0
  6 30  1  0  0  0  0
  6 31  1  0  0  0  0
  7  8  1  0  0  0  0
  7 32  1  0  0  0  0
  8  9  1  0  0  0  0
  9 10  1  0  0  0  0
  9 33  1  0  0  0  0
  9 34  1  0  0  0  0
 10 11  1  0  0  0  0
 10 35  1  0  0  0  0
 10 36  1  0  0  0  0
 11 12  1  0  0  0  0
 11 37  1  0  0  0  0
 12 13  2  0  0  0  0
 12 14  1  0  0  0  0
 14 15  1  0  0  0  0
 14 38  1  0  0  0  0
 14 39  1  0  0  0  0
 15 19  1  0  0  0  0
 15 16  1  0  0  0  0
 16 17  2  0  0  0  0
 16 40  1  0  0  0  0
 17 18  1  0  0  0  0
 18 19  2  0  0  0  0
M  END
> <s_m_source_file>
AV-unprocessed.smi

> <i_m_source_file_index>
1574

> <i_lp_mmshare_version>
43012

> <i_f3d_flags>
0

> <s_epik_input>
W0NIM11bQ0BASF0xW0NIMl1bQ0gyXVtDSDJdW0NIMl1bQ0BIXTFPW0NIMl1bQ0gyXVtOSF1DKD1PKVtDSDJdbjJbY0hdbm5uMg==

> <s_epik_cmdline>
J2VwaWtfcHl0aG9uJywgJy1waCcsICc3LjAnLCAnLXRuJywgJzgnLCAnLW1hJywgJzIwMCcsICctbWV0YWxfYmluZGluZycsICctaW1hZScsICc8aW5maWxlLm1hZT4nLCAnLW9tYWUnLCAnPG91dGZpbGUubWFlPic=

> <r_lp_tautomer_probability>
1

> <r_epik_Ionization_Penalty>
1.44269e-06

> <r_epik_Ionization_Penalty_Charging>
0

> <r_epik_Ionization_Penalty_Neutral>
1.44269e-06

> <r_epik_State_Penalty>
-0

> <r_epik_Charging_Adjusted_Penalty>
0

> <i_epik_Tot_Q>
0

> <i_epik_Tot_abs_Q>
0

> <r_epik_Metal_State_Penalty>
-0

> <b_epik_Metal_Only>
0

> <s_lp_Force_Field>
OPLS_2005

> <r_lp_Energy>
11.219

> <b_lp_Chiralities_Consistent>
1

> <s_lp_Variant>
AV-unprocessed.smi:1574-1

> <Gold.Version>
5.8.1

> <Gold.Id.Protein>
6NUR|6NUR_protein|mol2

> <Gold.PLP.Fitness>
47.0036

> <Gold.PLP.PLP>
-40.2438

> <Gold.PLP.part.hbond>
-3.0000

> <Gold.PLP.part.metal>
0.0000

> <Gold.PLP.part.buried>
-4.7833

> <Gold.PLP.part.nonpolar>
-32.5097

> <Gold.PLP.part.repulsive>
0.1586

> <Gold.PLP.ligand.clash>
0.0000

> <Gold.PLP.ligand.torsion>
1.1401

> <Gold.PLP.Chemscore.Hbond>
2.0000

> <Gold.PLP.Chemscore.CHOScore>
1.0000

> <Gold.PLP.Chemscore.Metal>
0.0000

> <Gold.Chemscore.Hbonds>
donor molecule, donor type, donor heavy atom, donor atom, acceptor molecule, acceptor atom, score
      P1  H  7997  8010       L1    13  0.62
      P1  H 10752 10763       L1    19  0.19
      L1  C    16    40       P1  7948  0.57

> <Gold.PLP.Chemscore.Internal.Correction>
0.0400

> <Gold.Rescore>
     Score         DG    S(hbond)    S(metal)    S(lipo)     H(rot)  DE(clash)    DE(int)     intcor
     14.45     -16.01       1.92        0.00      98.84       2.90       0.03       1.53       ----

> <Gold.Chemscore.Fitness>
14.4508

> <Gold.Chemscore.DG>
-16.0111

> <Gold.Chemscore.ZeroCoef>
-5.4800

> <Gold.Chemscore.Hbond>
1.9173

> <Gold.Chemscore.Metal>
0.0000

> <Gold.Chemscore.Lipo>
98.8377

> <Gold.Chemscore.Internal_Hbond>
0.0000

> <Gold.Chemscore.DEClash>
0.0348

> <Gold.Chemscore.DEInternal>
1.5256

> <Gold.Chemscore.Rot>
2.9050

> <Gold.Chemscore.Internal.Correction>
   9.000000E+99

> <Gold.Chemscore.Hbonds>
donor molecule, donor type, donor heavy atom, donor atom, acceptor molecule, acceptor atom, score
      P1  H  7997  8010       L1    13  0.63

> <Gold.Chemscore.Hbond.Weighted>
-6.4038

> <Gold.Chemscore.Metal.Weighted>
-0.0000

> <Gold.Chemscore.Lipo.Weighted>
-11.5640

> <Gold.Chemscore.Internal_Hbond.Weighted>
0.0000

> <Gold.Chemscore.DEClash.Weighted>
0.0348

> <Gold.Chemscore.DEInternal.Weighted>
1.5256

> <Gold.Chemscore.Rot.Weighted>
7.4367

> <Gold.Chemscore.Internal.Correction.Weighted>
   9.000000E+99

> <Gold.Protein.RotatedTorsions>
[ 6907 6896 6895 6894 ] final  170.32 input  -60.11 | X-H torsion
[ 7974 7965 7964 7962 ] final   71.73 input  175.53 | X-H torsion
[ 8008 7997 7996 7995 ] final  107.24 input   59.86 | X-H torsion
[ 10167 10162 10161 10158 ] final  134.21 input  -65.29 | X-H torsion
[ 10718 10713 10712 10709 ] final   26.94 input   66.30 | X-H torsion
[ 10763 10752 10751 10750 ] final  100.22 input  -60.55 | X-H torsion
[ 11005 11000 10999 10996 ] final  -84.48 input  -57.11 | X-H torsion

> <Gold.Protein.ActiveResidues>
 VAL166  LYS551  ARG553  GLY616  TRP617  ASP618  TYR619  PRO620  LYS621  CYS622 
 ASP623  PHE694  ASN695  SER759  ASP760  ASP761  ALA762  ILE779  LEU786  VAL792 
 PHE793  MET794  SER795  GLU796  ALA797  LYS798  CYS799  TRP800  GLU811  SER814 

> <Gold.Protein.RotatedAtoms>
  151.8179  133.3390  159.3574 H   0  0  0  0  0  0  0  0  0  0  0  0  # atno 6907 bound_to 6896
  150.7304  134.5602  159.5848 H   0  0  0  0  0  0  0  0  0  0  0  0  # atno 6908 bound_to 6896
  152.3027  134.7592  160.0405 H   0  0  0  0  0  0  0  0  0  0  0  0  # atno 6909 bound_to 6896
  145.7622  139.2805  143.1370 H   0  0  0  0  0  0  0  0  0  0  0  0  # atno 7974 bound_to 7965
  156.1808  140.3098  155.9145 H   0  0  0  0  0  0  0  0  0  0  0  0  # atno 8008 bound_to 7997
  155.3388  140.0464  157.3061 H   0  0  0  0  0  0  0  0  0  0  0  0  # atno 8009 bound_to 7997
  154.5341  140.2240  155.8764 H   0  0  0  0  0  0  0  0  0  0  0  0  # atno 8010 bound_to 7997
  139.5265  144.6579  151.5106 H   0  0  0  0  0  0  0  0  0  0  0  0  # atno 10167 bound_to 10162
  157.2135  130.6945  149.6239 H   0  0  0  0  0  0  0  0  0  0  0  0  # atno 10718 bound_to 10713
  153.3112  135.4086  155.1337 H   0  0  0  0  0  0  0  0  0  0  0  0  # atno 10763 bound_to 10752
  154.8576  135.3565  154.5721 H   0  0  0  0  0  0  0  0  0  0  0  0  # atno 10764 bound_to 10752
  153.6150  135.7066  153.5391 H   0  0  0  0  0  0  0  0  0  0  0  0  # atno 10765 bound_to 10752
  141.1650  133.7348  156.8875 H   0  0  0  0  0  0  0  0  0  0  0  0  # atno 11005 bound_to 11000
  146.0253  140.8309  142.9903 LP  0  0  0  0  0  0  0  0  0  0  0  0  # atno 17320 bound_to 7965
  144.6828  140.2689  143.7308 LP  0  0  0  0  0  0  0  0  0  0  0  0  # atno 17321 bound_to 7965
  140.6413  143.8884  150.6694 LP  0  0  0  0  0  0  0  0  0  0  0  0  # atno 17342 bound_to 10162
  140.2219  143.3802  152.1636 LP  0  0  0  0  0  0  0  0  0  0  0  0  # atno 17343 bound_to 10162
  155.9688  130.4543  150.5845 LP  0  0  0  0  0  0  0  0  0  0  0  0  # atno 17370 bound_to 10713
  157.3648  131.0756  151.1607 LP  0  0  0  0  0  0  0  0  0  0  0  0  # atno 17371 bound_to 10713
  140.1672  134.9125  157.2788 LP  0  0  0  0  0  0  0  0  0  0  0  0  # atno 17394 bound_to 11000
  140.2543  134.3646  155.7430 LP  0  0  0  0  0  0  0  0  0  0  0  0  # atno 17395 bound_to 11000

$$$$
