AV-unprocessed.smi:791|AV-procd|sdf|3748|dock8
  -GOLD-   22720 1183D 1   1.00000     0.00000
 Structure written by MMmdl.
 30 32  0  0  0  0  0  0  0  0  2 V2000
  152.0143  144.4528  160.2256 C   0  0  0  0  0  0  0  0  0  0  0  0
  150.9958  145.3117  159.4569 C   0  0  0  0  0  0  0  0  0  0  0  0
  149.8657  144.4841  158.9808 N   0  3  0  0  0  0  0  0  0  0  0  0
  150.2927  143.3696  158.1062 C   0  0  0  0  0  0  0  0  0  0  0  0
  151.3173  142.4687  158.8241 C   0  0  1  0  0  0  0  0  0  0  0  0
  151.7540  141.3220  157.9654 C   0  0  0  0  0  0  0  0  0  0  0  0
  152.6167  140.4175  158.4131 N   0  0  0  0  0  0  0  0  0  0  0  0
  152.7421  139.5274  157.3370 O   0  0  0  0  0  0  0  0  0  0  0  0
  151.9449  140.0169  156.3581 C   0  0  0  0  0  0  0  0  0  0  0  0
  151.8369  139.2652  155.0754 C   0  0  0  0  0  0  0  0  0  0  0  0
  150.4860  138.8840  154.5154 C   0  0  0  0  0  0  0  0  0  0  0  0
  151.4027  137.8172  155.0584 C   0  0  0  0  0  0  0  0  0  0  0  0
  151.2832  141.1185  156.7032 N   0  0  0  0  0  0  0  0  0  0  0  0
  152.5099  143.2824  159.3625 C   0  0  0  0  0  0  0  0  0  0  0  0
  151.5551  144.0677  161.1371 H   0  0  0  0  0  0  0  0  0  0  0  0
  152.8586  145.0670  160.5405 H   0  0  0  0  0  0  0  0  0  0  0  0
  150.6109  146.1057  160.0970 H   0  0  0  0  0  0  0  0  0  0  0  0
  151.4729  145.7940  158.6027 H   0  0  0  0  0  0  0  0  0  0  0  0
  149.3905  144.0978  159.7842 H   0  0  0  0  0  0  0  0  0  0  0  0
  149.4145  142.7917  157.8166 H   0  0  0  0  0  0  0  0  0  0  0  0
  150.7193  143.7822  157.1907 H   0  0  0  0  0  0  0  0  0  0  0  0
  150.8098  142.0443  159.6929 H   0  0  0  0  0  0  0  0  0  0  0  0
  152.6102  139.5777  154.3764 H   0  0  0  0  0  0  0  0  0  0  0  0
  149.6056  139.1366  155.1031 H   0  0  0  0  0  0  0  0  0  0  0  0
  150.3569  138.9335  153.4362 H   0  0  0  0  0  0  0  0  0  0  0  0
  151.8857  137.1567  154.3414 H   0  0  0  0  0  0  0  0  0  0  0  0
  151.1294  137.3576  156.0063 H   0  0  0  0  0  0  0  0  0  0  0  0
  153.1019  143.6718  158.5329 H   0  0  0  0  0  0  0  0  0  0  0  0
  153.1737  142.6429  159.9456 H   0  0  0  0  0  0  0  0  0  0  0  0
  149.2198  145.0707  158.4721 H   0  0  0  0  0  0  0  0  0  0  0  0
  1 14  1  0  0  0  0
  1  2  1  0  0  0  0
  1 15  1  0  0  0  0
  1 16  1  0  0  0  0
  2  3  1  0  0  0  0
  2 17  1  0  0  0  0
  2 18  1  0  0  0  0
  3  4  1  0  0  0  0
  3 19  1  0  0  0  0
  3 30  1  0  0  0  0
  4  5  1  0  0  0  0
  4 20  1  0  0  0  0
  4 21  1  0  0  0  0
  5  6  1  0  0  0  0
  5 14  1  0  0  0  0
  5 22  1  0  0  0  0
  6 13  1  0  0  0  0
  6  7  2  0  0  0  0
  7  8  1  0  0  0  0
  8  9  1  0  0  0  0
  9 10  1  0  0  0  0
  9 13  2  0  0  0  0
 10 12  1  0  0  0  0
 10 11  1  0  0  0  0
 10 23  1  0  0  0  0
 11 12  1  0  0  0  0
 11 24  1  0  0  0  0
 11 25  1  0  0  0  0
 12 26  1  0  0  0  0
 12 27  1  0  0  0  0
 14 28  1  0  0  0  0
 14 29  1  0  0  0  0
M  CHG  1   3   1
M  END
> <s_m_source_file>
AV-unprocessed.smi

> <i_m_source_file_index>
791

> <i_lp_mmshare_version>
43012

> <i_f3d_flags>
0

> <s_epik_input>
W0NIMl0xW0NIMl1bQ0gyXVtOSF1bQ0gyXVtDQEhdMWMybm9jKG4yKVtDSF0zW0NIMl1bQ0gyXTM=

> <s_epik_cmdline>
J2VwaWtfcHl0aG9uJywgJy1waCcsICc3LjAnLCAnLXRuJywgJzgnLCAnLW1hJywgJzIwMCcsICctbWV0YWxfYmluZGluZycsICctaW1hZScsICc8aW5maWxlLm1hZT4nLCAnLW9tYWUnLCAnPG91dGZpbGUubWFlPic=

> <r_lp_tautomer_probability>
1

> <r_epik_Ionization_Penalty>
0.000532935

> <r_epik_Ionization_Penalty_Charging>
0.000532935

> <r_epik_Ionization_Penalty_Neutral>
2.72852e-13

> <r_epik_State_Penalty>
0.000332992

> <r_epik_Charging_Adjusted_Penalty>
0.000865928

> <i_epik_Tot_Q>
1

> <i_epik_Tot_abs_Q>
1

> <r_epik_Metal_State_Penalty>
-0

> <b_epik_Metal_Only>
0

> <s_lp_Force_Field>
OPLS_2005

> <r_lp_Energy>
11.8714

> <b_lp_Chiralities_Consistent>
1

> <s_lp_Variant>
AV-unprocessed.smi:791-1

> <Gold.Version>
5.8.1

> <Gold.Id.Protein>
6NUR|6NUR_protein|mol2

> <Gold.PLP.Fitness>
38.8161

> <Gold.PLP.PLP>
-29.8888

> <Gold.PLP.part.hbond>
-2.0000

> <Gold.PLP.part.metal>
0.0000

> <Gold.PLP.part.buried>
-2.4641

> <Gold.PLP.part.nonpolar>
-25.5459

> <Gold.PLP.part.repulsive>
0.1777

> <Gold.PLP.ligand.clash>
0.0000

> <Gold.PLP.ligand.torsion>
0.1248

> <Gold.PLP.Chemscore.Hbond>
3.0000

> <Gold.PLP.Chemscore.CHOScore>
0.0000

> <Gold.PLP.Chemscore.Metal>
0.0000

> <Gold.Chemscore.Hbonds>
donor molecule, donor type, donor heavy atom, donor atom, acceptor molecule, acceptor atom, score
      L1  H     3    30       P1  8029  2.00
      P1  H  7997  8010       L1     8  0.80

> <Gold.PLP.Chemscore.Internal.Correction>
0.1769

> <Gold.Rescore>
     Score         DG    S(hbond)    S(metal)    S(lipo)     H(rot)  DE(clash)    DE(int)     intcor
     14.06     -14.47       1.11        0.00      72.11       1.23       0.03       0.37       ----

> <Gold.Chemscore.Fitness>
14.0642

> <Gold.Chemscore.DG>
-14.4671

> <Gold.Chemscore.ZeroCoef>
-5.4800

> <Gold.Chemscore.Hbond>
1.1084

> <Gold.Chemscore.Metal>
0.0000

> <Gold.Chemscore.Lipo>
72.1115

> <Gold.Chemscore.Internal_Hbond>
0.0000

> <Gold.Chemscore.DEClash>
0.0348

> <Gold.Chemscore.DEInternal>
0.3681

> <Gold.Chemscore.Rot>
1.2312

> <Gold.Chemscore.Internal.Correction>
   9.000000E+99

> <Gold.Chemscore.Hbonds>
donor molecule, donor type, donor heavy atom, donor atom, acceptor molecule, acceptor atom, score
      L1  H     3    30       P1  8029  0.80
      P1  H  7997  8010       L1     8  0.05

> <Gold.Chemscore.Hbond.Weighted>
-3.7019

> <Gold.Chemscore.Metal.Weighted>
-0.0000

> <Gold.Chemscore.Lipo.Weighted>
-8.4371

> <Gold.Chemscore.Internal_Hbond.Weighted>
0.0000

> <Gold.Chemscore.DEClash.Weighted>
0.0348

> <Gold.Chemscore.DEInternal.Weighted>
0.3681

> <Gold.Chemscore.Rot.Weighted>
3.1518

> <Gold.Chemscore.Internal.Correction.Weighted>
   9.000000E+99

> <Gold.Protein.RotatedTorsions>
[ 6907 6896 6895 6894 ] final  112.82 input  -60.11 | X-H torsion
[ 7974 7965 7964 7962 ] final -123.76 input  175.53 | X-H torsion
[ 8008 7997 7996 7995 ] final   46.46 input   59.86 | X-H torsion
[ 10167 10162 10161 10158 ] final -114.00 input  -65.29 | X-H torsion
[ 10718 10713 10712 10709 ] final  -76.25 input   66.30 | X-H torsion
[ 10763 10752 10751 10750 ] final  -44.90 input  -60.55 | X-H torsion
[ 11005 11000 10999 10996 ] final   99.69 input  -57.11 | X-H torsion

> <Gold.Protein.ActiveResidues>
 VAL166  LYS551  ARG553  GLY616  TRP617  ASP618  TYR619  PRO620  LYS621  CYS622 
 ASP623  PHE694  ASN695  SER759  ASP760  ASP761  ALA762  ILE779  LEU786  VAL792 
 PHE793  MET794  SER795  GLU796  ALA797  LYS798  CYS799  TRP800  GLU811  SER814 

> <Gold.Protein.RotatedAtoms>
  152.4895  133.8462  159.7177 H   0  0  0  0  0  0  0  0  0  0  0  0  # atno 6907 bound_to 6896
  150.9011  133.7107  159.2885 H   0  0  0  0  0  0  0  0  0  0  0  0  # atno 6908 bound_to 6896
  151.4548  135.1037  159.9760 H   0  0  0  0  0  0  0  0  0  0  0  0  # atno 6909 bound_to 6896
  145.0153  140.7941  143.4414 H   0  0  0  0  0  0  0  0  0  0  0  0  # atno 7974 bound_to 7965
  155.3528  140.3414  155.4239 H   0  0  0  0  0  0  0  0  0  0  0  0  # atno 8008 bound_to 7997
  156.1755  140.1646  156.8405 H   0  0  0  0  0  0  0  0  0  0  0  0  # atno 8009 bound_to 7997
  154.5277  140.0752  156.8272 H   0  0  0  0  0  0  0  0  0  0  0  0  # atno 8010 bound_to 7997
  140.1058  143.4572  152.1784 H   0  0  0  0  0  0  0  0  0  0  0  0  # atno 10167 bound_to 10162
  156.0181  130.4461  150.3165 H   0  0  0  0  0  0  0  0  0  0  0  0  # atno 10718 bound_to 10713
  154.0197  135.6671  153.4771 H   0  0  0  0  0  0  0  0  0  0  0  0  # atno 10763 bound_to 10752
  153.0585  135.5041  154.8035 H   0  0  0  0  0  0  0  0  0  0  0  0  # atno 10764 bound_to 10752
  154.6945  135.3067  154.9396 H   0  0  0  0  0  0  0  0  0  0  0  0  # atno 10765 bound_to 10752
  139.8770  134.9107  156.4643 H   0  0  0  0  0  0  0  0  0  0  0  0  # atno 11005 bound_to 11000
  145.1968  139.2272  143.5214 LP  0  0  0  0  0  0  0  0  0  0  0  0  # atno 17320 bound_to 7965
  146.3477  140.1777  142.8589 LP  0  0  0  0  0  0  0  0  0  0  0  0  # atno 17321 bound_to 7965
  139.5646  144.7427  151.4058 LP  0  0  0  0  0  0  0  0  0  0  0  0  # atno 17342 bound_to 10162
  140.6953  143.7764  150.7317 LP  0  0  0  0  0  0  0  0  0  0  0  0  # atno 17343 bound_to 10162
  157.1266  131.0261  151.2987 LP  0  0  0  0  0  0  0  0  0  0  0  0  # atno 17370 bound_to 10713
  157.4585  130.7639  149.7214 LP  0  0  0  0  0  0  0  0  0  0  0  0  # atno 17371 bound_to 10713
  140.8841  133.7896  155.9499 LP  0  0  0  0  0  0  0  0  0  0  0  0  # atno 17394 bound_to 11000
  140.8823  134.2596  157.5138 LP  0  0  0  0  0  0  0  0  0  0  0  0  # atno 17395 bound_to 11000

$$$$
