AV-unprocessed.smi:2895|AV-procd|sdf|11128|dock7
  -GOLD-   2272016 03D 1   1.00000     0.00000
 Structure written by MMmdl.
 53 56  0  0  0  0  0  0  0  0  2 V2000
  148.8496  141.5043  153.8754 O   0  0  0  0  0  0  0  0  0  0  0  0
  148.7953  140.6193  154.7302 C   0  0  0  0  0  0  0  0  0  0  0  0
  149.6025  140.6168  155.8048 N   0  0  0  0  0  0  0  0  0  0  0  0
  150.6250  141.6160  156.0937 C   0  0  0  0  0  0  0  0  0  0  0  0
  151.3487  141.3249  157.4190 C   0  0  0  0  0  0  0  0  0  0  0  0
  151.4868  142.5655  158.2798 C   0  0  0  0  0  0  0  0  0  0  0  0
  152.1237  142.5012  159.5363 C   0  0  0  0  0  0  0  0  0  0  0  0
  152.2286  143.6827  160.2973 C   0  0  0  0  0  0  0  0  0  0  0  0
  151.7493  144.8760  159.8843 N   0  0  0  0  0  0  0  0  0  0  0  0
  151.1409  144.9293  158.6799 C   0  0  0  0  0  0  0  0  0  0  0  0
  150.9850  143.8079  157.8408 C   0  0  0  0  0  0  0  0  0  0  0  0
  147.9030  139.5970  154.6841 N   0  0  0  0  0  0  0  0  0  0  0  0
  147.9727  138.3433  155.4522 C   0  0  0  0  0  0  0  0  0  0  0  0
  148.2653  137.1697  154.4930 C   0  0  0  0  0  0  0  0  0  0  0  0
  147.2783  137.0900  153.3772 N   0  3  0  0  0  0  0  0  0  0  0  0
  145.9846  136.4543  153.7725 C   0  0  2  0  0  0  0  0  0  0  0  0
  146.1234  134.9916  154.2629 C   0  0  0  0  0  0  0  0  0  0  0  0
  145.0560  134.2415  153.4435 C   0  0  2  0  0  0  0  0  0  0  0  0
  145.5697  134.0662  152.0043 C   0  0  0  0  0  0  0  0  0  0  0  0
  145.4984  135.4994  151.4481 C   0  0  0  0  0  0  0  0  0  0  0  0
  144.9373  136.3067  152.6390 C   0  0  1  0  0  0  0  0  0  0  0  0
  143.9755  135.3000  153.2612 C   0  0  0  0  0  0  0  0  0  0  0  0
  147.1353  138.4036  152.6862 C   0  0  0  0  0  0  0  0  0  0  0  0
  146.8367  139.5446  153.6775 C   0  0  0  0  0  0  0  0  0  0  0  0
  149.4935  139.8717  156.4773 H   0  0  0  0  0  0  0  0  0  0  0  0
  151.3383  141.6681  155.2692 H   0  0  0  0  0  0  0  0  0  0  0  0
  150.1378  142.5901  156.1446 H   0  0  0  0  0  0  0  0  0  0  0  0
  150.8104  140.5582  157.9781 H   0  0  0  0  0  0  0  0  0  0  0  0
  152.3449  140.9235  157.2286 H   0  0  0  0  0  0  0  0  0  0  0  0
  152.5247  141.5702  159.9097 H   0  0  0  0  0  0  0  0  0  0  0  0
  152.7110  143.6685  161.2635 H   0  0  0  0  0  0  0  0  0  0  0  0
  150.7667  145.8953  158.3748 H   0  0  0  0  0  0  0  0  0  0  0  0
  150.4913  143.9038  156.8847 H   0  0  0  0  0  0  0  0  0  0  0  0
  148.7214  138.3488  156.2437 H   0  0  0  0  0  0  0  0  0  0  0  0
  147.0216  138.1905  155.9631 H   0  0  0  0  0  0  0  0  0  0  0  0
  149.2544  137.3094  154.0547 H   0  0  0  0  0  0  0  0  0  0  0  0
  148.3185  136.2345  155.0492 H   0  0  0  0  0  0  0  0  0  0  0  0
  145.5344  137.0483  154.5690 H   0  0  0  0  0  0  0  0  0  0  0  0
  147.1137  134.5674  154.0925 H   0  0  0  0  0  0  0  0  0  0  0  0
  145.9150  134.9278  155.3317 H   0  0  0  0  0  0  0  0  0  0  0  0
  144.7210  133.3113  153.9037 H   0  0  0  0  0  0  0  0  0  0  0  0
  146.5784  133.6533  151.9678 H   0  0  0  0  0  0  0  0  0  0  0  0
  144.9164  133.4018  151.4371 H   0  0  0  0  0  0  0  0  0  0  0  0
  146.4683  135.8611  151.1067 H   0  0  0  0  0  0  0  0  0  0  0  0
  144.8151  135.5418  150.5990 H   0  0  0  0  0  0  0  0  0  0  0  0
  144.4607  137.2440  152.3503 H   0  0  0  0  0  0  0  0  0  0  0  0
  143.1755  134.9904  152.5860 H   0  0  0  0  0  0  0  0  0  0  0  0
  143.5374  135.6393  154.2018 H   0  0  0  0  0  0  0  0  0  0  0  0
  148.0765  138.6162  152.1773 H   0  0  0  0  0  0  0  0  0  0  0  0
  146.3855  138.3704  151.8976 H   0  0  0  0  0  0  0  0  0  0  0  0
  145.8798  139.3806  154.1743 H   0  0  0  0  0  0  0  0  0  0  0  0
  146.7231  140.4822  153.1318 H   0  0  0  0  0  0  0  0  0  0  0  0
  147.6745  136.4608  152.6933 H   0  0  0  0  0  0  0  0  0  0  0  0
  1  2  2  0  0  0  0
  2  3  1  0  0  0  0
  2 12  1  0  0  0  0
  3  4  1  0  0  0  0
  3 25  1  0  0  0  0
  4  5  1  0  0  0  0
  4 26  1  0  0  0  0
  4 27  1  0  0  0  0
  5  6  1  0  0  0  0
  5 28  1  0  0  0  0
  5 29  1  0  0  0  0
  6 11  1  0  0  0  0
  6  7  2  0  0  0  0
  7  8  1  0  0  0  0
  7 30  1  0  0  0  0
  8  9  2  0  0  0  0
  8 31  1  0  0  0  0
  9 10  1  0  0  0  0
 10 11  2  0  0  0  0
 10 32  1  0  0  0  0
 11 33  1  0  0  0  0
 12 24  1  0  0  0  0
 12 13  1  0  0  0  0
 13 14  1  0  0  0  0
 13 34  1  0  0  0  0
 13 35  1  0  0  0  0
 14 15  1  0  0  0  0
 14 36  1  0  0  0  0
 14 37  1  0  0  0  0
 15 16  1  0  0  0  0
 15 23  1  0  0  0  0
 15 53  1  0  0  0  0
 16 21  1  0  0  0  0
 16 17  1  0  0  0  0
 16 38  1  0  0  0  0
 17 18  1  0  0  0  0
 17 39  1  0  0  0  0
 17 40  1  0  0  0  0
 18 22  1  0  0  0  0
 18 19  1  0  0  0  0
 18 41  1  0  0  0  0
 19 20  1  0  0  0  0
 19 42  1  0  0  0  0
 19 43  1  0  0  0  0
 20 21  1  0  0  0  0
 20 44  1  0  0  0  0
 20 45  1  0  0  0  0
 21 22  1  0  0  0  0
 21 46  1  0  0  0  0
 22 47  1  0  0  0  0
 22 48  1  0  0  0  0
 23 24  1  0  0  0  0
 23 49  1  0  0  0  0
 23 50  1  0  0  0  0
 24 51  1  0  0  0  0
 24 52  1  0  0  0  0
M  CHG  1  15   1
M  END
> <s_m_source_file>
AV-unprocessed.smi

> <i_m_source_file_index>
2895

> <i_lp_mmshare_version>
43012

> <i_f3d_flags>
0

> <s_epik_input>
W0NIMl0xW0NIMl1bQ0BASF0oW0NIMl0yKVtDQEBIXShbQ0gyXVtDQEhdMTIpTihbQ0gyXVtDSDJdMylbQ0gyXVtDSDJdTjNDKD1PKVtOSF1bQ0gyXVtDSDJdYzRbY0hdW2NIXW5bY0hdW2NIXTQ=

> <s_epik_cmdline>
J2VwaWtfcHl0aG9uJywgJy1waCcsICc3LjAnLCAnLXRuJywgJzgnLCAnLW1hJywgJzIwMCcsICctbWV0YWxfYmluZGluZycsICctaW1hZScsICc8aW5maWxlLm1hZT4nLCAnLW9tYWUnLCAnPG91dGZpbGUubWFlPic=

> <r_epik_Ionization_Penalty>
0.0566172

> <r_epik_Ionization_Penalty_Charging>
0.00262064

> <r_epik_Ionization_Penalty_Neutral>
0.0539965

> <r_epik_State_Penalty>
0.0463959

> <r_epik_Charging_Adjusted_Penalty>
0.0490165

> <i_epik_Tot_Q>
1

> <i_epik_Tot_abs_Q>
1

> <r_epik_Metal_State_Penalty>
0.0424856

> <b_epik_Metal_Only>
0

> <s_lp_Force_Field>
OPLS_2005

> <r_lp_Energy>
99.7754

> <b_lp_Chiralities_Consistent>
1

> <s_lp_Variant>
AV-unprocessed.smi:2895-1

> <Gold.Version>
5.8.1

> <Gold.Id.Protein>
6NUR|6NUR_protein|mol2

> <Gold.PLP.Fitness>
46.8718

> <Gold.PLP.PLP>
-40.1713

> <Gold.PLP.part.hbond>
-2.9268

> <Gold.PLP.part.metal>
0.0000

> <Gold.PLP.part.buried>
-2.6290

> <Gold.PLP.part.nonpolar>
-34.2271

> <Gold.PLP.part.repulsive>
0.3929

> <Gold.PLP.ligand.clash>
0.0000

> <Gold.PLP.ligand.torsion>
0.4435

> <Gold.PLP.Chemscore.Hbond>
2.4960

> <Gold.PLP.Chemscore.CHOScore>
0.0000

> <Gold.PLP.Chemscore.Metal>
0.0000

> <Gold.Chemscore.Hbonds>
donor molecule, donor type, donor heavy atom, donor atom, acceptor molecule, acceptor atom, score
      L1  H    15    53       P1  7948  1.70
      P1  H  8011  8017       L1     1  0.70

> <Gold.PLP.Chemscore.Internal.Correction>
0.0994

> <Gold.Rescore>
     Score         DG    S(hbond)    S(metal)    S(lipo)     H(rot)  DE(clash)    DE(int)     intcor
     19.65     -20.51       1.53        0.00     114.73       1.37       0.30       0.56       ----

> <Gold.Chemscore.Fitness>
19.6522

> <Gold.Chemscore.DG>
-20.5100

> <Gold.Chemscore.ZeroCoef>
-5.4800

> <Gold.Chemscore.Hbond>
1.5335

> <Gold.Chemscore.Metal>
0.0000

> <Gold.Chemscore.Lipo>
114.7274

> <Gold.Chemscore.Internal_Hbond>
0.0000

> <Gold.Chemscore.DEClash>
0.2993

> <Gold.Chemscore.DEInternal>
0.5585

> <Gold.Chemscore.Rot>
1.3731

> <Gold.Chemscore.Internal.Correction>
   9.000000E+99

> <Gold.Chemscore.Hbonds>
donor molecule, donor type, donor heavy atom, donor atom, acceptor molecule, acceptor atom, score
      L1  H    15    53       P1  7948  0.79
      P1  H  8011  8017       L1     1  0.65

> <Gold.Chemscore.Hbond.Weighted>
-5.1221

> <Gold.Chemscore.Metal.Weighted>
-0.0000

> <Gold.Chemscore.Lipo.Weighted>
-13.4231

> <Gold.Chemscore.Internal_Hbond.Weighted>
0.0000

> <Gold.Chemscore.DEClash.Weighted>
0.2993

> <Gold.Chemscore.DEInternal.Weighted>
0.5585

> <Gold.Chemscore.Rot.Weighted>
3.5152

> <Gold.Chemscore.Internal.Correction.Weighted>
   9.000000E+99

> <Gold.Protein.RotatedTorsions>
[ 6907 6896 6895 6894 ] final   27.08 input  -60.11 | X-H torsion
[ 7974 7965 7964 7962 ] final   77.67 input  175.53 | X-H torsion
[ 8008 7997 7996 7995 ] final -173.90 input   59.86 | X-H torsion
[ 10167 10162 10161 10158 ] final   20.21 input  -65.29 | X-H torsion
[ 10718 10713 10712 10709 ] final -144.78 input   66.30 | X-H torsion
[ 10763 10752 10751 10750 ] final  118.30 input  -60.55 | X-H torsion
[ 11005 11000 10999 10996 ] final   90.05 input  -57.11 | X-H torsion

> <Gold.Protein.ActiveResidues>
 VAL166  LYS551  ARG553  GLY616  TRP617  ASP618  TYR619  PRO620  LYS621  CYS622 
 ASP623  PHE694  ASN695  SER759  ASP760  ASP761  ALA762  ILE779  LEU786  VAL792 
 PHE793  MET794  SER795  GLU796  ALA797  LYS798  CYS799  TRP800  GLU811  SER814 

> <Gold.Protein.RotatedAtoms>
  151.9969  134.9949  160.0563 H   0  0  0  0  0  0  0  0  0  0  0  0  # atno 6907 bound_to 6896
  152.1556  133.4544  159.4843 H   0  0  0  0  0  0  0  0  0  0  0  0  # atno 6908 bound_to 6896
  150.6881  134.2053  159.4381 H   0  0  0  0  0  0  0  0  0  0  0  0  # atno 6909 bound_to 6896
  145.6870  139.2541  143.1781 H   0  0  0  0  0  0  0  0  0  0  0  0  # atno 7974 bound_to 7965
  155.9633  140.1149  157.0876 H   0  0  0  0  0  0  0  0  0  0  0  0  # atno 8008 bound_to 7997
  154.4137  140.1177  156.5275 H   0  0  0  0  0  0  0  0  0  0  0  0  # atno 8009 bound_to 7997
  155.6692  140.3473  155.4814 H   0  0  0  0  0  0  0  0  0  0  0  0  # atno 8010 bound_to 7997
  140.5520  143.9491  150.6584 H   0  0  0  0  0  0  0  0  0  0  0  0  # atno 10167 bound_to 10162
  156.3743  130.7804  151.1989 H   0  0  0  0  0  0  0  0  0  0  0  0  # atno 10718 bound_to 10713
  153.5656  135.3512  155.2817 H   0  0  0  0  0  0  0  0  0  0  0  0  # atno 10763 bound_to 10752
  154.8689  135.4147  154.2783 H   0  0  0  0  0  0  0  0  0  0  0  0  # atno 10764 bound_to 10752
  153.3537  135.7056  153.6837 H   0  0  0  0  0  0  0  0  0  0  0  0  # atno 10765 bound_to 10752
  139.8863  134.8590  156.3230 H   0  0  0  0  0  0  0  0  0  0  0  0  # atno 11005 bound_to 11000
  146.0915  140.7650  142.9593 LP  0  0  0  0  0  0  0  0  0  0  0  0  # atno 17320 bound_to 7965
  144.7008  140.3644  143.7157 LP  0  0  0  0  0  0  0  0  0  0  0  0  # atno 17321 bound_to 7965
  140.2920  143.3318  152.1054 LP  0  0  0  0  0  0  0  0  0  0  0  0  # atno 17342 bound_to 10162
  139.5031  144.6750  151.6151 LP  0  0  0  0  0  0  0  0  0  0  0  0  # atno 17343 bound_to 10162
  157.7487  131.0363  150.4402 LP  0  0  0  0  0  0  0  0  0  0  0  0  # atno 17370 bound_to 10713
  156.4635  130.4037  149.6562 LP  0  0  0  0  0  0  0  0  0  0  0  0  # atno 17371 bound_to 10713
  140.9774  133.7289  156.0622 LP  0  0  0  0  0  0  0  0  0  0  0  0  # atno 17394 bound_to 11000
  140.7793  134.3743  157.5491 LP  0  0  0  0  0  0  0  0  0  0  0  0  # atno 17395 bound_to 11000

$$$$
