AV-unprocessed.smi:2041|AV-procd|sdf|8292|dock6
  -GOLD-   2272010553D 1   1.00000     0.00000
 Structure written by MMmdl.
 30 31  0  0  0  0  0  0  0  0  2 V2000
  151.6468  140.6660  155.5332 O   0  0  0  0  0  0  0  0  0  0  0  0
  150.5765  140.2741  156.0044 C   0  0  0  0  0  0  0  0  0  0  0  0
  149.6818  139.4621  155.3960 N   0  5  0  0  0  0  0  0  0  0  0  0
  148.6869  139.9875  154.6629 C   0  0  0  0  0  0  0  0  0  0  0  0
  147.7312  139.2451  154.0920 N   0  0  0  0  0  0  0  0  0  0  0  0
  146.7919  139.9976  153.3845 C   0  0  0  0  0  0  0  0  0  0  0  0
  147.0339  141.3452  153.4235 C   0  0  0  0  0  0  0  0  0  0  0  0
  148.4573  141.7114  154.3560 S   0  0  0  0  0  0  0  0  0  0  0  0
  150.2080  140.6550  157.2372 N   0  0  0  0  0  0  0  0  0  0  0  0
  150.9601  141.5340  158.1355 C   0  0  2  0  0  0  0  0  0  0  0  0
  151.1470  142.8981  157.4246 C   0  0  0  0  0  0  0  0  0  0  0  0
  152.2332  143.8332  158.0027 C   0  0  0  0  0  0  0  0  0  0  0  0
  152.2507  143.9475  159.5407 C   0  0  0  0  0  0  0  0  0  0  0  0
  152.5074  142.6395  160.3337 C   0  0  0  0  0  0  0  0  0  0  0  0
  152.9987  141.5197  159.5306 N   0  0  0  0  0  0  0  0  0  0  0  0
  152.3379  140.9436  158.5116 C   0  0  0  0  0  0  0  0  0  0  0  0
  152.8242  140.0037  157.8840 O   0  0  0  0  0  0  0  0  0  0  0  0
  145.9813  139.4904  152.8827 H   0  0  0  0  0  0  0  0  0  0  0  0
  146.4657  142.1404  152.9655 H   0  0  0  0  0  0  0  0  0  0  0  0
  149.3209  140.3135  157.5764 H   0  0  0  0  0  0  0  0  0  0  0  0
  150.3686  141.6791  159.0404 H   0  0  0  0  0  0  0  0  0  0  0  0
  151.3732  142.7381  156.3691 H   0  0  0  0  0  0  0  0  0  0  0  0
  150.1901  143.4210  157.4419 H   0  0  0  0  0  0  0  0  0  0  0  0
  153.2158  143.5095  157.6568 H   0  0  0  0  0  0  0  0  0  0  0  0
  152.0985  144.8269  157.5748 H   0  0  0  0  0  0  0  0  0  0  0  0
  153.0265  144.6654  159.8092 H   0  0  0  0  0  0  0  0  0  0  0  0
  151.3155  144.3929  159.8813 H   0  0  0  0  0  0  0  0  0  0  0  0
  153.2310  142.8309  161.1265 H   0  0  0  0  0  0  0  0  0  0  0  0
  151.5957  142.3288  160.8455 H   0  0  0  0  0  0  0  0  0  0  0  0
  153.9045  141.1455  159.7732 H   0  0  0  0  0  0  0  0  0  0  0  0
  1  2  2  0  0  0  0
  2  3  1  0  0  0  0
  2  9  1  0  0  0  0
  3  4  1  0  0  0  0
  4  8  1  0  0  0  0
  4  5  2  0  0  0  0
  5  6  1  0  0  0  0
  6  7  2  0  0  0  0
  6 18  1  0  0  0  0
  7  8  1  0  0  0  0
  7 19  1  0  0  0  0
  9 10  1  0  0  0  0
  9 20  1  0  0  0  0
 10 16  1  0  0  0  0
 10 11  1  0  0  0  0
 10 21  1  0  0  0  0
 11 12  1  0  0  0  0
 11 22  1  0  0  0  0
 11 23  1  0  0  0  0
 12 13  1  0  0  0  0
 12 24  1  0  0  0  0
 12 25  1  0  0  0  0
 13 14  1  0  0  0  0
 13 26  1  0  0  0  0
 13 27  1  0  0  0  0
 14 15  1  0  0  0  0
 14 28  1  0  0  0  0
 14 29  1  0  0  0  0
 15 16  1  0  0  0  0
 15 30  1  0  0  0  0
 16 17  2  0  0  0  0
M  CHG  1   3  -1
M  END
> <s_m_source_file>
AV-unprocessed.smi

> <i_m_source_file_index>
2041

> <i_lp_mmshare_version>
43012

> <i_f3d_flags>
0

> <s_epik_input>
czFbY0hdW2NIXW5jMVtOSF1DKD1PKVtOSF1bQ0BASF0yW0NIMl1bQ0gyXVtDSDJdW0NIMl1bTkhdQzI9Tw==

> <s_epik_cmdline>
J2VwaWtfcHl0aG9uJywgJy1waCcsICc3LjAnLCAnLXRuJywgJzgnLCAnLW1hJywgJzIwMCcsICctbWV0YWxfYmluZGluZycsICctaW1hZScsICc8aW5maWxlLm1hZT4nLCAnLW9tYWUnLCAnPG91dGZpbGUubWFlPic=

> <r_lp_tautomer_probability>
1

> <r_epik_Ionization_Penalty>
7.83857

> <r_epik_Ionization_Penalty_Charging>
6.39911

> <r_epik_Ionization_Penalty_Neutral>
1.43945

> <r_epik_State_Penalty>
6.3991

> <r_epik_Charging_Adjusted_Penalty>
12.7982

> <i_epik_Tot_Q>
-1

> <i_epik_Tot_abs_Q>
1

> <r_epik_Metal_State_Penalty>
2.33024

> <b_epik_Metal_Only>
1

> <s_lp_Force_Field>
OPLS_2005

> <r_lp_Energy>
11.6521

> <b_lp_Chiralities_Consistent>
1

> <s_lp_Variant>
AV-unprocessed.smi:2041-3

> <Gold.Version>
5.8.1

> <Gold.Id.Protein>
6NUR|6NUR_protein|mol2

> <Gold.PLP.Fitness>
37.8304

> <Gold.PLP.PLP>
-31.5174

> <Gold.PLP.part.hbond>
-2.0000

> <Gold.PLP.part.metal>
0.0000

> <Gold.PLP.part.buried>
-2.7736

> <Gold.PLP.part.nonpolar>
-26.6357

> <Gold.PLP.part.repulsive>
0.3234

> <Gold.PLP.ligand.clash>
0.0000

> <Gold.PLP.ligand.torsion>
0.7532

> <Gold.PLP.Chemscore.Hbond>
1.7040

> <Gold.PLP.Chemscore.CHOScore>
0.9012

> <Gold.PLP.Chemscore.Metal>
0.0000

> <Gold.Chemscore.Hbonds>
donor molecule, donor type, donor heavy atom, donor atom, acceptor molecule, acceptor atom, score
      P1  H  7989  7998       L1     1  0.70
      P1  H  7997  8009       L1    17  1.00
      L1  C     6    18       P1 10175  0.90

> <Gold.PLP.Chemscore.Internal.Correction>
0.0037

> <Gold.Rescore>
     Score         DG    S(hbond)    S(metal)    S(lipo)     H(rot)  DE(clash)    DE(int)     intcor
     12.57     -17.08       1.59        0.00      75.60       1.00       0.05       4.46       ----

> <Gold.Chemscore.Fitness>
12.5670

> <Gold.Chemscore.DG>
-17.0799

> <Gold.Chemscore.ZeroCoef>
-5.4800

> <Gold.Chemscore.Hbond>
1.5914

> <Gold.Chemscore.Metal>
0.0000

> <Gold.Chemscore.Lipo>
75.5961

> <Gold.Chemscore.Internal_Hbond>
0.0000

> <Gold.Chemscore.DEClash>
0.0523

> <Gold.Chemscore.DEInternal>
4.4605

> <Gold.Chemscore.Rot>
1.0000

> <Gold.Chemscore.Internal.Correction>
   9.000000E+99

> <Gold.Chemscore.Hbonds>
donor molecule, donor type, donor heavy atom, donor atom, acceptor molecule, acceptor atom, score
      P1  H  7989  7998       L1     1  0.59
      P1  H  7997  8009       L1    17  0.97

> <Gold.Chemscore.Hbond.Weighted>
-5.3151

> <Gold.Chemscore.Metal.Weighted>
-0.0000

> <Gold.Chemscore.Lipo.Weighted>
-8.8447

> <Gold.Chemscore.Internal_Hbond.Weighted>
0.0000

> <Gold.Chemscore.DEClash.Weighted>
0.0523

> <Gold.Chemscore.DEInternal.Weighted>
4.4605

> <Gold.Chemscore.Rot.Weighted>
2.5600

> <Gold.Chemscore.Internal.Correction.Weighted>
   9.000000E+99

> <Gold.Protein.RotatedTorsions>
[ 6907 6896 6895 6894 ] final    7.28 input  -60.11 | X-H torsion
[ 7974 7965 7964 7962 ] final  175.91 input  175.53 | X-H torsion
[ 8008 7997 7996 7995 ] final  162.26 input   59.86 | X-H torsion
[ 10167 10162 10161 10158 ] final -133.00 input  -65.29 | X-H torsion
[ 10718 10713 10712 10709 ] final  -10.85 input   66.30 | X-H torsion
[ 10763 10752 10751 10750 ] final -156.27 input  -60.55 | X-H torsion
[ 11005 11000 10999 10996 ] final   17.13 input  -57.11 | X-H torsion

> <Gold.Protein.ActiveResidues>
 VAL166  LYS551  ARG553  GLY616  TRP617  ASP618  TYR619  PRO620  LYS621  CYS622 
 ASP623  PHE694  ASN695  SER759  ASP760  ASP761  ALA762  ILE779  LEU786  VAL792 
 PHE793  MET794  SER795  GLU796  ALA797  LYS798  CYS799  TRP800  GLU811  SER814 

> <Gold.Protein.RotatedAtoms>
  151.6874  135.0952  160.0227 H   0  0  0  0  0  0  0  0  0  0  0  0  # atno 6907 bound_to 6896
  152.3799  133.6528  159.6161 H   0  0  0  0  0  0  0  0  0  0  0  0  # atno 6908 bound_to 6896
  150.7739  133.9047  159.3393 H   0  0  0  0  0  0  0  0  0  0  0  0  # atno 6909 bound_to 6896
  144.7193  140.0017  143.6440 H   0  0  0  0  0  0  0  0  0  0  0  0  # atno 7974 bound_to 7965
  156.2044  140.1755  156.7830 H   0  0  0  0  0  0  0  0  0  0  0  0  # atno 8008 bound_to 7997
  154.5635  140.0695  156.8886 H   0  0  0  0  0  0  0  0  0  0  0  0  # atno 8009 bound_to 7997
  155.2803  140.3348  155.4261 H   0  0  0  0  0  0  0  0  0  0  0  0  # atno 8010 bound_to 7997
  139.9027  143.6588  152.2591 H   0  0  0  0  0  0  0  0  0  0  0  0  # atno 10167 bound_to 10162
  156.6676  130.5000  149.6010 H   0  0  0  0  0  0  0  0  0  0  0  0  # atno 10718 bound_to 10713
  154.7725  135.3149  154.8159 H   0  0  0  0  0  0  0  0  0  0  0  0  # atno 10763 bound_to 10752
  153.8891  135.6827  153.4766 H   0  0  0  0  0  0  0  0  0  0  0  0  # atno 10764 bound_to 10752
  153.1342  135.4767  154.9331 H   0  0  0  0  0  0  0  0  0  0  0  0  # atno 10765 bound_to 10752
  140.4394  134.1337  155.7689 H   0  0  0  0  0  0  0  0  0  0  0  0  # atno 11005 bound_to 11000
  146.0330  139.3351  143.0744 LP  0  0  0  0  0  0  0  0  0  0  0  0  # atno 17320 bound_to 7965
  145.8430  140.9570  143.0789 LP  0  0  0  0  0  0  0  0  0  0  0  0  # atno 17321 bound_to 7965
  139.7011  144.7635  151.1272 LP  0  0  0  0  0  0  0  0  0  0  0  0  # atno 17342 bound_to 10162
  140.7703  143.5457  150.9262 LP  0  0  0  0  0  0  0  0  0  0  0  0  # atno 17343 bound_to 10162
  156.1963  130.6592  151.1118 LP  0  0  0  0  0  0  0  0  0  0  0  0  # atno 17370 bound_to 10713
  157.7088  131.0744  150.6573 LP  0  0  0  0  0  0  0  0  0  0  0  0  # atno 17371 bound_to 10713
  141.1712  133.8605  157.1565 LP  0  0  0  0  0  0  0  0  0  0  0  0  # atno 17394 bound_to 11000
  140.0080  135.0000  157.0334 LP  0  0  0  0  0  0  0  0  0  0  0  0  # atno 17395 bound_to 11000

$$$$
