AV-unprocessed.smi:1632|AV-procd|sdf|6530|dock8
  -GOLD-   22720 7213D 1   1.00000     0.00000
 Structure written by MMmdl.
 43 45  0  0  0  0  0  0  0  0  2 V2000
  149.8684  138.4779  153.4606 O   0  0  0  0  0  0  0  0  0  0  0  0
  150.7097  137.8946  154.4307 C   0  0  0  0  0  0  0  0  0  0  0  0
  149.9135  137.6412  155.7205 C   0  0  0  0  0  0  0  0  0  0  0  0
  148.5025  137.0807  155.4771 C   0  0  0  0  0  0  0  0  0  0  0  0
  148.5020  135.5946  155.3039 C   0  0  0  0  0  0  0  0  0  0  0  0
  148.9111  134.9255  154.1893 N   0  3  0  0  0  0  0  0  0  0  0  0
  148.7575  133.5519  154.3787 C   0  0  0  0  0  0  0  0  0  0  0  0
  149.0368  132.4802  153.5363 C   0  0  0  0  0  0  0  0  0  0  0  0
  148.7637  131.1917  154.0400 C   0  0  0  0  0  0  0  0  0  0  0  0
  148.2358  131.0062  155.3342 C   0  0  0  0  0  0  0  0  0  0  0  0
  147.9567  132.1007  156.1787 C   0  0  0  0  0  0  0  0  0  0  0  0
  148.2269  133.3722  155.6724 C   0  0  0  0  0  0  0  0  0  0  0  0
  148.0829  134.6595  156.2051 N   0  0  0  0  0  0  0  0  0  0  0  0
  147.5406  134.8255  157.5636 C   0  0  0  0  0  0  0  0  0  0  0  0
  148.6060  135.2748  158.5844 C   0  0  2  0  0  0  0  0  0  0  0  0
  149.8575  134.6872  158.2865 O   0  0  0  0  0  0  0  0  0  0  0  0
  148.1630  134.9962  160.0138 C   0  0  0  0  0  0  0  0  0  0  0  0
  147.9996  136.0715  160.9142 C   0  0  0  0  0  0  0  0  0  0  0  0
  147.5844  135.8353  162.2389 C   0  0  0  0  0  0  0  0  0  0  0  0
  147.3278  134.5212  162.6727 C   0  0  0  0  0  0  0  0  0  0  0  0
  147.4853  133.4440  161.7803 C   0  0  0  0  0  0  0  0  0  0  0  0
  147.9001  133.6774  160.4544 C   0  0  0  0  0  0  0  0  0  0  0  0
  148.0398  132.6279  159.6089 F   0  0  0  0  0  0  0  0  0  0  0  0
  149.6061  137.8087  152.8468 H   0  0  0  0  0  0  0  0  0  0  0  0
  151.1118  136.9613  154.0364 H   0  0  0  0  0  0  0  0  0  0  0  0
  151.5505  138.5647  154.6111 H   0  0  0  0  0  0  0  0  0  0  0  0
  150.4690  136.9601  156.3664 H   0  0  0  0  0  0  0  0  0  0  0  0
  149.8252  138.5781  156.2721 H   0  0  0  0  0  0  0  0  0  0  0  0
  147.8597  137.3293  156.3219 H   0  0  0  0  0  0  0  0  0  0  0  0
  148.0544  137.5545  154.6036 H   0  0  0  0  0  0  0  0  0  0  0  0
  149.4435  132.6200  152.5453 H   0  0  0  0  0  0  0  0  0  0  0  0
  148.9647  130.3282  153.4224 H   0  0  0  0  0  0  0  0  0  0  0  0
  148.0420  130.0039  155.6879 H   0  0  0  0  0  0  0  0  0  0  0  0
  147.5592  131.9453  157.1710 H   0  0  0  0  0  0  0  0  0  0  0  0
  146.7475  135.5713  157.5068 H   0  0  0  0  0  0  0  0  0  0  0  0
  147.0541  133.9001  157.8708 H   0  0  0  0  0  0  0  0  0  0  0  0
  148.7470  136.3510  158.4772 H   0  0  0  0  0  0  0  0  0  0  0  0
  149.7087  133.9161  157.7603 H   0  0  0  0  0  0  0  0  0  0  0  0
  148.1912  137.0849  160.5930 H   0  0  0  0  0  0  0  0  0  0  0  0
  147.4624  136.6630  162.9221 H   0  0  0  0  0  0  0  0  0  0  0  0
  147.0092  134.3398  163.6886 H   0  0  0  0  0  0  0  0  0  0  0  0
  147.2861  132.4359  162.1130 H   0  0  0  0  0  0  0  0  0  0  0  0
  149.2686  135.3794  153.3587 H   0  0  0  0  0  0  0  0  0  0  0  0
  1  2  1  0  0  0  0
  1 24  1  0  0  0  0
  2  3  1  0  0  0  0
  2 25  1  0  0  0  0
  2 26  1  0  0  0  0
  3  4  1  0  0  0  0
  3 27  1  0  0  0  0
  3 28  1  0  0  0  0
  4  5  1  0  0  0  0
  4 29  1  0  0  0  0
  4 30  1  0  0  0  0
  5 13  1  0  0  0  0
  5  6  2  0  0  0  0
  6  7  1  0  0  0  0
  6 43  1  0  0  0  0
  7 12  2  0  0  0  0
  7  8  1  0  0  0  0
  8  9  2  0  0  0  0
  8 31  1  0  0  0  0
  9 10  1  0  0  0  0
  9 32  1  0  0  0  0
 10 11  2  0  0  0  0
 10 33  1  0  0  0  0
 11 12  1  0  0  0  0
 11 34  1  0  0  0  0
 12 13  1  0  0  0  0
 13 14  1  0  0  0  0
 14 15  1  0  0  0  0
 14 35  1  0  0  0  0
 14 36  1  0  0  0  0
 15 16  1  0  0  0  0
 15 17  1  0  0  0  0
 15 37  1  0  0  0  0
 16 38  1  0  0  0  0
 17 22  1  0  0  0  0
 17 18  2  0  0  0  0
 18 19  1  0  0  0  0
 18 39  1  0  0  0  0
 19 20  2  0  0  0  0
 19 40  1  0  0  0  0
 20 21  1  0  0  0  0
 20 41  1  0  0  0  0
 21 22  2  0  0  0  0
 21 42  1  0  0  0  0
 22 23  1  0  0  0  0
M  CHG  1   6   1
M  END
> <s_m_source_file>
AV-unprocessed.smi

> <i_m_source_file_index>
1632

> <i_lp_mmshare_version>
43012

> <i_f3d_flags>
0

> <s_epik_input>
W09IXVtDSDJdW0NIMl1bQ0gyXWMobjEpbihjKGMxMilbY0hdW2NIXVtjSF1bY0hdMilbQ0gyXVtDQEhdKFtPSF0pYzNbY0hdW2NIXVtjSF1bY0hdYzNG

> <s_epik_cmdline>
J2VwaWtfcHl0aG9uJywgJy1waCcsICc3LjAnLCAnLXRuJywgJzgnLCAnLW1hJywgJzIwMCcsICctbWV0YWxfYmluZGluZycsICctaW1hZScsICc8aW5maWxlLm1hZT4nLCAnLW9tYWUnLCAnPG91dGZpbGUubWFlPic=

> <r_epik_Ionization_Penalty>
0.786441

> <r_epik_Ionization_Penalty_Charging>
0.786439

> <r_epik_Ionization_Penalty_Neutral>
1.50852e-06

> <r_epik_State_Penalty>
0.816472

> <r_epik_Charging_Adjusted_Penalty>
1.60291

> <i_epik_Tot_Q>
1

> <i_epik_Tot_abs_Q>
1

> <r_epik_Metal_State_Penalty>
4.73733

> <b_epik_Metal_Only>
0

> <s_lp_Force_Field>
OPLS_2005

> <r_lp_Energy>
17.2969

> <b_lp_Chiralities_Consistent>
1

> <s_lp_Variant>
AV-unprocessed.smi:1632-3

> <Gold.Version>
5.8.1

> <Gold.Id.Protein>
6NUR|6NUR_protein|mol2

> <Gold.PLP.Fitness>
46.3810

> <Gold.PLP.PLP>
-35.7941

> <Gold.PLP.part.hbond>
-3.8189

> <Gold.PLP.part.metal>
0.0000

> <Gold.PLP.part.buried>
-4.7870

> <Gold.PLP.part.nonpolar>
-27.8848

> <Gold.PLP.part.repulsive>
0.0000

> <Gold.PLP.ligand.clash>
0.0000

> <Gold.PLP.ligand.torsion>
0.7428

> <Gold.PLP.Chemscore.Hbond>
4.0000

> <Gold.PLP.Chemscore.CHOScore>
0.0000

> <Gold.PLP.Chemscore.Metal>
0.0000

> <Gold.Chemscore.Hbonds>
donor molecule, donor type, donor heavy atom, donor atom, acceptor molecule, acceptor atom, score
      L1  H     1    24       P1  7948  1.00
      L1  H     6    43       P1  7948  1.90
      P1  H  6896  6908       L1    16  0.75

> <Gold.PLP.Chemscore.Internal.Correction>
0.0725

> <Gold.Rescore>
     Score         DG    S(hbond)    S(metal)    S(lipo)     H(rot)  DE(clash)    DE(int)     intcor
     14.11     -16.03       2.87        0.00      77.45       3.16       0.00       1.92       ----

> <Gold.Chemscore.Fitness>
14.1111

> <Gold.Chemscore.DG>
-16.0339

> <Gold.Chemscore.ZeroCoef>
-5.4800

> <Gold.Chemscore.Hbond>
2.8692

> <Gold.Chemscore.Metal>
0.0000

> <Gold.Chemscore.Lipo>
77.4468

> <Gold.Chemscore.Internal_Hbond>
0.0000

> <Gold.Chemscore.DEClash>
0.0000

> <Gold.Chemscore.DEInternal>
1.9228

> <Gold.Chemscore.Rot>
3.1604

> <Gold.Chemscore.Internal.Correction>
   9.000000E+99

> <Gold.Chemscore.Hbonds>
donor molecule, donor type, donor heavy atom, donor atom, acceptor molecule, acceptor atom, score
      L1  H     1    24       P1  7948  0.70
      L1  H     6    43       P1  7948  0.21
      P1  H  6896  6908       L1    16  0.35

> <Gold.Chemscore.Hbond.Weighted>
-9.5833

> <Gold.Chemscore.Metal.Weighted>
-0.0000

> <Gold.Chemscore.Lipo.Weighted>
-9.0613

> <Gold.Chemscore.Internal_Hbond.Weighted>
0.0000

> <Gold.Chemscore.DEClash.Weighted>
0.0000

> <Gold.Chemscore.DEInternal.Weighted>
1.9228

> <Gold.Chemscore.Rot.Weighted>
8.0907

> <Gold.Chemscore.Internal.Correction.Weighted>
   9.000000E+99

> <Gold.Protein.RotatedTorsions>
[ 6907 6896 6895 6894 ] final  147.40 input  -60.11 | X-H torsion
[ 7974 7965 7964 7962 ] final -124.09 input  175.53 | X-H torsion
[ 8008 7997 7996 7995 ] final  -68.30 input   59.86 | X-H torsion
[ 10167 10162 10161 10158 ] final   62.23 input  -65.29 | X-H torsion
[ 10718 10713 10712 10709 ] final -176.77 input   66.30 | X-H torsion
[ 10763 10752 10751 10750 ] final  -72.88 input  -60.55 | X-H torsion
[ 11005 11000 10999 10996 ] final  111.54 input  -57.11 | X-H torsion

> <Gold.Protein.ActiveResidues>
 VAL166  LYS551  ARG553  GLY616  TRP617  ASP618  TYR619  PRO620  LYS621  CYS622 
 ASP623  PHE694  ASN695  SER759  ASP760  ASP761  ALA762  ILE779  LEU786  VAL792 
 PHE793  MET794  SER795  GLU796  ALA797  LYS798  CYS799  TRP800  GLU811  SER814 

> <Gold.Protein.RotatedAtoms>
  152.1553  133.4547  159.4833 H   0  0  0  0  0  0  0  0  0  0  0  0  # atno 6907 bound_to 6896
  150.6900  134.2138  159.4379 H   0  0  0  0  0  0  0  0  0  0  0  0  # atno 6908 bound_to 6896
  152.0038  134.9914  160.0616 H   0  0  0  0  0  0  0  0  0  0  0  0  # atno 6909 bound_to 6896
  145.0117  140.7912  143.4434 H   0  0  0  0  0  0  0  0  0  0  0  0  # atno 7974 bound_to 7965
  154.4858  140.0875  156.7483 H   0  0  0  0  0  0  0  0  0  0  0  0  # atno 8008 bound_to 7997
  155.4353  140.3451  155.4266 H   0  0  0  0  0  0  0  0  0  0  0  0  # atno 8009 bound_to 7997
  156.1259  140.1487  156.9124 H   0  0  0  0  0  0  0  0  0  0  0  0  # atno 8010 bound_to 7997
  140.1462  144.4507  150.6784 H   0  0  0  0  0  0  0  0  0  0  0  0  # atno 10167 bound_to 10162
  156.8196  130.9615  151.3112 H   0  0  0  0  0  0  0  0  0  0  0  0  # atno 10718 bound_to 10713
  154.4518  135.5915  153.6196 H   0  0  0  0  0  0  0  0  0  0  0  0  # atno 10763 bound_to 10752
  152.9814  135.6022  154.3596 H   0  0  0  0  0  0  0  0  0  0  0  0  # atno 10764 bound_to 10752
  154.3458  135.2841  155.2377 H   0  0  0  0  0  0  0  0  0  0  0  0  # atno 10765 bound_to 10752
  139.8906  134.9510  156.6449 H   0  0  0  0  0  0  0  0  0  0  0  0  # atno 11005 bound_to 11000
  145.2014  139.2250  143.5191 LP  0  0  0  0  0  0  0  0  0  0  0  0  # atno 17320 bound_to 7965
  146.3471  140.1832  142.8589 LP  0  0  0  0  0  0  0  0  0  0  0  0  # atno 17321 bound_to 7965
  140.6731  143.2293  151.5576 LP  0  0  0  0  0  0  0  0  0  0  0  0  # atno 17342 bound_to 10162
  139.5448  144.2551  152.1421 LP  0  0  0  0  0  0  0  0  0  0  0  0  # atno 17343 bound_to 10162
  157.6464  130.8847  149.9546 LP  0  0  0  0  0  0  0  0  0  0  0  0  # atno 17370 bound_to 10713
  156.0996  130.3656  150.0242 LP  0  0  0  0  0  0  0  0  0  0  0  0  # atno 17371 bound_to 10713
  140.7565  133.8853  155.8386 LP  0  0  0  0  0  0  0  0  0  0  0  0  # atno 17394 bound_to 11000
  140.9957  134.1218  157.4366 LP  0  0  0  0  0  0  0  0  0  0  0  0  # atno 17395 bound_to 11000

$$$$
