AV-unprocessed.smi:2237|AV-procd|sdf|9051|dock5
  -GOLD-   2272012253D 1   1.00000     0.00000
 Structure written by MMmdl.
 54 56  0  0  0  0  0  0  0  0  2 V2000
  153.3633  142.0257  160.5331 C   0  0  0  0  0  0  0  0  0  0  0  0
  152.5151  143.0251  159.7750 C   0  0  0  0  0  0  0  0  0  0  0  0
  152.5113  144.3889  160.1284 C   0  0  0  0  0  0  0  0  0  0  0  0
  151.7033  145.2647  159.3816 C   0  0  0  0  0  0  0  0  0  0  0  0
  150.9389  144.7449  158.3193 C   0  0  0  0  0  0  0  0  0  0  0  0
  151.0000  143.3631  158.0296 C   0  0  0  0  0  0  0  0  0  0  0  0
  150.1966  142.9421  156.9372 N   0  0  0  0  0  0  0  0  0  0  0  0
  150.0549  141.7019  156.4371 C   0  0  0  0  0  0  0  0  0  0  0  0
  150.5953  140.6876  156.8794 O   0  0  0  0  0  0  0  0  0  0  0  0
  149.2323  141.6994  155.3781 N   0  0  0  0  0  0  0  0  0  0  0  0
  148.8678  140.5217  154.5962 C   0  0  0  0  0  0  0  0  0  0  0  0
  147.6188  140.8164  153.7617 C   0  0  0  0  0  0  0  0  0  0  0  0
  147.1313  139.5581  153.0233 C   0  0  0  0  0  0  0  0  0  0  0  0
  146.8091  138.4683  153.9597 N   0  0  0  0  0  0  0  0  0  0  0  0
  146.2533  137.2841  153.2645 C   0  0  2  0  0  0  0  0  0  0  0  0
  144.8333  137.5037  152.6809 C   0  0  0  0  0  0  0  0  0  0  0  0
  143.7754  137.6613  153.7881 C   0  0  0  0  0  0  0  0  0  0  0  0
  143.7579  136.4780  154.6828 N   0  3  2  0  0  0  0  0  0  0  0  0
  142.6967  136.5641  155.7087 C   0  0  0  0  0  0  0  0  0  0  0  0
  145.0909  136.1973  155.2702 C   0  0  0  0  0  0  0  0  0  0  0  0
  146.1573  136.0307  154.1724 C   0  0  0  0  0  0  0  0  0  0  0  0
  148.0377  138.1302  154.6985 C   0  0  0  0  0  0  0  0  0  0  0  0
  148.5649  139.3273  155.5084 C   0  0  0  0  0  0  0  0  0  0  0  0
  151.7821  142.5263  158.7562 N   0  0  0  0  0  0  0  0  0  0  0  0
  153.7881  142.4702  161.4336 H   0  0  0  0  0  0  0  0  0  0  0  0
  154.1829  141.6746  159.9057 H   0  0  0  0  0  0  0  0  0  0  0  0
  152.7644  141.1643  160.8301 H   0  0  0  0  0  0  0  0  0  0  0  0
  153.1102  144.7570  160.9484 H   0  0  0  0  0  0  0  0  0  0  0  0
  151.6702  146.3178  159.6179 H   0  0  0  0  0  0  0  0  0  0  0  0
  150.3141  145.4046  157.7350 H   0  0  0  0  0  0  0  0  0  0  0  0
  149.6751  143.6730  156.4766 H   0  0  0  0  0  0  0  0  0  0  0  0
  148.8325  142.5792  155.0861 H   0  0  0  0  0  0  0  0  0  0  0  0
  149.6853  140.2633  153.9202 H   0  0  0  0  0  0  0  0  0  0  0  0
  146.8183  141.1906  154.4018 H   0  0  0  0  0  0  0  0  0  0  0  0
  147.8318  141.6059  153.0400 H   0  0  0  0  0  0  0  0  0  0  0  0
  146.2537  139.8644  152.4601 H   0  0  0  0  0  0  0  0  0  0  0  0
  147.8793  139.2251  152.3019 H   0  0  0  0  0  0  0  0  0  0  0  0
  146.9242  137.0551  152.4349 H   0  0  0  0  0  0  0  0  0  0  0  0
  144.7825  138.3283  151.9728 H   0  0  0  0  0  0  0  0  0  0  0  0
  144.5699  136.6306  152.0821 H   0  0  0  0  0  0  0  0  0  0  0  0
  143.9714  138.5624  154.3714 H   0  0  0  0  0  0  0  0  0  0  0  0
  142.7912  137.7861  153.3352 H   0  0  0  0  0  0  0  0  0  0  0  0
  142.8657  137.4099  156.3766 H   0  0  0  0  0  0  0  0  0  0  0  0
  142.6662  135.6544  156.3094 H   0  0  0  0  0  0  0  0  0  0  0  0
  141.7189  136.6869  155.2415 H   0  0  0  0  0  0  0  0  0  0  0  0
  145.3715  137.0026  155.9510 H   0  0  0  0  0  0  0  0  0  0  0  0
  145.0374  135.2848  155.8651 H   0  0  0  0  0  0  0  0  0  0  0  0
  145.8763  135.1783  153.5523 H   0  0  0  0  0  0  0  0  0  0  0  0
  147.1107  135.7366  154.6050 H   0  0  0  0  0  0  0  0  0  0  0  0
  147.8620  137.3344  155.4170 H   0  0  0  0  0  0  0  0  0  0  0  0
  148.8034  137.7730  154.0080 H   0  0  0  0  0  0  0  0  0  0  0  0
  149.4639  139.0333  156.0514 H   0  0  0  0  0  0  0  0  0  0  0  0
  147.8271  139.6073  156.2619 H   0  0  0  0  0  0  0  0  0  0  0  0
  143.5304  135.6840  154.1014 H   0  0  0  0  0  0  0  0  0  0  0  0
  1  2  1  0  0  0  0
  1 25  1  0  0  0  0
  1 26  1  0  0  0  0
  1 27  1  0  0  0  0
  2 24  1  0  0  0  0
  2  3  2  0  0  0  0
  3  4  1  0  0  0  0
  3 28  1  0  0  0  0
  4  5  2  0  0  0  0
  4 29  1  0  0  0  0
  5  6  1  0  0  0  0
  5 30  1  0  0  0  0
  6  7  1  0  0  0  0
  6 24  2  0  0  0  0
  7  8  1  0  0  0  0
  7 31  1  0  0  0  0
  8  9  2  0  0  0  0
  8 10  1  0  0  0  0
 10 11  1  0  0  0  0
 10 32  1  0  0  0  0
 11 23  1  0  0  0  0
 11 12  1  0  0  0  0
 11 33  1  0  0  0  0
 12 13  1  0  0  0  0
 12 34  1  0  0  0  0
 12 35  1  0  0  0  0
 13 14  1  0  0  0  0
 13 36  1  0  0  0  0
 13 37  1  0  0  0  0
 14 15  1  0  0  0  0
 14 22  1  0  0  0  0
 15 21  1  0  0  0  0
 15 16  1  0  0  0  0
 15 38  1  0  0  0  0
 16 17  1  0  0  0  0
 16 39  1  0  0  0  0
 16 40  1  0  0  0  0
 17 18  1  0  0  0  0
 17 41  1  0  0  0  0
 17 42  1  0  0  0  0
 18 19  1  0  0  0  0
 18 20  1  0  0  0  0
 18 54  1  0  0  0  0
 19 43  1  0  0  0  0
 19 44  1  0  0  0  0
 19 45  1  0  0  0  0
 20 21  1  0  0  0  0
 20 46  1  0  0  0  0
 20 47  1  0  0  0  0
 21 48  1  0  0  0  0
 21 49  1  0  0  0  0
 22 23  1  0  0  0  0
 22 50  1  0  0  0  0
 22 51  1  0  0  0  0
 23 52  1  0  0  0  0
 23 53  1  0  0  0  0
M  CHG  1  18   1
M  END
> <s_m_source_file>
AV-unprocessed.smi

> <i_m_source_file_index>
2237

> <i_lp_mmshare_version>
43012

> <i_f3d_flags>
0

> <s_epik_input>
W0NIM11jMVtjSF1bY0hdW2NIXWMobjEpW05IXUMoPU8pW05IXVtDSF0yW0NIMl1bQ0gyXU4oW0NIMl1bQ0gyXTIpW0NIXTNbQ0gyXVtDSDJdTihbQ0gzXSlbQ0gyXVtDSDJdMw==

> <s_epik_cmdline>
J2VwaWtfcHl0aG9uJywgJy1waCcsICc3LjAnLCAnLXRuJywgJzgnLCAnLW1hJywgJzIwMCcsICctbWV0YWxfYmluZGluZycsICctaW1hZScsICc8aW5maWxlLm1hZT4nLCAnLW9tYWUnLCAnPG91dGZpbGUubWFlPic=

> <r_epik_Ionization_Penalty>
1.00983

> <r_epik_Ionization_Penalty_Charging>
0.000974969

> <r_epik_Ionization_Penalty_Neutral>
1.00886

> <r_epik_State_Penalty>
1.10286

> <r_epik_Charging_Adjusted_Penalty>
1.10383

> <i_epik_Tot_Q>
1

> <i_epik_Tot_abs_Q>
1

> <r_epik_Metal_State_Penalty>
1.10284

> <b_epik_Metal_Only>
0

> <s_lp_Force_Field>
OPLS_2005

> <r_lp_Energy>
36.6088

> <b_lp_Chiralities_Consistent>
1

> <s_lp_Variant>
AV-unprocessed.smi:2237-6

> <Gold.Version>
5.8.1

> <Gold.Id.Protein>
6NUR|6NUR_protein|mol2

> <Gold.PLP.Fitness>
39.5391

> <Gold.PLP.PLP>
-35.8513

> <Gold.PLP.part.hbond>
-1.9404

> <Gold.PLP.part.metal>
0.0000

> <Gold.PLP.part.buried>
-2.4159

> <Gold.PLP.part.nonpolar>
-31.8716

> <Gold.PLP.part.repulsive>
0.3546

> <Gold.PLP.ligand.clash>
0.0000

> <Gold.PLP.ligand.torsion>
0.3395

> <Gold.PLP.Chemscore.Hbond>
1.4550

> <Gold.PLP.Chemscore.CHOScore>
0.0000

> <Gold.PLP.Chemscore.Metal>
0.0000

> <Gold.Chemscore.Hbonds>
donor molecule, donor type, donor heavy atom, donor atom, acceptor molecule, acceptor atom, score
      L1  H     7    31       P1  8028  1.00
      L1  H    10    32       P1  8028  0.46

> <Gold.PLP.Chemscore.Internal.Correction>
0.0018

> <Gold.Rescore>
     Score         DG    S(hbond)    S(metal)    S(lipo)     H(rot)  DE(clash)    DE(int)     intcor
     15.40     -18.43       1.34        0.00      99.02       1.22       0.10       2.93       ----

> <Gold.Chemscore.Fitness>
15.3957

> <Gold.Chemscore.DG>
-18.4348

> <Gold.Chemscore.ZeroCoef>
-5.4800

> <Gold.Chemscore.Hbond>
1.3434

> <Gold.Chemscore.Metal>
0.0000

> <Gold.Chemscore.Lipo>
99.0220

> <Gold.Chemscore.Internal_Hbond>
0.0000

> <Gold.Chemscore.DEClash>
0.1049

> <Gold.Chemscore.DEInternal>
2.9343

> <Gold.Chemscore.Rot>
1.2179

> <Gold.Chemscore.Internal.Correction>
   9.000000E+99

> <Gold.Chemscore.Hbonds>
donor molecule, donor type, donor heavy atom, donor atom, acceptor molecule, acceptor atom, score
      L1  H     7    31       P1  8028  0.94
      L1  H    10    32       P1  8028  0.45

> <Gold.Chemscore.Hbond.Weighted>
-4.4870

> <Gold.Chemscore.Metal.Weighted>
-0.0000

> <Gold.Chemscore.Lipo.Weighted>
-11.5856

> <Gold.Chemscore.Internal_Hbond.Weighted>
0.0000

> <Gold.Chemscore.DEClash.Weighted>
0.1049

> <Gold.Chemscore.DEInternal.Weighted>
2.9343

> <Gold.Chemscore.Rot.Weighted>
3.1177

> <Gold.Chemscore.Internal.Correction.Weighted>
   9.000000E+99

> <Gold.Protein.RotatedTorsions>
[ 6907 6896 6895 6894 ] final -113.00 input  -60.11 | X-H torsion
[ 7974 7965 7964 7962 ] final  164.85 input  175.53 | X-H torsion
[ 8008 7997 7996 7995 ] final  136.54 input   59.86 | X-H torsion
[ 10167 10162 10161 10158 ] final  -90.76 input  -65.29 | X-H torsion
[ 10718 10713 10712 10709 ] final  -75.68 input   66.30 | X-H torsion
[ 10763 10752 10751 10750 ] final   81.74 input  -60.55 | X-H torsion
[ 11005 11000 10999 10996 ] final  161.38 input  -57.11 | X-H torsion

> <Gold.Protein.ActiveResidues>
 VAL166  LYS551  ARG553  GLY616  TRP617  ASP618  TYR619  PRO620  LYS621  CYS622 
 ASP623  PHE694  ASN695  SER759  ASP760  ASP761  ALA762  ILE779  LEU786  VAL792 
 PHE793  MET794  SER795  GLU796  ALA797  LYS798  CYS799  TRP800  GLU811  SER814 

> <Gold.Protein.RotatedAtoms>
  150.7798  133.9008  159.3340 H   0  0  0  0  0  0  0  0  0  0  0  0  # atno 6907 bound_to 6896
  151.6874  135.0950  160.0237 H   0  0  0  0  0  0  0  0  0  0  0  0  # atno 6908 bound_to 6896
  152.3845  133.6554  159.6223 H   0  0  0  0  0  0  0  0  0  0  0  0  # atno 6909 bound_to 6896
  144.7527  139.8385  143.6360 H   0  0  0  0  0  0  0  0  0  0  0  0  # atno 7974 bound_to 7965
  156.3004  140.2442  156.3763 H   0  0  0  0  0  0  0  0  0  0  0  0  # atno 8008 bound_to 7997
  154.8742  140.0415  157.1763 H   0  0  0  0  0  0  0  0  0  0  0  0  # atno 8009 bound_to 7997
  154.8763  140.2942  155.5455 H   0  0  0  0  0  0  0  0  0  0  0  0  # atno 8010 bound_to 7997
  140.3517  143.2888  151.9719 H   0  0  0  0  0  0  0  0  0  0  0  0  # atno 10167 bound_to 10162
  156.0199  130.4447  150.3079 H   0  0  0  0  0  0  0  0  0  0  0  0  # atno 10718 bound_to 10713
  153.1143  135.4754  154.9088 H   0  0  0  0  0  0  0  0  0  0  0  0  # atno 10763 bound_to 10752
  154.7512  135.3106  154.8556 H   0  0  0  0  0  0  0  0  0  0  0  0  # atno 10764 bound_to 10752
  153.9137  135.6862  153.4803 H   0  0  0  0  0  0  0  0  0  0  0  0  # atno 10765 bound_to 10752
  140.2152  134.8237  157.3163 H   0  0  0  0  0  0  0  0  0  0  0  0  # atno 11005 bound_to 11000
  146.1499  139.4579  143.0055 LP  0  0  0  0  0  0  0  0  0  0  0  0  # atno 17320 bound_to 7965
  145.6886  141.0171  143.1567 LP  0  0  0  0  0  0  0  0  0  0  0  0  # atno 17321 bound_to 7965
  139.4825  144.6070  151.7502 LP  0  0  0  0  0  0  0  0  0  0  0  0  # atno 17342 bound_to 10162
  140.5213  144.0875  150.6023 LP  0  0  0  0  0  0  0  0  0  0  0  0  # atno 17343 bound_to 10162
  157.1181  131.0239  151.3020 LP  0  0  0  0  0  0  0  0  0  0  0  0  # atno 17370 bound_to 10713
  157.4650  130.7675  149.7270 LP  0  0  0  0  0  0  0  0  0  0  0  0  # atno 17371 bound_to 10713
  140.1908  134.4374  155.7717 LP  0  0  0  0  0  0  0  0  0  0  0  0  # atno 17394 bound_to 11000
  141.2225  133.7026  156.8024 LP  0  0  0  0  0  0  0  0  0  0  0  0  # atno 17395 bound_to 11000

$$$$
