AV-unprocessed.smi:1390|AV-procd|sdf|5657|dock1
  -GOLD-   22720 5283D 1   1.00000     0.00000
 Structure written by MMmdl.
 44 45  0  0  0  0  0  0  0  0  1 V2000
  151.5281  145.6722  159.7203 C   0  0  0  0  0  0  0  0  0  0  0  0
  152.0000  144.3890  159.0290 C   0  0  1  0  0  0  0  0  0  0  0  0
  152.6857  143.4224  160.0129 C   0  0  0  0  0  0  0  0  0  0  0  0
  153.0273  142.1662  159.3472 N   0  0  0  0  0  0  0  0  0  0  0  0
  153.8860  141.2719  160.0245 C   0  0  0  0  0  0  0  0  0  0  0  0
  154.0599  141.3707  161.4264 C   0  0  0  0  0  0  0  0  0  0  0  0
  154.9268  140.4719  162.0772 C   0  0  0  0  0  0  0  0  0  0  0  0
  155.5924  139.4933  161.3140 C   0  0  0  0  0  0  0  0  0  0  0  0
  156.5462  138.5118  161.9650 C   0  0  0  0  0  0  0  0  0  0  0  0
  157.0060  138.9945  163.2599 N   0  0  0  0  0  0  0  0  0  0  0  0
  157.9438  139.9358  163.4458 C   0  0  0  0  0  0  0  0  0  0  0  0
  158.5584  140.4726  162.5246 O   0  0  0  0  0  0  0  0  0  0  0  0
  158.2483  140.3233  164.8927 C   0  0  0  0  0  0  0  0  0  0  0  0
  157.1439  141.0360  165.4294 O   0  0  0  0  0  0  0  0  0  0  0  0
  157.1454  142.4079  165.0694 C   0  0  0  0  0  0  0  0  0  0  0  0
  155.7613  143.0088  165.3439 C   0  0  0  0  0  0  0  0  0  0  0  0
  154.8718  142.4602  164.5176 F   0  0  0  0  0  0  0  0  0  0  0  0
  155.3912  142.7590  166.5996 F   0  0  0  0  0  0  0  0  0  0  0  0
  155.7811  144.3253  165.1368 F   0  0  0  0  0  0  0  0  0  0  0  0
  155.3555  139.4626  159.9256 C   0  0  0  0  0  0  0  0  0  0  0  0
  154.5272  140.3230  159.2974 N   0  0  0  0  0  0  0  0  0  0  0  0
  151.8963  141.5584  158.6503 C   0  0  0  0  0  0  0  0  0  0  0  0
  151.2277  142.5825  157.7175 C   0  0  0  0  0  0  0  0  0  0  0  0
  150.8660  143.7446  158.4560 O   0  0  0  0  0  0  0  0  0  0  0  0
  152.3658  146.2060  160.1698 H   0  0  0  0  0  0  0  0  0  0  0  0
  150.8086  145.4536  160.5098 H   0  0  0  0  0  0  0  0  0  0  0  0
  151.0485  146.3447  159.0086 H   0  0  0  0  0  0  0  0  0  0  0  0
  152.6973  144.6594  158.2339 H   0  0  0  0  0  0  0  0  0  0  0  0
  153.5852  143.8936  160.4114 H   0  0  0  0  0  0  0  0  0  0  0  0
  152.0256  143.2124  160.8562 H   0  0  0  0  0  0  0  0  0  0  0  0
  153.5334  142.1113  162.0095 H   0  0  0  0  0  0  0  0  0  0  0  0
  155.0755  140.5331  163.1453 H   0  0  0  0  0  0  0  0  0  0  0  0
  156.0408  137.5548  162.1008 H   0  0  0  0  0  0  0  0  0  0  0  0
  157.3894  138.3321  161.2955 H   0  0  0  0  0  0  0  0  0  0  0  0
  156.5572  138.6082  164.0780 H   0  0  0  0  0  0  0  0  0  0  0  0
  158.4377  139.4176  165.4703 H   0  0  0  0  0  0  0  0  0  0  0  0
  159.1489  140.9389  164.9264 H   0  0  0  0  0  0  0  0  0  0  0  0
  157.9031  142.9433  165.6437 H   0  0  0  0  0  0  0  0  0  0  0  0
  157.3972  142.5171  164.0134 H   0  0  0  0  0  0  0  0  0  0  0  0
  155.8463  138.7331  159.2981 H   0  0  0  0  0  0  0  0  0  0  0  0
  152.1983  140.6927  158.0627 H   0  0  0  0  0  0  0  0  0  0  0  0
  151.1780  141.2041  159.3904 H   0  0  0  0  0  0  0  0  0  0  0  0
  151.8928  142.8528  156.8958 H   0  0  0  0  0  0  0  0  0  0  0  0
  150.3307  142.1531  157.2715 H   0  0  0  0  0  0  0  0  0  0  0  0
  1  2  1  0  0  0  0
  1 25  1  0  0  0  0
  1 26  1  0  0  0  0
  1 27  1  0  0  0  0
  2 24  1  0  0  0  0
  2  3  1  0  0  0  0
  2 28  1  0  0  0  0
  3  4  1  0  0  0  0
  3 29  1  0  0  0  0
  3 30  1  0  0  0  0
  4  5  1  0  0  0  0
  4 22  1  0  0  0  0
  5 21  1  0  0  0  0
  5  6  2  0  0  0  0
  6  7  1  0  0  0  0
  6 31  1  0  0  0  0
  7  8  2  0  0  0  0
  7 32  1  0  0  0  0
  8  9  1  0  0  0  0
  8 20  1  0  0  0  0
  9 10  1  0  0  0  0
  9 33  1  0  0  0  0
  9 34  1  0  0  0  0
 10 11  1  0  0  0  0
 10 35  1  0  0  0  0
 11 12  2  0  0  0  0
 11 13  1  0  0  0  0
 13 14  1  0  0  0  0
 13 36  1  0  0  0  0
 13 37  1  0  0  0  0
 14 15  1  0  0  0  0
 15 16  1  0  0  0  0
 15 38  1  0  0  0  0
 15 39  1  0  0  0  0
 16 17  1  0  0  0  0
 16 18  1  0  0  0  0
 16 19  1  0  0  0  0
 20 21  2  0  0  0  0
 20 40  1  0  0  0  0
 22 23  1  0  0  0  0
 22 41  1  0  0  0  0
 22 42  1  0  0  0  0
 23 24  1  0  0  0  0
 23 43  1  0  0  0  0
 23 44  1  0  0  0  0
M  END
> <s_m_source_file>
AV-unprocessed.smi

> <i_m_source_file_index>
1390

> <i_lp_mmshare_version>
43012

> <i_f3d_flags>
0

> <s_epik_input>
W0NIM11bQ0BASF0xW0NIMl1OKFtDSDJdW0NIMl1PMSljMltjSF1bY0hdYyhbY0hdbjIpW0NIMl1bTkhdQyg9TylbQ0gyXU9bQ0gyXUMoRikoRilG

> <s_epik_cmdline>
J2VwaWtfcHl0aG9uJywgJy1waCcsICc3LjAnLCAnLXRuJywgJzgnLCAnLW1hJywgJzIwMCcsICctbWV0YWxfYmluZGluZycsICctaW1hZScsICc8aW5maWxlLm1hZT4nLCAnLW9tYWUnLCAnPG91dGZpbGUubWFlPic=

> <r_lp_tautomer_probability>
1

> <r_epik_Ionization_Penalty>
0.00481831

> <r_epik_Ionization_Penalty_Charging>
0

> <r_epik_Ionization_Penalty_Neutral>
0.00481831

> <r_epik_State_Penalty>
0.00349373

> <r_epik_Charging_Adjusted_Penalty>
0.00349373

> <i_epik_Tot_Q>
0

> <i_epik_Tot_abs_Q>
0

> <r_epik_Metal_State_Penalty>
-0

> <b_epik_Metal_Only>
0

> <s_lp_Force_Field>
OPLS_2005

> <r_lp_Energy>
17.1102

> <b_lp_Chiralities_Consistent>
1

> <s_lp_Variant>
AV-unprocessed.smi:1390-2

> <Gold.Version>
5.8.1

> <Gold.Id.Protein>
6NUR|6NUR_protein|mol2

> <Gold.PLP.Fitness>
45.2812

> <Gold.PLP.PLP>
-44.1757

> <Gold.PLP.part.hbond>
-2.0000

> <Gold.PLP.part.metal>
0.0000

> <Gold.PLP.part.buried>
-2.2594

> <Gold.PLP.part.nonpolar>
-38.6922

> <Gold.PLP.part.repulsive>
0.1369

> <Gold.PLP.ligand.clash>
0.0000

> <Gold.PLP.ligand.torsion>
0.9714

> <Gold.PLP.Chemscore.Hbond>
0.8406

> <Gold.PLP.Chemscore.CHOScore>
0.0000

> <Gold.PLP.Chemscore.Metal>
0.0000

> <Gold.Chemscore.Hbonds>
donor molecule, donor type, donor heavy atom, donor atom, acceptor molecule, acceptor atom, score
      P1  H  7997  8009       L1    21  0.81

> <Gold.PLP.Chemscore.Internal.Correction>
0.5266

> <Gold.Rescore>
     Score         DG    S(hbond)    S(metal)    S(lipo)     H(rot)  DE(clash)    DE(int)     intcor
     12.46     -13.96       0.83        0.00     104.84       2.57       0.56       0.94       ----

> <Gold.Chemscore.Fitness>
12.4644

> <Gold.Chemscore.DG>
-13.9576

> <Gold.Chemscore.ZeroCoef>
-5.4800

> <Gold.Chemscore.Hbond>
0.8322

> <Gold.Chemscore.Metal>
0.0000

> <Gold.Chemscore.Lipo>
104.8401

> <Gold.Chemscore.Internal_Hbond>
0.0000

> <Gold.Chemscore.DEClash>
0.5558

> <Gold.Chemscore.DEInternal>
0.9375

> <Gold.Chemscore.Rot>
2.5657

> <Gold.Chemscore.Internal.Correction>
   9.000000E+99

> <Gold.Chemscore.Hbonds>
donor molecule, donor type, donor heavy atom, donor atom, acceptor molecule, acceptor atom, score
      P1  H  7997  8009       L1    21  0.23

> <Gold.Chemscore.Hbond.Weighted>
-2.7795

> <Gold.Chemscore.Metal.Weighted>
-0.0000

> <Gold.Chemscore.Lipo.Weighted>
-12.2663

> <Gold.Chemscore.Internal_Hbond.Weighted>
0.0000

> <Gold.Chemscore.DEClash.Weighted>
0.5558

> <Gold.Chemscore.DEInternal.Weighted>
0.9375

> <Gold.Chemscore.Rot.Weighted>
6.5682

> <Gold.Chemscore.Internal.Correction.Weighted>
   9.000000E+99

> <Gold.Protein.RotatedTorsions>
[ 6907 6896 6895 6894 ] final  143.33 input  -60.11 | X-H torsion
[ 7974 7965 7964 7962 ] final  115.98 input  175.53 | X-H torsion
[ 8008 7997 7996 7995 ] final  120.42 input   59.86 | X-H torsion
[ 10167 10162 10161 10158 ] final    6.98 input  -65.29 | X-H torsion
[ 10718 10713 10712 10709 ] final -147.71 input   66.30 | X-H torsion
[ 10763 10752 10751 10750 ] final  -54.04 input  -60.55 | X-H torsion
[ 11005 11000 10999 10996 ] final  152.36 input  -57.11 | X-H torsion

> <Gold.Protein.ActiveResidues>
 VAL166  LYS551  ARG553  GLY616  TRP617  ASP618  TYR619  PRO620  LYS621  CYS622 
 ASP623  PHE694  ASN695  SER759  ASP760  ASP761  ALA762  ILE779  LEU786  VAL792 
 PHE793  MET794  SER795  GLU796  ALA797  LYS798  CYS799  TRP800  GLU811  SER814 

> <Gold.Protein.RotatedAtoms>
  152.2076  133.4887  159.5092 H   0  0  0  0  0  0  0  0  0  0  0  0  # atno 6907 bound_to 6896
  150.6983  134.1509  159.4149 H   0  0  0  0  0  0  0  0  0  0  0  0  # atno 6908 bound_to 6896
  151.9428  135.0205  160.0587 H   0  0  0  0  0  0  0  0  0  0  0  0  # atno 6909 bound_to 6896
  145.1853  139.3028  143.4396 H   0  0  0  0  0  0  0  0  0  0  0  0  # atno 7974 bound_to 7965
  156.2642  140.2831  156.1147 H   0  0  0  0  0  0  0  0  0  0  0  0  # atno 8008 bound_to 7997
  155.1220  140.0392  157.2770 H   0  0  0  0  0  0  0  0  0  0  0  0  # atno 8009 bound_to 7997
  154.6664  140.2578  155.7060 H   0  0  0  0  0  0  0  0  0  0  0  0  # atno 8010 bound_to 7997
  140.6398  143.7802  150.7411 H   0  0  0  0  0  0  0  0  0  0  0  0  # atno 10167 bound_to 10162
  156.4109  130.7981  151.2198 H   0  0  0  0  0  0  0  0  0  0  0  0  # atno 10718 bound_to 10713
  154.1685  135.6463  153.5003 H   0  0  0  0  0  0  0  0  0  0  0  0  # atno 10763 bound_to 10752
  153.0091  135.5377  154.6638 H   0  0  0  0  0  0  0  0  0  0  0  0  # atno 10764 bound_to 10752
  154.5970  135.2940  155.0547 H   0  0  0  0  0  0  0  0  0  0  0  0  # atno 10765 bound_to 10752
  140.1301  134.8807  157.2191 H   0  0  0  0  0  0  0  0  0  0  0  0  # atno 11005 bound_to 11000
  146.3446  140.2047  142.8589 LP  0  0  0  0  0  0  0  0  0  0  0  0  # atno 17320 bound_to 7965
  145.0095  140.8702  143.5233 LP  0  0  0  0  0  0  0  0  0  0  0  0  # atno 17321 bound_to 7965
  140.1431  143.4424  152.2181 LP  0  0  0  0  0  0  0  0  0  0  0  0  # atno 17342 bound_to 10162
  139.5607  144.7403  151.4163 LP  0  0  0  0  0  0  0  0  0  0  0  0  # atno 17343 bound_to 10162
  157.7507  131.0258  150.3933 LP  0  0  0  0  0  0  0  0  0  0  0  0  # atno 17370 bound_to 10713
  156.4231  130.3957  149.6811 LP  0  0  0  0  0  0  0  0  0  0  0  0  # atno 17371 bound_to 10713
  140.2853  134.3302  155.7331 LP  0  0  0  0  0  0  0  0  0  0  0  0  # atno 17394 bound_to 11000
  141.2168  133.7502  156.9424 LP  0  0  0  0  0  0  0  0  0  0  0  0  # atno 17395 bound_to 11000

$$$$
