AV-unprocessed.smi:283|AV-procd|sdf|2156|dock5
  -GOLD-   2262021503D 1   1.00000     0.00000
 Structure written by MMmdl.
 48 51  0  0  0  0  0  0  0  0  1 V2000
  150.6170  140.0968  158.4609 C   0  0  0  0  0  0  0  0  0  0  0  0
  151.7417  141.0247  157.9672 C   0  0  1  0  0  0  0  0  0  0  0  0
  151.7674  141.0963  156.5066 N   0  0  0  0  0  0  0  0  0  0  0  0
  151.3153  140.0831  155.7349 C   0  0  0  0  0  0  0  0  0  0  0  0
  152.1507  139.1158  155.2742 N   0  0  0  0  0  0  0  0  0  0  0  0
  151.6738  138.1277  154.5114 C   0  0  0  0  0  0  0  0  0  0  0  0
  150.4224  137.9272  154.0921 N   0  0  0  0  0  0  0  0  0  0  0  0
  149.5812  138.9026  154.5429 C   0  0  0  0  0  0  0  0  0  0  0  0
  149.9471  140.0011  155.3689 C   0  0  0  0  0  0  0  0  0  0  0  0
  148.8278  140.7745  155.6446 N   0  0  0  0  0  0  0  0  0  0  0  0
  147.8588  140.1603  155.0209 C   0  0  0  0  0  0  0  0  0  0  0  0
  148.2297  139.0414  154.3032 N   0  0  0  0  0  0  0  0  0  0  0  0
  147.3741  138.1066  153.5004 C   0  0  1  0  0  0  0  0  0  0  0  0
  146.3498  137.6381  154.3300 O   0  0  0  0  0  0  0  0  0  0  0  0
  145.1078  138.2695  154.0246 C   0  0  1  0  0  0  0  0  0  0  0  0
  144.9214  139.5367  154.8819 C   0  0  0  0  0  0  0  0  0  0  0  0
  143.6383  140.0873  154.6743 O   0  0  0  0  0  0  0  0  0  0  0  0
  145.2174  138.5486  152.5236 C   0  0  2  0  0  0  0  0  0  0  0  0
  144.7746  137.4005  151.8193 O   0  0  0  0  0  0  0  0  0  0  0  0
  146.7033  138.8425  152.3227 C   0  0  2  0  0  0  0  0  0  0  0  0
  147.1624  138.4090  151.0561 O   0  0  0  0  0  0  0  0  0  0  0  0
  151.6054  142.4002  158.6179 C   0  0  0  0  0  0  0  0  0  0  0  0
  152.6900  142.9486  159.3425 C   0  0  0  0  0  0  0  0  0  0  0  0
  152.5852  144.2176  159.9424 C   0  0  0  0  0  0  0  0  0  0  0  0
  151.3952  144.9565  159.8203 C   0  0  0  0  0  0  0  0  0  0  0  0
  150.3141  144.4272  159.0921 C   0  0  0  0  0  0  0  0  0  0  0  0
  150.4136  143.1579  158.4874 C   0  0  0  0  0  0  0  0  0  0  0  0
  149.0582  142.5697  157.5885 Cl  0  0  0  0  0  0  0  0  0  0  0  0
  148.0471  137.2988  153.2101 H   0  0  0  0  0  0  0  0  0  0  0  0
  144.2961  137.5754  154.2492 H   0  0  0  0  0  0  0  0  0  0  0  0
  144.5958  139.3884  152.2115 H   0  0  0  0  0  0  0  0  0  0  0  0
  146.8699  139.9165  152.4186 H   0  0  0  0  0  0  0  0  0  0  0  0
  150.6311  140.0120  159.5479 H   0  0  0  0  0  0  0  0  0  0  0  0
  150.7137  139.0893  158.0576 H   0  0  0  0  0  0  0  0  0  0  0  0
  149.6362  140.4754  158.1714 H   0  0  0  0  0  0  0  0  0  0  0  0
  152.6985  140.6076  158.2785 H   0  0  0  0  0  0  0  0  0  0  0  0
  152.1095  141.9643  156.1205 H   0  0  0  0  0  0  0  0  0  0  0  0
  152.3986  137.3949  154.1888 H   0  0  0  0  0  0  0  0  0  0  0  0
  146.8409  140.5186  155.0682 H   0  0  0  0  0  0  0  0  0  0  0  0
  145.0133  139.2886  155.9393 H   0  0  0  0  0  0  0  0  0  0  0  0
  145.6771  140.2902  154.6582 H   0  0  0  0  0  0  0  0  0  0  0  0
  143.5830  140.3935  153.7818 H   0  0  0  0  0  0  0  0  0  0  0  0
  144.2836  137.6856  151.0637 H   0  0  0  0  0  0  0  0  0  0  0  0
  147.6244  137.5926  151.1717 H   0  0  0  0  0  0  0  0  0  0  0  0
  153.6160  142.4011  159.4405 H   0  0  0  0  0  0  0  0  0  0  0  0
  153.4196  144.6248  160.4945 H   0  0  0  0  0  0  0  0  0  0  0  0
  151.3127  145.9301  160.2803 H   0  0  0  0  0  0  0  0  0  0  0  0
  149.4037  145.0003  158.9948 H   0  0  0  0  0  0  0  0  0  0  0  0
  1  2  1  0  0  0  0
  1 33  1  0  0  0  0
  1 34  1  0  0  0  0
  1 35  1  0  0  0  0
  2  3  1  0  0  0  0
  2 22  1  0  0  0  0
  2 36  1  0  0  0  0
  3  4  1  0  0  0  0
  3 37  1  0  0  0  0
  4  9  1  0  0  0  0
  4  5  2  0  0  0  0
  5  6  1  0  0  0  0
  6  7  2  0  0  0  0
  6 38  1  0  0  0  0
  7  8  1  0  0  0  0
  8 12  1  0  0  0  0
  8  9  2  0  0  0  0
  9 10  1  0  0  0  0
 10 11  2  0  0  0  0
 11 12  1  0  0  0  0
 11 39  1  0  0  0  0
 12 13  1  0  0  0  0
 13 29  1  0  0  0  0
 13 20  1  0  0  0  0
 13 14  1  0  0  0  0
 14 15  1  0  0  0  0
 15 30  1  0  0  0  0
 15 16  1  0  0  0  0
 15 18  1  0  0  0  0
 16 17  1  0  0  0  0
 16 40  1  0  0  0  0
 16 41  1  0  0  0  0
 17 42  1  0  0  0  0
 18 31  1  0  0  0  0
 18 19  1  0  0  0  0
 18 20  1  0  0  0  0
 19 43  1  0  0  0  0
 20 32  1  0  0  0  0
 20 21  1  0  0  0  0
 21 44  1  0  0  0  0
 22 27  1  0  0  0  0
 22 23  2  0  0  0  0
 23 24  1  0  0  0  0
 23 45  1  0  0  0  0
 24 25  2  0  0  0  0
 24 46  1  0  0  0  0
 25 26  1  0  0  0  0
 25 47  1  0  0  0  0
 26 27  2  0  0  0  0
 26 48  1  0  0  0  0
 27 28  1  0  0  0  0
M  END
> <s_m_source_file>
AV-unprocessed.smi

> <i_m_source_file_index>
283

> <i_lp_mmshare_version>
43012

> <i_f3d_flags>
0

> <s_epik_input>
Q2xjMVtjSF1bY0hdW2NIXVtjSF1jMVtDQEhdKFtDSDNdKVtOSF1jKG5bY0hdbjIpYyhjMjMpbltjSF1uM1tDQEBIXTRPW0NASF0oW0NIMl1bT0hdKVtDQEBIXShbT0hdKVtDQEhdNFtPSF0=

> <s_epik_cmdline>
J2VwaWtfcHl0aG9uJywgJy1waCcsICc3LjAnLCAnLXRuJywgJzgnLCAnLW1hJywgJzIwMCcsICctbWV0YWxfYmluZGluZycsICctaW1hZScsICc8aW5maWxlLm1hZT4nLCAnLW9tYWUnLCAnPG91dGZpbGUubWFlPic=

> <r_lp_tautomer_probability>
1

> <r_epik_Ionization_Penalty>
0.000266407

> <r_epik_Ionization_Penalty_Charging>
0

> <r_epik_Ionization_Penalty_Neutral>
0.000266407

> <r_epik_State_Penalty>
-0

> <r_epik_Charging_Adjusted_Penalty>
0

> <i_epik_Tot_Q>
0

> <i_epik_Tot_abs_Q>
0

> <r_epik_Metal_State_Penalty>
-0

> <b_epik_Metal_Only>
0

> <s_epik_Chemistry_Notes>
This compound contains an acetal/aminal-like group ( X-CH(R)-Y where X, Y are N, S, or O) that may be acid/base labile, releasing an aldehyde.

> <s_lp_Force_Field>
OPLS_2005

> <r_lp_Energy>
46.4468

> <b_lp_Chiralities_Consistent>
1

> <s_lp_Variant>
AV-unprocessed.smi:283-32

> <Gold.Version>
5.8.1

> <Gold.Id.Protein>
6NUR|6NUR_protein|mol2

> <Gold.PLP.Fitness>
45.4705

> <Gold.PLP.PLP>
-38.8556

> <Gold.PLP.part.hbond>
-5.8220

> <Gold.PLP.part.metal>
0.0000

> <Gold.PLP.part.buried>
1.9927

> <Gold.PLP.part.nonpolar>
-34.2629

> <Gold.PLP.part.repulsive>
0.5718

> <Gold.PLP.ligand.clash>
0.0000

> <Gold.PLP.ligand.torsion>
1.2521

> <Gold.PLP.Chemscore.Hbond>
3.0000

> <Gold.PLP.Chemscore.CHOScore>
0.0000

> <Gold.PLP.Chemscore.Metal>
0.0000

> <Gold.Chemscore.Hbonds>
donor molecule, donor type, donor heavy atom, donor atom, acceptor molecule, acceptor atom, score
      L1  H    17    42       P1 10175  0.36
      L1  H    19    43       P1 10171  1.00
      L1  H    21    44       P1  7948  1.00

> <Gold.PLP.Chemscore.Internal.Correction>
0.1191

> <Gold.Rescore>
     Score         DG    S(hbond)    S(metal)    S(lipo)     H(rot)  DE(clash)    DE(int)     intcor
     10.24     -16.05       2.92        0.00      96.66       4.10       2.80       3.01       ----

> <Gold.Chemscore.Fitness>
10.2413

> <Gold.Chemscore.DG>
-16.0501

> <Gold.Chemscore.ZeroCoef>
-5.4800

> <Gold.Chemscore.Hbond>
2.9187

> <Gold.Chemscore.Metal>
0.0000

> <Gold.Chemscore.Lipo>
96.6620

> <Gold.Chemscore.Internal_Hbond>
0.0000

> <Gold.Chemscore.DEClash>
2.8007

> <Gold.Chemscore.DEInternal>
3.0081

> <Gold.Chemscore.Rot>
4.0968

> <Gold.Chemscore.Internal.Correction>
   9.000000E+99

> <Gold.Chemscore.Hbonds>
donor molecule, donor type, donor heavy atom, donor atom, acceptor molecule, acceptor atom, score
      L1  H    17    42       P1 10175  0.37
      L1  H    19    43       P1 10171  0.98
      L1  H    21    44       P1  7948  0.97

> <Gold.Chemscore.Hbond.Weighted>
-9.7486

> <Gold.Chemscore.Metal.Weighted>
-0.0000

> <Gold.Chemscore.Lipo.Weighted>
-11.3095

> <Gold.Chemscore.Internal_Hbond.Weighted>
0.0000

> <Gold.Chemscore.DEClash.Weighted>
2.8007

> <Gold.Chemscore.DEInternal.Weighted>
3.0081

> <Gold.Chemscore.Rot.Weighted>
10.4879

> <Gold.Chemscore.Internal.Correction.Weighted>
   9.000000E+99

> <Gold.Protein.RotatedTorsions>
[ 6907 6896 6895 6894 ] final -149.81 input  -60.11 | X-H torsion
[ 7974 7965 7964 7962 ] final -159.04 input  175.53 | X-H torsion
[ 8008 7997 7996 7995 ] final  153.58 input   59.86 | X-H torsion
[ 10167 10162 10161 10158 ] final   89.06 input  -65.29 | X-H torsion
[ 10718 10713 10712 10709 ] final -118.97 input   66.30 | X-H torsion
[ 10763 10752 10751 10750 ] final   64.18 input  -60.55 | X-H torsion
[ 11005 11000 10999 10996 ] final -149.33 input  -57.11 | X-H torsion

> <Gold.Protein.ActiveResidues>
 VAL166  LYS551  ARG553  GLY616  TRP617  ASP618  TYR619  PRO620  LYS621  CYS622 
 ASP623  PHE694  ASN695  SER759  ASP760  ASP761  ALA762  ILE779  LEU786  VAL792 
 PHE793  MET794  SER795  GLU796  ALA797  LYS798  CYS799  TRP800  GLU811  SER814 

> <Gold.Protein.RotatedAtoms>
  151.1895  133.4675  159.2594 H   0  0  0  0  0  0  0  0  0  0  0  0  # atno 6907 bound_to 6896
  151.1177  135.0062  159.8534 H   0  0  0  0  0  0  0  0  0  0  0  0  # atno 6908 bound_to 6896
  152.5454  134.1809  159.8688 H   0  0  0  0  0  0  0  0  0  0  0  0  # atno 6909 bound_to 6896
  144.7481  140.3741  143.6069 H   0  0  0  0  0  0  0  0  0  0  0  0  # atno 7974 bound_to 7965
  156.2574  140.1990  156.6512 H   0  0  0  0  0  0  0  0  0  0  0  0  # atno 8008 bound_to 7997
  154.6535  140.0569  157.0008 H   0  0  0  0  0  0  0  0  0  0  0  0  # atno 8009 bound_to 7997
  155.1382  140.3240  155.4461 H   0  0  0  0  0  0  0  0  0  0  0  0  # atno 8010 bound_to 7997
  139.8610  144.6544  150.9058 H   0  0  0  0  0  0  0  0  0  0  0  0  # atno 10167 bound_to 10162
  156.1146  130.6276  150.9358 H   0  0  0  0  0  0  0  0  0  0  0  0  # atno 10718 bound_to 10713
  153.0046  135.5402  154.6470 H   0  0  0  0  0  0  0  0  0  0  0  0  # atno 10763 bound_to 10752
  154.5711  135.2842  155.0828 H   0  0  0  0  0  0  0  0  0  0  0  0  # atno 10764 bound_to 10752
  154.1994  135.6486  153.5135 H   0  0  0  0  0  0  0  0  0  0  0  0  # atno 10765 bound_to 10752
  140.7519  134.3396  157.5123 H   0  0  0  0  0  0  0  0  0  0  0  0  # atno 11005 bound_to 11000
  145.7047  139.1669  143.2573 LP  0  0  0  0  0  0  0  0  0  0  0  0  # atno 17320 bound_to 7965
  146.1390  140.7083  142.9376 LP  0  0  0  0  0  0  0  0  0  0  0  0  # atno 17321 bound_to 7965
  140.7775  143.3744  151.1590 LP  0  0  0  0  0  0  0  0  0  0  0  0  # atno 17342 bound_to 10162
  139.7373  143.8978  152.3039 LP  0  0  0  0  0  0  0  0  0  0  0  0  # atno 17343 bound_to 10162
  157.6329  131.0919  150.8406 LP  0  0  0  0  0  0  0  0  0  0  0  0  # atno 17370 bound_to 10713
  156.8512  130.5081  149.5312 LP  0  0  0  0  0  0  0  0  0  0  0  0  # atno 17371 bound_to 10713
  139.8786  134.9147  156.3114 LP  0  0  0  0  0  0  0  0  0  0  0  0  # atno 17394 bound_to 11000
  140.9743  133.7308  156.0579 LP  0  0  0  0  0  0  0  0  0  0  0  0  # atno 17395 bound_to 11000

$$$$
