AV-unprocessed.smi:1794|AV-procd|sdf|7236|dock9
  -GOLD-   22720 8483D 1   1.00000     0.00000
 Structure written by MMmdl.
 55 57  0  0  0  0  0  0  0  0  4 V2000
  148.7829  133.0796  153.4244 C   0  0  0  0  0  0  0  0  0  0  0  0
  148.5793  131.6608  154.0326 C   0  0  0  0  0  0  0  0  0  0  0  0
  150.0052  131.0795  154.2958 C   0  0  0  0  0  0  0  0  0  0  0  0
  147.7926  131.7154  155.3926 C   0  0  0  0  0  0  0  0  0  0  0  0
  148.1382  132.8977  156.1855 N   0  5  0  0  0  0  0  0  0  0  0  0
  148.1964  132.9270  157.5426 C   0  0  0  0  0  0  0  0  0  0  0  0
  149.2049  132.9554  158.2571 O   0  0  0  0  0  0  0  0  0  0  0  0
  146.9727  132.8993  158.0970 N   0  0  0  0  0  0  0  0  0  0  0  0
  146.6189  132.8664  159.4745 C   0  0  0  0  0  0  0  0  0  0  0  0
  147.4305  133.4955  160.4523 C   0  0  0  0  0  0  0  0  0  0  0  0
  147.0676  133.4354  161.8109 C   0  0  0  0  0  0  0  0  0  0  0  0
  145.8937  132.7520  162.1708 C   0  0  0  0  0  0  0  0  0  0  0  0
  145.1306  132.1836  161.2144 N   0  3  0  0  0  0  0  0  0  0  0  0
  145.4183  132.2194  159.8887 C   0  0  0  0  0  0  0  0  0  0  0  0
  144.5148  131.5875  159.0030 N   0  0  0  0  0  0  0  0  0  0  0  0
  144.3913  130.1349  158.9825 C   0  0  0  0  0  0  0  0  0  0  0  0
  143.1281  129.8568  158.1723 C   0  0  0  0  0  0  0  0  0  0  0  0
  142.2295  131.0304  158.5511 C   0  0  0  0  0  0  0  0  0  0  0  0
  143.2109  132.1910  158.7458 C   0  0  0  0  0  0  0  0  0  0  0  0
  147.7827  130.7816  153.0857 N   0  3  0  0  0  0  0  0  0  0  0  0
  147.7948  129.3137  153.3781 C   0  0  0  0  0  0  0  0  0  0  0  0
  147.1689  128.5230  152.2203 C   0  0  0  0  0  0  0  0  0  0  0  0
  145.8297  128.9556  152.0343 O   0  0  0  0  0  0  0  0  0  0  0  0
  145.7708  130.3281  151.6755 C   0  0  0  0  0  0  0  0  0  0  0  0
  146.3819  131.2003  152.7874 C   0  0  0  0  0  0  0  0  0  0  0  0
  149.4527  133.6933  154.0298 H   0  0  0  0  0  0  0  0  0  0  0  0
  147.8558  133.6453  153.3144 H   0  0  0  0  0  0  0  0  0  0  0  0
  149.2405  133.0144  152.4366 H   0  0  0  0  0  0  0  0  0  0  0  0
  150.5881  131.6860  154.9923 H   0  0  0  0  0  0  0  0  0  0  0  0
  150.6027  131.0567  153.3841 H   0  0  0  0  0  0  0  0  0  0  0  0
  149.9831  130.0651  154.6995 H   0  0  0  0  0  0  0  0  0  0  0  0
  146.7232  131.6883  155.1814 H   0  0  0  0  0  0  0  0  0  0  0  0
  147.9947  130.7987  155.9482 H   0  0  0  0  0  0  0  0  0  0  0  0
  146.2111  132.7701  157.4475 H   0  0  0  0  0  0  0  0  0  0  0  0
  148.3275  134.0293  160.1758 H   0  0  0  0  0  0  0  0  0  0  0  0
  147.6827  133.9060  162.5640 H   0  0  0  0  0  0  0  0  0  0  0  0
  145.5382  132.6508  163.1859 H   0  0  0  0  0  0  0  0  0  0  0  0
  145.2694  129.6660  158.5370 H   0  0  0  0  0  0  0  0  0  0  0  0
  144.2702  129.7499  159.9960 H   0  0  0  0  0  0  0  0  0  0  0  0
  143.3537  129.8905  157.1053 H   0  0  0  0  0  0  0  0  0  0  0  0
  142.6839  128.8862  158.3956 H   0  0  0  0  0  0  0  0  0  0  0  0
  141.4664  131.2426  157.8018 H   0  0  0  0  0  0  0  0  0  0  0  0
  141.7243  130.8152  159.4937 H   0  0  0  0  0  0  0  0  0  0  0  0
  142.8930  132.8463  159.5581 H   0  0  0  0  0  0  0  0  0  0  0  0
  143.2730  132.7840  157.8324 H   0  0  0  0  0  0  0  0  0  0  0  0
  148.8070  128.9448  153.5418 H   0  0  0  0  0  0  0  0  0  0  0  0
  147.2313  129.1070  154.2889 H   0  0  0  0  0  0  0  0  0  0  0  0
  147.7445  128.6481  151.3017 H   0  0  0  0  0  0  0  0  0  0  0  0
  147.1647  127.4579  152.4525 H   0  0  0  0  0  0  0  0  0  0  0  0
  146.2896  130.4889  150.7291 H   0  0  0  0  0  0  0  0  0  0  0  0
  144.7285  130.6041  151.5145 H   0  0  0  0  0  0  0  0  0  0  0  0
  145.7785  131.1364  153.6941 H   0  0  0  0  0  0  0  0  0  0  0  0
  146.3345  132.2283  152.4324 H   0  0  0  0  0  0  0  0  0  0  0  0
  148.2661  130.8839  152.2046 H   0  0  0  0  0  0  0  0  0  0  0  0
  144.2791  131.7037  161.5059 H   0  0  0  0  0  0  0  0  0  0  0  0
  1  2  1  0  0  0  0
  1 26  1  0  0  0  0
  1 27  1  0  0  0  0
  1 28  1  0  0  0  0
  2  3  1  0  0  0  0
  2  4  1  0  0  0  0
  2 20  1  0  0  0  0
  3 29  1  0  0  0  0
  3 30  1  0  0  0  0
  3 31  1  0  0  0  0
  4  5  1  0  0  0  0
  4 32  1  0  0  0  0
  4 33  1  0  0  0  0
  5  6  1  0  0  0  0
  6  7  2  0  0  0  0
  6  8  1  0  0  0  0
  8  9  1  0  0  0  0
  8 34  1  0  0  0  0
  9 14  1  0  0  0  0
  9 10  2  0  0  0  0
 10 11  1  0  0  0  0
 10 35  1  0  0  0  0
 11 12  2  0  0  0  0
 11 36  1  0  0  0  0
 12 13  1  0  0  0  0
 12 37  1  0  0  0  0
 13 14  2  0  0  0  0
 13 55  1  0  0  0  0
 14 15  1  0  0  0  0
 15 19  1  0  0  0  0
 15 16  1  0  0  0  0
 16 17  1  0  0  0  0
 16 38  1  0  0  0  0
 16 39  1  0  0  0  0
 17 18  1  0  0  0  0
 17 40  1  0  0  0  0
 17 41  1  0  0  0  0
 18 19  1  0  0  0  0
 18 42  1  0  0  0  0
 18 43  1  0  0  0  0
 19 44  1  0  0  0  0
 19 45  1  0  0  0  0
 20 25  1  0  0  0  0
 20 21  1  0  0  0  0
 20 54  1  0  0  0  0
 21 22  1  0  0  0  0
 21 46  1  0  0  0  0
 21 47  1  0  0  0  0
 22 23  1  0  0  0  0
 22 48  1  0  0  0  0
 22 49  1  0  0  0  0
 23 24  1  0  0  0  0
 24 25  1  0  0  0  0
 24 50  1  0  0  0  0
 24 51  1  0  0  0  0
 25 52  1  0  0  0  0
 25 53  1  0  0  0  0
M  CHG  1   5  -1
M  CHG  1  13   1
M  CHG  1  20   1
M  END
> <s_m_source_file>
AV-unprocessed.smi

> <i_m_source_file_index>
1794

> <i_lp_mmshare_version>
43012

> <i_f3d_flags>
0

> <s_epik_input>
W0NIMl0xW0NIMl1PW0NIMl1bQ0gyXU4xQyhbQ0gzXSkoW0NIM10pW0NIMl1bTkhdQyg9TylbTkhdYzJbY0hdW2NIXVtjSF1uYzJOM1tDSDJdW0NIMl1bQ0gyXVtDSDJdMw==

> <s_epik_cmdline>
J2VwaWtfcHl0aG9uJywgJy1waCcsICc3LjAnLCAnLXRuJywgJzgnLCAnLW1hJywgJzIwMCcsICctbWV0YWxfYmluZGluZycsICctaW1hZScsICc8aW5maWxlLm1hZT4nLCAnLW9tYWUnLCAnPG91dGZpbGUubWFlPic=

> <r_lp_tautomer_probability>
0.999994

> <r_epik_Ionization_Penalty>
8.57565

> <r_epik_Ionization_Penalty_Charging>
8.57565

> <r_epik_Ionization_Penalty_Neutral>
3.55275e-06

> <r_epik_State_Penalty>
8.56988

> <r_epik_Charging_Adjusted_Penalty>
17.1455

> <i_epik_Tot_Q>
1

> <i_epik_Tot_abs_Q>
3

> <r_epik_Metal_State_Penalty>
4.56715

> <b_epik_Metal_Only>
1

> <s_lp_Force_Field>
OPLS_2005

> <r_lp_Energy>
59.2957

> <b_lp_Chiralities_Consistent>
1

> <s_lp_Variant>
AV-unprocessed.smi:1794-5

> <Gold.Version>
5.8.1

> <Gold.Id.Protein>
6NUR|6NUR_protein|mol2

> <Gold.PLP.Fitness>
34.6981

> <Gold.PLP.PLP>
-31.6329

> <Gold.PLP.part.hbond>
-2.0000

> <Gold.PLP.part.metal>
0.0000

> <Gold.PLP.part.buried>
-5.1189

> <Gold.PLP.part.nonpolar>
-24.5353

> <Gold.PLP.part.repulsive>
0.1512

> <Gold.PLP.ligand.clash>
0.0000

> <Gold.PLP.ligand.torsion>
1.7719

> <Gold.PLP.Chemscore.Hbond>
2.0000

> <Gold.PLP.Chemscore.CHOScore>
0.0000

> <Gold.PLP.Chemscore.Metal>
0.0000

> <Gold.Chemscore.Hbonds>
donor molecule, donor type, donor heavy atom, donor atom, acceptor molecule, acceptor atom, score
      L1  H    20    54       P1 10747  0.98
      P1  H  6896  6908       L1     7  0.93

> <Gold.PLP.Chemscore.Internal.Correction>
0.6089

> <Gold.Rescore>
     Score         DG    S(hbond)    S(metal)    S(lipo)     H(rot)  DE(clash)    DE(int)     intcor
     14.87     -17.91       1.96        0.00      85.46       1.60       0.00       3.03       ----

> <Gold.Chemscore.Fitness>
14.8740

> <Gold.Chemscore.DG>
-17.9104

> <Gold.Chemscore.ZeroCoef>
-5.4800

> <Gold.Chemscore.Hbond>
1.9576

> <Gold.Chemscore.Metal>
0.0000

> <Gold.Chemscore.Lipo>
85.4646

> <Gold.Chemscore.Internal_Hbond>
0.0000

> <Gold.Chemscore.DEClash>
0.0029

> <Gold.Chemscore.DEInternal>
3.0335

> <Gold.Chemscore.Rot>
1.6044

> <Gold.Chemscore.Internal.Correction>
   9.000000E+99

> <Gold.Chemscore.Hbonds>
donor molecule, donor type, donor heavy atom, donor atom, acceptor molecule, acceptor atom, score
      L1  H    20    54       P1 10747  0.90
      P1  H  6896  6908       L1     7  0.88

> <Gold.Chemscore.Hbond.Weighted>
-6.5382

> <Gold.Chemscore.Metal.Weighted>
-0.0000

> <Gold.Chemscore.Lipo.Weighted>
-9.9994

> <Gold.Chemscore.Internal_Hbond.Weighted>
0.0000

> <Gold.Chemscore.DEClash.Weighted>
0.0029

> <Gold.Chemscore.DEInternal.Weighted>
3.0335

> <Gold.Chemscore.Rot.Weighted>
4.1072

> <Gold.Chemscore.Internal.Correction.Weighted>
   9.000000E+99

> <Gold.Protein.RotatedTorsions>
[ 6907 6896 6895 6894 ] final  110.76 input  -60.11 | X-H torsion
[ 7974 7965 7964 7962 ] final  160.13 input  175.53 | X-H torsion
[ 8008 7997 7996 7995 ] final   76.47 input   59.86 | X-H torsion
[ 10167 10162 10161 10158 ] final   99.05 input  -65.29 | X-H torsion
[ 10718 10713 10712 10709 ] final -113.00 input   66.30 | X-H torsion
[ 10763 10752 10751 10750 ] final   19.06 input  -60.55 | X-H torsion
[ 11005 11000 10999 10996 ] final -109.77 input  -57.11 | X-H torsion

> <Gold.Protein.ActiveResidues>
 VAL166  LYS551  ARG553  GLY616  TRP617  ASP618  TYR619  PRO620  LYS621  CYS622 
 ASP623  PHE694  ASN695  SER759  ASP760  ASP761  ALA762  ILE779  LEU786  VAL792 
 PHE793  MET794  SER795  GLU796  ALA797  LYS798  CYS799  TRP800  GLU811  SER814 

> <Gold.Protein.RotatedAtoms>
  152.5003  133.8754  159.7319 H   0  0  0  0  0  0  0  0  0  0  0  0  # atno 6907 bound_to 6896
  150.9230  133.6849  159.2834 H   0  0  0  0  0  0  0  0  0  0  0  0  # atno 6908 bound_to 6896
  151.4219  135.1003  159.9669 H   0  0  0  0  0  0  0  0  0  0  0  0  # atno 6909 bound_to 6896
  144.7753  139.7713  143.6281 H   0  0  0  0  0  0  0  0  0  0  0  0  # atno 7974 bound_to 7965
  155.8278  140.3467  155.5553 H   0  0  0  0  0  0  0  0  0  0  0  0  # atno 8008 bound_to 7997
  155.8274  140.0922  157.1833 H   0  0  0  0  0  0  0  0  0  0  0  0  # atno 8009 bound_to 7997
  154.4004  140.1418  156.3560 H   0  0  0  0  0  0  0  0  0  0  0  0  # atno 8010 bound_to 7997
  139.7652  144.6941  151.0234 H   0  0  0  0  0  0  0  0  0  0  0  0  # atno 10167 bound_to 10162
  156.0740  130.5950  150.8584 H   0  0  0  0  0  0  0  0  0  0  0  0  # atno 10718 bound_to 10713
  153.1194  135.6715  153.9361 H   0  0  0  0  0  0  0  0  0  0  0  0  # atno 10763 bound_to 10752
  153.8881  135.3050  155.3448 H   0  0  0  0  0  0  0  0  0  0  0  0  # atno 10764 bound_to 10752
  154.7607  135.4989  153.9538 H   0  0  0  0  0  0  0  0  0  0  0  0  # atno 10765 bound_to 10752
  141.0829  133.9189  157.2249 H   0  0  0  0  0  0  0  0  0  0  0  0  # atno 11005 bound_to 11000
  146.1929  139.5178  142.9793 LP  0  0  0  0  0  0  0  0  0  0  0  0  # atno 17320 bound_to 7965
  145.6203  141.0323  143.1918 LP  0  0  0  0  0  0  0  0  0  0  0  0  # atno 17321 bound_to 7965
  140.7810  143.4651  151.0224 LP  0  0  0  0  0  0  0  0  0  0  0  0  # atno 17342 bound_to 10162
  139.8336  143.7658  152.3180 LP  0  0  0  0  0  0  0  0  0  0  0  0  # atno 17343 bound_to 10162
  157.5826  131.0946  150.9247 LP  0  0  0  0  0  0  0  0  0  0  0  0  # atno 17370 bound_to 10713
  156.9440  130.5395  149.5281 LP  0  0  0  0  0  0  0  0  0  0  0  0  # atno 17371 bound_to 10713
  139.9644  135.0146  156.9349 LP  0  0  0  0  0  0  0  0  0  0  0  0  # atno 17394 bound_to 11000
  140.5428  134.0703  155.7346 LP  0  0  0  0  0  0  0  0  0  0  0  0  # atno 17395 bound_to 11000

$$$$
