AV-unprocessed.smi:2025|AV-procd|sdf|8198|dock4
  -GOLD-   2272010453D 1   1.00000     0.00000
 Structure written by MMmdl.
 39 40  0  0  0  0  0  0  0  0  1 V2000
  145.3356  128.9894  152.0987 C   0  0  0  0  0  0  0  0  0  0  0  0
  145.8620  130.3926  152.4332 C   0  0  1  0  0  0  0  0  0  0  0  0
  147.2641  130.2852  152.8334 N   0  0  0  0  0  0  0  0  0  0  0  0
  147.7205  130.1853  154.0914 C   0  0  0  0  0  0  0  0  0  0  0  0
  146.9889  130.1940  155.0821 O   0  0  0  0  0  0  0  0  0  0  0  0
  149.2441  130.0896  154.2467 C   0  0  0  0  0  0  0  0  0  0  0  0
  149.8120  131.2041  155.0159 N   0  0  0  0  0  0  0  0  0  0  0  0
  150.5679  130.9438  156.1443 C   0  0  0  0  0  0  0  0  0  0  0  0
  151.1407  131.9092  156.8958 C   0  0  0  0  0  0  0  0  0  0  0  0
  150.9856  133.3173  156.5513 C   0  0  0  0  0  0  0  0  0  0  0  0
  151.5075  134.2272  157.1963 O   0  0  0  0  0  0  0  0  0  0  0  0
  150.1943  133.5563  155.4022 N   0  0  0  0  0  0  0  0  0  0  0  0
  149.9982  134.9251  154.9712 C   0  0  0  0  0  0  0  0  0  0  0  0
  149.6134  132.5412  154.6098 C   0  0  0  0  0  0  0  0  0  0  0  0
  148.9609  132.7985  153.5951 O   0  0  0  0  0  0  0  0  0  0  0  0
  145.7150  131.3620  151.2426 C   0  0  2  0  0  0  0  0  0  0  0  0
  146.0940  132.8138  151.5416 C   0  0  0  0  0  0  0  0  0  0  0  0
  145.3314  133.5552  150.4683 C   0  0  0  0  0  0  0  0  0  0  0  0
  144.0324  132.7574  150.3984 C   0  0  0  0  0  0  0  0  0  0  0  0
  144.3555  131.4339  150.8190 O   0  0  0  0  0  0  0  0  0  0  0  0
  144.2783  129.0179  151.8339 H   0  0  0  0  0  0  0  0  0  0  0  0
  145.4401  128.3184  152.9519 H   0  0  0  0  0  0  0  0  0  0  0  0
  145.8766  128.5497  151.2603 H   0  0  0  0  0  0  0  0  0  0  0  0
  145.2664  130.7764  153.2631 H   0  0  0  0  0  0  0  0  0  0  0  0
  147.9445  130.2780  152.0875 H   0  0  0  0  0  0  0  0  0  0  0  0
  149.5127  129.1392  154.7113 H   0  0  0  0  0  0  0  0  0  0  0  0
  149.6847  130.0637  153.2493 H   0  0  0  0  0  0  0  0  0  0  0  0
  150.7163  129.9151  156.4388 H   0  0  0  0  0  0  0  0  0  0  0  0
  151.7249  131.6361  157.7623 H   0  0  0  0  0  0  0  0  0  0  0  0
  148.9698  135.0385  154.6244 H   0  0  0  0  0  0  0  0  0  0  0  0
  150.7137  135.1098  154.1689 H   0  0  0  0  0  0  0  0  0  0  0  0
  150.1518  135.6120  155.8038 H   0  0  0  0  0  0  0  0  0  0  0  0
  146.3072  131.0094  150.3964 H   0  0  0  0  0  0  0  0  0  0  0  0
  145.7337  133.1105  152.5278 H   0  0  0  0  0  0  0  0  0  0  0  0
  147.1690  132.9920  151.5013 H   0  0  0  0  0  0  0  0  0  0  0  0
  145.1735  134.6084  150.7015 H   0  0  0  0  0  0  0  0  0  0  0  0
  145.8651  133.4904  149.5193 H   0  0  0  0  0  0  0  0  0  0  0  0
  143.2938  133.1674  151.0880 H   0  0  0  0  0  0  0  0  0  0  0  0
  143.6000  132.7613  149.3978 H   0  0  0  0  0  0  0  0  0  0  0  0
  1  2  1  0  0  0  0
  1 21  1  0  0  0  0
  1 22  1  0  0  0  0
  1 23  1  0  0  0  0
  2  3  1  0  0  0  0
  2 16  1  0  0  0  0
  2 24  1  0  0  0  0
  3  4  1  0  0  0  0
  3 25  1  0  0  0  0
  4  5  2  0  0  0  0
  4  6  1  0  0  0  0
  6  7  1  0  0  0  0
  6 26  1  0  0  0  0
  6 27  1  0  0  0  0
  7 14  1  0  0  0  0
  7  8  1  0  0  0  0
  8  9  2  0  0  0  0
  8 28  1  0  0  0  0
  9 10  1  0  0  0  0
  9 29  1  0  0  0  0
 10 11  2  0  0  0  0
 10 12  1  0  0  0  0
 12 13  1  0  0  0  0
 12 14  1  0  0  0  0
 13 30  1  0  0  0  0
 13 31  1  0  0  0  0
 13 32  1  0  0  0  0
 14 15  2  0  0  0  0
 16 20  1  0  0  0  0
 16 17  1  0  0  0  0
 16 33  1  0  0  0  0
 17 18  1  0  0  0  0
 17 34  1  0  0  0  0
 17 35  1  0  0  0  0
 18 19  1  0  0  0  0
 18 36  1  0  0  0  0
 18 37  1  0  0  0  0
 19 20  1  0  0  0  0
 19 38  1  0  0  0  0
 19 39  1  0  0  0  0
M  END
> <s_m_source_file>
AV-unprocessed.smi

> <i_m_source_file_index>
2025

> <i_lp_mmshare_version>
43012

> <i_f3d_flags>
0

> <s_epik_input>
TzFbQ0gyXVtDSDJdW0NIMl1bQ0BIXTFbQ0BIXShbQ0gzXSlbTkhdQyg9TylbQ0gyXW4yW2NIXVtjSF1jKD1PKW4oW0NIM10pYzI9Tw==

> <s_epik_cmdline>
J2VwaWtfcHl0aG9uJywgJy1waCcsICc3LjAnLCAnLXRuJywgJzgnLCAnLW1hJywgJzIwMCcsICctbWV0YWxfYmluZGluZycsICctaW1hZScsICc8aW5maWxlLm1hZT4nLCAnLW9tYWUnLCAnPG91dGZpbGUubWFlPic=

> <r_lp_tautomer_probability>
1

> <r_epik_Ionization_Penalty>
3.54787e-08

> <r_epik_Ionization_Penalty_Charging>
1.24654e-08

> <r_epik_Ionization_Penalty_Neutral>
2.30132e-08

> <r_epik_State_Penalty>
-0

> <r_epik_Charging_Adjusted_Penalty>
1.24654e-08

> <i_epik_Tot_Q>
0

> <i_epik_Tot_abs_Q>
0

> <r_epik_Metal_State_Penalty>
-0

> <b_epik_Metal_Only>
0

> <s_lp_Force_Field>
OPLS_2005

> <r_lp_Energy>
25.7305

> <b_lp_Chiralities_Consistent>
1

> <s_lp_Variant>
AV-unprocessed.smi:2025-2

> <Gold.Version>
5.8.1

> <Gold.Id.Protein>
6NUR|6NUR_protein|mol2

> <Gold.PLP.Fitness>
40.5032

> <Gold.PLP.PLP>
-37.7461

> <Gold.PLP.part.hbond>
-2.3029

> <Gold.PLP.part.metal>
0.0000

> <Gold.PLP.part.buried>
-6.8144

> <Gold.PLP.part.nonpolar>
-29.1228

> <Gold.PLP.part.repulsive>
0.3783

> <Gold.PLP.ligand.clash>
0.0000

> <Gold.PLP.ligand.torsion>
0.3624

> <Gold.PLP.Chemscore.Hbond>
1.1544

> <Gold.PLP.Chemscore.CHOScore>
0.0000

> <Gold.PLP.Chemscore.Metal>
0.0000

> <Gold.Chemscore.Hbonds>
donor molecule, donor type, donor heavy atom, donor atom, acceptor molecule, acceptor atom, score
      L1  H     3    25       P1 10747  0.71
      P1  H  6896  6909       L1    11  0.16

> <Gold.PLP.Chemscore.Internal.Correction>
0.0185

> <Gold.Rescore>
     Score         DG    S(hbond)    S(metal)    S(lipo)     H(rot)  DE(clash)    DE(int)     intcor
     14.14     -14.62       1.98        0.00      61.45       1.82       0.02       0.46       ----

> <Gold.Chemscore.Fitness>
14.1374

> <Gold.Chemscore.DG>
-14.6187

> <Gold.Chemscore.ZeroCoef>
-5.4800

> <Gold.Chemscore.Hbond>
1.9805

> <Gold.Chemscore.Metal>
0.0000

> <Gold.Chemscore.Lipo>
61.4540

> <Gold.Chemscore.Internal_Hbond>
0.0000

> <Gold.Chemscore.DEClash>
0.0193

> <Gold.Chemscore.DEInternal>
0.4619

> <Gold.Chemscore.Rot>
1.8228

> <Gold.Chemscore.Internal.Correction>
   9.000000E+99

> <Gold.Chemscore.Hbonds>
donor molecule, donor type, donor heavy atom, donor atom, acceptor molecule, acceptor atom, score
      L1  H     3    25       P1 10747  0.70
      P1  H  6896  6909       L1    11  0.04

> <Gold.Chemscore.Hbond.Weighted>
-6.6150

> <Gold.Chemscore.Metal.Weighted>
-0.0000

> <Gold.Chemscore.Lipo.Weighted>
-7.1901

> <Gold.Chemscore.Internal_Hbond.Weighted>
0.0000

> <Gold.Chemscore.DEClash.Weighted>
0.0193

> <Gold.Chemscore.DEInternal.Weighted>
0.4619

> <Gold.Chemscore.Rot.Weighted>
4.6665

> <Gold.Chemscore.Internal.Correction.Weighted>
   9.000000E+99

> <Gold.Protein.RotatedTorsions>
[ 6907 6896 6895 6894 ] final  -29.75 input  -60.11 | X-H torsion
[ 7974 7965 7964 7962 ] final  148.86 input  175.53 | X-H torsion
[ 8008 7997 7996 7995 ] final  106.18 input   59.86 | X-H torsion
[ 10167 10162 10161 10158 ] final -117.56 input  -65.29 | X-H torsion
[ 10718 10713 10712 10709 ] final  -24.17 input   66.30 | X-H torsion
[ 10763 10752 10751 10750 ] final   19.36 input  -60.55 | X-H torsion
[ 11005 11000 10999 10996 ] final   40.46 input  -57.11 | X-H torsion

> <Gold.Protein.ActiveResidues>
 VAL166  LYS551  ARG553  GLY616  TRP617  ASP618  TYR619  PRO620  LYS621  CYS622 
 ASP623  PHE694  ASN695  SER759  ASP760  ASP761  ALA762  ILE779  LEU786  VAL792 
 PHE793  MET794  SER795  GLU796  ALA797  LYS798  CYS799  TRP800  GLU811  SER814 

> <Gold.Protein.RotatedAtoms>
  151.1150  135.0048  159.8511 H   0  0  0  0  0  0  0  0  0  0  0  0  # atno 6907 bound_to 6896
  152.5445  134.1791  159.8638 H   0  0  0  0  0  0  0  0  0  0  0  0  # atno 6908 bound_to 6896
  151.1844  133.4660  159.2627 H   0  0  0  0  0  0  0  0  0  0  0  0  # atno 6909 bound_to 6896
  144.8481  139.6208  143.5986 H   0  0  0  0  0  0  0  0  0  0  0  0  # atno 7974 bound_to 7965
  156.1721  140.3117  155.8993 H   0  0  0  0  0  0  0  0  0  0  0  0  # atno 8008 bound_to 7997
  155.3565  140.0474  157.3063 H   0  0  0  0  0  0  0  0  0  0  0  0  # atno 8009 bound_to 7997
  154.5252  140.2212  155.8914 H   0  0  0  0  0  0  0  0  0  0  0  0  # atno 8010 bound_to 7997
  140.0670  143.4913  152.2000 H   0  0  0  0  0  0  0  0  0  0  0  0  # atno 10167 bound_to 10162
  156.4812  130.4545  149.6810 H   0  0  0  0  0  0  0  0  0  0  0  0  # atno 10718 bound_to 10713
  153.1168  135.6710  153.9403 H   0  0  0  0  0  0  0  0  0  0  0  0  # atno 10763 bound_to 10752
  153.8930  135.3044  155.3449 H   0  0  0  0  0  0  0  0  0  0  0  0  # atno 10764 bound_to 10752
  154.7584  135.5000  153.9496 H   0  0  0  0  0  0  0  0  0  0  0  0  # atno 10765 bound_to 10752
  140.1928  134.3965  155.8137 H   0  0  0  0  0  0  0  0  0  0  0  0  # atno 11005 bound_to 11000
  146.2762  139.6758  142.9261 LP  0  0  0  0  0  0  0  0  0  0  0  0  # atno 17320 bound_to 7965
  145.4555  141.0430  143.2780 LP  0  0  0  0  0  0  0  0  0  0  0  0  # atno 17321 bound_to 7965
  139.5859  144.7530  151.3522 LP  0  0  0  0  0  0  0  0  0  0  0  0  # atno 17342 bound_to 10162
  140.7144  143.7306  150.7627 LP  0  0  0  0  0  0  0  0  0  0  0  0  # atno 17343 bound_to 10162
  156.3520  130.7437  151.2397 LP  0  0  0  0  0  0  0  0  0  0  0  0  # atno 17370 bound_to 10713
  157.7483  131.0374  150.4456 LP  0  0  0  0  0  0  0  0  0  0  0  0  # atno 17371 bound_to 10713
  141.2226  133.7055  156.8125 LP  0  0  0  0  0  0  0  0  0  0  0  0  # atno 17394 bound_to 11000
  140.2140  134.8806  157.3306 LP  0  0  0  0  0  0  0  0  0  0  0  0  # atno 17395 bound_to 11000

$$$$
