AV-unprocessed.smi:223|AV-procd|sdf|1704|dock1
  -GOLD-   2262020163D 1   1.00000     0.00000
 Structure written by MMmdl.
 47 50  0  0  0  0  0  0  0  0  1 V2000
  148.7518  137.6071  155.1257 C   0  0  0  0  0  0  0  0  0  0  0  0
  149.0123  139.0530  154.6884 C   0  0  1  0  0  0  0  0  0  0  0  0
  150.4430  139.3773  154.8124 C   0  0  0  0  0  0  0  0  0  0  0  0
  151.5672  139.6326  154.9116 N   0  0  0  0  0  0  0  0  0  0  0  0
  148.4700  139.3076  153.2661 C   0  0  0  0  0  0  0  0  0  0  0  0
  147.0833  139.7733  153.2324 N   0  0  0  0  0  0  0  0  0  0  0  0
  146.1143  138.8272  153.3640 C   0  0  0  0  0  0  0  0  0  0  0  0
  145.3213  138.8375  154.4692 N   0  0  0  0  0  0  0  0  0  0  0  0
  144.3799  137.9057  154.6388 C   0  0  0  0  0  0  0  0  0  0  0  0
  144.0624  136.8871  153.8393 N   0  0  0  0  0  0  0  0  0  0  0  0
  144.8423  136.8745  152.7211 C   0  0  0  0  0  0  0  0  0  0  0  0
  145.8844  137.7943  152.4084 C   0  0  0  0  0  0  0  0  0  0  0  0
  146.4538  137.4564  151.1859 N   0  0  0  0  0  0  0  0  0  0  0  0
  145.7953  136.3969  150.8045 C   0  0  0  0  0  0  0  0  0  0  0  0
  144.7998  135.9852  151.6606 N   0  0  0  0  0  0  0  0  0  0  0  0
  143.9162  134.8416  151.4861 C   0  0  0  0  0  0  0  0  0  0  0  0
  144.3869  133.8298  150.4096 C   0  0  1  0  0  0  0  0  0  0  0  0
  144.2274  134.4027  149.1250 O   0  0  0  0  0  0  0  0  0  0  0  0
  145.8369  133.3677  150.5734 C   0  0  0  0  0  0  0  0  0  0  0  0
  145.6927  132.0146  151.2551 C   0  0  0  0  0  0  0  0  0  0  0  0
  144.5540  131.4725  150.6115 O   0  0  0  0  0  0  0  0  0  0  0  0
  143.5903  132.5111  150.4877 C   0  0  0  0  0  0  0  0  0  0  0  0
  146.8095  141.1140  153.7448 C   0  0  0  0  0  0  0  0  0  0  0  0
  147.9692  142.0372  154.0458 C   0  0  0  0  0  0  0  0  0  0  0  0
  147.1734  141.4294  155.1766 C   0  0  0  0  0  0  0  0  0  0  0  0
  149.1067  137.4370  156.1426 H   0  0  0  0  0  0  0  0  0  0  0  0
  149.2620  136.8990  154.4721 H   0  0  0  0  0  0  0  0  0  0  0  0
  147.6864  137.3762  155.1047 H   0  0  0  0  0  0  0  0  0  0  0  0
  148.4947  139.7043  155.3928 H   0  0  0  0  0  0  0  0  0  0  0  0
  149.0967  140.0539  152.7766 H   0  0  0  0  0  0  0  0  0  0  0  0
  148.5668  138.4100  152.6574 H   0  0  0  0  0  0  0  0  0  0  0  0
  143.7995  137.9874  155.5459 H   0  0  0  0  0  0  0  0  0  0  0  0
  146.0163  135.8869  149.8780 H   0  0  0  0  0  0  0  0  0  0  0  0
  143.8163  134.3418  152.4506 H   0  0  0  0  0  0  0  0  0  0  0  0
  142.9234  135.2180  151.2358 H   0  0  0  0  0  0  0  0  0  0  0  0
  145.0662  134.4016  148.6900 H   0  0  0  0  0  0  0  0  0  0  0  0
  146.3072  133.2175  149.6001 H   0  0  0  0  0  0  0  0  0  0  0  0
  146.4702  134.0519  151.1353 H   0  0  0  0  0  0  0  0  0  0  0  0
  146.5701  131.3805  151.1269 H   0  0  0  0  0  0  0  0  0  0  0  0
  145.4979  132.1291  152.3226 H   0  0  0  0  0  0  0  0  0  0  0  0
  142.9480  132.4892  151.3693 H   0  0  0  0  0  0  0  0  0  0  0  0
  142.9541  132.3372  149.6187 H   0  0  0  0  0  0  0  0  0  0  0  0
  145.9107  141.5942  153.3641 H   0  0  0  0  0  0  0  0  0  0  0  0
  148.9767  141.6594  153.8810 H   0  0  0  0  0  0  0  0  0  0  0  0
  147.8299  143.0970  153.8436 H   0  0  0  0  0  0  0  0  0  0  0  0
  146.5049  142.0850  155.7309 H   0  0  0  0  0  0  0  0  0  0  0  0
  147.6537  140.6490  155.7638 H   0  0  0  0  0  0  0  0  0  0  0  0
  1  2  1  0  0  0  0
  1 26  1  0  0  0  0
  1 27  1  0  0  0  0
  1 28  1  0  0  0  0
  2  3  1  0  0  0  0
  2  5  1  0  0  0  0
  2 29  1  0  0  0  0
  3  4  3  0  0  0  0
  5  6  1  0  0  0  0
  5 30  1  0  0  0  0
  5 31  1  0  0  0  0
  6  7  1  0  0  0  0
  6 23  1  0  0  0  0
  7 12  1  0  0  0  0
  7  8  2  0  0  0  0
  8  9  1  0  0  0  0
  9 10  2  0  0  0  0
  9 32  1  0  0  0  0
 10 11  1  0  0  0  0
 11 15  1  0  0  0  0
 11 12  2  0  0  0  0
 12 13  1  0  0  0  0
 13 14  2  0  0  0  0
 14 15  1  0  0  0  0
 14 33  1  0  0  0  0
 15 16  1  0  0  0  0
 16 17  1  0  0  0  0
 16 34  1  0  0  0  0
 16 35  1  0  0  0  0
 17 22  1  0  0  0  0
 17 18  1  0  0  0  0
 17 19  1  0  0  0  0
 18 36  1  0  0  0  0
 19 20  1  0  0  0  0
 19 37  1  0  0  0  0
 19 38  1  0  0  0  0
 20 21  1  0  0  0  0
 20 39  1  0  0  0  0
 20 40  1  0  0  0  0
 21 22  1  0  0  0  0
 22 41  1  0  0  0  0
 22 42  1  0  0  0  0
 23 25  1  0  0  0  0
 23 24  1  0  0  0  0
 23 43  1  0  0  0  0
 24 25  1  0  0  0  0
 24 44  1  0  0  0  0
 24 45  1  0  0  0  0
 25 46  1  0  0  0  0
 25 47  1  0  0  0  0
M  END
> <s_m_source_file>
AV-unprocessed.smi

> <i_m_source_file_index>
223

> <i_lp_mmshare_version>
43012

> <i_f3d_flags>
0

> <s_epik_input>
TiNDW0NAQEhdKFtDSDNdKVtDSDJdTihbQ0hdMVtDSDJdW0NIMl0xKWMobltjSF1uMiljKGMyMyluW2NIXW4zW0NIMl1bQ0BAXTQoW09IXSlbQ0gyXVtDSDJdT1tDSDJdNA==

> <s_epik_cmdline>
J2VwaWtfcHl0aG9uJywgJy1waCcsICc3LjAnLCAnLXRuJywgJzgnLCAnLW1hJywgJzIwMCcsICctbWV0YWxfYmluZGluZycsICctaW1hZScsICc8aW5maWxlLm1hZT4nLCAnLW9tYWUnLCAnPG91dGZpbGUubWFlPic=

> <r_lp_tautomer_probability>
1

> <r_epik_Ionization_Penalty>
0.000756152

> <r_epik_Ionization_Penalty_Charging>
0

> <r_epik_Ionization_Penalty_Neutral>
0.000756152

> <r_epik_State_Penalty>
0.00038036

> <r_epik_Charging_Adjusted_Penalty>
0.00038036

> <i_epik_Tot_Q>
0

> <i_epik_Tot_abs_Q>
0

> <r_epik_Metal_State_Penalty>
-0

> <b_epik_Metal_Only>
0

> <s_lp_Force_Field>
OPLS_2005

> <r_lp_Energy>
37.1098

> <b_lp_Chiralities_Consistent>
1

> <s_lp_Variant>
AV-unprocessed.smi:223-2

> <Gold.Version>
5.8.1

> <Gold.Id.Protein>
6NUR|6NUR_protein|mol2

> <Gold.PLP.Fitness>
45.1638

> <Gold.PLP.PLP>
-37.6916

> <Gold.PLP.part.hbond>
-3.2899

> <Gold.PLP.part.metal>
0.0000

> <Gold.PLP.part.buried>
0.0278

> <Gold.PLP.part.nonpolar>
-36.6458

> <Gold.PLP.part.repulsive>
2.5421

> <Gold.PLP.ligand.clash>
0.0000

> <Gold.PLP.ligand.torsion>
2.1418

> <Gold.PLP.Chemscore.Hbond>
2.4538

> <Gold.PLP.Chemscore.CHOScore>
1.0000

> <Gold.PLP.Chemscore.Metal>
0.0000

> <Gold.Chemscore.Hbonds>
donor molecule, donor type, donor heavy atom, donor atom, acceptor molecule, acceptor atom, score
      L1  H    18    36       P1  7921  1.00
      P1  H  7954  7966       L1    13  0.63
      P1  H  7989  7998       L1     4  0.85
      L1  C    14    33       P1  7921  1.00

> <Gold.PLP.Chemscore.Internal.Correction>
1.3946

> <Gold.Rescore>
     Score         DG    S(hbond)    S(metal)    S(lipo)     H(rot)  DE(clash)    DE(int)     intcor
      7.24     -13.54       1.69        0.00      79.93       2.72       3.07       3.23       ----

> <Gold.Chemscore.Fitness>
7.2429

> <Gold.Chemscore.DG>
-13.5370

> <Gold.Chemscore.ZeroCoef>
-5.4800

> <Gold.Chemscore.Hbond>
1.6948

> <Gold.Chemscore.Metal>
0.0000

> <Gold.Chemscore.Lipo>
79.9338

> <Gold.Chemscore.Internal_Hbond>
0.0000

> <Gold.Chemscore.DEClash>
3.0656

> <Gold.Chemscore.DEInternal>
3.2286

> <Gold.Chemscore.Rot>
2.7171

> <Gold.Chemscore.Internal.Correction>
   9.000000E+99

> <Gold.Chemscore.Hbonds>
donor molecule, donor type, donor heavy atom, donor atom, acceptor molecule, acceptor atom, score
      L1  H    18    36       P1  7921  0.94
      P1  H  7954  7966       L1    13  0.51
      P1  H  7989  7998       L1     4  0.15

> <Gold.Chemscore.Hbond.Weighted>
-5.6606

> <Gold.Chemscore.Metal.Weighted>
-0.0000

> <Gold.Chemscore.Lipo.Weighted>
-9.3523

> <Gold.Chemscore.Internal_Hbond.Weighted>
0.0000

> <Gold.Chemscore.DEClash.Weighted>
3.0656

> <Gold.Chemscore.DEInternal.Weighted>
3.2286

> <Gold.Chemscore.Rot.Weighted>
6.9558

> <Gold.Chemscore.Internal.Correction.Weighted>
   9.000000E+99

> <Gold.Protein.RotatedTorsions>
[ 6907 6896 6895 6894 ] final  131.23 input  -60.11 | X-H torsion
[ 7974 7965 7964 7962 ] final   68.20 input  175.53 | X-H torsion
[ 8008 7997 7996 7995 ] final -102.32 input   59.86 | X-H torsion
[ 10167 10162 10161 10158 ] final   89.36 input  -65.29 | X-H torsion
[ 10718 10713 10712 10709 ] final -145.32 input   66.30 | X-H torsion
[ 10763 10752 10751 10750 ] final  -67.80 input  -60.55 | X-H torsion
[ 11005 11000 10999 10996 ] final  118.67 input  -57.11 | X-H torsion

> <Gold.Protein.ActiveResidues>
 VAL166  LYS551  ARG553  GLY616  TRP617  ASP618  TYR619  PRO620  LYS621  CYS622 
 ASP623  PHE694  ASN695  SER759  ASP760  ASP761  ALA762  ILE779  LEU786  VAL792 
 PHE793  MET794  SER795  GLU796  ALA797  LYS798  CYS799  TRP800  GLU811  SER814 

> <Gold.Protein.RotatedAtoms>
  152.3447  133.6108  159.5901 H   0  0  0  0  0  0  0  0  0  0  0  0  # atno 6907 bound_to 6896
  150.7500  133.9668  159.3542 H   0  0  0  0  0  0  0  0  0  0  0  0  # atno 6908 bound_to 6896
  151.7527  135.0829  160.0384 H   0  0  0  0  0  0  0  0  0  0  0  0  # atno 6909 bound_to 6896
  145.8054  139.3004  143.1130 H   0  0  0  0  0  0  0  0  0  0  0  0  # atno 7974 bound_to 7965
  154.8549  140.0429  157.1628 H   0  0  0  0  0  0  0  0  0  0  0  0  # atno 8008 bound_to 7997
  154.8902  140.2985  155.5354 H   0  0  0  0  0  0  0  0  0  0  0  0  # atno 8009 bound_to 7997
  156.2997  140.2395  156.3917 H   0  0  0  0  0  0  0  0  0  0  0  0  # atno 8010 bound_to 7997
  139.8580  144.6559  150.9091 H   0  0  0  0  0  0  0  0  0  0  0  0  # atno 10167 bound_to 10162
  156.3810  130.7837  151.2029 H   0  0  0  0  0  0  0  0  0  0  0  0  # atno 10718 bound_to 10713
  154.3797  135.6077  153.5784 H   0  0  0  0  0  0  0  0  0  0  0  0  # atno 10763 bound_to 10752
  152.9788  135.5858  154.4424 H   0  0  0  0  0  0  0  0  0  0  0  0  # atno 10764 bound_to 10752
  154.4192  135.2845  155.1964 H   0  0  0  0  0  0  0  0  0  0  0  0  # atno 10765 bound_to 10752
  139.9118  134.9622  156.7538 H   0  0  0  0  0  0  0  0  0  0  0  0  # atno 11005 bound_to 11000
  145.9833  140.8664  143.0103 LP  0  0  0  0  0  0  0  0  0  0  0  0  # atno 17320 bound_to 7965
  144.6763  140.2112  143.7377 LP  0  0  0  0  0  0  0  0  0  0  0  0  # atno 17321 bound_to 7965
  140.7779  143.3768  151.1548 LP  0  0  0  0  0  0  0  0  0  0  0  0  # atno 17342 bound_to 10162
  139.7401  143.8938  152.3047 LP  0  0  0  0  0  0  0  0  0  0  0  0  # atno 17343 bound_to 10162
  157.7492  131.0344  150.4315 LP  0  0  0  0  0  0  0  0  0  0  0  0  # atno 17370 bound_to 10713
  156.4559  130.4021  149.6606 LP  0  0  0  0  0  0  0  0  0  0  0  0  # atno 17371 bound_to 10713
  140.6752  133.9524  155.7879 LP  0  0  0  0  0  0  0  0  0  0  0  0  # atno 17394 bound_to 11000
  141.0549  134.0431  157.3735 LP  0  0  0  0  0  0  0  0  0  0  0  0  # atno 17395 bound_to 11000

$$$$
