AV-unprocessed.smi:473|AV-procd|sdf|2662|dock7
  -GOLD-   2262023 73D 1   1.00000     0.00000
 Structure written by MMmdl.
 42 44  0  0  0  0  0  0  0  0  1 V2000
  151.9592  144.6904  160.4212 C   0  0  0  0  0  0  0  0  0  0  0  0
  152.6181  143.3468  160.6801 C   0  0  0  0  0  0  0  0  0  0  0  0
  152.8215  142.4606  159.5980 C   0  0  0  0  0  0  0  0  0  0  0  0
  153.4358  141.2046  159.7961 C   0  0  0  0  0  0  0  0  0  0  0  0
  153.7356  140.1973  158.8948 N   0  0  0  0  0  0  0  0  0  0  0  0
  154.3013  139.2894  159.6852 C   0  0  0  0  0  0  0  0  0  0  0  0
  154.4040  139.5901  160.9940 N   0  0  0  0  0  0  0  0  0  0  0  0
  154.9812  138.7653  162.0399 C   0  0  0  0  0  0  0  0  0  0  0  0
  154.0940  137.5540  162.3907 C   0  0  1  0  0  0  0  0  0  0  0  0
  153.9852  136.6560  161.3039 O   0  0  0  0  0  0  0  0  0  0  0  0
  154.5680  136.7830  163.6338 C   0  0  0  0  0  0  0  0  0  0  0  0
  154.3281  135.3954  163.4634 O   0  0  0  0  0  0  0  0  0  0  0  0
  154.8383  134.6093  164.5278 C   0  0  0  0  0  0  0  0  0  0  0  0
  154.0673  133.3277  164.5614 C   0  0  0  0  0  0  0  0  0  0  0  0
  153.3414  132.7061  165.5397 C   0  0  0  0  0  0  0  0  0  0  0  0
  152.8326  131.5080  164.9664 C   0  0  0  0  0  0  0  0  0  0  0  0
  153.2809  131.4881  163.6767 C   0  0  0  0  0  0  0  0  0  0  0  0
  154.0335  132.5904  163.4126 O   0  0  0  0  0  0  0  0  0  0  0  0
  153.8410  140.8556  161.1175 C   0  0  0  0  0  0  0  0  0  0  0  0
  153.6425  141.7274  162.2022 C   0  0  0  0  0  0  0  0  0  0  0  0
  153.0298  142.9794  161.9864 C   0  0  0  0  0  0  0  0  0  0  0  0
  152.8250  143.9154  163.1642 C   0  0  0  0  0  0  0  0  0  0  0  0
  151.7012  144.8116  159.3688 H   0  0  0  0  0  0  0  0  0  0  0  0
  152.6313  145.5036  160.6962 H   0  0  0  0  0  0  0  0  0  0  0  0
  151.0427  144.7864  161.0035 H   0  0  0  0  0  0  0  0  0  0  0  0
  152.5087  142.7401  158.6028 H   0  0  0  0  0  0  0  0  0  0  0  0
  154.6649  138.3521  159.2903 H   0  0  0  0  0  0  0  0  0  0  0  0
  155.9698  138.4403  161.7132 H   0  0  0  0  0  0  0  0  0  0  0  0
  155.1352  139.3867  162.9229 H   0  0  0  0  0  0  0  0  0  0  0  0
  153.0826  137.9119  162.5874 H   0  0  0  0  0  0  0  0  0  0  0  0
  153.8135  135.7918  161.6456 H   0  0  0  0  0  0  0  0  0  0  0  0
  155.6394  136.9404  163.7669 H   0  0  0  0  0  0  0  0  0  0  0  0
  154.0738  137.1569  164.5323 H   0  0  0  0  0  0  0  0  0  0  0  0
  155.8989  134.4039  164.3759 H   0  0  0  0  0  0  0  0  0  0  0  0
  154.7296  135.1358  165.4768 H   0  0  0  0  0  0  0  0  0  0  0  0
  153.1960  133.0694  166.5463 H   0  0  0  0  0  0  0  0  0  0  0  0
  152.2159  130.7568  165.4373 H   0  0  0  0  0  0  0  0  0  0  0  0
  153.1641  130.8006  162.8518 H   0  0  0  0  0  0  0  0  0  0  0  0
  153.9639  141.4353  163.1913 H   0  0  0  0  0  0  0  0  0  0  0  0
  153.1877  143.4719  164.0920 H   0  0  0  0  0  0  0  0  0  0  0  0
  151.7665  144.1419  163.2941 H   0  0  0  0  0  0  0  0  0  0  0  0
  153.3643  144.8498  163.0069 H   0  0  0  0  0  0  0  0  0  0  0  0
  1  2  1  0  0  0  0
  1 23  1  0  0  0  0
  1 24  1  0  0  0  0
  1 25  1  0  0  0  0
  2 21  1  0  0  0  0
  2  3  2  0  0  0  0
  3  4  1  0  0  0  0
  3 26  1  0  0  0  0
  4 19  2  0  0  0  0
  4  5  1  0  0  0  0
  5  6  2  0  0  0  0
  6  7  1  0  0  0  0
  6 27  1  0  0  0  0
  7  8  1  0  0  0  0
  7 19  1  0  0  0  0
  8  9  1  0  0  0  0
  8 28  1  0  0  0  0
  8 29  1  0  0  0  0
  9 10  1  0  0  0  0
  9 11  1  0  0  0  0
  9 30  1  0  0  0  0
 10 31  1  0  0  0  0
 11 12  1  0  0  0  0
 11 32  1  0  0  0  0
 11 33  1  0  0  0  0
 12 13  1  0  0  0  0
 13 14  1  0  0  0  0
 13 34  1  0  0  0  0
 13 35  1  0  0  0  0
 14 18  1  0  0  0  0
 14 15  2  0  0  0  0
 15 16  1  0  0  0  0
 15 36  1  0  0  0  0
 16 17  2  0  0  0  0
 16 37  1  0  0  0  0
 17 18  1  0  0  0  0
 17 38  1  0  0  0  0
 19 20  1  0  0  0  0
 20 21  2  0  0  0  0
 20 39  1  0  0  0  0
 21 22  1  0  0  0  0
 22 40  1  0  0  0  0
 22 41  1  0  0  0  0
 22 42  1  0  0  0  0
M  END
> <s_m_source_file>
AV-unprocessed.smi

> <i_m_source_file_index>
473

> <i_lp_mmshare_version>
43012

> <i_f3d_flags>
0

> <s_epik_input>
W0NIM11jKFtjSF0xKWMoW0NIM10pW2NIXWMoYzEyKW4oW2NIXW4yKVtDSDJdW0NASF0oW09IXSlbQ0gyXU9bQ0gyXWMzW2NIXVtjSF1bY0hdbzM=

> <s_epik_cmdline>
J2VwaWtfcHl0aG9uJywgJy1waCcsICc3LjAnLCAnLXRuJywgJzgnLCAnLW1hJywgJzIwMCcsICctbWV0YWxfYmluZGluZycsICctaW1hZScsICc8aW5maWxlLm1hZT4nLCAnLW9tYWUnLCAnPG91dGZpbGUubWFlPic=

> <r_epik_Ionization_Penalty>
0.112477

> <r_epik_Ionization_Penalty_Charging>
0

> <r_epik_Ionization_Penalty_Neutral>
0.112477

> <r_epik_State_Penalty>
0.102177

> <r_epik_Charging_Adjusted_Penalty>
0.102177

> <i_epik_Tot_Q>
0

> <i_epik_Tot_abs_Q>
0

> <r_epik_Metal_State_Penalty>
0.000111506

> <b_epik_Metal_Only>
0

> <s_lp_Force_Field>
OPLS_2005

> <r_lp_Energy>
9.30743

> <b_lp_Chiralities_Consistent>
1

> <s_lp_Variant>
AV-unprocessed.smi:473-2

> <Gold.Version>
5.8.1

> <Gold.Id.Protein>
6NUR|6NUR_protein|mol2

> <Gold.PLP.Fitness>
53.0486

> <Gold.PLP.PLP>
-51.8097

> <Gold.PLP.part.hbond>
-1.0000

> <Gold.PLP.part.metal>
0.0000

> <Gold.PLP.part.buried>
-3.9940

> <Gold.PLP.part.nonpolar>
-46.9833

> <Gold.PLP.part.repulsive>
0.0364

> <Gold.PLP.ligand.clash>
0.0000

> <Gold.PLP.ligand.torsion>
0.8283

> <Gold.PLP.Chemscore.Hbond>
0.9440

> <Gold.PLP.Chemscore.CHOScore>
0.0000

> <Gold.PLP.Chemscore.Metal>
0.0000

> <Gold.Chemscore.Hbonds>
donor molecule, donor type, donor heavy atom, donor atom, acceptor molecule, acceptor atom, score
      P1  H  7997  8010       L1     5  0.94

> <Gold.PLP.Chemscore.Internal.Correction>
0.0636

> <Gold.Rescore>
     Score         DG    S(hbond)    S(metal)    S(lipo)     H(rot)  DE(clash)    DE(int)     intcor
     19.21     -20.47       0.95        0.00     153.82       2.41       0.46       0.80       ----

> <Gold.Chemscore.Fitness>
19.2126

> <Gold.Chemscore.DG>
-20.4750

> <Gold.Chemscore.ZeroCoef>
-5.4800

> <Gold.Chemscore.Hbond>
0.9470

> <Gold.Chemscore.Metal>
0.0000

> <Gold.Chemscore.Lipo>
153.8222

> <Gold.Chemscore.Internal_Hbond>
0.0000

> <Gold.Chemscore.DEClash>
0.4582

> <Gold.Chemscore.DEInternal>
0.8042

> <Gold.Chemscore.Rot>
2.4083

> <Gold.Chemscore.Internal.Correction>
   9.000000E+99

> <Gold.Chemscore.Hbonds>
donor molecule, donor type, donor heavy atom, donor atom, acceptor molecule, acceptor atom, score
      P1  H  7997  8010       L1     5  0.35

> <Gold.Chemscore.Hbond.Weighted>
-3.1631

> <Gold.Chemscore.Metal.Weighted>
-0.0000

> <Gold.Chemscore.Lipo.Weighted>
-17.9972

> <Gold.Chemscore.Internal_Hbond.Weighted>
0.0000

> <Gold.Chemscore.DEClash.Weighted>
0.4582

> <Gold.Chemscore.DEInternal.Weighted>
0.8042

> <Gold.Chemscore.Rot.Weighted>
6.1653

> <Gold.Chemscore.Internal.Correction.Weighted>
   9.000000E+99

> <Gold.Protein.RotatedTorsions>
[ 6907 6896 6895 6894 ] final  -86.74 input  -60.11 | X-H torsion
[ 7974 7965 7964 7962 ] final   39.25 input  175.53 | X-H torsion
[ 8008 7997 7996 7995 ] final   19.98 input   59.86 | X-H torsion
[ 10167 10162 10161 10158 ] final  -16.81 input  -65.29 | X-H torsion
[ 10718 10713 10712 10709 ] final  116.10 input   66.30 | X-H torsion
[ 10763 10752 10751 10750 ] final   -9.57 input  -60.55 | X-H torsion
[ 11005 11000 10999 10996 ] final -108.46 input  -57.11 | X-H torsion

> <Gold.Protein.ActiveResidues>
 VAL166  LYS551  ARG553  GLY616  TRP617  ASP618  TYR619  PRO620  LYS621  CYS622 
 ASP623  PHE694  ASN695  SER759  ASP760  ASP761  ALA762  ILE779  LEU786  VAL792 
 PHE793  MET794  SER795  GLU796  ALA797  LYS798  CYS799  TRP800  GLU811  SER814 

> <Gold.Protein.RotatedAtoms>
  150.6866  134.3004  159.4703 H   0  0  0  0  0  0  0  0  0  0  0  0  # atno 6907 bound_to 6896
  152.0900  134.9411  160.0581 H   0  0  0  0  0  0  0  0  0  0  0  0  # atno 6908 bound_to 6896
  152.0731  133.4081  159.4505 H   0  0  0  0  0  0  0  0  0  0  0  0  # atno 6909 bound_to 6896
  146.0999  139.5674  142.9421 H   0  0  0  0  0  0  0  0  0  0  0  0  # atno 7974 bound_to 7965
  154.9288  140.3037  155.5178 H   0  0  0  0  0  0  0  0  0  0  0  0  # atno 8008 bound_to 7997
  156.3005  140.2357  156.4283 H   0  0  0  0  0  0  0  0  0  0  0  0  # atno 8009 bound_to 7997
  154.8258  140.0421  157.1431 H   0  0  0  0  0  0  0  0  0  0  0  0  # atno 8010 bound_to 7997
  140.7239  143.5078  150.9787 H   0  0  0  0  0  0  0  0  0  0  0  0  # atno 10167 bound_to 10162
  157.6181  131.1021  150.7424 H   0  0  0  0  0  0  0  0  0  0  0  0  # atno 10718 bound_to 10713
  153.4566  135.7015  153.6076 H   0  0  0  0  0  0  0  0  0  0  0  0  # atno 10763 bound_to 10752
  153.4388  135.3785  155.2215 H   0  0  0  0  0  0  0  0  0  0  0  0  # atno 10764 bound_to 10752
  154.8728  135.3968  154.3986 H   0  0  0  0  0  0  0  0  0  0  0  0  # atno 10765 bound_to 10752
  141.0900  133.9071  157.2097 H   0  0  0  0  0  0  0  0  0  0  0  0  # atno 11005 bound_to 11000
  145.5875  141.0374  143.2088 LP  0  0  0  0  0  0  0  0  0  0  0  0  # atno 17320 bound_to 7965
  144.7424  139.7412  143.7305 LP  0  0  0  0  0  0  0  0  0  0  0  0  # atno 17321 bound_to 7965
  139.8791  143.7095  152.3159 LP  0  0  0  0  0  0  0  0  0  0  0  0  # atno 17342 bound_to 10162
  139.7371  144.7568  151.0710 LP  0  0  0  0  0  0  0  0  0  0  0  0  # atno 17343 bound_to 10162
  156.7787  130.4852  149.5405 LP  0  0  0  0  0  0  0  0  0  0  0  0  # atno 17370 bound_to 10713
  156.1313  130.6180  151.0337 LP  0  0  0  0  0  0  0  0  0  0  0  0  # atno 17371 bound_to 10713
  139.9724  135.0124  156.9547 LP  0  0  0  0  0  0  0  0  0  0  0  0  # atno 17394 bound_to 11000
  140.5274  134.0847  155.7307 LP  0  0  0  0  0  0  0  0  0  0  0  0  # atno 17395 bound_to 11000

$$$$
