AV-unprocessed.smi:2358|AV-procd|sdf|9403|dock5
  -GOLD-   2272013 33D 1   1.00000     0.00000
 Structure written by MMmdl.
 45 47  0  0  0  0  0  0  0  0  1 V2000
  153.6538  142.5763  163.1082 C   0  0  0  0  0  0  0  0  0  0  0  0
  153.3867  142.4654  161.6211 C   0  0  0  0  0  0  0  0  0  0  0  0
  152.8438  143.5555  160.9120 C   0  0  0  0  0  0  0  0  0  0  0  0
  152.6001  143.4471  159.5291 C   0  0  0  0  0  0  0  0  0  0  0  0
  152.0160  144.6226  158.7732 C   0  0  0  0  0  0  0  0  0  0  0  0
  152.9008  142.2439  158.8581 C   0  0  0  0  0  0  0  0  0  0  0  0
  153.4427  141.1433  159.5528 C   0  0  0  0  0  0  0  0  0  0  0  0
  153.7038  140.0071  158.8167 O   0  0  0  0  0  0  0  0  0  0  0  0
  153.9735  138.7986  159.5150 C   0  0  0  0  0  0  0  0  0  0  0  0
  155.3308  138.2446  159.0503 C   0  0  2  0  0  0  0  0  0  0  0  0
  155.4085  138.4397  157.6512 O   0  0  0  0  0  0  0  0  0  0  0  0
  155.4546  136.7292  159.3248 C   0  0  0  0  0  0  0  0  0  0  0  0
  155.2773  136.4084  160.7462 N   0  0  0  0  0  0  0  0  0  0  0  0
  155.5614  137.4601  161.5982 N   0  0  0  0  0  0  0  0  0  0  0  0
  155.4386  137.3326  162.8789 C   0  0  0  0  0  0  0  0  0  0  0  0
  155.7311  138.4501  163.7583 N   0  0  0  0  0  0  0  0  0  0  0  0
  155.7095  138.3391  165.1493 C   0  0  0  0  0  0  0  0  0  0  0  0
  156.0275  139.5897  165.6319 C   0  0  0  0  0  0  0  0  0  0  0  0
  156.2422  140.4710  164.5738 N   0  0  0  0  0  0  0  0  0  0  0  0
  156.0468  139.7257  163.4942 C   0  0  0  0  0  0  0  0  0  0  0  0
  155.0076  136.0565  163.4396 C   0  0  0  0  0  0  0  0  0  0  0  0
  154.7342  135.0360  162.5982 C   0  0  0  0  0  0  0  0  0  0  0  0
  154.8571  135.1731  161.1483 C   0  0  0  0  0  0  0  0  0  0  0  0
  154.6040  134.2619  160.3607 O   0  0  0  0  0  0  0  0  0  0  0  0
  153.6857  141.2654  160.9443 C   0  0  0  0  0  0  0  0  0  0  0  0
  153.2321  143.4933  163.5211 H   0  0  0  0  0  0  0  0  0  0  0  0
  154.7272  142.5775  163.2989 H   0  0  0  0  0  0  0  0  0  0  0  0
  153.2115  141.7315  163.6372 H   0  0  0  0  0  0  0  0  0  0  0  0
  152.6140  144.4773  161.4268 H   0  0  0  0  0  0  0  0  0  0  0  0
  151.9450  144.4152  157.7049 H   0  0  0  0  0  0  0  0  0  0  0  0
  152.6408  145.5060  158.9068 H   0  0  0  0  0  0  0  0  0  0  0  0
  151.0160  144.8498  159.1433 H   0  0  0  0  0  0  0  0  0  0  0  0
  152.7139  142.1586  157.7975 H   0  0  0  0  0  0  0  0  0  0  0  0
  154.0231  139.0277  160.5806 H   0  0  0  0  0  0  0  0  0  0  0  0
  153.1811  138.0620  159.3683 H   0  0  0  0  0  0  0  0  0  0  0  0
  156.1343  138.7896  159.5473 H   0  0  0  0  0  0  0  0  0  0  0  0
  156.1503  138.9946  157.4652 H   0  0  0  0  0  0  0  0  0  0  0  0
  154.7013  136.1845  158.7529 H   0  0  0  0  0  0  0  0  0  0  0  0
  156.4100  136.3506  158.9556 H   0  0  0  0  0  0  0  0  0  0  0  0
  155.4809  137.4409  165.6995 H   0  0  0  0  0  0  0  0  0  0  0  0
  156.1148  139.9219  166.6559 H   0  0  0  0  0  0  0  0  0  0  0  0
  156.1362  140.1179  162.4915 H   0  0  0  0  0  0  0  0  0  0  0  0
  154.9047  135.8933  164.4990 H   0  0  0  0  0  0  0  0  0  0  0  0
  154.4168  134.0879  163.0072 H   0  0  0  0  0  0  0  0  0  0  0  0
  154.1034  140.4499  161.5152 H   0  0  0  0  0  0  0  0  0  0  0  0
  1  2  1  0  0  0  0
  1 26  1  0  0  0  0
  1 27  1  0  0  0  0
  1 28  1  0  0  0  0
  2 25  1  0  0  0  0
  2  3  2  0  0  0  0
  3  4  1  0  0  0  0
  3 29  1  0  0  0  0
  4  5  1  0  0  0  0
  4  6  2  0  0  0  0
  5 30  1  0  0  0  0
  5 31  1  0  0  0  0
  5 32  1  0  0  0  0
  6  7  1  0  0  0  0
  6 33  1  0  0  0  0
  7  8  1  0  0  0  0
  7 25  2  0  0  0  0
  8  9  1  0  0  0  0
  9 10  1  0  0  0  0
  9 34  1  0  0  0  0
  9 35  1  0  0  0  0
 10 11  1  0  0  0  0
 10 12  1  0  0  0  0
 10 36  1  0  0  0  0
 11 37  1  0  0  0  0
 12 13  1  0  0  0  0
 12 38  1  0  0  0  0
 12 39  1  0  0  0  0
 13 23  1  0  0  0  0
 13 14  1  0  0  0  0
 14 15  2  0  0  0  0
 15 16  1  0  0  0  0
 15 21  1  0  0  0  0
 16 20  1  0  0  0  0
 16 17  1  0  0  0  0
 17 18  2  0  0  0  0
 17 40  1  0  0  0  0
 18 19  1  0  0  0  0
 18 41  1  0  0  0  0
 19 20  2  0  0  0  0
 20 42  1  0  0  0  0
 21 22  2  0  0  0  0
 21 43  1  0  0  0  0
 22 23  1  0  0  0  0
 22 44  1  0  0  0  0
 23 24  2  0  0  0  0
 25 45  1  0  0  0  0
M  END
> <s_m_source_file>
AV-unprocessed.smi

> <i_m_source_file_index>
2358

> <i_lp_mmshare_version>
43012

> <i_f3d_flags>
0

> <s_epik_input>
W0NIM11jMVtjSF1jKFtDSDNdKVtjSF1jKFtjSF0xKU9bQ0gyXVtDQEhdKFtPSF0pW0NIMl1uMm5jKFtjSF1bY0hdYzI9TyktbjNbY0hdW2NIXW5bY0hdMw==

> <s_epik_cmdline>
J2VwaWtfcHl0aG9uJywgJy1waCcsICc3LjAnLCAnLXRuJywgJzgnLCAnLW1hJywgJzIwMCcsICctbWV0YWxfYmluZGluZycsICctaW1hZScsICc8aW5maWxlLm1hZT4nLCAnLW9tYWUnLCAnPG91dGZpbGUubWFlPic=

> <r_lp_tautomer_probability>
1

> <r_epik_Ionization_Penalty>
0.03707

> <r_epik_Ionization_Penalty_Charging>
0.0370699

> <r_epik_Ionization_Penalty_Neutral>
1.17174e-07

> <r_epik_State_Penalty>
0.0310055

> <r_epik_Charging_Adjusted_Penalty>
0.0680754

> <i_epik_Tot_Q>
0

> <i_epik_Tot_abs_Q>
0

> <r_epik_Metal_State_Penalty>
0.0291724

> <b_epik_Metal_Only>
0

> <s_lp_Force_Field>
OPLS_2005

> <r_lp_Energy>
37.1438

> <b_lp_Chiralities_Consistent>
1

> <s_lp_Variant>
AV-unprocessed.smi:2358-1

> <Gold.Version>
5.8.1

> <Gold.Id.Protein>
6NUR|6NUR_protein|mol2

> <Gold.PLP.Fitness>
52.7886

> <Gold.PLP.PLP>
-48.9689

> <Gold.PLP.part.hbond>
-2.4450

> <Gold.PLP.part.metal>
0.0000

> <Gold.PLP.part.buried>
-5.9169

> <Gold.PLP.part.nonpolar>
-39.9560

> <Gold.PLP.part.repulsive>
0.0000

> <Gold.PLP.ligand.clash>
0.0000

> <Gold.PLP.ligand.torsion>
1.0897

> <Gold.PLP.Chemscore.Hbond>
1.9825

> <Gold.PLP.Chemscore.CHOScore>
0.0000

> <Gold.PLP.Chemscore.Metal>
0.0000

> <Gold.Chemscore.Hbonds>
donor molecule, donor type, donor heavy atom, donor atom, acceptor molecule, acceptor atom, score
      P1  H  6896  6909       L1    24  0.86
      P1  H  7997  8009       L1     8  1.00

> <Gold.PLP.Chemscore.Internal.Correction>
0.0515

> <Gold.Rescore>
     Score         DG    S(hbond)    S(metal)    S(lipo)     H(rot)  DE(clash)    DE(int)     intcor
     16.61     -18.88       1.40        0.00     131.58       2.60       0.05       2.23       ----

> <Gold.Chemscore.Fitness>
16.6075

> <Gold.Chemscore.DG>
-18.8833

> <Gold.Chemscore.ZeroCoef>
-5.4800

> <Gold.Chemscore.Hbond>
1.3955

> <Gold.Chemscore.Metal>
0.0000

> <Gold.Chemscore.Lipo>
131.5800

> <Gold.Chemscore.Internal_Hbond>
0.0000

> <Gold.Chemscore.DEClash>
0.0467

> <Gold.Chemscore.DEInternal>
2.2290

> <Gold.Chemscore.Rot>
2.5986

> <Gold.Chemscore.Internal.Correction>
   9.000000E+99

> <Gold.Chemscore.Hbonds>
donor molecule, donor type, donor heavy atom, donor atom, acceptor molecule, acceptor atom, score
      P1  H  6896  6909       L1    24  0.41
      P1  H  7997  8009       L1     8  0.70

> <Gold.Chemscore.Hbond.Weighted>
-4.6608

> <Gold.Chemscore.Metal.Weighted>
-0.0000

> <Gold.Chemscore.Lipo.Weighted>
-15.3949

> <Gold.Chemscore.Internal_Hbond.Weighted>
0.0000

> <Gold.Chemscore.DEClash.Weighted>
0.0467

> <Gold.Chemscore.DEInternal.Weighted>
2.2290

> <Gold.Chemscore.Rot.Weighted>
6.6524

> <Gold.Chemscore.Internal.Correction.Weighted>
   9.000000E+99

> <Gold.Protein.RotatedTorsions>
[ 6907 6896 6895 6894 ] final -167.06 input  -60.11 | X-H torsion
[ 7974 7965 7964 7962 ] final   82.16 input  175.53 | X-H torsion
[ 8008 7997 7996 7995 ] final  144.80 input   59.86 | X-H torsion
[ 10167 10162 10161 10158 ] final   69.20 input  -65.29 | X-H torsion
[ 10718 10713 10712 10709 ] final   31.59 input   66.30 | X-H torsion
[ 10763 10752 10751 10750 ] final  -55.71 input  -60.55 | X-H torsion
[ 11005 11000 10999 10996 ] final  -25.69 input  -57.11 | X-H torsion

> <Gold.Protein.ActiveResidues>
 VAL166  LYS551  ARG553  GLY616  TRP617  ASP618  TYR619  PRO620  LYS621  CYS622 
 ASP623  PHE694  ASN695  SER759  ASP760  ASP761  ALA762  ILE779  LEU786  VAL792 
 PHE793  MET794  SER795  GLU796  ALA797  LYS798  CYS799  TRP800  GLU811  SER814 

> <Gold.Protein.RotatedAtoms>
  151.4535  133.3611  159.2798 H   0  0  0  0  0  0  0  0  0  0  0  0  # atno 6907 bound_to 6896
  150.9074  134.8491  159.7413 H   0  0  0  0  0  0  0  0  0  0  0  0  # atno 6908 bound_to 6896
  152.4914  134.4462  159.9611 H   0  0  0  0  0  0  0  0  0  0  0  0  # atno 6909 bound_to 6896
  145.6287  139.2400  143.2097 H   0  0  0  0  0  0  0  0  0  0  0  0  # atno 7974 bound_to 7965
  156.2899  140.2226  156.5113 H   0  0  0  0  0  0  0  0  0  0  0  0  # atno 8008 bound_to 7997
  154.7607  140.0473  157.0992 H   0  0  0  0  0  0  0  0  0  0  0  0  # atno 8009 bound_to 7997
  154.9995  140.3100  155.4876 H   0  0  0  0  0  0  0  0  0  0  0  0  # atno 8010 bound_to 7997
  140.0704  144.5157  150.7231 H   0  0  0  0  0  0  0  0  0  0  0  0  # atno 10167 bound_to 10162
  157.2744  130.7224  149.6522 H   0  0  0  0  0  0  0  0  0  0  0  0  # atno 10718 bound_to 10713
  154.1951  135.6420  153.5071 H   0  0  0  0  0  0  0  0  0  0  0  0  # atno 10763 bound_to 10752
  153.0025  135.5438  154.6374 H   0  0  0  0  0  0  0  0  0  0  0  0  # atno 10764 bound_to 10752
  154.5773  135.2922  155.0741 H   0  0  0  0  0  0  0  0  0  0  0  0  # atno 10765 bound_to 10752
  140.8961  133.7555  156.0483 H   0  0  0  0  0  0  0  0  0  0  0  0  # atno 11005 bound_to 11000
  146.1374  140.7104  142.9383 LP  0  0  0  0  0  0  0  0  0  0  0  0  # atno 17320 bound_to 7965
  144.7202  140.4347  143.7014 LP  0  0  0  0  0  0  0  0  0  0  0  0  # atno 17321 bound_to 7965
  140.7128  143.2519  151.4527 LP  0  0  0  0  0  0  0  0  0  0  0  0  # atno 17342 bound_to 10162
  139.5839  144.1647  152.2004 LP  0  0  0  0  0  0  0  0  0  0  0  0  # atno 17343 bound_to 10162
  155.9663  130.4357  150.5105 LP  0  0  0  0  0  0  0  0  0  0  0  0  # atno 17370 bound_to 10713
  157.3036  131.0650  151.2051 LP  0  0  0  0  0  0  0  0  0  0  0  0  # atno 17371 bound_to 10713
  140.8287  134.3204  157.5356 LP  0  0  0  0  0  0  0  0  0  0  0  0  # atno 17394 bound_to 11000
  139.8736  134.9351  156.3624 LP  0  0  0  0  0  0  0  0  0  0  0  0  # atno 17395 bound_to 11000

$$$$
