AV-unprocessed.smi:10|AV-procd|sdf|53|dock7
  -GOLD-   2262015173D 1   1.00000     0.00000
 Structure written by MMmdl.
 34 36  0  0  0  0  0  0  0  0  1 V2000
  152.7254  143.1879  161.9993 C   0  0  0  0  0  0  0  0  0  0  0  0
  152.8761  142.2545  160.9020 N   0  0  0  0  0  0  0  0  0  0  0  0
  153.6915  141.1845  160.8451 C   0  0  0  0  0  0  0  0  0  0  0  0
  153.6319  140.4880  159.7116 N   0  0  0  0  0  0  0  0  0  0  0  0
  152.6821  141.1920  158.9801 C   0  0  0  0  0  0  0  0  0  0  0  0
  152.1373  140.9513  157.6242 C   0  0  0  0  0  0  0  0  0  0  0  0
  152.4948  139.9998  156.9296 O   0  0  0  0  0  0  0  0  0  0  0  0
  151.2118  141.8824  157.2465 N   0  0  0  0  0  0  0  0  0  0  0  0
  150.5560  141.7996  155.9328 C   0  0  0  0  0  0  0  0  0  0  0  0
  149.8833  140.4252  155.7129 C   0  0  2  0  0  0  0  0  0  0  0  0
  150.6511  139.6868  154.7844 O   0  0  0  0  0  0  0  0  0  0  0  0
  148.4787  140.5476  155.1237 C   0  0  0  0  0  0  0  0  0  0  0  0
  148.2514  141.4042  153.8674 C   0  0  0  0  0  0  0  0  0  0  0  0
  146.8867  141.7998  154.4362 C   0  0  0  0  0  0  0  0  0  0  0  0
  147.4340  141.4363  155.8183 C   0  0  0  0  0  0  0  0  0  0  0  0
  150.8075  142.9567  158.0962 C   0  0  0  0  0  0  0  0  0  0  0  0
  151.2672  143.1918  159.2976 N   0  0  0  0  0  0  0  0  0  0  0  0
  152.2104  142.2658  159.6825 C   0  0  0  0  0  0  0  0  0  0  0  0
  153.4649  142.9830  162.7741 H   0  0  0  0  0  0  0  0  0  0  0  0
  151.7269  143.0927  162.4263 H   0  0  0  0  0  0  0  0  0  0  0  0
  152.8642  144.2069  161.6373 H   0  0  0  0  0  0  0  0  0  0  0  0
  154.3470  140.9076  161.6579 H   0  0  0  0  0  0  0  0  0  0  0  0
  149.8090  142.5921  155.8616 H   0  0  0  0  0  0  0  0  0  0  0  0
  151.2531  142.0274  155.1235 H   0  0  0  0  0  0  0  0  0  0  0  0
  149.8382  139.8674  156.6497 H   0  0  0  0  0  0  0  0  0  0  0  0
  150.4856  138.7659  154.9202 H   0  0  0  0  0  0  0  0  0  0  0  0
  148.0418  139.5618  154.9482 H   0  0  0  0  0  0  0  0  0  0  0  0
  148.9406  142.2477  153.8002 H   0  0  0  0  0  0  0  0  0  0  0  0
  148.2115  140.8431  152.9335 H   0  0  0  0  0  0  0  0  0  0  0  0
  146.6251  142.8506  154.3089 H   0  0  0  0  0  0  0  0  0  0  0  0
  146.0831  141.1371  154.1112 H   0  0  0  0  0  0  0  0  0  0  0  0
  146.7357  140.8994  156.4607 H   0  0  0  0  0  0  0  0  0  0  0  0
  147.8773  142.2905  156.3330 H   0  0  0  0  0  0  0  0  0  0  0  0
  150.0444  143.6001  157.6546 H   0  0  0  0  0  0  0  0  0  0  0  0
  1  2  1  0  0  0  0
  1 19  1  0  0  0  0
  1 20  1  0  0  0  0
  1 21  1  0  0  0  0
  2 18  1  0  0  0  0
  2  3  1  0  0  0  0
  3  4  2  0  0  0  0
  3 22  1  0  0  0  0
  4  5  1  0  0  0  0
  5 18  2  0  0  0  0
  5  6  1  0  0  0  0
  6  7  2  0  0  0  0
  6  8  1  0  0  0  0
  8  9  1  0  0  0  0
  8 16  1  0  0  0  0
  9 10  1  0  0  0  0
  9 23  1  0  0  0  0
  9 24  1  0  0  0  0
 10 11  1  0  0  0  0
 10 12  1  0  0  0  0
 10 25  1  0  0  0  0
 11 26  1  0  0  0  0
 12 15  1  0  0  0  0
 12 13  1  0  0  0  0
 12 27  1  0  0  0  0
 13 14  1  0  0  0  0
 13 28  1  0  0  0  0
 13 29  1  0  0  0  0
 14 15  1  0  0  0  0
 14 30  1  0  0  0  0
 14 31  1  0  0  0  0
 15 32  1  0  0  0  0
 15 33  1  0  0  0  0
 16 17  2  0  0  0  0
 16 34  1  0  0  0  0
 17 18  1  0  0  0  0
M  END
> <s_m_source_file>
AV-unprocessed.smi

> <i_m_source_file_index>
10

> <i_lp_mmshare_version>
43012

> <i_f3d_flags>
0

> <s_epik_input>
bjFbY0hdbihbQ0gzXSljKGMxMiluW2NIXW4oYzI9TylbQ0gyXVtDQEhdKFtPSF0pW0NIXTNbQ0gyXVtDSDJdW0NIMl0z

> <s_epik_cmdline>
J2VwaWtfcHl0aG9uJywgJy1waCcsICc3LjAnLCAnLXRuJywgJzgnLCAnLW1hJywgJzIwMCcsICctbWV0YWxfYmluZGluZycsICctaW1hZScsICc8aW5maWxlLm1hZT4nLCAnLW9tYWUnLCAnPG91dGZpbGUubWFlPic=

> <r_lp_tautomer_probability>
1

> <r_epik_Ionization_Penalty>
0.0003743

> <r_epik_Ionization_Penalty_Charging>
2.98177e-12

> <r_epik_Ionization_Penalty_Neutral>
0.000374299

> <r_epik_State_Penalty>
0.000224514

> <r_epik_Charging_Adjusted_Penalty>
0.000224514

> <i_epik_Tot_Q>
0

> <i_epik_Tot_abs_Q>
0

> <r_epik_Metal_State_Penalty>
-0

> <b_epik_Metal_Only>
0

> <s_lp_Force_Field>
OPLS_2005

> <r_lp_Energy>
32.1402

> <b_lp_Chiralities_Consistent>
1

> <s_lp_Variant>
AV-unprocessed.smi:10-1

> <Gold.Version>
5.8.1

> <Gold.Id.Protein>
6NUR|6NUR_protein|mol2

> <Gold.PLP.Fitness>
45.9152

> <Gold.PLP.PLP>
-38.2635

> <Gold.PLP.part.hbond>
-2.0000

> <Gold.PLP.part.metal>
0.0000

> <Gold.PLP.part.buried>
-4.9085

> <Gold.PLP.part.nonpolar>
-30.4163

> <Gold.PLP.part.repulsive>
0.0282

> <Gold.PLP.ligand.clash>
0.0000

> <Gold.PLP.ligand.torsion>
0.7341

> <Gold.PLP.Chemscore.Hbond>
2.0000

> <Gold.PLP.Chemscore.CHOScore>
1.0000

> <Gold.PLP.Chemscore.Metal>
0.0000

> <Gold.Chemscore.Hbonds>
donor molecule, donor type, donor heavy atom, donor atom, acceptor molecule, acceptor atom, score
      P1  H  7989  7998       L1    11  1.00
      P1  H  7997  8008       L1     7  1.00
      L1  C    16    34       P1  8028  0.96

> <Gold.PLP.Chemscore.Internal.Correction>
0.1200

> <Gold.Rescore>
     Score         DG    S(hbond)    S(metal)    S(lipo)     H(rot)  DE(clash)    DE(int)     intcor
     10.63     -12.47       1.83        0.00      57.37       2.28       0.02       1.82       ----

> <Gold.Chemscore.Fitness>
10.6325

> <Gold.Chemscore.DG>
-12.4723

> <Gold.Chemscore.ZeroCoef>
-5.4800

> <Gold.Chemscore.Hbond>
1.8332

> <Gold.Chemscore.Metal>
0.0000

> <Gold.Chemscore.Lipo>
57.3708

> <Gold.Chemscore.Internal_Hbond>
0.0000

> <Gold.Chemscore.DEClash>
0.0224

> <Gold.Chemscore.DEInternal>
1.8174

> <Gold.Chemscore.Rot>
2.2824

> <Gold.Chemscore.Internal.Correction>
   9.000000E+99

> <Gold.Chemscore.Hbonds>
donor molecule, donor type, donor heavy atom, donor atom, acceptor molecule, acceptor atom, score
      P1  H  7989  7998       L1    11  0.79
      P1  H  7997  8008       L1     7  0.80

> <Gold.Chemscore.Hbond.Weighted>
-6.1230

> <Gold.Chemscore.Metal.Weighted>
-0.0000

> <Gold.Chemscore.Lipo.Weighted>
-6.7124

> <Gold.Chemscore.Internal_Hbond.Weighted>
0.0000

> <Gold.Chemscore.DEClash.Weighted>
0.0224

> <Gold.Chemscore.DEInternal.Weighted>
1.8174

> <Gold.Chemscore.Rot.Weighted>
5.8431

> <Gold.Chemscore.Internal.Correction.Weighted>
   9.000000E+99

> <Gold.Protein.RotatedTorsions>
[ 6907 6896 6895 6894 ] final -109.62 input  -60.11 | X-H torsion
[ 7974 7965 7964 7962 ] final -139.30 input  175.53 | X-H torsion
[ 8008 7997 7996 7995 ] final  -45.63 input   59.86 | X-H torsion
[ 10167 10162 10161 10158 ] final   91.92 input  -65.29 | X-H torsion
[ 10718 10713 10712 10709 ] final  -15.85 input   66.30 | X-H torsion
[ 10763 10752 10751 10750 ] final -136.63 input  -60.55 | X-H torsion
[ 11005 11000 10999 10996 ] final  140.40 input  -57.11 | X-H torsion

> <Gold.Protein.ActiveResidues>
 VAL166  LYS551  ARG553  GLY616  TRP617  ASP618  TYR619  PRO620  LYS621  CYS622 
 ASP623  PHE694  ASN695  SER759  ASP760  ASP761  ALA762  ILE779  LEU786  VAL792 
 PHE793  MET794  SER795  GLU796  ALA797  LYS798  CYS799  TRP800  GLU811  SER814 

> <Gold.Protein.RotatedAtoms>
  150.7574  133.9502  159.3482 H   0  0  0  0  0  0  0  0  0  0  0  0  # atno 6907 bound_to 6896
  151.7418  135.0850  160.0326 H   0  0  0  0  0  0  0  0  0  0  0  0  # atno 6908 bound_to 6896
  152.3523  133.6158  159.5990 H   0  0  0  0  0  0  0  0  0  0  0  0  # atno 6909 bound_to 6896
  144.8688  140.6335  143.5280 H   0  0  0  0  0  0  0  0  0  0  0  0  # atno 7974 bound_to 7965
  154.4002  140.1392  156.3879 H   0  0  0  0  0  0  0  0  0  0  0  0  # atno 8008 bound_to 7997
  155.7942  140.3478  155.5346 H   0  0  0  0  0  0  0  0  0  0  0  0  # atno 8009 bound_to 7997
  155.8549  140.0947  157.1641 H   0  0  0  0  0  0  0  0  0  0  0  0  # atno 8010 bound_to 7997
  139.8327  144.6679  150.9380 H   0  0  0  0  0  0  0  0  0  0  0  0  # atno 10167 bound_to 10162
  156.5959  130.4811  149.6260 H   0  0  0  0  0  0  0  0  0  0  0  0  # atno 10718 bound_to 10713
  154.8679  135.3667  154.5092 H   0  0  0  0  0  0  0  0  0  0  0  0  # atno 10763 bound_to 10752
  153.5728  135.7020  153.5502 H   0  0  0  0  0  0  0  0  0  0  0  0  # atno 10764 bound_to 10752
  153.3526  135.4068  155.1621 H   0  0  0  0  0  0  0  0  0  0  0  0  # atno 10765 bound_to 10752
  140.0324  134.9345  157.0689 H   0  0  0  0  0  0  0  0  0  0  0  0  # atno 11005 bound_to 11000
  145.4170  139.1570  143.4095 LP  0  0  0  0  0  0  0  0  0  0  0  0  # atno 17320 bound_to 7965
  146.2915  140.4278  142.8737 LP  0  0  0  0  0  0  0  0  0  0  0  0  # atno 17321 bound_to 7965
  140.7805  143.3986  151.1188 LP  0  0  0  0  0  0  0  0  0  0  0  0  # atno 17342 bound_to 10162
  139.7638  143.8595  152.3106 LP  0  0  0  0  0  0  0  0  0  0  0  0  # atno 17343 bound_to 10162
  156.2510  130.6907  151.1645 LP  0  0  0  0  0  0  0  0  0  0  0  0  # atno 17370 bound_to 10713
  157.7292  131.0626  150.5785 LP  0  0  0  0  0  0  0  0  0  0  0  0  # atno 17371 bound_to 10713
  140.4203  134.1888  155.7164 LP  0  0  0  0  0  0  0  0  0  0  0  0  # atno 17394 bound_to 11000
  141.1839  133.8356  157.1160 LP  0  0  0  0  0  0  0  0  0  0  0  0  # atno 17395 bound_to 11000

$$$$
