AV-unprocessed.smi:1578|AV-procd|sdf|6352|dock9
  -GOLD-   22720 6573D 1   1.00000     0.00000
 Structure written by MMmdl.
 45 46  0  0  0  0  0  0  0  0  2 V2000
  146.2878  140.2243  152.7580 C   0  0  0  0  0  0  0  0  0  0  0  0
  147.5490  139.3974  153.0402 C   0  0  2  0  0  0  0  0  0  0  0  0
  147.2672  138.2455  154.0300 C   0  0  0  0  0  0  0  0  0  0  0  0
  146.7967  137.0105  153.3526 N   0  3  0  0  0  0  0  0  0  0  0  0
  146.3983  135.9409  154.2964 C   0  0  0  0  0  0  0  0  0  0  0  0
  146.0102  134.6694  153.5226 C   0  0  0  0  0  0  0  0  0  0  0  0
  144.9668  134.9682  152.6029 O   0  0  0  0  0  0  0  0  0  0  0  0
  145.3631  135.9393  151.6418 C   0  0  0  0  0  0  0  0  0  0  0  0
  145.7260  137.2516  152.3561 C   0  0  0  0  0  0  0  0  0  0  0  0
  148.5947  140.2730  153.5672 N   0  0  0  0  0  0  0  0  0  0  0  0
  148.5739  140.9222  154.7450 C   0  0  0  0  0  0  0  0  0  0  0  0
  147.6577  140.8037  155.5571 O   0  0  0  0  0  0  0  0  0  0  0  0
  149.7229  141.8968  155.0536 C   0  0  0  0  0  0  0  0  0  0  0  0
  150.4649  141.5885  156.2891 N   0  0  0  0  0  0  0  0  0  0  0  0
  150.8337  142.6864  157.0914 C   0  0  0  0  0  0  0  0  0  0  0  0
  151.5247  142.5569  158.2396 C   0  0  0  0  0  0  0  0  0  0  0  0
  151.9728  143.7689  159.0414 C   0  0  0  0  0  0  0  0  0  0  0  0
  152.7567  143.4097  160.0579 F   0  0  0  0  0  0  0  0  0  0  0  0
  152.6483  144.6267  158.2753 F   0  0  0  0  0  0  0  0  0  0  0  0
  150.9114  144.4027  159.5372 F   0  0  0  0  0  0  0  0  0  0  0  0
  151.9021  141.2086  158.6156 C   0  0  0  0  0  0  0  0  0  0  0  0
  151.5715  140.1490  157.8516 C   0  0  0  0  0  0  0  0  0  0  0  0
  150.8171  140.3065  156.6060 C   0  0  0  0  0  0  0  0  0  0  0  0
  150.5314  139.3497  155.8866 O   0  0  0  0  0  0  0  0  0  0  0  0
  145.4942  139.6001  152.3462 H   0  0  0  0  0  0  0  0  0  0  0  0
  146.4910  141.0158  152.0359 H   0  0  0  0  0  0  0  0  0  0  0  0
  145.9057  140.6926  153.6660 H   0  0  0  0  0  0  0  0  0  0  0  0
  147.8685  138.9711  152.0885 H   0  0  0  0  0  0  0  0  0  0  0  0
  148.1952  138.0224  154.5590 H   0  0  0  0  0  0  0  0  0  0  0  0
  146.5492  138.5520  154.7921 H   0  0  0  0  0  0  0  0  0  0  0  0
  147.2229  135.7178  154.9745 H   0  0  0  0  0  0  0  0  0  0  0  0
  145.5608  136.2824  154.9068 H   0  0  0  0  0  0  0  0  0  0  0  0
  146.8709  134.2591  152.9918 H   0  0  0  0  0  0  0  0  0  0  0  0
  145.6650  133.8993  154.2127 H   0  0  0  0  0  0  0  0  0  0  0  0
  146.2065  135.5686  151.0566 H   0  0  0  0  0  0  0  0  0  0  0  0
  144.5407  136.1051  150.9459 H   0  0  0  0  0  0  0  0  0  0  0  0
  144.8460  137.6624  152.8531 H   0  0  0  0  0  0  0  0  0  0  0  0
  146.0503  137.9875  151.6208 H   0  0  0  0  0  0  0  0  0  0  0  0
  149.3951  140.4225  152.9696 H   0  0  0  0  0  0  0  0  0  0  0  0
  150.4131  141.8908  154.2083 H   0  0  0  0  0  0  0  0  0  0  0  0
  149.3181  142.9097  155.0762 H   0  0  0  0  0  0  0  0  0  0  0  0
  150.5305  143.6472  156.7000 H   0  0  0  0  0  0  0  0  0  0  0  0
  152.4549  141.0433  159.5287 H   0  0  0  0  0  0  0  0  0  0  0  0
  151.8675  139.1582  158.1647 H   0  0  0  0  0  0  0  0  0  0  0  0
  147.5917  136.6506  152.8439 H   0  0  0  0  0  0  0  0  0  0  0  0
  1  2  1  0  0  0  0
  1 25  1  0  0  0  0
  1 26  1  0  0  0  0
  1 27  1  0  0  0  0
  2  3  1  0  0  0  0
  2 10  1  0  0  0  0
  2 28  1  0  0  0  0
  3  4  1  0  0  0  0
  3 29  1  0  0  0  0
  3 30  1  0  0  0  0
  4  9  1  0  0  0  0
  4  5  1  0  0  0  0
  4 45  1  0  0  0  0
  5  6  1  0  0  0  0
  5 31  1  0  0  0  0
  5 32  1  0  0  0  0
  6  7  1  0  0  0  0
  6 33  1  0  0  0  0
  6 34  1  0  0  0  0
  7  8  1  0  0  0  0
  8  9  1  0  0  0  0
  8 35  1  0  0  0  0
  8 36  1  0  0  0  0
  9 37  1  0  0  0  0
  9 38  1  0  0  0  0
 10 11  1  0  0  0  0
 10 39  1  0  0  0  0
 11 12  2  0  0  0  0
 11 13  1  0  0  0  0
 13 14  1  0  0  0  0
 13 40  1  0  0  0  0
 13 41  1  0  0  0  0
 14 23  1  0  0  0  0
 14 15  1  0  0  0  0
 15 16  2  0  0  0  0
 15 42  1  0  0  0  0
 16 17  1  0  0  0  0
 16 21  1  0  0  0  0
 17 18  1  0  0  0  0
 17 19  1  0  0  0  0
 17 20  1  0  0  0  0
 21 22  2  0  0  0  0
 21 43  1  0  0  0  0
 22 23  1  0  0  0  0
 22 44  1  0  0  0  0
 23 24  2  0  0  0  0
M  CHG  1   4   1
M  END
> <s_m_source_file>
AV-unprocessed.smi

> <i_m_source_file_index>
1578

> <i_lp_mmshare_version>
43012

> <i_f3d_flags>
0

> <s_epik_input>
W0NIMl0xW0NIMl1PW0NIMl1bQ0gyXU4xW0NIMl1bQ0BASF0oW0NIM10pW05IXUMoPU8pW0NIMl1uMltjSF1jKEMoRikoRilGKVtjSF1bY0hdYzI9Tw==

> <s_epik_cmdline>
J2VwaWtfcHl0aG9uJywgJy1waCcsICc3LjAnLCAnLXRuJywgJzgnLCAnLW1hJywgJzIwMCcsICctbWV0YWxfYmluZGluZycsICctaW1hZScsICc8aW5maWxlLm1hZT4nLCAnLW9tYWUnLCAnPG91dGZpbGUubWFlPic=

> <r_lp_tautomer_probability>
1

> <r_epik_Ionization_Penalty>
0.656654

> <r_epik_Ionization_Penalty_Charging>
0.656653

> <r_epik_Ionization_Penalty_Neutral>
9.12373e-08

> <r_epik_State_Penalty>
0.675641

> <r_epik_Charging_Adjusted_Penalty>
1.33229

> <i_epik_Tot_Q>
1

> <i_epik_Tot_abs_Q>
1

> <r_epik_Metal_State_Penalty>
0.675695

> <b_epik_Metal_Only>
0

> <s_lp_Force_Field>
OPLS_2005

> <r_lp_Energy>
34.2523

> <b_lp_Chiralities_Consistent>
1

> <s_lp_Variant>
AV-unprocessed.smi:1578-3

> <Gold.Version>
5.8.1

> <Gold.Id.Protein>
6NUR|6NUR_protein|mol2

> <Gold.PLP.Fitness>
49.8518

> <Gold.PLP.PLP>
-40.8126

> <Gold.PLP.part.hbond>
-2.0000

> <Gold.PLP.part.metal>
0.0000

> <Gold.PLP.part.buried>
1.5986

> <Gold.PLP.part.nonpolar>
-41.1140

> <Gold.PLP.part.repulsive>
0.2809

> <Gold.PLP.ligand.clash>
0.0000

> <Gold.PLP.ligand.torsion>
0.7375

> <Gold.PLP.Chemscore.Hbond>
2.4640

> <Gold.PLP.Chemscore.CHOScore>
1.0000

> <Gold.PLP.Chemscore.Metal>
0.0000

> <Gold.Chemscore.Hbonds>
donor molecule, donor type, donor heavy atom, donor atom, acceptor molecule, acceptor atom, score
      L1  H     4    45       P1  7948  2.00
      L1  H    10    39       P1  7957  0.59
      L1  C    15    42       P1  8028  1.00

> <Gold.PLP.Chemscore.Internal.Correction>
0.1221

> <Gold.Rescore>
     Score         DG    S(hbond)    S(metal)    S(lipo)     H(rot)  DE(clash)    DE(int)     intcor
     10.36     -14.17       1.60        0.00      76.11       2.17       1.25       2.56       ----

> <Gold.Chemscore.Fitness>
10.3581

> <Gold.Chemscore.DG>
-14.1724

> <Gold.Chemscore.ZeroCoef>
-5.4800

> <Gold.Chemscore.Hbond>
1.6008

> <Gold.Chemscore.Metal>
0.0000

> <Gold.Chemscore.Lipo>
76.1112

> <Gold.Chemscore.Internal_Hbond>
0.0000

> <Gold.Chemscore.DEClash>
1.2547

> <Gold.Chemscore.DEInternal>
2.5596

> <Gold.Chemscore.Rot>
2.1716

> <Gold.Chemscore.Internal.Correction>
   9.000000E+99

> <Gold.Chemscore.Hbonds>
donor molecule, donor type, donor heavy atom, donor atom, acceptor molecule, acceptor atom, score
      L1  H     4    45       P1  7948  1.00
      L1  H    10    39       P1  7957  0.60

> <Gold.Chemscore.Hbond.Weighted>
-5.3465

> <Gold.Chemscore.Metal.Weighted>
-0.0000

> <Gold.Chemscore.Lipo.Weighted>
-8.9050

> <Gold.Chemscore.Internal_Hbond.Weighted>
0.0000

> <Gold.Chemscore.DEClash.Weighted>
1.2547

> <Gold.Chemscore.DEInternal.Weighted>
2.5596

> <Gold.Chemscore.Rot.Weighted>
5.5592

> <Gold.Chemscore.Internal.Correction.Weighted>
   9.000000E+99

> <Gold.Protein.RotatedTorsions>
[ 6907 6896 6895 6894 ] final  -28.38 input  -60.11 | X-H torsion
[ 7974 7965 7964 7962 ] final   98.77 input  175.53 | X-H torsion
[ 8008 7997 7996 7995 ] final  173.11 input   59.86 | X-H torsion
[ 10167 10162 10161 10158 ] final  170.64 input  -65.29 | X-H torsion
[ 10718 10713 10712 10709 ] final   83.53 input   66.30 | X-H torsion
[ 10763 10752 10751 10750 ] final  -12.22 input  -60.55 | X-H torsion
[ 11005 11000 10999 10996 ] final  -14.58 input  -57.11 | X-H torsion

> <Gold.Protein.ActiveResidues>
 VAL166  LYS551  ARG553  GLY616  TRP617  ASP618  TYR619  PRO620  LYS621  CYS622 
 ASP623  PHE694  ASN695  SER759  ASP760  ASP761  ALA762  ILE779  LEU786  VAL792 
 PHE793  MET794  SER795  GLU796  ALA797  LYS798  CYS799  TRP800  GLU811  SER814 

> <Gold.Protein.RotatedAtoms>
  151.1338  135.0144  159.8594 H   0  0  0  0  0  0  0  0  0  0  0  0  # atno 6907 bound_to 6896
  152.5451  134.1580  159.8556 H   0  0  0  0  0  0  0  0  0  0  0  0  # atno 6908 bound_to 6896
  151.1649  133.4776  159.2627 H   0  0  0  0  0  0  0  0  0  0  0  0  # atno 6909 bound_to 6896
  145.4078  139.2338  143.3265 H   0  0  0  0  0  0  0  0  0  0  0  0  # atno 7974 bound_to 7965
  156.1107  140.1468  156.9342 H   0  0  0  0  0  0  0  0  0  0  0  0  # atno 8008 bound_to 7997
  154.4765  140.0893  156.7318 H   0  0  0  0  0  0  0  0  0  0  0  0  # atno 8009 bound_to 7997
  155.4600  140.3438  155.4314 H   0  0  0  0  0  0  0  0  0  0  0  0  # atno 8010 bound_to 7997
  139.5024  144.3575  151.9860 H   0  0  0  0  0  0  0  0  0  0  0  0  # atno 10167 bound_to 10162
  157.6881  131.0095  150.2537 H   0  0  0  0  0  0  0  0  0  0  0  0  # atno 10718 bound_to 10713
  153.4953  135.7017  153.5861 H   0  0  0  0  0  0  0  0  0  0  0  0  # atno 10763 bound_to 10752
  153.4016  135.3870  155.1991 H   0  0  0  0  0  0  0  0  0  0  0  0  # atno 10764 bound_to 10752
  154.8714  135.3883  154.4418 H   0  0  0  0  0  0  0  0  0  0  0  0  # atno 10765 bound_to 10752
  140.7878  133.8311  155.9352 H   0  0  0  0  0  0  0  0  0  0  0  0  # atno 11005 bound_to 11000
  146.2720  140.4785  142.8810 LP  0  0  0  0  0  0  0  0  0  0  0  0  # atno 17320 bound_to 7965
  144.8330  140.6737  143.6279 LP  0  0  0  0  0  0  0  0  0  0  0  0  # atno 17321 bound_to 7965
  140.3011  144.3645  150.6060 LP  0  0  0  0  0  0  0  0  0  0  0  0  # atno 17342 bound_to 10162
  140.5873  143.2169  151.7319 LP  0  0  0  0  0  0  0  0  0  0  0  0  # atno 17343 bound_to 10162
  156.3129  130.3774  149.7645 LP  0  0  0  0  0  0  0  0  0  0  0  0  # atno 17370 bound_to 10713
  156.5239  130.8227  151.3213 LP  0  0  0  0  0  0  0  0  0  0  0  0  # atno 17371 bound_to 10713
  140.9419  134.1890  157.4791 LP  0  0  0  0  0  0  0  0  0  0  0  0  # atno 17394 bound_to 11000
  139.8734  134.9875  156.5371 LP  0  0  0  0  0  0  0  0  0  0  0  0  # atno 17395 bound_to 11000

$$$$
