AV-unprocessed.smi:1662|AV-procd|sdf|6663|dock4
  -GOLD-   22720 7373D 1   1.00000     0.00000
 Structure written by MMmdl.
 47 48  0  0  0  0  0  0  0  0  1 V2000
  144.7037  144.2882  154.3197 C   0  0  0  0  0  0  0  0  0  0  0  0
  145.0591  143.7175  155.6662 C   0  0  0  0  0  0  0  0  0  0  0  0
  146.0473  142.8851  155.7016 N   0  0  0  0  0  0  0  0  0  0  0  0
  146.4534  142.3000  156.8854 N   0  0  0  0  0  0  0  0  0  0  0  0
  147.5724  141.3582  156.7340 C   0  0  0  0  0  0  0  0  0  0  0  0
  148.7015  141.5734  157.7530 C   0  0  0  0  0  0  0  0  0  0  0  0
  148.9430  140.7338  158.6218 O   0  0  0  0  0  0  0  0  0  0  0  0
  149.3996  142.7112  157.6175 N   0  0  0  0  0  0  0  0  0  0  0  0
  150.5180  143.1249  158.4626 C   0  0  2  0  0  0  0  0  0  0  0  0
  151.3401  144.2122  157.7436 C   0  0  0  0  0  0  0  0  0  0  0  0
  152.5052  144.7006  158.6176 C   0  0  0  0  0  0  0  0  0  0  0  0
  153.3931  143.5346  159.0801 C   0  0  0  0  0  0  0  0  0  0  0  0
  152.5674  142.4449  159.7934 C   0  0  2  0  0  0  0  0  0  0  0  0
  153.4616  141.3248  160.3506 C   0  0  0  0  0  0  0  0  0  0  0  0
  151.4086  141.9281  158.8990 C   0  0  2  0  0  0  0  0  0  0  0  0
  151.8840  141.0577  157.7123 C   0  0  0  0  0  0  0  0  0  0  0  0
  145.8878  142.5391  158.1039 C   0  0  0  0  0  0  0  0  0  0  0  0
  146.2896  142.0023  159.1374 O   0  0  0  0  0  0  0  0  0  0  0  0
  144.7682  143.4823  158.0561 C   0  0  0  0  0  0  0  0  0  0  0  0
  144.1426  143.7559  159.3095 C   0  0  0  0  0  0  0  0  0  0  0  0
  143.6448  143.9965  160.3267 N   0  0  0  0  0  0  0  0  0  0  0  0
  144.3537  144.0552  156.8982 C   0  0  0  0  0  0  0  0  0  0  0  0
  143.1958  145.0382  156.7938 C   0  0  0  0  0  0  0  0  0  0  0  0
  144.7367  145.3776  154.3384 H   0  0  0  0  0  0  0  0  0  0  0  0
  143.6996  143.9836  154.0241 H   0  0  0  0  0  0  0  0  0  0  0  0
  145.3916  143.9536  153.5417 H   0  0  0  0  0  0  0  0  0  0  0  0
  147.2144  140.3322  156.8388 H   0  0  0  0  0  0  0  0  0  0  0  0
  147.9827  141.4215  155.7242 H   0  0  0  0  0  0  0  0  0  0  0  0
  149.1372  143.3411  156.8733 H   0  0  0  0  0  0  0  0  0  0  0  0
  150.0996  143.5819  159.3619 H   0  0  0  0  0  0  0  0  0  0  0  0
  151.7262  143.8312  156.7976 H   0  0  0  0  0  0  0  0  0  0  0  0
  150.6991  145.0581  157.4921 H   0  0  0  0  0  0  0  0  0  0  0  0
  153.1030  145.4282  158.0679 H   0  0  0  0  0  0  0  0  0  0  0  0
  152.1099  145.2233  159.4895 H   0  0  0  0  0  0  0  0  0  0  0  0
  153.9186  143.1094  158.2246 H   0  0  0  0  0  0  0  0  0  0  0  0
  154.1643  143.9146  159.7512 H   0  0  0  0  0  0  0  0  0  0  0  0
  152.1045  142.9177  160.6614 H   0  0  0  0  0  0  0  0  0  0  0  0
  154.0544  140.8515  159.5679 H   0  0  0  0  0  0  0  0  0  0  0  0
  152.8671  140.5517  160.8380 H   0  0  0  0  0  0  0  0  0  0  0  0
  154.1584  141.7180  161.0915 H   0  0  0  0  0  0  0  0  0  0  0  0
  150.7937  141.2789  159.5240 H   0  0  0  0  0  0  0  0  0  0  0  0
  152.5380  141.6066  157.0357 H   0  0  0  0  0  0  0  0  0  0  0  0
  151.0440  140.6858  157.1259 H   0  0  0  0  0  0  0  0  0  0  0  0
  152.4280  140.1785  158.0557 H   0  0  0  0  0  0  0  0  0  0  0  0
  142.7023  145.1987  157.7518 H   0  0  0  0  0  0  0  0  0  0  0  0
  142.4423  144.6698  156.0969 H   0  0  0  0  0  0  0  0  0  0  0  0
  143.5485  146.0073  156.4395 H   0  0  0  0  0  0  0  0  0  0  0  0
  1  2  1  0  0  0  0
  1 24  1  0  0  0  0
  1 25  1  0  0  0  0
  1 26  1  0  0  0  0
  2 22  1  0  0  0  0
  2  3  2  0  0  0  0
  3  4  1  0  0  0  0
  4  5  1  0  0  0  0
  4 17  1  0  0  0  0
  5  6  1  0  0  0  0
  5 27  1  0  0  0  0
  5 28  1  0  0  0  0
  6  7  2  0  0  0  0
  6  8  1  0  0  0  0
  8  9  1  0  0  0  0
  8 29  1  0  0  0  0
  9 15  1  0  0  0  0
  9 10  1  0  0  0  0
  9 30  1  0  0  0  0
 10 11  1  0  0  0  0
 10 31  1  0  0  0  0
 10 32  1  0  0  0  0
 11 12  1  0  0  0  0
 11 33  1  0  0  0  0
 11 34  1  0  0  0  0
 12 13  1  0  0  0  0
 12 35  1  0  0  0  0
 12 36  1  0  0  0  0
 13 14  1  0  0  0  0
 13 15  1  0  0  0  0
 13 37  1  0  0  0  0
 14 38  1  0  0  0  0
 14 39  1  0  0  0  0
 14 40  1  0  0  0  0
 15 16  1  0  0  0  0
 15 41  1  0  0  0  0
 16 42  1  0  0  0  0
 16 43  1  0  0  0  0
 16 44  1  0  0  0  0
 17 18  2  0  0  0  0
 17 19  1  0  0  0  0
 19 20  1  0  0  0  0
 19 22  2  0  0  0  0
 20 21  3  0  0  0  0
 22 23  1  0  0  0  0
 23 45  1  0  0  0  0
 23 46  1  0  0  0  0
 23 47  1  0  0  0  0
M  END
> <s_m_source_file>
AV-unprocessed.smi

> <i_m_source_file_index>
1662

> <i_lp_mmshare_version>
43012

> <i_f3d_flags>
0

> <s_epik_input>
TiNDYyhjMVtDSDNdKWMoPU8pbihuYzFbQ0gzXSlbQ0gyXUMoPU8pW05IXVtDQEBIXTJbQ0gyXVtDSDJdW0NIMl1bQ0BASF0oW0NIM10pW0NASF0yW0NIM10=

> <s_epik_cmdline>
J2VwaWtfcHl0aG9uJywgJy1waCcsICc3LjAnLCAnLXRuJywgJzgnLCAnLW1hJywgJzIwMCcsICctbWV0YWxfYmluZGluZycsICctaW1hZScsICc8aW5maWxlLm1hZT4nLCAnLW9tYWUnLCAnPG91dGZpbGUubWFlPic=

> <r_lp_tautomer_probability>
1

> <r_epik_Ionization_Penalty>
1.90709e-08

> <r_epik_Ionization_Penalty_Charging>
2.37982e-11

> <r_epik_Ionization_Penalty_Neutral>
1.90471e-08

> <r_epik_State_Penalty>
-0

> <r_epik_Charging_Adjusted_Penalty>
2.37982e-11

> <i_epik_Tot_Q>
0

> <i_epik_Tot_abs_Q>
0

> <r_epik_Metal_State_Penalty>
-0

> <b_epik_Metal_Only>
0

> <s_lp_Force_Field>
OPLS_2005

> <r_lp_Energy>
29.1366

> <b_lp_Chiralities_Consistent>
1

> <s_lp_Variant>
AV-unprocessed.smi:1662-7

> <Gold.Version>
5.8.1

> <Gold.Id.Protein>
6NUR|6NUR_protein|mol2

> <Gold.PLP.Fitness>
41.8417

> <Gold.PLP.PLP>
-36.8780

> <Gold.PLP.part.hbond>
-3.4167

> <Gold.PLP.part.metal>
0.0000

> <Gold.PLP.part.buried>
-3.7060

> <Gold.PLP.part.nonpolar>
-30.9372

> <Gold.PLP.part.repulsive>
0.2847

> <Gold.PLP.ligand.clash>
0.0000

> <Gold.PLP.ligand.torsion>
0.4772

> <Gold.PLP.Chemscore.Hbond>
1.9675

> <Gold.PLP.Chemscore.CHOScore>
0.0000

> <Gold.PLP.Chemscore.Metal>
0.0000

> <Gold.Chemscore.Hbonds>
donor molecule, donor type, donor heavy atom, donor atom, acceptor molecule, acceptor atom, score
      L1  H     8    29       P1  8028  1.00
      P1  H  6934  6946       L1    18  0.97

> <Gold.PLP.Chemscore.Internal.Correction>
0.0156

> <Gold.Rescore>
     Score         DG    S(hbond)    S(metal)    S(lipo)     H(rot)  DE(clash)    DE(int)     intcor
     15.43     -19.63       1.76        0.00     102.45       1.45       0.08       4.12       ----

> <Gold.Chemscore.Fitness>
15.4303

> <Gold.Chemscore.DG>
-19.6259

> <Gold.Chemscore.ZeroCoef>
-5.4800

> <Gold.Chemscore.Hbond>
1.7581

> <Gold.Chemscore.Metal>
0.0000

> <Gold.Chemscore.Lipo>
102.4516

> <Gold.Chemscore.Internal_Hbond>
0.0000

> <Gold.Chemscore.DEClash>
0.0803

> <Gold.Chemscore.DEInternal>
4.1152

> <Gold.Chemscore.Rot>
1.4504

> <Gold.Chemscore.Internal.Correction>
   9.000000E+99

> <Gold.Chemscore.Hbonds>
donor molecule, donor type, donor heavy atom, donor atom, acceptor molecule, acceptor atom, score
      L1  H     8    29       P1  8028  0.91
      P1  H  6934  6946       L1    18  0.85

> <Gold.Chemscore.Hbond.Weighted>
-5.8720

> <Gold.Chemscore.Metal.Weighted>
-0.0000

> <Gold.Chemscore.Lipo.Weighted>
-11.9868

> <Gold.Chemscore.Internal_Hbond.Weighted>
0.0000

> <Gold.Chemscore.DEClash.Weighted>
0.0803

> <Gold.Chemscore.DEInternal.Weighted>
4.1152

> <Gold.Chemscore.Rot.Weighted>
3.7129

> <Gold.Chemscore.Internal.Correction.Weighted>
   9.000000E+99

> <Gold.Protein.RotatedTorsions>
[ 6907 6896 6895 6894 ] final   94.07 input  -60.11 | X-H torsion
[ 7974 7965 7964 7962 ] final  -71.27 input  175.53 | X-H torsion
[ 8008 7997 7996 7995 ] final  -28.08 input   59.86 | X-H torsion
[ 10167 10162 10161 10158 ] final  131.74 input  -65.29 | X-H torsion
[ 10718 10713 10712 10709 ] final  -38.08 input   66.30 | X-H torsion
[ 10763 10752 10751 10750 ] final   12.17 input  -60.55 | X-H torsion
[ 11005 11000 10999 10996 ] final  170.38 input  -57.11 | X-H torsion

> <Gold.Protein.ActiveResidues>
 VAL166  LYS551  ARG553  GLY616  TRP617  ASP618  TYR619  PRO620  LYS621  CYS622 
 ASP623  PHE694  ASN695  SER759  ASP760  ASP761  ALA762  ILE779  LEU786  VAL792 
 PHE793  MET794  SER795  GLU796  ALA797  LYS798  CYS799  TRP800  GLU811  SER814 

> <Gold.Protein.RotatedAtoms>
  152.5451  134.1250  159.8414 H   0  0  0  0  0  0  0  0  0  0  0  0  # atno 6907 bound_to 6896
  151.1302  133.5035  159.2607 H   0  0  0  0  0  0  0  0  0  0  0  0  # atno 6908 bound_to 6896
  151.1683  135.0316  159.8795 H   0  0  0  0  0  0  0  0  0  0  0  0  # atno 6909 bound_to 6896
  145.6802  140.9190  143.0836 H   0  0  0  0  0  0  0  0  0  0  0  0  # atno 7974 bound_to 7965
  154.4348  140.1855  156.1032 H   0  0  0  0  0  0  0  0  0  0  0  0  # atno 8008 bound_to 7997
  156.0275  140.3334  155.7079 H   0  0  0  0  0  0  0  0  0  0  0  0  # atno 8009 bound_to 7997
  155.5887  140.0629  157.2755 H   0  0  0  0  0  0  0  0  0  0  0  0  # atno 8010 bound_to 7997
  139.5370  144.6693  151.4752 H   0  0  0  0  0  0  0  0  0  0  0  0  # atno 10167 bound_to 10162
  156.3079  130.4248  149.8079 H   0  0  0  0  0  0  0  0  0  0  0  0  # atno 10718 bound_to 10713
  153.1850  135.6833  153.8428 H   0  0  0  0  0  0  0  0  0  0  0  0  # atno 10763 bound_to 10752
  153.7747  135.3191  155.3358 H   0  0  0  0  0  0  0  0  0  0  0  0  # atno 10764 bound_to 10752
  154.8083  135.4734  154.0545 H   0  0  0  0  0  0  0  0  0  0  0  0  # atno 10765 bound_to 10752
  140.3077  134.7543  157.3966 H   0  0  0  0  0  0  0  0  0  0  0  0  # atno 11005 bound_to 11000
  144.7028  139.8686  143.7439 LP  0  0  0  0  0  0  0  0  0  0  0  0  # atno 17320 bound_to 7965
  146.0971  139.3964  143.0370 LP  0  0  0  0  0  0  0  0  0  0  0  0  # atno 17321 bound_to 7965
  140.6582  143.8555  150.6858 LP  0  0  0  0  0  0  0  0  0  0  0  0  # atno 17342 bound_to 10162
  140.1941  143.4012  152.1841 LP  0  0  0  0  0  0  0  0  0  0  0  0  # atno 17343 bound_to 10162
  156.5433  130.8309  151.3276 LP  0  0  0  0  0  0  0  0  0  0  0  0  # atno 17370 bound_to 10713
  157.7384  130.9812  150.2249 LP  0  0  0  0  0  0  0  0  0  0  0  0  # atno 17371 bound_to 10713
  140.1052  134.5419  155.8316 LP  0  0  0  0  0  0  0  0  0  0  0  0  # atno 17394 bound_to 11000
  141.2115  133.6707  156.6586 LP  0  0  0  0  0  0  0  0  0  0  0  0  # atno 17395 bound_to 11000

$$$$
