AV-unprocessed.smi:1830|AV-procd|sdf|7448|dock10
  -GOLD-   22720 9133D 1   1.00000     0.00000
 Structure written by MMmdl.
 54 57  0  0  0  0  0  0  0  0  3 V2000
  149.4796  136.9464  156.1239 O   0  0  0  0  0  0  0  0  0  0  0  0
  148.4236  137.5008  155.8220 C   0  0  0  0  0  0  0  0  0  0  0  0
  147.2928  136.8346  155.5577 N   0  0  0  0  0  0  0  0  0  0  0  0
  147.1712  135.3816  155.5875 C   0  0  0  0  0  0  0  0  0  0  0  0
  147.4309  134.7526  154.2079 C   0  0  2  0  0  0  0  0  0  0  0  0
  146.3470  135.0821  153.1648 C   0  0  0  0  0  0  0  0  0  0  0  0
  146.6422  134.4414  151.8583 N   0  3  2  0  0  0  0  0  0  0  0  0
  145.4858  134.4882  150.9367 C   0  0  0  0  0  0  0  0  0  0  0  0
  144.7645  133.1337  151.0664 C   0  0  0  0  0  0  0  0  0  0  0  0
  145.6410  132.2826  151.9929 C   0  0  0  0  0  0  0  0  0  0  0  0
  146.9869  133.0077  151.9811 C   0  0  2  0  0  0  0  0  0  0  0  0
  147.9302  132.7030  153.1630 C   0  0  0  0  0  0  0  0  0  0  0  0
  147.4899  133.3396  154.3545 O   0  0  0  0  0  0  0  0  0  0  0  0
  148.2406  138.8285  155.7282 N   0  0  0  0  0  0  0  0  0  0  0  0
  149.1814  139.8720  155.9655 C   0  0  0  0  0  0  0  0  0  0  0  0
  150.5293  139.6258  156.3345 C   0  0  0  0  0  0  0  0  0  0  0  0
  151.4072  140.7088  156.5395 C   0  0  0  0  0  0  0  0  0  0  0  0
  150.9300  142.0205  156.3635 C   0  0  0  0  0  0  0  0  0  0  0  0
  149.6475  142.2214  155.9951 N   0  3  0  0  0  0  0  0  0  0  0  0
  148.7629  141.2154  155.7861 C   0  0  0  0  0  0  0  0  0  0  0  0
  147.4508  141.5338  155.3950 N   0  0  0  0  0  0  0  0  0  0  0  0
  146.6932  142.3459  156.3326 C   0  0  0  0  0  0  0  0  0  0  0  0
  145.4918  142.8654  155.5394 C   0  0  0  0  0  0  0  0  0  0  0  0
  145.9269  142.7889  154.0707 C   0  0  0  0  0  0  0  0  0  0  0  0
  147.3379  142.1955  154.1059 C   0  0  0  0  0  0  0  0  0  0  0  0
  146.4617  137.3613  155.3315 H   0  0  0  0  0  0  0  0  0  0  0  0
  147.8791  134.9757  156.3119 H   0  0  0  0  0  0  0  0  0  0  0  0
  146.1727  135.1124  155.9352 H   0  0  0  0  0  0  0  0  0  0  0  0
  148.3972  135.1174  153.8547 H   0  0  0  0  0  0  0  0  0  0  0  0
  145.3733  134.7421  153.5211 H   0  0  0  0  0  0  0  0  0  0  0  0
  146.2715  136.1610  153.0242 H   0  0  0  0  0  0  0  0  0  0  0  0
  144.8264  135.3351  151.1333 H   0  0  0  0  0  0  0  0  0  0  0  0
  145.8645  134.6039  149.9205 H   0  0  0  0  0  0  0  0  0  0  0  0
  143.7619  133.2498  151.4792 H   0  0  0  0  0  0  0  0  0  0  0  0
  144.6642  132.6646  150.0867 H   0  0  0  0  0  0  0  0  0  0  0  0
  145.2216  132.2796  153.0000 H   0  0  0  0  0  0  0  0  0  0  0  0
  145.7201  131.2463  151.6626 H   0  0  0  0  0  0  0  0  0  0  0  0
  147.4990  132.7234  151.0601 H   0  0  0  0  0  0  0  0  0  0  0  0
  147.9897  131.6275  153.3316 H   0  0  0  0  0  0  0  0  0  0  0  0
  148.9432  133.0360  152.9313 H   0  0  0  0  0  0  0  0  0  0  0  0
  147.2946  139.1327  155.5498 H   0  0  0  0  0  0  0  0  0  0  0  0
  150.9142  138.6248  156.4517 H   0  0  0  0  0  0  0  0  0  0  0  0
  152.4347  140.5339  156.8234 H   0  0  0  0  0  0  0  0  0  0  0  0
  151.5319  142.9077  156.4975 H   0  0  0  0  0  0  0  0  0  0  0  0
  146.3799  141.7593  157.1969 H   0  0  0  0  0  0  0  0  0  0  0  0
  147.2939  143.1823  156.6925 H   0  0  0  0  0  0  0  0  0  0  0  0
  144.6246  142.2242  155.7027 H   0  0  0  0  0  0  0  0  0  0  0  0
  145.2177  143.8770  155.8402 H   0  0  0  0  0  0  0  0  0  0  0  0
  145.2518  142.1361  153.5161 H   0  0  0  0  0  0  0  0  0  0  0  0
  145.9175  143.7652  153.5850 H   0  0  0  0  0  0  0  0  0  0  0  0
  148.0805  142.9896  154.0170 H   0  0  0  0  0  0  0  0  0  0  0  0
  147.4980  141.4916  153.2885 H   0  0  0  0  0  0  0  0  0  0  0  0
  147.4237  134.9333  151.4482 H   0  0  0  0  0  0  0  0  0  0  0  0
  149.3281  143.1816  155.8663 H   0  0  0  0  0  0  0  0  0  0  0  0
  1  2  2  0  0  0  0
  2  3  1  0  0  0  0
  2 14  1  0  0  0  0
  3  4  1  0  0  0  0
  3 26  1  0  0  0  0
  4  5  1  0  0  0  0
  4 27  1  0  0  0  0
  4 28  1  0  0  0  0
  5 13  1  0  0  0  0
  5  6  1  0  0  0  0
  5 29  1  0  0  0  0
  6  7  1  0  0  0  0
  6 30  1  0  0  0  0
  6 31  1  0  0  0  0
  7 11  1  0  0  0  0
  7  8  1  0  0  0  0
  7 53  1  0  0  0  0
  8  9  1  0  0  0  0
  8 32  1  0  0  0  0
  8 33  1  0  0  0  0
  9 10  1  0  0  0  0
  9 34  1  0  0  0  0
  9 35  1  0  0  0  0
 10 11  1  0  0  0  0
 10 36  1  0  0  0  0
 10 37  1  0  0  0  0
 11 12  1  0  0  0  0
 11 38  1  0  0  0  0
 12 13  1  0  0  0  0
 12 39  1  0  0  0  0
 12 40  1  0  0  0  0
 14 15  1  0  0  0  0
 14 41  1  0  0  0  0
 15 20  1  0  0  0  0
 15 16  2  0  0  0  0
 16 17  1  0  0  0  0
 16 42  1  0  0  0  0
 17 18  2  0  0  0  0
 17 43  1  0  0  0  0
 18 19  1  0  0  0  0
 18 44  1  0  0  0  0
 19 20  2  0  0  0  0
 19 54  1  0  0  0  0
 20 21  1  0  0  0  0
 21 25  1  0  0  0  0
 21 22  1  0  0  0  0
 22 23  1  0  0  0  0
 22 45  1  0  0  0  0
 22 46  1  0  0  0  0
 23 24  1  0  0  0  0
 23 47  1  0  0  0  0
 23 48  1  0  0  0  0
 24 25  1  0  0  0  0
 24 49  1  0  0  0  0
 24 50  1  0  0  0  0
 25 51  1  0  0  0  0
 25 52  1  0  0  0  0
M  CHG  1   7   1
M  CHG  1  19   1
M  END
> <s_m_source_file>
AV-unprocessed.smi

> <i_m_source_file_index>
1830

> <i_lp_mmshare_version>
43012

> <i_f3d_flags>
0

> <s_epik_input>
W0NIMl0xW0NIMl1bQ0gyXVtDQEhdKE4xMilbQ0gyXU9bQ0BASF0oW0NIMl0yKVtDSDJdW05IXUMoPU8pW05IXWMzW2NIXVtjSF1bY0hdbmMzTjRbQ0gyXVtDSDJdW0NIMl1bQ0gyXTQ=

> <s_epik_cmdline>
J2VwaWtfcHl0aG9uJywgJy1waCcsICc3LjAnLCAnLXRuJywgJzgnLCAnLW1hJywgJzIwMCcsICctbWV0YWxfYmluZGluZycsICctaW1hZScsICc8aW5maWxlLm1hZT4nLCAnLW9tYWUnLCAnPG91dGZpbGUubWFlPic=

> <r_lp_tautomer_probability>
0.999994

> <r_epik_Ionization_Penalty>
1.29113

> <r_epik_Ionization_Penalty_Charging>
1.29111

> <r_epik_Ionization_Penalty_Neutral>
1.88144e-05

> <r_epik_State_Penalty>
1.32676

> <r_epik_Charging_Adjusted_Penalty>
2.61787

> <i_epik_Tot_Q>
2

> <i_epik_Tot_abs_Q>
2

> <r_epik_Metal_State_Penalty>
1.40425

> <b_epik_Metal_Only>
0

> <s_lp_Force_Field>
OPLS_2005

> <r_lp_Energy>
77.5794

> <b_lp_Chiralities_Consistent>
1

> <s_lp_Variant>
AV-unprocessed.smi:1830-17

> <Gold.Version>
5.8.1

> <Gold.Id.Protein>
6NUR|6NUR_protein|mol2

> <Gold.PLP.Fitness>
43.9079

> <Gold.PLP.PLP>
-32.8749

> <Gold.PLP.part.hbond>
-2.0000

> <Gold.PLP.part.metal>
0.0000

> <Gold.PLP.part.buried>
-4.4784

> <Gold.PLP.part.nonpolar>
-27.0197

> <Gold.PLP.part.repulsive>
0.3283

> <Gold.PLP.ligand.clash>
0.0000

> <Gold.PLP.ligand.torsion>
0.2329

> <Gold.PLP.Chemscore.Hbond>
3.8240

> <Gold.PLP.Chemscore.CHOScore>
0.0000

> <Gold.PLP.Chemscore.Metal>
0.0000

> <Gold.Chemscore.Hbonds>
donor molecule, donor type, donor heavy atom, donor atom, acceptor molecule, acceptor atom, score
      L1  H     7    53       P1  7948  1.82
      L1  H    19    54       P1  8028  2.00

> <Gold.PLP.Chemscore.Internal.Correction>
0.0267

> <Gold.Rescore>
     Score         DG    S(hbond)    S(metal)    S(lipo)     H(rot)  DE(clash)    DE(int)     intcor
     14.78     -16.37       1.86        0.00      71.35       1.43       0.08       1.51       ----

> <Gold.Chemscore.Fitness>
14.7803

> <Gold.Chemscore.DG>
-16.3725

> <Gold.Chemscore.ZeroCoef>
-5.4800

> <Gold.Chemscore.Hbond>
1.8563

> <Gold.Chemscore.Metal>
0.0000

> <Gold.Chemscore.Lipo>
71.3458

> <Gold.Chemscore.Internal_Hbond>
0.0000

> <Gold.Chemscore.DEClash>
0.0814

> <Gold.Chemscore.DEInternal>
1.5109

> <Gold.Chemscore.Rot>
1.4278

> <Gold.Chemscore.Internal.Correction>
   9.000000E+99

> <Gold.Chemscore.Hbonds>
donor molecule, donor type, donor heavy atom, donor atom, acceptor molecule, acceptor atom, score
      L1  H     7    53       P1  7948  0.47
      L1  H    19    54       P1  8028  0.99

> <Gold.Chemscore.Hbond.Weighted>
-6.2002

> <Gold.Chemscore.Metal.Weighted>
-0.0000

> <Gold.Chemscore.Lipo.Weighted>
-8.3475

> <Gold.Chemscore.Internal_Hbond.Weighted>
0.0000

> <Gold.Chemscore.DEClash.Weighted>
0.0814

> <Gold.Chemscore.DEInternal.Weighted>
1.5109

> <Gold.Chemscore.Rot.Weighted>
3.6551

> <Gold.Chemscore.Internal.Correction.Weighted>
   9.000000E+99

> <Gold.Protein.RotatedTorsions>
[ 6907 6896 6895 6894 ] final   -5.34 input  -60.11 | X-H torsion
[ 7974 7965 7964 7962 ] final    4.31 input  175.53 | X-H torsion
[ 8008 7997 7996 7995 ] final  162.86 input   59.86 | X-H torsion
[ 10167 10162 10161 10158 ] final   27.57 input  -65.29 | X-H torsion
[ 10718 10713 10712 10709 ] final  140.33 input   66.30 | X-H torsion
[ 10763 10752 10751 10750 ] final  105.60 input  -60.55 | X-H torsion
[ 11005 11000 10999 10996 ] final -138.47 input  -57.11 | X-H torsion

> <Gold.Protein.ActiveResidues>
 VAL166  LYS551  ARG553  GLY616  TRP617  ASP618  TYR619  PRO620  LYS621  CYS622 
 ASP623  PHE694  ASN695  SER759  ASP760  ASP761  ALA762  ILE779  LEU786  VAL792 
 PHE793  MET794  SER795  GLU796  ALA797  LYS798  CYS799  TRP800  GLU811  SER814 

> <Gold.Protein.RotatedAtoms>
  151.4831  135.1053  159.9782 H   0  0  0  0  0  0  0  0  0  0  0  0  # atno 6907 bound_to 6896
  152.4771  133.8160  159.7039 H   0  0  0  0  0  0  0  0  0  0  0  0  # atno 6908 bound_to 6896
  150.8816  133.7302  159.2957 H   0  0  0  0  0  0  0  0  0  0  0  0  # atno 6909 bound_to 6896
  146.2444  140.0554  142.8372 H   0  0  0  0  0  0  0  0  0  0  0  0  # atno 7974 bound_to 7965
  156.2000  140.1739  156.7920 H   0  0  0  0  0  0  0  0  0  0  0  0  # atno 8008 bound_to 7997
  154.5579  140.0705  156.8803 H   0  0  0  0  0  0  0  0  0  0  0  0  # atno 8009 bound_to 7997
  155.2904  140.3355  155.4255 H   0  0  0  0  0  0  0  0  0  0  0  0  # atno 8010 bound_to 7997
  140.4927  144.0441  150.6303 H   0  0  0  0  0  0  0  0  0  0  0  0  # atno 10167 bound_to 10162
  157.4045  131.1020  151.0518 H   0  0  0  0  0  0  0  0  0  0  0  0  # atno 10718 bound_to 10713
  153.3816  135.3904  155.1860 H   0  0  0  0  0  0  0  0  0  0  0  0  # atno 10763 bound_to 10752
  154.8708  135.3727  154.4850 H   0  0  0  0  0  0  0  0  0  0  0  0  # atno 10764 bound_to 10752
  153.5327  135.7085  153.5736 H   0  0  0  0  0  0  0  0  0  0  0  0  # atno 10765 bound_to 10752
  140.8613  134.2165  157.4705 H   0  0  0  0  0  0  0  0  0  0  0  0  # atno 11005 bound_to 11000
  145.0947  140.9307  143.4748 LP  0  0  0  0  0  0  0  0  0  0  0  0  # atno 17320 bound_to 7965
  145.0734  139.3014  143.5820 LP  0  0  0  0  0  0  0  0  0  0  0  0  # atno 17321 bound_to 7965
  140.3715  143.2852  152.0273 LP  0  0  0  0  0  0  0  0  0  0  0  0  # atno 17342 bound_to 10162
  139.4854  144.6226  151.7226 LP  0  0  0  0  0  0  0  0  0  0  0  0  # atno 17343 bound_to 10162
  157.1505  130.6182  149.5581 LP  0  0  0  0  0  0  0  0  0  0  0  0  # atno 17370 bound_to 10713
  155.9832  130.4851  150.6923 LP  0  0  0  0  0  0  0  0  0  0  0  0  # atno 17371 bound_to 10713
  139.8707  134.9731  156.4796 LP  0  0  0  0  0  0  0  0  0  0  0  0  # atno 17394 bound_to 11000
  140.8679  133.8010  155.9334 LP  0  0  0  0  0  0  0  0  0  0  0  0  # atno 17395 bound_to 11000

$$$$
