AV-unprocessed.smi:2117|AV-procd|sdf|8626|dock1
  -GOLD-   2272011373D 1   1.00000     0.00000
 Structure written by MMmdl.
 26 27  0  0  0  0  0  0  0  0  1 V2000
  150.4149  142.8799  156.2930 N   0  0  0  0  0  0  0  0  0  0  0  0
  151.2689  142.9239  157.3974 C   0  0  0  0  0  0  0  0  0  0  0  0
  151.6335  144.1693  157.9488 C   0  0  0  0  0  0  0  0  0  0  0  0
  152.4951  144.1969  159.0610 C   0  0  0  0  0  0  0  0  0  0  0  0
  152.9579  142.9723  159.5781 C   0  0  0  0  0  0  0  0  0  0  0  0
  152.6163  141.7739  159.0602 N   0  0  0  0  0  0  0  0  0  0  0  0
  151.7866  141.7440  157.9888 C   0  0  0  0  0  0  0  0  0  0  0  0
  151.4474  140.4849  157.4659 N   0  0  0  0  0  0  0  0  0  0  0  0
  151.9006  140.2810  156.0958 C   0  0  0  0  0  0  0  0  0  0  0  0
  151.3679  138.9406  155.5610 C   0  0  0  0  0  0  0  0  0  0  0  0
  151.7696  137.8848  156.4299 O   0  0  0  0  0  0  0  0  0  0  0  0
  151.2604  138.0552  157.7499 C   0  0  0  0  0  0  0  0  0  0  0  0
  151.7917  139.3721  158.3420 C   0  0  0  0  0  0  0  0  0  0  0  0
  150.1337  142.0053  155.8737 H   0  0  0  0  0  0  0  0  0  0  0  0
  150.0585  143.7265  155.8729 H   0  0  0  0  0  0  0  0  0  0  0  0
  151.2605  145.0916  157.5277 H   0  0  0  0  0  0  0  0  0  0  0  0
  152.7942  145.1338  159.5070 H   0  0  0  0  0  0  0  0  0  0  0  0
  153.6206  142.9542  160.4306 H   0  0  0  0  0  0  0  0  0  0  0  0
  151.5542  141.1013  155.4660 H   0  0  0  0  0  0  0  0  0  0  0  0
  152.9911  140.2853  156.0627 H   0  0  0  0  0  0  0  0  0  0  0  0
  150.2804  138.9604  155.4754 H   0  0  0  0  0  0  0  0  0  0  0  0
  151.7629  138.7503  154.5630 H   0  0  0  0  0  0  0  0  0  0  0  0
  150.1694  138.0483  157.7331 H   0  0  0  0  0  0  0  0  0  0  0  0
  151.5754  137.2123  158.3649 H   0  0  0  0  0  0  0  0  0  0  0  0
  152.8746  139.3140  158.4592 H   0  0  0  0  0  0  0  0  0  0  0  0
  151.3667  139.5371  159.3329 H   0  0  0  0  0  0  0  0  0  0  0  0
  1  2  1  0  0  0  0
  1 14  1  0  0  0  0
  1 15  1  0  0  0  0
  2  7  1  0  0  0  0
  2  3  2  0  0  0  0
  3  4  1  0  0  0  0
  3 16  1  0  0  0  0
  4  5  2  0  0  0  0
  4 17  1  0  0  0  0
  5  6  1  0  0  0  0
  5 18  1  0  0  0  0
  6  7  2  0  0  0  0
  7  8  1  0  0  0  0
  8 13  1  0  0  0  0
  8  9  1  0  0  0  0
  9 10  1  0  0  0  0
  9 19  1  0  0  0  0
  9 20  1  0  0  0  0
 10 11  1  0  0  0  0
 10 21  1  0  0  0  0
 10 22  1  0  0  0  0
 11 12  1  0  0  0  0
 12 13  1  0  0  0  0
 12 23  1  0  0  0  0
 12 24  1  0  0  0  0
 13 25  1  0  0  0  0
 13 26  1  0  0  0  0
M  END
> <s_m_source_file>
AV-unprocessed.smi

> <i_m_source_file_index>
2117

> <i_lp_mmshare_version>
43012

> <i_f3d_flags>
0

> <s_epik_input>
W05IMl1jMVtjSF1bY0hdW2NIXW5jMU4yW0NIMl1bQ0gyXU9bQ0gyXVtDSDJdMg==

> <s_epik_cmdline>
J2VwaWtfcHl0aG9uJywgJy1waCcsICc3LjAnLCAnLXRuJywgJzgnLCAnLW1hJywgJzIwMCcsICctbWV0YWxfYmluZGluZycsICctaW1hZScsICc8aW5maWxlLm1hZT4nLCAnLW9tYWUnLCAnPG91dGZpbGUubWFlPic=

> <r_lp_tautomer_probability>
1

> <r_epik_Ionization_Penalty>
0.00962163

> <r_epik_Ionization_Penalty_Charging>
0

> <r_epik_Ionization_Penalty_Neutral>
0.00962163

> <r_epik_State_Penalty>
0.00726246

> <r_epik_Charging_Adjusted_Penalty>
0.00726246

> <i_epik_Tot_Q>
0

> <i_epik_Tot_abs_Q>
0

> <r_epik_Metal_State_Penalty>
7.30711e-06

> <b_epik_Metal_Only>
0

> <s_lp_Force_Field>
OPLS_2005

> <r_lp_Energy>
21.1425

> <b_lp_Chiralities_Consistent>
1

> <s_lp_Variant>
AV-unprocessed.smi:2117-1

> <Gold.Version>
5.8.1

> <Gold.Id.Protein>
6NUR|6NUR_protein|mol2

> <Gold.PLP.Fitness>
29.1976

> <Gold.PLP.PLP>
-26.4137

> <Gold.PLP.part.hbond>
-0.8074

> <Gold.PLP.part.metal>
0.0000

> <Gold.PLP.part.buried>
-4.3867

> <Gold.PLP.part.nonpolar>
-21.4618

> <Gold.PLP.part.repulsive>
0.1057

> <Gold.PLP.ligand.clash>
0.0000

> <Gold.PLP.ligand.torsion>
0.1651

> <Gold.PLP.Chemscore.Hbond>
1.0000

> <Gold.PLP.Chemscore.CHOScore>
0.0000

> <Gold.PLP.Chemscore.Metal>
0.0000

> <Gold.Chemscore.Hbonds>
donor molecule, donor type, donor heavy atom, donor atom, acceptor molecule, acceptor atom, score
      L1  H     1    15       P1  8028  1.00

> <Gold.PLP.Chemscore.Internal.Correction>
0.1142

> <Gold.Rescore>
     Score         DG    S(hbond)    S(metal)    S(lipo)     H(rot)  DE(clash)    DE(int)     intcor
     14.04     -14.39       0.99        0.00      69.63       1.00       0.00       0.34       ----

> <Gold.Chemscore.Fitness>
14.0378

> <Gold.Chemscore.DG>
-14.3851

> <Gold.Chemscore.ZeroCoef>
-5.4800

> <Gold.Chemscore.Hbond>
0.9937

> <Gold.Chemscore.Metal>
0.0000

> <Gold.Chemscore.Lipo>
69.6255

> <Gold.Chemscore.Internal_Hbond>
0.0000

> <Gold.Chemscore.DEClash>
0.0048

> <Gold.Chemscore.DEInternal>
0.3425

> <Gold.Chemscore.Rot>
1.0000

> <Gold.Chemscore.Internal.Correction>
   9.000000E+99

> <Gold.Chemscore.Hbonds>
donor molecule, donor type, donor heavy atom, donor atom, acceptor molecule, acceptor atom, score
      L1  H     1    15       P1  8028  0.90

> <Gold.Chemscore.Hbond.Weighted>
-3.3189

> <Gold.Chemscore.Metal.Weighted>
-0.0000

> <Gold.Chemscore.Lipo.Weighted>
-8.1462

> <Gold.Chemscore.Internal_Hbond.Weighted>
0.0000

> <Gold.Chemscore.DEClash.Weighted>
0.0048

> <Gold.Chemscore.DEInternal.Weighted>
0.3425

> <Gold.Chemscore.Rot.Weighted>
2.5600

> <Gold.Chemscore.Internal.Correction.Weighted>
   9.000000E+99

> <Gold.Protein.RotatedTorsions>
[ 6907 6896 6895 6894 ] final  138.71 input  -60.11 | X-H torsion
[ 7974 7965 7964 7962 ] final   90.58 input  175.53 | X-H torsion
[ 8008 7997 7996 7995 ] final -104.39 input   59.86 | X-H torsion
[ 10167 10162 10161 10158 ] final  -12.83 input  -65.29 | X-H torsion
[ 10718 10713 10712 10709 ] final -126.35 input   66.30 | X-H torsion
[ 10763 10752 10751 10750 ] final  107.34 input  -60.55 | X-H torsion
[ 11005 11000 10999 10996 ] final -156.18 input  -57.11 | X-H torsion

> <Gold.Protein.ActiveResidues>
 VAL166  LYS551  ARG553  GLY616  TRP617  ASP618  TYR619  PRO620  LYS621  CYS622 
 ASP623  PHE694  ASN695  SER759  ASP760  ASP761  ALA762  ILE779  LEU786  VAL792 
 PHE793  MET794  SER795  GLU796  ALA797  LYS798  CYS799  TRP800  GLU811  SER814 

> <Gold.Protein.RotatedAtoms>
  152.2634  133.5317  159.5395 H   0  0  0  0  0  0  0  0  0  0  0  0  # atno 6907 bound_to 6896
  150.7133  134.0798  159.3903 H   0  0  0  0  0  0  0  0  0  0  0  0  # atno 6908 bound_to 6896
  151.8715  135.0487  160.0530 H   0  0  0  0  0  0  0  0  0  0  0  0  # atno 6909 bound_to 6896
  145.5171  139.2278  143.2692 H   0  0  0  0  0  0  0  0  0  0  0  0  # atno 7974 bound_to 7965
  154.8846  140.0418  157.1803 H   0  0  0  0  0  0  0  0  0  0  0  0  # atno 8008 bound_to 7997
  154.8603  140.2943  155.5522 H   0  0  0  0  0  0  0  0  0  0  0  0  # atno 8009 bound_to 7997
  156.2998  140.2448  156.3576 H   0  0  0  0  0  0  0  0  0  0  0  0  # atno 8010 bound_to 7997
  140.7170  143.5490  150.9322 H   0  0  0  0  0  0  0  0  0  0  0  0  # atno 10167 bound_to 10162
  156.1757  130.6698  151.0239 H   0  0  0  0  0  0  0  0  0  0  0  0  # atno 10718 bound_to 10713
  153.4054  135.3847  155.2015 H   0  0  0  0  0  0  0  0  0  0  0  0  # atno 10763 bound_to 10752
  154.8733  135.3781  154.4566 H   0  0  0  0  0  0  0  0  0  0  0  0  # atno 10764 bound_to 10752
  153.5068  135.7087  153.5864 H   0  0  0  0  0  0  0  0  0  0  0  0  # atno 10765 bound_to 10752
  140.6783  134.4172  157.5228 H   0  0  0  0  0  0  0  0  0  0  0  0  # atno 11005 bound_to 11000
  146.2130  140.5981  142.9051 LP  0  0  0  0  0  0  0  0  0  0  0  0  # atno 17320 bound_to 7965
  144.7696  140.5607  143.6679 LP  0  0  0  0  0  0  0  0  0  0  0  0  # atno 17321 bound_to 7965
  139.9214  143.6601  152.3096 LP  0  0  0  0  0  0  0  0  0  0  0  0  # atno 17342 bound_to 10162
  139.7020  144.7633  151.1258 LP  0  0  0  0  0  0  0  0  0  0  0  0  # atno 17343 bound_to 10162
  157.6834  131.0831  150.7308 LP  0  0  0  0  0  0  0  0  0  0  0  0  # atno 17370 bound_to 10713
  156.7366  130.4726  149.5487 LP  0  0  0  0  0  0  0  0  0  0  0  0  # atno 17371 bound_to 10713
  139.8959  134.8671  156.2109 LP  0  0  0  0  0  0  0  0  0  0  0  0  # atno 17394 bound_to 11000
  141.0337  133.6974  156.1475 LP  0  0  0  0  0  0  0  0  0  0  0  0  # atno 17395 bound_to 11000

$$$$
