AV-unprocessed.smi:994|AV-procd|sdf|4341|dock8
  -GOLD-   22720 2243D 1   1.00000     0.00000
 Structure written by MMmdl.
 37 38  0  0  0  0  0  0  0  0  2 V2000
  151.3829  139.0031  157.4871 O   0  0  0  0  0  0  0  0  0  0  0  0
  151.2813  140.1271  156.9939 C   0  0  0  0  0  0  0  0  0  0  0  0
  151.1741  140.3503  155.6752 N   0  0  0  0  0  0  0  0  0  0  0  0
  151.1339  139.3251  154.6331 C   0  0  2  0  0  0  0  0  0  0  0  0
  149.7893  138.5723  154.7279 C   0  0  0  0  0  0  0  0  0  0  0  0
  148.6233  139.3061  154.1096 C   0  0  0  0  0  0  0  0  0  0  0  0
  148.1201  140.5709  154.3231 C   0  0  0  0  0  0  0  0  0  0  0  0
  147.0278  140.7958  153.4812 N   0  0  0  0  0  0  0  0  0  0  0  0
  146.9121  139.6656  152.7932 C   0  0  0  0  0  0  0  0  0  0  0  0
  147.8256  138.7494  153.1246 N   0  0  0  0  0  0  0  0  0  0  0  0
  152.2861  138.3322  154.8479 C   0  0  0  0  0  0  0  0  0  0  0  0
  151.9823  137.1227  154.9392 O   0  0  0  0  0  0  0  0  0  0  0  0
  153.4481  138.7931  154.9214 O   0  5  0  0  0  0  0  0  0  0  0  0
  151.2850  141.3698  157.8934 C   0  0  0  0  0  0  0  0  0  0  0  0
  151.3177  142.6601  157.0469 C   0  0  0  0  0  0  0  0  0  0  0  0
  151.3331  143.9132  157.9379 C   0  0  0  0  0  0  0  0  0  0  0  0
  152.5095  143.8793  158.9266 C   0  0  0  0  0  0  0  0  0  0  0  0
  152.4909  142.5941  159.7692 C   0  0  0  0  0  0  0  0  0  0  0  0
  152.4750  141.3427  158.8762 C   0  0  0  0  0  0  0  0  0  0  0  0
  147.9262  137.8278  152.7233 H   0  0  0  0  0  0  0  0  0  0  0  0
  151.0780  141.3055  155.3641 H   0  0  0  0  0  0  0  0  0  0  0  0
  151.2254  139.7740  153.6420 H   0  0  0  0  0  0  0  0  0  0  0  0
  149.8735  137.6030  154.2344 H   0  0  0  0  0  0  0  0  0  0  0  0
  149.5389  138.3651  155.7698 H   0  0  0  0  0  0  0  0  0  0  0  0
  148.4614  141.3329  155.0082 H   0  0  0  0  0  0  0  0  0  0  0  0
  146.1557  139.5039  152.0395 H   0  0  0  0  0  0  0  0  0  0  0  0
  150.3636  141.3711  158.4789 H   0  0  0  0  0  0  0  0  0  0  0  0
  152.1995  142.6664  156.4040 H   0  0  0  0  0  0  0  0  0  0  0  0
  150.4524  142.6955  156.3831 H   0  0  0  0  0  0  0  0  0  0  0  0
  151.3937  144.8089  157.3189 H   0  0  0  0  0  0  0  0  0  0  0  0
  150.3941  143.9808  158.4885 H   0  0  0  0  0  0  0  0  0  0  0  0
  153.4500  143.9418  158.3774 H   0  0  0  0  0  0  0  0  0  0  0  0
  152.4732  144.7522  159.5788 H   0  0  0  0  0  0  0  0  0  0  0  0
  153.3592  142.5691  160.4280 H   0  0  0  0  0  0  0  0  0  0  0  0
  151.6122  142.5927  160.4153 H   0  0  0  0  0  0  0  0  0  0  0  0
  152.4256  140.4496  159.5010 H   0  0  0  0  0  0  0  0  0  0  0  0
  153.4164  141.2829  158.3276 H   0  0  0  0  0  0  0  0  0  0  0  0
  1  2  2  0  0  0  0
  2  3  1  0  0  0  0
  2 14  1  0  0  0  0
  3  4  1  0  0  0  0
  3 21  1  0  0  0  0
  4  5  1  0  0  0  0
  4 11  1  0  0  0  0
  4 22  1  0  0  0  0
  5 23  1  0  0  0  0
  5 24  1  0  0  0  0
  5  6  1  0  0  0  0
  6  7  2  0  0  0  0
  6 10  1  0  0  0  0
  7 25  1  0  0  0  0
  7  8  1  0  0  0  0
  8  9  2  0  0  0  0
  9 10  1  0  0  0  0
  9 26  1  0  0  0  0
 10 20  1  0  0  0  0
 11 12  2  0  0  0  0
 11 13  1  0  0  0  0
 14 19  1  0  0  0  0
 14 15  1  0  0  0  0
 14 27  1  0  0  0  0
 15 16  1  0  0  0  0
 15 28  1  0  0  0  0
 15 29  1  0  0  0  0
 16 17  1  0  0  0  0
 16 30  1  0  0  0  0
 16 31  1  0  0  0  0
 17 18  1  0  0  0  0
 17 32  1  0  0  0  0
 17 33  1  0  0  0  0
 18 19  1  0  0  0  0
 18 34  1  0  0  0  0
 18 35  1  0  0  0  0
 19 36  1  0  0  0  0
 19 37  1  0  0  0  0
M  CHG  1  13  -1
M  END
> <s_m_source_file>
AV-unprocessed.smi

> <i_m_source_file_index>
994

> <i_lp_mmshare_version>
43012

> <i_f3d_flags>
0

> <s_epik_input>
W0NIMl0xW0NIMl1bQ0gyXVtDSDJdW0NIMl1bQ0hdMUMoPU8pW05IXVtDQEBIXShDKD1PKVtPSF0pW0NIMl1jMltjSF1bbkhdW2NIXW4y

> <s_epik_cmdline>
J2VwaWtfcHl0aG9uJywgJy1waCcsICc3LjAnLCAnLXRuJywgJzgnLCAnLW1hJywgJzIwMCcsICctbWV0YWxfYmluZGluZycsICctaW1hZScsICc8aW5maWxlLm1hZT4nLCAnLW9tYWUnLCAnPG91dGZpbGUubWFlPic=

> <r_lp_tautomer_probability>
0.5

> <r_epik_Ionization_Penalty>
0.540742

> <r_epik_Ionization_Penalty_Charging>
0.540742

> <r_epik_Ionization_Penalty_Neutral>
4.77468e-08

> <r_epik_State_Penalty>
0.78427

> <r_epik_Charging_Adjusted_Penalty>
1.32501

> <i_epik_Tot_Q>
-1

> <i_epik_Tot_abs_Q>
1

> <r_epik_Metal_State_Penalty>
0.663709

> <b_epik_Metal_Only>
0

> <s_lp_Force_Field>
OPLS_2005

> <r_lp_Energy>
10.7007

> <b_lp_Chiralities_Consistent>
1

> <s_lp_Variant>
AV-unprocessed.smi:994-3

> <Gold.Version>
5.8.1

> <Gold.Id.Protein>
6NUR|6NUR_protein|mol2

> <Gold.PLP.Fitness>
51.2472

> <Gold.PLP.PLP>
-38.3064

> <Gold.PLP.part.hbond>
-4.0000

> <Gold.PLP.part.metal>
0.0000

> <Gold.PLP.part.buried>
-4.2452

> <Gold.PLP.part.nonpolar>
-31.8624

> <Gold.PLP.part.repulsive>
0.5087

> <Gold.PLP.ligand.clash>
2.1485

> <Gold.PLP.ligand.torsion>
0.4888

> <Gold.PLP.Chemscore.Hbond>
4.7828

> <Gold.PLP.Chemscore.CHOScore>
0.5588

> <Gold.PLP.Chemscore.Metal>
0.0000

> <Gold.Chemscore.Hbonds>
donor molecule, donor type, donor heavy atom, donor atom, acceptor molecule, acceptor atom, score
      L1  H    10    20       P1  7948  0.89
      P1  H  7997  8008       L1    13  1.98
      P1  H 10752 10763       L1    12  1.86
      L1  C     9    26       P1 10175  0.49

> <Gold.PLP.Chemscore.Internal.Correction>
0.0423

> <Gold.Rescore>
     Score         DG    S(hbond)    S(metal)    S(lipo)     H(rot)  DE(clash)    DE(int)     intcor
     16.34     -18.16       2.78        0.00      87.20       2.66       0.07       1.75       ----

> <Gold.Chemscore.Fitness>
16.3377

> <Gold.Chemscore.DG>
-18.1632

> <Gold.Chemscore.ZeroCoef>
-5.4800

> <Gold.Chemscore.Hbond>
2.7803

> <Gold.Chemscore.Metal>
0.0000

> <Gold.Chemscore.Lipo>
87.1955

> <Gold.Chemscore.Internal_Hbond>
0.0000

> <Gold.Chemscore.DEClash>
0.0740

> <Gold.Chemscore.DEInternal>
1.7516

> <Gold.Chemscore.Rot>
2.6581

> <Gold.Chemscore.Internal.Correction>
   9.000000E+99

> <Gold.Chemscore.Hbonds>
donor molecule, donor type, donor heavy atom, donor atom, acceptor molecule, acceptor atom, score
      L1  H    10    20       P1  7948  0.85
      P1  H  7997  8008       L1    13  0.92
      P1  H 10752 10763       L1    12  0.91

> <Gold.Chemscore.Hbond.Weighted>
-9.2861

> <Gold.Chemscore.Metal.Weighted>
-0.0000

> <Gold.Chemscore.Lipo.Weighted>
-10.2019

> <Gold.Chemscore.Internal_Hbond.Weighted>
0.0000

> <Gold.Chemscore.DEClash.Weighted>
0.0740

> <Gold.Chemscore.DEInternal.Weighted>
1.7516

> <Gold.Chemscore.Rot.Weighted>
6.8048

> <Gold.Chemscore.Internal.Correction.Weighted>
   9.000000E+99

> <Gold.Protein.RotatedTorsions>
[ 6907 6896 6895 6894 ] final  141.53 input  -60.11 | X-H torsion
[ 7974 7965 7964 7962 ] final -160.08 input  175.53 | X-H torsion
[ 8008 7997 7996 7995 ] final  -21.38 input   59.86 | X-H torsion
[ 10167 10162 10161 10158 ] final -106.41 input  -65.29 | X-H torsion
[ 10718 10713 10712 10709 ] final   29.09 input   66.30 | X-H torsion
[ 10763 10752 10751 10750 ] final   50.61 input  -60.55 | X-H torsion
[ 11005 11000 10999 10996 ] final   27.30 input  -57.11 | X-H torsion

> <Gold.Protein.ActiveResidues>
 VAL166  LYS551  ARG553  GLY616  TRP617  ASP618  TYR619  PRO620  LYS621  CYS622 
 ASP623  PHE694  ASN695  SER759  ASP760  ASP761  ALA762  ILE779  LEU786  VAL792 
 PHE793  MET794  SER795  GLU796  ALA797  LYS798  CYS799  TRP800  GLU811  SER814 

> <Gold.Protein.RotatedAtoms>
  152.2299  133.5050  159.5209 H   0  0  0  0  0  0  0  0  0  0  0  0  # atno 6907 bound_to 6896
  150.7034  134.1230  159.4051 H   0  0  0  0  0  0  0  0  0  0  0  0  # atno 6908 bound_to 6896
  151.9152  135.0322  160.0568 H   0  0  0  0  0  0  0  0  0  0  0  0  # atno 6909 bound_to 6896
  144.7440  140.3593  143.6099 H   0  0  0  0  0  0  0  0  0  0  0  0  # atno 7974 bound_to 7965
  154.4709  140.2036  155.9997 H   0  0  0  0  0  0  0  0  0  0  0  0  # atno 8008 bound_to 7997
  156.1009  140.3244  155.7911 H   0  0  0  0  0  0  0  0  0  0  0  0  # atno 8009 bound_to 7997
  155.4799  140.0538  157.2959 H   0  0  0  0  0  0  0  0  0  0  0  0  # atno 8010 bound_to 7997
  140.1880  143.3914  152.1229 H   0  0  0  0  0  0  0  0  0  0  0  0  # atno 10167 bound_to 10162
  157.2420  130.7074  149.6363 H   0  0  0  0  0  0  0  0  0  0  0  0  # atno 10718 bound_to 10713
  152.9784  135.5873  154.4281 H   0  0  0  0  0  0  0  0  0  0  0  0  # atno 10763 bound_to 10752
  154.3897  135.2767  155.2164 H   0  0  0  0  0  0  0  0  0  0  0  0  # atno 10764 bound_to 10752
  154.4041  135.6096  153.5968 H   0  0  0  0  0  0  0  0  0  0  0  0  # atno 10765 bound_to 10752
  140.3277  134.2472  155.7707 H   0  0  0  0  0  0  0  0  0  0  0  0  # atno 11005 bound_to 11000
  145.7194  139.1705  143.2493 LP  0  0  0  0  0  0  0  0  0  0  0  0  # atno 17320 bound_to 7965
  146.1288  140.7213  142.9422 LP  0  0  0  0  0  0  0  0  0  0  0  0  # atno 17321 bound_to 7965
  139.5268  144.7111  151.5201 LP  0  0  0  0  0  0  0  0  0  0  0  0  # atno 17342 bound_to 10162
  140.6475  143.8765  150.6751 LP  0  0  0  0  0  0  0  0  0  0  0  0  # atno 17343 bound_to 10162
  155.9669  130.4455  150.5503 LP  0  0  0  0  0  0  0  0  0  0  0  0  # atno 17370 bound_to 10713
  157.3368  131.0709  151.1818 LP  0  0  0  0  0  0  0  0  0  0  0  0  # atno 17371 bound_to 10713
  141.2071  133.7815  157.0138 LP  0  0  0  0  0  0  0  0  0  0  0  0  # atno 17394 bound_to 11000
  140.0887  134.9605  157.1741 LP  0  0  0  0  0  0  0  0  0  0  0  0  # atno 17395 bound_to 11000

$$$$
