AV-unprocessed.smi:321|AV-procd|sdf|2334|dock6
  -GOLD-   2262022243D 1   1.00000     0.00000
 Structure written by MMmdl.
 49 50  0  0  0  0  0  0  0  0  1 V2000
  152.4705  142.7061  158.9224 C   0  0  0  0  0  0  0  0  0  0  0  0
  151.2691  141.9557  158.3359 C   0  0  0  0  0  0  0  0  0  0  0  0
  151.6681  140.1878  157.9712 S   0  0  0  0  0  0  0  0  0  0  0  0
  153.1242  139.9988  158.0667 O   0  0  0  0  0  0  0  0  0  0  0  0
  150.7673  139.3406  158.7675 O   0  0  0  0  0  0  0  0  0  0  0  0
  151.2236  139.9894  156.2991 N   0  0  0  0  0  0  0  0  0  0  0  0
  152.1795  139.4151  155.3288 C   0  0  0  0  0  0  0  0  0  0  0  0
  151.8352  137.9590  154.9681 C   0  0  0  0  0  0  0  0  0  0  0  0
  150.3715  137.8197  154.5151 C   0  0  0  0  0  0  0  0  0  0  0  0
  150.0333  136.4223  154.2635 N   0  0  0  0  0  0  0  0  0  0  0  0
  150.4098  135.3800  155.0264 C   0  0  0  0  0  0  0  0  0  0  0  0
  151.0918  135.5103  156.0441 O   0  0  0  0  0  0  0  0  0  0  0  0
  149.9434  134.0455  154.5576 C   0  0  0  0  0  0  0  0  0  0  0  0
  150.6460  132.8778  155.0622 C   0  0  0  0  0  0  0  0  0  0  0  0
  150.2389  131.6571  154.6511 C   0  0  0  0  0  0  0  0  0  0  0  0
  149.1209  131.4846  153.7222 C   0  0  0  0  0  0  0  0  0  0  0  0
  148.7310  130.3821  153.3392 O   0  0  0  0  0  0  0  0  0  0  0  0
  148.5479  132.6596  153.3206 N   0  0  0  0  0  0  0  0  0  0  0  0
  147.4060  132.6759  152.3987 C   0  0  0  0  0  0  0  0  0  0  0  0
  146.7561  134.0669  152.3174 C   0  0  0  0  0  0  0  0  0  0  0  0
  145.9541  134.1584  151.1514 O   0  0  0  0  0  0  0  0  0  0  0  0
  145.2557  135.3877  151.0663 C   0  0  0  0  0  0  0  0  0  0  0  0
  148.9534  133.9184  153.7341 N   0  0  0  0  0  0  0  0  0  0  0  0
  149.4472  138.3898  155.6001 C   0  0  0  0  0  0  0  0  0  0  0  0
  149.8026  139.8507  155.9261 C   0  0  0  0  0  0  0  0  0  0  0  0
  152.2233  143.7521  159.1021 H   0  0  0  0  0  0  0  0  0  0  0  0
  153.3257  142.6773  158.2477 H   0  0  0  0  0  0  0  0  0  0  0  0
  152.7804  142.2715  159.8729 H   0  0  0  0  0  0  0  0  0  0  0  0
  150.4550  141.9633  159.0606 H   0  0  0  0  0  0  0  0  0  0  0  0
  150.8974  142.4363  157.4346 H   0  0  0  0  0  0  0  0  0  0  0  0
  152.1543  140.0252  154.4251 H   0  0  0  0  0  0  0  0  0  0  0  0
  153.1978  139.4788  155.7106 H   0  0  0  0  0  0  0  0  0  0  0  0
  152.5046  137.6198  154.1769 H   0  0  0  0  0  0  0  0  0  0  0  0
  152.0277  137.3079  155.8198 H   0  0  0  0  0  0  0  0  0  0  0  0
  150.2222  138.3946  153.5988 H   0  0  0  0  0  0  0  0  0  0  0  0
  149.4741  136.2286  153.4451 H   0  0  0  0  0  0  0  0  0  0  0  0
  151.4741  132.9748  155.7491 H   0  0  0  0  0  0  0  0  0  0  0  0
  150.7523  130.7807  155.0185 H   0  0  0  0  0  0  0  0  0  0  0  0
  147.7518  132.3877  151.4045 H   0  0  0  0  0  0  0  0  0  0  0  0
  146.6596  131.9267  152.6679 H   0  0  0  0  0  0  0  0  0  0  0  0
  146.1579  134.2611  153.2093 H   0  0  0  0  0  0  0  0  0  0  0  0
  147.5361  134.8288  152.2791 H   0  0  0  0  0  0  0  0  0  0  0  0
  144.6516  135.4036  150.1592 H   0  0  0  0  0  0  0  0  0  0  0  0
  145.9463  136.2311  151.0258 H   0  0  0  0  0  0  0  0  0  0  0  0
  144.5877  135.5220  151.9180 H   0  0  0  0  0  0  0  0  0  0  0  0
  148.4088  138.3340  155.2714 H   0  0  0  0  0  0  0  0  0  0  0  0
  149.5155  137.7816  156.5018 H   0  0  0  0  0  0  0  0  0  0  0  0
  149.1628  140.2284  156.7233 H   0  0  0  0  0  0  0  0  0  0  0  0
  149.6118  140.4776  155.0544 H   0  0  0  0  0  0  0  0  0  0  0  0
  1  2  1  0  0  0  0
  1 26  1  0  0  0  0
  1 27  1  0  0  0  0
  1 28  1  0  0  0  0
  2  3  1  0  0  0  0
  2 29  1  0  0  0  0
  2 30  1  0  0  0  0
  3  4  2  0  0  0  0
  3  5  2  0  0  0  0
  3  6  1  0  0  0  0
  6 25  1  0  0  0  0
  6  7  1  0  0  0  0
  7  8  1  0  0  0  0
  7 31  1  0  0  0  0
  7 32  1  0  0  0  0
  8  9  1  0  0  0  0
  8 33  1  0  0  0  0
  8 34  1  0  0  0  0
  9 10  1  0  0  0  0
  9 24  1  0  0  0  0
  9 35  1  0  0  0  0
 10 11  1  0  0  0  0
 10 36  1  0  0  0  0
 11 12  2  0  0  0  0
 11 13  1  0  0  0  0
 13 23  2  0  0  0  0
 13 14  1  0  0  0  0
 14 15  2  0  0  0  0
 14 37  1  0  0  0  0
 15 16  1  0  0  0  0
 15 38  1  0  0  0  0
 16 17  2  0  0  0  0
 16 18  1  0  0  0  0
 18 19  1  0  0  0  0
 18 23  1  0  0  0  0
 19 20  1  0  0  0  0
 19 39  1  0  0  0  0
 19 40  1  0  0  0  0
 20 21  1  0  0  0  0
 20 41  1  0  0  0  0
 20 42  1  0  0  0  0
 21 22  1  0  0  0  0
 22 43  1  0  0  0  0
 22 44  1  0  0  0  0
 22 45  1  0  0  0  0
 24 25  1  0  0  0  0
 24 46  1  0  0  0  0
 24 47  1  0  0  0  0
 25 48  1  0  0  0  0
 25 49  1  0  0  0  0
M  END
> <s_m_source_file>
AV-unprocessed.smi

> <i_m_source_file_index>
321

> <i_lp_mmshare_version>
43012

> <i_f3d_flags>
0

> <s_epik_input>
W0NIM11bQ0gyXVMoPU8pKD1PKU4xW0NIMl1bQ0gyXVtDSF0oW0NIMl1bQ0gyXTEpW05IXUMoPU8pYzJbY0hdW2NIXWMoPU8pbihuMilbQ0gyXVtDSDJdT1tDSDNd

> <s_epik_cmdline>
J2VwaWtfcHl0aG9uJywgJy1waCcsICc3LjAnLCAnLXRuJywgJzgnLCAnLW1hJywgJzIwMCcsICctbWV0YWxfYmluZGluZycsICctaW1hZScsICc8aW5maWxlLm1hZT4nLCAnLW9tYWUnLCAnPG91dGZpbGUubWFlPic=

> <r_lp_tautomer_probability>
1

> <r_epik_Ionization_Penalty>
1.38514e-06

> <r_epik_Ionization_Penalty_Charging>
6.369e-09

> <r_epik_Ionization_Penalty_Neutral>
1.37877e-06

> <r_epik_State_Penalty>
-0

> <r_epik_Charging_Adjusted_Penalty>
6.369e-09

> <i_epik_Tot_Q>
0

> <i_epik_Tot_abs_Q>
0

> <r_epik_Metal_State_Penalty>
-0

> <b_epik_Metal_Only>
0

> <s_lp_Force_Field>
OPLS_2005

> <r_lp_Energy>
23.8323

> <b_lp_Chiralities_Consistent>
1

> <s_lp_Variant>
AV-unprocessed.smi:321-1

> <Gold.Version>
5.8.1

> <Gold.Id.Protein>
6NUR|6NUR_protein|mol2

> <Gold.PLP.Fitness>
46.8124

> <Gold.PLP.PLP>
-41.9418

> <Gold.PLP.part.hbond>
-2.9201

> <Gold.PLP.part.metal>
0.0000

> <Gold.PLP.part.buried>
-4.4078

> <Gold.PLP.part.nonpolar>
-35.7264

> <Gold.PLP.part.repulsive>
1.3906

> <Gold.PLP.ligand.clash>
0.0000

> <Gold.PLP.ligand.torsion>
1.7661

> <Gold.PLP.Chemscore.Hbond>
2.0585

> <Gold.PLP.Chemscore.CHOScore>
0.0000

> <Gold.PLP.Chemscore.Metal>
0.0000

> <Gold.Chemscore.Hbonds>
donor molecule, donor type, donor heavy atom, donor atom, acceptor molecule, acceptor atom, score
      L1  H    10    36       P1  7948  1.00
      P1  H  7997  8008       L1     4  1.00
      P1  H 10752 10764       L1    12  0.32

> <Gold.PLP.Chemscore.Internal.Correction>
2.2272

> <Gold.Rescore>
     Score         DG    S(hbond)    S(metal)    S(lipo)     H(rot)  DE(clash)    DE(int)     intcor
     11.48     -15.21       1.59        0.00      78.55       1.86       0.20       3.54       ----

> <Gold.Chemscore.Fitness>
11.4758

> <Gold.Chemscore.DG>
-15.2129

> <Gold.Chemscore.ZeroCoef>
-5.4800

> <Gold.Chemscore.Hbond>
1.5853

> <Gold.Chemscore.Metal>
0.0000

> <Gold.Chemscore.Lipo>
78.5544

> <Gold.Chemscore.Internal_Hbond>
0.0000

> <Gold.Chemscore.DEClash>
0.1978

> <Gold.Chemscore.DEInternal>
3.5393

> <Gold.Chemscore.Rot>
1.8567

> <Gold.Chemscore.Internal.Correction>
   9.000000E+99

> <Gold.Chemscore.Hbonds>
donor molecule, donor type, donor heavy atom, donor atom, acceptor molecule, acceptor atom, score
      L1  H    10    36       P1  7948  0.55
      P1  H  7997  8008       L1     4  0.98
      P1  H 10752 10764       L1    12  0.03

> <Gold.Chemscore.Hbond.Weighted>
-5.2951

> <Gold.Chemscore.Metal.Weighted>
-0.0000

> <Gold.Chemscore.Lipo.Weighted>
-9.1909

> <Gold.Chemscore.Internal_Hbond.Weighted>
0.0000

> <Gold.Chemscore.DEClash.Weighted>
0.1978

> <Gold.Chemscore.DEInternal.Weighted>
3.5393

> <Gold.Chemscore.Rot.Weighted>
4.7530

> <Gold.Chemscore.Internal.Correction.Weighted>
   9.000000E+99

> <Gold.Protein.RotatedTorsions>
[ 6907 6896 6895 6894 ] final  -12.88 input  -60.11 | X-H torsion
[ 7974 7965 7964 7962 ] final  113.68 input  175.53 | X-H torsion
[ 8008 7997 7996 7995 ] final  -84.45 input   59.86 | X-H torsion
[ 10167 10162 10161 10158 ] final  176.53 input  -65.29 | X-H torsion
[ 10718 10713 10712 10709 ] final   77.58 input   66.30 | X-H torsion
[ 10763 10752 10751 10750 ] final  -38.72 input  -60.55 | X-H torsion
[ 11005 11000 10999 10996 ] final -146.48 input  -57.11 | X-H torsion

> <Gold.Protein.ActiveResidues>
 VAL166  LYS551  ARG553  GLY616  TRP617  ASP618  TYR619  PRO620  LYS621  CYS622 
 ASP623  PHE694  ASN695  SER759  ASP760  ASP761  ALA762  ILE779  LEU786  VAL792 
 PHE793  MET794  SER795  GLU796  ALA797  LYS798  CYS799  TRP800  GLU811  SER814 

> <Gold.Protein.RotatedAtoms>
  151.3635  135.0909  159.9442 H   0  0  0  0  0  0  0  0  0  0  0  0  # atno 6907 bound_to 6896
  152.5155  133.9234  159.7556 H   0  0  0  0  0  0  0  0  0  0  0  0  # atno 6908 bound_to 6896
  150.9634  133.6367  159.2779 H   0  0  0  0  0  0  0  0  0  0  0  0  # atno 6909 bound_to 6896
  145.2138  139.2893  143.4254 H   0  0  0  0  0  0  0  0  0  0  0  0  # atno 7974 bound_to 7965
  154.6299  140.0605  156.9720 H   0  0  0  0  0  0  0  0  0  0  0  0  # atno 8008 bound_to 7997
  155.1682  140.3288  155.4379 H   0  0  0  0  0  0  0  0  0  0  0  0  # atno 8009 bound_to 7997
  156.2477  140.1919  156.6785 H   0  0  0  0  0  0  0  0  0  0  0  0  # atno 8010 bound_to 7997
  139.5218  144.2905  152.0468 H   0  0  0  0  0  0  0  0  0  0  0  0  # atno 10167 bound_to 10162
  157.6715  130.9828  150.1662 H   0  0  0  0  0  0  0  0  0  0  0  0  # atno 10718 bound_to 10713
  153.9175  135.6786  153.4749 H   0  0  0  0  0  0  0  0  0  0  0  0  # atno 10763 bound_to 10752
  153.1046  135.4812  154.8925 H   0  0  0  0  0  0  0  0  0  0  0  0  # atno 10764 bound_to 10752
  154.7495  135.3181  154.8539 H   0  0  0  0  0  0  0  0  0  0  0  0  # atno 10765 bound_to 10752
  140.7816  134.3073  157.5043 H   0  0  0  0  0  0  0  0  0  0  0  0  # atno 11005 bound_to 11000
  146.3391  140.2423  142.8596 LP  0  0  0  0  0  0  0  0  0  0  0  0  # atno 17320 bound_to 7965
  144.9830  140.8477  143.5386 LP  0  0  0  0  0  0  0  0  0  0  0  0  # atno 17321 bound_to 7965
  140.2356  144.4323  150.6281 LP  0  0  0  0  0  0  0  0  0  0  0  0  # atno 17342 bound_to 10162
  140.6325  143.2190  151.6464 LP  0  0  0  0  0  0  0  0  0  0  0  0  # atno 17343 bound_to 10162
  156.2427  130.3692  149.8319 LP  0  0  0  0  0  0  0  0  0  0  0  0  # atno 17370 bound_to 10713
  156.6114  130.8588  151.3455 LP  0  0  0  0  0  0  0  0  0  0  0  0  # atno 17371 bound_to 10713
  139.8742  134.9321  156.3546 LP  0  0  0  0  0  0  0  0  0  0  0  0  # atno 17394 bound_to 11000
  140.9477  133.7472  156.0230 LP  0  0  0  0  0  0  0  0  0  0  0  0  # atno 17395 bound_to 11000

$$$$
