AV-unprocessed.smi:247|AV-procd|sdf|1889|dock4
  -GOLD-   2262020553D 1   1.00000     0.00000
 Structure written by MMmdl.
 61 65  0  0  0  0  0  0  0  0  1 V2000
  148.1448  132.4909  157.8828 O   0  0  0  0  0  0  0  0  0  0  0  0
  149.2201  133.3130  157.4734 C   0  0  0  0  0  0  0  0  0  0  0  0
  149.3276  133.4683  155.9305 C   0  0  0  0  0  0  0  0  0  0  0  0
  150.4584  134.4968  155.6101 C   0  0  0  0  0  0  0  0  0  0  0  0
  150.1478  135.8807  155.9404 N   0  0  0  0  0  0  0  0  0  0  0  0
  149.2196  136.3231  156.8564 C   0  0  0  0  0  0  0  0  0  0  0  0
  149.1269  137.6193  156.9748 N   0  0  0  0  0  0  0  0  0  0  0  0
  150.0793  138.1098  156.0900 C   0  0  0  0  0  0  0  0  0  0  0  0
  150.5010  139.4150  155.7128 C   0  0  0  0  0  0  0  0  0  0  0  0
  149.9575  140.5354  156.2508 N   0  0  0  0  0  0  0  0  0  0  0  0
  148.6169  140.8548  155.7879 C   0  0  0  0  0  0  0  0  0  0  0  0
  148.1303  141.9551  156.7232 C   0  0  0  0  0  0  0  0  0  0  0  0
  148.7761  141.5854  158.0568 C   0  0  0  0  0  0  0  0  0  0  0  0
  150.0713  140.8373  157.6829 C   0  0  2  0  0  0  0  0  0  0  0  0
  151.3658  141.6242  158.0383 C   0  0  2  0  0  0  0  0  0  0  0  0
  151.8599  141.3518  159.4801 C   0  0  0  0  0  0  0  0  0  0  0  0
  153.0841  142.0327  159.7323 O   0  0  0  0  0  0  0  0  0  0  0  0
  152.9622  143.4469  159.6458 C   0  0  0  0  0  0  0  0  0  0  0  0
  152.5676  143.8396  158.2159 C   0  0  0  0  0  0  0  0  0  0  0  0
  151.2566  143.1500  157.8156 C   0  0  1  0  0  0  0  0  0  0  0  0
  150.9947  143.4435  156.4576 O   0  0  0  0  0  0  0  0  0  0  0  0
  151.4864  139.5090  154.7813 N   0  0  0  0  0  0  0  0  0  0  0  0
  152.0235  138.4062  154.2523 C   0  0  0  0  0  0  0  0  0  0  0  0
  151.7274  137.1306  154.5063 N   0  0  0  0  0  0  0  0  0  0  0  0
  150.7359  137.0289  155.4373 C   0  0  0  0  0  0  0  0  0  0  0  0
  149.5990  132.0862  155.2815 C   0  0  0  0  0  0  0  0  0  0  0  0
  149.4856  132.1269  153.7470 C   0  0  0  0  0  0  0  0  0  0  0  0
  148.1984  132.6007  153.3702 O   0  0  0  0  0  0  0  0  0  0  0  0
  147.9409  133.9282  153.8120 C   0  0  0  0  0  0  0  0  0  0  0  0
  147.9897  133.9959  155.3506 C   0  0  0  0  0  0  0  0  0  0  0  0
  147.5528  132.3856  157.1537 H   0  0  0  0  0  0  0  0  0  0  0  0
  149.0963  134.2882  157.9450 H   0  0  0  0  0  0  0  0  0  0  0  0
  150.1307  132.8763  157.8836 H   0  0  0  0  0  0  0  0  0  0  0  0
  151.3844  134.2451  156.1241 H   0  0  0  0  0  0  0  0  0  0  0  0
  150.7007  134.4555  154.5474 H   0  0  0  0  0  0  0  0  0  0  0  0
  148.6018  135.6497  157.4325 H   0  0  0  0  0  0  0  0  0  0  0  0
  148.6106  141.1892  154.7505 H   0  0  0  0  0  0  0  0  0  0  0  0
  147.9802  139.9722  155.8683 H   0  0  0  0  0  0  0  0  0  0  0  0
  148.5054  142.9210  156.3834 H   0  0  0  0  0  0  0  0  0  0  0  0
  147.0432  142.0160  156.7766 H   0  0  0  0  0  0  0  0  0  0  0  0
  148.9395  142.4533  158.6964 H   0  0  0  0  0  0  0  0  0  0  0  0
  148.1151  140.9080  158.5988 H   0  0  0  0  0  0  0  0  0  0  0  0
  150.0657  139.9168  158.2664 H   0  0  0  0  0  0  0  0  0  0  0  0
  152.1461  141.2657  157.3645 H   0  0  0  0  0  0  0  0  0  0  0  0
  151.1160  141.6545  160.2192 H   0  0  0  0  0  0  0  0  0  0  0  0
  152.0370  140.2874  159.6304 H   0  0  0  0  0  0  0  0  0  0  0  0
  152.2280  143.8078  160.3680 H   0  0  0  0  0  0  0  0  0  0  0  0
  153.9182  143.8997  159.9093 H   0  0  0  0  0  0  0  0  0  0  0  0
  152.4649  144.9227  158.1398 H   0  0  0  0  0  0  0  0  0  0  0  0
  153.3665  143.5512  157.5310 H   0  0  0  0  0  0  0  0  0  0  0  0
  150.4495  143.5627  158.4209 H   0  0  0  0  0  0  0  0  0  0  0  0
  150.3267  144.1113  156.4203 H   0  0  0  0  0  0  0  0  0  0  0  0
  152.7993  138.5695  153.5188 H   0  0  0  0  0  0  0  0  0  0  0  0
  150.5700  131.6930  155.5803 H   0  0  0  0  0  0  0  0  0  0  0  0
  148.8701  131.3597  155.6419 H   0  0  0  0  0  0  0  0  0  0  0  0
  150.2631  132.7474  153.3009 H   0  0  0  0  0  0  0  0  0  0  0  0
  149.6174  131.1244  153.3402 H   0  0  0  0  0  0  0  0  0  0  0  0
  148.6460  134.6212  153.3528 H   0  0  0  0  0  0  0  0  0  0  0  0
  146.9510  134.2216  153.4622 H   0  0  0  0  0  0  0  0  0  0  0  0
  147.1555  133.4031  155.7265 H   0  0  0  0  0  0  0  0  0  0  0  0
  147.8047  135.0173  155.6851 H   0  0  0  0  0  0  0  0  0  0  0  0
  1  2  1  0  0  0  0
  1 31  1  0  0  0  0
  2  3  1  0  0  0  0
  2 32  1  0  0  0  0
  2 33  1  0  0  0  0
  3 30  1  0  0  0  0
  3  4  1  0  0  0  0
  3 26  1  0  0  0  0
  4  5  1  0  0  0  0
  4 34  1  0  0  0  0
  4 35  1  0  0  0  0
  5 25  1  0  0  0  0
  5  6  1  0  0  0  0
  6  7  2  0  0  0  0
  6 36  1  0  0  0  0
  7  8  1  0  0  0  0
  8 25  2  0  0  0  0
  8  9  1  0  0  0  0
  9 10  1  0  0  0  0
  9 22  2  0  0  0  0
 10 14  1  0  0  0  0
 10 11  1  0  0  0  0
 11 12  1  0  0  0  0
 11 37  1  0  0  0  0
 11 38  1  0  0  0  0
 12 13  1  0  0  0  0
 12 39  1  0  0  0  0
 12 40  1  0  0  0  0
 13 14  1  0  0  0  0
 13 41  1  0  0  0  0
 13 42  1  0  0  0  0
 14 15  1  0  0  0  0
 14 43  1  0  0  0  0
 15 20  1  0  0  0  0
 15 16  1  0  0  0  0
 15 44  1  0  0  0  0
 16 17  1  0  0  0  0
 16 45  1  0  0  0  0
 16 46  1  0  0  0  0
 17 18  1  0  0  0  0
 18 19  1  0  0  0  0
 18 47  1  0  0  0  0
 18 48  1  0  0  0  0
 19 20  1  0  0  0  0
 19 49  1  0  0  0  0
 19 50  1  0  0  0  0
 20 21  1  0  0  0  0
 20 51  1  0  0  0  0
 21 52  1  0  0  0  0
 22 23  1  0  0  0  0
 23 24  2  0  0  0  0
 23 53  1  0  0  0  0
 24 25  1  0  0  0  0
 26 27  1  0  0  0  0
 26 54  1  0  0  0  0
 26 55  1  0  0  0  0
 27 28  1  0  0  0  0
 27 56  1  0  0  0  0
 27 57  1  0  0  0  0
 28 29  1  0  0  0  0
 29 30  1  0  0  0  0
 29 58  1  0  0  0  0
 29 59  1  0  0  0  0
 30 60  1  0  0  0  0
 30 61  1  0  0  0  0
M  END
> <s_m_source_file>
AV-unprocessed.smi

> <i_m_source_file_index>
247

> <i_lp_mmshare_version>
43012

> <i_f3d_flags>
0

> <s_epik_input>
W0NIMl0xW0NIMl1PW0NIMl1bQ0gyXUMxKFtDSDJdW09IXSlbQ0gyXW4oW2NIXW4yKWMoYzIzKW5bY0hdbmMzTjRbQ0gyXVtDSDJdW0NIMl1bQ0BIXTRbQ0BASF01W0NIMl1PW0NIMl1bQ0gyXVtDQEhdNVtPSF0=

> <s_epik_cmdline>
J2VwaWtfcHl0aG9uJywgJy1waCcsICc3LjAnLCAnLXRuJywgJzgnLCAnLW1hJywgJzIwMCcsICctbWV0YWxfYmluZGluZycsICctaW1hZScsICc8aW5maWxlLm1hZT4nLCAnLW9tYWUnLCAnPG91dGZpbGUubWFlPic=

> <r_lp_tautomer_probability>
1

> <r_epik_Ionization_Penalty>
0.00362597

> <r_epik_Ionization_Penalty_Charging>
0

> <r_epik_Ionization_Penalty_Neutral>
0.00362597

> <r_epik_State_Penalty>
0.00241433

> <r_epik_Charging_Adjusted_Penalty>
0.00241433

> <i_epik_Tot_Q>
0

> <i_epik_Tot_abs_Q>
0

> <r_epik_Metal_State_Penalty>
-0

> <b_epik_Metal_Only>
0

> <s_lp_Force_Field>
OPLS_2005

> <r_lp_Energy>
60.2507

> <b_lp_Chiralities_Consistent>
1

> <s_lp_Variant>
AV-unprocessed.smi:247-2

> <Gold.Version>
5.8.1

> <Gold.Id.Protein>
6NUR|6NUR_protein|mol2

> <Gold.PLP.Fitness>
46.1471

> <Gold.PLP.PLP>
-39.1931

> <Gold.PLP.part.hbond>
-3.0000

> <Gold.PLP.part.metal>
0.0000

> <Gold.PLP.part.buried>
-7.8697

> <Gold.PLP.part.nonpolar>
-28.1437

> <Gold.PLP.part.repulsive>
0.3719

> <Gold.PLP.ligand.clash>
0.0000

> <Gold.PLP.ligand.torsion>
1.1690

> <Gold.PLP.Chemscore.Hbond>
2.9920

> <Gold.PLP.Chemscore.CHOScore>
0.0000

> <Gold.PLP.Chemscore.Metal>
0.0000

> <Gold.Chemscore.Hbonds>
donor molecule, donor type, donor heavy atom, donor atom, acceptor molecule, acceptor atom, score
      L1  H    21    52       P1  8028  0.99
      P1  H  7989  7998       L1    22  1.00
      P1  H 10752 10764       L1    24  1.00

> <Gold.PLP.Chemscore.Internal.Correction>
0.3160

> <Gold.Rescore>
     Score         DG    S(hbond)    S(metal)    S(lipo)     H(rot)  DE(clash)    DE(int)     intcor
     14.62     -16.87       2.63        0.00      92.97       3.23       0.08       2.17       ----

> <Gold.Chemscore.Fitness>
14.6209

> <Gold.Chemscore.DG>
-16.8720

> <Gold.Chemscore.ZeroCoef>
-5.4800

> <Gold.Chemscore.Hbond>
2.6280

> <Gold.Chemscore.Metal>
0.0000

> <Gold.Chemscore.Lipo>
92.9723

> <Gold.Chemscore.Internal_Hbond>
0.0000

> <Gold.Chemscore.DEClash>
0.0767

> <Gold.Chemscore.DEInternal>
2.1743

> <Gold.Chemscore.Rot>
3.2278

> <Gold.Chemscore.Internal.Correction>
   9.000000E+99

> <Gold.Chemscore.Hbonds>
donor molecule, donor type, donor heavy atom, donor atom, acceptor molecule, acceptor atom, score
      L1  H    21    52       P1  8028  0.93
      P1  H  7989  7998       L1    22  0.60
      P1  H 10752 10764       L1    24  0.94

> <Gold.Chemscore.Hbond.Weighted>
-8.7775

> <Gold.Chemscore.Metal.Weighted>
-0.0000

> <Gold.Chemscore.Lipo.Weighted>
-10.8778

> <Gold.Chemscore.Internal_Hbond.Weighted>
0.0000

> <Gold.Chemscore.DEClash.Weighted>
0.0767

> <Gold.Chemscore.DEInternal.Weighted>
2.1743

> <Gold.Chemscore.Rot.Weighted>
8.2633

> <Gold.Chemscore.Internal.Correction.Weighted>
   9.000000E+99

> <Gold.Protein.RotatedTorsions>
[ 6907 6896 6895 6894 ] final  -38.86 input  -60.11 | X-H torsion
[ 7974 7965 7964 7962 ] final   42.21 input  175.53 | X-H torsion
[ 8008 7997 7996 7995 ] final   21.11 input   59.86 | X-H torsion
[ 10167 10162 10161 10158 ] final  -82.93 input  -65.29 | X-H torsion
[ 10718 10713 10712 10709 ] final  -85.71 input   66.30 | X-H torsion
[ 10763 10752 10751 10750 ] final  -77.37 input  -60.55 | X-H torsion
[ 11005 11000 10999 10996 ] final  -58.82 input  -57.11 | X-H torsion

> <Gold.Protein.ActiveResidues>
 VAL166  LYS551  ARG553  GLY616  TRP617  ASP618  TYR619  PRO620  LYS621  CYS622 
 ASP623  PHE694  ASN695  SER759  ASP760  ASP761  ALA762  ILE779  LEU786  VAL792 
 PHE793  MET794  SER795  GLU796  ALA797  LYS798  CYS799  TRP800  GLU811  SER814 

> <Gold.Protein.RotatedAtoms>
  150.9973  134.9294  159.7933 H   0  0  0  0  0  0  0  0  0  0  0  0  # atno 6907 bound_to 6896
  152.5268  134.3201  159.9155 H   0  0  0  0  0  0  0  0  0  0  0  0  # atno 6908 bound_to 6896
  151.3206  133.4000  159.2688 H   0  0  0  0  0  0  0  0  0  0  0  0  # atno 6909 bound_to 6896
  146.0759  139.5326  142.9568 H   0  0  0  0  0  0  0  0  0  0  0  0  # atno 7974 bound_to 7965
  154.9457  140.3059  155.5099 H   0  0  0  0  0  0  0  0  0  0  0  0  # atno 8008 bound_to 7997
  156.2992  140.2328  156.4468 H   0  0  0  0  0  0  0  0  0  0  0  0  # atno 8009 bound_to 7997
  154.8103  140.0429  157.1326 H   0  0  0  0  0  0  0  0  0  0  0  0  # atno 8010 bound_to 7997
  140.4274  143.2561  151.8807 H   0  0  0  0  0  0  0  0  0  0  0  0  # atno 10167 bound_to 10162
  155.9994  130.4740  150.4604 H   0  0  0  0  0  0  0  0  0  0  0  0  # atno 10718 bound_to 10713
  154.5120  135.5766  153.6613 H   0  0  0  0  0  0  0  0  0  0  0  0  # atno 10763 bound_to 10752
  152.9899  135.6161  154.2866 H   0  0  0  0  0  0  0  0  0  0  0  0  # atno 10764 bound_to 10752
  154.2781  135.2851  155.2688 H   0  0  0  0  0  0  0  0  0  0  0  0  # atno 10765 bound_to 10752
  141.1223  133.6613  156.4979 H   0  0  0  0  0  0  0  0  0  0  0  0  # atno 11005 bound_to 11000
  145.6306  141.0305  143.1865 LP  0  0  0  0  0  0  0  0  0  0  0  0  # atno 17320 bound_to 7965
  144.7261  139.7870  143.7364 LP  0  0  0  0  0  0  0  0  0  0  0  0  # atno 17321 bound_to 7965
  139.4784  144.5372  151.8581 LP  0  0  0  0  0  0  0  0  0  0  0  0  # atno 17342 bound_to 10162
  140.4466  144.1913  150.5894 LP  0  0  0  0  0  0  0  0  0  0  0  0  # atno 17343 bound_to 10162
  157.2629  131.0570  151.2309 LP  0  0  0  0  0  0  0  0  0  0  0  0  # atno 17370 bound_to 10713
  157.3417  130.7037  149.6386 LP  0  0  0  0  0  0  0  0  0  0  0  0  # atno 17371 bound_to 10713
  140.4470  134.6963  157.5020 LP  0  0  0  0  0  0  0  0  0  0  0  0  # atno 17394 bound_to 11000
  140.0191  134.6574  155.9266 LP  0  0  0  0  0  0  0  0  0  0  0  0  # atno 17395 bound_to 11000

$$$$
