AV-unprocessed.smi:2564|AV-procd|sdf|10062|dock6
  -GOLD-   2272014103D 1   1.00000     0.00000
 Structure written by MMmdl.
 29 30  0  0  0  0  0  0  0  0  2 V2000
  153.7886  141.4569  161.0410 C   0  0  0  0  0  0  0  0  0  0  0  0
  154.5273  140.3293  160.6381 C   0  0  0  0  0  0  0  0  0  0  0  0
  154.2823  139.6740  159.4812 N   0  0  0  0  0  0  0  0  0  0  0  0
  153.3053  140.0921  158.6687 N   0  0  0  0  0  0  0  0  0  0  0  0
  152.5531  141.1737  158.9937 C   0  0  0  0  0  0  0  0  0  0  0  0
  151.5355  141.5836  158.1220 N   0  0  0  0  0  0  0  0  0  0  0  0
  151.3682  140.9388  156.8271 C   0  0  0  0  0  0  0  0  0  0  0  0
  150.2234  141.5697  156.0230 C   0  0  2  0  0  0  0  0  0  0  0  0
  148.9143  141.6144  156.8361 C   0  0  0  0  0  0  0  0  0  0  0  0
  147.8158  142.1458  156.0055 N   0  3  0  0  0  0  0  0  0  0  0  0
  147.6636  141.3811  154.7526 C   0  0  0  0  0  0  0  0  0  0  0  0
  149.0051  141.3273  154.0029 C   0  0  0  0  0  0  0  0  0  0  0  0
  150.0039  140.7790  154.8565 O   0  0  0  0  0  0  0  0  0  0  0  0
  152.7628  141.8952  160.1857 C   0  0  0  0  0  0  0  0  0  0  0  0
  154.0015  141.9644  161.9700 H   0  0  0  0  0  0  0  0  0  0  0  0
  155.3275  139.9450  161.2528 H   0  0  0  0  0  0  0  0  0  0  0  0
  151.0041  142.4170  158.3282 H   0  0  0  0  0  0  0  0  0  0  0  0
  152.3009  140.9942  156.2639 H   0  0  0  0  0  0  0  0  0  0  0  0
  151.1546  139.8823  156.9940 H   0  0  0  0  0  0  0  0  0  0  0  0
  150.5050  142.5841  155.7330 H   0  0  0  0  0  0  0  0  0  0  0  0
  148.6476  140.6160  157.1856 H   0  0  0  0  0  0  0  0  0  0  0  0
  149.0308  142.2437  157.7189 H   0  0  0  0  0  0  0  0  0  0  0  0
  146.9518  142.1124  156.5276 H   0  0  0  0  0  0  0  0  0  0  0  0
  147.3224  140.3720  154.9874 H   0  0  0  0  0  0  0  0  0  0  0  0
  146.8951  141.8460  154.1348 H   0  0  0  0  0  0  0  0  0  0  0  0
  148.9149  140.7022  153.1143 H   0  0  0  0  0  0  0  0  0  0  0  0
  149.3043  142.3207  153.6648 H   0  0  0  0  0  0  0  0  0  0  0  0
  152.1594  142.7547  160.4383 H   0  0  0  0  0  0  0  0  0  0  0  0
  148.0236  143.1069  155.7739 H   0  0  0  0  0  0  0  0  0  0  0  0
  1 14  1  0  0  0  0
  1  2  2  0  0  0  0
  1 15  1  0  0  0  0
  2  3  1  0  0  0  0
  2 16  1  0  0  0  0
  3  4  2  0  0  0  0
  4  5  1  0  0  0  0
  5  6  1  0  0  0  0
  5 14  2  0  0  0  0
  6  7  1  0  0  0  0
  6 17  1  0  0  0  0
  7  8  1  0  0  0  0
  7 18  1  0  0  0  0
  7 19  1  0  0  0  0
  8 13  1  0  0  0  0
  8  9  1  0  0  0  0
  8 20  1  0  0  0  0
  9 10  1  0  0  0  0
  9 21  1  0  0  0  0
  9 22  1  0  0  0  0
 10 11  1  0  0  0  0
 10 23  1  0  0  0  0
 10 29  1  0  0  0  0
 11 12  1  0  0  0  0
 11 24  1  0  0  0  0
 11 25  1  0  0  0  0
 12 13  1  0  0  0  0
 12 26  1  0  0  0  0
 12 27  1  0  0  0  0
 14 28  1  0  0  0  0
M  CHG  1  10   1
M  END
> <s_m_source_file>
AV-unprocessed.smi

> <i_m_source_file_index>
2564

> <i_lp_mmshare_version>
43012

> <i_f3d_flags>
0

> <s_epik_input>
W2NIXTFbY0hdW2NIXW5uYzFbTkhdW0NIMl1bQ0BASF0yW0NIMl1bTkhdW0NIMl1bQ0gyXU8y

> <s_epik_cmdline>
J2VwaWtfcHl0aG9uJywgJy1waCcsICc3LjAnLCAnLXRuJywgJzgnLCAnLW1hJywgJzIwMCcsICctbWV0YWxfYmluZGluZycsICctaW1hZScsICc8aW5maWxlLm1hZT4nLCAnLW9tYWUnLCAnPG91dGZpbGUubWFlPic=

> <r_lp_tautomer_probability>
0.999978

> <r_epik_Ionization_Penalty>
0.0278973

> <r_epik_Ionization_Penalty_Charging>
0.00959556

> <r_epik_Ionization_Penalty_Neutral>
0.0183017

> <r_epik_State_Penalty>
0.0323017

> <r_epik_Charging_Adjusted_Penalty>
0.0418973

> <i_epik_Tot_Q>
1

> <i_epik_Tot_abs_Q>
1

> <r_epik_Metal_State_Penalty>
0.0301524

> <b_epik_Metal_Only>
0

> <s_lp_Force_Field>
OPLS_2005

> <r_lp_Energy>
19.9275

> <b_lp_Chiralities_Consistent>
1

> <s_lp_Variant>
AV-unprocessed.smi:2564-1

> <Gold.Version>
5.8.1

> <Gold.Id.Protein>
6NUR|6NUR_protein|mol2

> <Gold.PLP.Fitness>
35.9573

> <Gold.PLP.PLP>
-26.5090

> <Gold.PLP.part.hbond>
-3.6554

> <Gold.PLP.part.metal>
0.0000

> <Gold.PLP.part.buried>
-0.1432

> <Gold.PLP.part.nonpolar>
-21.7564

> <Gold.PLP.part.repulsive>
0.2149

> <Gold.PLP.ligand.clash>
0.0000

> <Gold.PLP.ligand.torsion>
0.0366

> <Gold.PLP.Chemscore.Hbond>
3.1733

> <Gold.PLP.Chemscore.CHOScore>
0.0000

> <Gold.PLP.Chemscore.Metal>
0.0000

> <Gold.Chemscore.Hbonds>
donor molecule, donor type, donor heavy atom, donor atom, acceptor molecule, acceptor atom, score
      L1  H    10    29       P1  8028  2.00
      P1  H  7989  7998       L1    13  0.53
      P1  H  7997  8009       L1     4  0.49

> <Gold.PLP.Chemscore.Internal.Correction>
0.0015

> <Gold.Rescore>
     Score         DG    S(hbond)    S(metal)    S(lipo)     H(rot)  DE(clash)    DE(int)     intcor
     13.51     -13.64       1.30        0.00      61.71       1.33       0.04       0.09       ----

> <Gold.Chemscore.Fitness>
13.5118

> <Gold.Chemscore.DG>
-13.6412

> <Gold.Chemscore.ZeroCoef>
-5.4800

> <Gold.Chemscore.Hbond>
1.2975

> <Gold.Chemscore.Metal>
0.0000

> <Gold.Chemscore.Lipo>
61.7099

> <Gold.Chemscore.Internal_Hbond>
0.0000

> <Gold.Chemscore.DEClash>
0.0411

> <Gold.Chemscore.DEInternal>
0.0882

> <Gold.Chemscore.Rot>
1.3251

> <Gold.Chemscore.Internal.Correction>
   9.000000E+99

> <Gold.Chemscore.Hbonds>
donor molecule, donor type, donor heavy atom, donor atom, acceptor molecule, acceptor atom, score
      L1  H    10    29       P1  8028  0.65
      P1  H  7989  7998       L1    13  0.07
      P1  H  7997  8009       L1     4  0.06

> <Gold.Chemscore.Hbond.Weighted>
-4.3335

> <Gold.Chemscore.Metal.Weighted>
-0.0000

> <Gold.Chemscore.Lipo.Weighted>
-7.2201

> <Gold.Chemscore.Internal_Hbond.Weighted>
0.0000

> <Gold.Chemscore.DEClash.Weighted>
0.0411

> <Gold.Chemscore.DEInternal.Weighted>
0.0882

> <Gold.Chemscore.Rot.Weighted>
3.3924

> <Gold.Chemscore.Internal.Correction.Weighted>
   9.000000E+99

> <Gold.Protein.RotatedTorsions>
[ 6907 6896 6895 6894 ] final   68.75 input  -60.11 | X-H torsion
[ 7974 7965 7964 7962 ] final -152.33 input  175.53 | X-H torsion
[ 8008 7997 7996 7995 ] final  165.04 input   59.86 | X-H torsion
[ 10167 10162 10161 10158 ] final  -18.88 input  -65.29 | X-H torsion
[ 10718 10713 10712 10709 ] final   15.60 input   66.30 | X-H torsion
[ 10763 10752 10751 10750 ] final -147.37 input  -60.55 | X-H torsion
[ 11005 11000 10999 10996 ] final  147.21 input  -57.11 | X-H torsion

> <Gold.Protein.ActiveResidues>
 VAL166  LYS551  ARG553  GLY616  TRP617  ASP618  TYR619  PRO620  LYS621  CYS622 
 ASP623  PHE694  ASN695  SER759  ASP760  ASP761  ALA762  ILE779  LEU786  VAL792 
 PHE793  MET794  SER795  GLU796  ALA797  LYS798  CYS799  TRP800  GLU811  SER814 

> <Gold.Protein.RotatedAtoms>
  152.4641  134.5116  159.9755 H   0  0  0  0  0  0  0  0  0  0  0  0  # atno 6907 bound_to 6896
  151.5158  133.3470  159.2900 H   0  0  0  0  0  0  0  0  0  0  0  0  # atno 6908 bound_to 6896
  150.8617  134.8000  159.7150 H   0  0  0  0  0  0  0  0  0  0  0  0  # atno 6909 bound_to 6896
  144.7800  140.4677  143.5846 H   0  0  0  0  0  0  0  0  0  0  0  0  # atno 7974 bound_to 7965
  156.1832  140.1680  156.8235 H   0  0  0  0  0  0  0  0  0  0  0  0  # atno 8008 bound_to 7997
  154.5384  140.0742  156.8500 H   0  0  0  0  0  0  0  0  0  0  0  0  # atno 8009 bound_to 7997
  155.3265  140.3376  155.4242 H   0  0  0  0  0  0  0  0  0  0  0  0  # atno 8010 bound_to 7997
  140.7263  143.4873  151.0038 H   0  0  0  0  0  0  0  0  0  0  0  0  # atno 10167 bound_to 10162
  157.0559  130.6289  149.5776 H   0  0  0  0  0  0  0  0  0  0  0  0  # atno 10718 bound_to 10713
  154.8289  135.3362  154.6808 H   0  0  0  0  0  0  0  0  0  0  0  0  # atno 10763 bound_to 10752
  153.7430  135.6944  153.4967 H   0  0  0  0  0  0  0  0  0  0  0  0  # atno 10764 bound_to 10752
  153.2230  135.4442  155.0461 H   0  0  0  0  0  0  0  0  0  0  0  0  # atno 10765 bound_to 10752
  140.0857  134.9071  157.1572 H   0  0  0  0  0  0  0  0  0  0  0  0  # atno 11005 bound_to 11000
  145.6077  139.1510  143.3093 LP  0  0  0  0  0  0  0  0  0  0  0  0  # atno 17320 bound_to 7965
  146.2003  140.6194  142.9105 LP  0  0  0  0  0  0  0  0  0  0  0  0  # atno 17321 bound_to 7965
  139.8575  143.7357  152.3175 LP  0  0  0  0  0  0  0  0  0  0  0  0  # atno 17342 bound_to 10162
  139.7561  144.7520  151.0433 LP  0  0  0  0  0  0  0  0  0  0  0  0  # atno 17343 bound_to 10162
  155.9993  130.5069  150.7603 LP  0  0  0  0  0  0  0  0  0  0  0  0  # atno 17370 bound_to 10713
  157.4994  131.0917  151.0333 LP  0  0  0  0  0  0  0  0  0  0  0  0  # atno 17371 bound_to 10713
  140.3423  134.2690  155.7210 LP  0  0  0  0  0  0  0  0  0  0  0  0  # atno 17394 bound_to 11000
  141.2062  133.7840  157.0192 LP  0  0  0  0  0  0  0  0  0  0  0  0  # atno 17395 bound_to 11000

$$$$
