AV-unprocessed.smi:3335|AV-procd|sdf|12838|dock5
  -GOLD-   2272019223D 1   1.00000     0.00000
 Structure written by MMmdl.
 47 48  0  0  0  0  0  0  0  0  2 V2000
  151.1164  136.4021  156.4289 C   0  0  0  0  0  0  0  0  0  0  0  0
  150.8459  137.7361  155.7949 C   0  0  0  0  0  0  0  0  0  0  0  0
  150.7532  138.0438  154.4085 C   0  0  0  0  0  0  0  0  0  0  0  0
  150.4975  139.3218  154.1832 N   0  0  0  0  0  0  0  0  0  0  0  0
  150.4325  139.8821  155.4127 N   0  0  0  0  0  0  0  0  0  0  0  0
  150.1318  141.3005  155.5827 C   0  0  1  0  0  0  0  0  0  0  0  0
  148.8141  141.7042  154.8859 C   0  0  0  0  0  0  0  0  0  0  0  0
  150.2119  141.7268  157.0717 C   0  0  2  0  0  0  0  0  0  0  0  0
  148.8606  141.6840  157.8147 C   0  0  0  0  0  0  0  0  0  0  0  0
  150.8415  143.0670  157.1741 N   0  3  0  0  0  0  0  0  0  0  0  0
  151.2311  143.5207  158.5317 C   0  0  2  0  0  0  0  0  0  0  0  0
  151.9560  144.8719  158.4231 C   0  0  0  0  0  0  0  0  0  0  0  0
  152.1432  142.4947  159.2346 C   0  0  0  0  0  0  0  0  0  0  0  0
  152.4881  141.4863  158.6160 O   0  0  0  0  0  0  0  0  0  0  0  0
  152.5489  142.7280  160.5016 N   0  0  0  0  0  0  0  0  0  0  0  0
  153.4105  141.8110  161.2466 C   0  0  0  0  0  0  0  0  0  0  0  0
  153.4189  142.3228  162.6870 C   0  0  0  0  0  0  0  0  0  0  0  0
  153.1093  143.8069  162.5547 C   0  0  0  0  0  0  0  0  0  0  0  0
  152.2106  143.8921  161.3210 C   0  0  0  0  0  0  0  0  0  0  0  0
  150.6255  138.9396  156.4017 C   0  0  0  0  0  0  0  0  0  0  0  0
  151.4693  135.6708  155.7014 H   0  0  0  0  0  0  0  0  0  0  0  0
  150.2205  135.9884  156.8916 H   0  0  0  0  0  0  0  0  0  0  0  0
  151.8774  136.4730  157.2063 H   0  0  0  0  0  0  0  0  0  0  0  0
  150.8592  137.3783  153.5643 H   0  0  0  0  0  0  0  0  0  0  0  0
  150.9285  141.8309  155.0581 H   0  0  0  0  0  0  0  0  0  0  0  0
  148.6539  142.7814  154.9299 H   0  0  0  0  0  0  0  0  0  0  0  0
  147.9451  141.2243  155.3364 H   0  0  0  0  0  0  0  0  0  0  0  0
  148.8320  141.4249  153.8320 H   0  0  0  0  0  0  0  0  0  0  0  0
  150.8736  141.0111  157.5610 H   0  0  0  0  0  0  0  0  0  0  0  0
  148.3982  140.6998  157.7496 H   0  0  0  0  0  0  0  0  0  0  0  0
  148.1558  142.4107  157.4109 H   0  0  0  0  0  0  0  0  0  0  0  0
  148.9773  141.8990  158.8762 H   0  0  0  0  0  0  0  0  0  0  0  0
  151.6832  143.0600  156.6152 H   0  0  0  0  0  0  0  0  0  0  0  0
  150.3192  143.6740  159.1059 H   0  0  0  0  0  0  0  0  0  0  0  0
  152.2499  145.2512  159.4023 H   0  0  0  0  0  0  0  0  0  0  0  0
  151.3133  145.6239  157.9644 H   0  0  0  0  0  0  0  0  0  0  0  0
  152.8590  144.7944  157.8155 H   0  0  0  0  0  0  0  0  0  0  0  0
  153.0558  140.7802  161.1965 H   0  0  0  0  0  0  0  0  0  0  0  0
  154.4151  141.8450  160.8223 H   0  0  0  0  0  0  0  0  0  0  0  0
  152.6252  141.8339  163.2539 H   0  0  0  0  0  0  0  0  0  0  0  0
  154.3624  142.1305  163.1988 H   0  0  0  0  0  0  0  0  0  0  0  0
  152.6436  144.2240  163.4480 H   0  0  0  0  0  0  0  0  0  0  0  0
  154.0336  144.3567  162.3724 H   0  0  0  0  0  0  0  0  0  0  0  0
  152.3633  144.8345  160.7944 H   0  0  0  0  0  0  0  0  0  0  0  0
  151.1611  143.8293  161.6129 H   0  0  0  0  0  0  0  0  0  0  0  0
  150.5924  139.2017  157.4490 H   0  0  0  0  0  0  0  0  0  0  0  0
  150.2021  143.7397  156.7764 H   0  0  0  0  0  0  0  0  0  0  0  0
  1  2  1  0  0  0  0
  1 21  1  0  0  0  0
  1 22  1  0  0  0  0
  1 23  1  0  0  0  0
  2 20  2  0  0  0  0
  2  3  1  0  0  0  0
  3  4  2  0  0  0  0
  3 24  1  0  0  0  0
  4  5  1  0  0  0  0
  5  6  1  0  0  0  0
  5 20  1  0  0  0  0
  6  7  1  0  0  0  0
  6  8  1  0  0  0  0
  6 25  1  0  0  0  0
  7 26  1  0  0  0  0
  7 27  1  0  0  0  0
  7 28  1  0  0  0  0
  8  9  1  0  0  0  0
  8 10  1  0  0  0  0
  8 29  1  0  0  0  0
  9 30  1  0  0  0  0
  9 31  1  0  0  0  0
  9 32  1  0  0  0  0
 10 11  1  0  0  0  0
 10 33  1  0  0  0  0
 10 47  1  0  0  0  0
 11 12  1  0  0  0  0
 11 13  1  0  0  0  0
 11 34  1  0  0  0  0
 12 35  1  0  0  0  0
 12 36  1  0  0  0  0
 12 37  1  0  0  0  0
 13 14  2  0  0  0  0
 13 15  1  0  0  0  0
 15 19  1  0  0  0  0
 15 16  1  0  0  0  0
 16 17  1  0  0  0  0
 16 38  1  0  0  0  0
 16 39  1  0  0  0  0
 17 18  1  0  0  0  0
 17 40  1  0  0  0  0
 17 41  1  0  0  0  0
 18 19  1  0  0  0  0
 18 42  1  0  0  0  0
 18 43  1  0  0  0  0
 19 44  1  0  0  0  0
 19 45  1  0  0  0  0
 20 46  1  0  0  0  0
M  CHG  1  10   1
M  END
> <s_m_source_file>
AV-unprocessed.smi

> <i_m_source_file_index>
3335

> <i_lp_mmshare_version>
43012

> <i_f3d_flags>
0

> <s_epik_input>
W0NIM11jMVtjSF1ubihbY0hdMSlbQ0BIXShbQ0gzXSlbQ0BIXShbQ0gzXSlbTkhdW0NASF0oW0NIM10pQyg9TylOMltDSDJdW0NIMl1bQ0gyXVtDSDJdMg==

> <s_epik_cmdline>
J2VwaWtfcHl0aG9uJywgJy1waCcsICc3LjAnLCAnLXRuJywgJzgnLCAnLW1hJywgJzIwMCcsICctbWV0YWxfYmluZGluZycsICctaW1hZScsICc8aW5maWxlLm1hZT4nLCAnLW9tYWUnLCAnPG91dGZpbGUubWFlPic=

> <r_lp_tautomer_probability>
1

> <r_epik_Ionization_Penalty>
0.14175

> <r_epik_Ionization_Penalty_Charging>
0.141731

> <r_epik_Ionization_Penalty_Neutral>
1.91261e-05

> <r_epik_State_Penalty>
0.131043

> <r_epik_Charging_Adjusted_Penalty>
0.272773

> <i_epik_Tot_Q>
1

> <i_epik_Tot_abs_Q>
1

> <r_epik_Metal_State_Penalty>
0.131408

> <b_epik_Metal_Only>
0

> <s_lp_Force_Field>
OPLS_2005

> <r_lp_Energy>
39.0238

> <b_lp_Chiralities_Consistent>
1

> <s_lp_Variant>
AV-unprocessed.smi:3335-2

> <Gold.Version>
5.8.1

> <Gold.Id.Protein>
6NUR|6NUR_protein|mol2

> <Gold.PLP.Fitness>
56.4512

> <Gold.PLP.PLP>
-47.2580

> <Gold.PLP.part.hbond>
-2.0000

> <Gold.PLP.part.metal>
0.0000

> <Gold.PLP.part.buried>
-4.3996

> <Gold.PLP.part.nonpolar>
-40.3505

> <Gold.PLP.part.repulsive>
0.2022

> <Gold.PLP.ligand.clash>
0.0000

> <Gold.PLP.ligand.torsion>
0.9562

> <Gold.PLP.Chemscore.Hbond>
2.6000

> <Gold.PLP.Chemscore.CHOScore>
1.0189

> <Gold.PLP.Chemscore.Metal>
0.0000

> <Gold.Chemscore.Hbonds>
donor molecule, donor type, donor heavy atom, donor atom, acceptor molecule, acceptor atom, score
      L1  H    10    47       P1  8028  2.00
      P1  H  7989  7998       L1     4  0.60
      L1  C     3    24       P1  7948  0.18
      L1  C     3    24       P1  7949  0.92

> <Gold.PLP.Chemscore.Internal.Correction>
0.2489

> <Gold.Rescore>
     Score         DG    S(hbond)    S(metal)    S(lipo)     H(rot)  DE(clash)    DE(int)     intcor
     15.62     -18.11       0.99        0.00     116.38       1.68       0.27       2.22       ----

> <Gold.Chemscore.Fitness>
15.6239

> <Gold.Chemscore.DG>
-18.1062

> <Gold.Chemscore.ZeroCoef>
-5.4800

> <Gold.Chemscore.Hbond>
0.9894

> <Gold.Chemscore.Metal>
0.0000

> <Gold.Chemscore.Lipo>
116.3837

> <Gold.Chemscore.Internal_Hbond>
0.0000

> <Gold.Chemscore.DEClash>
0.2651

> <Gold.Chemscore.DEInternal>
2.2173

> <Gold.Chemscore.Rot>
1.6778

> <Gold.Chemscore.Internal.Correction>
   9.000000E+99

> <Gold.Chemscore.Hbonds>
donor molecule, donor type, donor heavy atom, donor atom, acceptor molecule, acceptor atom, score
      L1  H    10    47       P1  8028  0.98
      P1  H  7989  7998       L1     4  0.04

> <Gold.Chemscore.Hbond.Weighted>
-3.3045

> <Gold.Chemscore.Metal.Weighted>
-0.0000

> <Gold.Chemscore.Lipo.Weighted>
-13.6169

> <Gold.Chemscore.Internal_Hbond.Weighted>
0.0000

> <Gold.Chemscore.DEClash.Weighted>
0.2651

> <Gold.Chemscore.DEInternal.Weighted>
2.2173

> <Gold.Chemscore.Rot.Weighted>
4.2952

> <Gold.Chemscore.Internal.Correction.Weighted>
   9.000000E+99

> <Gold.Protein.RotatedTorsions>
[ 6907 6896 6895 6894 ] final  173.56 input  -60.11 | X-H torsion
[ 7974 7965 7964 7962 ] final  -69.44 input  175.53 | X-H torsion
[ 8008 7997 7996 7995 ] final -101.16 input   59.86 | X-H torsion
[ 10167 10162 10161 10158 ] final   31.60 input  -65.29 | X-H torsion
[ 10718 10713 10712 10709 ] final  117.95 input   66.30 | X-H torsion
[ 10763 10752 10751 10750 ] final  175.67 input  -60.55 | X-H torsion
[ 11005 11000 10999 10996 ] final  -68.63 input  -57.11 | X-H torsion

> <Gold.Protein.ActiveResidues>
 VAL166  LYS551  ARG553  GLY616  TRP617  ASP618  TYR619  PRO620  LYS621  CYS622 
 ASP623  PHE694  ASN695  SER759  ASP760  ASP761  ALA762  ILE779  LEU786  VAL792 
 PHE793  MET794  SER795  GLU796  ALA797  LYS798  CYS799  TRP800  GLU811  SER814 

> <Gold.Protein.RotatedAtoms>
  151.7664  133.3337  159.3431 H   0  0  0  0  0  0  0  0  0  0  0  0  # atno 6907 bound_to 6896
  150.7478  134.6059  159.6070 H   0  0  0  0  0  0  0  0  0  0  0  0  # atno 6908 bound_to 6896
  152.3371  134.7185  160.0325 H   0  0  0  0  0  0  0  0  0  0  0  0  # atno 6909 bound_to 6896
  145.7037  140.9106  143.0717 H   0  0  0  0  0  0  0  0  0  0  0  0  # atno 7974 bound_to 7965
  154.8387  140.0436  157.1526 H   0  0  0  0  0  0  0  0  0  0  0  0  # atno 8008 bound_to 7997
  154.9071  140.3008  155.5266 H   0  0  0  0  0  0  0  0  0  0  0  0  # atno 8009 bound_to 7997
  156.2991  140.2365  156.4106 H   0  0  0  0  0  0  0  0  0  0  0  0  # atno 8010 bound_to 7997
  140.4574  144.0957  150.6205 H   0  0  0  0  0  0  0  0  0  0  0  0  # atno 10167 bound_to 10162
  157.6063  131.1043  150.7687 H   0  0  0  0  0  0  0  0  0  0  0  0  # atno 10718 bound_to 10713
  154.4707  135.2771  155.1645 H   0  0  0  0  0  0  0  0  0  0  0  0  # atno 10763 bound_to 10752
  154.3395  135.6173  153.5593 H   0  0  0  0  0  0  0  0  0  0  0  0  # atno 10764 bound_to 10752
  152.9864  135.5785  154.5087 H   0  0  0  0  0  0  0  0  0  0  0  0  # atno 10765 bound_to 10752
  141.1536  133.6745  156.6475 H   0  0  0  0  0  0  0  0  0  0  0  0  # atno 11005 bound_to 11000
  144.6961  139.8982  143.7457 LP  0  0  0  0  0  0  0  0  0  0  0  0  # atno 17320 bound_to 7965
  146.0775  139.3762  143.0485 LP  0  0  0  0  0  0  0  0  0  0  0  0  # atno 17321 bound_to 7965
  140.4134  143.2646  151.9805 LP  0  0  0  0  0  0  0  0  0  0  0  0  # atno 17342 bound_to 10162
  139.4802  144.5895  151.7796 LP  0  0  0  0  0  0  0  0  0  0  0  0  # atno 17343 bound_to 10162
  156.8074  130.4941  149.5361 LP  0  0  0  0  0  0  0  0  0  0  0  0  # atno 17370 bound_to 10713
  156.1150  130.6068  151.0107 LP  0  0  0  0  0  0  0  0  0  0  0  0  # atno 17371 bound_to 10713
  140.3346  134.7900  157.4352 LP  0  0  0  0  0  0  0  0  0  0  0  0  # atno 17394 bound_to 11000
  140.0988  134.5500  155.8372 LP  0  0  0  0  0  0  0  0  0  0  0  0  # atno 17395 bound_to 11000

$$$$
