AV-unprocessed.smi:1113|AV-procd|sdf|4798|dock1
  -GOLD-   22720 3343D 1   1.00000     0.00000
 Structure written by MMmdl.
 40 41  0  0  0  0  0  0  0  0  1 V2000
  145.6140  136.2967  151.3501 C   0  0  0  0  0  0  0  0  0  0  0  0
  145.5890  137.4918  152.3116 C   0  0  2  0  0  0  0  0  0  0  0  0
  144.2684  137.9945  152.3300 O   0  0  0  0  0  0  0  0  0  0  0  0
  146.5446  138.6132  151.8599 C   0  0  0  0  0  0  0  0  0  0  0  0
  147.7839  138.6098  152.6302 N   0  0  0  0  0  0  0  0  0  0  0  0
  148.1270  139.5296  153.5426 C   0  0  0  0  0  0  0  0  0  0  0  0
  147.4134  140.4863  153.8435 O   0  0  0  0  0  0  0  0  0  0  0  0
  149.3442  139.2757  154.0523 N   0  0  0  0  0  0  0  0  0  0  0  0
  150.0606  140.0049  155.0392 C   0  0  0  0  0  0  0  0  0  0  0  0
  151.2647  139.5653  155.6388 C   0  0  0  0  0  0  0  0  0  0  0  0
  151.8912  140.3914  156.5914 C   0  0  0  0  0  0  0  0  0  0  0  0
  151.3014  141.6315  156.9107 C   0  0  0  0  0  0  0  0  0  0  0  0
  151.9237  142.4573  157.8574 N   0  0  0  0  0  0  0  0  0  0  0  0
  151.3866  143.8122  157.8876 C   0  0  0  0  0  0  0  0  0  0  0  0
  152.2036  144.6809  158.8597 C   0  0  0  0  0  0  0  0  0  0  0  0
  152.2172  144.0731  160.1484 O   0  0  0  0  0  0  0  0  0  0  0  0
  152.8123  142.7785  160.1225 C   0  0  0  0  0  0  0  0  0  0  0  0
  152.0093  141.8608  159.1847 C   0  0  0  0  0  0  0  0  0  0  0  0
  150.1559  142.0637  156.3324 N   0  0  0  0  0  0  0  0  0  0  0  0
  149.5608  141.2673  155.4195 C   0  0  0  0  0  0  0  0  0  0  0  0
  146.6083  135.8511  151.3083 H   0  0  0  0  0  0  0  0  0  0  0  0
  145.3399  136.5931  150.3369 H   0  0  0  0  0  0  0  0  0  0  0  0
  144.9196  135.5191  151.6704 H   0  0  0  0  0  0  0  0  0  0  0  0
  145.8490  137.1426  153.3118 H   0  0  0  0  0  0  0  0  0  0  0  0
  143.9992  138.1640  151.4405 H   0  0  0  0  0  0  0  0  0  0  0  0
  146.7889  138.4932  150.8028 H   0  0  0  0  0  0  0  0  0  0  0  0
  146.0674  139.5900  151.9492 H   0  0  0  0  0  0  0  0  0  0  0  0
  148.4351  137.8625  152.4383 H   0  0  0  0  0  0  0  0  0  0  0  0
  149.8425  138.4994  153.6423 H   0  0  0  0  0  0  0  0  0  0  0  0
  151.7269  138.6256  155.3792 H   0  0  0  0  0  0  0  0  0  0  0  0
  152.8110  140.0784  157.0636 H   0  0  0  0  0  0  0  0  0  0  0  0
  151.4139  144.2433  156.8860 H   0  0  0  0  0  0  0  0  0  0  0  0
  150.3421  143.7891  158.2014 H   0  0  0  0  0  0  0  0  0  0  0  0
  153.2248  144.8138  158.4983 H   0  0  0  0  0  0  0  0  0  0  0  0
  151.7619  145.6742  158.9394 H   0  0  0  0  0  0  0  0  0  0  0  0
  153.8522  142.8513  159.7995 H   0  0  0  0  0  0  0  0  0  0  0  0
  152.8204  142.3701  161.1329 H   0  0  0  0  0  0  0  0  0  0  0  0
  151.0070  141.7073  159.5873 H   0  0  0  0  0  0  0  0  0  0  0  0
  152.4854  140.8817  159.1196 H   0  0  0  0  0  0  0  0  0  0  0  0
  148.6515  141.6518  154.9811 H   0  0  0  0  0  0  0  0  0  0  0  0
  1  2  1  0  0  0  0
  1 21  1  0  0  0  0
  1 22  1  0  0  0  0
  1 23  1  0  0  0  0
  2  3  1  0  0  0  0
  2  4  1  0  0  0  0
  2 24  1  0  0  0  0
  3 25  1  0  0  0  0
  4  5  1  0  0  0  0
  4 26  1  0  0  0  0
  4 27  1  0  0  0  0
  5  6  1  0  0  0  0
  5 28  1  0  0  0  0
  6  7  2  0  0  0  0
  6  8  1  0  0  0  0
  8  9  1  0  0  0  0
  8 29  1  0  0  0  0
  9 20  1  0  0  0  0
  9 10  2  0  0  0  0
 10 11  1  0  0  0  0
 10 30  1  0  0  0  0
 11 12  2  0  0  0  0
 11 31  1  0  0  0  0
 12 13  1  0  0  0  0
 12 19  1  0  0  0  0
 13 18  1  0  0  0  0
 13 14  1  0  0  0  0
 14 15  1  0  0  0  0
 14 32  1  0  0  0  0
 14 33  1  0  0  0  0
 15 16  1  0  0  0  0
 15 34  1  0  0  0  0
 15 35  1  0  0  0  0
 16 17  1  0  0  0  0
 17 18  1  0  0  0  0
 17 36  1  0  0  0  0
 17 37  1  0  0  0  0
 18 38  1  0  0  0  0
 18 39  1  0  0  0  0
 19 20  2  0  0  0  0
 20 40  1  0  0  0  0
M  END
> <s_m_source_file>
AV-unprocessed.smi

> <i_m_source_file_index>
1113

> <i_lp_mmshare_version>
43012

> <i_f3d_flags>
0

> <s_epik_input>
W0NIM11bQ0BIXShbT0hdKVtDSDJdW05IXUMoPU8pW05IXWMxW2NIXVtjSF1jKG5bY0hdMSlOMltDSDJdW0NIMl1PW0NIMl1bQ0gyXTI=

> <s_epik_cmdline>
J2VwaWtfcHl0aG9uJywgJy1waCcsICc3LjAnLCAnLXRuJywgJzgnLCAnLW1hJywgJzIwMCcsICctbWV0YWxfYmluZGluZycsICctaW1hZScsICc8aW5maWxlLm1hZT4nLCAnLW9tYWUnLCAnPG91dGZpbGUubWFlPic=

> <r_lp_tautomer_probability>
1

> <r_epik_Ionization_Penalty>
0.00204837

> <r_epik_Ionization_Penalty_Charging>
0

> <r_epik_Ionization_Penalty_Neutral>
0.00204837

> <r_epik_State_Penalty>
0.00137592

> <r_epik_Charging_Adjusted_Penalty>
0.00137592

> <i_epik_Tot_Q>
0

> <i_epik_Tot_abs_Q>
0

> <r_epik_Metal_State_Penalty>
-0

> <b_epik_Metal_Only>
0

> <s_lp_Force_Field>
OPLS_2005

> <r_lp_Energy>
20.5006

> <b_lp_Chiralities_Consistent>
1

> <s_lp_Variant>
AV-unprocessed.smi:1113-1

> <Gold.Version>
5.8.1

> <Gold.Id.Protein>
6NUR|6NUR_protein|mol2

> <Gold.PLP.Fitness>
45.9705

> <Gold.PLP.PLP>
-41.4465

> <Gold.PLP.part.hbond>
-5.0000

> <Gold.PLP.part.metal>
0.0000

> <Gold.PLP.part.buried>
-3.4195

> <Gold.PLP.part.nonpolar>
-34.7309

> <Gold.PLP.part.repulsive>
1.1417

> <Gold.PLP.ligand.clash>
0.0000

> <Gold.PLP.ligand.torsion>
0.7991

> <Gold.PLP.Chemscore.Hbond>
2.0000

> <Gold.PLP.Chemscore.CHOScore>
0.0000

> <Gold.PLP.Chemscore.Metal>
0.0000

> <Gold.Chemscore.Hbonds>
donor molecule, donor type, donor heavy atom, donor atom, acceptor molecule, acceptor atom, score
      L1  H     3    25       P1 10171  1.00
      L1  H     5    28       P1  7948  1.00

> <Gold.PLP.Chemscore.Internal.Correction>
0.1223

> <Gold.Rescore>
     Score         DG    S(hbond)    S(metal)    S(lipo)     H(rot)  DE(clash)    DE(int)     intcor
     15.22     -17.77       1.98        0.00      94.05       2.08       0.38       2.17       ----

> <Gold.Chemscore.Fitness>
15.2238

> <Gold.Chemscore.DG>
-17.7740

> <Gold.Chemscore.ZeroCoef>
-5.4800

> <Gold.Chemscore.Hbond>
1.9805

> <Gold.Chemscore.Metal>
0.0000

> <Gold.Chemscore.Lipo>
94.0476

> <Gold.Chemscore.Internal_Hbond>
0.0000

> <Gold.Chemscore.DEClash>
0.3810

> <Gold.Chemscore.DEInternal>
2.1692

> <Gold.Chemscore.Rot>
2.0799

> <Gold.Chemscore.Internal.Correction>
   9.000000E+99

> <Gold.Chemscore.Hbonds>
donor molecule, donor type, donor heavy atom, donor atom, acceptor molecule, acceptor atom, score
      L1  H     3    25       P1 10171  1.00
      L1  H     5    28       P1  7948  0.99

> <Gold.Chemscore.Hbond.Weighted>
-6.6150

> <Gold.Chemscore.Metal.Weighted>
-0.0000

> <Gold.Chemscore.Lipo.Weighted>
-11.0036

> <Gold.Chemscore.Internal_Hbond.Weighted>
0.0000

> <Gold.Chemscore.DEClash.Weighted>
0.3810

> <Gold.Chemscore.DEInternal.Weighted>
2.1692

> <Gold.Chemscore.Rot.Weighted>
5.3246

> <Gold.Chemscore.Internal.Correction.Weighted>
   9.000000E+99

> <Gold.Protein.RotatedTorsions>
[ 6907 6896 6895 6894 ] final  -43.88 input  -60.11 | X-H torsion
[ 7974 7965 7964 7962 ] final  105.35 input  175.53 | X-H torsion
[ 8008 7997 7996 7995 ] final   50.16 input   59.86 | X-H torsion
[ 10167 10162 10161 10158 ] final   61.41 input  -65.29 | X-H torsion
[ 10718 10713 10712 10709 ] final  -19.35 input   66.30 | X-H torsion
[ 10763 10752 10751 10750 ] final  -40.73 input  -60.55 | X-H torsion
[ 11005 11000 10999 10996 ] final  -26.03 input  -57.11 | X-H torsion

> <Gold.Protein.ActiveResidues>
 VAL166  LYS551  ARG553  GLY616  TRP617  ASP618  TYR619  PRO620  LYS621  CYS622 
 ASP623  PHE694  ASN695  SER759  ASP760  ASP761  ALA762  ILE779  LEU786  VAL792 
 PHE793  MET794  SER795  GLU796  ALA797  LYS798  CYS799  TRP800  GLU811  SER814 

> <Gold.Protein.RotatedAtoms>
  150.9390  134.8800  159.7599 H   0  0  0  0  0  0  0  0  0  0  0  0  # atno 6907 bound_to 6896
  152.5072  134.3969  159.9413 H   0  0  0  0  0  0  0  0  0  0  0  0  # atno 6908 bound_to 6896
  151.3991  133.3723  159.2765 H   0  0  0  0  0  0  0  0  0  0  0  0  # atno 6909 bound_to 6896
  145.3208  139.2513  143.3713 H   0  0  0  0  0  0  0  0  0  0  0  0  # atno 7974 bound_to 7965
  155.4141  140.3443  155.4266 H   0  0  0  0  0  0  0  0  0  0  0  0  # atno 8008 bound_to 7997
  156.1431  140.1548  156.8920 H   0  0  0  0  0  0  0  0  0  0  0  0  # atno 8009 bound_to 7997
  154.4988  140.0820  156.7734 H   0  0  0  0  0  0  0  0  0  0  0  0  # atno 8010 bound_to 7997
  140.1550  144.4425  150.6739 H   0  0  0  0  0  0  0  0  0  0  0  0  # atno 10167 bound_to 10162
  156.5469  130.4692  149.6471 H   0  0  0  0  0  0  0  0  0  0  0  0  # atno 10718 bound_to 10713
  153.9507  135.6751  153.4744 H   0  0  0  0  0  0  0  0  0  0  0  0  # atno 10763 bound_to 10752
  153.0885  135.4886  154.8642 H   0  0  0  0  0  0  0  0  0  0  0  0  # atno 10764 bound_to 10752
  154.7327  135.3142  154.8824 H   0  0  0  0  0  0  0  0  0  0  0  0  # atno 10765 bound_to 10752
  140.8992  133.7535  156.0521 H   0  0  0  0  0  0  0  0  0  0  0  0  # atno 11005 bound_to 11000
  146.3083  140.3764  142.8679 LP  0  0  0  0  0  0  0  0  0  0  0  0  # atno 17320 bound_to 7965
  144.8941  140.7561  143.5908 LP  0  0  0  0  0  0  0  0  0  0  0  0  # atno 17321 bound_to 7965
  140.6678  143.2274  151.5699 LP  0  0  0  0  0  0  0  0  0  0  0  0  # atno 17342 bound_to 10162
  139.5408  144.2654  152.1346 LP  0  0  0  0  0  0  0  0  0  0  0  0  # atno 17343 bound_to 10162
  156.2920  130.7129  151.1980 LP  0  0  0  0  0  0  0  0  0  0  0  0  # atno 17370 bound_to 10713
  157.7395  131.0529  150.5229 LP  0  0  0  0  0  0  0  0  0  0  0  0  # atno 17371 bound_to 10713
  140.8251  134.3244  157.5368 LP  0  0  0  0  0  0  0  0  0  0  0  0  # atno 17394 bound_to 11000
  139.8740  134.9331  156.3573 LP  0  0  0  0  0  0  0  0  0  0  0  0  # atno 17395 bound_to 11000

$$$$
