AV-unprocessed.smi:933|AV-procd|sdf|4202|dock1
  -GOLD-   22720 2103D 1   1.00000     0.00000
 Structure written by MMmdl.
 42 43  0  0  0  0  0  0  0  0  1 V2000
  150.0674  142.1139  157.5382 C   0  0  0  0  0  0  0  0  0  0  0  0
  150.7304  141.8509  156.1821 C   0  0  0  0  0  0  0  0  0  0  0  0
  149.9945  140.8356  155.3736 C   0  0  0  0  0  0  0  0  0  0  0  0
  148.7455  141.0093  154.9332 N   0  0  0  0  0  0  0  0  0  0  0  0
  148.2605  139.8980  154.2369 C   0  0  0  0  0  0  0  0  0  0  0  0
  146.8684  139.9166  153.6755 C   0  0  0  0  0  0  0  0  0  0  0  0
  146.7964  139.4405  152.2148 C   0  0  0  0  0  0  0  0  0  0  0  0
  146.9072  137.9854  152.1170 N   0  0  0  0  0  0  0  0  0  0  0  0
  145.9200  137.0839  152.2499 C   0  0  0  0  0  0  0  0  0  0  0  0
  144.7623  137.4199  152.4913 O   0  0  0  0  0  0  0  0  0  0  0  0
  146.3122  135.8058  152.1100 N   0  0  0  0  0  0  0  0  0  0  0  0
  145.4489  134.6280  152.2032 C   0  0  1  0  0  0  0  0  0  0  0  0
  144.3834  134.6664  151.0877 C   0  0  0  0  0  0  0  0  0  0  0  0
  144.5755  133.3980  150.2493 C   0  0  0  0  0  0  0  0  0  0  0  0
  146.0074  132.9504  150.5285 C   0  0  0  0  0  0  0  0  0  0  0  0
  146.2199  133.3017  152.0015 C   0  0  1  0  0  0  0  0  0  0  0  0
  147.6957  133.2780  152.4364 C   0  0  0  0  0  0  0  0  0  0  0  0
  149.1680  138.8709  154.1571 C   0  0  0  0  0  0  0  0  0  0  0  0
  150.6605  139.2584  154.9669 S   0  0  0  0  0  0  0  0  0  0  0  0
  150.6266  142.8576  158.1060 H   0  0  0  0  0  0  0  0  0  0  0  0
  150.0207  141.2032  158.1362 H   0  0  0  0  0  0  0  0  0  0  0  0
  149.0499  142.4851  157.4128 H   0  0  0  0  0  0  0  0  0  0  0  0
  150.7933  142.7784  155.6121 H   0  0  0  0  0  0  0  0  0  0  0  0
  151.7537  141.5043  156.3294 H   0  0  0  0  0  0  0  0  0  0  0  0
  146.2136  139.2944  154.2864 H   0  0  0  0  0  0  0  0  0  0  0  0
  146.4585  140.9253  153.7405 H   0  0  0  0  0  0  0  0  0  0  0  0
  145.8482  139.7587  151.7781 H   0  0  0  0  0  0  0  0  0  0  0  0
  147.5916  139.9094  151.6336 H   0  0  0  0  0  0  0  0  0  0  0  0
  147.8359  137.6220  151.9575 H   0  0  0  0  0  0  0  0  0  0  0  0
  147.2885  135.6339  151.9195 H   0  0  0  0  0  0  0  0  0  0  0  0
  144.9515  134.6108  153.1747 H   0  0  0  0  0  0  0  0  0  0  0  0
  143.3744  134.7131  151.4991 H   0  0  0  0  0  0  0  0  0  0  0  0
  144.5066  135.5469  150.4547 H   0  0  0  0  0  0  0  0  0  0  0  0
  143.8820  132.6274  150.5886 H   0  0  0  0  0  0  0  0  0  0  0  0
  144.3892  133.5652  149.1882 H   0  0  0  0  0  0  0  0  0  0  0  0
  146.1596  131.8900  150.3238 H   0  0  0  0  0  0  0  0  0  0  0  0
  146.7000  133.5153  149.9027 H   0  0  0  0  0  0  0  0  0  0  0  0
  145.6986  132.5417  152.5860 H   0  0  0  0  0  0  0  0  0  0  0  0
  148.3028  133.9686  151.8503 H   0  0  0  0  0  0  0  0  0  0  0  0
  148.1198  132.2817  152.3092 H   0  0  0  0  0  0  0  0  0  0  0  0
  147.7980  133.5473  153.4879 H   0  0  0  0  0  0  0  0  0  0  0  0
  149.0459  137.9094  153.6807 H   0  0  0  0  0  0  0  0  0  0  0  0
  1  2  1  0  0  0  0
  1 20  1  0  0  0  0
  1 21  1  0  0  0  0
  1 22  1  0  0  0  0
  2  3  1  0  0  0  0
  2 23  1  0  0  0  0
  2 24  1  0  0  0  0
  3 19  1  0  0  0  0
  3  4  2  0  0  0  0
  4  5  1  0  0  0  0
  5  6  1  0  0  0  0
  5 18  2  0  0  0  0
  6  7  1  0  0  0  0
  6 25  1  0  0  0  0
  6 26  1  0  0  0  0
  7  8  1  0  0  0  0
  7 27  1  0  0  0  0
  7 28  1  0  0  0  0
  8  9  1  0  0  0  0
  8 29  1  0  0  0  0
  9 10  2  0  0  0  0
  9 11  1  0  0  0  0
 11 12  1  0  0  0  0
 11 30  1  0  0  0  0
 12 16  1  0  0  0  0
 12 13  1  0  0  0  0
 12 31  1  0  0  0  0
 13 14  1  0  0  0  0
 13 32  1  0  0  0  0
 13 33  1  0  0  0  0
 14 15  1  0  0  0  0
 14 34  1  0  0  0  0
 14 35  1  0  0  0  0
 15 16  1  0  0  0  0
 15 36  1  0  0  0  0
 15 37  1  0  0  0  0
 16 17  1  0  0  0  0
 16 38  1  0  0  0  0
 17 39  1  0  0  0  0
 17 40  1  0  0  0  0
 17 41  1  0  0  0  0
 18 19  1  0  0  0  0
 18 42  1  0  0  0  0
M  END
> <s_m_source_file>
AV-unprocessed.smi

> <i_m_source_file_index>
933

> <i_lp_mmshare_version>
43012

> <i_f3d_flags>
0

> <s_epik_input>
W0NIM11bQ0gyXWMxbmMoW2NIXXMxKVtDSDJdW0NIMl1bTkhdQyg9TylbTkhdW0NAQEhdMltDSDJdW0NIMl1bQ0gyXVtDQEhdMltDSDNd

> <s_epik_cmdline>
J2VwaWtfcHl0aG9uJywgJy1waCcsICc3LjAnLCAnLXRuJywgJzgnLCAnLW1hJywgJzIwMCcsICctbWV0YWxfYmluZGluZycsICctaW1hZScsICc8aW5maWxlLm1hZT4nLCAnLW9tYWUnLCAnPG91dGZpbGUubWFlPic=

> <r_epik_Ionization_Penalty>
0.00203408

> <r_epik_Ionization_Penalty_Charging>
0

> <r_epik_Ionization_Penalty_Neutral>
0.00203408

> <r_epik_State_Penalty>
0.0013452

> <r_epik_Charging_Adjusted_Penalty>
0.0013452

> <i_epik_Tot_Q>
0

> <i_epik_Tot_abs_Q>
0

> <r_epik_Metal_State_Penalty>
-0

> <b_epik_Metal_Only>
0

> <s_lp_Force_Field>
OPLS_2005

> <r_lp_Energy>
20.9711

> <b_lp_Chiralities_Consistent>
1

> <s_lp_Variant>
AV-unprocessed.smi:933-2

> <Gold.Version>
5.8.1

> <Gold.Id.Protein>
6NUR|6NUR_protein|mol2

> <Gold.PLP.Fitness>
44.0658

> <Gold.PLP.PLP>
-35.7992

> <Gold.PLP.part.hbond>
-2.0000

> <Gold.PLP.part.metal>
0.0000

> <Gold.PLP.part.buried>
-2.6868

> <Gold.PLP.part.nonpolar>
-31.3932

> <Gold.PLP.part.repulsive>
0.7750

> <Gold.PLP.ligand.clash>
0.0000

> <Gold.PLP.ligand.torsion>
0.4006

> <Gold.PLP.Chemscore.Hbond>
2.0000

> <Gold.PLP.Chemscore.CHOScore>
1.0000

> <Gold.PLP.Chemscore.Metal>
0.0000

> <Gold.Chemscore.Hbonds>
donor molecule, donor type, donor heavy atom, donor atom, acceptor molecule, acceptor atom, score
      L1  H     8    29       P1  7948  1.00
      L1  H    11    30       P1  7948  1.00
      L1  C    18    42       P1  7948  1.00

> <Gold.PLP.Chemscore.Internal.Correction>
0.0678

> <Gold.Rescore>
     Score         DG    S(hbond)    S(metal)    S(lipo)     H(rot)  DE(clash)    DE(int)     intcor
     17.38     -18.12       1.90        0.00      87.80       1.55       0.23       0.50       ----

> <Gold.Chemscore.Fitness>
17.3835

> <Gold.Chemscore.DG>
-18.1211

> <Gold.Chemscore.ZeroCoef>
-5.4800

> <Gold.Chemscore.Hbond>
1.8957

> <Gold.Chemscore.Metal>
0.0000

> <Gold.Chemscore.Lipo>
87.8023

> <Gold.Chemscore.Internal_Hbond>
0.0000

> <Gold.Chemscore.DEClash>
0.2332

> <Gold.Chemscore.DEInternal>
0.5043

> <Gold.Chemscore.Rot>
1.5482

> <Gold.Chemscore.Internal.Correction>
   9.000000E+99

> <Gold.Chemscore.Hbonds>
donor molecule, donor type, donor heavy atom, donor atom, acceptor molecule, acceptor atom, score
      L1  H     8    29       P1  7948  0.95
      L1  H    11    30       P1  7948  0.95

> <Gold.Chemscore.Hbond.Weighted>
-6.3317

> <Gold.Chemscore.Metal.Weighted>
-0.0000

> <Gold.Chemscore.Lipo.Weighted>
-10.2729

> <Gold.Chemscore.Internal_Hbond.Weighted>
0.0000

> <Gold.Chemscore.DEClash.Weighted>
0.2332

> <Gold.Chemscore.DEInternal.Weighted>
0.5043

> <Gold.Chemscore.Rot.Weighted>
3.9635

> <Gold.Chemscore.Internal.Correction.Weighted>
   9.000000E+99

> <Gold.Protein.RotatedTorsions>
[ 6907 6896 6895 6894 ] final  179.47 input  -60.11 | X-H torsion
[ 7974 7965 7964 7962 ] final  106.55 input  175.53 | X-H torsion
[ 8008 7997 7996 7995 ] final   51.23 input   59.86 | X-H torsion
[ 10167 10162 10161 10158 ] final  -57.48 input  -65.29 | X-H torsion
[ 10718 10713 10712 10709 ] final    2.62 input   66.30 | X-H torsion
[ 10763 10752 10751 10750 ] final   30.92 input  -60.55 | X-H torsion
[ 11005 11000 10999 10996 ] final -117.23 input  -57.11 | X-H torsion

> <Gold.Protein.ActiveResidues>
 VAL166  LYS551  ARG553  GLY616  TRP617  ASP618  TYR619  PRO620  LYS621  CYS622 
 ASP623  PHE694  ASN695  SER759  ASP760  ASP761  ALA762  ILE779  LEU786  VAL792 
 PHE793  MET794  SER795  GLU796  ALA797  LYS798  CYS799  TRP800  GLU811  SER814 

> <Gold.Protein.RotatedAtoms>
  151.6712  133.3314  159.3196 H   0  0  0  0  0  0  0  0  0  0  0  0  # atno 6907 bound_to 6896
  150.7867  134.6861  159.6480 H   0  0  0  0  0  0  0  0  0  0  0  0  # atno 6908 bound_to 6896
  152.3938  134.6402  160.0149 H   0  0  0  0  0  0  0  0  0  0  0  0  # atno 6909 bound_to 6896
  145.3052  139.2557  143.3792 H   0  0  0  0  0  0  0  0  0  0  0  0  # atno 7974 bound_to 7965
  155.4319  140.3451  155.4281 H   0  0  0  0  0  0  0  0  0  0  0  0  # atno 8008 bound_to 7997
  156.1331  140.1520  156.9066 H   0  0  0  0  0  0  0  0  0  0  0  0  # atno 8009 bound_to 7997
  154.4910  140.0841  156.7575 H   0  0  0  0  0  0  0  0  0  0  0  0  # atno 8010 bound_to 7997
  140.6255  143.2436  151.5374 H   0  0  0  0  0  0  0  0  0  0  0  0  # atno 10167 bound_to 10162
  156.8658  130.5602  149.5660 H   0  0  0  0  0  0  0  0  0  0  0  0  # atno 10718 bound_to 10713
  153.0344  135.6452  154.1120 H   0  0  0  0  0  0  0  0  0  0  0  0  # atno 10763 bound_to 10752
  154.0837  135.2871  155.3287 H   0  0  0  0  0  0  0  0  0  0  0  0  # atno 10764 bound_to 10752
  154.6512  135.5425  153.7968 H   0  0  0  0  0  0  0  0  0  0  0  0  # atno 10765 bound_to 10752
  141.0369  133.9896  157.3057 H   0  0  0  0  0  0  0  0  0  0  0  0  # atno 11005 bound_to 11000
  146.3138  140.3575  142.8662 LP  0  0  0  0  0  0  0  0  0  0  0  0  # atno 17320 bound_to 7965
  144.9061  140.7701  143.5837 LP  0  0  0  0  0  0  0  0  0  0  0  0  # atno 17321 bound_to 7965
  139.5476  144.2479  152.1471 LP  0  0  0  0  0  0  0  0  0  0  0  0  # atno 17342 bound_to 10162
  140.1710  144.4936  150.6580 LP  0  0  0  0  0  0  0  0  0  0  0  0  # atno 17343 bound_to 10162
  156.0753  130.5776  150.9461 LP  0  0  0  0  0  0  0  0  0  0  0  0  # atno 17370 bound_to 10713
  157.6224  131.0928  150.8597 LP  0  0  0  0  0  0  0  0  0  0  0  0  # atno 17371 bound_to 10713
  139.9247  135.0201  156.8192 LP  0  0  0  0  0  0  0  0  0  0  0  0  # atno 17394 bound_to 11000
  140.6306  133.9909  155.7660 LP  0  0  0  0  0  0  0  0  0  0  0  0  # atno 17395 bound_to 11000

$$$$
