AV-unprocessed.smi:2855|AV-procd|sdf|10985|dock2
  -GOLD-   2272015443D 1   1.00000     0.00000
 Structure written by MMmdl.
 46 47  0  0  0  0  0  0  0  0  2 V2000
  146.5805  138.6589  152.0723 C   0  0  0  0  0  0  0  0  0  0  0  0
  146.5024  137.1408  151.8578 C   0  0  2  0  0  0  0  0  0  0  0  0
  145.6175  136.7851  150.6530 C   0  0  0  0  0  0  0  0  0  0  0  0
  145.5370  135.2659  150.4355 C   0  0  0  0  0  0  0  0  0  0  0  0
  145.0182  134.5144  151.6879 C   0  0  1  0  0  0  0  0  0  0  0  0
  144.8992  132.9758  151.4535 C   0  0  0  0  0  0  0  0  0  0  0  0
  146.1497  132.3841  150.7752 C   0  0  0  0  0  0  0  0  0  0  0  0
  143.6572  132.5914  150.6254 C   0  0  0  0  0  0  0  0  0  0  0  0
  145.8813  134.8937  152.9250 C   0  0  1  0  0  0  0  0  0  0  0  0
  147.2088  134.2851  152.8441 N   0  0  0  0  0  0  0  0  0  0  0  0
  147.6272  133.2259  153.5512 C   0  0  0  0  0  0  0  0  0  0  0  0
  146.9427  132.6714  154.4118 O   0  0  0  0  0  0  0  0  0  0  0  0
  149.0473  132.7332  153.2493 C   0  0  0  0  0  0  0  0  0  0  0  0
  149.8655  132.6126  154.4659 N   0  0  0  0  0  0  0  0  0  0  0  0
  150.2952  131.3280  154.8426 C   0  0  0  0  0  0  0  0  0  0  0  0
  151.0551  131.1257  155.9356 C   0  0  0  0  0  0  0  0  0  0  0  0
  151.4323  132.2827  156.7380 C   0  0  0  0  0  0  0  0  0  0  0  0
  152.1218  132.1163  157.7423 O   0  0  0  0  0  0  0  0  0  0  0  0
  150.9942  133.5093  156.3285 N   0  5  0  0  0  0  0  0  0  0  0  0
  150.2237  133.7005  155.2131 C   0  0  0  0  0  0  0  0  0  0  0  0
  149.8413  134.8169  154.8593 O   0  0  0  0  0  0  0  0  0  0  0  0
  145.9853  136.4215  153.1158 C   0  0  0  0  0  0  0  0  0  0  0  0
  145.5990  139.0797  152.2925 H   0  0  0  0  0  0  0  0  0  0  0  0
  146.9677  139.1616  151.1857 H   0  0  0  0  0  0  0  0  0  0  0  0
  147.2418  138.9035  152.9040 H   0  0  0  0  0  0  0  0  0  0  0  0
  147.5138  136.7881  151.6514 H   0  0  0  0  0  0  0  0  0  0  0  0
  144.6128  137.1839  150.8007 H   0  0  0  0  0  0  0  0  0  0  0  0
  146.0074  137.2606  149.7522 H   0  0  0  0  0  0  0  0  0  0  0  0
  144.8851  135.0892  149.5814 H   0  0  0  0  0  0  0  0  0  0  0  0
  146.5197  134.8850  150.1540 H   0  0  0  0  0  0  0  0  0  0  0  0
  144.0109  134.8849  151.8851 H   0  0  0  0  0  0  0  0  0  0  0  0
  144.8015  132.4842  152.4224 H   0  0  0  0  0  0  0  0  0  0  0  0
  146.3736  132.8963  149.8391 H   0  0  0  0  0  0  0  0  0  0  0  0
  146.0100  131.3271  150.5465 H   0  0  0  0  0  0  0  0  0  0  0  0
  147.0298  132.4458  151.4137 H   0  0  0  0  0  0  0  0  0  0  0  0
  143.6373  133.1182  149.6709 H   0  0  0  0  0  0  0  0  0  0  0  0
  142.7303  132.8137  151.1538 H   0  0  0  0  0  0  0  0  0  0  0  0
  143.6402  131.5220  150.4139 H   0  0  0  0  0  0  0  0  0  0  0  0
  145.3823  134.5069  153.8144 H   0  0  0  0  0  0  0  0  0  0  0  0
  147.8452  134.6757  152.1647 H   0  0  0  0  0  0  0  0  0  0  0  0
  149.0114  131.7746  152.7276 H   0  0  0  0  0  0  0  0  0  0  0  0
  149.5053  133.4270  152.5432 H   0  0  0  0  0  0  0  0  0  0  0  0
  149.9780  130.5270  154.1912 H   0  0  0  0  0  0  0  0  0  0  0  0
  151.3799  130.1328  156.2091 H   0  0  0  0  0  0  0  0  0  0  0  0
  146.6274  136.6485  153.9680 H   0  0  0  0  0  0  0  0  0  0  0  0
  144.9998  136.8121  153.3726 H   0  0  0  0  0  0  0  0  0  0  0  0
  1  2  1  0  0  0  0
  1 23  1  0  0  0  0
  1 24  1  0  0  0  0
  1 25  1  0  0  0  0
  2 22  1  0  0  0  0
  2  3  1  0  0  0  0
  2 26  1  0  0  0  0
  3  4  1  0  0  0  0
  3 27  1  0  0  0  0
  3 28  1  0  0  0  0
  4  5  1  0  0  0  0
  4 29  1  0  0  0  0
  4 30  1  0  0  0  0
  5  6  1  0  0  0  0
  5  9  1  0  0  0  0
  5 31  1  0  0  0  0
  6  7  1  0  0  0  0
  6  8  1  0  0  0  0
  6 32  1  0  0  0  0
  7 33  1  0  0  0  0
  7 34  1  0  0  0  0
  7 35  1  0  0  0  0
  8 36  1  0  0  0  0
  8 37  1  0  0  0  0
  8 38  1  0  0  0  0
  9 10  1  0  0  0  0
  9 22  1  0  0  0  0
  9 39  1  0  0  0  0
 10 11  1  0  0  0  0
 10 40  1  0  0  0  0
 11 12  2  0  0  0  0
 11 13  1  0  0  0  0
 13 14  1  0  0  0  0
 13 41  1  0  0  0  0
 13 42  1  0  0  0  0
 14 20  1  0  0  0  0
 14 15  1  0  0  0  0
 15 16  2  0  0  0  0
 15 43  1  0  0  0  0
 16 17  1  0  0  0  0
 16 44  1  0  0  0  0
 17 18  2  0  0  0  0
 17 19  1  0  0  0  0
 19 20  1  0  0  0  0
 20 21  2  0  0  0  0
 22 45  1  0  0  0  0
 22 46  1  0  0  0  0
M  CHG  1  19  -1
M  END
> <s_m_source_file>
AV-unprocessed.smi

> <i_m_source_file_index>
2855

> <i_lp_mmshare_version>
43012

> <i_f3d_flags>
0

> <s_epik_input>
W0NIM11bQ0BASF0xW0NIMl1bQ0gyXVtDQEBIXShbQ0hdKFtDSDNdKVtDSDNdKVtDQEhdKFtDSDJdMSlbTkhdQyg9TylbQ0gyXW4yW2NIXVtjSF1jKD1PKVtuSF1jMj1P

> <s_epik_cmdline>
J2VwaWtfcHl0aG9uJywgJy1waCcsICc3LjAnLCAnLXRuJywgJzgnLCAnLW1hJywgJzIwMCcsICctbWV0YWxfYmluZGluZycsICctaW1hZScsICc8aW5maWxlLm1hZT4nLCAnLW9tYWUnLCAnPG91dGZpbGUubWFlPic=

> <r_lp_tautomer_probability>
0.999537

> <r_epik_Ionization_Penalty>
3.12102

> <r_epik_Ionization_Penalty_Charging>
2.9581e-08

> <r_epik_Ionization_Penalty_Neutral>
3.12102

> <r_epik_State_Penalty>
3.12011

> <r_epik_Charging_Adjusted_Penalty>
3.12011

> <i_epik_Tot_Q>
-1

> <i_epik_Tot_abs_Q>
1

> <r_epik_Metal_State_Penalty>
0.463583

> <b_epik_Metal_Only>
1

> <s_lp_Force_Field>
OPLS_2005

> <r_lp_Energy>
22.0986

> <b_lp_Chiralities_Consistent>
1

> <s_lp_Variant>
AV-unprocessed.smi:2855-9

> <Gold.Version>
5.8.1

> <Gold.Id.Protein>
6NUR|6NUR_protein|mol2

> <Gold.PLP.Fitness>
39.5836

> <Gold.PLP.PLP>
-35.0481

> <Gold.PLP.part.hbond>
-2.0000

> <Gold.PLP.part.metal>
0.0000

> <Gold.PLP.part.buried>
4.2179

> <Gold.PLP.part.nonpolar>
-37.9653

> <Gold.PLP.part.repulsive>
0.2085

> <Gold.PLP.ligand.clash>
0.0000

> <Gold.PLP.ligand.torsion>
0.5515

> <Gold.PLP.Chemscore.Hbond>
1.8640

> <Gold.PLP.Chemscore.CHOScore>
0.0000

> <Gold.PLP.Chemscore.Metal>
0.0000

> <Gold.Chemscore.Hbonds>
donor molecule, donor type, donor heavy atom, donor atom, acceptor molecule, acceptor atom, score
      L1  H    10    40       P1  7948  0.86
      P1  H  6896  6907       L1    18  1.00

> <Gold.PLP.Chemscore.Internal.Correction>
0.0464

> <Gold.Rescore>
     Score         DG    S(hbond)    S(metal)    S(lipo)     H(rot)  DE(clash)    DE(int)     intcor
     12.80     -16.98       1.93        0.00      82.82       1.81       2.60       1.59       ----

> <Gold.Chemscore.Fitness>
12.7965

> <Gold.Chemscore.DG>
-16.9833

> <Gold.Chemscore.ZeroCoef>
-5.4800

> <Gold.Chemscore.Hbond>
1.9300

> <Gold.Chemscore.Metal>
0.0000

> <Gold.Chemscore.Lipo>
82.8244

> <Gold.Chemscore.Internal_Hbond>
0.0000

> <Gold.Chemscore.DEClash>
2.5962

> <Gold.Chemscore.DEInternal>
1.5906

> <Gold.Chemscore.Rot>
1.8100

> <Gold.Chemscore.Internal.Correction>
   9.000000E+99

> <Gold.Chemscore.Hbonds>
donor molecule, donor type, donor heavy atom, donor atom, acceptor molecule, acceptor atom, score
      L1  H    10    40       P1  7948  0.42
      P1  H  6896  6907       L1    18  0.93

> <Gold.Chemscore.Hbond.Weighted>
-6.4463

> <Gold.Chemscore.Metal.Weighted>
-0.0000

> <Gold.Chemscore.Lipo.Weighted>
-9.6905

> <Gold.Chemscore.Internal_Hbond.Weighted>
0.0000

> <Gold.Chemscore.DEClash.Weighted>
2.5962

> <Gold.Chemscore.DEInternal.Weighted>
1.5906

> <Gold.Chemscore.Rot.Weighted>
4.6335

> <Gold.Chemscore.Internal.Correction.Weighted>
   9.000000E+99

> <Gold.Protein.RotatedTorsions>
[ 6907 6896 6895 6894 ] final  162.29 input  -60.11 | X-H torsion
[ 7974 7965 7964 7962 ] final -100.44 input  175.53 | X-H torsion
[ 8008 7997 7996 7995 ] final  163.75 input   59.86 | X-H torsion
[ 10167 10162 10161 10158 ] final   74.82 input  -65.29 | X-H torsion
[ 10718 10713 10712 10709 ] final  175.25 input   66.30 | X-H torsion
[ 10763 10752 10751 10750 ] final   14.89 input  -60.55 | X-H torsion
[ 11005 11000 10999 10996 ] final -113.00 input  -57.11 | X-H torsion

> <Gold.Protein.ActiveResidues>
 VAL166  LYS551  ARG553  GLY616  TRP617  ASP618  TYR619  PRO620  LYS621  CYS622 
 ASP623  PHE694  ASN695  SER759  ASP760  ASP761  ALA762  ILE779  LEU786  VAL792 
 PHE793  MET794  SER795  GLU796  ALA797  LYS798  CYS799  TRP800  GLU811  SER814 

> <Gold.Protein.RotatedAtoms>
  151.9427  133.3643  159.3970 H   0  0  0  0  0  0  0  0  0  0  0  0  # atno 6907 bound_to 6896
  150.6995  134.4422  159.5307 H   0  0  0  0  0  0  0  0  0  0  0  0  # atno 6908 bound_to 6896
  152.2082  134.8526  160.0551 H   0  0  0  0  0  0  0  0  0  0  0  0  # atno 6909 bound_to 6896
  145.2945  140.9361  143.2859 H   0  0  0  0  0  0  0  0  0  0  0  0  # atno 7974 bound_to 7965
  156.1933  140.1715  156.8048 H   0  0  0  0  0  0  0  0  0  0  0  0  # atno 8008 bound_to 7997
  154.5498  140.0720  156.8681 H   0  0  0  0  0  0  0  0  0  0  0  0  # atno 8009 bound_to 7997
  155.3050  140.3364  155.4248 H   0  0  0  0  0  0  0  0  0  0  0  0  # atno 8010 bound_to 7997
  140.0096  144.5624  150.7669 H   0  0  0  0  0  0  0  0  0  0  0  0  # atno 10167 bound_to 10162
  156.9376  130.9991  151.2975 H   0  0  0  0  0  0  0  0  0  0  0  0  # atno 10718 bound_to 10713
  153.1578  135.6790  153.8786 H   0  0  0  0  0  0  0  0  0  0  0  0  # atno 10763 bound_to 10752
  153.8192  135.3132  155.3409 H   0  0  0  0  0  0  0  0  0  0  0  0  # atno 10764 bound_to 10752
  154.7910  135.4834  154.0142 H   0  0  0  0  0  0  0  0  0  0  0  0  # atno 10765 bound_to 10752
  141.0641  133.9488  157.2612 H   0  0  0  0  0  0  0  0  0  0  0  0  # atno 11005 bound_to 11000
  144.9145  139.4488  143.6571 LP  0  0  0  0  0  0  0  0  0  0  0  0  # atno 17320 bound_to 7965
  146.3173  139.7971  142.8973 LP  0  0  0  0  0  0  0  0  0  0  0  0  # atno 17321 bound_to 7965
  140.7387  143.2781  151.3680 LP  0  0  0  0  0  0  0  0  0  0  0  0  # atno 17342 bound_to 10162
  139.6214  144.0899  152.2395 LP  0  0  0  0  0  0  0  0  0  0  0  0  # atno 17343 bound_to 10162
  157.5806  130.8374  149.8517 LP  0  0  0  0  0  0  0  0  0  0  0  0  # atno 17370 bound_to 10713
  156.0419  130.3737  150.1414 LP  0  0  0  0  0  0  0  0  0  0  0  0  # atno 17371 bound_to 10713
  139.9459  135.0184  156.8852 LP  0  0  0  0  0  0  0  0  0  0  0  0  # atno 17394 bound_to 11000
  140.5809  134.0353  155.7464 LP  0  0  0  0  0  0  0  0  0  0  0  0  # atno 17395 bound_to 11000

$$$$
