AV-unprocessed.smi:1601|AV-procd|sdf|6433|dock4
  -GOLD-   22720 7 73D 1   1.00000     0.00000
 Structure written by MMmdl.
 41 42  0  0  0  0  0  0  0  0  1 V2000
  149.3847  141.6952  154.6933 C   0  0  0  0  0  0  0  0  0  0  0  0
  149.1161  140.3534  155.4237 C   0  0  2  0  0  0  0  0  0  0  0  0
  149.1827  140.5944  156.9569 C   0  0  0  0  0  0  0  0  0  0  0  0
  150.1652  141.6111  157.3121 N   0  0  0  0  0  0  0  0  0  0  0  0
  151.1558  141.4467  158.2017 C   0  0  0  0  0  0  0  0  0  0  0  0
  151.3027  140.4131  158.8550 O   0  0  0  0  0  0  0  0  0  0  0  0
  152.1155  142.6376  158.3761 C   0  0  1  0  0  0  0  0  0  0  0  0
  151.6624  143.8985  157.6115 C   0  0  0  0  0  0  0  0  0  0  0  0
  152.3427  142.9142  159.7913 N   0  0  0  0  0  0  0  0  0  0  0  0
  152.8534  142.0638  160.7513 C   0  0  0  0  0  0  0  0  0  0  0  0
  152.8490  142.7356  161.9398 C   0  0  0  0  0  0  0  0  0  0  0  0
  152.3023  144.0061  161.6075 C   0  0  0  0  0  0  0  0  0  0  0  0
  151.9948  144.1084  160.3251 N   0  0  0  0  0  0  0  0  0  0  0  0
  150.0068  139.2627  154.9628 N   0  0  0  0  0  0  0  0  0  0  0  0
  151.4265  139.5467  155.2035 C   0  0  0  0  0  0  0  0  0  0  0  0
  152.3504  138.4012  154.7546 C   0  0  0  0  0  0  0  0  0  0  0  0
  151.9749  137.1974  155.4089 O   0  0  0  0  0  0  0  0  0  0  0  0
  150.6268  136.8415  155.1356 C   0  0  0  0  0  0  0  0  0  0  0  0
  149.6903  137.9743  155.5902 C   0  0  0  0  0  0  0  0  0  0  0  0
  148.7684  142.5108  155.0703 H   0  0  0  0  0  0  0  0  0  0  0  0
  149.1565  141.6385  153.6297 H   0  0  0  0  0  0  0  0  0  0  0  0
  150.4267  141.9995  154.7994 H   0  0  0  0  0  0  0  0  0  0  0  0
  148.0890  140.0666  155.1925 H   0  0  0  0  0  0  0  0  0  0  0  0
  148.2334  140.9528  157.3520 H   0  0  0  0  0  0  0  0  0  0  0  0
  149.4115  139.6572  157.4678 H   0  0  0  0  0  0  0  0  0  0  0  0
  150.1094  142.4910  156.8201 H   0  0  0  0  0  0  0  0  0  0  0  0
  153.0728  142.3302  157.9522 H   0  0  0  0  0  0  0  0  0  0  0  0
  151.5732  143.7017  156.5427 H   0  0  0  0  0  0  0  0  0  0  0  0
  152.3846  144.7059  157.7336 H   0  0  0  0  0  0  0  0  0  0  0  0
  150.6964  144.2632  157.9628 H   0  0  0  0  0  0  0  0  0  0  0  0
  153.1732  141.0605  160.5111 H   0  0  0  0  0  0  0  0  0  0  0  0
  153.1822  142.3737  162.9012 H   0  0  0  0  0  0  0  0  0  0  0  0
  152.1179  144.8502  162.2556 H   0  0  0  0  0  0  0  0  0  0  0  0
  151.7402  140.4346  154.6584 H   0  0  0  0  0  0  0  0  0  0  0  0
  151.5891  139.7488  156.2633 H   0  0  0  0  0  0  0  0  0  0  0  0
  152.3031  138.2676  153.6727 H   0  0  0  0  0  0  0  0  0  0  0  0
  153.3864  138.6319  155.0032 H   0  0  0  0  0  0  0  0  0  0  0  0
  150.5027  136.6411  154.0702 H   0  0  0  0  0  0  0  0  0  0  0  0
  150.3889  135.9184  155.6646 H   0  0  0  0  0  0  0  0  0  0  0  0
  149.7387  138.0698  156.6762 H   0  0  0  0  0  0  0  0  0  0  0  0
  148.6759  137.6661  155.3441 H   0  0  0  0  0  0  0  0  0  0  0  0
  1  2  1  0  0  0  0
  1 20  1  0  0  0  0
  1 21  1  0  0  0  0
  1 22  1  0  0  0  0
  2  3  1  0  0  0  0
  2 14  1  0  0  0  0
  2 23  1  0  0  0  0
  3  4  1  0  0  0  0
  3 24  1  0  0  0  0
  3 25  1  0  0  0  0
  4  5  1  0  0  0  0
  4 26  1  0  0  0  0
  5  6  2  0  0  0  0
  5  7  1  0  0  0  0
  7  8  1  0  0  0  0
  7  9  1  0  0  0  0
  7 27  1  0  0  0  0
  8 28  1  0  0  0  0
  8 29  1  0  0  0  0
  8 30  1  0  0  0  0
  9 13  1  0  0  0  0
  9 10  1  0  0  0  0
 10 11  2  0  0  0  0
 10 31  1  0  0  0  0
 11 12  1  0  0  0  0
 11 32  1  0  0  0  0
 12 13  2  0  0  0  0
 12 33  1  0  0  0  0
 14 19  1  0  0  0  0
 14 15  1  0  0  0  0
 15 16  1  0  0  0  0
 15 34  1  0  0  0  0
 15 35  1  0  0  0  0
 16 17  1  0  0  0  0
 16 36  1  0  0  0  0
 16 37  1  0  0  0  0
 17 18  1  0  0  0  0
 18 19  1  0  0  0  0
 18 38  1  0  0  0  0
 18 39  1  0  0  0  0
 19 40  1  0  0  0  0
 19 41  1  0  0  0  0
M  END
> <s_m_source_file>
AV-unprocessed.smi

> <i_m_source_file_index>
1601

> <i_lp_mmshare_version>
43012

> <i_f3d_flags>
0

> <s_epik_input>
W0NIMl0xW0NIMl1PW0NIMl1bQ0gyXU4xW0NASF0oW0NIM10pW0NIMl1bTkhdQyg9TylbQ0BIXShbQ0gzXSluMltjSF1bY0hdW2NIXW4y

> <s_epik_cmdline>
J2VwaWtfcHl0aG9uJywgJy1waCcsICc3LjAnLCAnLXRuJywgJzgnLCAnLW1hJywgJzIwMCcsICctbWV0YWxfYmluZGluZycsICctaW1hZScsICc8aW5maWxlLm1hZT4nLCAnLW9tYWUnLCAnPG91dGZpbGUubWFlPic=

> <r_lp_tautomer_probability>
1

> <r_epik_Ionization_Penalty>
0.203323

> <r_epik_Ionization_Penalty_Charging>
0

> <r_epik_Ionization_Penalty_Neutral>
0.203323

> <r_epik_State_Penalty>
0.193192

> <r_epik_Charging_Adjusted_Penalty>
0.193192

> <i_epik_Tot_Q>
0

> <i_epik_Tot_abs_Q>
0

> <r_epik_Metal_State_Penalty>
0.193187

> <b_epik_Metal_Only>
0

> <s_lp_Force_Field>
OPLS_2005

> <r_lp_Energy>
33.4287

> <b_lp_Chiralities_Consistent>
1

> <s_lp_Variant>
AV-unprocessed.smi:1601-3

> <Gold.Version>
5.8.1

> <Gold.Id.Protein>
6NUR|6NUR_protein|mol2

> <Gold.PLP.Fitness>
41.3282

> <Gold.PLP.PLP>
-40.2913

> <Gold.PLP.part.hbond>
-1.0000

> <Gold.PLP.part.metal>
0.0000

> <Gold.PLP.part.buried>
-4.0516

> <Gold.PLP.part.nonpolar>
-34.9720

> <Gold.PLP.part.repulsive>
0.2372

> <Gold.PLP.ligand.clash>
0.5818

> <Gold.PLP.ligand.torsion>
0.6543

> <Gold.PLP.Chemscore.Hbond>
0.9199

> <Gold.PLP.Chemscore.CHOScore>
0.0000

> <Gold.PLP.Chemscore.Metal>
0.0000

> <Gold.Chemscore.Hbonds>
donor molecule, donor type, donor heavy atom, donor atom, acceptor molecule, acceptor atom, score
      P1  H 10752 10763       L1    17  0.94

> <Gold.PLP.Chemscore.Internal.Correction>
0.1676

> <Gold.Rescore>
     Score         DG    S(hbond)    S(metal)    S(lipo)     H(rot)  DE(clash)    DE(int)     intcor
     13.15     -14.01       0.52        0.00      97.27       1.79       0.09       0.77       ----

> <Gold.Chemscore.Fitness>
13.1518

> <Gold.Chemscore.DG>
-14.0103

> <Gold.Chemscore.ZeroCoef>
-5.4800

> <Gold.Chemscore.Hbond>
0.5165

> <Gold.Chemscore.Metal>
0.0000

> <Gold.Chemscore.Lipo>
97.2694

> <Gold.Chemscore.Internal_Hbond>
0.0000

> <Gold.Chemscore.DEClash>
0.0898

> <Gold.Chemscore.DEInternal>
0.7687

> <Gold.Chemscore.Rot>
1.7872

> <Gold.Chemscore.Internal.Correction>
   9.000000E+99

> <Gold.Chemscore.Hbonds>
donor molecule, donor type, donor heavy atom, donor atom, acceptor molecule, acceptor atom, score
      P1  H 10752 10763       L1    17  0.25

> <Gold.Chemscore.Hbond.Weighted>
-1.7250

> <Gold.Chemscore.Metal.Weighted>
-0.0000

> <Gold.Chemscore.Lipo.Weighted>
-11.3805

> <Gold.Chemscore.Internal_Hbond.Weighted>
0.0000

> <Gold.Chemscore.DEClash.Weighted>
0.0898

> <Gold.Chemscore.DEInternal.Weighted>
0.7687

> <Gold.Chemscore.Rot.Weighted>
4.5752

> <Gold.Chemscore.Internal.Correction.Weighted>
   9.000000E+99

> <Gold.Protein.RotatedTorsions>
[ 6907 6896 6895 6894 ] final  116.46 input  -60.11 | X-H torsion
[ 7974 7965 7964 7962 ] final   -8.63 input  175.53 | X-H torsion
[ 8008 7997 7996 7995 ] final  -50.24 input   59.86 | X-H torsion
[ 10167 10162 10161 10158 ] final  138.89 input  -65.29 | X-H torsion
[ 10718 10713 10712 10709 ] final -144.12 input   66.30 | X-H torsion
[ 10763 10752 10751 10750 ] final   68.25 input  -60.55 | X-H torsion
[ 11005 11000 10999 10996 ] final   42.07 input  -57.11 | X-H torsion

> <Gold.Protein.ActiveResidues>
 VAL166  LYS551  ARG553  GLY616  TRP617  ASP618  TYR619  PRO620  LYS621  CYS622 
 ASP623  PHE694  ASN695  SER759  ASP760  ASP761  ALA762  ILE779  LEU786  VAL792 
 PHE793  MET794  SER795  GLU796  ALA797  LYS798  CYS799  TRP800  GLU811  SER814 

> <Gold.Protein.RotatedAtoms>
  152.4676  133.7958  159.6926 H   0  0  0  0  0  0  0  0  0  0  0  0  # atno 6907 bound_to 6896
  150.8649  133.7580  159.2986 H   0  0  0  0  0  0  0  0  0  0  0  0  # atno 6908 bound_to 6896
  151.5134  135.1069  159.9911 H   0  0  0  0  0  0  0  0  0  0  0  0  # atno 6909 bound_to 6896
  146.2275  140.2496  142.8347 H   0  0  0  0  0  0  0  0  0  0  0  0  # atno 7974 bound_to 7965
  154.4058  140.1277  156.4634 H   0  0  0  0  0  0  0  0  0  0  0  0  # atno 8008 bound_to 7997
  155.7251  140.3492  155.5014 H   0  0  0  0  0  0  0  0  0  0  0  0  # atno 8009 bound_to 7997
  155.9179  140.1047  157.1220 H   0  0  0  0  0  0  0  0  0  0  0  0  # atno 8010 bound_to 7997
  139.5096  144.6327  151.5776 H   0  0  0  0  0  0  0  0  0  0  0  0  # atno 10167 bound_to 10162
  156.3663  130.7764  151.1939 H   0  0  0  0  0  0  0  0  0  0  0  0  # atno 10718 bound_to 10713
  153.0226  135.5254  154.7106 H   0  0  0  0  0  0  0  0  0  0  0  0  # atno 10763 bound_to 10752
  154.6189  135.2886  155.0350 H   0  0  0  0  0  0  0  0  0  0  0  0  # atno 10764 bound_to 10752
  154.1344  135.6588  153.4981 H   0  0  0  0  0  0  0  0  0  0  0  0  # atno 10765 bound_to 10752
  140.1774  134.4146  155.8220 H   0  0  0  0  0  0  0  0  0  0  0  0  # atno 11005 bound_to 11000
  144.9422  140.8090  143.5623 LP  0  0  0  0  0  0  0  0  0  0  0  0  # atno 17320 bound_to 7965
  145.2449  139.2056  143.4973 LP  0  0  0  0  0  0  0  0  0  0  0  0  # atno 17321 bound_to 7965
  140.6065  143.9514  150.6422 LP  0  0  0  0  0  0  0  0  0  0  0  0  # atno 17342 bound_to 10162
  140.2743  143.3434  152.1209 LP  0  0  0  0  0  0  0  0  0  0  0  0  # atno 17343 bound_to 10162
  157.7479  131.0385  150.4508 LP  0  0  0  0  0  0  0  0  0  0  0  0  # atno 17370 bound_to 10713
  156.4727  130.4056  149.6508 LP  0  0  0  0  0  0  0  0  0  0  0  0  # atno 17371 bound_to 10713
  141.2221  133.6984  156.7871 LP  0  0  0  0  0  0  0  0  0  0  0  0  # atno 17394 bound_to 11000
  140.2306  134.8688  157.3473 LP  0  0  0  0  0  0  0  0  0  0  0  0  # atno 17395 bound_to 11000

$$$$
