AV-unprocessed.smi:1232|AV-procd|sdf|5167|dock2
  -GOLD-   22720 4243D 1   1.00000     0.00000
 Structure written by MMmdl.
 53 54  0  0  0  0  0  0  0  0  1 V2000
  146.1917  136.3021  153.5701 C   0  0  0  0  0  0  0  0  0  0  0  0
  147.1251  135.6878  154.6073 C   0  0  0  0  0  0  0  0  0  0  0  0
  146.7198  135.4640  155.7477 O   0  0  0  0  0  0  0  0  0  0  0  0
  148.3771  135.4248  154.1987 N   0  0  0  0  0  0  0  0  0  0  0  0
  149.4444  134.8660  155.0317 C   0  0  2  0  0  0  0  0  0  0  0  0
  150.6190  135.8619  155.0469 C   0  0  0  0  0  0  0  0  0  0  0  0
  151.5832  135.6801  155.7924 O   0  0  0  0  0  0  0  0  0  0  0  0
  150.5219  136.9078  154.2116 N   0  0  0  0  0  0  0  0  0  0  0  0
  151.5519  137.9242  154.0252 C   0  0  0  0  0  0  0  0  0  0  0  0
  151.6382  138.9378  155.1586 C   0  0  0  0  0  0  0  0  0  0  0  0
  150.8790  140.1272  155.1598 C   0  0  0  0  0  0  0  0  0  0  0  0
  151.0186  141.0263  156.2333 C   0  0  0  0  0  0  0  0  0  0  0  0
  151.9103  140.7117  157.2856 C   0  0  0  0  0  0  0  0  0  0  0  0
  152.0723  141.6065  158.3645 N   0  0  0  0  0  0  0  0  0  0  0  0
  153.3603  141.6234  159.0541 C   0  0  0  0  0  0  0  0  0  0  0  0
  153.2558  142.4345  160.3559 C   0  0  0  0  0  0  0  0  0  0  0  0
  152.7663  143.7407  160.0690 O   0  0  0  0  0  0  0  0  0  0  0  0
  151.4625  143.7116  159.4940 C   0  0  1  0  0  0  0  0  0  0  0  0
  150.9874  145.1561  159.3051 C   0  0  0  0  0  0  0  0  0  0  0  0
  151.5109  142.9393  158.1613 C   0  0  0  0  0  0  0  0  0  0  0  0
  152.6223  139.5576  157.2921 N   0  0  0  0  0  0  0  0  0  0  0  0
  152.4878  138.7013  156.2576 C   0  0  0  0  0  0  0  0  0  0  0  0
  149.8957  133.5035  154.4285 C   0  0  0  0  0  0  0  0  0  0  0  0
  148.6989  132.5653  154.1769 C   0  0  0  0  0  0  0  0  0  0  0  0
  150.9364  132.7701  155.3003 C   0  0  0  0  0  0  0  0  0  0  0  0
  146.4617  137.3429  153.3900 H   0  0  0  0  0  0  0  0  0  0  0  0
  145.1570  136.2712  153.9135 H   0  0  0  0  0  0  0  0  0  0  0  0
  146.2538  135.7601  152.6261 H   0  0  0  0  0  0  0  0  0  0  0  0
  148.6193  135.6483  153.2445 H   0  0  0  0  0  0  0  0  0  0  0  0
  149.0729  134.7091  156.0469 H   0  0  0  0  0  0  0  0  0  0  0  0
  149.6940  136.9840  153.6385 H   0  0  0  0  0  0  0  0  0  0  0  0
  152.5155  137.4214  153.9417 H   0  0  0  0  0  0  0  0  0  0  0  0
  151.3882  138.4404  153.0775 H   0  0  0  0  0  0  0  0  0  0  0  0
  150.1983  140.3560  154.3535 H   0  0  0  0  0  0  0  0  0  0  0  0
  150.4359  141.9354  156.2436 H   0  0  0  0  0  0  0  0  0  0  0  0
  153.6784  140.6061  159.2849 H   0  0  0  0  0  0  0  0  0  0  0  0
  154.1150  142.0626  158.4001 H   0  0  0  0  0  0  0  0  0  0  0  0
  152.5998  141.9375  161.0725 H   0  0  0  0  0  0  0  0  0  0  0  0
  154.2356  142.5173  160.8260 H   0  0  0  0  0  0  0  0  0  0  0  0
  150.7801  143.2101  160.1826 H   0  0  0  0  0  0  0  0  0  0  0  0
  149.9859  145.1866  158.8758 H   0  0  0  0  0  0  0  0  0  0  0  0
  151.6537  145.7077  158.6410 H   0  0  0  0  0  0  0  0  0  0  0  0
  150.9561  145.6832  160.2589 H   0  0  0  0  0  0  0  0  0  0  0  0
  152.1317  143.4726  157.4399 H   0  0  0  0  0  0  0  0  0  0  0  0
  150.5077  142.8911  157.7399 H   0  0  0  0  0  0  0  0  0  0  0  0
  153.0830  137.8013  156.3082 H   0  0  0  0  0  0  0  0  0  0  0  0
  150.3620  133.6916  153.4595 H   0  0  0  0  0  0  0  0  0  0  0  0
  148.1662  132.3488  155.1036 H   0  0  0  0  0  0  0  0  0  0  0  0
  149.0268  131.6149  153.7545 H   0  0  0  0  0  0  0  0  0  0  0  0
  147.9836  132.9933  153.4745 H   0  0  0  0  0  0  0  0  0  0  0  0
  150.5532  132.5905  156.3053 H   0  0  0  0  0  0  0  0  0  0  0  0
  151.8662  133.3315  155.3926 H   0  0  0  0  0  0  0  0  0  0  0  0
  151.1967  131.8032  154.8687 H   0  0  0  0  0  0  0  0  0  0  0  0
  1  2  1  0  0  0  0
  1 26  1  0  0  0  0
  1 27  1  0  0  0  0
  1 28  1  0  0  0  0
  2  3  2  0  0  0  0
  2  4  1  0  0  0  0
  4  5  1  0  0  0  0
  4 29  1  0  0  0  0
  5  6  1  0  0  0  0
  5 23  1  0  0  0  0
  5 30  1  0  0  0  0
  6  7  2  0  0  0  0
  6  8  1  0  0  0  0
  8  9  1  0  0  0  0
  8 31  1  0  0  0  0
  9 10  1  0  0  0  0
  9 32  1  0  0  0  0
  9 33  1  0  0  0  0
 10 22  1  0  0  0  0
 10 11  2  0  0  0  0
 11 12  1  0  0  0  0
 11 34  1  0  0  0  0
 12 13  2  0  0  0  0
 12 35  1  0  0  0  0
 13 14  1  0  0  0  0
 13 21  1  0  0  0  0
 14 20  1  0  0  0  0
 14 15  1  0  0  0  0
 15 16  1  0  0  0  0
 15 36  1  0  0  0  0
 15 37  1  0  0  0  0
 16 17  1  0  0  0  0
 16 38  1  0  0  0  0
 16 39  1  0  0  0  0
 17 18  1  0  0  0  0
 18 19  1  0  0  0  0
 18 20  1  0  0  0  0
 18 40  1  0  0  0  0
 19 41  1  0  0  0  0
 19 42  1  0  0  0  0
 19 43  1  0  0  0  0
 20 44  1  0  0  0  0
 20 45  1  0  0  0  0
 21 22  2  0  0  0  0
 22 46  1  0  0  0  0
 23 24  1  0  0  0  0
 23 25  1  0  0  0  0
 23 47  1  0  0  0  0
 24 48  1  0  0  0  0
 24 49  1  0  0  0  0
 24 50  1  0  0  0  0
 25 51  1  0  0  0  0
 25 52  1  0  0  0  0
 25 53  1  0  0  0  0
M  END
> <s_m_source_file>
AV-unprocessed.smi

> <i_m_source_file_index>
1232

> <i_lp_mmshare_version>
43012

> <i_f3d_flags>
0

> <s_epik_input>
W0NIM11DKD1PKVtOSF1bQ0BASF0oW0NIXShbQ0gzXSlbQ0gzXSlDKD1PKVtOSF1bQ0gyXWMxW2NIXVtjSF1jKG5bY0hdMSlOMltDSDJdW0NIMl1PW0NAQEhdKFtDSDNdKVtDSDJdMg==

> <s_epik_cmdline>
J2VwaWtfcHl0aG9uJywgJy1waCcsICc3LjAnLCAnLXRuJywgJzgnLCAnLW1hJywgJzIwMCcsICctbWV0YWxfYmluZGluZycsICctaW1hZScsICc8aW5maWxlLm1hZT4nLCAnLW9tYWUnLCAnPG91dGZpbGUubWFlPic=

> <r_lp_tautomer_probability>
1

> <r_epik_Ionization_Penalty>
0.00557618

> <r_epik_Ionization_Penalty_Charging>
0

> <r_epik_Ionization_Penalty_Neutral>
0.00557618

> <r_epik_State_Penalty>
0.00408363

> <r_epik_Charging_Adjusted_Penalty>
0.00408363

> <i_epik_Tot_Q>
0

> <i_epik_Tot_abs_Q>
0

> <r_epik_Metal_State_Penalty>
-0

> <b_epik_Metal_Only>
0

> <s_lp_Force_Field>
OPLS_2005

> <r_lp_Energy>
17.3881

> <b_lp_Chiralities_Consistent>
1

> <s_lp_Variant>
AV-unprocessed.smi:1232-1

> <Gold.Version>
5.8.1

> <Gold.Id.Protein>
6NUR|6NUR_protein|mol2

> <Gold.PLP.Fitness>
53.3230

> <Gold.PLP.PLP>
-45.5294

> <Gold.PLP.part.hbond>
-5.0000

> <Gold.PLP.part.metal>
0.0000

> <Gold.PLP.part.buried>
-3.9410

> <Gold.PLP.part.nonpolar>
-36.9476

> <Gold.PLP.part.repulsive>
0.1344

> <Gold.PLP.ligand.clash>
0.0000

> <Gold.PLP.ligand.torsion>
1.1787

> <Gold.PLP.Chemscore.Hbond>
3.2644

> <Gold.PLP.Chemscore.CHOScore>
0.0000

> <Gold.PLP.Chemscore.Metal>
0.0000

> <Gold.Chemscore.Hbonds>
donor molecule, donor type, donor heavy atom, donor atom, acceptor molecule, acceptor atom, score
      L1  H     4    29       P1  7948  0.98
      L1  H     8    31       P1  7948  0.75
      P1  H  7997  8010       L1    21  0.50
      P1  H 10752 10765       L1     7  1.00

> <Gold.PLP.Chemscore.Internal.Correction>
0.3578

> <Gold.Rescore>
     Score         DG    S(hbond)    S(metal)    S(lipo)     H(rot)  DE(clash)    DE(int)     intcor
     18.32     -20.10       2.16        0.00     110.05       2.13       0.19       1.60       ----

> <Gold.Chemscore.Fitness>
18.3184

> <Gold.Chemscore.DG>
-20.1015

> <Gold.Chemscore.ZeroCoef>
-5.4800

> <Gold.Chemscore.Hbond>
2.1565

> <Gold.Chemscore.Metal>
0.0000

> <Gold.Chemscore.Lipo>
110.0523

> <Gold.Chemscore.Internal_Hbond>
0.0000

> <Gold.Chemscore.DEClash>
0.1865

> <Gold.Chemscore.DEInternal>
1.5966

> <Gold.Chemscore.Rot>
2.1317

> <Gold.Chemscore.Internal.Correction>
   9.000000E+99

> <Gold.Chemscore.Hbonds>
donor molecule, donor type, donor heavy atom, donor atom, acceptor molecule, acceptor atom, score
      L1  H     4    29       P1  7948  0.90
      L1  H     8    31       P1  7948  0.49
      P1  H  7997  8010       L1    21  0.01
      P1  H 10752 10765       L1     7  0.95

> <Gold.Chemscore.Hbond.Weighted>
-7.2026

> <Gold.Chemscore.Metal.Weighted>
-0.0000

> <Gold.Chemscore.Lipo.Weighted>
-12.8761

> <Gold.Chemscore.Internal_Hbond.Weighted>
0.0000

> <Gold.Chemscore.DEClash.Weighted>
0.1865

> <Gold.Chemscore.DEInternal.Weighted>
1.5966

> <Gold.Chemscore.Rot.Weighted>
5.4572

> <Gold.Chemscore.Internal.Correction.Weighted>
   9.000000E+99

> <Gold.Protein.RotatedTorsions>
[ 6907 6896 6895 6894 ] final   27.71 input  -60.11 | X-H torsion
[ 7974 7965 7964 7962 ] final   45.52 input  175.53 | X-H torsion
[ 8008 7997 7996 7995 ] final   61.52 input   59.86 | X-H torsion
[ 10167 10162 10161 10158 ] final  -47.32 input  -65.29 | X-H torsion
[ 10718 10713 10712 10709 ] final -114.57 input   66.30 | X-H torsion
[ 10763 10752 10751 10750 ] final -148.61 input  -60.55 | X-H torsion
[ 11005 11000 10999 10996 ] final  160.25 input  -57.11 | X-H torsion

> <Gold.Protein.ActiveResidues>
 VAL166  LYS551  ARG553  GLY616  TRP617  ASP618  TYR619  PRO620  LYS621  CYS622 
 ASP623  PHE694  ASN695  SER759  ASP760  ASP761  ALA762  ILE779  LEU786  VAL792 
 PHE793  MET794  SER795  GLU796  ALA797  LYS798  CYS799  TRP800  GLU811  SER814 

> <Gold.Protein.RotatedAtoms>
  152.0063  134.9901  160.0566 H   0  0  0  0  0  0  0  0  0  0  0  0  # atno 6907 bound_to 6896
  152.1471  133.4494  159.4803 H   0  0  0  0  0  0  0  0  0  0  0  0  # atno 6908 bound_to 6896
  150.6871  134.2152  159.4418 H   0  0  0  0  0  0  0  0  0  0  0  0  # atno 6909 bound_to 6896
  146.0472  139.4955  142.9741 H   0  0  0  0  0  0  0  0  0  0  0  0  # atno 7974 bound_to 7965
  155.5996  140.3494  155.4590 H   0  0  0  0  0  0  0  0  0  0  0  0  # atno 8008 bound_to 7997
  156.0238  140.1259  157.0354 H   0  0  0  0  0  0  0  0  0  0  0  0  # atno 8009 bound_to 7997
  154.4325  140.1057  156.5988 H   0  0  0  0  0  0  0  0  0  0  0  0  # atno 8010 bound_to 7997
  140.6780  143.2790  151.3909 H   0  0  0  0  0  0  0  0  0  0  0  0  # atno 10167 bound_to 10162
  156.0839  130.6034  150.8792 H   0  0  0  0  0  0  0  0  0  0  0  0  # atno 10718 bound_to 10713
  154.8223  135.3330  154.7001 H   0  0  0  0  0  0  0  0  0  0  0  0  # atno 10763 bound_to 10752
  153.7632  135.6931  153.4926 H   0  0  0  0  0  0  0  0  0  0  0  0  # atno 10764 bound_to 10752
  153.2096  135.4487  155.0313 H   0  0  0  0  0  0  0  0  0  0  0  0  # atno 10765 bound_to 10752
  140.2041  134.8316  157.3050 H   0  0  0  0  0  0  0  0  0  0  0  0  # atno 11005 bound_to 11000
  145.6785  141.0197  143.1619 LP  0  0  0  0  0  0  0  0  0  0  0  0  # atno 17320 bound_to 7965
  144.7104  139.8394  143.7416 LP  0  0  0  0  0  0  0  0  0  0  0  0  # atno 17321 bound_to 7965
  139.6084  144.1149  152.2273 LP  0  0  0  0  0  0  0  0  0  0  0  0  # atno 17342 bound_to 10162
  140.0555  144.5898  150.7303 LP  0  0  0  0  0  0  0  0  0  0  0  0  # atno 17343 bound_to 10162
  157.5966  131.0943  150.9031 LP  0  0  0  0  0  0  0  0  0  0  0  0  # atno 17370 bound_to 10713
  156.9197  130.5310  149.5279 LP  0  0  0  0  0  0  0  0  0  0  0  0  # atno 17371 bound_to 10713
  140.2022  134.4241  155.7657 LP  0  0  0  0  0  0  0  0  0  0  0  0  # atno 17394 bound_to 11000
  141.2227  133.7077  156.8201 LP  0  0  0  0  0  0  0  0  0  0  0  0  # atno 17395 bound_to 11000

$$$$
