AV-unprocessed.smi:203|AV-procd|sdf|1595|dock3
  -GOLD-   2262019493D 1   1.00000     0.00000
 Structure written by MMmdl.
 57 61  0  0  0  0  0  0  0  0  1 V2000
  147.6907  142.7324  157.4698 O   0  0  0  0  0  0  0  0  0  0  0  0
  148.8859  142.9898  157.5928 C   0  0  0  0  0  0  0  0  0  0  0  0
  149.9954  142.0190  157.2263 C   0  0  0  0  0  0  0  0  0  0  0  0
  151.2654  142.6906  157.7847 C   0  0  2  0  0  0  0  0  0  0  0  0
  151.8960  141.9418  159.0024 C   0  0  2  0  0  0  0  0  0  0  0  0
  152.7359  142.8768  159.9126 C   0  0  0  0  0  0  0  0  0  0  0  0
  153.3466  142.1194  161.0989 C   0  0  0  0  0  0  0  0  0  0  0  0
  154.1774  140.9372  160.5897 C   0  0  0  0  0  0  0  0  0  0  0  0
  153.3186  140.0257  159.7034 C   0  0  0  0  0  0  0  0  0  0  0  0
  152.7040  140.7735  158.6067 N   0  0  0  0  0  0  0  0  0  0  0  0
  152.1355  139.9239  157.7221 C   0  0  0  0  0  0  0  0  0  0  0  0
  152.6270  139.9246  156.4588 N   0  0  0  0  0  0  0  0  0  0  0  0
  152.0963  139.1159  155.5364 C   0  0  0  0  0  0  0  0  0  0  0  0
  151.0925  138.2452  155.6666 N   0  0  0  0  0  0  0  0  0  0  0  0
  150.6037  138.2375  156.9399 C   0  0  0  0  0  0  0  0  0  0  0  0
  151.0636  139.0370  158.0234 C   0  0  0  0  0  0  0  0  0  0  0  0
  150.3269  138.7556  159.1677 N   0  0  0  0  0  0  0  0  0  0  0  0
  149.4761  137.8444  158.7816 C   0  0  0  0  0  0  0  0  0  0  0  0
  149.5704  137.4776  157.4584 N   0  0  0  0  0  0  0  0  0  0  0  0
  148.7486  136.4959  156.7723 C   0  0  0  0  0  0  0  0  0  0  0  0
  149.1930  135.0472  157.0682 C   0  0  1  0  0  0  0  0  0  0  0  0
  148.7507  134.7090  158.3690 O   0  0  0  0  0  0  0  0  0  0  0  0
  148.5990  134.0176  156.0860 C   0  0  1  0  0  0  0  0  0  0  0  0
  148.9971  134.2207  154.6225 C   0  0  0  0  0  0  0  0  0  0  0  0
  148.8392  132.8379  154.0126 C   0  0  0  0  0  0  0  0  0  0  0  0
  148.8480  131.9014  155.2229 C   0  0  0  0  0  0  0  0  0  0  0  0
  149.1529  132.7333  156.3340 O   0  0  0  0  0  0  0  0  0  0  0  0
  150.8416  144.1441  158.0945 C   0  0  0  0  0  0  0  0  0  0  0  0
  149.3925  144.1322  158.0512 N   0  0  0  0  0  0  0  0  0  0  0  0
  149.8148  141.0240  157.6331 H   0  0  0  0  0  0  0  0  0  0  0  0
  150.0428  141.9332  156.1402 H   0  0  0  0  0  0  0  0  0  0  0  0
  151.9882  142.7107  156.9685 H   0  0  0  0  0  0  0  0  0  0  0  0
  151.0735  141.5657  159.6114 H   0  0  0  0  0  0  0  0  0  0  0  0
  153.5410  143.3387  159.3412 H   0  0  0  0  0  0  0  0  0  0  0  0
  152.1272  143.6948  160.2965 H   0  0  0  0  0  0  0  0  0  0  0  0
  153.9689  142.7889  161.6936 H   0  0  0  0  0  0  0  0  0  0  0  0
  152.5541  141.7601  161.7566 H   0  0  0  0  0  0  0  0  0  0  0  0
  155.0326  141.3045  160.0209 H   0  0  0  0  0  0  0  0  0  0  0  0
  154.5804  140.3707  161.4295 H   0  0  0  0  0  0  0  0  0  0  0  0
  153.9377  139.2206  159.3044 H   0  0  0  0  0  0  0  0  0  0  0  0
  152.5385  139.5578  160.3056 H   0  0  0  0  0  0  0  0  0  0  0  0
  152.5382  139.1758  154.5528 H   0  0  0  0  0  0  0  0  0  0  0  0
  148.7489  137.4139  159.4546 H   0  0  0  0  0  0  0  0  0  0  0  0
  147.7069  136.6429  157.0602 H   0  0  0  0  0  0  0  0  0  0  0  0
  148.8079  136.7069  155.7044 H   0  0  0  0  0  0  0  0  0  0  0  0
  150.2821  134.9930  157.0412 H   0  0  0  0  0  0  0  0  0  0  0  0
  147.8153  134.8362  158.4107 H   0  0  0  0  0  0  0  0  0  0  0  0
  147.5108  133.9762  156.1689 H   0  0  0  0  0  0  0  0  0  0  0  0
  148.3911  134.9743  154.1187 H   0  0  0  0  0  0  0  0  0  0  0  0
  150.0419  134.5282  154.5569 H   0  0  0  0  0  0  0  0  0  0  0  0
  147.8965  132.7506  153.4712 H   0  0  0  0  0  0  0  0  0  0  0  0
  149.6494  132.6176  153.3166 H   0  0  0  0  0  0  0  0  0  0  0  0
  147.8646  131.4521  155.3680 H   0  0  0  0  0  0  0  0  0  0  0  0
  149.5796  131.0990  155.1255 H   0  0  0  0  0  0  0  0  0  0  0  0
  151.2011  144.5031  159.0590 H   0  0  0  0  0  0  0  0  0  0  0  0
  151.2127  144.8273  157.3298 H   0  0  0  0  0  0  0  0  0  0  0  0
  148.8339  144.9177  158.3521 H   0  0  0  0  0  0  0  0  0  0  0  0
  1  2  2  0  0  0  0
  2 29  1  0  0  0  0
  2  3  1  0  0  0  0
  3  4  1  0  0  0  0
  3 30  1  0  0  0  0
  3 31  1  0  0  0  0
  4  5  1  0  0  0  0
  4 28  1  0  0  0  0
  4 32  1  0  0  0  0
  5 10  1  0  0  0  0
  5  6  1  0  0  0  0
  5 33  1  0  0  0  0
  6  7  1  0  0  0  0
  6 34  1  0  0  0  0
  6 35  1  0  0  0  0
  7  8  1  0  0  0  0
  7 36  1  0  0  0  0
  7 37  1  0  0  0  0
  8  9  1  0  0  0  0
  8 38  1  0  0  0  0
  8 39  1  0  0  0  0
  9 10  1  0  0  0  0
  9 40  1  0  0  0  0
  9 41  1  0  0  0  0
 10 11  1  0  0  0  0
 11 16  1  0  0  0  0
 11 12  2  0  0  0  0
 12 13  1  0  0  0  0
 13 14  2  0  0  0  0
 13 42  1  0  0  0  0
 14 15  1  0  0  0  0
 15 19  1  0  0  0  0
 15 16  2  0  0  0  0
 16 17  1  0  0  0  0
 17 18  2  0  0  0  0
 18 19  1  0  0  0  0
 18 43  1  0  0  0  0
 19 20  1  0  0  0  0
 20 21  1  0  0  0  0
 20 44  1  0  0  0  0
 20 45  1  0  0  0  0
 21 22  1  0  0  0  0
 21 23  1  0  0  0  0
 21 46  1  0  0  0  0
 22 47  1  0  0  0  0
 23 27  1  0  0  0  0
 23 24  1  0  0  0  0
 23 48  1  0  0  0  0
 24 25  1  0  0  0  0
 24 49  1  0  0  0  0
 24 50  1  0  0  0  0
 25 26  1  0  0  0  0
 25 51  1  0  0  0  0
 25 52  1  0  0  0  0
 26 27  1  0  0  0  0
 26 53  1  0  0  0  0
 26 54  1  0  0  0  0
 28 29  1  0  0  0  0
 28 55  1  0  0  0  0
 28 56  1  0  0  0  0
 29 57  1  0  0  0  0
M  END
> <s_m_source_file>
AV-unprocessed.smi

> <i_m_source_file_index>
203

> <i_lp_mmshare_version>
43012

> <i_f3d_flags>
0

> <s_epik_input>
Tz1DMVtDSDJdW0NASF0oW0NIMl1bTkhdMSlbQ0BASF0yW0NIMl1bQ0gyXVtDSDJdW0NIMl1OMmMobltjSF1uMyljKGMzNCluW2NIXW40W0NIMl1bQ0BIXShbT0hdKVtDQEBIXTVbQ0gyXVtDSDJdW0NIMl1PNQ==

> <s_epik_cmdline>
J2VwaWtfcHl0aG9uJywgJy1waCcsICc3LjAnLCAnLXRuJywgJzgnLCAnLW1hJywgJzIwMCcsICctbWV0YWxfYmluZGluZycsICctaW1hZScsICc8aW5maWxlLm1hZT4nLCAnLW9tYWUnLCAnPG91dGZpbGUubWFlPic=

> <r_lp_tautomer_probability>
1

> <r_epik_Ionization_Penalty>
0.00175146

> <r_epik_Ionization_Penalty_Charging>
0

> <r_epik_Ionization_Penalty_Neutral>
0.00175146

> <r_epik_State_Penalty>
0.00109045

> <r_epik_Charging_Adjusted_Penalty>
0.00109045

> <i_epik_Tot_Q>
0

> <i_epik_Tot_abs_Q>
0

> <r_epik_Metal_State_Penalty>
-0

> <b_epik_Metal_Only>
0

> <s_lp_Force_Field>
OPLS_2005

> <r_lp_Energy>
56.5765

> <b_lp_Chiralities_Consistent>
1

> <s_lp_Variant>
AV-unprocessed.smi:203-14

> <Gold.Version>
5.8.1

> <Gold.Id.Protein>
6NUR|6NUR_protein|mol2

> <Gold.PLP.Fitness>
48.4200

> <Gold.PLP.PLP>
-44.1176

> <Gold.PLP.part.hbond>
-4.5772

> <Gold.PLP.part.metal>
0.0000

> <Gold.PLP.part.buried>
-5.1411

> <Gold.PLP.part.nonpolar>
-34.6535

> <Gold.PLP.part.repulsive>
0.2309

> <Gold.PLP.ligand.clash>
0.0000

> <Gold.PLP.ligand.torsion>
1.0036

> <Gold.PLP.Chemscore.Hbond>
2.0062

> <Gold.PLP.Chemscore.CHOScore>
0.0000

> <Gold.PLP.Chemscore.Metal>
0.0000

> <Gold.Chemscore.Hbonds>
donor molecule, donor type, donor heavy atom, donor atom, acceptor molecule, acceptor atom, score
      L1  H    29    57       P1  8029  0.48
      P1  H  6896  6909       L1    22  0.37
      P1  H  7997  8009       L1    12  1.00

> <Gold.PLP.Chemscore.Internal.Correction>
0.2910

> <Gold.Rescore>
     Score         DG    S(hbond)    S(metal)    S(lipo)     H(rot)  DE(clash)    DE(int)     intcor
     13.81     -15.18       1.64        0.00      95.44       2.72       0.11       1.26       ----

> <Gold.Chemscore.Fitness>
13.8076

> <Gold.Chemscore.DG>
-15.1826

> <Gold.Chemscore.ZeroCoef>
-5.4800

> <Gold.Chemscore.Hbond>
1.6444

> <Gold.Chemscore.Metal>
0.0000

> <Gold.Chemscore.Lipo>
95.4372

> <Gold.Chemscore.Internal_Hbond>
0.0000

> <Gold.Chemscore.DEClash>
0.1123

> <Gold.Chemscore.DEInternal>
1.2627

> <Gold.Chemscore.Rot>
2.7171

> <Gold.Chemscore.Internal.Correction>
   9.000000E+99

> <Gold.Chemscore.Hbonds>
donor molecule, donor type, donor heavy atom, donor atom, acceptor molecule, acceptor atom, score
      L1  H    29    57       P1  8029  0.38
      P1  H  6896  6909       L1    22  0.11
      P1  H  7997  8009       L1    12  0.79

> <Gold.Chemscore.Hbond.Weighted>
-5.4922

> <Gold.Chemscore.Metal.Weighted>
-0.0000

> <Gold.Chemscore.Lipo.Weighted>
-11.1661

> <Gold.Chemscore.Internal_Hbond.Weighted>
0.0000

> <Gold.Chemscore.DEClash.Weighted>
0.1123

> <Gold.Chemscore.DEInternal.Weighted>
1.2627

> <Gold.Chemscore.Rot.Weighted>
6.9557

> <Gold.Chemscore.Internal.Correction.Weighted>
   9.000000E+99

> <Gold.Protein.RotatedTorsions>
[ 6907 6896 6895 6894 ] final   11.19 input  -60.11 | X-H torsion
[ 7974 7965 7964 7962 ] final   88.05 input  175.53 | X-H torsion
[ 8008 7997 7996 7995 ] final -155.28 input   59.86 | X-H torsion
[ 10167 10162 10161 10158 ] final  160.61 input  -65.29 | X-H torsion
[ 10718 10713 10712 10709 ] final  -16.36 input   66.30 | X-H torsion
[ 10763 10752 10751 10750 ] final  -59.11 input  -60.55 | X-H torsion
[ 11005 11000 10999 10996 ] final -123.22 input  -57.11 | X-H torsion

> <Gold.Protein.ActiveResidues>
 VAL166  LYS551  ARG553  GLY616  TRP617  ASP618  TYR619  PRO620  LYS621  CYS622 
 ASP623  PHE694  ASN695  SER759  ASP760  ASP761  ALA762  ILE779  LEU786  VAL792 
 PHE793  MET794  SER795  GLU796  ALA797  LYS798  CYS799  TRP800  GLU811  SER814 

> <Gold.Protein.RotatedAtoms>
  151.7504  135.0834  160.0329 H   0  0  0  0  0  0  0  0  0  0  0  0  # atno 6907 bound_to 6896
  152.3420  133.6074  159.5892 H   0  0  0  0  0  0  0  0  0  0  0  0  # atno 6908 bound_to 6896
  150.7485  133.9623  159.3561 H   0  0  0  0  0  0  0  0  0  0  0  0  # atno 6909 bound_to 6896
  145.5508  139.2295  143.2513 H   0  0  0  0  0  0  0  0  0  0  0  0  # atno 7974 bound_to 7965
  155.6994  140.0765  157.2416 H   0  0  0  0  0  0  0  0  0  0  0  0  # atno 8008 bound_to 7997
  154.4075  140.1650  156.2227 H   0  0  0  0  0  0  0  0  0  0  0  0  # atno 8009 bound_to 7997
  155.9381  140.3386  155.6308 H   0  0  0  0  0  0  0  0  0  0  0  0  # atno 8010 bound_to 7997
  139.4841  144.4617  151.8696 H   0  0  0  0  0  0  0  0  0  0  0  0  # atno 10167 bound_to 10162
  156.5887  130.4793  149.6289 H   0  0  0  0  0  0  0  0  0  0  0  0  # atno 10718 bound_to 10713
  154.2487  135.6330  153.5232 H   0  0  0  0  0  0  0  0  0  0  0  0  # atno 10763 bound_to 10752
  152.9916  135.5559  154.5832 H   0  0  0  0  0  0  0  0  0  0  0  0  # atno 10764 bound_to 10752
  154.5354  135.2891  155.1118 H   0  0  0  0  0  0  0  0  0  0  0  0  # atno 10765 bound_to 10752
  140.9935  134.0505  157.3625 H   0  0  0  0  0  0  0  0  0  0  0  0  # atno 11005 bound_to 11000
  146.1918  140.6331  142.9142 LP  0  0  0  0  0  0  0  0  0  0  0  0  # atno 17320 bound_to 7965
  144.7530  140.5238  143.6788 LP  0  0  0  0  0  0  0  0  0  0  0  0  # atno 17321 bound_to 7965
  140.4080  144.2407  150.5890 LP  0  0  0  0  0  0  0  0  0  0  0  0  # atno 17342 bound_to 10162
  140.4994  143.2322  151.8701 LP  0  0  0  0  0  0  0  0  0  0  0  0  # atno 17343 bound_to 10162
  156.2569  130.6939  151.1695 LP  0  0  0  0  0  0  0  0  0  0  0  0  # atno 17370 bound_to 10713
  157.7309  131.0612  150.5704 LP  0  0  0  0  0  0  0  0  0  0  0  0  # atno 17371 bound_to 10713
  139.9003  135.0162  156.7238 LP  0  0  0  0  0  0  0  0  0  0  0  0  # atno 17394 bound_to 11000
  140.7002  133.9313  155.8020 LP  0  0  0  0  0  0  0  0  0  0  0  0  # atno 17395 bound_to 11000

$$$$
