AV-unprocessed.smi:2898|AV-procd|sdf|11142|dock6
  -GOLD-   2272016 23D 1   1.00000     0.00000
 Structure written by MMmdl.
 44 45  0  0  0  0  0  0  0  0  1 V2000
  152.2215  138.3476  154.8277 C   0  0  0  0  0  0  0  0  0  0  0  0
  150.7777  138.7144  154.6337 C   0  0  0  0  0  0  0  0  0  0  0  0
  150.4511  139.9741  154.4028 N   0  0  0  0  0  0  0  0  0  0  0  0
  149.0613  139.9873  154.2617 O   0  0  0  0  0  0  0  0  0  0  0  0
  148.5988  138.7201  154.4133 C   0  0  0  0  0  0  0  0  0  0  0  0
  147.1223  138.5435  154.2865 C   0  0  0  0  0  0  0  0  0  0  0  0
  149.6374  137.8599  154.6592 C   0  0  0  0  0  0  0  0  0  0  0  0
  149.6317  136.3663  154.8924 C   0  0  1  0  0  0  0  0  0  0  0  0
  150.5691  135.9714  156.0481 C   0  0  0  0  0  0  0  0  0  0  0  0
  148.1882  135.8572  155.0926 C   0  0  0  0  0  0  0  0  0  0  0  0
  147.5902  135.3741  153.8528 N   0  0  0  0  0  0  0  0  0  0  0  0
  146.3442  134.8847  153.7322 C   0  0  0  0  0  0  0  0  0  0  0  0
  145.5837  134.7787  154.6961 O   0  0  0  0  0  0  0  0  0  0  0  0
  145.8698  134.4546  152.3255 C   0  0  0  0  0  0  0  0  0  0  0  0
  145.9034  135.5877  151.3765 C   0  0  0  0  0  0  0  0  0  0  0  0
  145.9294  136.4752  150.6333 N   0  0  0  0  0  0  0  0  0  0  0  0
  146.7871  133.3196  151.8036 C   0  0  0  0  0  0  0  0  0  0  0  0
  146.3040  132.7522  150.4569 C   0  0  0  0  0  0  0  0  0  0  0  0
  144.8558  132.2504  150.5579 C   0  0  0  0  0  0  0  0  0  0  0  0
  143.9183  133.3488  151.0816 C   0  0  0  0  0  0  0  0  0  0  0  0
  144.4218  133.9105  152.4230 C   0  0  0  0  0  0  0  0  0  0  0  0
  152.5246  137.5764  154.1192 H   0  0  0  0  0  0  0  0  0  0  0  0
  152.3926  137.9608  155.8323 H   0  0  0  0  0  0  0  0  0  0  0  0
  152.8812  139.2044  154.6860 H   0  0  0  0  0  0  0  0  0  0  0  0
  146.8801  137.6081  153.7834 H   0  0  0  0  0  0  0  0  0  0  0  0
  146.6804  139.3555  153.7088 H   0  0  0  0  0  0  0  0  0  0  0  0
  146.6498  138.5324  155.2685 H   0  0  0  0  0  0  0  0  0  0  0  0
  150.0257  135.8745  154.0024 H   0  0  0  0  0  0  0  0  0  0  0  0
  151.5788  136.3448  155.8753 H   0  0  0  0  0  0  0  0  0  0  0  0
  150.6399  134.8885  156.1514 H   0  0  0  0  0  0  0  0  0  0  0  0
  150.2258  136.3680  157.0029 H   0  0  0  0  0  0  0  0  0  0  0  0
  148.1710  135.0401  155.8135 H   0  0  0  0  0  0  0  0  0  0  0  0
  147.5637  136.6475  155.5132 H   0  0  0  0  0  0  0  0  0  0  0  0
  148.1607  135.4309  153.0212 H   0  0  0  0  0  0  0  0  0  0  0  0
  147.8080  133.6878  151.6919 H   0  0  0  0  0  0  0  0  0  0  0  0
  146.8362  132.5045  152.5279 H   0  0  0  0  0  0  0  0  0  0  0  0
  146.3746  133.5168  149.6826 H   0  0  0  0  0  0  0  0  0  0  0  0
  146.9570  131.9377  150.1425 H   0  0  0  0  0  0  0  0  0  0  0  0
  144.5135  131.9020  149.5830 H   0  0  0  0  0  0  0  0  0  0  0  0
  144.8158  131.3888  151.2254 H   0  0  0  0  0  0  0  0  0  0  0  0
  143.8427  134.1497  150.3454 H   0  0  0  0  0  0  0  0  0  0  0  0
  142.9114  132.9487  151.2024 H   0  0  0  0  0  0  0  0  0  0  0  0
  144.3601  133.1221  153.1751 H   0  0  0  0  0  0  0  0  0  0  0  0
  143.7485  134.7012  152.7574 H   0  0  0  0  0  0  0  0  0  0  0  0
  1  2  1  0  0  0  0
  1 22  1  0  0  0  0
  1 23  1  0  0  0  0
  1 24  1  0  0  0  0
  2  7  1  0  0  0  0
  2  3  2  0  0  0  0
  3  4  1  0  0  0  0
  4  5  1  0  0  0  0
  5  6  1  0  0  0  0
  5  7  2  0  0  0  0
  6 25  1  0  0  0  0
  6 26  1  0  0  0  0
  6 27  1  0  0  0  0
  7  8  1  0  0  0  0
  8  9  1  0  0  0  0
  8 10  1  0  0  0  0
  8 28  1  0  0  0  0
  9 29  1  0  0  0  0
  9 30  1  0  0  0  0
  9 31  1  0  0  0  0
 10 11  1  0  0  0  0
 10 32  1  0  0  0  0
 10 33  1  0  0  0  0
 11 12  1  0  0  0  0
 11 34  1  0  0  0  0
 12 13  2  0  0  0  0
 12 14  1  0  0  0  0
 14 21  1  0  0  0  0
 14 15  1  0  0  0  0
 14 17  1  0  0  0  0
 15 16  3  0  0  0  0
 17 18  1  0  0  0  0
 17 35  1  0  0  0  0
 17 36  1  0  0  0  0
 18 19  1  0  0  0  0
 18 37  1  0  0  0  0
 18 38  1  0  0  0  0
 19 20  1  0  0  0  0
 19 39  1  0  0  0  0
 19 40  1  0  0  0  0
 20 21  1  0  0  0  0
 20 41  1  0  0  0  0
 20 42  1  0  0  0  0
 21 43  1  0  0  0  0
 21 44  1  0  0  0  0
M  END
> <s_m_source_file>
AV-unprocessed.smi

> <i_m_source_file_index>
2898

> <i_lp_mmshare_version>
43012

> <i_f3d_flags>
0

> <s_epik_input>
W0NIM11jMW5vYyhbQ0gzXSljMVtDQEhdKFtDSDNdKVtDSDJdW05IXUMoPU8pQzIoQyNOKVtDSDJdW0NIMl1bQ0gyXVtDSDJdW0NIMl0y

> <s_epik_cmdline>
J2VwaWtfcHl0aG9uJywgJy1waCcsICc3LjAnLCAnLXRuJywgJzgnLCAnLW1hJywgJzIwMCcsICctbWV0YWxfYmluZGluZycsICctaW1hZScsICc8aW5maWxlLm1hZT4nLCAnLW9tYWUnLCAnPG91dGZpbGUubWFlPic=

> <r_lp_tautomer_probability>
1

> <r_epik_Ionization_Penalty>
4.33734e-07

> <r_epik_Ionization_Penalty_Charging>
0

> <r_epik_Ionization_Penalty_Neutral>
4.33734e-07

> <r_epik_State_Penalty>
-0

> <r_epik_Charging_Adjusted_Penalty>
0

> <i_epik_Tot_Q>
0

> <i_epik_Tot_abs_Q>
0

> <r_epik_Metal_State_Penalty>
-0

> <b_epik_Metal_Only>
0

> <s_lp_Force_Field>
OPLS_2005

> <r_lp_Energy>
8.6026

> <b_lp_Chiralities_Consistent>
1

> <s_lp_Variant>
AV-unprocessed.smi:2898-2

> <Gold.Version>
5.8.1

> <Gold.Id.Protein>
6NUR|6NUR_protein|mol2

> <Gold.PLP.Fitness>
34.8241

> <Gold.PLP.PLP>
-30.4307

> <Gold.PLP.part.hbond>
-1.9062

> <Gold.PLP.part.metal>
0.0000

> <Gold.PLP.part.buried>
-3.7090

> <Gold.PLP.part.nonpolar>
-26.2418

> <Gold.PLP.part.repulsive>
1.6771

> <Gold.PLP.ligand.clash>
0.0000

> <Gold.PLP.ligand.torsion>
0.8314

> <Gold.PLP.Chemscore.Hbond>
2.0000

> <Gold.PLP.Chemscore.CHOScore>
0.0000

> <Gold.PLP.Chemscore.Metal>
0.0000

> <Gold.Chemscore.Hbonds>
donor molecule, donor type, donor heavy atom, donor atom, acceptor molecule, acceptor atom, score
      L1  H    11    34       P1  7948  1.00
      P1  H  7989  7998       L1     3  1.00

> <Gold.PLP.Chemscore.Internal.Correction>
0.0561

> <Gold.Rescore>
     Score         DG    S(hbond)    S(metal)    S(lipo)     H(rot)  DE(clash)    DE(int)     intcor
     15.07     -17.05       1.94        0.00      76.91       1.52       0.16       1.82       ----

> <Gold.Chemscore.Fitness>
15.0664

> <Gold.Chemscore.DG>
-17.0545

> <Gold.Chemscore.ZeroCoef>
-5.4800

> <Gold.Chemscore.Hbond>
1.9398

> <Gold.Chemscore.Metal>
0.0000

> <Gold.Chemscore.Lipo>
76.9054

> <Gold.Chemscore.Internal_Hbond>
0.0000

> <Gold.Chemscore.DEClash>
0.1632

> <Gold.Chemscore.DEInternal>
1.8249

> <Gold.Chemscore.Rot>
1.5243

> <Gold.Chemscore.Internal.Correction>
   9.000000E+99

> <Gold.Chemscore.Hbonds>
donor molecule, donor type, donor heavy atom, donor atom, acceptor molecule, acceptor atom, score
      L1  H    11    34       P1  7948  0.97
      P1  H  7989  7998       L1     3  0.90

> <Gold.Chemscore.Hbond.Weighted>
-6.4788

> <Gold.Chemscore.Metal.Weighted>
-0.0000

> <Gold.Chemscore.Lipo.Weighted>
-8.9979

> <Gold.Chemscore.Internal_Hbond.Weighted>
0.0000

> <Gold.Chemscore.DEClash.Weighted>
0.1632

> <Gold.Chemscore.DEInternal.Weighted>
1.8249

> <Gold.Chemscore.Rot.Weighted>
3.9022

> <Gold.Chemscore.Internal.Correction.Weighted>
   9.000000E+99

> <Gold.Protein.RotatedTorsions>
[ 6907 6896 6895 6894 ] final  -57.44 input  -60.11 | X-H torsion
[ 7974 7965 7964 7962 ] final   20.00 input  175.53 | X-H torsion
[ 8008 7997 7996 7995 ] final -156.19 input   59.86 | X-H torsion
[ 10167 10162 10161 10158 ] final -168.87 input  -65.29 | X-H torsion
[ 10718 10713 10712 10709 ] final   25.33 input   66.30 | X-H torsion
[ 10763 10752 10751 10750 ] final  169.30 input  -60.55 | X-H torsion
[ 11005 11000 10999 10996 ] final  -38.60 input  -57.11 | X-H torsion

> <Gold.Protein.ActiveResidues>
 VAL166  LYS551  ARG553  GLY616  TRP617  ASP618  TYR619  PRO620  LYS621  CYS622 
 ASP623  PHE694  ASN695  SER759  ASP760  ASP761  ALA762  ILE779  LEU786  VAL792 
 PHE793  MET794  SER795  GLU796  ALA797  LYS798  CYS799  TRP800  GLU811  SER814 

> <Gold.Protein.RotatedAtoms>
  150.8086  134.7226  159.6666 H   0  0  0  0  0  0  0  0  0  0  0  0  # atno 6907 bound_to 6896
  152.4205  134.5960  159.9997 H   0  0  0  0  0  0  0  0  0  0  0  0  # atno 6908 bound_to 6896
  151.6176  133.3304  159.3117 H   0  0  0  0  0  0  0  0  0  0  0  0  # atno 6909 bound_to 6896
  146.2128  139.8232  142.8675 H   0  0  0  0  0  0  0  0  0  0  0  0  # atno 7974 bound_to 7965
  155.7134  140.0781  157.2361 H   0  0  0  0  0  0  0  0  0  0  0  0  # atno 8008 bound_to 7997
  154.4055  140.1626  156.2375 H   0  0  0  0  0  0  0  0  0  0  0  0  # atno 8009 bound_to 7997
  155.9262  140.3394  155.6215 H   0  0  0  0  0  0  0  0  0  0  0  0  # atno 8010 bound_to 7997
  139.5958  144.1116  152.1687 H   0  0  0  0  0  0  0  0  0  0  0  0  # atno 10167 bound_to 10162
  157.1919  130.6850  149.6153 H   0  0  0  0  0  0  0  0  0  0  0  0  # atno 10718 bound_to 10713
  154.3812  135.2753  155.2210 H   0  0  0  0  0  0  0  0  0  0  0  0  # atno 10763 bound_to 10752
  154.4316  135.5976  153.6076 H   0  0  0  0  0  0  0  0  0  0  0  0  # atno 10764 bound_to 10752
  152.9834  135.5997  154.4054 H   0  0  0  0  0  0  0  0  0  0  0  0  # atno 10765 bound_to 10752
  141.0039  133.6941  156.2075 H   0  0  0  0  0  0  0  0  0  0  0  0  # atno 11005 bound_to 11000
  145.3074  141.0210  143.3574 LP  0  0  0  0  0  0  0  0  0  0  0  0  # atno 17320 bound_to 7965
  144.8961  139.4710  143.6655 LP  0  0  0  0  0  0  0  0  0  0  0  0  # atno 17321 bound_to 7965
  140.0700  144.5787  150.7198 LP  0  0  0  0  0  0  0  0  0  0  0  0  # atno 17342 bound_to 10162
  140.7210  143.2589  151.4277 LP  0  0  0  0  0  0  0  0  0  0  0  0  # atno 17343 bound_to 10162
  155.9710  130.4611  150.6099 LP  0  0  0  0  0  0  0  0  0  0  0  0  # atno 17370 bound_to 10713
  157.3852  131.0787  151.1442 LP  0  0  0  0  0  0  0  0  0  0  0  0  # atno 17371 bound_to 10713
  140.6844  134.4733  157.5589 LP  0  0  0  0  0  0  0  0  0  0  0  0  # atno 17394 bound_to 11000
  139.9053  134.8463  156.1730 LP  0  0  0  0  0  0  0  0  0  0  0  0  # atno 17395 bound_to 11000

$$$$
