AV-unprocessed.smi:1121|AV-procd|sdf|4826|dock9
  -GOLD-   22720 3383D 1   1.00000     0.00000
 Structure written by MMmdl.
 46 48  0  0  0  0  0  0  0  0  1 V2000
  145.1346  137.7491  153.2876 O   0  0  0  0  0  0  0  0  0  0  0  0
  146.2330  137.3755  152.8759 C   0  0  0  0  0  0  0  0  0  0  0  0
  147.3721  138.0828  152.9543 N   0  0  0  0  0  0  0  0  0  0  0  0
  147.5758  139.3567  153.5568 C   0  0  0  0  0  0  0  0  0  0  0  0
  146.5945  140.3767  153.5198 C   0  0  0  0  0  0  0  0  0  0  0  0
  146.8823  141.6274  154.0947 C   0  0  0  0  0  0  0  0  0  0  0  0
  148.1475  141.8190  154.6769 C   0  0  0  0  0  0  0  0  0  0  0  0
  149.0979  140.8629  154.7078 N   0  0  0  0  0  0  0  0  0  0  0  0
  148.8283  139.6528  154.1597 C   0  0  0  0  0  0  0  0  0  0  0  0
  149.8372  138.6709  154.2280 N   0  0  0  0  0  0  0  0  0  0  0  0
  151.2153  139.1348  154.3529 C   0  0  0  0  0  0  0  0  0  0  0  0
  152.1831  137.9516  154.1804 C   0  0  0  0  0  0  0  0  0  0  0  0
  151.8648  136.9329  155.1245 O   0  0  0  0  0  0  0  0  0  0  0  0
  150.5419  136.4332  154.9490 C   0  0  0  0  0  0  0  0  0  0  0  0
  149.5275  137.5739  155.1375 C   0  0  0  0  0  0  0  0  0  0  0  0
  146.4450  136.1817  152.3042 N   0  0  0  0  0  0  0  0  0  0  0  0
  145.4282  135.1569  152.0867 C   0  0  0  0  0  0  0  0  0  0  0  0
  145.9407  133.7748  152.5446 C   0  0  0  0  0  0  0  0  0  0  0  0
  144.9173  132.6669  152.2472 C   0  0  0  0  0  0  0  0  0  0  0  0
  144.5311  132.6477  150.7601 C   0  0  0  0  0  0  0  0  0  0  0  0
  144.0116  134.0204  150.3053 C   0  0  0  0  0  0  0  0  0  0  0  0
  145.0367  135.1282  150.5969 C   0  0  0  0  0  0  0  0  0  0  0  0
  148.2113  137.6094  152.6524 H   0  0  0  0  0  0  0  0  0  0  0  0
  145.6369  140.2280  153.0450 H   0  0  0  0  0  0  0  0  0  0  0  0
  146.1528  142.4235  154.0815 H   0  0  0  0  0  0  0  0  0  0  0  0
  148.4056  142.7671  155.1252 H   0  0  0  0  0  0  0  0  0  0  0  0
  151.4202  139.8987  153.6018 H   0  0  0  0  0  0  0  0  0  0  0  0
  151.3639  139.5913  155.3324 H   0  0  0  0  0  0  0  0  0  0  0  0
  152.1316  137.5510  153.1666 H   0  0  0  0  0  0  0  0  0  0  0  0
  153.2101  138.2786  154.3425 H   0  0  0  0  0  0  0  0  0  0  0  0
  150.4399  135.9837  153.9599 H   0  0  0  0  0  0  0  0  0  0  0  0
  150.3600  135.6435  155.6777 H   0  0  0  0  0  0  0  0  0  0  0  0
  149.5651  137.9408  156.1640 H   0  0  0  0  0  0  0  0  0  0  0  0
  148.5167  137.2010  154.9714 H   0  0  0  0  0  0  0  0  0  0  0  0
  147.3818  135.9617  151.9994 H   0  0  0  0  0  0  0  0  0  0  0  0
  144.5385  135.4133  152.6656 H   0  0  0  0  0  0  0  0  0  0  0  0
  146.8800  133.5435  152.0403 H   0  0  0  0  0  0  0  0  0  0  0  0
  146.1603  133.7879  153.6127 H   0  0  0  0  0  0  0  0  0  0  0  0
  145.3235  131.6978  152.5383 H   0  0  0  0  0  0  0  0  0  0  0  0
  144.0246  132.8228  152.8541 H   0  0  0  0  0  0  0  0  0  0  0  0
  145.3979  132.3672  150.1603 H   0  0  0  0  0  0  0  0  0  0  0  0
  143.7721  131.8851  150.5833 H   0  0  0  0  0  0  0  0  0  0  0  0
  143.7831  133.9969  149.2394 H   0  0  0  0  0  0  0  0  0  0  0  0
  143.0753  134.2452  150.8176 H   0  0  0  0  0  0  0  0  0  0  0  0
  144.6273  136.0940  150.2983 H   0  0  0  0  0  0  0  0  0  0  0  0
  145.9246  134.9666  149.9838 H   0  0  0  0  0  0  0  0  0  0  0  0
  1  2  2  0  0  0  0
  2  3  1  0  0  0  0
  2 16  1  0  0  0  0
  3  4  1  0  0  0  0
  3 23  1  0  0  0  0
  4  9  1  0  0  0  0
  4  5  2  0  0  0  0
  5  6  1  0  0  0  0
  5 24  1  0  0  0  0
  6  7  2  0  0  0  0
  6 25  1  0  0  0  0
  7  8  1  0  0  0  0
  7 26  1  0  0  0  0
  8  9  2  0  0  0  0
  9 10  1  0  0  0  0
 10 15  1  0  0  0  0
 10 11  1  0  0  0  0
 11 12  1  0  0  0  0
 11 27  1  0  0  0  0
 11 28  1  0  0  0  0
 12 13  1  0  0  0  0
 12 29  1  0  0  0  0
 12 30  1  0  0  0  0
 13 14  1  0  0  0  0
 14 15  1  0  0  0  0
 14 31  1  0  0  0  0
 14 32  1  0  0  0  0
 15 33  1  0  0  0  0
 15 34  1  0  0  0  0
 16 17  1  0  0  0  0
 16 35  1  0  0  0  0
 17 22  1  0  0  0  0
 17 18  1  0  0  0  0
 17 36  1  0  0  0  0
 18 19  1  0  0  0  0
 18 37  1  0  0  0  0
 18 38  1  0  0  0  0
 19 20  1  0  0  0  0
 19 39  1  0  0  0  0
 19 40  1  0  0  0  0
 20 21  1  0  0  0  0
 20 41  1  0  0  0  0
 20 42  1  0  0  0  0
 21 22  1  0  0  0  0
 21 43  1  0  0  0  0
 21 44  1  0  0  0  0
 22 45  1  0  0  0  0
 22 46  1  0  0  0  0
M  END
> <s_m_source_file>
AV-unprocessed.smi

> <i_m_source_file_index>
1121

> <i_lp_mmshare_version>
43012

> <i_f3d_flags>
0

> <s_epik_input>
W0NIMl0xW0NIMl1bQ0gyXVtDSDJdW0NIMl1bQ0hdMVtOSF1DKD1PKVtOSF1jMltjSF1bY0hdW2NIXW5jMk4zW0NIMl1bQ0gyXU9bQ0gyXVtDSDJdMw==

> <s_epik_cmdline>
J2VwaWtfcHl0aG9uJywgJy1waCcsICc3LjAnLCAnLXRuJywgJzgnLCAnLW1hJywgJzIwMCcsICctbWV0YWxfYmluZGluZycsICctaW1hZScsICc8aW5maWxlLm1hZT4nLCAnLW9tYWUnLCAnPG91dGZpbGUubWFlPic=

> <r_lp_tautomer_probability>
1

> <r_epik_Ionization_Penalty>
0.00218153

> <r_epik_Ionization_Penalty_Charging>
0

> <r_epik_Ionization_Penalty_Neutral>
0.00218153

> <r_epik_State_Penalty>
0.00146907

> <r_epik_Charging_Adjusted_Penalty>
0.00146907

> <i_epik_Tot_Q>
0

> <i_epik_Tot_abs_Q>
0

> <r_epik_Metal_State_Penalty>
-0

> <b_epik_Metal_Only>
0

> <s_lp_Force_Field>
OPLS_2005

> <r_lp_Energy>
26.2081

> <b_lp_Chiralities_Consistent>
1

> <s_lp_Variant>
AV-unprocessed.smi:1121-1

> <Gold.Version>
5.8.1

> <Gold.Id.Protein>
6NUR|6NUR_protein|mol2

> <Gold.PLP.Fitness>
42.6872

> <Gold.PLP.PLP>
-32.2841

> <Gold.PLP.part.hbond>
-2.8551

> <Gold.PLP.part.metal>
0.0000

> <Gold.PLP.part.buried>
0.8887

> <Gold.PLP.part.nonpolar>
-31.3975

> <Gold.PLP.part.repulsive>
0.6886

> <Gold.PLP.ligand.clash>
0.0000

> <Gold.PLP.ligand.torsion>
0.8331

> <Gold.PLP.Chemscore.Hbond>
2.9520

> <Gold.PLP.Chemscore.CHOScore>
1.0000

> <Gold.PLP.Chemscore.Metal>
0.0000

> <Gold.Chemscore.Hbonds>
donor molecule, donor type, donor heavy atom, donor atom, acceptor molecule, acceptor atom, score
      L1  H     3    23       P1  7948  0.99
      L1  H    16    35       P1  7948  1.00
      P1  H 10752 10765       L1    13  0.85
      L1  C     7    26       P1  8028  1.00

> <Gold.PLP.Chemscore.Internal.Correction>
0.2134

> <Gold.Rescore>
     Score         DG    S(hbond)    S(metal)    S(lipo)     H(rot)  DE(clash)    DE(int)     intcor
     16.76     -20.05       2.27        0.00      85.62       1.18       1.36       1.93       ----

> <Gold.Chemscore.Fitness>
16.7622

> <Gold.Chemscore.DG>
-20.0474

> <Gold.Chemscore.ZeroCoef>
-5.4800

> <Gold.Chemscore.Hbond>
2.2701

> <Gold.Chemscore.Metal>
0.0000

> <Gold.Chemscore.Lipo>
85.6193

> <Gold.Chemscore.Internal_Hbond>
0.0000

> <Gold.Chemscore.DEClash>
1.3588

> <Gold.Chemscore.DEInternal>
1.9263

> <Gold.Chemscore.Rot>
1.1844

> <Gold.Chemscore.Internal.Correction>
   9.000000E+99

> <Gold.Chemscore.Hbonds>
donor molecule, donor type, donor heavy atom, donor atom, acceptor molecule, acceptor atom, score
      L1  H     3    23       P1  7948  0.93
      L1  H    16    35       P1  7948  0.96
      P1  H 10752 10765       L1    13  0.42

> <Gold.Chemscore.Hbond.Weighted>
-7.5820

> <Gold.Chemscore.Metal.Weighted>
-0.0000

> <Gold.Chemscore.Lipo.Weighted>
-10.0175

> <Gold.Chemscore.Internal_Hbond.Weighted>
0.0000

> <Gold.Chemscore.DEClash.Weighted>
1.3588

> <Gold.Chemscore.DEInternal.Weighted>
1.9263

> <Gold.Chemscore.Rot.Weighted>
3.0321

> <Gold.Chemscore.Internal.Correction.Weighted>
   9.000000E+99

> <Gold.Protein.RotatedTorsions>
[ 6907 6896 6895 6894 ] final  153.16 input  -60.11 | X-H torsion
[ 7974 7965 7964 7962 ] final -155.21 input  175.53 | X-H torsion
[ 8008 7997 7996 7995 ] final   -9.22 input   59.86 | X-H torsion
[ 10167 10162 10161 10158 ] final  156.26 input  -65.29 | X-H torsion
[ 10718 10713 10712 10709 ] final -159.31 input   66.30 | X-H torsion
[ 10763 10752 10751 10750 ] final -157.54 input  -60.55 | X-H torsion
[ 11005 11000 10999 10996 ] final   82.37 input  -57.11 | X-H torsion

> <Gold.Protein.ActiveResidues>
 VAL166  LYS551  ARG553  GLY616  TRP617  ASP618  TYR619  PRO620  LYS621  CYS622 
 ASP623  PHE694  ASN695  SER759  ASP760  ASP761  ALA762  ILE779  LEU786  VAL792 
 PHE793  MET794  SER795  GLU796  ALA797  LYS798  CYS799  TRP800  GLU811  SER814 

> <Gold.Protein.RotatedAtoms>
  152.0766  133.4132  159.4482 H   0  0  0  0  0  0  0  0  0  0  0  0  # atno 6907 bound_to 6896
  150.6862  134.3031  159.4724 H   0  0  0  0  0  0  0  0  0  0  0  0  # atno 6908 bound_to 6896
  152.0868  134.9434  160.0623 H   0  0  0  0  0  0  0  0  0  0  0  0  # atno 6909 bound_to 6896
  144.7651  140.4281  143.5948 H   0  0  0  0  0  0  0  0  0  0  0  0  # atno 7974 bound_to 7965
  154.5667  140.2360  155.8253 H   0  0  0  0  0  0  0  0  0  0  0  0  # atno 8008 bound_to 7997
  156.2074  140.3036  155.9615 H   0  0  0  0  0  0  0  0  0  0  0  0  # atno 8009 bound_to 7997
  155.2788  140.0421  157.3004 H   0  0  0  0  0  0  0  0  0  0  0  0  # atno 8010 bound_to 7997
  139.4821  144.5025  151.8147 H   0  0  0  0  0  0  0  0  0  0  0  0  # atno 10167 bound_to 10162
  156.5663  130.8669  151.2825 H   0  0  0  0  0  0  0  0  0  0  0  0  # atno 10718 bound_to 10713
  154.7627  135.3122  154.8346 H   0  0  0  0  0  0  0  0  0  0  0  0  # atno 10763 bound_to 10752
  153.9102  135.6806  153.4755 H   0  0  0  0  0  0  0  0  0  0  0  0  # atno 10764 bound_to 10752
  153.1230  135.4814  154.9158 H   0  0  0  0  0  0  0  0  0  0  0  0  # atno 10765 bound_to 10752
  139.9066  134.8066  156.2165 H   0  0  0  0  0  0  0  0  0  0  0  0  # atno 11005 bound_to 11000
  145.6495  139.1563  143.2870 LP  0  0  0  0  0  0  0  0  0  0  0  0  # atno 17320 bound_to 7965
  146.1751  140.6585  142.9215 LP  0  0  0  0  0  0  0  0  0  0  0  0  # atno 17321 bound_to 7965
  140.4519  144.1843  150.5898 LP  0  0  0  0  0  0  0  0  0  0  0  0  # atno 17342 bound_to 10162
  140.4575  143.2462  151.9264 LP  0  0  0  0  0  0  0  0  0  0  0  0  # atno 17343 bound_to 10162
  157.7358  130.9768  150.2100 LP  0  0  0  0  0  0  0  0  0  0  0  0  # atno 17370 bound_to 10713
  156.2754  130.3727  149.7989 LP  0  0  0  0  0  0  0  0  0  0  0  0  # atno 17371 bound_to 10713
  141.0432  133.6926  156.1636 LP  0  0  0  0  0  0  0  0  0  0  0  0  # atno 17394 bound_to 11000
  140.6923  134.4653  157.5588 LP  0  0  0  0  0  0  0  0  0  0  0  0  # atno 17395 bound_to 11000

$$$$
