AV-unprocessed.smi:954|AV-procd|sdf|4258|dock3
  -GOLD-   22720 2163D 1   1.00000     0.00000
 Structure written by MMmdl.
 24 24  0  0  0  0  0  0  0  0  1 V2000
  152.7465  143.1649  160.8428 C   0  0  0  0  0  0  0  0  0  0  0  0
  152.4356  141.7705  160.2832 C   0  0  0  0  0  0  0  0  0  0  0  0
  151.8673  141.8440  158.9420 N   0  0  0  0  0  0  0  0  0  0  0  0
  152.1576  141.0077  157.9337 C   0  0  0  0  0  0  0  0  0  0  0  0
  152.9534  140.0733  158.0439 O   0  0  0  0  0  0  0  0  0  0  0  0
  151.4289  141.2823  156.6118 C   0  0  0  0  0  0  0  0  0  0  0  0
  151.0882  140.0675  155.8889 N   0  0  0  0  0  0  0  0  0  0  0  0
  151.3233  138.7562  156.2584 C   0  0  0  0  0  0  0  0  0  0  0  0
  150.8357  137.9548  155.2653 C   0  0  0  0  0  0  0  0  0  0  0  0
  150.3176  138.8899  154.3292 C   0  0  0  0  0  0  0  0  0  0  0  0
  149.7111  138.5145  153.1335 N   0  0  0  0  0  0  0  0  0  0  0  0
  150.4613  140.1508  154.6933 N   0  0  0  0  0  0  0  0  0  0  0  0
  153.1488  143.0946  161.8535 H   0  0  0  0  0  0  0  0  0  0  0  0
  151.8492  143.7827  160.8848 H   0  0  0  0  0  0  0  0  0  0  0  0
  153.4840  143.6842  160.2299 H   0  0  0  0  0  0  0  0  0  0  0  0
  153.3351  141.1528  160.2802 H   0  0  0  0  0  0  0  0  0  0  0  0
  151.7169  141.2673  160.9303 H   0  0  0  0  0  0  0  0  0  0  0  0
  151.2041  142.5853  158.7677 H   0  0  0  0  0  0  0  0  0  0  0  0
  150.5088  141.8322  156.8127 H   0  0  0  0  0  0  0  0  0  0  0  0
  152.0514  141.9161  155.9780 H   0  0  0  0  0  0  0  0  0  0  0  0
  151.8169  138.5070  157.1861 H   0  0  0  0  0  0  0  0  0  0  0  0
  150.8506  136.8760  155.2181 H   0  0  0  0  0  0  0  0  0  0  0  0
  149.6108  137.5439  152.8737 H   0  0  0  0  0  0  0  0  0  0  0  0
  149.3797  139.2039  152.4742 H   0  0  0  0  0  0  0  0  0  0  0  0
  1  2  1  0  0  0  0
  1 13  1  0  0  0  0
  1 14  1  0  0  0  0
  1 15  1  0  0  0  0
  2  3  1  0  0  0  0
  2 16  1  0  0  0  0
  2 17  1  0  0  0  0
  3  4  1  0  0  0  0
  3 18  1  0  0  0  0
  4  5  2  0  0  0  0
  4  6  1  0  0  0  0
  6  7  1  0  0  0  0
  6 19  1  0  0  0  0
  6 20  1  0  0  0  0
  7 12  1  0  0  0  0
  7  8  1  0  0  0  0
  8  9  2  0  0  0  0
  8 21  1  0  0  0  0
  9 10  1  0  0  0  0
  9 22  1  0  0  0  0
 10 11  1  0  0  0  0
 10 12  2  0  0  0  0
 11 23  1  0  0  0  0
 11 24  1  0  0  0  0
M  END
> <s_m_source_file>
AV-unprocessed.smi

> <i_m_source_file_index>
954

> <i_lp_mmshare_version>
43012

> <i_f3d_flags>
0

> <s_epik_input>
W0NIM11bQ0gyXVtOSF1DKD1PKVtDSDJdbjFbY0hdW2NIXWMobjEpW05IMl0=

> <s_epik_cmdline>
J2VwaWtfcHl0aG9uJywgJy1waCcsICc3LjAnLCAnLXRuJywgJzgnLCAnLW1hJywgJzIwMCcsICctbWV0YWxfYmluZGluZycsICctaW1hZScsICc8aW5maWxlLm1hZT4nLCAnLW9tYWUnLCAnPG91dGZpbGUubWFlPic=

> <r_lp_tautomer_probability>
1

> <r_epik_Ionization_Penalty>
0.000257536

> <r_epik_Ionization_Penalty_Charging>
0

> <r_epik_Ionization_Penalty_Neutral>
0.000257536

> <r_epik_State_Penalty>
-0

> <r_epik_Charging_Adjusted_Penalty>
0

> <i_epik_Tot_Q>
0

> <i_epik_Tot_abs_Q>
0

> <r_epik_Metal_State_Penalty>
-0

> <b_epik_Metal_Only>
0

> <s_lp_Force_Field>
OPLS_2005

> <r_lp_Energy>
1.8316

> <b_lp_Chiralities_Consistent>
1

> <s_lp_Variant>
AV-unprocessed.smi:954-1

> <Gold.Version>
5.8.1

> <Gold.Id.Protein>
6NUR|6NUR_protein|mol2

> <Gold.PLP.Fitness>
34.0549

> <Gold.PLP.PLP>
-23.0295

> <Gold.PLP.part.hbond>
-4.0200

> <Gold.PLP.part.metal>
0.0000

> <Gold.PLP.part.buried>
-2.8537

> <Gold.PLP.part.nonpolar>
-15.2281

> <Gold.PLP.part.repulsive>
0.2736

> <Gold.PLP.ligand.clash>
0.0000

> <Gold.PLP.ligand.torsion>
0.4874

> <Gold.PLP.Chemscore.Hbond>
4.0000

> <Gold.PLP.Chemscore.CHOScore>
0.0000

> <Gold.PLP.Chemscore.Metal>
0.0000

> <Gold.Chemscore.Hbonds>
donor molecule, donor type, donor heavy atom, donor atom, acceptor molecule, acceptor atom, score
      L1  H    11    23       P1  7948  1.00
      L1  H    11    24       P1  7957  0.98
      P1  H  7989  7998       L1    12  1.00
      P1  H  7997  8010       L1     5  0.99

> <Gold.PLP.Chemscore.Internal.Correction>
0.0002

> <Gold.Rescore>
     Score         DG    S(hbond)    S(metal)    S(lipo)     H(rot)  DE(clash)    DE(int)     intcor
     14.75     -16.58       3.36        0.00      37.51       1.77       0.01       1.81       ----

> <Gold.Chemscore.Fitness>
14.7503

> <Gold.Chemscore.DG>
-16.5768

> <Gold.Chemscore.ZeroCoef>
-5.4800

> <Gold.Chemscore.Hbond>
3.3624

> <Gold.Chemscore.Metal>
0.0000

> <Gold.Chemscore.Lipo>
37.5067

> <Gold.Chemscore.Internal_Hbond>
0.0000

> <Gold.Chemscore.DEClash>
0.0115

> <Gold.Chemscore.DEInternal>
1.8150

> <Gold.Chemscore.Rot>
1.7664

> <Gold.Chemscore.Internal.Correction>
   9.000000E+99

> <Gold.Chemscore.Hbonds>
donor molecule, donor type, donor heavy atom, donor atom, acceptor molecule, acceptor atom, score
      L1  H    11    23       P1  7948  0.63
      L1  H    11    24       P1  7957  0.89
      P1  H  7989  7998       L1    12  0.36
      P1  H  7997  8010       L1     5  0.91

> <Gold.Chemscore.Hbond.Weighted>
-11.2304

> <Gold.Chemscore.Metal.Weighted>
-0.0000

> <Gold.Chemscore.Lipo.Weighted>
-4.3883

> <Gold.Chemscore.Internal_Hbond.Weighted>
0.0000

> <Gold.Chemscore.DEClash.Weighted>
0.0115

> <Gold.Chemscore.DEInternal.Weighted>
1.8150

> <Gold.Chemscore.Rot.Weighted>
4.5219

> <Gold.Chemscore.Internal.Correction.Weighted>
   9.000000E+99

> <Gold.Protein.RotatedTorsions>
[ 6907 6896 6895 6894 ] final  136.32 input  -60.11 | X-H torsion
[ 7974 7965 7964 7962 ] final -179.35 input  175.53 | X-H torsion
[ 8008 7997 7996 7995 ] final   31.89 input   59.86 | X-H torsion
[ 10167 10162 10161 10158 ] final -174.88 input  -65.29 | X-H torsion
[ 10718 10713 10712 10709 ] final  -36.35 input   66.30 | X-H torsion
[ 10763 10752 10751 10750 ] final  -87.57 input  -60.55 | X-H torsion
[ 11005 11000 10999 10996 ] final -148.68 input  -57.11 | X-H torsion

> <Gold.Protein.ActiveResidues>
 VAL166  LYS551  ARG553  GLY616  TRP617  ASP618  TYR619  PRO620  LYS621  CYS622 
 ASP623  PHE694  ASN695  SER759  ASP760  ASP761  ALA762  ILE779  LEU786  VAL792 
 PHE793  MET794  SER795  GLU796  ALA797  LYS798  CYS799  TRP800  GLU811  SER814 

> <Gold.Protein.RotatedAtoms>
  152.2906  133.5558  159.5554 H   0  0  0  0  0  0  0  0  0  0  0  0  # atno 6907 bound_to 6896
  150.7234  134.0434  159.3782 H   0  0  0  0  0  0  0  0  0  0  0  0  # atno 6908 bound_to 6896
  151.8340  135.0612  160.0491 H   0  0  0  0  0  0  0  0  0  0  0  0  # atno 6909 bound_to 6896
  144.7136  140.0731  143.6428 H   0  0  0  0  0  0  0  0  0  0  0  0  # atno 7974 bound_to 7965
  155.1137  140.3241  155.4515 H   0  0  0  0  0  0  0  0  0  0  0  0  # atno 8008 bound_to 7997
  156.2683  140.2039  156.6209 H   0  0  0  0  0  0  0  0  0  0  0  0  # atno 8009 bound_to 7997
  154.6736  140.0534  157.0179 H   0  0  0  0  0  0  0  0  0  0  0  0  # atno 8010 bound_to 7997
  139.5610  144.1870  152.1238 H   0  0  0  0  0  0  0  0  0  0  0  0  # atno 10167 bound_to 10162
  156.3279  130.4275  149.7899 H   0  0  0  0  0  0  0  0  0  0  0  0  # atno 10718 bound_to 10713
  154.6351  135.5408  153.7724 H   0  0  0  0  0  0  0  0  0  0  0  0  # atno 10763 bound_to 10752
  153.0304  135.6445  154.1244 H   0  0  0  0  0  0  0  0  0  0  0  0  # atno 10764 bound_to 10752
  154.1172  135.2923  155.3197 H   0  0  0  0  0  0  0  0  0  0  0  0  # atno 10765 bound_to 10752
  140.7587  134.3324  157.5107 H   0  0  0  0  0  0  0  0  0  0  0  0  # atno 11005 bound_to 11000
  145.9766  139.2909  143.1067 LP  0  0  0  0  0  0  0  0  0  0  0  0  # atno 17320 bound_to 7965
  145.9057  140.9213  143.0480 LP  0  0  0  0  0  0  0  0  0  0  0  0  # atno 17321 bound_to 7965
  140.1384  144.5225  150.6759 LP  0  0  0  0  0  0  0  0  0  0  0  0  # atno 17342 bound_to 10162
  140.6890  143.2365  151.5184 LP  0  0  0  0  0  0  0  0  0  0  0  0  # atno 17343 bound_to 10162
  156.5183  130.8203  151.3194 LP  0  0  0  0  0  0  0  0  0  0  0  0  # atno 17370 bound_to 10713
  157.7425  130.9891  150.2519 LP  0  0  0  0  0  0  0  0  0  0  0  0  # atno 17371 bound_to 10713
  139.8774  134.9188  156.3211 LP  0  0  0  0  0  0  0  0  0  0  0  0  # atno 17394 bound_to 11000
  140.9684  133.7343  156.0499 LP  0  0  0  0  0  0  0  0  0  0  0  0  # atno 17395 bound_to 11000

$$$$
