AV-unprocessed.smi:3108|AV-procd|sdf|11826|dock5
  -GOLD-   2272017203D 1   1.00000     0.00000
 Structure written by MMmdl.
 37 38  0  0  0  0  0  0  0  0  2 V2000
  151.2942  136.5405  155.9583 C   0  0  0  0  0  0  0  0  0  0  0  0
  150.9835  137.9375  155.5040 C   0  0  0  0  0  0  0  0  0  0  0  0
  150.8171  138.4078  154.1701 C   0  0  0  0  0  0  0  0  0  0  0  0
  150.5474  139.7020  154.1112 N   0  0  0  0  0  0  0  0  0  0  0  0
  150.5295  140.1015  155.4002 N   0  0  0  0  0  0  0  0  0  0  0  0
  150.2602  141.4900  155.7192 C   0  0  0  0  0  0  0  0  0  0  0  0
  150.4398  141.7745  157.2174 C   0  0  0  0  0  0  0  0  0  0  0  0
  150.4210  143.2246  157.4882 N   0  3  0  0  0  0  0  0  0  0  0  0
  151.7465  143.8682  157.3991 C   0  0  0  0  0  0  0  0  0  0  0  0
  152.4404  143.9104  158.7703 C   0  0  0  0  0  0  0  0  0  0  0  0
  152.7219  142.5310  159.3764 C   0  0  0  0  0  0  0  0  0  0  0  0
  152.8890  142.7761  160.8810 C   0  0  0  0  0  0  0  0  0  0  0  0
  152.2113  144.1224  161.1778 C   0  0  0  0  0  0  0  0  0  0  0  0
  151.6043  144.5953  159.8535 C   0  0  0  0  0  0  0  0  0  0  0  0
  150.7926  139.0581  156.2620 C   0  0  0  0  0  0  0  0  0  0  0  0
  151.5909  135.9003  155.1271 H   0  0  0  0  0  0  0  0  0  0  0  0
  150.4321  136.0718  156.4331 H   0  0  0  0  0  0  0  0  0  0  0  0
  152.1094  136.5242  156.6820 H   0  0  0  0  0  0  0  0  0  0  0  0
  150.8843  137.8494  153.2480 H   0  0  0  0  0  0  0  0  0  0  0  0
  150.9314  142.1168  155.1303 H   0  0  0  0  0  0  0  0  0  0  0  0
  149.2436  141.7276  155.4018 H   0  0  0  0  0  0  0  0  0  0  0  0
  149.6450  141.2938  157.7900 H   0  0  0  0  0  0  0  0  0  0  0  0
  151.3861  141.3576  157.5648 H   0  0  0  0  0  0  0  0  0  0  0  0
  149.8047  143.6675  156.8217 H   0  0  0  0  0  0  0  0  0  0  0  0
  152.3603  143.3057  156.6944 H   0  0  0  0  0  0  0  0  0  0  0  0
  151.6395  144.8761  156.9952 H   0  0  0  0  0  0  0  0  0  0  0  0
  153.3839  144.4521  158.6814 H   0  0  0  0  0  0  0  0  0  0  0  0
  151.8685  141.8714  159.2120 H   0  0  0  0  0  0  0  0  0  0  0  0
  153.5966  142.0508  158.9364 H   0  0  0  0  0  0  0  0  0  0  0  0
  152.4502  141.9644  161.4626 H   0  0  0  0  0  0  0  0  0  0  0  0
  153.9466  142.8283  161.1426 H   0  0  0  0  0  0  0  0  0  0  0  0
  151.4545  144.0388  161.9585 H   0  0  0  0  0  0  0  0  0  0  0  0
  152.9568  144.8400  161.5229 H   0  0  0  0  0  0  0  0  0  0  0  0
  151.6060  145.6819  159.7600 H   0  0  0  0  0  0  0  0  0  0  0  0
  150.5675  144.2610  159.7905 H   0  0  0  0  0  0  0  0  0  0  0  0
  150.8213  139.1958  157.3330 H   0  0  0  0  0  0  0  0  0  0  0  0
  150.0541  143.3741  158.4173 H   0  0  0  0  0  0  0  0  0  0  0  0
  1  2  1  0  0  0  0
  1 16  1  0  0  0  0
  1 17  1  0  0  0  0
  1 18  1  0  0  0  0
  2 15  2  0  0  0  0
  2  3  1  0  0  0  0
  3  4  2  0  0  0  0
  3 19  1  0  0  0  0
  4  5  1  0  0  0  0
  5  6  1  0  0  0  0
  5 15  1  0  0  0  0
  6  7  1  0  0  0  0
  6 20  1  0  0  0  0
  6 21  1  0  0  0  0
  7  8  1  0  0  0  0
  7 22  1  0  0  0  0
  7 23  1  0  0  0  0
  8  9  1  0  0  0  0
  8 24  1  0  0  0  0
  8 37  1  0  0  0  0
  9 10  1  0  0  0  0
  9 25  1  0  0  0  0
  9 26  1  0  0  0  0
 10 14  1  0  0  0  0
 10 11  1  0  0  0  0
 10 27  1  0  0  0  0
 11 12  1  0  0  0  0
 11 28  1  0  0  0  0
 11 29  1  0  0  0  0
 12 13  1  0  0  0  0
 12 30  1  0  0  0  0
 12 31  1  0  0  0  0
 13 14  1  0  0  0  0
 13 32  1  0  0  0  0
 13 33  1  0  0  0  0
 14 34  1  0  0  0  0
 14 35  1  0  0  0  0
 15 36  1  0  0  0  0
M  CHG  1   8   1
M  END
> <s_m_source_file>
AV-unprocessed.smi

> <i_m_source_file_index>
3108

> <i_lp_mmshare_version>
43012

> <i_f3d_flags>
0

> <s_epik_input>
W0NIM11jMVtjSF1ubihbY0hdMSlbQ0gyXVtDSDJdW05IXVtDSDJdW0NIXTJbQ0gyXVtDSDJdW0NIMl1bQ0gyXTI=

> <s_epik_cmdline>
J2VwaWtfcHl0aG9uJywgJy1waCcsICc3LjAnLCAnLXRuJywgJzgnLCAnLW1hJywgJzIwMCcsICctbWV0YWxfYmluZGluZycsICctaW1hZScsICc8aW5maWxlLm1hZT4nLCAnLW9tYWUnLCAnPG91dGZpbGUubWFlPic=

> <r_lp_tautomer_probability>
1

> <r_epik_Ionization_Penalty>
0.00170215

> <r_epik_Ionization_Penalty_Charging>
0.00169627

> <r_epik_Ionization_Penalty_Neutral>
5.87243e-06

> <r_epik_State_Penalty>
-0

> <r_epik_Charging_Adjusted_Penalty>
0.00169627

> <i_epik_Tot_Q>
1

> <i_epik_Tot_abs_Q>
1

> <r_epik_Metal_State_Penalty>
-0

> <b_epik_Metal_Only>
0

> <s_lp_Force_Field>
OPLS_2005

> <r_lp_Energy>
23.864

> <b_lp_Chiralities_Consistent>
1

> <s_lp_Variant>
AV-unprocessed.smi:3108-1

> <Gold.Version>
5.8.1

> <Gold.Id.Protein>
6NUR|6NUR_protein|mol2

> <Gold.PLP.Fitness>
50.2484

> <Gold.PLP.PLP>
-39.1910

> <Gold.PLP.part.hbond>
-2.0000

> <Gold.PLP.part.metal>
0.0000

> <Gold.PLP.part.buried>
-4.4256

> <Gold.PLP.part.nonpolar>
-32.8855

> <Gold.PLP.part.repulsive>
0.3549

> <Gold.PLP.ligand.clash>
0.0000

> <Gold.PLP.ligand.torsion>
0.4616

> <Gold.PLP.Chemscore.Hbond>
3.0000

> <Gold.PLP.Chemscore.CHOScore>
0.9845

> <Gold.PLP.Chemscore.Metal>
0.0000

> <Gold.Chemscore.Hbonds>
donor molecule, donor type, donor heavy atom, donor atom, acceptor molecule, acceptor atom, score
      L1  H     8    24       P1  8028  2.00
      P1  H  7989  7998       L1     4  1.00
      L1  C     3    19       P1  7948  0.11
      L1  C     3    19       P1  7949  0.85

> <Gold.PLP.Chemscore.Internal.Correction>
0.0271

> <Gold.Rescore>
     Score         DG    S(hbond)    S(metal)    S(lipo)     H(rot)  DE(clash)    DE(int)     intcor
     20.10     -20.54       1.86        0.00     108.93       1.52       0.01       0.43       ----

> <Gold.Chemscore.Fitness>
20.1020

> <Gold.Chemscore.DG>
-20.5390

> <Gold.Chemscore.ZeroCoef>
-5.4800

> <Gold.Chemscore.Hbond>
1.8595

> <Gold.Chemscore.Metal>
0.0000

> <Gold.Chemscore.Lipo>
108.9324

> <Gold.Chemscore.Internal_Hbond>
0.0000

> <Gold.Chemscore.DEClash>
0.0110

> <Gold.Chemscore.DEInternal>
0.4260

> <Gold.Chemscore.Rot>
1.5222

> <Gold.Chemscore.Internal.Correction>
   9.000000E+99

> <Gold.Chemscore.Hbonds>
donor molecule, donor type, donor heavy atom, donor atom, acceptor molecule, acceptor atom, score
      L1  H     8    24       P1  8028  0.99
      P1  H  7989  7998       L1     4  0.25

> <Gold.Chemscore.Hbond.Weighted>
-6.2108

> <Gold.Chemscore.Metal.Weighted>
-0.0000

> <Gold.Chemscore.Lipo.Weighted>
-12.7451

> <Gold.Chemscore.Internal_Hbond.Weighted>
0.0000

> <Gold.Chemscore.DEClash.Weighted>
0.0110

> <Gold.Chemscore.DEInternal.Weighted>
0.4260

> <Gold.Chemscore.Rot.Weighted>
3.8969

> <Gold.Chemscore.Internal.Correction.Weighted>
   9.000000E+99

> <Gold.Protein.RotatedTorsions>
[ 6907 6896 6895 6894 ] final  -16.97 input  -60.11 | X-H torsion
[ 7974 7965 7964 7962 ] final  141.94 input  175.53 | X-H torsion
[ 8008 7997 7996 7995 ] final -177.05 input   59.86 | X-H torsion
[ 10167 10162 10161 10158 ] final   99.12 input  -65.29 | X-H torsion
[ 10718 10713 10712 10709 ] final -178.20 input   66.30 | X-H torsion
[ 10763 10752 10751 10750 ] final   81.04 input  -60.55 | X-H torsion
[ 11005 11000 10999 10996 ] final   17.15 input  -57.11 | X-H torsion

> <Gold.Protein.ActiveResidues>
 VAL166  LYS551  ARG553  GLY616  TRP617  ASP618  TYR619  PRO620  LYS621  CYS622 
 ASP623  PHE694  ASN695  SER759  ASP760  ASP761  ALA762  ILE779  LEU786  VAL792 
 PHE793  MET794  SER795  GLU796  ALA797  LYS798  CYS799  TRP800  GLU811  SER814 

> <Gold.Protein.RotatedAtoms>
  151.3004  135.0767  159.9236 H   0  0  0  0  0  0  0  0  0  0  0  0  # atno 6907 bound_to 6896
  152.5299  133.9839  159.7830 H   0  0  0  0  0  0  0  0  0  0  0  0  # atno 6908 bound_to 6896
  151.0125  133.5901  159.2711 H   0  0  0  0  0  0  0  0  0  0  0  0  # atno 6909 bound_to 6896
  144.9052  139.5368  143.5735 H   0  0  0  0  0  0  0  0  0  0  0  0  # atno 7974 bound_to 7965
  156.0023  140.1223  157.0535 H   0  0  0  0  0  0  0  0  0  0  0  0  # atno 8008 bound_to 7997
  154.4247  140.1104  156.5783 H   0  0  0  0  0  0  0  0  0  0  0  0  # atno 8009 bound_to 7997
  155.6195  140.3472  155.4649 H   0  0  0  0  0  0  0  0  0  0  0  0  # atno 8010 bound_to 7997
  139.7646  144.6943  151.0243 H   0  0  0  0  0  0  0  0  0  0  0  0  # atno 10167 bound_to 10162
  156.8408  130.9685  151.3100 H   0  0  0  0  0  0  0  0  0  0  0  0  # atno 10718 bound_to 10713
  153.1083  135.4780  154.8991 H   0  0  0  0  0  0  0  0  0  0  0  0  # atno 10763 bound_to 10752
  154.7454  135.3092  154.8657 H   0  0  0  0  0  0  0  0  0  0  0  0  # atno 10764 bound_to 10752
  153.9253  135.6850  153.4800 H   0  0  0  0  0  0  0  0  0  0  0  0  # atno 10765 bound_to 10752
  140.4391  134.1340  155.7688 H   0  0  0  0  0  0  0  0  0  0  0  0  # atno 11005 bound_to 11000
  146.3129  139.7813  142.9005 LP  0  0  0  0  0  0  0  0  0  0  0  0  # atno 17320 bound_to 7965
  145.3549  141.0314  143.3318 LP  0  0  0  0  0  0  0  0  0  0  0  0  # atno 17321 bound_to 7965
  140.7810  143.4658  151.0215 LP  0  0  0  0  0  0  0  0  0  0  0  0  # atno 17342 bound_to 10162
  139.8343  143.7649  152.3180 LP  0  0  0  0  0  0  0  0  0  0  0  0  # atno 17343 bound_to 10162
  157.6356  130.8764  149.9354 LP  0  0  0  0  0  0  0  0  0  0  0  0  # atno 17370 bound_to 10713
  156.0882  130.3666  150.0447 LP  0  0  0  0  0  0  0  0  0  0  0  0  # atno 17371 bound_to 10713
  141.1713  133.8603  157.1561 LP  0  0  0  0  0  0  0  0  0  0  0  0  # atno 17394 bound_to 11000
  140.0082  134.9999  157.0338 LP  0  0  0  0  0  0  0  0  0  0  0  0  # atno 17395 bound_to 11000

$$$$
