AV-unprocessed.smi:1133|AV-procd|sdf|4855|dock2
  -GOLD-   22720 3423D 1   1.00000     0.00000
 Structure written by MMmdl.
 42 43  0  0  0  0  0  0  0  0  2 V2000
  151.1046  141.1279  155.4637 C   0  0  0  0  0  0  0  0  0  0  0  0
  151.6421  139.7476  155.8479 C   0  0  0  0  0  0  0  0  0  0  0  0
  152.8477  139.5384  155.7123 O   0  0  0  0  0  0  0  0  0  0  0  0
  150.7860  138.8123  156.3252 N   0  0  0  0  0  0  0  0  0  0  0  0
  149.3374  139.0304  156.4074 C   0  0  0  0  0  0  0  0  0  0  0  0
  148.6453  138.1662  155.3378 C   0  0  0  0  0  0  0  0  0  0  0  0
  149.0173  136.6755  155.4911 C   0  0  0  0  0  0  0  0  0  0  0  0
  148.5008  135.9209  154.3533 N   0  0  0  0  0  0  0  0  0  0  0  0
  147.4681  135.0679  154.3995 C   0  0  0  0  0  0  0  0  0  0  0  0
  146.8137  134.8281  155.4149 O   0  0  0  0  0  0  0  0  0  0  0  0
  147.2375  134.4968  153.2090 N   0  0  0  0  0  0  0  0  0  0  0  0
  146.1884  133.5188  152.9482 C   0  0  0  0  0  0  0  0  0  0  0  0
  146.3888  132.8196  151.5929 C   0  0  0  0  0  0  0  0  0  0  0  0
  145.2394  133.0129  150.7083 N   0  0  0  0  0  0  0  0  0  0  0  0
  145.0607  132.4994  149.4497 C   0  0  0  0  0  0  0  0  0  0  0  0
  143.8408  132.9498  149.0146 C   0  0  0  0  0  0  0  0  0  0  0  0
  143.3285  133.7199  150.0247 N   0  3  0  0  0  0  0  0  0  0  0  0
  144.1810  133.7571  151.0539 C   0  0  0  0  0  0  0  0  0  0  0  0
  150.5469  136.4845  155.6182 C   0  0  0  0  0  0  0  0  0  0  0  0
  151.1434  137.4319  156.6738 C   0  0  0  0  0  0  0  0  0  0  0  0
  150.6185  141.6052  156.3152 H   0  0  0  0  0  0  0  0  0  0  0  0
  150.3901  141.0499  154.6440 H   0  0  0  0  0  0  0  0  0  0  0  0
  151.9160  141.7789  155.1367 H   0  0  0  0  0  0  0  0  0  0  0  0
  148.9843  138.7525  157.4015 H   0  0  0  0  0  0  0  0  0  0  0  0
  149.0593  140.0769  156.2761 H   0  0  0  0  0  0  0  0  0  0  0  0
  147.5637  138.2909  155.4024 H   0  0  0  0  0  0  0  0  0  0  0  0
  148.9395  138.5222  154.3492 H   0  0  0  0  0  0  0  0  0  0  0  0
  148.5472  136.3113  156.4067 H   0  0  0  0  0  0  0  0  0  0  0  0
  148.9735  136.0503  153.4703 H   0  0  0  0  0  0  0  0  0  0  0  0
  147.8266  134.7568  152.4312 H   0  0  0  0  0  0  0  0  0  0  0  0
  146.1577  132.7879  153.7582 H   0  0  0  0  0  0  0  0  0  0  0  0
  145.2290  134.0369  152.9612 H   0  0  0  0  0  0  0  0  0  0  0  0
  147.2734  133.2064  151.0856 H   0  0  0  0  0  0  0  0  0  0  0  0
  146.5358  131.7458  151.7198 H   0  0  0  0  0  0  0  0  0  0  0  0
  145.7948  131.8682  148.9699 H   0  0  0  0  0  0  0  0  0  0  0  0
  143.3131  132.7846  148.0864 H   0  0  0  0  0  0  0  0  0  0  0  0
  144.0428  134.2849  151.9811 H   0  0  0  0  0  0  0  0  0  0  0  0
  150.7779  135.4507  155.8776 H   0  0  0  0  0  0  0  0  0  0  0  0
  151.0253  136.6758  154.6562 H   0  0  0  0  0  0  0  0  0  0  0  0
  152.2165  137.2663  156.7578 H   0  0  0  0  0  0  0  0  0  0  0  0
  150.7367  137.1942  157.6578 H   0  0  0  0  0  0  0  0  0  0  0  0
  142.4343  134.1937  149.9991 H   0  0  0  0  0  0  0  0  0  0  0  0
  1  2  1  0  0  0  0
  1 21  1  0  0  0  0
  1 22  1  0  0  0  0
  1 23  1  0  0  0  0
  2  3  2  0  0  0  0
  2  4  1  0  0  0  0
  4 20  1  0  0  0  0
  4  5  1  0  0  0  0
  5  6  1  0  0  0  0
  5 24  1  0  0  0  0
  5 25  1  0  0  0  0
  6  7  1  0  0  0  0
  6 26  1  0  0  0  0
  6 27  1  0  0  0  0
  7  8  1  0  0  0  0
  7 19  1  0  0  0  0
  7 28  1  0  0  0  0
  8  9  1  0  0  0  0
  8 29  1  0  0  0  0
  9 10  2  0  0  0  0
  9 11  1  0  0  0  0
 11 12  1  0  0  0  0
 11 30  1  0  0  0  0
 12 13  1  0  0  0  0
 12 31  1  0  0  0  0
 12 32  1  0  0  0  0
 13 14  1  0  0  0  0
 13 33  1  0  0  0  0
 13 34  1  0  0  0  0
 14 18  1  0  0  0  0
 14 15  1  0  0  0  0
 15 16  2  0  0  0  0
 15 35  1  0  0  0  0
 16 17  1  0  0  0  0
 16 36  1  0  0  0  0
 17 18  2  0  0  0  0
 17 42  1  0  0  0  0
 18 37  1  0  0  0  0
 19 20  1  0  0  0  0
 19 38  1  0  0  0  0
 19 39  1  0  0  0  0
 20 40  1  0  0  0  0
 20 41  1  0  0  0  0
M  CHG  1  17   1
M  END
> <s_m_source_file>
AV-unprocessed.smi

> <i_m_source_file_index>
1133

> <i_lp_mmshare_version>
43012

> <i_f3d_flags>
0

> <s_epik_input>
W0NIM11DKD1PKU4xW0NIMl1bQ0gyXVtDSF0oW0NIMl1bQ0gyXTEpW05IXUMoPU8pW05IXVtDSDJdW0NIMl1uMltjSF1bY0hdbltjSF0y

> <s_epik_cmdline>
J2VwaWtfcHl0aG9uJywgJy1waCcsICc3LjAnLCAnLXRuJywgJzgnLCAnLW1hJywgJzIwMCcsICctbWV0YWxfYmluZGluZycsICctaW1hZScsICc8aW5maWxlLm1hZT4nLCAnLW9tYWUnLCAnPG91dGZpbGUubWFlPic=

> <r_lp_tautomer_probability>
1

> <r_epik_Ionization_Penalty>
0.255167

> <r_epik_Ionization_Penalty_Charging>
0

> <r_epik_Ionization_Penalty_Neutral>
0.255167

> <r_epik_State_Penalty>
0.246616

> <r_epik_Charging_Adjusted_Penalty>
0.246616

> <i_epik_Tot_Q>
1

> <i_epik_Tot_abs_Q>
1

> <r_epik_Metal_State_Penalty>
0.536415

> <b_epik_Metal_Only>
0

> <s_lp_Force_Field>
OPLS_2005

> <r_lp_Energy>
22.8295

> <b_lp_Chiralities_Consistent>
1

> <s_lp_Variant>
AV-unprocessed.smi:1133-1

> <Gold.Version>
5.8.1

> <Gold.Id.Protein>
6NUR|6NUR_protein|mol2

> <Gold.PLP.Fitness>
43.7569

> <Gold.PLP.PLP>
-30.2632

> <Gold.PLP.part.hbond>
-4.0000

> <Gold.PLP.part.metal>
0.0000

> <Gold.PLP.part.buried>
-3.8835

> <Gold.PLP.part.nonpolar>
-21.9870

> <Gold.PLP.part.repulsive>
0.0671

> <Gold.PLP.ligand.clash>
0.0000

> <Gold.PLP.ligand.torsion>
0.5611

> <Gold.PLP.Chemscore.Hbond>
4.8480

> <Gold.PLP.Chemscore.CHOScore>
0.0000

> <Gold.PLP.Chemscore.Metal>
0.0000

> <Gold.Chemscore.Hbonds>
donor molecule, donor type, donor heavy atom, donor atom, acceptor molecule, acceptor atom, score
      L1  H     8    29       P1  7948  1.00
      L1  H    11    30       P1  7948  0.83
      L1  H    17    42       P1 10186  1.89
      P1  H  7997  8010       L1     3  1.00

> <Gold.PLP.Chemscore.Internal.Correction>
0.0719

> <Gold.Rescore>
     Score         DG    S(hbond)    S(metal)    S(lipo)     H(rot)  DE(clash)    DE(int)     intcor
     18.29     -19.00       3.74        0.00      54.42       2.08       0.00       0.71       ----

> <Gold.Chemscore.Fitness>
18.2940

> <Gold.Chemscore.DG>
-19.0020

> <Gold.Chemscore.ZeroCoef>
-5.4800

> <Gold.Chemscore.Hbond>
3.7358

> <Gold.Chemscore.Metal>
0.0000

> <Gold.Chemscore.Lipo>
54.4238

> <Gold.Chemscore.Internal_Hbond>
0.0000

> <Gold.Chemscore.DEClash>
0.0000

> <Gold.Chemscore.DEInternal>
0.7080

> <Gold.Chemscore.Rot>
2.0794

> <Gold.Chemscore.Internal.Correction>
   9.000000E+99

> <Gold.Chemscore.Hbonds>
donor molecule, donor type, donor heavy atom, donor atom, acceptor molecule, acceptor atom, score
      L1  H     8    29       P1  7948  0.93
      L1  H    11    30       P1  7948  0.64
      L1  H    17    42       P1 10186  0.86
      P1  H  7997  8010       L1     3  1.00

> <Gold.Chemscore.Hbond.Weighted>
-12.4776

> <Gold.Chemscore.Metal.Weighted>
-0.0000

> <Gold.Chemscore.Lipo.Weighted>
-6.3676

> <Gold.Chemscore.Internal_Hbond.Weighted>
0.0000

> <Gold.Chemscore.DEClash.Weighted>
0.0000

> <Gold.Chemscore.DEInternal.Weighted>
0.7080

> <Gold.Chemscore.Rot.Weighted>
5.3232

> <Gold.Chemscore.Internal.Correction.Weighted>
   9.000000E+99

> <Gold.Protein.RotatedTorsions>
[ 6907 6896 6895 6894 ] final  -41.87 input  -60.11 | X-H torsion
[ 7974 7965 7964 7962 ] final -144.99 input  175.53 | X-H torsion
[ 8008 7997 7996 7995 ] final   83.89 input   59.86 | X-H torsion
[ 10167 10162 10161 10158 ] final  -69.29 input  -65.29 | X-H torsion
[ 10718 10713 10712 10709 ] final   83.44 input   66.30 | X-H torsion
[ 10763 10752 10751 10750 ] final  -97.79 input  -60.55 | X-H torsion
[ 11005 11000 10999 10996 ] final -149.66 input  -57.11 | X-H torsion

> <Gold.Protein.ActiveResidues>
 VAL166  LYS551  ARG553  GLY616  TRP617  ASP618  TYR619  PRO620  LYS621  CYS622 
 ASP623  PHE694  ASN695  SER759  ASP760  ASP761  ALA762  ILE779  LEU786  VAL792 
 PHE793  MET794  SER795  GLU796  ALA797  LYS798  CYS799  TRP800  GLU811  SER814 

> <Gold.Protein.RotatedAtoms>
  150.9617  134.9004  159.7734 H   0  0  0  0  0  0  0  0  0  0  0  0  # atno 6907 bound_to 6896
  152.5159  134.3663  159.9312 H   0  0  0  0  0  0  0  0  0  0  0  0  # atno 6908 bound_to 6896
  151.3675  133.3826  159.2731 H   0  0  0  0  0  0  0  0  0  0  0  0  # atno 6909 bound_to 6896
  144.8259  140.5640  143.5547 H   0  0  0  0  0  0  0  0  0  0  0  0  # atno 7974 bound_to 7965
  155.9299  140.3415  155.6240 H   0  0  0  0  0  0  0  0  0  0  0  0  # atno 8008 bound_to 7997
  155.7171  140.0779  157.2365 H   0  0  0  0  0  0  0  0  0  0  0  0  # atno 8009 bound_to 7997
  154.4083  140.1612  156.2348 H   0  0  0  0  0  0  0  0  0  0  0  0  # atno 8010 bound_to 7997
  140.5442  143.2313  151.7033 H   0  0  0  0  0  0  0  0  0  0  0  0  # atno 10167 bound_to 10162
  157.6879  131.0091  150.2523 H   0  0  0  0  0  0  0  0  0  0  0  0  # atno 10718 bound_to 10713
  154.7358  135.5033  153.9039 H   0  0  0  0  0  0  0  0  0  0  0  0  # atno 10763 bound_to 10752
  153.0994  135.6681  153.9710 H   0  0  0  0  0  0  0  0  0  0  0  0  # atno 10764 bound_to 10752
  153.9500  135.3058  155.3418 H   0  0  0  0  0  0  0  0  0  0  0  0  # atno 10765 bound_to 10752
  140.7484  134.3435  157.5131 H   0  0  0  0  0  0  0  0  0  0  0  0  # atno 11005 bound_to 11000
  145.5002  139.1484  143.3661 LP  0  0  0  0  0  0  0  0  0  0  0  0  # atno 17320 bound_to 7965
  146.2564  140.5142  142.8872 LP  0  0  0  0  0  0  0  0  0  0  0  0  # atno 17321 bound_to 7965
  139.5000  144.3921  152.0269 LP  0  0  0  0  0  0  0  0  0  0  0  0  # atno 17342 bound_to 10162
  140.3033  144.3622  150.6054 LP  0  0  0  0  0  0  0  0  0  0  0  0  # atno 17343 bound_to 10162
  156.3117  130.3773  149.7655 LP  0  0  0  0  0  0  0  0  0  0  0  0  # atno 17370 bound_to 10713
  156.5253  130.8233  151.3218 LP  0  0  0  0  0  0  0  0  0  0  0  0  # atno 17371 bound_to 10713
  139.8792  134.9126  156.3064 LP  0  0  0  0  0  0  0  0  0  0  0  0  # atno 17394 bound_to 11000
  140.9773  133.7289  156.0621 LP  0  0  0  0  0  0  0  0  0  0  0  0  # atno 17395 bound_to 11000

$$$$
