AV-unprocessed.smi:652|AV-procd|sdf|3202|dock3
  -GOLD-   22720 0133D 1   1.00000     0.00000
 Structure written by MMmdl.
 48 49  0  0  0  0  0  0  0  0  2 V2000
  143.9825  143.7108  162.2093 C   0  0  0  0  0  0  0  0  0  0  0  0
  145.1786  143.1325  161.4418 C   0  0  0  0  0  0  0  0  0  0  0  0
  146.4599  143.9421  161.6983 C   0  0  0  0  0  0  0  0  0  0  0  0
  144.8702  143.1006  160.0150 N   0  0  0  0  0  0  0  0  0  0  0  0
  145.6979  142.6696  159.0501 C   0  0  0  0  0  0  0  0  0  0  0  0
  146.8252  142.2272  159.2721 O   0  0  0  0  0  0  0  0  0  0  0  0
  145.1664  142.7381  157.6144 C   0  0  0  0  0  0  0  0  0  0  0  0
  145.3176  141.4083  156.8433 C   0  0  0  0  0  0  0  0  0  0  0  0
  146.3433  141.3760  155.7990 N   0  0  0  0  0  0  0  0  0  0  0  0
  146.2410  142.5038  154.8771 C   0  0  0  0  0  0  0  0  0  0  0  0
  147.3340  142.4570  153.7961 C   0  0  0  0  0  0  0  0  0  0  0  0
  148.6164  142.4002  154.4133 O   0  0  0  0  0  0  0  0  0  0  0  0
  148.7705  141.2779  155.2779 C   0  0  1  0  0  0  0  0  0  0  0  0
  150.1950  141.3182  155.8486 C   0  0  0  0  0  0  0  0  0  0  0  0
  150.4779  142.5816  156.5132 N   0  0  0  0  0  0  0  0  0  0  0  0
  151.2744  142.6194  157.6649 C   0  0  0  0  0  0  0  0  0  0  0  0
  151.5946  143.8040  158.3680 C   0  0  0  0  0  0  0  0  0  0  0  0
  152.4050  143.7012  159.5114 C   0  0  0  0  0  0  0  0  0  0  0  0
  152.8461  142.4194  159.8844 C   0  0  0  0  0  0  0  0  0  0  0  0
  152.5287  141.2984  159.1992 N   0  0  0  0  0  0  0  0  0  0  0  0
  151.7527  141.4297  158.1086 N   0  3  0  0  0  0  0  0  0  0  0  0
  147.6833  141.3487  156.3707 C   0  0  0  0  0  0  0  0  0  0  0  0
  144.1694  143.7088  163.2835 H   0  0  0  0  0  0  0  0  0  0  0  0
  143.0802  143.1247  162.0319 H   0  0  0  0  0  0  0  0  0  0  0  0
  143.7771  144.7392  161.9099 H   0  0  0  0  0  0  0  0  0  0  0  0
  145.3358  142.1111  161.7925 H   0  0  0  0  0  0  0  0  0  0  0  0
  146.6990  143.9693  162.7617 H   0  0  0  0  0  0  0  0  0  0  0  0
  146.3539  144.9720  161.3551 H   0  0  0  0  0  0  0  0  0  0  0  0
  147.3155  143.5059  161.1822 H   0  0  0  0  0  0  0  0  0  0  0  0
  143.9590  143.4380  159.7401 H   0  0  0  0  0  0  0  0  0  0  0  0
  144.1211  143.0456  157.6461 H   0  0  0  0  0  0  0  0  0  0  0  0
  145.6882  143.5279  157.0724 H   0  0  0  0  0  0  0  0  0  0  0  0
  145.4985  140.6024  157.5556 H   0  0  0  0  0  0  0  0  0  0  0  0
  144.3501  141.1852  156.3913 H   0  0  0  0  0  0  0  0  0  0  0  0
  145.2667  142.5071  154.3894 H   0  0  0  0  0  0  0  0  0  0  0  0
  146.3185  143.4418  155.4292 H   0  0  0  0  0  0  0  0  0  0  0  0
  147.1961  141.5916  153.1460 H   0  0  0  0  0  0  0  0  0  0  0  0
  147.2810  143.3434  153.1640 H   0  0  0  0  0  0  0  0  0  0  0  0
  148.6466  140.3670  154.6886 H   0  0  0  0  0  0  0  0  0  0  0  0
  150.3135  140.5119  156.5733 H   0  0  0  0  0  0  0  0  0  0  0  0
  150.9218  141.1476  155.0536 H   0  0  0  0  0  0  0  0  0  0  0  0
  150.1921  143.4417  156.0674 H   0  0  0  0  0  0  0  0  0  0  0  0
  151.2362  144.7720  158.0507 H   0  0  0  0  0  0  0  0  0  0  0  0
  152.6792  144.5752  160.0835 H   0  0  0  0  0  0  0  0  0  0  0  0
  153.4703  142.2875  160.7562 H   0  0  0  0  0  0  0  0  0  0  0  0
  147.8404  142.2356  156.9870 H   0  0  0  0  0  0  0  0  0  0  0  0
  147.7778  140.4879  157.0336 H   0  0  0  0  0  0  0  0  0  0  0  0
  151.5087  140.5882  157.5861 H   0  0  0  0  0  0  0  0  0  0  0  0
  1  2  1  0  0  0  0
  1 23  1  0  0  0  0
  1 24  1  0  0  0  0
  1 25  1  0  0  0  0
  2  3  1  0  0  0  0
  2  4  1  0  0  0  0
  2 26  1  0  0  0  0
  3 27  1  0  0  0  0
  3 28  1  0  0  0  0
  3 29  1  0  0  0  0
  4  5  1  0  0  0  0
  4 30  1  0  0  0  0
  5  6  2  0  0  0  0
  5  7  1  0  0  0  0
  7  8  1  0  0  0  0
  7 31  1  0  0  0  0
  7 32  1  0  0  0  0
  8  9  1  0  0  0  0
  8 33  1  0  0  0  0
  8 34  1  0  0  0  0
  9 22  1  0  0  0  0
  9 10  1  0  0  0  0
 10 11  1  0  0  0  0
 10 35  1  0  0  0  0
 10 36  1  0  0  0  0
 11 12  1  0  0  0  0
 11 37  1  0  0  0  0
 11 38  1  0  0  0  0
 12 13  1  0  0  0  0
 13 14  1  0  0  0  0
 13 22  1  0  0  0  0
 13 39  1  0  0  0  0
 14 15  1  0  0  0  0
 14 40  1  0  0  0  0
 14 41  1  0  0  0  0
 15 16  1  0  0  0  0
 15 42  1  0  0  0  0
 16 21  1  0  0  0  0
 16 17  2  0  0  0  0
 17 18  1  0  0  0  0
 17 43  1  0  0  0  0
 18 19  2  0  0  0  0
 18 44  1  0  0  0  0
 19 20  1  0  0  0  0
 19 45  1  0  0  0  0
 20 21  2  0  0  0  0
 21 48  1  0  0  0  0
 22 46  1  0  0  0  0
 22 47  1  0  0  0  0
M  CHG  1  21   1
M  END
> <s_m_source_file>
AV-unprocessed.smi

> <i_m_source_file_index>
652

> <i_lp_mmshare_version>
43012

> <i_f3d_flags>
0

> <s_epik_input>
W0NIM11bQ0hdKFtDSDNdKVtOSF1DKD1PKVtDSDJdW0NIMl1OMVtDSDJdW0NIMl1PW0NASF0oW0NIMl0xKVtDSDJdW05IXWMyW2NIXVtjSF1bY0hdbm4y

> <s_epik_cmdline>
J2VwaWtfcHl0aG9uJywgJy1waCcsICc3LjAnLCAnLXRuJywgJzgnLCAnLW1hJywgJzIwMCcsICctbWV0YWxfYmluZGluZycsICctaW1hZScsICc8aW5maWxlLm1hZT4nLCAnLW9tYWUnLCAnPG91dGZpbGUubWFlPic=

> <r_epik_Ionization_Penalty>
2.70989

> <r_epik_Ionization_Penalty_Charging>
2.3023

> <r_epik_Ionization_Penalty_Neutral>
0.407592

> <r_epik_State_Penalty>
2.65305

> <r_epik_Charging_Adjusted_Penalty>
4.95534

> <i_epik_Tot_Q>
1

> <i_epik_Tot_abs_Q>
1

> <r_epik_Metal_State_Penalty>
2.66064

> <b_epik_Metal_Only>
0

> <s_lp_Force_Field>
OPLS_2005

> <r_lp_Energy>
26.0263

> <b_lp_Chiralities_Consistent>
1

> <s_lp_Variant>
AV-unprocessed.smi:652-11

> <Gold.Version>
5.8.1

> <Gold.Id.Protein>
6NUR|6NUR_protein|mol2

> <Gold.PLP.Fitness>
49.5234

> <Gold.PLP.PLP>
-42.3014

> <Gold.PLP.part.hbond>
-3.0356

> <Gold.PLP.part.metal>
0.0000

> <Gold.PLP.part.buried>
-8.2203

> <Gold.PLP.part.nonpolar>
-33.3477

> <Gold.PLP.part.repulsive>
2.4563

> <Gold.PLP.ligand.clash>
0.1030

> <Gold.PLP.ligand.torsion>
0.6690

> <Gold.PLP.Chemscore.Hbond>
2.8326

> <Gold.PLP.Chemscore.CHOScore>
0.0000

> <Gold.PLP.Chemscore.Metal>
0.0000

> <Gold.Chemscore.Hbonds>
donor molecule, donor type, donor heavy atom, donor atom, acceptor molecule, acceptor atom, score
      L1  H    15    42       P1  8028  2.00
      P1  H  6934  6946       L1     6  0.85
      P1  H  8011  8017       L1    12  0.02

> <Gold.PLP.Chemscore.Internal.Correction>
0.1651

> <Gold.Rescore>
     Score         DG    S(hbond)    S(metal)    S(lipo)     H(rot)  DE(clash)    DE(int)     intcor
     15.53     -16.30       1.97        0.00      86.11       2.28       0.01       0.75       ----

> <Gold.Chemscore.Fitness>
15.5341

> <Gold.Chemscore.DG>
-16.3024

> <Gold.Chemscore.ZeroCoef>
-5.4800

> <Gold.Chemscore.Hbond>
1.9689

> <Gold.Chemscore.Metal>
0.0000

> <Gold.Chemscore.Lipo>
86.1091

> <Gold.Chemscore.Internal_Hbond>
0.0000

> <Gold.Chemscore.DEClash>
0.0133

> <Gold.Chemscore.DEInternal>
0.7550

> <Gold.Chemscore.Rot>
2.2768

> <Gold.Chemscore.Internal.Correction>
   9.000000E+99

> <Gold.Chemscore.Hbonds>
donor molecule, donor type, donor heavy atom, donor atom, acceptor molecule, acceptor atom, score
      L1  H    15    42       P1  8028  0.96
      P1  H  6934  6946       L1     6  0.73

> <Gold.Chemscore.Hbond.Weighted>
-6.5763

> <Gold.Chemscore.Metal.Weighted>
-0.0000

> <Gold.Chemscore.Lipo.Weighted>
-10.0748

> <Gold.Chemscore.Internal_Hbond.Weighted>
0.0000

> <Gold.Chemscore.DEClash.Weighted>
0.0133

> <Gold.Chemscore.DEInternal.Weighted>
0.7550

> <Gold.Chemscore.Rot.Weighted>
5.8286

> <Gold.Chemscore.Internal.Correction.Weighted>
   9.000000E+99

> <Gold.Protein.RotatedTorsions>
[ 6907 6896 6895 6894 ] final   18.50 input  -60.11 | X-H torsion
[ 7974 7965 7964 7962 ] final -116.10 input  175.53 | X-H torsion
[ 8008 7997 7996 7995 ] final  116.02 input   59.86 | X-H torsion
[ 10167 10162 10161 10158 ] final  150.53 input  -65.29 | X-H torsion
[ 10718 10713 10712 10709 ] final   79.14 input   66.30 | X-H torsion
[ 10763 10752 10751 10750 ] final   68.16 input  -60.55 | X-H torsion
[ 11005 11000 10999 10996 ] final  -48.92 input  -57.11 | X-H torsion

> <Gold.Protein.ActiveResidues>
 VAL166  LYS551  ARG553  GLY616  TRP617  ASP618  TYR619  PRO620  LYS621  CYS622 
 ASP623  PHE694  ASN695  SER759  ASP760  ASP761  ALA762  ILE779  LEU786  VAL792 
 PHE793  MET794  SER795  GLU796  ALA797  LYS798  CYS799  TRP800  GLU811  SER814 

> <Gold.Protein.RotatedAtoms>
  151.8662  135.0506  160.0474 H   0  0  0  0  0  0  0  0  0  0  0  0  # atno 6907 bound_to 6896
  152.2624  133.5305  159.5398 H   0  0  0  0  0  0  0  0  0  0  0  0  # atno 6908 bound_to 6896
  150.7121  134.0727  159.3912 H   0  0  0  0  0  0  0  0  0  0  0  0  # atno 6909 bound_to 6896
  145.1006  140.8549  143.3928 H   0  0  0  0  0  0  0  0  0  0  0  0  # atno 7974 bound_to 7965
  156.2415  140.2926  156.0459 H   0  0  0  0  0  0  0  0  0  0  0  0  # atno 8008 bound_to 7997
  155.1935  140.0407  157.2922 H   0  0  0  0  0  0  0  0  0  0  0  0  # atno 8009 bound_to 7997
  154.6178  140.2468  155.7594 H   0  0  0  0  0  0  0  0  0  0  0  0  # atno 8010 bound_to 7997
  139.4849  144.5515  151.7393 H   0  0  0  0  0  0  0  0  0  0  0  0  # atno 10167 bound_to 10162
  157.6767  130.9900  150.1888 H   0  0  0  0  0  0  0  0  0  0  0  0  # atno 10718 bound_to 10713
  153.0221  135.5257  154.7091 H   0  0  0  0  0  0  0  0  0  0  0  0  # atno 10763 bound_to 10752
  154.6178  135.2885  155.0362 H   0  0  0  0  0  0  0  0  0  0  0  0  # atno 10764 bound_to 10752
  154.1360  135.6585  153.4984 H   0  0  0  0  0  0  0  0  0  0  0  0  # atno 10765 bound_to 10752
  141.0729  133.6674  156.3511 H   0  0  0  0  0  0  0  0  0  0  0  0  # atno 11005 bound_to 11000
  145.0959  139.2856  143.5711 LP  0  0  0  0  0  0  0  0  0  0  0  0  # atno 17320 bound_to 7965
  146.3530  140.0511  142.8636 LP  0  0  0  0  0  0  0  0  0  0  0  0  # atno 17321 bound_to 7965
  140.5069  144.1084  150.5985 LP  0  0  0  0  0  0  0  0  0  0  0  0  # atno 17342 bound_to 10162
  140.3996  143.2710  151.9963 LP  0  0  0  0  0  0  0  0  0  0  0  0  # atno 17343 bound_to 10162
  156.2604  130.3710  149.8136 LP  0  0  0  0  0  0  0  0  0  0  0  0  # atno 17370 bound_to 10713
  156.5883  130.8495  151.3401 LP  0  0  0  0  0  0  0  0  0  0  0  0  # atno 17371 bound_to 10713
  140.5635  134.5911  157.5440 LP  0  0  0  0  0  0  0  0  0  0  0  0  # atno 17394 bound_to 11000
  139.9542  134.7564  156.0380 LP  0  0  0  0  0  0  0  0  0  0  0  0  # atno 17395 bound_to 11000

$$$$
