AV-unprocessed.smi:1534|AV-procd|sdf|6169|dock3
  -GOLD-   22720 6313D 1   1.00000     0.00000
 Structure written by MMmdl.
 37 38  0  0  0  0  0  0  0  0  2 V2000
  146.8369  138.4826  154.8349 O   0  0  0  0  0  0  0  0  0  0  0  0
  147.4113  137.8344  153.9631 C   0  0  0  0  0  0  0  0  0  0  0  0
  146.7673  137.1925  152.9744 N   0  0  0  0  0  0  0  0  0  0  0  0
  145.3178  137.0847  152.8464 C   0  0  0  0  0  0  0  0  0  0  0  0
  144.8854  136.3783  151.5452 C   0  0  0  0  0  0  0  0  0  0  0  0
  145.1984  134.8910  151.5254 C   0  0  0  0  0  0  0  0  0  0  0  0
  144.1951  133.9166  151.3331 C   0  0  0  0  0  0  0  0  0  0  0  0
  144.5556  132.5533  151.3004 C   0  0  0  0  0  0  0  0  0  0  0  0
  145.9101  132.1929  151.4576 C   0  0  0  0  0  0  0  0  0  0  0  0
  146.8715  133.2064  151.6472 C   0  0  0  0  0  0  0  0  0  0  0  0
  146.4859  134.5008  151.6750 N   0  3  0  0  0  0  0  0  0  0  0  0
  148.7500  137.7116  153.9324 N   0  0  0  0  0  0  0  0  0  0  0  0
  149.7256  138.2859  154.8603 C   0  0  1  0  0  0  0  0  0  0  0  0
  150.7137  137.2310  155.3994 C   0  0  0  0  0  0  0  0  0  0  0  0
  151.9133  137.9485  156.0353 C   0  0  0  0  0  0  0  0  0  0  0  0
  152.0419  139.5807  155.2074 S   0  0  0  0  0  0  0  0  0  0  0  0
  151.7976  140.6346  156.2039 O   0  0  0  0  0  0  0  0  0  0  0  0
  153.2322  139.6129  154.3444 O   0  0  0  0  0  0  0  0  0  0  0  0
  150.5473  139.3805  154.1712 C   0  0  0  0  0  0  0  0  0  0  0  0
  147.3218  136.7056  152.2854 H   0  0  0  0  0  0  0  0  0  0  0  0
  144.8954  136.5766  153.7147 H   0  0  0  0  0  0  0  0  0  0  0  0
  144.9153  138.0979  152.8578 H   0  0  0  0  0  0  0  0  0  0  0  0
  143.8129  136.5118  151.3946 H   0  0  0  0  0  0  0  0  0  0  0  0
  145.3688  136.8553  150.6920 H   0  0  0  0  0  0  0  0  0  0  0  0
  143.1623  134.2085  151.2081 H   0  0  0  0  0  0  0  0  0  0  0  0
  143.8023  131.7930  151.1536 H   0  0  0  0  0  0  0  0  0  0  0  0
  146.2068  131.1544  151.4331 H   0  0  0  0  0  0  0  0  0  0  0  0
  147.9283  133.0228  151.7754 H   0  0  0  0  0  0  0  0  0  0  0  0
  149.1365  137.2222  153.1377 H   0  0  0  0  0  0  0  0  0  0  0  0
  149.2140  138.7508  155.7054 H   0  0  0  0  0  0  0  0  0  0  0  0
  150.2393  136.5498  156.1065 H   0  0  0  0  0  0  0  0  0  0  0  0
  151.0738  136.6224  154.5685 H   0  0  0  0  0  0  0  0  0  0  0  0
  151.7463  138.1233  157.0983 H   0  0  0  0  0  0  0  0  0  0  0  0
  152.8446  137.3941  155.9174 H   0  0  0  0  0  0  0  0  0  0  0  0
  150.8712  139.0669  153.1780 H   0  0  0  0  0  0  0  0  0  0  0  0
  150.0188  140.3299  154.0842 H   0  0  0  0  0  0  0  0  0  0  0  0
  147.1981  135.2188  151.8116 H   0  0  0  0  0  0  0  0  0  0  0  0
  1  2  2  0  0  0  0
  2  3  1  0  0  0  0
  2 12  1  0  0  0  0
  3  4  1  0  0  0  0
  3 20  1  0  0  0  0
  4  5  1  0  0  0  0
  4 21  1  0  0  0  0
  4 22  1  0  0  0  0
  5  6  1  0  0  0  0
  5 23  1  0  0  0  0
  5 24  1  0  0  0  0
  6 11  1  0  0  0  0
  6  7  2  0  0  0  0
  7  8  1  0  0  0  0
  7 25  1  0  0  0  0
  8  9  2  0  0  0  0
  8 26  1  0  0  0  0
  9 10  1  0  0  0  0
  9 27  1  0  0  0  0
 10 11  2  0  0  0  0
 10 28  1  0  0  0  0
 11 37  1  0  0  0  0
 12 13  1  0  0  0  0
 12 29  1  0  0  0  0
 13 19  1  0  0  0  0
 13 14  1  0  0  0  0
 13 30  1  0  0  0  0
 14 15  1  0  0  0  0
 14 31  1  0  0  0  0
 14 32  1  0  0  0  0
 15 16  1  0  0  0  0
 15 33  1  0  0  0  0
 15 34  1  0  0  0  0
 16 17  2  0  0  0  0
 16 18  2  0  0  0  0
 16 19  1  0  0  0  0
 19 35  1  0  0  0  0
 19 36  1  0  0  0  0
M  CHG  1  11   1
M  END
> <s_m_source_file>
AV-unprocessed.smi

> <i_m_source_file_index>
1534

> <i_lp_mmshare_version>
43012

> <i_f3d_flags>
0

> <s_epik_input>
Tz1TMSg9TylbQ0gyXVtDSDJdW0NASF0oW0NIMl0xKVtOSF1DKD1PKVtOSF1bQ0gyXVtDSDJdYzJbY0hdW2NIXVtjSF1bY0hdbjI=

> <s_epik_cmdline>
J2VwaWtfcHl0aG9uJywgJy1waCcsICc3LjAnLCAnLXRuJywgJzgnLCAnLW1hJywgJzIwMCcsICctbWV0YWxfYmluZGluZycsICctaW1hZScsICc8aW5maWxlLm1hZT4nLCAnLW9tYWUnLCAnPG91dGZpbGUubWFlPic=

> <r_epik_Ionization_Penalty>
1.58466

> <r_epik_Ionization_Penalty_Charging>
1.58462

> <r_epik_Ionization_Penalty_Neutral>
3.4911e-05

> <r_epik_State_Penalty>
1.6815

> <r_epik_Charging_Adjusted_Penalty>
3.26612

> <i_epik_Tot_Q>
1

> <i_epik_Tot_abs_Q>
1

> <r_epik_Metal_State_Penalty>
1.72144

> <b_epik_Metal_Only>
0

> <s_lp_Force_Field>
OPLS_2005

> <r_lp_Energy>
19.4727

> <b_lp_Chiralities_Consistent>
1

> <s_lp_Variant>
AV-unprocessed.smi:1534-4

> <Gold.Version>
5.8.1

> <Gold.Id.Protein>
6NUR|6NUR_protein|mol2

> <Gold.PLP.Fitness>
44.1881

> <Gold.PLP.PLP>
-29.6597

> <Gold.PLP.part.hbond>
-5.0000

> <Gold.PLP.part.metal>
0.0000

> <Gold.PLP.part.buried>
-1.5191

> <Gold.PLP.part.nonpolar>
-23.3091

> <Gold.PLP.part.repulsive>
0.1889

> <Gold.PLP.ligand.clash>
0.0000

> <Gold.PLP.ligand.torsion>
0.1168

> <Gold.PLP.Chemscore.Hbond>
4.9120

> <Gold.PLP.Chemscore.CHOScore>
0.0000

> <Gold.PLP.Chemscore.Metal>
0.0000

> <Gold.Chemscore.Hbonds>
donor molecule, donor type, donor heavy atom, donor atom, acceptor molecule, acceptor atom, score
      L1  H     3    20       P1  7948  0.90
      L1  H    11    37       P1  7948  2.00
      L1  H    12    29       P1  7948  1.00
      P1  H  7997  8008       L1    18  1.00

> <Gold.PLP.Chemscore.Internal.Correction>
0.0260

> <Gold.Rescore>
     Score         DG    S(hbond)    S(metal)    S(lipo)     H(rot)  DE(clash)    DE(int)     intcor
     20.27     -20.43       3.82        0.00      58.43       1.82       0.01       0.15       ----

> <Gold.Chemscore.Fitness>
20.2705

> <Gold.Chemscore.DG>
-20.4278

> <Gold.Chemscore.ZeroCoef>
-5.4800

> <Gold.Chemscore.Hbond>
3.8250

> <Gold.Chemscore.Metal>
0.0000

> <Gold.Chemscore.Lipo>
58.4327

> <Gold.Chemscore.Internal_Hbond>
0.0000

> <Gold.Chemscore.DEClash>
0.0106

> <Gold.Chemscore.DEInternal>
0.1467

> <Gold.Chemscore.Rot>
1.8220

> <Gold.Chemscore.Internal.Correction>
   9.000000E+99

> <Gold.Chemscore.Hbonds>
donor molecule, donor type, donor heavy atom, donor atom, acceptor molecule, acceptor atom, score
      L1  H     3    20       P1  7948  0.88
      L1  H    11    37       P1  7948  0.95
      L1  H    12    29       P1  7948  0.94
      P1  H  7997  8008       L1    18  0.24

> <Gold.Chemscore.Hbond.Weighted>
-12.7754

> <Gold.Chemscore.Metal.Weighted>
-0.0000

> <Gold.Chemscore.Lipo.Weighted>
-6.8366

> <Gold.Chemscore.Internal_Hbond.Weighted>
0.0000

> <Gold.Chemscore.DEClash.Weighted>
0.0106

> <Gold.Chemscore.DEInternal.Weighted>
0.1467

> <Gold.Chemscore.Rot.Weighted>
4.6642

> <Gold.Chemscore.Internal.Correction.Weighted>
   9.000000E+99

> <Gold.Protein.RotatedTorsions>
[ 6907 6896 6895 6894 ] final  113.78 input  -60.11 | X-H torsion
[ 7974 7965 7964 7962 ] final  -80.28 input  175.53 | X-H torsion
[ 8008 7997 7996 7995 ] final   -0.48 input   59.86 | X-H torsion
[ 10167 10162 10161 10158 ] final  -62.15 input  -65.29 | X-H torsion
[ 10718 10713 10712 10709 ] final  -35.59 input   66.30 | X-H torsion
[ 10763 10752 10751 10750 ] final  -49.91 input  -60.55 | X-H torsion
[ 11005 11000 10999 10996 ] final  127.33 input  -57.11 | X-H torsion

> <Gold.Protein.ActiveResidues>
 VAL166  LYS551  ARG553  GLY616  TRP617  ASP618  TYR619  PRO620  LYS621  CYS622 
 ASP623  PHE694  ASN695  SER759  ASP760  ASP761  ALA762  ILE779  LEU786  VAL792 
 PHE793  MET794  SER795  GLU796  ALA797  LYS798  CYS799  TRP800  GLU811  SER814 

> <Gold.Protein.RotatedAtoms>
  152.4841  133.8327  159.7111 H   0  0  0  0  0  0  0  0  0  0  0  0  # atno 6907 bound_to 6896
  150.8913  133.7230  159.2910 H   0  0  0  0  0  0  0  0  0  0  0  0  # atno 6908 bound_to 6896
  151.4702  135.1049  159.9801 H   0  0  0  0  0  0  0  0  0  0  0  0  # atno 6909 bound_to 6896
  145.5621  140.9480  143.1442 H   0  0  0  0  0  0  0  0  0  0  0  0  # atno 7974 bound_to 7965
  154.6576  140.2583  155.7144 H   0  0  0  0  0  0  0  0  0  0  0  0  # atno 8008 bound_to 7997
  156.2604  140.2855  156.0957 H   0  0  0  0  0  0  0  0  0  0  0  0  # atno 8009 bound_to 7997
  155.1356  140.0379  157.2776 H   0  0  0  0  0  0  0  0  0  0  0  0  # atno 8010 bound_to 7997
  140.5958  143.2350  151.6039 H   0  0  0  0  0  0  0  0  0  0  0  0  # atno 10167 bound_to 10162
  156.3368  130.4287  149.7823 H   0  0  0  0  0  0  0  0  0  0  0  0  # atno 10718 bound_to 10713
  154.1017  135.6562  153.4869 H   0  0  0  0  0  0  0  0  0  0  0  0  # atno 10763 bound_to 10752
  153.0286  135.5226  154.7280 H   0  0  0  0  0  0  0  0  0  0  0  0  # atno 10764 bound_to 10752
  154.6434  135.2991  155.0045 H   0  0  0  0  0  0  0  0  0  0  0  0  # atno 10765 bound_to 10752
  139.9502  134.9623  156.8838 H   0  0  0  0  0  0  0  0  0  0  0  0  # atno 11005 bound_to 11000
  144.7478  139.7274  143.7285 LP  0  0  0  0  0  0  0  0  0  0  0  0  # atno 17320 bound_to 7965
  146.1844  139.5052  142.9846 LP  0  0  0  0  0  0  0  0  0  0  0  0  # atno 17321 bound_to 7965
  139.5257  144.3066  152.1028 LP  0  0  0  0  0  0  0  0  0  0  0  0  # atno 17342 bound_to 10162
  140.2238  144.4439  150.6330 LP  0  0  0  0  0  0  0  0  0  0  0  0  # atno 17343 bound_to 10162
  156.5074  130.8156  151.3156 LP  0  0  0  0  0  0  0  0  0  0  0  0  # atno 17370 bound_to 10713
  157.7440  130.9925  150.2638 LP  0  0  0  0  0  0  0  0  0  0  0  0  # atno 17371 bound_to 10713
  140.5738  134.0418  155.7439 LP  0  0  0  0  0  0  0  0  0  0  0  0  # atno 17394 bound_to 11000
  141.1162  133.9535  157.2817 LP  0  0  0  0  0  0  0  0  0  0  0  0  # atno 17395 bound_to 11000

$$$$
