AV-unprocessed.smi:3231|AV-procd|sdf|12336|dock10
  -GOLD-   2272018193D 1   1.00000     0.00000
 Structure written by MMmdl.
 42 43  0  0  0  0  0  0  0  0  3 V2000
  146.4209  138.3981  150.8566 O   0  0  0  0  0  0  0  0  0  0  0  0
  146.5559  137.7321  152.0961 C   0  0  1  0  0  0  0  0  0  0  0  0
  147.1675  138.7382  153.0894 C   0  0  0  0  0  0  0  0  0  0  0  0
  148.6429  138.7508  153.0199 N   0  3  0  0  0  0  0  0  0  0  0  0
  149.3010  138.9817  154.3204 C   0  0  0  0  0  0  0  0  0  0  0  0
  149.6091  140.4718  154.5251 C   0  0  0  0  0  0  0  0  0  0  0  0
  150.4540  140.6908  155.6827 N   0  0  0  0  0  0  0  0  0  0  0  0
  150.9025  141.8852  156.2062 C   0  0  0  0  0  0  0  0  0  0  0  0
  151.6704  141.5874  157.2951 C   0  0  0  0  0  0  0  0  0  0  0  0
  151.6344  140.1663  157.3568 C   0  0  0  0  0  0  0  0  0  0  0  0
  150.9057  139.6327  156.3894 N   0  0  0  0  0  0  0  0  0  0  0  0
  145.1636  137.2330  152.5442 C   0  0  0  0  0  0  0  0  0  0  0  0
  144.9204  135.8002  152.2316 N   0  3  0  0  0  0  0  0  0  0  0  0
  143.5085  135.3787  152.4133 C   0  0  0  0  0  0  0  0  0  0  0  0
  143.3456  133.8830  152.0912 C   0  0  0  0  0  0  0  0  0  0  0  0
  143.7950  133.6278  150.7668 O   0  0  0  0  0  0  0  0  0  0  0  0
  145.1729  133.9379  150.6052 C   0  0  0  0  0  0  0  0  0  0  0  0
  145.3974  135.4355  150.8755 C   0  0  0  0  0  0  0  0  0  0  0  0
  145.5039  138.5428  150.6803 H   0  0  0  0  0  0  0  0  0  0  0  0
  147.2521  136.9051  151.9601 H   0  0  0  0  0  0  0  0  0  0  0  0
  146.8148  139.7455  152.8619 H   0  0  0  0  0  0  0  0  0  0  0  0
  146.8457  138.5118  154.1073 H   0  0  0  0  0  0  0  0  0  0  0  0
  148.9587  137.8615  152.6605 H   0  0  0  0  0  0  0  0  0  0  0  0
  148.6551  138.6210  155.1223 H   0  0  0  0  0  0  0  0  0  0  0  0
  150.2220  138.3985  154.3604 H   0  0  0  0  0  0  0  0  0  0  0  0
  150.1110  140.8843  153.6484 H   0  0  0  0  0  0  0  0  0  0  0  0
  148.6855  141.0370  154.6579 H   0  0  0  0  0  0  0  0  0  0  0  0
  150.6416  142.8369  155.7668 H   0  0  0  0  0  0  0  0  0  0  0  0
  152.1819  142.2792  157.9479 H   0  0  0  0  0  0  0  0  0  0  0  0
  152.1127  139.5115  158.0703 H   0  0  0  0  0  0  0  0  0  0  0  0
  145.0269  137.3866  153.6157 H   0  0  0  0  0  0  0  0  0  0  0  0
  144.4037  137.8438  152.0533 H   0  0  0  0  0  0  0  0  0  0  0  0
  143.1812  135.5599  153.4361 H   0  0  0  0  0  0  0  0  0  0  0  0
  142.8624  135.9691  151.7616 H   0  0  0  0  0  0  0  0  0  0  0  0
  143.8990  133.2673  152.8023 H   0  0  0  0  0  0  0  0  0  0  0  0
  142.2972  133.5944  152.1697 H   0  0  0  0  0  0  0  0  0  0  0  0
  145.7788  133.3244  151.2738 H   0  0  0  0  0  0  0  0  0  0  0  0
  145.4734  133.6909  149.5868 H   0  0  0  0  0  0  0  0  0  0  0  0
  144.8710  136.0321  150.1288 H   0  0  0  0  0  0  0  0  0  0  0  0
  146.4591  135.6667  150.7808 H   0  0  0  0  0  0  0  0  0  0  0  0
  148.9297  139.4797  152.3819 H   0  0  0  0  0  0  0  0  0  0  0  0
  145.4786  135.2609  152.8781 H   0  0  0  0  0  0  0  0  0  0  0  0
  1  2  1  0  0  0  0
  1 19  1  0  0  0  0
  2  3  1  0  0  0  0
  2 12  1  0  0  0  0
  2 20  1  0  0  0  0
  3  4  1  0  0  0  0
  3 21  1  0  0  0  0
  3 22  1  0  0  0  0
  4  5  1  0  0  0  0
  4 23  1  0  0  0  0
  4 41  1  0  0  0  0
  5  6  1  0  0  0  0
  5 24  1  0  0  0  0
  5 25  1  0  0  0  0
  6  7  1  0  0  0  0
  6 26  1  0  0  0  0
  6 27  1  0  0  0  0
  7 11  1  0  0  0  0
  7  8  1  0  0  0  0
  8  9  2  0  0  0  0
  8 28  1  0  0  0  0
  9 10  1  0  0  0  0
  9 29  1  0  0  0  0
 10 11  2  0  0  0  0
 10 30  1  0  0  0  0
 12 13  1  0  0  0  0
 12 31  1  0  0  0  0
 12 32  1  0  0  0  0
 13 18  1  0  0  0  0
 13 14  1  0  0  0  0
 13 42  1  0  0  0  0
 14 15  1  0  0  0  0
 14 33  1  0  0  0  0
 14 34  1  0  0  0  0
 15 16  1  0  0  0  0
 15 35  1  0  0  0  0
 15 36  1  0  0  0  0
 16 17  1  0  0  0  0
 17 18  1  0  0  0  0
 17 37  1  0  0  0  0
 17 38  1  0  0  0  0
 18 39  1  0  0  0  0
 18 40  1  0  0  0  0
M  CHG  1   4   1
M  CHG  1  13   1
M  END
> <s_m_source_file>
AV-unprocessed.smi

> <i_m_source_file_index>
3231

> <i_lp_mmshare_version>
43012

> <i_f3d_flags>
0

> <s_epik_input>
W0NIMl0xW0NIMl1PW0NIMl1bQ0gyXU4xW0NIMl1bQ0BIXShbT0hdKVtDSDJdW05IXVtDSDJdW0NIMl1uMltjSF1bY0hdW2NIXW4y

> <s_epik_cmdline>
J2VwaWtfcHl0aG9uJywgJy1waCcsICc3LjAnLCAnLXRuJywgJzgnLCAnLW1hJywgJzIwMCcsICctbWV0YWxfYmluZGluZycsICctaW1hZScsICc8aW5maWxlLm1hZT4nLCAnLW9tYWUnLCAnPG91dGZpbGUubWFlPic=

> <r_lp_tautomer_probability>
1

> <r_epik_Ionization_Penalty>
2.09881

> <r_epik_Ionization_Penalty_Charging>
2.09628

> <r_epik_Ionization_Penalty_Neutral>
0.0025303

> <r_epik_State_Penalty>
1.58657

> <r_epik_Charging_Adjusted_Penalty>
3.68285

> <i_epik_Tot_Q>
2

> <i_epik_Tot_abs_Q>
2

> <r_epik_Metal_State_Penalty>
1.58685

> <b_epik_Metal_Only>
0

> <s_lp_Force_Field>
OPLS_2005

> <r_lp_Energy>
27.3068

> <b_lp_Chiralities_Consistent>
1

> <s_lp_Variant>
AV-unprocessed.smi:3231-6

> <Gold.Version>
5.8.1

> <Gold.Id.Protein>
6NUR|6NUR_protein|mol2

> <Gold.PLP.Fitness>
49.4758

> <Gold.PLP.PLP>
-34.1288

> <Gold.PLP.part.hbond>
-3.9402

> <Gold.PLP.part.metal>
0.0000

> <Gold.PLP.part.buried>
-3.0663

> <Gold.PLP.part.nonpolar>
-27.8181

> <Gold.PLP.part.repulsive>
0.2720

> <Gold.PLP.ligand.clash>
0.0000

> <Gold.PLP.ligand.torsion>
1.4067

> <Gold.PLP.Chemscore.Hbond>
4.9920

> <Gold.PLP.Chemscore.CHOScore>
1.0000

> <Gold.PLP.Chemscore.Metal>
0.0000

> <Gold.Chemscore.Hbonds>
donor molecule, donor type, donor heavy atom, donor atom, acceptor molecule, acceptor atom, score
      L1  H     1    19       P1 10171  1.00
      L1  H     4    23       P1  7948  2.00
      L1  H     4    41       P1  7957  0.93
      P1  H  7954  7966       L1     1  0.92
      L1  C     8    28       P1  8028  0.90

> <Gold.PLP.Chemscore.Internal.Correction>
0.1842

> <Gold.Rescore>
     Score         DG    S(hbond)    S(metal)    S(lipo)     H(rot)  DE(clash)    DE(int)     intcor
     16.56     -19.36       3.86        0.00      72.85       2.94       1.43       1.38       ----

> <Gold.Chemscore.Fitness>
16.5564

> <Gold.Chemscore.DG>
-19.3620

> <Gold.Chemscore.ZeroCoef>
-5.4800

> <Gold.Chemscore.Hbond>
3.8607

> <Gold.Chemscore.Metal>
0.0000

> <Gold.Chemscore.Lipo>
72.8477

> <Gold.Chemscore.Internal_Hbond>
0.0000

> <Gold.Chemscore.DEClash>
1.4281

> <Gold.Chemscore.DEInternal>
1.3775

> <Gold.Chemscore.Rot>
2.9437

> <Gold.Chemscore.Internal.Correction>
   9.000000E+99

> <Gold.Chemscore.Hbonds>
donor molecule, donor type, donor heavy atom, donor atom, acceptor molecule, acceptor atom, score
      L1  H     1    19       P1 10171  1.00
      L1  H     4    23       P1  7948  1.00
      L1  H     4    41       P1  7957  0.87
      P1  H  7954  7966       L1     1  0.33

> <Gold.Chemscore.Hbond.Weighted>
-12.8947

> <Gold.Chemscore.Metal.Weighted>
-0.0000

> <Gold.Chemscore.Lipo.Weighted>
-8.5232

> <Gold.Chemscore.Internal_Hbond.Weighted>
0.0000

> <Gold.Chemscore.DEClash.Weighted>
1.4281

> <Gold.Chemscore.DEInternal.Weighted>
1.3775

> <Gold.Chemscore.Rot.Weighted>
7.5359

> <Gold.Chemscore.Internal.Correction.Weighted>
   9.000000E+99

> <Gold.Protein.RotatedTorsions>
[ 6907 6896 6895 6894 ] final  -76.71 input  -60.11 | X-H torsion
[ 7974 7965 7964 7962 ] final  100.21 input  175.53 | X-H torsion
[ 8008 7997 7996 7995 ] final -107.76 input   59.86 | X-H torsion
[ 10167 10162 10161 10158 ] final  -98.65 input  -65.29 | X-H torsion
[ 10718 10713 10712 10709 ] final  105.80 input   66.30 | X-H torsion
[ 10763 10752 10751 10750 ] final  -52.16 input  -60.55 | X-H torsion
[ 11005 11000 10999 10996 ] final  -18.65 input  -57.11 | X-H torsion

> <Gold.Protein.ActiveResidues>
 VAL166  LYS551  ARG553  GLY616  TRP617  ASP618  TYR619  PRO620  LYS621  CYS622 
 ASP623  PHE694  ASN695  SER759  ASP760  ASP761  ALA762  ILE779  LEU786  VAL792 
 PHE793  MET794  SER795  GLU796  ALA797  LYS798  CYS799  TRP800  GLU811  SER814 

> <Gold.Protein.RotatedAtoms>
  150.7019  134.4531  159.5345 H   0  0  0  0  0  0  0  0  0  0  0  0  # atno 6907 bound_to 6896
  152.2220  134.8401  160.0494 H   0  0  0  0  0  0  0  0  0  0  0  0  # atno 6908 bound_to 6896
  151.9248  133.3560  159.3946 H   0  0  0  0  0  0  0  0  0  0  0  0  # atno 6909 bound_to 6896
  145.3886  139.2367  143.3364 H   0  0  0  0  0  0  0  0  0  0  0  0  # atno 7974 bound_to 7965
  154.9341  140.0404  157.2063 H   0  0  0  0  0  0  0  0  0  0  0  0  # atno 8008 bound_to 7997
  154.8132  140.2871  155.5817 H   0  0  0  0  0  0  0  0  0  0  0  0  # atno 8009 bound_to 7997
  156.2973  140.2533  156.3024 H   0  0  0  0  0  0  0  0  0  0  0  0  # atno 8010 bound_to 7997
  140.2708  143.3345  152.0536 H   0  0  0  0  0  0  0  0  0  0  0  0  # atno 10167 bound_to 10162
  157.6692  131.0836  150.5911 H   0  0  0  0  0  0  0  0  0  0  0  0  # atno 10718 bound_to 10713
  154.1382  135.6509  153.4936 H   0  0  0  0  0  0  0  0  0  0  0  0  # atno 10763 bound_to 10752
  153.0174  135.5309  154.6932 H   0  0  0  0  0  0  0  0  0  0  0  0  # atno 10764 bound_to 10752
  154.6186  135.2962  155.0323 H   0  0  0  0  0  0  0  0  0  0  0  0  # atno 10765 bound_to 10752
  140.8289  133.8012  155.9737 H   0  0  0  0  0  0  0  0  0  0  0  0  # atno 11005 bound_to 11000
  146.2808  140.4565  142.8777 LP  0  0  0  0  0  0  0  0  0  0  0  0  # atno 17320 bound_to 7965
  144.8456  140.6924  143.6201 LP  0  0  0  0  0  0  0  0  0  0  0  0  # atno 17321 bound_to 7965
  139.4989  144.6658  151.6360 LP  0  0  0  0  0  0  0  0  0  0  0  0  # atno 17342 bound_to 10162
  140.5891  143.9811  150.6314 LP  0  0  0  0  0  0  0  0  0  0  0  0  # atno 17343 bound_to 10162
  156.6211  130.4406  149.5822 LP  0  0  0  0  0  0  0  0  0  0  0  0  # atno 17370 bound_to 10713
  156.2355  130.6820  151.1505 LP  0  0  0  0  0  0  0  0  0  0  0  0  # atno 17371 bound_to 10713
  140.9020  134.2367  157.5036 LP  0  0  0  0  0  0  0  0  0  0  0  0  # atno 17394 bound_to 11000
  139.8705  134.9711  156.4724 LP  0  0  0  0  0  0  0  0  0  0  0  0  # atno 17395 bound_to 11000

$$$$
