AV-unprocessed.smi:850|AV-procd|sdf|3948|dock9
  -GOLD-   22720 1423D 1   1.00000     0.00000
 Structure written by MMmdl.
 40 42  0  0  0  0  0  0  0  0  1 V2000
  153.8096  139.7879  160.1795 C   0  0  0  0  0  0  0  0  0  0  0  0
  153.0006  140.8183  159.5393 N   0  0  0  0  0  0  0  0  0  0  0  0
  152.4555  140.7750  158.3009 C   0  0  0  0  0  0  0  0  0  0  0  0
  152.5568  139.8487  157.4965 O   0  0  0  0  0  0  0  0  0  0  0  0
  151.7827  141.9326  158.0991 N   0  0  0  0  0  0  0  0  0  0  0  0
  151.0618  142.3192  156.8883 C   0  0  0  0  0  0  0  0  0  0  0  0
  149.6595  141.6802  156.8323 C   0  0  1  0  0  0  0  0  0  0  0  0
  148.6778  142.5989  157.2669 O   0  0  0  0  0  0  0  0  0  0  0  0
  149.2690  141.2061  155.4225 C   0  0  0  0  0  0  0  0  0  0  0  0
  148.2139  140.2556  155.5078 O   0  0  0  0  0  0  0  0  0  0  0  0
  147.6643  139.7803  154.3368 C   0  0  0  0  0  0  0  0  0  0  0  0
  147.0710  138.5015  154.3826 C   0  0  0  0  0  0  0  0  0  0  0  0
  146.4826  137.9378  153.2342 C   0  0  0  0  0  0  0  0  0  0  0  0
  146.4821  138.6517  152.0217 C   0  0  0  0  0  0  0  0  0  0  0  0
  147.0722  139.9279  151.9609 C   0  0  0  0  0  0  0  0  0  0  0  0
  147.6606  140.4917  153.1100 C   0  0  0  0  0  0  0  0  0  0  0  0
  151.9137  142.7445  159.2352 C   0  0  0  0  0  0  0  0  0  0  0  0
  151.4202  144.0304  159.5168 C   0  0  0  0  0  0  0  0  0  0  0  0
  151.7421  144.5836  160.7785 C   0  0  0  0  0  0  0  0  0  0  0  0
  152.5319  143.8604  161.7100 C   0  0  0  0  0  0  0  0  0  0  0  0
  153.0168  142.5680  161.3999 C   0  0  0  0  0  0  0  0  0  0  0  0
  152.6809  142.0424  160.1404 C   0  0  0  0  0  0  0  0  0  0  0  0
  153.8329  138.8654  159.5980 H   0  0  0  0  0  0  0  0  0  0  0  0
  153.4092  139.5513  161.1656 H   0  0  0  0  0  0  0  0  0  0  0  0
  154.8348  140.1378  160.3013 H   0  0  0  0  0  0  0  0  0  0  0  0
  151.0015  143.4053  156.7987 H   0  0  0  0  0  0  0  0  0  0  0  0
  151.6508  141.9854  156.0334 H   0  0  0  0  0  0  0  0  0  0  0  0
  149.6169  140.8182  157.4992 H   0  0  0  0  0  0  0  0  0  0  0  0
  148.5969  143.2800  156.6164 H   0  0  0  0  0  0  0  0  0  0  0  0
  148.9254  142.0680  154.8482 H   0  0  0  0  0  0  0  0  0  0  0  0
  150.1357  140.7881  154.9069 H   0  0  0  0  0  0  0  0  0  0  0  0
  147.0671  137.9469  155.3095 H   0  0  0  0  0  0  0  0  0  0  0  0
  146.0316  136.9578  153.2845 H   0  0  0  0  0  0  0  0  0  0  0  0
  146.0307  138.2210  151.1401 H   0  0  0  0  0  0  0  0  0  0  0  0
  147.0739  140.4766  151.0305 H   0  0  0  0  0  0  0  0  0  0  0  0
  148.1028  141.4726  153.0237 H   0  0  0  0  0  0  0  0  0  0  0  0
  150.8219  144.5770  158.8028 H   0  0  0  0  0  0  0  0  0  0  0  0
  151.3833  145.5695  161.0355 H   0  0  0  0  0  0  0  0  0  0  0  0
  152.7667  144.3028  162.6670 H   0  0  0  0  0  0  0  0  0  0  0  0
  153.6201  142.0118  162.1022 H   0  0  0  0  0  0  0  0  0  0  0  0
  1  2  1  0  0  0  0
  1 23  1  0  0  0  0
  1 24  1  0  0  0  0
  1 25  1  0  0  0  0
  2 22  1  0  0  0  0
  2  3  1  0  0  0  0
  3  4  2  0  0  0  0
  3  5  1  0  0  0  0
  5  6  1  0  0  0  0
  5 17  1  0  0  0  0
  6  7  1  0  0  0  0
  6 26  1  0  0  0  0
  6 27  1  0  0  0  0
  7  8  1  0  0  0  0
  7  9  1  0  0  0  0
  7 28  1  0  0  0  0
  8 29  1  0  0  0  0
  9 10  1  0  0  0  0
  9 30  1  0  0  0  0
  9 31  1  0  0  0  0
 10 11  1  0  0  0  0
 11 16  1  0  0  0  0
 11 12  2  0  0  0  0
 12 13  1  0  0  0  0
 12 32  1  0  0  0  0
 13 14  2  0  0  0  0
 13 33  1  0  0  0  0
 14 15  1  0  0  0  0
 14 34  1  0  0  0  0
 15 16  2  0  0  0  0
 15 35  1  0  0  0  0
 16 36  1  0  0  0  0
 17 22  2  0  0  0  0
 17 18  1  0  0  0  0
 18 19  2  0  0  0  0
 18 37  1  0  0  0  0
 19 20  1  0  0  0  0
 19 38  1  0  0  0  0
 20 21  2  0  0  0  0
 20 39  1  0  0  0  0
 21 22  1  0  0  0  0
 21 40  1  0  0  0  0
M  END
> <s_m_source_file>
AV-unprocessed.smi

> <i_m_source_file_index>
850

> <i_lp_mmshare_version>
43012

> <i_f3d_flags>
0

> <s_epik_input>
W2NIXTFbY0hdW2NIXVtjSF1jKGMxMiluKFtDSDNdKWMoPU8pbjJbQ0gyXVtDQEhdKFtPSF0pW0NIMl1PYzNbY0hdW2NIXVtjSF1bY0hdW2NIXTM=

> <s_epik_cmdline>
J2VwaWtfcHl0aG9uJywgJy1waCcsICc3LjAnLCAnLXRuJywgJzgnLCAnLW1hJywgJzIwMCcsICctbWV0YWxfYmluZGluZycsICctaW1hZScsICc8aW5maWxlLm1hZT4nLCAnLW9tYWUnLCAnPG91dGZpbGUubWFlPic=

> <r_lp_tautomer_probability>
1

> <r_epik_Ionization_Penalty>
2.40205e-06

> <r_epik_Ionization_Penalty_Charging>
2.75209e-09

> <r_epik_Ionization_Penalty_Neutral>
2.3993e-06

> <r_epik_State_Penalty>
-0

> <r_epik_Charging_Adjusted_Penalty>
2.75209e-09

> <i_epik_Tot_Q>
0

> <i_epik_Tot_abs_Q>
0

> <r_epik_Metal_State_Penalty>
-0

> <b_epik_Metal_Only>
0

> <s_lp_Force_Field>
OPLS_2005

> <r_lp_Energy>
47.9965

> <b_lp_Chiralities_Consistent>
1

> <s_lp_Variant>
AV-unprocessed.smi:850-2

> <Gold.Version>
5.8.1

> <Gold.Id.Protein>
6NUR|6NUR_protein|mol2

> <Gold.PLP.Fitness>
49.0755

> <Gold.PLP.PLP>
-45.7506

> <Gold.PLP.part.hbond>
-2.0000

> <Gold.PLP.part.metal>
0.0000

> <Gold.PLP.part.buried>
0.3370

> <Gold.PLP.part.nonpolar>
-44.3115

> <Gold.PLP.part.repulsive>
0.0451

> <Gold.PLP.ligand.clash>
0.0000

> <Gold.PLP.ligand.torsion>
1.3525

> <Gold.PLP.Chemscore.Hbond>
2.0000

> <Gold.PLP.Chemscore.CHOScore>
0.0000

> <Gold.PLP.Chemscore.Metal>
0.0000

> <Gold.Chemscore.Hbonds>
donor molecule, donor type, donor heavy atom, donor atom, acceptor molecule, acceptor atom, score
      L1  H     8    29       P1  8028  1.00
      P1  H  7997  8009       L1     4  1.00

> <Gold.PLP.Chemscore.Internal.Correction>
0.0299

> <Gold.Rescore>
     Score         DG    S(hbond)    S(metal)    S(lipo)     H(rot)  DE(clash)    DE(int)     intcor
     17.65     -22.32       1.69        0.00     141.91       2.12       3.41       1.26       ----

> <Gold.Chemscore.Fitness>
17.6451

> <Gold.Chemscore.DG>
-22.3162

> <Gold.Chemscore.ZeroCoef>
-5.4800

> <Gold.Chemscore.Hbond>
1.6935

> <Gold.Chemscore.Metal>
0.0000

> <Gold.Chemscore.Lipo>
141.9065

> <Gold.Chemscore.Internal_Hbond>
0.0000

> <Gold.Chemscore.DEClash>
3.4134

> <Gold.Chemscore.DEInternal>
1.2577

> <Gold.Chemscore.Rot>
2.1184

> <Gold.Chemscore.Internal.Correction>
   9.000000E+99

> <Gold.Chemscore.Hbonds>
donor molecule, donor type, donor heavy atom, donor atom, acceptor molecule, acceptor atom, score
      L1  H     8    29       P1  8028  0.70
      P1  H  7997  8009       L1     4  0.42

> <Gold.Chemscore.Hbond.Weighted>
-5.6563

> <Gold.Chemscore.Metal.Weighted>
-0.0000

> <Gold.Chemscore.Lipo.Weighted>
-16.6031

> <Gold.Chemscore.Internal_Hbond.Weighted>
0.0000

> <Gold.Chemscore.DEClash.Weighted>
3.4134

> <Gold.Chemscore.DEInternal.Weighted>
1.2577

> <Gold.Chemscore.Rot.Weighted>
5.4231

> <Gold.Chemscore.Internal.Correction.Weighted>
   9.000000E+99

> <Gold.Protein.RotatedTorsions>
[ 6907 6896 6895 6894 ] final   90.47 input  -60.11 | X-H torsion
[ 7974 7965 7964 7962 ] final -110.00 input  175.53 | X-H torsion
[ 8008 7997 7996 7995 ] final  178.41 input   59.86 | X-H torsion
[ 10167 10162 10161 10158 ] final   45.84 input  -65.29 | X-H torsion
[ 10718 10713 10712 10709 ] final  135.87 input   66.30 | X-H torsion
[ 10763 10752 10751 10750 ] final  159.71 input  -60.55 | X-H torsion
[ 11005 11000 10999 10996 ] final  -11.20 input  -57.11 | X-H torsion

> <Gold.Protein.ActiveResidues>
 VAL166  LYS551  ARG553  GLY616  TRP617  ASP618  TYR619  PRO620  LYS621  CYS622 
 ASP623  PHE694  ASN695  SER759  ASP760  ASP761  ALA762  ILE779  LEU786  VAL792 
 PHE793  MET794  SER795  GLU796  ALA797  LYS798  CYS799  TRP800  GLU811  SER814 

> <Gold.Protein.RotatedAtoms>
  152.5444  134.1806  159.8633 H   0  0  0  0  0  0  0  0  0  0  0  0  # atno 6907 bound_to 6896
  151.1809  133.4719  159.2601 H   0  0  0  0  0  0  0  0  0  0  0  0  # atno 6908 bound_to 6896
  151.1179  135.0075  159.8580 H   0  0  0  0  0  0  0  0  0  0  0  0  # atno 6909 bound_to 6896
  145.1736  140.8938  143.3521 H   0  0  0  0  0  0  0  0  0  0  0  0  # atno 7974 bound_to 7965
  156.0549  140.1334  157.0008 H   0  0  0  0  0  0  0  0  0  0  0  0  # atno 8008 bound_to 7997
  154.4453  140.1003  156.6502 H   0  0  0  0  0  0  0  0  0  0  0  0  # atno 8009 bound_to 7997
  155.5467  140.3462  155.4461 H   0  0  0  0  0  0  0  0  0  0  0  0  # atno 8010 bound_to 7997
  140.3201  144.2716  150.6184 H   0  0  0  0  0  0  0  0  0  0  0  0  # atno 10167 bound_to 10162
  157.4525  131.1067  151.0016 H   0  0  0  0  0  0  0  0  0  0  0  0  # atno 10718 bound_to 10713
  154.2361  135.2776  155.2871 H   0  0  0  0  0  0  0  0  0  0  0  0  # atno 10763 bound_to 10752
  154.5584  135.5654  153.6988 H   0  0  0  0  0  0  0  0  0  0  0  0  # atno 10764 bound_to 10752
  153.0010  135.6291  154.2504 H   0  0  0  0  0  0  0  0  0  0  0  0  # atno 10765 bound_to 10752
  140.7528  133.8578  155.9059 H   0  0  0  0  0  0  0  0  0  0  0  0  # atno 11005 bound_to 11000
  145.0207  139.3426  143.6074 LP  0  0  0  0  0  0  0  0  0  0  0  0  # atno 17320 bound_to 7965
  146.3464  139.9507  142.8729 LP  0  0  0  0  0  0  0  0  0  0  0  0  # atno 17321 bound_to 7965
  140.5491  143.2209  151.7957 LP  0  0  0  0  0  0  0  0  0  0  0  0  # atno 17342 bound_to 10162
  139.4876  144.4500  151.9665 LP  0  0  0  0  0  0  0  0  0  0  0  0  # atno 17343 bound_to 10162
  157.0841  130.5915  149.5426 LP  0  0  0  0  0  0  0  0  0  0  0  0  # atno 17370 bound_to 10713
  155.9993  130.5069  150.7603 LP  0  0  0  0  0  0  0  0  0  0  0  0  # atno 17371 bound_to 10713
  140.9735  134.1500  157.4556 LP  0  0  0  0  0  0  0  0  0  0  0  0  # atno 17394 bound_to 11000
  139.8784  134.9986  156.5912 LP  0  0  0  0  0  0  0  0  0  0  0  0  # atno 17395 bound_to 11000

$$$$
