AV-unprocessed.smi:54|AV-procd|sdf|540|dock5
  -GOLD-   2262016423D 1   1.00000     0.00000
 Structure written by MMmdl.
 44 46  0  0  0  0  0  0  0  0  1 V2000
  150.7647  144.3842  160.7557 C   0  0  0  0  0  0  0  0  0  0  0  0
  152.0789  144.3458  159.9590 C   0  0  0  0  0  0  0  0  0  0  0  0
  152.1650  145.5174  158.9675 C   0  0  0  0  0  0  0  0  0  0  0  0
  152.2269  143.0069  159.2277 C   0  0  0  0  0  0  0  0  0  0  0  0
  153.0333  142.1504  159.5923 O   0  0  0  0  0  0  0  0  0  0  0  0
  151.3537  142.8244  158.0814 N   0  0  0  0  0  0  0  0  0  0  0  0
  151.2852  141.7516  157.2588 C   0  0  0  0  0  0  0  0  0  0  0  0
  150.4453  141.6713  156.2366 N   0  0  0  0  0  0  0  0  0  0  0  0
  150.5195  140.5033  155.5303 C   0  0  0  0  0  0  0  0  0  0  0  0
  151.3654  139.4431  155.7784 C   0  0  0  0  0  0  0  0  0  0  0  0
  151.1473  138.4292  154.8523 N   0  0  0  0  0  0  0  0  0  0  0  0
  150.1930  138.8931  154.0941 C   0  0  0  0  0  0  0  0  0  0  0  0
  149.7549  140.1502  154.4402 N   0  0  0  0  0  0  0  0  0  0  0  0
  148.6864  140.9897  153.8181 C   0  0  1  0  0  0  0  0  0  0  0  0
  148.1618  140.2787  152.7353 O   0  0  0  0  0  0  0  0  0  0  0  0
  146.7746  140.0159  152.9229 C   0  0  1  0  0  0  0  0  0  0  0  0
  146.3746  138.6781  152.2764 C   0  0  0  0  0  0  0  0  0  0  0  0
  146.6546  138.7004  150.8930 O   0  0  0  0  0  0  0  0  0  0  0  0
  146.5260  140.1658  154.4307 C   0  0  1  0  0  0  0  0  0  0  0  0
  146.7520  138.9529  155.1248 O   0  0  0  0  0  0  0  0  0  0  0  0
  147.5541  141.2117  154.8331 C   0  0  2  0  0  0  0  0  0  0  0  0
  147.0225  142.5172  154.7258 O   0  0  0  0  0  0  0  0  0  0  0  0
  152.2859  139.5175  156.8759 C   0  0  0  0  0  0  0  0  0  0  0  0
  153.1067  138.6782  157.2401 O   0  0  0  0  0  0  0  0  0  0  0  0
  152.1763  140.7261  157.5765 N   0  0  0  0  0  0  0  0  0  0  0  0
  149.2014  141.8986  153.5036 H   0  0  0  0  0  0  0  0  0  0  0  0
  146.2469  140.8240  152.4134 H   0  0  0  0  0  0  0  0  0  0  0  0
  145.5043  140.4830  154.6436 H   0  0  0  0  0  0  0  0  0  0  0  0
  147.9071  141.0823  155.8578 H   0  0  0  0  0  0  0  0  0  0  0  0
  150.7001  143.5499  161.4550 H   0  0  0  0  0  0  0  0  0  0  0  0
  149.8952  144.3363  160.0986 H   0  0  0  0  0  0  0  0  0  0  0  0
  150.6882  145.3036  161.3366 H   0  0  0  0  0  0  0  0  0  0  0  0
  152.9047  144.4417  160.6654 H   0  0  0  0  0  0  0  0  0  0  0  0
  153.0921  145.4852  158.3939 H   0  0  0  0  0  0  0  0  0  0  0  0
  152.1384  146.4730  159.4915 H   0  0  0  0  0  0  0  0  0  0  0  0
  151.3347  145.5063  158.2599 H   0  0  0  0  0  0  0  0  0  0  0  0
  150.7324  143.5923  157.8750 H   0  0  0  0  0  0  0  0  0  0  0  0
  149.7835  138.3275  153.2698 H   0  0  0  0  0  0  0  0  0  0  0  0
  146.9436  137.8645  152.7267 H   0  0  0  0  0  0  0  0  0  0  0  0
  145.3201  138.4528  152.4372 H   0  0  0  0  0  0  0  0  0  0  0  0
  145.8394  138.6289  150.4198 H   0  0  0  0  0  0  0  0  0  0  0  0
  147.2049  138.3584  154.5460 H   0  0  0  0  0  0  0  0  0  0  0  0
  147.6862  143.1343  154.9937 H   0  0  0  0  0  0  0  0  0  0  0  0
  152.7928  140.8454  158.3667 H   0  0  0  0  0  0  0  0  0  0  0  0
  1  2  1  0  0  0  0
  1 30  1  0  0  0  0
  1 31  1  0  0  0  0
  1 32  1  0  0  0  0
  2  3  1  0  0  0  0
  2  4  1  0  0  0  0
  2 33  1  0  0  0  0
  3 34  1  0  0  0  0
  3 35  1  0  0  0  0
  3 36  1  0  0  0  0
  4  5  2  0  0  0  0
  4  6  1  0  0  0  0
  6 37  1  0  0  0  0
  6  7  1  0  0  0  0
  7 25  1  0  0  0  0
  7  8  2  0  0  0  0
  8  9  1  0  0  0  0
  9 13  1  0  0  0  0
  9 10  2  0  0  0  0
 10 11  1  0  0  0  0
 10 23  1  0  0  0  0
 11 12  2  0  0  0  0
 12 13  1  0  0  0  0
 12 38  1  0  0  0  0
 13 14  1  0  0  0  0
 14 26  1  0  0  0  0
 14 21  1  0  0  0  0
 14 15  1  0  0  0  0
 15 16  1  0  0  0  0
 16 27  1  0  0  0  0
 16 17  1  0  0  0  0
 16 19  1  0  0  0  0
 17 18  1  0  0  0  0
 17 39  1  0  0  0  0
 17 40  1  0  0  0  0
 18 41  1  0  0  0  0
 19 28  1  0  0  0  0
 19 20  1  0  0  0  0
 19 21  1  0  0  0  0
 20 42  1  0  0  0  0
 21 29  1  0  0  0  0
 21 22  1  0  0  0  0
 22 43  1  0  0  0  0
 23 24  2  0  0  0  0
 23 25  1  0  0  0  0
 25 44  1  0  0  0  0
M  END
> <s_m_source_file>
AV-unprocessed.smi

> <i_m_source_file_index>
54

> <i_lp_mmshare_version>
43012

> <i_f3d_flags>
0

> <s_epik_input>
W0NIM11bQ0hdKFtDSDNdKUMoPU8pW05IXWMobjEpW25IXWMoPU8pYyhjMTIpbltjSF1uMltDQEBIXTNPW0NASF0oW0NIMl1bT0hdKVtDQEBIXShbT0hdKVtDQEhdM1tPSF0=

> <s_epik_cmdline>
J2VwaWtfcHl0aG9uJywgJy1waCcsICc3LjAnLCAnLXRuJywgJzgnLCAnLW1hJywgJzIwMCcsICctbWV0YWxfYmluZGluZycsICctaW1hZScsICc8aW5maWxlLm1hZT4nLCAnLW9tYWUnLCAnPG91dGZpbGUubWFlPic=

> <r_lp_tautomer_probability>
0.85571

> <r_epik_Ionization_Penalty>
0.0316551

> <r_epik_Ionization_Penalty_Charging>
0.0316043

> <r_epik_Ionization_Penalty_Neutral>
5.07097e-05

> <r_epik_State_Penalty>
3.15494e-07

> <r_epik_Charging_Adjusted_Penalty>
0.0316047

> <i_epik_Tot_Q>
0

> <i_epik_Tot_abs_Q>
0

> <r_epik_Metal_State_Penalty>
0.421206

> <b_epik_Metal_Only>
0

> <s_epik_Chemistry_Notes>
This compound contains an acetal/aminal-like group ( X-CH(R)-Y where X, Y are N, S, or O) that may be acid/base labile, releasing an aldehyde.

> <s_lp_Force_Field>
OPLS_2005

> <r_lp_Energy>
34.69

> <b_lp_Chiralities_Consistent>
1

> <s_lp_Variant>
AV-unprocessed.smi:54-12

> <Gold.Version>
5.8.1

> <Gold.Id.Protein>
6NUR|6NUR_protein|mol2

> <Gold.PLP.Fitness>
51.1628

> <Gold.PLP.PLP>
-38.0091

> <Gold.PLP.part.hbond>
-4.4122

> <Gold.PLP.part.metal>
0.0000

> <Gold.PLP.part.buried>
-0.7938

> <Gold.PLP.part.nonpolar>
-37.4652

> <Gold.PLP.part.repulsive>
6.6947

> <Gold.PLP.ligand.clash>
0.0000

> <Gold.PLP.ligand.torsion>
0.2319

> <Gold.PLP.Chemscore.Hbond>
3.4209

> <Gold.PLP.Chemscore.CHOScore>
1.1095

> <Gold.PLP.Chemscore.Metal>
0.0000

> <Gold.Chemscore.Hbonds>
donor molecule, donor type, donor heavy atom, donor atom, acceptor molecule, acceptor atom, score
      L1  H    18    41       P1 10171  0.98
      L1  H    22    43       P1  8028  0.93
      P1  H  7954  7966       L1    18  0.90
      P1  H  7997  8008       L1    24  0.55
      L1  C    12    38       P1  7948  0.79
      L1  C    12    38       P1  7957  0.31

> <Gold.PLP.Chemscore.Internal.Correction>
0.0261

> <Gold.Rescore>
     Score         DG    S(hbond)    S(metal)    S(lipo)     H(rot)  DE(clash)    DE(int)     intcor
      8.01     -10.60       2.30        0.00      66.68       4.05       2.30       0.29       ----

> <Gold.Chemscore.Fitness>
8.0091

> <Gold.Chemscore.DG>
-10.6009

> <Gold.Chemscore.ZeroCoef>
-5.4800

> <Gold.Chemscore.Hbond>
2.3010

> <Gold.Chemscore.Metal>
0.0000

> <Gold.Chemscore.Lipo>
66.6817

> <Gold.Chemscore.Internal_Hbond>
0.0000

> <Gold.Chemscore.DEClash>
2.2985

> <Gold.Chemscore.DEInternal>
0.2933

> <Gold.Chemscore.Rot>
4.0493

> <Gold.Chemscore.Internal.Correction>
   9.000000E+99

> <Gold.Chemscore.Hbonds>
donor molecule, donor type, donor heavy atom, donor atom, acceptor molecule, acceptor atom, score
      L1  H    18    41       P1 10171  0.92
      L1  H    22    43       P1  8028  0.49
      P1  H  7954  7966       L1    18  0.70
      P1  H  7997  8008       L1    24  0.04

> <Gold.Chemscore.Hbond.Weighted>
-7.6854

> <Gold.Chemscore.Metal.Weighted>
-0.0000

> <Gold.Chemscore.Lipo.Weighted>
-7.8018

> <Gold.Chemscore.Internal_Hbond.Weighted>
0.0000

> <Gold.Chemscore.DEClash.Weighted>
2.2985

> <Gold.Chemscore.DEInternal.Weighted>
0.2933

> <Gold.Chemscore.Rot.Weighted>
10.3662

> <Gold.Chemscore.Internal.Correction.Weighted>
   9.000000E+99

> <Gold.Protein.RotatedTorsions>
[ 6907 6896 6895 6894 ] final  -52.54 input  -60.11 | X-H torsion
[ 7974 7965 7964 7962 ] final   12.78 input  175.53 | X-H torsion
[ 8008 7997 7996 7995 ] final  -89.79 input   59.86 | X-H torsion
[ 10167 10162 10161 10158 ] final  -30.88 input  -65.29 | X-H torsion
[ 10718 10713 10712 10709 ] final  -70.85 input   66.30 | X-H torsion
[ 10763 10752 10751 10750 ] final  129.31 input  -60.55 | X-H torsion
[ 11005 11000 10999 10996 ] final  114.40 input  -57.11 | X-H torsion

> <Gold.Protein.ActiveResidues>
 VAL166  LYS551  ARG553  GLY616  TRP617  ASP618  TYR619  PRO620  LYS621  CYS622 
 ASP623  PHE694  ASN695  SER759  ASP760  ASP761  ALA762  ILE779  LEU786  VAL792 
 PHE793  MET794  SER795  GLU796  ALA797  LYS798  CYS799  TRP800  GLU811  SER814 

> <Gold.Protein.RotatedAtoms>
  150.8509  134.7833  159.7007 H   0  0  0  0  0  0  0  0  0  0  0  0  # atno 6907 bound_to 6896
  152.4574  134.5258  159.9806 H   0  0  0  0  0  0  0  0  0  0  0  0  # atno 6908 bound_to 6896
  151.5380  133.3399  159.2966 H   0  0  0  0  0  0  0  0  0  0  0  0  # atno 6909 bound_to 6896
  146.2344  139.9286  142.8499 H   0  0  0  0  0  0  0  0  0  0  0  0  # atno 7974 bound_to 7965
  154.6908  140.0537  157.0362 H   0  0  0  0  0  0  0  0  0  0  0  0  # atno 8008 bound_to 7997
  155.0819  140.3210  155.4580 H   0  0  0  0  0  0  0  0  0  0  0  0  # atno 8009 bound_to 7997
  156.2727  140.2063  156.5947 H   0  0  0  0  0  0  0  0  0  0  0  0  # atno 8010 bound_to 7997
  140.7244  143.3814  151.1594 H   0  0  0  0  0  0  0  0  0  0  0  0  # atno 10167 bound_to 10162
  156.0389  130.4339  150.2357 H   0  0  0  0  0  0  0  0  0  0  0  0  # atno 10718 bound_to 10713
  153.7397  135.3226  155.3302 H   0  0  0  0  0  0  0  0  0  0  0  0  # atno 10763 bound_to 10752
  154.8299  135.4542  154.1039 H   0  0  0  0  0  0  0  0  0  0  0  0  # atno 10764 bound_to 10752
  153.2210  135.6948  153.8082 H   0  0  0  0  0  0  0  0  0  0  0  0  # atno 10765 bound_to 10752
  139.8979  134.9567  156.6886 H   0  0  0  0  0  0  0  0  0  0  0  0  # atno 11005 bound_to 11000
  145.2066  140.9878  143.4124 LP  0  0  0  0  0  0  0  0  0  0  0  0  # atno 17320 bound_to 7965
  144.9727  139.3863  143.6301 LP  0  0  0  0  0  0  0  0  0  0  0  0  # atno 17321 bound_to 7965
  139.7404  143.8934  152.3048 LP  0  0  0  0  0  0  0  0  0  0  0  0  # atno 17342 bound_to 10162
  139.8753  144.7047  150.8940 LP  0  0  0  0  0  0  0  0  0  0  0  0  # atno 17343 bound_to 10162
  157.0454  131.0047  151.3270 LP  0  0  0  0  0  0  0  0  0  0  0  0  # atno 17370 bound_to 10713
  157.5179  130.7980  149.7777 LP  0  0  0  0  0  0  0  0  0  0  0  0  # atno 17371 bound_to 10713
  140.7243  133.9114  155.8168 LP  0  0  0  0  0  0  0  0  0  0  0  0  # atno 17394 bound_to 11000
  141.0203  134.0898  157.4127 LP  0  0  0  0  0  0  0  0  0  0  0  0  # atno 17395 bound_to 11000

$$$$
