AV-unprocessed.smi:1324|AV-procd|sdf|5471|dock1
  -GOLD-   22720 5 43D 1   1.00000     0.00000
 Structure written by MMmdl.
 42 43  0  0  0  0  0  0  0  0  2 V2000
  150.0651  134.3764  155.0400 C   0  0  0  0  0  0  0  0  0  0  0  0
  150.3262  135.8656  155.1121 C   0  0  0  0  0  0  0  0  0  0  0  0
  149.4369  136.6772  154.6816 N   0  0  0  0  0  0  0  0  0  0  0  0
  149.6724  138.0608  154.7501 C   0  0  0  0  0  0  0  0  0  0  0  0
  148.5603  138.9499  154.2219 C   0  0  0  0  0  0  0  0  0  0  0  0
  150.8345  138.5541  155.2663 C   0  0  0  0  0  0  0  0  0  0  0  0
  151.1388  140.0491  155.3691 C   0  0  0  0  0  0  0  0  0  0  0  0
  151.3027  140.6159  156.7819 C   0  0  0  0  0  0  0  0  0  0  0  0
  151.4197  139.8678  157.7530 O   0  0  0  0  0  0  0  0  0  0  0  0
  151.3098  141.9547  156.8782 N   0  0  0  0  0  0  0  0  0  0  0  0
  151.4560  142.7174  158.1166 C   0  0  0  0  0  0  0  0  0  0  0  0
  151.6293  144.2148  157.7709 C   0  0  0  0  0  0  0  0  0  0  0  0
  152.1737  145.1350  158.8784 C   0  0  0  0  0  0  0  0  0  0  0  0
  151.7205  144.8025  160.3083 C   0  0  0  0  0  0  0  0  0  0  0  0
  152.6135  143.7461  160.9799 C   0  0  0  0  0  0  0  0  0  0  0  0
  152.4070  142.3120  160.4715 C   0  0  0  0  0  0  0  0  0  0  0  0
  152.6012  142.1153  158.9568 C   0  0  0  0  0  0  0  0  0  0  0  0
  151.8375  137.5850  155.7427 C   0  0  0  0  0  0  0  0  0  0  0  0
  152.9110  137.9763  156.1996 O   0  0  0  0  0  0  0  0  0  0  0  0
  151.5297  136.2596  155.6521 N   0  5  0  0  0  0  0  0  0  0  0  0
  149.2149  134.1579  154.3925 H   0  0  0  0  0  0  0  0  0  0  0  0
  149.8498  133.9850  156.0344 H   0  0  0  0  0  0  0  0  0  0  0  0
  150.9367  133.8544  154.6431 H   0  0  0  0  0  0  0  0  0  0  0  0
  148.1318  139.5440  155.0294 H   0  0  0  0  0  0  0  0  0  0  0  0
  147.7585  138.3578  153.7789 H   0  0  0  0  0  0  0  0  0  0  0  0
  148.9389  139.6256  153.4547 H   0  0  0  0  0  0  0  0  0  0  0  0
  152.0593  140.2535  154.8226 H   0  0  0  0  0  0  0  0  0  0  0  0
  150.3748  140.6274  154.8480 H   0  0  0  0  0  0  0  0  0  0  0  0
  151.2056  142.4874  156.0267 H   0  0  0  0  0  0  0  0  0  0  0  0
  150.5328  142.5981  158.6868 H   0  0  0  0  0  0  0  0  0  0  0  0
  152.2833  144.3199  156.9038 H   0  0  0  0  0  0  0  0  0  0  0  0
  150.6604  144.5989  157.4489 H   0  0  0  0  0  0  0  0  0  0  0  0
  153.2637  145.1432  158.8390 H   0  0  0  0  0  0  0  0  0  0  0  0
  151.8737  146.1564  158.6409 H   0  0  0  0  0  0  0  0  0  0  0  0
  151.7868  145.7153  160.9017 H   0  0  0  0  0  0  0  0  0  0  0  0
  150.6706  144.5080  160.3316 H   0  0  0  0  0  0  0  0  0  0  0  0
  153.6621  144.0267  160.8735 H   0  0  0  0  0  0  0  0  0  0  0  0
  152.4150  143.7560  162.0520 H   0  0  0  0  0  0  0  0  0  0  0  0
  153.1090  141.6637  160.9970 H   0  0  0  0  0  0  0  0  0  0  0  0
  151.4153  141.9622  160.7610 H   0  0  0  0  0  0  0  0  0  0  0  0
  152.6397  141.0390  158.7815 H   0  0  0  0  0  0  0  0  0  0  0  0
  153.5679  142.5026  158.6327 H   0  0  0  0  0  0  0  0  0  0  0  0
  1  2  1  0  0  0  0
  1 21  1  0  0  0  0
  1 22  1  0  0  0  0
  1 23  1  0  0  0  0
  2 20  1  0  0  0  0
  2  3  2  0  0  0  0
  3  4  1  0  0  0  0
  4  5  1  0  0  0  0
  4  6  2  0  0  0  0
  5 24  1  0  0  0  0
  5 25  1  0  0  0  0
  5 26  1  0  0  0  0
  6  7  1  0  0  0  0
  6 18  1  0  0  0  0
  7  8  1  0  0  0  0
  7 27  1  0  0  0  0
  7 28  1  0  0  0  0
  8  9  2  0  0  0  0
  8 10  1  0  0  0  0
 10 11  1  0  0  0  0
 10 29  1  0  0  0  0
 11 17  1  0  0  0  0
 11 12  1  0  0  0  0
 11 30  1  0  0  0  0
 12 13  1  0  0  0  0
 12 31  1  0  0  0  0
 12 32  1  0  0  0  0
 13 14  1  0  0  0  0
 13 33  1  0  0  0  0
 13 34  1  0  0  0  0
 14 15  1  0  0  0  0
 14 35  1  0  0  0  0
 14 36  1  0  0  0  0
 15 16  1  0  0  0  0
 15 37  1  0  0  0  0
 15 38  1  0  0  0  0
 16 17  1  0  0  0  0
 16 39  1  0  0  0  0
 16 40  1  0  0  0  0
 17 41  1  0  0  0  0
 17 42  1  0  0  0  0
 18 19  2  0  0  0  0
 18 20  1  0  0  0  0
M  CHG  1  20  -1
M  END
> <s_m_source_file>
AV-unprocessed.smi

> <i_m_source_file_index>
1324

> <i_lp_mmshare_version>
43012

> <i_f3d_flags>
0

> <s_epik_input>
W0NIM11jMW5jKFtDSDNdKWMoYyg9TylbbkhdMSlbQ0gyXUMoPU8pW05IXVtDSF0yW0NIMl1bQ0gyXVtDSDJdW0NIMl1bQ0gyXVtDSDJdMg==

> <s_epik_cmdline>
J2VwaWtfcHl0aG9uJywgJy1waCcsICc3LjAnLCAnLXRuJywgJzgnLCAnLW1hJywgJzIwMCcsICctbWV0YWxfYmluZGluZycsICctaW1hZScsICc8aW5maWxlLm1hZT4nLCAnLW9tYWUnLCAnPG91dGZpbGUubWFlPic=

> <r_lp_tautomer_probability>
0.839158

> <r_epik_Ionization_Penalty>
6.62804

> <r_epik_Ionization_Penalty_Charging>
7.40585e-08

> <r_epik_Ionization_Penalty_Neutral>
6.62804

> <r_epik_State_Penalty>
4.44437

> <r_epik_Charging_Adjusted_Penalty>
4.44437

> <i_epik_Tot_Q>
-1

> <i_epik_Tot_abs_Q>
1

> <r_epik_Metal_State_Penalty>
0.804717

> <b_epik_Metal_Only>
1

> <s_lp_Force_Field>
OPLS_2005

> <r_lp_Energy>
20.4911

> <b_lp_Chiralities_Consistent>
1

> <s_lp_Variant>
AV-unprocessed.smi:1324-3

> <Gold.Version>
5.8.1

> <Gold.Id.Protein>
6NUR|6NUR_protein|mol2

> <Gold.PLP.Fitness>
45.1270

> <Gold.PLP.PLP>
-39.6624

> <Gold.PLP.part.hbond>
-1.0000

> <Gold.PLP.part.metal>
0.0000

> <Gold.PLP.part.buried>
-4.2834

> <Gold.PLP.part.nonpolar>
-36.4357

> <Gold.PLP.part.repulsive>
2.0311

> <Gold.PLP.ligand.clash>
0.0000

> <Gold.PLP.ligand.torsion>
0.2791

> <Gold.PLP.Chemscore.Hbond>
2.0000

> <Gold.PLP.Chemscore.CHOScore>
0.0000

> <Gold.PLP.Chemscore.Metal>
0.0000

> <Gold.Chemscore.Hbonds>
donor molecule, donor type, donor heavy atom, donor atom, acceptor molecule, acceptor atom, score
      P1  H 10752 10763       L1    20  2.00

> <Gold.PLP.Chemscore.Internal.Correction>
0.0227

> <Gold.Rescore>
     Score         DG    S(hbond)    S(metal)    S(lipo)     H(rot)  DE(clash)    DE(int)     intcor
     16.15     -18.25       1.19        0.00     106.81       1.45       0.32       1.78       ----

> <Gold.Chemscore.Fitness>
16.1488

> <Gold.Chemscore.DG>
-18.2493

> <Gold.Chemscore.ZeroCoef>
-5.4800

> <Gold.Chemscore.Hbond>
1.1892

> <Gold.Chemscore.Metal>
0.0000

> <Gold.Chemscore.Lipo>
106.8087

> <Gold.Chemscore.Internal_Hbond>
0.0000

> <Gold.Chemscore.DEClash>
0.3221

> <Gold.Chemscore.DEInternal>
1.7784

> <Gold.Chemscore.Rot>
1.4450

> <Gold.Chemscore.Internal.Correction>
   9.000000E+99

> <Gold.Chemscore.Hbonds>
donor molecule, donor type, donor heavy atom, donor atom, acceptor molecule, acceptor atom, score
      P1  H 10752 10763       L1    20  0.39

> <Gold.Chemscore.Hbond.Weighted>
-3.9719

> <Gold.Chemscore.Metal.Weighted>
-0.0000

> <Gold.Chemscore.Lipo.Weighted>
-12.4966

> <Gold.Chemscore.Internal_Hbond.Weighted>
0.0000

> <Gold.Chemscore.DEClash.Weighted>
0.3221

> <Gold.Chemscore.DEInternal.Weighted>
1.7784

> <Gold.Chemscore.Rot.Weighted>
3.6992

> <Gold.Chemscore.Internal.Correction.Weighted>
   9.000000E+99

> <Gold.Protein.RotatedTorsions>
[ 6907 6896 6895 6894 ] final  168.92 input  -60.11 | X-H torsion
[ 7974 7965 7964 7962 ] final   66.33 input  175.53 | X-H torsion
[ 8008 7997 7996 7995 ] final   -2.27 input   59.86 | X-H torsion
[ 10167 10162 10161 10158 ] final -140.25 input  -65.29 | X-H torsion
[ 10718 10713 10712 10709 ] final   53.63 input   66.30 | X-H torsion
[ 10763 10752 10751 10750 ] final   73.99 input  -60.55 | X-H torsion
[ 11005 11000 10999 10996 ] final  106.67 input  -57.11 | X-H torsion

> <Gold.Protein.ActiveResidues>
 VAL166  LYS551  ARG553  GLY616  TRP617  ASP618  TYR619  PRO620  LYS621  CYS622 
 ASP623  PHE694  ASN695  SER759  ASP760  ASP761  ALA762  ILE779  LEU786  VAL792 
 PHE793  MET794  SER795  GLU796  ALA797  LYS798  CYS799  TRP800  GLU811  SER814 

> <Gold.Protein.RotatedAtoms>
  151.8400  133.3422  159.3639 H   0  0  0  0  0  0  0  0  0  0  0  0  # atno 6907 bound_to 6896
  150.7238  134.5400  159.5752 H   0  0  0  0  0  0  0  0  0  0  0  0  # atno 6908 bound_to 6896
  152.2872  134.7763  160.0436 H   0  0  0  0  0  0  0  0  0  0  0  0  # atno 6909 bound_to 6896
  145.8279  139.3122  143.1005 H   0  0  0  0  0  0  0  0  0  0  0  0  # atno 7974 bound_to 7965
  154.6376  140.2539  155.7359 H   0  0  0  0  0  0  0  0  0  0  0  0  # atno 8008 bound_to 7997
  156.2512  140.2894  156.0676 H   0  0  0  0  0  0  0  0  0  0  0  0  # atno 8009 bound_to 7997
  155.1646  140.0385  157.2840 H   0  0  0  0  0  0  0  0  0  0  0  0  # atno 8010 bound_to 7997
  139.8300  143.7459  152.2666 H   0  0  0  0  0  0  0  0  0  0  0  0  # atno 10167 bound_to 10162
  157.5184  130.8548  149.8526 H   0  0  0  0  0  0  0  0  0  0  0  0  # atno 10718 bound_to 10713
  153.0558  135.5042  154.7976 H   0  0  0  0  0  0  0  0  0  0  0  0  # atno 10763 bound_to 10752
  154.6804  135.2967  154.9623 H   0  0  0  0  0  0  0  0  0  0  0  0  # atno 10764 bound_to 10752
  154.0412  135.6716  153.4843 H   0  0  0  0  0  0  0  0  0  0  0  0  # atno 10765 bound_to 10752
  139.8817  134.9376  156.5702 H   0  0  0  0  0  0  0  0  0  0  0  0  # atno 11005 bound_to 11000
  145.9603  140.8840  143.0214 LP  0  0  0  0  0  0  0  0  0  0  0  0  # atno 17320 bound_to 7965
  144.6742  140.1803  143.7406 LP  0  0  0  0  0  0  0  0  0  0  0  0  # atno 17321 bound_to 7965
  139.7664  144.7490  151.0288 LP  0  0  0  0  0  0  0  0  0  0  0  0  # atno 17342 bound_to 10162
  140.7807  143.4693  151.0168 LP  0  0  0  0  0  0  0  0  0  0  0  0  # atno 17343 bound_to 10162
  156.0336  130.3757  150.1620 LP  0  0  0  0  0  0  0  0  0  0  0  0  # atno 17370 bound_to 10713
  156.9809  130.9864  151.3437 LP  0  0  0  0  0  0  0  0  0  0  0  0  # atno 17371 bound_to 10713
  140.8104  133.8434  155.8805 LP  0  0  0  0  0  0  0  0  0  0  0  0  # atno 17394 bound_to 11000
  140.9511  134.1777  157.4727 LP  0  0  0  0  0  0  0  0  0  0  0  0  # atno 17395 bound_to 11000

$$$$
