AV-unprocessed.smi:781|AV-procd|sdf|3707|dock1
  -GOLD-   22720 1133D 1   1.00000     0.00000
 Structure written by MMmdl.
 38 40  0  0  0  0  0  0  0  0  1 V2000
  148.1443  129.7050  153.5013 C   0  0  0  0  0  0  0  0  0  0  0  0
  148.6608  131.0320  153.9406 C   0  0  0  0  0  0  0  0  0  0  0  0
  148.3960  132.3118  153.5415 C   0  0  0  0  0  0  0  0  0  0  0  0
  149.2381  133.0893  154.3803 C   0  0  0  0  0  0  0  0  0  0  0  0
  149.2591  134.5035  154.2793 N   0  0  0  0  0  0  0  0  0  0  0  0
  149.6374  135.3871  155.2185 C   0  0  0  0  0  0  0  0  0  0  0  0
  150.0368  135.0975  156.3466 O   0  0  0  0  0  0  0  0  0  0  0  0
  149.5268  136.6460  154.7723 N   0  0  0  0  0  0  0  0  0  0  0  0
  149.8621  137.8422  155.5406 C   0  0  2  0  0  0  0  0  0  0  0  0
  148.6713  138.8259  155.5540 C   0  0  1  0  0  0  0  0  0  0  0  0
  148.8953  139.8588  156.6731 C   0  0  0  0  0  0  0  0  0  0  0  0
  150.0268  140.7316  156.0982 C   0  0  0  0  0  0  0  0  0  0  0  0
  150.3149  140.0713  154.7325 C   0  0  2  0  0  0  0  0  0  0  0  0
  148.9098  139.6683  154.3036 C   0  0  0  0  0  0  0  0  0  0  0  0
  150.9869  138.6836  154.8843 C   0  0  1  0  0  0  0  0  0  0  0  0
  152.3239  138.6546  155.6505 C   0  0  0  0  0  0  0  0  0  0  0  0
  153.2970  139.4194  154.9709 O   0  0  0  0  0  0  0  0  0  0  0  0
  149.9533  132.3510  155.2153 N   0  0  0  0  0  0  0  0  0  0  0  0
  149.5872  131.0286  154.9374 O   0  0  0  0  0  0  0  0  0  0  0  0
  147.2454  129.8184  152.8951 H   0  0  0  0  0  0  0  0  0  0  0  0
  147.8943  129.0823  154.3603 H   0  0  0  0  0  0  0  0  0  0  0  0
  148.8901  129.1782  152.9060 H   0  0  0  0  0  0  0  0  0  0  0  0
  147.7099  132.6366  152.7735 H   0  0  0  0  0  0  0  0  0  0  0  0
  148.9516  134.8838  153.3967 H   0  0  0  0  0  0  0  0  0  0  0  0
  149.1918  136.7911  153.8311 H   0  0  0  0  0  0  0  0  0  0  0  0
  150.1165  137.5495  156.5614 H   0  0  0  0  0  0  0  0  0  0  0  0
  147.6950  138.3425  155.6071 H   0  0  0  0  0  0  0  0  0  0  0  0
  147.9973  140.4555  156.8373 H   0  0  0  0  0  0  0  0  0  0  0  0
  149.1656  139.3953  157.6226 H   0  0  0  0  0  0  0  0  0  0  0  0
  149.6754  141.7545  155.9569 H   0  0  0  0  0  0  0  0  0  0  0  0
  150.8976  140.7801  156.7505 H   0  0  0  0  0  0  0  0  0  0  0  0
  150.8298  140.7285  154.0312 H   0  0  0  0  0  0  0  0  0  0  0  0
  148.8864  139.0898  153.3783 H   0  0  0  0  0  0  0  0  0  0  0  0
  148.2239  140.5123  154.2122 H   0  0  0  0  0  0  0  0  0  0  0  0
  151.1788  138.3032  153.8788 H   0  0  0  0  0  0  0  0  0  0  0  0
  152.2195  139.0184  156.6718 H   0  0  0  0  0  0  0  0  0  0  0  0
  152.6871  137.6293  155.7224 H   0  0  0  0  0  0  0  0  0  0  0  0
  153.4855  138.9992  154.1457 H   0  0  0  0  0  0  0  0  0  0  0  0
  1  2  1  0  0  0  0
  1 20  1  0  0  0  0
  1 21  1  0  0  0  0
  1 22  1  0  0  0  0
  2 19  1  0  0  0  0
  2  3  2  0  0  0  0
  3  4  1  0  0  0  0
  3 23  1  0  0  0  0
  4  5  1  0  0  0  0
  4 18  2  0  0  0  0
  5  6  1  0  0  0  0
  5 24  1  0  0  0  0
  6  7  2  0  0  0  0
  6  8  1  0  0  0  0
  8  9  1  0  0  0  0
  8 25  1  0  0  0  0
  9 15  1  0  0  0  0
  9 10  1  0  0  0  0
  9 26  1  0  0  0  0
 10 14  1  0  0  0  0
 10 11  1  0  0  0  0
 10 27  1  0  0  0  0
 11 12  1  0  0  0  0
 11 28  1  0  0  0  0
 11 29  1  0  0  0  0
 12 13  1  0  0  0  0
 12 30  1  0  0  0  0
 12 31  1  0  0  0  0
 13 14  1  0  0  0  0
 13 15  1  0  0  0  0
 13 32  1  0  0  0  0
 14 33  1  0  0  0  0
 14 34  1  0  0  0  0
 15 16  1  0  0  0  0
 15 35  1  0  0  0  0
 16 17  1  0  0  0  0
 16 36  1  0  0  0  0
 16 37  1  0  0  0  0
 17 38  1  0  0  0  0
 18 19  1  0  0  0  0
M  END
> <s_m_source_file>
AV-unprocessed.smi

> <i_m_source_file_index>
781

> <i_lp_mmshare_version>
43012

> <i_f3d_flags>
0

> <s_epik_input>
W0NIM11jMVtjSF1jKG5vMSlbTkhdQyg9TylbTkhdW0NASF0oW0NAQEhdMjMpW0NASF0oW0NIMl1bT0hdKVtDQEBIXShbQ0gyXTMpW0NIMl1bQ0gyXTI=

> <s_epik_cmdline>
J2VwaWtfcHl0aG9uJywgJy1waCcsICc3LjAnLCAnLXRuJywgJzgnLCAnLW1hJywgJzIwMCcsICctbWV0YWxfYmluZGluZycsICctaW1hZScsICc8aW5maWxlLm1hZT4nLCAnLW9tYWUnLCAnPG91dGZpbGUubWFlPic=

> <r_lp_tautomer_probability>
1

> <r_epik_Ionization_Penalty>
2.32222e-05

> <r_epik_Ionization_Penalty_Charging>
0

> <r_epik_Ionization_Penalty_Neutral>
2.32222e-05

> <r_epik_State_Penalty>
-0

> <r_epik_Charging_Adjusted_Penalty>
0

> <i_epik_Tot_Q>
0

> <i_epik_Tot_abs_Q>
0

> <r_epik_Metal_State_Penalty>
-0

> <b_epik_Metal_Only>
0

> <s_lp_Force_Field>
OPLS_2005

> <r_lp_Energy>
47.0606

> <b_lp_Chiralities_Consistent>
1

> <s_lp_Variant>
AV-unprocessed.smi:781-1

> <Gold.Version>
5.8.1

> <Gold.Id.Protein>
6NUR|6NUR_protein|mol2

> <Gold.PLP.Fitness>
38.5655

> <Gold.PLP.PLP>
-29.9589

> <Gold.PLP.part.hbond>
-4.0000

> <Gold.PLP.part.metal>
0.0000

> <Gold.PLP.part.buried>
-2.9144

> <Gold.PLP.part.nonpolar>
-23.7613

> <Gold.PLP.part.repulsive>
0.0891

> <Gold.PLP.ligand.clash>
0.0000

> <Gold.PLP.ligand.torsion>
0.1368

> <Gold.PLP.Chemscore.Hbond>
2.9539

> <Gold.PLP.Chemscore.CHOScore>
0.0000

> <Gold.PLP.Chemscore.Metal>
0.0000

> <Gold.Chemscore.Hbonds>
donor molecule, donor type, donor heavy atom, donor atom, acceptor molecule, acceptor atom, score
      L1  H     5    24       P1  7948  1.00
      L1  H     8    25       P1  7948  0.98
      P1  H  7997  8009       L1    17  1.00

> <Gold.PLP.Chemscore.Internal.Correction>
0.0188

> <Gold.Rescore>
     Score         DG    S(hbond)    S(metal)    S(lipo)     H(rot)  DE(clash)    DE(int)     intcor
     13.76     -15.71       2.51        0.00      56.37       1.86       0.87       1.08       ----

> <Gold.Chemscore.Fitness>
13.7572

> <Gold.Chemscore.DG>
-15.7127

> <Gold.Chemscore.ZeroCoef>
-5.4800

> <Gold.Chemscore.Hbond>
2.5136

> <Gold.Chemscore.Metal>
0.0000

> <Gold.Chemscore.Lipo>
56.3735

> <Gold.Chemscore.Internal_Hbond>
0.0000

> <Gold.Chemscore.DEClash>
0.8733

> <Gold.Chemscore.DEInternal>
1.0822

> <Gold.Chemscore.Rot>
1.8587

> <Gold.Chemscore.Internal.Correction>
   9.000000E+99

> <Gold.Chemscore.Hbonds>
donor molecule, donor type, donor heavy atom, donor atom, acceptor molecule, acceptor atom, score
      L1  H     5    24       P1  7948  0.24
      L1  H     8    25       P1  7948  0.87
      P1  H  7997  8009       L1    17  0.92

> <Gold.Chemscore.Hbond.Weighted>
-8.3953

> <Gold.Chemscore.Metal.Weighted>
-0.0000

> <Gold.Chemscore.Lipo.Weighted>
-6.5957

> <Gold.Chemscore.Internal_Hbond.Weighted>
0.0000

> <Gold.Chemscore.DEClash.Weighted>
0.8733

> <Gold.Chemscore.DEInternal.Weighted>
1.0822

> <Gold.Chemscore.Rot.Weighted>
4.7583

> <Gold.Chemscore.Internal.Correction.Weighted>
   9.000000E+99

> <Gold.Protein.RotatedTorsions>
[ 6907 6896 6895 6894 ] final  -36.09 input  -60.11 | X-H torsion
[ 7974 7965 7964 7962 ] final   40.52 input  175.53 | X-H torsion
[ 8008 7997 7996 7995 ] final -122.40 input   59.86 | X-H torsion
[ 10167 10162 10161 10158 ] final -165.91 input  -65.29 | X-H torsion
[ 10718 10713 10712 10709 ] final  -57.76 input   66.30 | X-H torsion
[ 10763 10752 10751 10750 ] final   -4.94 input  -60.55 | X-H torsion
[ 11005 11000 10999 10996 ] final   10.82 input  -57.11 | X-H torsion

> <Gold.Protein.ActiveResidues>
 VAL166  LYS551  ARG553  GLY616  TRP617  ASP618  TYR619  PRO620  LYS621  CYS622 
 ASP623  PHE694  ASN695  SER759  ASP760  ASP761  ALA762  ILE779  LEU786  VAL792 
 PHE793  MET794  SER795  GLU796  ALA797  LYS798  CYS799  TRP800  GLU811  SER814 

> <Gold.Protein.RotatedAtoms>
  151.0316  134.9543  159.8113 H   0  0  0  0  0  0  0  0  0  0  0  0  # atno 6907 bound_to 6896
  152.5346  134.2773  159.9004 H   0  0  0  0  0  0  0  0  0  0  0  0  # atno 6908 bound_to 6896
  151.2783  133.4179  159.2659 H   0  0  0  0  0  0  0  0  0  0  0  0  # atno 6909 bound_to 6896
  146.0898  139.5523  142.9483 H   0  0  0  0  0  0  0  0  0  0  0  0  # atno 7974 bound_to 7965
  155.1637  140.0406  157.2848 H   0  0  0  0  0  0  0  0  0  0  0  0  # atno 8008 bound_to 7997
  154.6318  140.2526  155.7397 H   0  0  0  0  0  0  0  0  0  0  0  0  # atno 8009 bound_to 7997
  156.2488  140.2873  156.0673 H   0  0  0  0  0  0  0  0  0  0  0  0  # atno 8010 bound_to 7997
  139.6150  144.0738  152.1879 H   0  0  0  0  0  0  0  0  0  0  0  0  # atno 10167 bound_to 10162
  156.1186  130.4168  150.0485 H   0  0  0  0  0  0  0  0  0  0  0  0  # atno 10718 bound_to 10713
  153.3916  135.7002  153.6490 H   0  0  0  0  0  0  0  0  0  0  0  0  # atno 10763 bound_to 10752
  153.5060  135.3642  155.2564 H   0  0  0  0  0  0  0  0  0  0  0  0  # atno 10764 bound_to 10752
  154.8703  135.4123  154.3234 H   0  0  0  0  0  0  0  0  0  0  0  0  # atno 10765 bound_to 10752
  140.5101  134.0660  155.7816 H   0  0  0  0  0  0  0  0  0  0  0  0  # atno 11005 bound_to 11000
  145.6061  141.0347  143.1992 LP  0  0  0  0  0  0  0  0  0  0  0  0  # atno 17320 bound_to 7965
  144.7352  139.7608  143.7332 LP  0  0  0  0  0  0  0  0  0  0  0  0  # atno 17321 bound_to 7965
  140.0366  144.6040  150.7445 LP  0  0  0  0  0  0  0  0  0  0  0  0  # atno 17342 bound_to 10162
  140.7345  143.2729  151.3831 LP  0  0  0  0  0  0  0  0  0  0  0  0  # atno 17343 bound_to 10162
  156.8429  130.9432  151.3630 LP  0  0  0  0  0  0  0  0  0  0  0  0  # atno 17370 bound_to 10713
  157.6369  130.8774  149.9376 LP  0  0  0  0  0  0  0  0  0  0  0  0  # atno 17371 bound_to 10713
  141.1390  133.9172  157.2369 LP  0  0  0  0  0  0  0  0  0  0  0  0  # atno 17394 bound_to 11000
  139.9663  135.0141  156.9397 LP  0  0  0  0  0  0  0  0  0  0  0  0  # atno 17395 bound_to 11000

$$$$
