AV-unprocessed.smi:3289|AV-procd|sdf|12608|dock4
  -GOLD-   2272018533D 1   1.00000     0.00000
 Structure written by MMmdl.
 40 41  0  0  0  0  0  0  0  0  2 V2000
  145.6061  142.4702  155.9240 C   0  0  0  0  0  0  0  0  0  0  0  0
  146.5145  142.6154  154.6924 C   0  0  0  0  0  0  0  0  0  0  0  0
  145.8415  143.4501  153.5939 C   0  0  0  0  0  0  0  0  0  0  0  0
  146.9696  141.2837  154.1605 C   0  0  0  0  0  0  0  0  0  0  0  0
  146.1695  140.3464  153.6358 N   0  3  0  0  0  0  0  0  0  0  0  0
  146.8997  139.2695  153.2151 C   0  0  0  0  0  0  0  0  0  0  0  0
  148.2105  139.5673  153.4762 C   0  0  0  0  0  0  0  0  0  0  0  0
  148.2276  140.8155  154.0464 N   0  0  0  0  0  0  0  0  0  0  0  0
  149.4283  141.5424  154.4850 C   0  0  0  0  0  0  0  0  0  0  0  0
  149.7696  141.2252  155.9423 C   0  0  0  0  0  0  0  0  0  0  0  0
  149.9847  140.0630  156.2859 O   0  0  0  0  0  0  0  0  0  0  0  0
  149.7805  142.2640  156.7913 N   0  0  0  0  0  0  0  0  0  0  0  0
  149.9524  142.1744  158.2369 C   0  0  0  0  0  0  0  0  0  0  0  0
  151.2092  142.9324  158.6985 C   0  0  1  0  0  0  0  0  0  0  0  0
  151.2133  144.4293  158.3974 C   0  0  0  0  0  0  0  0  0  0  0  0
  152.2648  144.9360  159.3611 C   0  0  0  0  0  0  0  0  0  0  0  0
  152.1370  143.9810  160.5513 C   0  0  0  0  0  0  0  0  0  0  0  0
  151.3222  142.8957  160.1133 O   0  0  0  0  0  0  0  0  0  0  0  0
  146.1006  141.9055  156.7147 H   0  0  0  0  0  0  0  0  0  0  0  0
  144.6758  141.9570  155.6790 H   0  0  0  0  0  0  0  0  0  0  0  0
  145.3454  143.4463  156.3340 H   0  0  0  0  0  0  0  0  0  0  0  0
  147.4117  143.1389  155.0185 H   0  0  0  0  0  0  0  0  0  0  0  0
  146.5135  143.6099  152.7503 H   0  0  0  0  0  0  0  0  0  0  0  0
  145.5485  144.4309  153.9699 H   0  0  0  0  0  0  0  0  0  0  0  0
  144.9451  142.9576  153.2157 H   0  0  0  0  0  0  0  0  0  0  0  0
  146.4443  138.3969  152.7700 H   0  0  0  0  0  0  0  0  0  0  0  0
  149.1121  138.9981  153.3011 H   0  0  0  0  0  0  0  0  0  0  0  0
  150.2606  141.2445  153.8463 H   0  0  0  0  0  0  0  0  0  0  0  0
  149.2716  142.6108  154.3302 H   0  0  0  0  0  0  0  0  0  0  0  0
  149.6073  143.1850  156.4153 H   0  0  0  0  0  0  0  0  0  0  0  0
  149.0676  142.5361  158.7632 H   0  0  0  0  0  0  0  0  0  0  0  0
  150.0502  141.1196  158.4936 H   0  0  0  0  0  0  0  0  0  0  0  0
  152.1028  142.4696  158.2756 H   0  0  0  0  0  0  0  0  0  0  0  0
  151.4430  144.6584  157.3570 H   0  0  0  0  0  0  0  0  0  0  0  0
  150.2439  144.8683  158.6386 H   0  0  0  0  0  0  0  0  0  0  0  0
  153.2548  144.8420  158.9129 H   0  0  0  0  0  0  0  0  0  0  0  0
  152.1161  145.9805  159.6366 H   0  0  0  0  0  0  0  0  0  0  0  0
  153.1143  143.6185  160.8712 H   0  0  0  0  0  0  0  0  0  0  0  0
  151.6601  144.4650  161.4039 H   0  0  0  0  0  0  0  0  0  0  0  0
  145.1628  140.4261  153.5659 H   0  0  0  0  0  0  0  0  0  0  0  0
  1  2  1  0  0  0  0
  1 19  1  0  0  0  0
  1 20  1  0  0  0  0
  1 21  1  0  0  0  0
  2  3  1  0  0  0  0
  2  4  1  0  0  0  0
  2 22  1  0  0  0  0
  3 23  1  0  0  0  0
  3 24  1  0  0  0  0
  3 25  1  0  0  0  0
  4  8  1  0  0  0  0
  4  5  2  0  0  0  0
  5  6  1  0  0  0  0
  5 40  1  0  0  0  0
  6  7  2  0  0  0  0
  6 26  1  0  0  0  0
  7  8  1  0  0  0  0
  7 27  1  0  0  0  0
  8  9  1  0  0  0  0
  9 10  1  0  0  0  0
  9 28  1  0  0  0  0
  9 29  1  0  0  0  0
 10 11  2  0  0  0  0
 10 12  1  0  0  0  0
 12 13  1  0  0  0  0
 12 30  1  0  0  0  0
 13 14  1  0  0  0  0
 13 31  1  0  0  0  0
 13 32  1  0  0  0  0
 14 18  1  0  0  0  0
 14 15  1  0  0  0  0
 14 33  1  0  0  0  0
 15 16  1  0  0  0  0
 15 34  1  0  0  0  0
 15 35  1  0  0  0  0
 16 17  1  0  0  0  0
 16 36  1  0  0  0  0
 16 37  1  0  0  0  0
 17 18  1  0  0  0  0
 17 38  1  0  0  0  0
 17 39  1  0  0  0  0
M  CHG  1   5   1
M  END
> <s_m_source_file>
AV-unprocessed.smi

> <i_m_source_file_index>
3289

> <i_lp_mmshare_version>
43012

> <i_f3d_flags>
0

> <s_epik_input>
W0NIM11bQ0hdKFtDSDNdKWMxbltjSF1bY0hdbjFbQ0gyXUMoPU8pW05IXVtDSDJdW0NAQEhdMltDSDJdW0NIMl1bQ0gyXU8y

> <s_epik_cmdline>
J2VwaWtfcHl0aG9uJywgJy1waCcsICc3LjAnLCAnLXRuJywgJzgnLCAnLW1hJywgJzIwMCcsICctbWV0YWxfYmluZGluZycsICctaW1hZScsICc8aW5maWxlLm1hZT4nLCAnLW9tYWUnLCAnPG91dGZpbGUubWFlPic=

> <r_lp_tautomer_probability>
1

> <r_epik_Ionization_Penalty>
0.274547

> <r_epik_Ionization_Penalty_Charging>
0

> <r_epik_Ionization_Penalty_Neutral>
0.274547

> <r_epik_State_Penalty>
0.266843

> <r_epik_Charging_Adjusted_Penalty>
0.266843

> <i_epik_Tot_Q>
1

> <i_epik_Tot_abs_Q>
1

> <r_epik_Metal_State_Penalty>
0.55046

> <b_epik_Metal_Only>
0

> <s_lp_Force_Field>
OPLS_2005

> <r_lp_Energy>
22.2551

> <b_lp_Chiralities_Consistent>
1

> <s_lp_Variant>
AV-unprocessed.smi:3289-2

> <Gold.Version>
5.8.1

> <Gold.Id.Protein>
6NUR|6NUR_protein|mol2

> <Gold.PLP.Fitness>
47.5340

> <Gold.PLP.PLP>
-38.5541

> <Gold.PLP.part.hbond>
-3.0000

> <Gold.PLP.part.metal>
0.0000

> <Gold.PLP.part.buried>
-1.3189

> <Gold.PLP.part.nonpolar>
-33.8651

> <Gold.PLP.part.repulsive>
0.0753

> <Gold.PLP.ligand.clash>
0.0000

> <Gold.PLP.ligand.torsion>
0.4020

> <Gold.PLP.Chemscore.Hbond>
2.9520

> <Gold.PLP.Chemscore.CHOScore>
0.2870

> <Gold.PLP.Chemscore.Metal>
0.0000

> <Gold.Chemscore.Hbonds>
donor molecule, donor type, donor heavy atom, donor atom, acceptor molecule, acceptor atom, score
      L1  H     5    40       P1 10175  1.92
      L1  H    12    30       P1  8028  1.00
      L1  C     7    27       P1  7957  0.31

> <Gold.PLP.Chemscore.Internal.Correction>
0.0668

> <Gold.Rescore>
     Score         DG    S(hbond)    S(metal)    S(lipo)     H(rot)  DE(clash)    DE(int)     intcor
     17.16     -17.85       1.88        0.00      91.23       1.78       0.25       0.45       ----

> <Gold.Chemscore.Fitness>
17.1555

> <Gold.Chemscore.DG>
-17.8510

> <Gold.Chemscore.ZeroCoef>
-5.4800

> <Gold.Chemscore.Hbond>
1.8752

> <Gold.Chemscore.Metal>
0.0000

> <Gold.Chemscore.Lipo>
91.2277

> <Gold.Chemscore.Internal_Hbond>
0.0000

> <Gold.Chemscore.DEClash>
0.2499

> <Gold.Chemscore.DEInternal>
0.4457

> <Gold.Chemscore.Rot>
1.7835

> <Gold.Chemscore.Internal.Correction>
   9.000000E+99

> <Gold.Chemscore.Hbonds>
donor molecule, donor type, donor heavy atom, donor atom, acceptor molecule, acceptor atom, score
      L1  H     5    40       P1 10175  0.92
      L1  H    12    30       P1  8028  1.00

> <Gold.Chemscore.Hbond.Weighted>
-6.2632

> <Gold.Chemscore.Metal.Weighted>
-0.0000

> <Gold.Chemscore.Lipo.Weighted>
-10.6736

> <Gold.Chemscore.Internal_Hbond.Weighted>
0.0000

> <Gold.Chemscore.DEClash.Weighted>
0.2499

> <Gold.Chemscore.DEInternal.Weighted>
0.4457

> <Gold.Chemscore.Rot.Weighted>
4.5659

> <Gold.Chemscore.Internal.Correction.Weighted>
   9.000000E+99

> <Gold.Protein.RotatedTorsions>
[ 6907 6896 6895 6894 ] final -166.18 input  -60.11 | X-H torsion
[ 7974 7965 7964 7962 ] final  -76.65 input  175.53 | X-H torsion
[ 8008 7997 7996 7995 ] final  123.95 input   59.86 | X-H torsion
[ 10167 10162 10161 10158 ] final   53.44 input  -65.29 | X-H torsion
[ 10718 10713 10712 10709 ] final  -88.31 input   66.30 | X-H torsion
[ 10763 10752 10751 10750 ] final  153.63 input  -60.55 | X-H torsion
[ 11005 11000 10999 10996 ] final -119.76 input  -57.11 | X-H torsion

> <Gold.Protein.ActiveResidues>
 VAL166  LYS551  ARG553  GLY616  TRP617  ASP618  TYR619  PRO620  LYS621  CYS622 
 ASP623  PHE694  ASN695  SER759  ASP760  ASP761  ALA762  ILE779  LEU786  VAL792 
 PHE793  MET794  SER795  GLU796  ALA797  LYS798  CYS799  TRP800  GLU811  SER814 

> <Gold.Protein.RotatedAtoms>
  151.4395  133.3647  159.2779 H   0  0  0  0  0  0  0  0  0  0  0  0  # atno 6907 bound_to 6896
  150.9168  134.8587  159.7473 H   0  0  0  0  0  0  0  0  0  0  0  0  # atno 6908 bound_to 6896
  152.4961  134.4329  159.9570 H   0  0  0  0  0  0  0  0  0  0  0  0  # atno 6909 bound_to 6896
  145.6101  140.9388  143.1194 H   0  0  0  0  0  0  0  0  0  0  0  0  # atno 7974 bound_to 7965
  156.2784  140.2751  156.1710 H   0  0  0  0  0  0  0  0  0  0  0  0  # atno 8008 bound_to 7997
  155.0654  140.0387  157.2609 H   0  0  0  0  0  0  0  0  0  0  0  0  # atno 8009 bound_to 7997
  154.7083  140.2663  155.6659 H   0  0  0  0  0  0  0  0  0  0  0  0  # atno 8010 bound_to 7997
  140.2408  144.3586  150.6381 H   0  0  0  0  0  0  0  0  0  0  0  0  # atno 10167 bound_to 10162
  155.9984  130.4831  150.5000 H   0  0  0  0  0  0  0  0  0  0  0  0  # atno 10718 bound_to 10713
  154.1393  135.2822  155.3165 H   0  0  0  0  0  0  0  0  0  0  0  0  # atno 10763 bound_to 10752
  154.6298  135.5439  153.7671 H   0  0  0  0  0  0  0  0  0  0  0  0  # atno 10764 bound_to 10752
  153.0255  135.6460  154.1541 H   0  0  0  0  0  0  0  0  0  0  0  0  # atno 10765 bound_to 10752
  141.0192  134.0149  157.3306 H   0  0  0  0  0  0  0  0  0  0  0  0  # atno 11005 bound_to 11000
  144.7273  139.7834  143.7360 LP  0  0  0  0  0  0  0  0  0  0  0  0  # atno 17320 bound_to 7965
  146.1511  139.4594  143.0048 LP  0  0  0  0  0  0  0  0  0  0  0  0  # atno 17321 bound_to 7965
  140.6115  143.2170  151.6876 LP  0  0  0  0  0  0  0  0  0  0  0  0  # atno 17342 bound_to 10162
  139.5078  144.3633  152.0541 LP  0  0  0  0  0  0  0  0  0  0  0  0  # atno 17343 bound_to 10162
  157.2986  131.0640  151.2084 LP  0  0  0  0  0  0  0  0  0  0  0  0  # atno 17370 bound_to 10713
  157.3071  130.6871  149.6195 LP  0  0  0  0  0  0  0  0  0  0  0  0  # atno 17371 bound_to 10713
  139.9136  135.0194  156.7790 LP  0  0  0  0  0  0  0  0  0  0  0  0  # atno 17394 bound_to 11000
  140.6602  133.9652  155.7801 LP  0  0  0  0  0  0  0  0  0  0  0  0  # atno 17395 bound_to 11000

$$$$
