AV-unprocessed.smi:3231|AV-procd|sdf|12338|dock7
  -GOLD-   2272018193D 1   1.00000     0.00000
 Structure written by MMmdl.
 40 41  0  0  0  0  0  0  0  0  1 V2000
  147.3460  137.9409  151.2372 O   0  0  0  0  0  0  0  0  0  0  0  0
  146.3889  138.5227  152.1005 C   0  0  1  0  0  0  0  0  0  0  0  0
  146.2675  137.5986  153.3259 C   0  0  0  0  0  0  0  0  0  0  0  0
  146.2508  136.1923  152.9316 N   0  0  0  0  0  0  0  0  0  0  0  0
  145.2493  135.8891  151.9147 C   0  0  0  0  0  0  0  0  0  0  0  0
  145.8406  135.0108  150.8034 C   0  0  0  0  0  0  0  0  0  0  0  0
  145.2062  133.7076  150.7597 N   0  0  0  0  0  0  0  0  0  0  0  0
  145.7974  132.4637  150.8282 C   0  0  0  0  0  0  0  0  0  0  0  0
  144.7993  131.5351  150.7501 C   0  0  0  0  0  0  0  0  0  0  0  0
  143.6169  132.3183  150.6345 C   0  0  0  0  0  0  0  0  0  0  0  0
  143.8638  133.6185  150.6405 N   0  0  0  0  0  0  0  0  0  0  0  0
  146.8805  139.9345  152.4899 C   0  0  0  0  0  0  0  0  0  0  0  0
  147.7468  139.9938  153.6685 N   0  0  0  0  0  0  0  0  0  0  0  0
  148.2019  141.3502  153.9662 C   0  0  0  0  0  0  0  0  0  0  0  0
  149.1366  141.3890  155.1881 C   0  0  0  0  0  0  0  0  0  0  0  0
  150.2412  140.5160  154.9762 O   0  0  0  0  0  0  0  0  0  0  0  0
  149.8382  139.1726  154.7318 C   0  0  0  0  0  0  0  0  0  0  0  0
  148.9112  139.1295  153.5048 C   0  0  0  0  0  0  0  0  0  0  0  0
  147.7685  137.2322  151.6984 H   0  0  0  0  0  0  0  0  0  0  0  0
  145.4239  138.5930  151.5957 H   0  0  0  0  0  0  0  0  0  0  0  0
  147.0724  137.7944  154.0358 H   0  0  0  0  0  0  0  0  0  0  0  0
  145.3366  137.8214  153.8487 H   0  0  0  0  0  0  0  0  0  0  0  0
  147.1701  135.9213  152.5968 H   0  0  0  0  0  0  0  0  0  0  0  0
  144.3980  135.3816  152.3699 H   0  0  0  0  0  0  0  0  0  0  0  0
  144.8680  136.8148  151.4817 H   0  0  0  0  0  0  0  0  0  0  0  0
  145.7220  135.4895  149.8302 H   0  0  0  0  0  0  0  0  0  0  0  0
  146.9111  134.8693  150.9590 H   0  0  0  0  0  0  0  0  0  0  0  0
  146.8664  132.3442  150.9261 H   0  0  0  0  0  0  0  0  0  0  0  0
  144.8981  130.4599  150.7721 H   0  0  0  0  0  0  0  0  0  0  0  0
  142.5939  131.9830  150.5474 H   0  0  0  0  0  0  0  0  0  0  0  0
  147.4543  140.3243  151.6485 H   0  0  0  0  0  0  0  0  0  0  0  0
  146.0358  140.6169  152.6004 H   0  0  0  0  0  0  0  0  0  0  0  0
  148.7207  141.7648  153.1006 H   0  0  0  0  0  0  0  0  0  0  0  0
  147.3490  141.9997  154.1612 H   0  0  0  0  0  0  0  0  0  0  0  0
  149.5078  142.4011  155.3495 H   0  0  0  0  0  0  0  0  0  0  0  0
  148.6015  141.0958  156.0926 H   0  0  0  0  0  0  0  0  0  0  0  0
  150.7235  138.5600  154.5600 H   0  0  0  0  0  0  0  0  0  0  0  0
  149.3346  138.7698  155.6118 H   0  0  0  0  0  0  0  0  0  0  0  0
  148.5888  138.1015  153.3349 H   0  0  0  0  0  0  0  0  0  0  0  0
  149.4735  139.4304  152.6193 H   0  0  0  0  0  0  0  0  0  0  0  0
  1  2  1  0  0  0  0
  1 19  1  0  0  0  0
  2  3  1  0  0  0  0
  2 12  1  0  0  0  0
  2 20  1  0  0  0  0
  3  4  1  0  0  0  0
  3 21  1  0  0  0  0
  3 22  1  0  0  0  0
  4  5  1  0  0  0  0
  4 23  1  0  0  0  0
  5  6  1  0  0  0  0
  5 24  1  0  0  0  0
  5 25  1  0  0  0  0
  6  7  1  0  0  0  0
  6 26  1  0  0  0  0
  6 27  1  0  0  0  0
  7 11  1  0  0  0  0
  7  8  1  0  0  0  0
  8  9  2  0  0  0  0
  8 28  1  0  0  0  0
  9 10  1  0  0  0  0
  9 29  1  0  0  0  0
 10 11  2  0  0  0  0
 10 30  1  0  0  0  0
 12 13  1  0  0  0  0
 12 31  1  0  0  0  0
 12 32  1  0  0  0  0
 13 18  1  0  0  0  0
 13 14  1  0  0  0  0
 14 15  1  0  0  0  0
 14 33  1  0  0  0  0
 14 34  1  0  0  0  0
 15 16  1  0  0  0  0
 15 35  1  0  0  0  0
 15 36  1  0  0  0  0
 16 17  1  0  0  0  0
 17 18  1  0  0  0  0
 17 37  1  0  0  0  0
 17 38  1  0  0  0  0
 18 39  1  0  0  0  0
 18 40  1  0  0  0  0
M  END
> <s_m_source_file>
AV-unprocessed.smi

> <i_m_source_file_index>
3231

> <i_lp_mmshare_version>
43012

> <i_f3d_flags>
0

> <s_epik_input>
W0NIMl0xW0NIMl1PW0NIMl1bQ0gyXU4xW0NIMl1bQ0BIXShbT0hdKVtDSDJdW05IXVtDSDJdW0NIMl1uMltjSF1bY0hdW2NIXW4y

> <s_epik_cmdline>
J2VwaWtfcHl0aG9uJywgJy1waCcsICc3LjAnLCAnLXRuJywgJzgnLCAnLW1hJywgJzIwMCcsICctbWV0YWxfYmluZGluZycsICctaW1hZScsICc8aW5maWxlLm1hZT4nLCAnLW9tYWUnLCAnPG91dGZpbGUubWFlPic=

> <r_lp_tautomer_probability>
1

> <r_epik_Ionization_Penalty>
2.37071

> <r_epik_Ionization_Penalty_Charging>
0

> <r_epik_Ionization_Penalty_Neutral>
2.37071

> <r_epik_State_Penalty>
1.72455

> <r_epik_Charging_Adjusted_Penalty>
1.72455

> <i_epik_Tot_Q>
0

> <i_epik_Tot_abs_Q>
0

> <r_epik_Metal_State_Penalty>
1.72366

> <b_epik_Metal_Only>
0

> <s_lp_Force_Field>
OPLS_2005

> <r_lp_Energy>
35.5688

> <b_lp_Chiralities_Consistent>
1

> <s_lp_Variant>
AV-unprocessed.smi:3231-8

> <Gold.Version>
5.8.1

> <Gold.Id.Protein>
6NUR|6NUR_protein|mol2

> <Gold.PLP.Fitness>
47.0509

> <Gold.PLP.PLP>
-33.2600

> <Gold.PLP.part.hbond>
-4.5488

> <Gold.PLP.part.metal>
0.0000

> <Gold.PLP.part.buried>
-0.2778

> <Gold.PLP.part.nonpolar>
-31.3474

> <Gold.PLP.part.repulsive>
0.6219

> <Gold.PLP.ligand.clash>
0.0000

> <Gold.PLP.ligand.torsion>
1.2624

> <Gold.PLP.Chemscore.Hbond>
3.7853

> <Gold.PLP.Chemscore.CHOScore>
1.5986

> <Gold.PLP.Chemscore.Metal>
0.0000

> <Gold.Chemscore.Hbonds>
donor molecule, donor type, donor heavy atom, donor atom, acceptor molecule, acceptor atom, score
      L1  H     1    19       P1  7948  0.97
      L1  H     4    23       P1  7948  1.00
      P1  H  7954  7966       L1     1  0.90
      P1  H  7989  7998       L1    16  0.90
      L1  C     8    28       P1 10747  0.68
      L1  C    10    30       P1 10952  0.84

> <Gold.PLP.Chemscore.Internal.Correction>
0.1643

> <Gold.Rescore>
     Score         DG    S(hbond)    S(metal)    S(lipo)     H(rot)  DE(clash)    DE(int)     intcor
     12.42     -16.77       2.30        0.00      90.21       2.72       2.04       2.31       ----

> <Gold.Chemscore.Fitness>
12.4196

> <Gold.Chemscore.DG>
-16.7711

> <Gold.Chemscore.ZeroCoef>
-5.4800

> <Gold.Chemscore.Hbond>
2.3042

> <Gold.Chemscore.Metal>
0.0000

> <Gold.Chemscore.Lipo>
90.2055

> <Gold.Chemscore.Internal_Hbond>
0.0000

> <Gold.Chemscore.DEClash>
2.0368

> <Gold.Chemscore.DEInternal>
2.3146

> <Gold.Chemscore.Rot>
2.7183

> <Gold.Chemscore.Internal.Correction>
   9.000000E+99

> <Gold.Chemscore.Hbonds>
donor molecule, donor type, donor heavy atom, donor atom, acceptor molecule, acceptor atom, score
      L1  H     1    19       P1  7948  0.86
      L1  H     4    23       P1  7948  0.98
      P1  H  7954  7966       L1     1  0.17
      P1  H  7989  7998       L1    16  0.37

> <Gold.Chemscore.Hbond.Weighted>
-7.6959

> <Gold.Chemscore.Metal.Weighted>
-0.0000

> <Gold.Chemscore.Lipo.Weighted>
-10.5540

> <Gold.Chemscore.Internal_Hbond.Weighted>
0.0000

> <Gold.Chemscore.DEClash.Weighted>
2.0368

> <Gold.Chemscore.DEInternal.Weighted>
2.3146

> <Gold.Chemscore.Rot.Weighted>
6.9589

> <Gold.Chemscore.Internal.Correction.Weighted>
   9.000000E+99

> <Gold.Protein.RotatedTorsions>
[ 6907 6896 6895 6894 ] final  136.99 input  -60.11 | X-H torsion
[ 7974 7965 7964 7962 ] final -174.44 input  175.53 | X-H torsion
[ 8008 7997 7996 7995 ] final  -39.31 input   59.86 | X-H torsion
[ 10167 10162 10161 10158 ] final   61.30 input  -65.29 | X-H torsion
[ 10718 10713 10712 10709 ] final  109.75 input   66.30 | X-H torsion
[ 10763 10752 10751 10750 ] final  -47.68 input  -60.55 | X-H torsion
[ 11005 11000 10999 10996 ] final -156.93 input  -57.11 | X-H torsion

> <Gold.Protein.ActiveResidues>
 VAL166  LYS551  ARG553  GLY616  TRP617  ASP618  TYR619  PRO620  LYS621  CYS622 
 ASP623  PHE694  ASN695  SER759  ASP760  ASP761  ALA762  ILE779  LEU786  VAL792 
 PHE793  MET794  SER795  GLU796  ALA797  LYS798  CYS799  TRP800  GLU811  SER814 

> <Gold.Protein.RotatedAtoms>
  152.2831  133.5489  159.5509 H   0  0  0  0  0  0  0  0  0  0  0  0  # atno 6907 bound_to 6896
  150.7204  134.0536  159.3816 H   0  0  0  0  0  0  0  0  0  0  0  0  # atno 6908 bound_to 6896
  151.8446  135.0579  160.0503 H   0  0  0  0  0  0  0  0  0  0  0  0  # atno 6909 bound_to 6896
  144.7132  140.1471  143.6387 H   0  0  0  0  0  0  0  0  0  0  0  0  # atno 7974 bound_to 7965
  154.4025  140.1555  156.2843 H   0  0  0  0  0  0  0  0  0  0  0  0  # atno 8008 bound_to 7997
  155.8842  140.3442  155.5887 H   0  0  0  0  0  0  0  0  0  0  0  0  # atno 8009 bound_to 7997
  155.7633  140.0820  157.2135 H   0  0  0  0  0  0  0  0  0  0  0  0  # atno 8010 bound_to 7997
  140.1562  144.4414  150.6733 H   0  0  0  0  0  0  0  0  0  0  0  0  # atno 10167 bound_to 10162
  157.6527  131.0919  150.6500 H   0  0  0  0  0  0  0  0  0  0  0  0  # atno 10718 bound_to 10713
  154.0654  135.6612  153.4817 H   0  0  0  0  0  0  0  0  0  0  0  0  # atno 10763 bound_to 10752
  153.0411  135.5144  154.7619 H   0  0  0  0  0  0  0  0  0  0  0  0  # atno 10764 bound_to 10752
  154.6668  135.3023  154.9762 H   0  0  0  0  0  0  0  0  0  0  0  0  # atno 10765 bound_to 10752
  140.6702  134.4256  157.5232 H   0  0  0  0  0  0  0  0  0  0  0  0  # atno 11005 bound_to 11000
  145.9149  139.2510  143.1415 LP  0  0  0  0  0  0  0  0  0  0  0  0  # atno 17320 bound_to 7965
  145.9678  140.8784  143.0178 LP  0  0  0  0  0  0  0  0  0  0  0  0  # atno 17321 bound_to 7965
  140.6671  143.2272  151.5715 LP  0  0  0  0  0  0  0  0  0  0  0  0  # atno 17342 bound_to 10162
  139.5402  144.2668  152.1335 LP  0  0  0  0  0  0  0  0  0  0  0  0  # atno 17343 bound_to 10162
  156.6809  130.4567  149.5628 LP  0  0  0  0  0  0  0  0  0  0  0  0  # atno 17370 bound_to 10713
  156.1929  130.6571  151.1082 LP  0  0  0  0  0  0  0  0  0  0  0  0  # atno 17371 bound_to 10713
  139.8984  134.8614  156.2002 LP  0  0  0  0  0  0  0  0  0  0  0  0  # atno 17394 bound_to 11000
  141.0398  133.6944  156.1578 LP  0  0  0  0  0  0  0  0  0  0  0  0  # atno 17395 bound_to 11000

$$$$
