AV-unprocessed.smi:1071|AV-procd|sdf|4682|dock5
  -GOLD-   22720 3203D 1   1.00000     0.00000
 Structure written by MMmdl.
 46 47  0  0  0  0  0  0  0  0  1 V2000
  145.4692  136.3726  151.9386 C   0  0  0  0  0  0  0  0  0  0  0  0
  146.0801  137.2929  152.8262 O   0  0  0  0  0  0  0  0  0  0  0  0
  146.4723  138.4922  152.1796 C   0  0  0  0  0  0  0  0  0  0  0  0
  147.0820  139.4414  153.2147 C   0  0  0  0  0  0  0  0  0  0  0  0
  148.1694  138.7811  153.8558 O   0  0  0  0  0  0  0  0  0  0  0  0
  149.0101  139.5242  154.6589 C   0  0  0  0  0  0  0  0  0  0  0  0
  150.2915  139.0141  154.9464 C   0  0  0  0  0  0  0  0  0  0  0  0
  151.1577  139.7665  155.7626 C   0  0  0  0  0  0  0  0  0  0  0  0
  150.7149  141.0148  156.2608 C   0  0  0  0  0  0  0  0  0  0  0  0
  151.4834  141.8585  157.1075 N   0  0  0  0  0  0  0  0  0  0  0  0
  151.0662  142.6374  158.1250 C   0  0  0  0  0  0  0  0  0  0  0  0
  149.8820  142.8406  158.3897 O   0  0  0  0  0  0  0  0  0  0  0  0
  152.0895  143.2735  158.7474 N   0  0  0  0  0  0  0  0  0  0  0  0
  153.3387  142.5628  159.0648 C   0  0  0  0  0  0  0  0  0  0  0  0
  153.2466  142.0118  160.5036 C   0  0  0  0  0  0  0  0  0  0  0  0
  153.0328  143.1084  161.4511 N   0  0  0  0  0  0  0  0  0  0  0  0
  152.9154  142.5757  162.8004 C   0  0  0  0  0  0  0  0  0  0  0  0
  151.8259  143.8674  161.1125 C   0  0  0  0  0  0  0  0  0  0  0  0
  151.9443  144.4151  159.6739 C   0  0  2  0  0  0  0  0  0  0  0  0
  150.8163  145.4093  159.3273 C   0  0  0  0  0  0  0  0  0  0  0  0
  149.4083  141.4276  155.9282 C   0  0  0  0  0  0  0  0  0  0  0  0
  148.5739  140.7123  155.1451 N   0  0  0  0  0  0  0  0  0  0  0  0
  145.1837  135.4729  152.4835 H   0  0  0  0  0  0  0  0  0  0  0  0
  146.1544  136.0797  151.1420 H   0  0  0  0  0  0  0  0  0  0  0  0
  144.5691  136.7945  151.4894 H   0  0  0  0  0  0  0  0  0  0  0  0
  147.2008  138.2768  151.3963 H   0  0  0  0  0  0  0  0  0  0  0  0
  145.6078  138.9615  151.7077 H   0  0  0  0  0  0  0  0  0  0  0  0
  147.4309  140.3492  152.7193 H   0  0  0  0  0  0  0  0  0  0  0  0
  146.3228  139.7238  153.9460 H   0  0  0  0  0  0  0  0  0  0  0  0
  150.6045  138.0592  154.5506 H   0  0  0  0  0  0  0  0  0  0  0  0
  152.1306  139.3648  155.9994 H   0  0  0  0  0  0  0  0  0  0  0  0
  152.4843  141.7782  157.0032 H   0  0  0  0  0  0  0  0  0  0  0  0
  153.5490  141.7408  158.3795 H   0  0  0  0  0  0  0  0  0  0  0  0
  154.1866  143.2432  158.9711 H   0  0  0  0  0  0  0  0  0  0  0  0
  152.4335  141.2875  160.5770 H   0  0  0  0  0  0  0  0  0  0  0  0
  154.1686  141.4873  160.7577 H   0  0  0  0  0  0  0  0  0  0  0  0
  152.7839  143.3837  163.5208 H   0  0  0  0  0  0  0  0  0  0  0  0
  153.8180  142.0291  163.0754 H   0  0  0  0  0  0  0  0  0  0  0  0
  152.0647  141.8981  162.8872 H   0  0  0  0  0  0  0  0  0  0  0  0
  150.9397  143.2378  161.2097 H   0  0  0  0  0  0  0  0  0  0  0  0
  151.7137  144.6930  161.8165 H   0  0  0  0  0  0  0  0  0  0  0  0
  152.8654  144.9976  159.6091 H   0  0  0  0  0  0  0  0  0  0  0  0
  150.9122  146.3155  159.9257 H   0  0  0  0  0  0  0  0  0  0  0  0
  149.8251  145.0048  159.5296 H   0  0  0  0  0  0  0  0  0  0  0  0
  150.8575  145.7065  158.2789 H   0  0  0  0  0  0  0  0  0  0  0  0
  149.0196  142.3659  156.2964 H   0  0  0  0  0  0  0  0  0  0  0  0
  1  2  1  0  0  0  0
  1 23  1  0  0  0  0
  1 24  1  0  0  0  0
  1 25  1  0  0  0  0
  2  3  1  0  0  0  0
  3  4  1  0  0  0  0
  3 26  1  0  0  0  0
  3 27  1  0  0  0  0
  4  5  1  0  0  0  0
  4 28  1  0  0  0  0
  4 29  1  0  0  0  0
  5  6  1  0  0  0  0
  6 22  1  0  0  0  0
  6  7  2  0  0  0  0
  7  8  1  0  0  0  0
  7 30  1  0  0  0  0
  8  9  2  0  0  0  0
  8 31  1  0  0  0  0
  9 10  1  0  0  0  0
  9 21  1  0  0  0  0
 10 11  1  0  0  0  0
 10 32  1  0  0  0  0
 11 12  2  0  0  0  0
 11 13  1  0  0  0  0
 13 19  1  0  0  0  0
 13 14  1  0  0  0  0
 14 15  1  0  0  0  0
 14 33  1  0  0  0  0
 14 34  1  0  0  0  0
 15 16  1  0  0  0  0
 15 35  1  0  0  0  0
 15 36  1  0  0  0  0
 16 17  1  0  0  0  0
 16 18  1  0  0  0  0
 17 37  1  0  0  0  0
 17 38  1  0  0  0  0
 17 39  1  0  0  0  0
 18 19  1  0  0  0  0
 18 40  1  0  0  0  0
 18 41  1  0  0  0  0
 19 20  1  0  0  0  0
 19 42  1  0  0  0  0
 20 43  1  0  0  0  0
 20 44  1  0  0  0  0
 20 45  1  0  0  0  0
 21 22  2  0  0  0  0
 21 46  1  0  0  0  0
M  END
> <s_m_source_file>
AV-unprocessed.smi

> <i_m_source_file_index>
1071

> <i_lp_mmshare_version>
43012

> <i_f3d_flags>
0

> <s_epik_input>
W0NIM11PW0NIMl1bQ0gyXU9jMVtjSF1bY0hdYyhbY0hdbjEpW05IXUMoPU8pTjJbQ0gyXVtDSDJdTihbQ0gzXSlbQ0gyXVtDQEhdMltDSDNd

> <s_epik_cmdline>
J2VwaWtfcHl0aG9uJywgJy1waCcsICc3LjAnLCAnLXRuJywgJzgnLCAnLW1hJywgJzIwMCcsICctbWV0YWxfYmluZGluZycsICctaW1hZScsICc8aW5maWxlLm1hZT4nLCAnLW9tYWUnLCAnPG91dGZpbGUubWFlPic=

> <r_lp_tautomer_probability>
1

> <r_epik_Ionization_Penalty>
0.623446

> <r_epik_Ionization_Penalty_Charging>
0

> <r_epik_Ionization_Penalty_Neutral>
0.623446

> <r_epik_State_Penalty>
0.639577

> <r_epik_Charging_Adjusted_Penalty>
0.639577

> <i_epik_Tot_Q>
0

> <i_epik_Tot_abs_Q>
0

> <r_epik_Metal_State_Penalty>
0.639567

> <b_epik_Metal_Only>
0

> <s_lp_Force_Field>
OPLS_2005

> <r_lp_Energy>
48.0993

> <b_lp_Chiralities_Consistent>
1

> <s_lp_Variant>
AV-unprocessed.smi:1071-6

> <Gold.Version>
5.8.1

> <Gold.Id.Protein>
6NUR|6NUR_protein|mol2

> <Gold.PLP.Fitness>
47.5276

> <Gold.PLP.PLP>
-45.8104

> <Gold.PLP.part.hbond>
0.0000

> <Gold.PLP.part.metal>
0.0000

> <Gold.PLP.part.buried>
-3.5463

> <Gold.PLP.part.nonpolar>
-44.1251

> <Gold.PLP.part.repulsive>
1.5273

> <Gold.PLP.ligand.clash>
0.0000

> <Gold.PLP.ligand.torsion>
0.9176

> <Gold.PLP.Chemscore.Hbond>
0.0000

> <Gold.PLP.Chemscore.CHOScore>
1.0000

> <Gold.PLP.Chemscore.Metal>
0.0000

> <Gold.Chemscore.Hbonds>
donor molecule, donor type, donor heavy atom, donor atom, acceptor molecule, acceptor atom, score
      L1  C    21    46       P1  8028  1.00

> <Gold.PLP.Chemscore.Internal.Correction>
0.5525

> <Gold.Rescore>
     Score         DG    S(hbond)    S(metal)    S(lipo)     H(rot)  DE(clash)    DE(int)     intcor
     10.59     -14.25       0.00        0.00     109.37       1.57       0.08       3.58       ----

> <Gold.Chemscore.Fitness>
10.5919

> <Gold.Chemscore.DG>
-14.2462

> <Gold.Chemscore.ZeroCoef>
-5.4800

> <Gold.Chemscore.Hbond>
0.0000

> <Gold.Chemscore.Metal>
0.0000

> <Gold.Chemscore.Lipo>
109.3701

> <Gold.Chemscore.Internal_Hbond>
0.0000

> <Gold.Chemscore.DEClash>
0.0780

> <Gold.Chemscore.DEInternal>
3.5762

> <Gold.Chemscore.Rot>
1.5743

> <Gold.Chemscore.Internal.Correction>
   9.000000E+99

> <Gold.Chemscore.Hbond.Weighted>
-0.0000

> <Gold.Chemscore.Metal.Weighted>
-0.0000

> <Gold.Chemscore.Lipo.Weighted>
-12.7963

> <Gold.Chemscore.Internal_Hbond.Weighted>
0.0000

> <Gold.Chemscore.DEClash.Weighted>
0.0780

> <Gold.Chemscore.DEInternal.Weighted>
3.5762

> <Gold.Chemscore.Rot.Weighted>
4.0301

> <Gold.Chemscore.Internal.Correction.Weighted>
   9.000000E+99

> <Gold.Protein.RotatedTorsions>
[ 6907 6896 6895 6894 ] final -167.61 input  -60.11 | X-H torsion
[ 7974 7965 7964 7962 ] final -150.97 input  175.53 | X-H torsion
[ 8008 7997 7996 7995 ] final  120.88 input   59.86 | X-H torsion
[ 10167 10162 10161 10158 ] final   14.11 input  -65.29 | X-H torsion
[ 10718 10713 10712 10709 ] final   17.02 input   66.30 | X-H torsion
[ 10763 10752 10751 10750 ] final  167.93 input  -60.55 | X-H torsion
[ 11005 11000 10999 10996 ] final  172.67 input  -57.11 | X-H torsion

> <Gold.Protein.ActiveResidues>
 VAL166  LYS551  ARG553  GLY616  TRP617  ASP618  TYR619  PRO620  LYS621  CYS622 
 ASP623  PHE694  ASN695  SER759  ASP760  ASP761  ALA762  ILE779  LEU786  VAL792 
 PHE793  MET794  SER795  GLU796  ALA797  LYS798  CYS799  TRP800  GLU811  SER814 

> <Gold.Protein.RotatedAtoms>
  151.4623  133.3589  159.2810 H   0  0  0  0  0  0  0  0  0  0  0  0  # atno 6907 bound_to 6896
  150.9017  134.8431  159.7375 H   0  0  0  0  0  0  0  0  0  0  0  0  # atno 6908 bound_to 6896
  152.4883  134.4544  159.9637 H   0  0  0  0  0  0  0  0  0  0  0  0  # atno 6909 bound_to 6896
  144.7876  140.4860  143.5795 H   0  0  0  0  0  0  0  0  0  0  0  0  # atno 7974 bound_to 7965
  156.2662  140.2821  156.1219 H   0  0  0  0  0  0  0  0  0  0  0  0  # atno 8008 bound_to 7997
  155.1146  140.0391  157.2751 H   0  0  0  0  0  0  0  0  0  0  0  0  # atno 8009 bound_to 7997
  154.6716  140.2589  155.7007 H   0  0  0  0  0  0  0  0  0  0  0  0  # atno 8010 bound_to 7997
  140.5957  143.8705  150.6916 H   0  0  0  0  0  0  0  0  0  0  0  0  # atno 10167 bound_to 10162
  157.0762  130.6369  149.5816 H   0  0  0  0  0  0  0  0  0  0  0  0  # atno 10718 bound_to 10713
  154.3611  135.2753  155.2319 H   0  0  0  0  0  0  0  0  0  0  0  0  # atno 10763 bound_to 10752
  154.4507  135.5931  153.6193 H   0  0  0  0  0  0  0  0  0  0  0  0  # atno 10764 bound_to 10752
  152.9843  135.6041  154.3832 H   0  0  0  0  0  0  0  0  0  0  0  0  # atno 10765 bound_to 10752
  140.3322  134.7347  157.4142 H   0  0  0  0  0  0  0  0  0  0  0  0  # atno 11005 bound_to 11000
  145.5879  139.1493  143.3199 LP  0  0  0  0  0  0  0  0  0  0  0  0  # atno 17320 bound_to 7965
  146.2115  140.6006  142.9057 LP  0  0  0  0  0  0  0  0  0  0  0  0  # atno 17321 bound_to 7965
  140.2239  143.3787  152.1620 LP  0  0  0  0  0  0  0  0  0  0  0  0  # atno 17342 bound_to 10162
  139.5257  144.7099  151.5240 LP  0  0  0  0  0  0  0  0  0  0  0  0  # atno 17343 bound_to 10162
  155.9936  130.4998  150.7388 LP  0  0  0  0  0  0  0  0  0  0  0  0  # atno 17370 bound_to 10713
  157.4838  131.0905  151.0506 LP  0  0  0  0  0  0  0  0  0  0  0  0  # atno 17371 bound_to 10713
  140.0851  134.5678  155.8500 LP  0  0  0  0  0  0  0  0  0  0  0  0  # atno 17394 bound_to 11000
  141.2060  133.6652  156.6217 LP  0  0  0  0  0  0  0  0  0  0  0  0  # atno 17395 bound_to 11000

$$$$
