AV-unprocessed.smi:1487|AV-procd|sdf|6008|dock4
  -GOLD-   22720 6103D 1   1.00000     0.00000
 Structure written by MMmdl.
 48 50  0  0  0  0  0  0  0  0  2 V2000
  152.6132  142.9583  161.5500 C   0  0  0  0  0  0  0  0  0  0  0  0
  152.1276  142.4969  160.1874 C   0  0  0  0  0  0  0  0  0  0  0  0
  152.6765  141.3230  159.6242 C   0  0  0  0  0  0  0  0  0  0  0  0
  152.2544  140.8613  158.3584 C   0  0  0  0  0  0  0  0  0  0  0  0
  152.6493  139.7535  157.6279 N   0  0  0  0  0  0  0  0  0  0  0  0
  151.8984  139.8697  156.5366 C   0  0  0  0  0  0  0  0  0  0  0  0
  151.0580  140.9208  156.4755 N   0  0  0  0  0  0  0  0  0  0  0  0
  150.1485  141.2513  155.3926 C   0  0  0  0  0  0  0  0  0  0  0  0
  148.6728  141.0043  155.7613 C   0  0  1  0  0  0  0  0  0  0  0  0
  148.2124  142.0555  156.5889 O   0  0  0  0  0  0  0  0  0  0  0  0
  147.7775  140.9419  154.5081 C   0  0  0  0  0  0  0  0  0  0  0  0
  147.6156  139.5581  153.9922 N   0  3  1  0  0  0  0  0  0  0  0  0
  146.6692  138.7558  154.8108 C   0  0  0  0  0  0  0  0  0  0  0  0
  146.6292  137.2911  154.3426 C   0  0  0  0  0  0  0  0  0  0  0  0
  146.2751  137.1973  152.8530 C   0  0  0  0  0  0  0  0  0  0  0  0
  147.2479  138.0565  152.0324 C   0  0  1  0  0  0  0  0  0  0  0  0
  146.8619  138.0382  150.6745 O   0  0  0  0  0  0  0  0  0  0  0  0
  147.2687  139.5079  152.5463 C   0  0  0  0  0  0  0  0  0  0  0  0
  151.2597  141.6119  157.6658 C   0  0  0  0  0  0  0  0  0  0  0  0
  150.7050  142.7809  158.2165 C   0  0  0  0  0  0  0  0  0  0  0  0
  151.1390  143.2287  159.4816 C   0  0  0  0  0  0  0  0  0  0  0  0
  150.5363  144.4939  160.0661 C   0  0  0  0  0  0  0  0  0  0  0  0
  153.3250  142.2523  161.9788 H   0  0  0  0  0  0  0  0  0  0  0  0
  151.7781  143.0516  162.2445 H   0  0  0  0  0  0  0  0  0  0  0  0
  153.1077  143.9266  161.4693 H   0  0  0  0  0  0  0  0  0  0  0  0
  153.4303  140.7662  160.1612 H   0  0  0  0  0  0  0  0  0  0  0  0
  151.9619  139.1483  155.7352 H   0  0  0  0  0  0  0  0  0  0  0  0
  150.3041  142.2943  155.1132 H   0  0  0  0  0  0  0  0  0  0  0  0
  150.4240  140.6538  154.5227 H   0  0  0  0  0  0  0  0  0  0  0  0
  148.6076  140.0743  156.3257 H   0  0  0  0  0  0  0  0  0  0  0  0
  148.4835  142.8781  156.2092 H   0  0  0  0  0  0  0  0  0  0  0  0
  146.8020  141.3599  154.7630 H   0  0  0  0  0  0  0  0  0  0  0  0
  148.1784  141.5766  153.7162 H   0  0  0  0  0  0  0  0  0  0  0  0
  146.9722  138.7846  155.8585 H   0  0  0  0  0  0  0  0  0  0  0  0
  145.6729  139.1974  154.7560 H   0  0  0  0  0  0  0  0  0  0  0  0
  147.5990  136.8237  154.5187 H   0  0  0  0  0  0  0  0  0  0  0  0
  145.9041  136.7302  154.9332 H   0  0  0  0  0  0  0  0  0  0  0  0
  146.3125  136.1583  152.5230 H   0  0  0  0  0  0  0  0  0  0  0  0
  145.2502  137.5385  152.6992 H   0  0  0  0  0  0  0  0  0  0  0  0
  148.2519  137.6349  152.1002 H   0  0  0  0  0  0  0  0  0  0  0  0
  145.9793  138.3688  150.6034 H   0  0  0  0  0  0  0  0  0  0  0  0
  146.2954  139.9773  152.3926 H   0  0  0  0  0  0  0  0  0  0  0  0
  147.9899  140.0822  151.9653 H   0  0  0  0  0  0  0  0  0  0  0  0
  149.9520  143.3293  157.6701 H   0  0  0  0  0  0  0  0  0  0  0  0
  149.8160  144.9450  159.3829 H   0  0  0  0  0  0  0  0  0  0  0  0
  151.3143  145.2315  160.2657 H   0  0  0  0  0  0  0  0  0  0  0  0
  150.0192  144.2739  161.0003 H   0  0  0  0  0  0  0  0  0  0  0  0
  148.5179  139.1153  154.0963 H   0  0  0  0  0  0  0  0  0  0  0  0
  1  2  1  0  0  0  0
  1 23  1  0  0  0  0
  1 24  1  0  0  0  0
  1 25  1  0  0  0  0
  2 21  1  0  0  0  0
  2  3  2  0  0  0  0
  3  4  1  0  0  0  0
  3 26  1  0  0  0  0
  4 19  2  0  0  0  0
  4  5  1  0  0  0  0
  5  6  2  0  0  0  0
  6  7  1  0  0  0  0
  6 27  1  0  0  0  0
  7  8  1  0  0  0  0
  7 19  1  0  0  0  0
  8  9  1  0  0  0  0
  8 28  1  0  0  0  0
  8 29  1  0  0  0  0
  9 10  1  0  0  0  0
  9 11  1  0  0  0  0
  9 30  1  0  0  0  0
 10 31  1  0  0  0  0
 11 12  1  0  0  0  0
 11 32  1  0  0  0  0
 11 33  1  0  0  0  0
 12 18  1  0  0  0  0
 12 13  1  0  0  0  0
 12 48  1  0  0  0  0
 13 14  1  0  0  0  0
 13 34  1  0  0  0  0
 13 35  1  0  0  0  0
 14 15  1  0  0  0  0
 14 36  1  0  0  0  0
 14 37  1  0  0  0  0
 15 16  1  0  0  0  0
 15 38  1  0  0  0  0
 15 39  1  0  0  0  0
 16 17  1  0  0  0  0
 16 18  1  0  0  0  0
 16 40  1  0  0  0  0
 17 41  1  0  0  0  0
 18 42  1  0  0  0  0
 18 43  1  0  0  0  0
 19 20  1  0  0  0  0
 20 21  2  0  0  0  0
 20 44  1  0  0  0  0
 21 22  1  0  0  0  0
 22 45  1  0  0  0  0
 22 46  1  0  0  0  0
 22 47  1  0  0  0  0
M  CHG  1  12   1
M  END
> <s_m_source_file>
AV-unprocessed.smi

> <i_m_source_file_index>
1487

> <i_lp_mmshare_version>
43012

> <i_f3d_flags>
0

> <s_epik_input>
W0NIM11jKFtjSF0xKWMoW0NIM10pW2NIXWMoYzEyKW4oW2NIXW4yKVtDSDJdW0NASF0oW09IXSlbQ0gyXU4zW0NIMl1bQ0gyXVtDSDJdW0NAQEhdKFtPSF0pW0NIMl0z

> <s_epik_cmdline>
J2VwaWtfcHl0aG9uJywgJy1waCcsICc3LjAnLCAnLXRuJywgJzgnLCAnLW1hJywgJzIwMCcsICctbWV0YWxfYmluZGluZycsICctaW1hZScsICc8aW5maWxlLm1hZT4nLCAnLW9tYWUnLCAnPG91dGZpbGUubWFlPic=

> <r_epik_Ionization_Penalty>
0.0940186

> <r_epik_Ionization_Penalty_Charging>
0.00679686

> <r_epik_Ionization_Penalty_Neutral>
0.0872218

> <r_epik_State_Penalty>
0.0799311

> <r_epik_Charging_Adjusted_Penalty>
0.086728

> <i_epik_Tot_Q>
1

> <i_epik_Tot_abs_Q>
1

> <r_epik_Metal_State_Penalty>
7.95545e-05

> <b_epik_Metal_Only>
0

> <s_lp_Force_Field>
OPLS_2005

> <r_lp_Energy>
21.5016

> <b_lp_Chiralities_Consistent>
1

> <s_lp_Variant>
AV-unprocessed.smi:1487-2

> <Gold.Version>
5.8.1

> <Gold.Id.Protein>
6NUR|6NUR_protein|mol2

> <Gold.PLP.Fitness>
52.4956

> <Gold.PLP.PLP>
-42.6114

> <Gold.PLP.part.hbond>
-3.7668

> <Gold.PLP.part.metal>
0.0000

> <Gold.PLP.part.buried>
-1.1314

> <Gold.PLP.part.nonpolar>
-37.2423

> <Gold.PLP.part.repulsive>
0.0128

> <Gold.PLP.ligand.clash>
0.0000

> <Gold.PLP.ligand.torsion>
0.8840

> <Gold.PLP.Chemscore.Hbond>
3.8720

> <Gold.PLP.Chemscore.CHOScore>
0.0000

> <Gold.PLP.Chemscore.Metal>
0.0000

> <Gold.Chemscore.Hbonds>
donor molecule, donor type, donor heavy atom, donor atom, acceptor molecule, acceptor atom, score
      L1  H    10    31       P1  8028  1.00
      L1  H    17    41       P1 10171  0.46
      P1  H  7954  7966       L1    17  0.99
      P1  H  7997  8009       L1     5  0.80

> <Gold.PLP.Chemscore.Internal.Correction>
0.0362

> <Gold.Rescore>
     Score         DG    S(hbond)    S(metal)    S(lipo)     H(rot)  DE(clash)    DE(int)     intcor
     17.26     -18.97       1.95        0.00     118.10       2.67       0.82       0.89       ----

> <Gold.Chemscore.Fitness>
17.2649

> <Gold.Chemscore.DG>
-18.9742

> <Gold.Chemscore.ZeroCoef>
-5.4800

> <Gold.Chemscore.Hbond>
1.9505

> <Gold.Chemscore.Metal>
0.0000

> <Gold.Chemscore.Lipo>
118.1024

> <Gold.Chemscore.Internal_Hbond>
0.0000

> <Gold.Chemscore.DEClash>
0.8230

> <Gold.Chemscore.DEInternal>
0.8863

> <Gold.Chemscore.Rot>
2.6712

> <Gold.Chemscore.Internal.Correction>
   9.000000E+99

> <Gold.Chemscore.Hbonds>
donor molecule, donor type, donor heavy atom, donor atom, acceptor molecule, acceptor atom, score
      L1  H    10    31       P1  8028  0.93
      L1  H    17    41       P1 10171  0.45
      P1  H  7954  7966       L1    17  0.50
      P1  H  7997  8009       L1     5  0.09

> <Gold.Chemscore.Hbond.Weighted>
-6.5145

> <Gold.Chemscore.Metal.Weighted>
-0.0000

> <Gold.Chemscore.Lipo.Weighted>
-13.8180

> <Gold.Chemscore.Internal_Hbond.Weighted>
0.0000

> <Gold.Chemscore.DEClash.Weighted>
0.8230

> <Gold.Chemscore.DEInternal.Weighted>
0.8863

> <Gold.Chemscore.Rot.Weighted>
6.8383

> <Gold.Chemscore.Internal.Correction.Weighted>
   9.000000E+99

> <Gold.Protein.RotatedTorsions>
[ 6907 6896 6895 6894 ] final   79.95 input  -60.11 | X-H torsion
[ 7974 7965 7964 7962 ] final   12.41 input  175.53 | X-H torsion
[ 8008 7997 7996 7995 ] final  175.72 input   59.86 | X-H torsion
[ 10167 10162 10161 10158 ] final  101.80 input  -65.29 | X-H torsion
[ 10718 10713 10712 10709 ] final -100.48 input   66.30 | X-H torsion
[ 10763 10752 10751 10750 ] final    7.22 input  -60.55 | X-H torsion
[ 11005 11000 10999 10996 ] final -161.11 input  -57.11 | X-H torsion

> <Gold.Protein.ActiveResidues>
 VAL166  LYS551  ARG553  GLY616  TRP617  ASP618  TYR619  PRO620  LYS621  CYS622 
 ASP623  PHE694  ASN695  SER759  ASP760  ASP761  ALA762  ILE779  LEU786  VAL792 
 PHE793  MET794  SER795  GLU796  ALA797  LYS798  CYS799  TRP800  GLU811  SER814 

> <Gold.Protein.RotatedAtoms>
  152.5217  134.3432  159.9224 H   0  0  0  0  0  0  0  0  0  0  0  0  # atno 6907 bound_to 6896
  151.3382  133.3967  159.2676 H   0  0  0  0  0  0  0  0  0  0  0  0  # atno 6908 bound_to 6896
  150.9825  134.9195  159.7910 H   0  0  0  0  0  0  0  0  0  0  0  0  # atno 6909 bound_to 6896
  146.2352  139.9341  142.8492 H   0  0  0  0  0  0  0  0  0  0  0  0  # atno 7974 bound_to 7965
  156.0840  140.1401  156.9676 H   0  0  0  0  0  0  0  0  0  0  0  0  # atno 8008 bound_to 7997
  154.4602  140.0946  156.6919 H   0  0  0  0  0  0  0  0  0  0  0  0  # atno 8009 bound_to 7997
  155.5029  140.3451  155.4376 H   0  0  0  0  0  0  0  0  0  0  0  0  # atno 8010 bound_to 7997
  139.7406  144.7012  151.0582 H   0  0  0  0  0  0  0  0  0  0  0  0  # atno 10167 bound_to 10162
  156.0164  130.5329  150.6823 H   0  0  0  0  0  0  0  0  0  0  0  0  # atno 10718 bound_to 10713
  153.2388  135.6901  153.7807 H   0  0  0  0  0  0  0  0  0  0  0  0  # atno 10763 bound_to 10752
  153.6944  135.3307  155.3211 H   0  0  0  0  0  0  0  0  0  0  0  0  # atno 10764 bound_to 10752
  154.8346  135.4553  154.1301 H   0  0  0  0  0  0  0  0  0  0  0  0  # atno 10765 bound_to 10752
  140.6240  134.4721  157.5225 H   0  0  0  0  0  0  0  0  0  0  0  0  # atno 11005 bound_to 11000
  145.2016  140.9857  143.4152 LP  0  0  0  0  0  0  0  0  0  0  0  0  # atno 17320 bound_to 7965
  144.9769  139.3823  143.6281 LP  0  0  0  0  0  0  0  0  0  0  0  0  # atno 17321 bound_to 7965
  140.7785  143.4929  150.9869 LP  0  0  0  0  0  0  0  0  0  0  0  0  # atno 17342 bound_to 10162
  139.8618  143.7305  152.3173 LP  0  0  0  0  0  0  0  0  0  0  0  0  # atno 17343 bound_to 10162
  157.4523  131.0874  151.0833 LP  0  0  0  0  0  0  0  0  0  0  0  0  # atno 17370 bound_to 10713
  157.1346  130.6117  149.5538 LP  0  0  0  0  0  0  0  0  0  0  0  0  # atno 17371 bound_to 10713
  139.9142  134.8281  156.1423 LP  0  0  0  0  0  0  0  0  0  0  0  0  # atno 17394 bound_to 11000
  141.0722  133.6791  156.2164 LP  0  0  0  0  0  0  0  0  0  0  0  0  # atno 17395 bound_to 11000

$$$$
