AV-unprocessed.smi:2067|AV-procd|sdf|8423|dock2
  -GOLD-   2272011113D 1   1.00000     0.00000
 Structure written by MMmdl.
 47 48  0  0  0  0  0  0  0  0  1 V2000
  149.1113  131.5567  155.3954 C   0  0  0  0  0  0  0  0  0  0  0  0
  148.0053  132.0610  154.4538 C   0  0  2  0  0  0  0  0  0  0  0  0
  147.7337  131.0326  153.3372 C   0  0  0  0  0  0  0  0  0  0  0  0
  146.6349  131.5102  152.3759 C   0  0  0  0  0  0  0  0  0  0  0  0
  146.9841  132.8799  151.7780 C   0  0  0  0  0  0  0  0  0  0  0  0
  147.2423  133.9146  152.8831 C   0  0  0  0  0  0  0  0  0  0  0  0
  148.3481  133.4438  153.8530 C   0  0  1  0  0  0  0  0  0  0  0  0
  148.4797  134.3619  154.9321 O   0  0  0  0  0  0  0  0  0  0  0  0
  149.7923  134.4777  155.4620 C   0  0  0  0  0  0  0  0  0  0  0  0
  150.5664  135.5028  154.6290 C   0  0  0  0  0  0  0  0  0  0  0  0
  149.7794  136.7067  154.4153 N   0  0  0  0  0  0  0  0  0  0  0  0
  150.0897  138.0024  154.8160 C   0  0  0  0  0  0  0  0  0  0  0  0
  151.2246  138.2818  155.5174 C   0  0  0  0  0  0  0  0  0  0  0  0
  152.1670  137.2864  155.9229 C   0  0  0  0  0  0  0  0  0  0  0  0
  152.9151  136.4705  156.2634 N   0  0  0  0  0  0  0  0  0  0  0  0
  151.5481  139.6362  155.9600 C   0  0  0  0  0  0  0  0  0  0  0  0
  152.5718  139.9300  156.5825 O   0  0  0  0  0  0  0  0  0  0  0  0
  150.5890  140.6128  155.6245 N   0  0  0  0  0  0  0  0  0  0  0  0
  150.8719  141.9660  156.0616 C   0  0  0  0  0  0  0  0  0  0  0  0
  149.4031  140.3506  154.9071 C   0  0  0  0  0  0  0  0  0  0  0  0
  148.5936  141.2439  154.6409 O   0  0  0  0  0  0  0  0  0  0  0  0
  149.1767  139.0129  154.4992 N   0  0  0  0  0  0  0  0  0  0  0  0
  147.9530  138.8113  153.7490 C   0  0  0  0  0  0  0  0  0  0  0  0
  150.0610  131.4497  154.8702 H   0  0  0  0  0  0  0  0  0  0  0  0
  148.8536  130.5854  155.8182 H   0  0  0  0  0  0  0  0  0  0  0  0
  149.2678  132.2419  156.2290 H   0  0  0  0  0  0  0  0  0  0  0  0
  147.0920  132.1640  155.0419 H   0  0  0  0  0  0  0  0  0  0  0  0
  148.6508  130.8476  152.7759 H   0  0  0  0  0  0  0  0  0  0  0  0
  147.4429  130.0768  153.7745 H   0  0  0  0  0  0  0  0  0  0  0  0
  146.4957  130.7803  151.5779 H   0  0  0  0  0  0  0  0  0  0  0  0
  145.6844  131.5727  152.9071 H   0  0  0  0  0  0  0  0  0  0  0  0
  147.8695  132.7896  151.1476 H   0  0  0  0  0  0  0  0  0  0  0  0
  146.1759  133.2205  151.1304 H   0  0  0  0  0  0  0  0  0  0  0  0
  147.5119  134.8635  152.4208 H   0  0  0  0  0  0  0  0  0  0  0  0
  146.3202  134.0924  153.4379 H   0  0  0  0  0  0  0  0  0  0  0  0
  149.2954  133.3622  153.3164 H   0  0  0  0  0  0  0  0  0  0  0  0
  149.7440  134.8197  156.4966 H   0  0  0  0  0  0  0  0  0  0  0  0
  150.3116  133.5191  155.4562 H   0  0  0  0  0  0  0  0  0  0  0  0
  151.5063  135.7627  155.1166 H   0  0  0  0  0  0  0  0  0  0  0  0
  150.8125  135.0518  153.6678 H   0  0  0  0  0  0  0  0  0  0  0  0
  149.2095  136.6480  153.5831 H   0  0  0  0  0  0  0  0  0  0  0  0
  150.0608  142.6480  155.8097 H   0  0  0  0  0  0  0  0  0  0  0  0
  151.7903  142.2799  155.5624 H   0  0  0  0  0  0  0  0  0  0  0  0
  150.9979  141.9380  157.1456 H   0  0  0  0  0  0  0  0  0  0  0  0
  147.1206  139.0357  154.4185 H   0  0  0  0  0  0  0  0  0  0  0  0
  147.8824  137.7853  153.3946 H   0  0  0  0  0  0  0  0  0  0  0  0
  147.9750  139.4844  152.8898 H   0  0  0  0  0  0  0  0  0  0  0  0
  1  2  1  0  0  0  0
  1 24  1  0  0  0  0
  1 25  1  0  0  0  0
  1 26  1  0  0  0  0
  2  7  1  0  0  0  0
  2  3  1  0  0  0  0
  2 27  1  0  0  0  0
  3  4  1  0  0  0  0
  3 28  1  0  0  0  0
  3 29  1  0  0  0  0
  4  5  1  0  0  0  0
  4 30  1  0  0  0  0
  4 31  1  0  0  0  0
  5  6  1  0  0  0  0
  5 32  1  0  0  0  0
  5 33  1  0  0  0  0
  6  7  1  0  0  0  0
  6 34  1  0  0  0  0
  6 35  1  0  0  0  0
  7  8  1  0  0  0  0
  7 36  1  0  0  0  0
  8  9  1  0  0  0  0
  9 10  1  0  0  0  0
  9 37  1  0  0  0  0
  9 38  1  0  0  0  0
 10 11  1  0  0  0  0
 10 39  1  0  0  0  0
 10 40  1  0  0  0  0
 11 12  1  0  0  0  0
 11 41  1  0  0  0  0
 12 22  1  0  0  0  0
 12 13  2  0  0  0  0
 13 14  1  0  0  0  0
 13 16  1  0  0  0  0
 14 15  3  0  0  0  0
 16 17  2  0  0  0  0
 16 18  1  0  0  0  0
 18 19  1  0  0  0  0
 18 20  1  0  0  0  0
 19 42  1  0  0  0  0
 19 43  1  0  0  0  0
 19 44  1  0  0  0  0
 20 21  2  0  0  0  0
 20 22  1  0  0  0  0
 22 23  1  0  0  0  0
 23 45  1  0  0  0  0
 23 46  1  0  0  0  0
 23 47  1  0  0  0  0
M  END
> <s_m_source_file>
AV-unprocessed.smi

> <i_m_source_file_index>
2067

> <i_lp_mmshare_version>
43012

> <i_f3d_flags>
0

> <s_epik_input>
W0NIM11bQ0BASF0xW0NIMl1bQ0gyXVtDSDJdW0NIMl1bQ0BIXTFPW0NIMl1bQ0gyXVtOSF1jMmMoQyNOKWMoPU8pbihbQ0gzXSljKD1PKW4yW0NIM10=

> <s_epik_cmdline>
J2VwaWtfcHl0aG9uJywgJy1waCcsICc3LjAnLCAnLXRuJywgJzgnLCAnLW1hJywgJzIwMCcsICctbWV0YWxfYmluZGluZycsICctaW1hZScsICc8aW5maWxlLm1hZT4nLCAnLW9tYWUnLCAnPG91dGZpbGUubWFlPic=

> <r_epik_Ionization_Penalty>
0.00056529

> <r_epik_Ionization_Penalty_Charging>
3.94678e-10

> <r_epik_Ionization_Penalty_Neutral>
0.000565289

> <r_epik_State_Penalty>
0.000354611

> <r_epik_Charging_Adjusted_Penalty>
0.000354611

> <i_epik_Tot_Q>
0

> <i_epik_Tot_abs_Q>
0

> <r_epik_Metal_State_Penalty>
-0

> <b_epik_Metal_Only>
0

> <s_lp_Force_Field>
OPLS_2005

> <r_lp_Energy>
32.0891

> <b_lp_Chiralities_Consistent>
1

> <s_lp_Variant>
AV-unprocessed.smi:2067-1

> <Gold.Version>
5.8.1

> <Gold.Id.Protein>
6NUR|6NUR_protein|mol2

> <Gold.PLP.Fitness>
40.7996

> <Gold.PLP.PLP>
-32.9542

> <Gold.PLP.part.hbond>
-3.0000

> <Gold.PLP.part.metal>
0.0000

> <Gold.PLP.part.buried>
-2.0703

> <Gold.PLP.part.nonpolar>
-28.8481

> <Gold.PLP.part.repulsive>
0.2550

> <Gold.PLP.ligand.clash>
8.7922

> <Gold.PLP.ligand.torsion>
0.5798

> <Gold.PLP.Chemscore.Hbond>
3.0000

> <Gold.PLP.Chemscore.CHOScore>
0.0000

> <Gold.PLP.Chemscore.Metal>
0.0000

> <Gold.Chemscore.Hbonds>
donor molecule, donor type, donor heavy atom, donor atom, acceptor molecule, acceptor atom, score
      L1  H    11    41       P1  7948  1.00
      P1  H  7997  8008       L1    17  1.00
      P1  H 10752 10764       L1    15  0.96

> <Gold.PLP.Chemscore.Internal.Correction>
8.7971

> <Gold.Rescore>
     Score         DG    S(hbond)    S(metal)    S(lipo)     H(rot)  DE(clash)    DE(int)     intcor
     14.00     -18.10       2.86        0.00      64.68       1.76       0.09       4.01       ----

> <Gold.Chemscore.Fitness>
14.0018

> <Gold.Chemscore.DG>
-18.1010

> <Gold.Chemscore.ZeroCoef>
-5.4800

> <Gold.Chemscore.Hbond>
2.8606

> <Gold.Chemscore.Metal>
0.0000

> <Gold.Chemscore.Lipo>
64.6805

> <Gold.Chemscore.Internal_Hbond>
0.0000

> <Gold.Chemscore.DEClash>
0.0851

> <Gold.Chemscore.DEInternal>
4.0141

> <Gold.Chemscore.Rot>
1.7583

> <Gold.Chemscore.Internal.Correction>
   9.000000E+99

> <Gold.Chemscore.Hbonds>
donor molecule, donor type, donor heavy atom, donor atom, acceptor molecule, acceptor atom, score
      L1  H    11    41       P1  7948  0.93
      P1  H  7997  8008       L1    17  0.99
      P1  H 10752 10764       L1    15  0.85

> <Gold.Chemscore.Hbond.Weighted>
-9.5546

> <Gold.Chemscore.Metal.Weighted>
-0.0000

> <Gold.Chemscore.Lipo.Weighted>
-7.5676

> <Gold.Chemscore.Internal_Hbond.Weighted>
0.0000

> <Gold.Chemscore.DEClash.Weighted>
0.0851

> <Gold.Chemscore.DEInternal.Weighted>
4.0141

> <Gold.Chemscore.Rot.Weighted>
4.5012

> <Gold.Chemscore.Internal.Correction.Weighted>
   9.000000E+99

> <Gold.Protein.RotatedTorsions>
[ 6907 6896 6895 6894 ] final -121.12 input  -60.11 | X-H torsion
[ 7974 7965 7964 7962 ] final  174.18 input  175.53 | X-H torsion
[ 8008 7997 7996 7995 ] final  -38.42 input   59.86 | X-H torsion
[ 10167 10162 10161 10158 ] final   86.29 input  -65.29 | X-H torsion
[ 10718 10713 10712 10709 ] final  125.40 input   66.30 | X-H torsion
[ 10763 10752 10751 10750 ] final   -6.43 input  -60.55 | X-H torsion
[ 11005 11000 10999 10996 ] final   63.01 input  -57.11 | X-H torsion

> <Gold.Protein.ActiveResidues>
 VAL166  LYS551  ARG553  GLY616  TRP617  ASP618  TYR619  PRO620  LYS621  CYS622 
 ASP623  PHE694  ASN695  SER759  ASP760  ASP761  ALA762  ILE779  LEU786  VAL792 
 PHE793  MET794  SER795  GLU796  ALA797  LYS798  CYS799  TRP800  GLU811  SER814 

> <Gold.Protein.RotatedAtoms>
  150.8454  133.7870  159.3044 H   0  0  0  0  0  0  0  0  0  0  0  0  # atno 6907 bound_to 6896
  151.5558  135.1065  159.9970 H   0  0  0  0  0  0  0  0  0  0  0  0  # atno 6908 bound_to 6896
  152.4509  133.7585  159.6789 H   0  0  0  0  0  0  0  0  0  0  0  0  # atno 6909 bound_to 6896
  144.7227  139.9758  143.6438 H   0  0  0  0  0  0  0  0  0  0  0  0  # atno 7974 bound_to 7965
  154.4037  140.1578  156.2697 H   0  0  0  0  0  0  0  0  0  0  0  0  # atno 8008 bound_to 7997
  155.8964  140.3435  155.5972 H   0  0  0  0  0  0  0  0  0  0  0  0  # atno 8009 bound_to 7997
  155.7499  140.0803  157.2197 H   0  0  0  0  0  0  0  0  0  0  0  0  # atno 8010 bound_to 7997
  139.8890  144.6396  150.8759 H   0  0  0  0  0  0  0  0  0  0  0  0  # atno 10167 bound_to 10162
  157.5506  131.1094  150.8709 H   0  0  0  0  0  0  0  0  0  0  0  0  # atno 10718 bound_to 10713
  153.4123  135.7008  153.6351 H   0  0  0  0  0  0  0  0  0  0  0  0  # atno 10763 bound_to 10752
  153.4840  135.3687  155.2457 H   0  0  0  0  0  0  0  0  0  0  0  0  # atno 10764 bound_to 10752
  154.8717  135.4073  154.3477 H   0  0  0  0  0  0  0  0  0  0  0  0  # atno 10765 bound_to 10752
  140.0053  134.6379  155.9865 H   0  0  0  0  0  0  0  0  0  0  0  0  # atno 11005 bound_to 11000
  146.0527  139.3526  143.0630 LP  0  0  0  0  0  0  0  0  0  0  0  0  # atno 17320 bound_to 7965
  145.8195  140.9686  143.0906 LP  0  0  0  0  0  0  0  0  0  0  0  0  # atno 17321 bound_to 7965
  140.7730  143.3525  151.1986 LP  0  0  0  0  0  0  0  0  0  0  0  0  # atno 17342 bound_to 10162
  139.7127  143.9351  152.2954 LP  0  0  0  0  0  0  0  0  0  0  0  0  # atno 17343 bound_to 10162
  156.9235  130.5323  149.5279 LP  0  0  0  0  0  0  0  0  0  0  0  0  # atno 17370 bound_to 10713
  156.0573  130.5632  150.9119 LP  0  0  0  0  0  0  0  0  0  0  0  0  # atno 17371 bound_to 10713
  141.1672  133.6537  156.4522 LP  0  0  0  0  0  0  0  0  0  0  0  0  # atno 17394 bound_to 11000
  140.4653  134.6804  157.5104 LP  0  0  0  0  0  0  0  0  0  0  0  0  # atno 17395 bound_to 11000

$$$$
