AV-unprocessed.smi:2448|AV-procd|sdf|9654|dock8
  -GOLD-   2272013283D 1   1.00000     0.00000
 Structure written by MMmdl.
 37 38  0  0  0  0  0  0  0  0  1 V2000
  146.8158  132.2801  150.1949 O   0  0  0  0  0  0  0  0  0  0  0  0
  146.1223  132.5571  151.3990 C   0  0  2  0  0  0  0  0  0  0  0  0
  146.9986  132.0986  152.5819 C   0  0  0  0  0  0  0  0  0  0  0  0
  147.4232  130.7024  152.4444 N   0  0  0  0  0  0  0  0  0  0  0  0
  148.2197  130.1617  153.5555 C   0  0  1  0  0  0  0  0  0  0  0  0
  147.7067  130.6424  154.9377 C   0  0  0  0  0  0  0  0  0  0  0  0
  148.7465  131.3159  155.8151 C   0  0  0  0  0  0  0  0  0  0  0  0
  149.4756  132.4273  155.3442 C   0  0  0  0  0  0  0  0  0  0  0  0
  150.4228  133.0221  156.2018 C   0  0  0  0  0  0  0  0  0  0  0  0
  150.6697  132.5809  157.4539 N   0  0  0  0  0  0  0  0  0  0  0  0
  149.9728  131.5122  157.8961 C   0  0  0  0  0  0  0  0  0  0  0  0
  149.0057  130.8436  157.1193 C   0  0  0  0  0  0  0  0  0  0  0  0
  148.2265  128.6202  153.4802 C   0  0  0  0  0  0  0  0  0  0  0  0
  147.0115  128.1482  153.7617 F   0  0  0  0  0  0  0  0  0  0  0  0
  148.5514  128.2182  152.2513 F   0  0  0  0  0  0  0  0  0  0  0  0
  149.0989  128.1067  154.3486 F   0  0  0  0  0  0  0  0  0  0  0  0
  144.7308  131.8998  151.3660 C   0  0  0  0  0  0  0  0  0  0  0  0
  143.8587  132.6928  150.3879 C   0  0  0  0  0  0  0  0  0  0  0  0
  144.3676  134.4273  150.4799 S   0  0  0  0  0  0  0  0  0  0  0  0
  145.8579  134.0720  151.4494 C   0  0  0  0  0  0  0  0  0  0  0  0
  146.8291  133.0656  149.6698 H   0  0  0  0  0  0  0  0  0  0  0  0
  147.8714  132.7474  152.6669 H   0  0  0  0  0  0  0  0  0  0  0  0
  146.4301  132.2371  153.4972 H   0  0  0  0  0  0  0  0  0  0  0  0
  147.9481  130.6011  151.5814 H   0  0  0  0  0  0  0  0  0  0  0  0
  149.2576  130.4770  153.4379 H   0  0  0  0  0  0  0  0  0  0  0  0
  146.8536  131.3092  154.8050 H   0  0  0  0  0  0  0  0  0  0  0  0
  147.3285  129.7912  155.5039 H   0  0  0  0  0  0  0  0  0  0  0  0
  149.3128  132.8191  154.3508 H   0  0  0  0  0  0  0  0  0  0  0  0
  150.9965  133.8759  155.8729 H   0  0  0  0  0  0  0  0  0  0  0  0
  150.1910  131.1798  158.9002 H   0  0  0  0  0  0  0  0  0  0  0  0
  148.4711  129.9960  157.5222 H   0  0  0  0  0  0  0  0  0  0  0  0
  144.7735  130.8441  151.0957 H   0  0  0  0  0  0  0  0  0  0  0  0
  144.2852  131.9542  152.3605 H   0  0  0  0  0  0  0  0  0  0  0  0
  144.0275  132.3441  149.3687 H   0  0  0  0  0  0  0  0  0  0  0  0
  142.7958  132.5838  150.6039 H   0  0  0  0  0  0  0  0  0  0  0  0
  145.6503  134.3818  152.4745 H   0  0  0  0  0  0  0  0  0  0  0  0
  146.7060  134.6624  151.1004 H   0  0  0  0  0  0  0  0  0  0  0  0
  1  2  1  0  0  0  0
  1 21  1  0  0  0  0
  2 20  1  0  0  0  0
  2  3  1  0  0  0  0
  2 17  1  0  0  0  0
  3  4  1  0  0  0  0
  3 22  1  0  0  0  0
  3 23  1  0  0  0  0
  4  5  1  0  0  0  0
  4 24  1  0  0  0  0
  5  6  1  0  0  0  0
  5 13  1  0  0  0  0
  5 25  1  0  0  0  0
  6  7  1  0  0  0  0
  6 26  1  0  0  0  0
  6 27  1  0  0  0  0
  7 12  1  0  0  0  0
  7  8  2  0  0  0  0
  8  9  1  0  0  0  0
  8 28  1  0  0  0  0
  9 10  2  0  0  0  0
  9 29  1  0  0  0  0
 10 11  1  0  0  0  0
 11 12  2  0  0  0  0
 11 30  1  0  0  0  0
 12 31  1  0  0  0  0
 13 14  1  0  0  0  0
 13 15  1  0  0  0  0
 13 16  1  0  0  0  0
 17 18  1  0  0  0  0
 17 32  1  0  0  0  0
 17 33  1  0  0  0  0
 18 19  1  0  0  0  0
 18 34  1  0  0  0  0
 18 35  1  0  0  0  0
 19 20  1  0  0  0  0
 20 36  1  0  0  0  0
 20 37  1  0  0  0  0
M  END
> <s_m_source_file>
AV-unprocessed.smi

> <i_m_source_file_index>
2448

> <i_lp_mmshare_version>
43012

> <i_f3d_flags>
0

> <s_epik_input>
W0NIMl0xU1tDSDJdW0NIMl1bQ0BAXTEoW09IXSlbQ0gyXVtOSF1bQ0BASF0oQyhGKShGKUYpW0NIMl1jMltjSF1bY0hdbltjSF1bY0hdMg==

> <s_epik_cmdline>
J2VwaWtfcHl0aG9uJywgJy1waCcsICc3LjAnLCAnLXRuJywgJzgnLCAnLW1hJywgJzIwMCcsICctbWV0YWxfYmluZGluZycsICctaW1hZScsICc8aW5maWxlLm1hZT4nLCAnLW9tYWUnLCAnPG91dGZpbGUubWFlPic=

> <r_epik_Ionization_Penalty>
0.187708

> <r_epik_Ionization_Penalty_Charging>
0

> <r_epik_Ionization_Penalty_Neutral>
0.187708

> <r_epik_State_Penalty>
0.22769

> <r_epik_Charging_Adjusted_Penalty>
0.22769

> <i_epik_Tot_Q>
0

> <i_epik_Tot_abs_Q>
0

> <r_epik_Metal_State_Penalty>
0.176206

> <b_epik_Metal_Only>
0

> <s_lp_Force_Field>
OPLS_2005

> <r_lp_Energy>
32.1686

> <b_lp_Chiralities_Consistent>
1

> <s_lp_Variant>
AV-unprocessed.smi:2448-4

> <Gold.Version>
5.8.1

> <Gold.Id.Protein>
6NUR|6NUR_protein|mol2

> <Gold.PLP.Fitness>
35.1453

> <Gold.PLP.PLP>
-30.7210

> <Gold.PLP.part.hbond>
-3.0000

> <Gold.PLP.part.metal>
0.0000

> <Gold.PLP.part.buried>
-5.2185

> <Gold.PLP.part.nonpolar>
-23.4012

> <Gold.PLP.part.repulsive>
0.0000

> <Gold.PLP.ligand.clash>
0.0000

> <Gold.PLP.ligand.torsion>
1.0564

> <Gold.PLP.Chemscore.Hbond>
1.9913

> <Gold.PLP.Chemscore.CHOScore>
0.0000

> <Gold.PLP.Chemscore.Metal>
0.0000

> <Gold.Chemscore.Hbonds>
donor molecule, donor type, donor heavy atom, donor atom, acceptor molecule, acceptor atom, score
      L1  H     4    24       P1 10747  1.00
      P1  H  6896  6907       L1    10  1.00

> <Gold.PLP.Chemscore.Internal.Correction>
0.5633

> <Gold.Rescore>
     Score         DG    S(hbond)    S(metal)    S(lipo)     H(rot)  DE(clash)    DE(int)     intcor
     13.80     -14.63       1.95        0.00      73.00       2.31       0.02       0.81       ----

> <Gold.Chemscore.Fitness>
13.7956

> <Gold.Chemscore.DG>
-14.6266

> <Gold.Chemscore.ZeroCoef>
-5.4800

> <Gold.Chemscore.Hbond>
1.9525

> <Gold.Chemscore.Metal>
0.0000

> <Gold.Chemscore.Lipo>
73.0044

> <Gold.Chemscore.Internal_Hbond>
0.0000

> <Gold.Chemscore.DEClash>
0.0204

> <Gold.Chemscore.DEInternal>
0.8105

> <Gold.Chemscore.Rot>
2.3111

> <Gold.Chemscore.Internal.Correction>
   9.000000E+99

> <Gold.Chemscore.Hbonds>
donor molecule, donor type, donor heavy atom, donor atom, acceptor molecule, acceptor atom, score
      L1  H     4    24       P1 10747  1.00
      P1  H  6896  6907       L1    10  0.24

> <Gold.Chemscore.Hbond.Weighted>
-6.5214

> <Gold.Chemscore.Metal.Weighted>
-0.0000

> <Gold.Chemscore.Lipo.Weighted>
-8.5415

> <Gold.Chemscore.Internal_Hbond.Weighted>
0.0000

> <Gold.Chemscore.DEClash.Weighted>
0.0204

> <Gold.Chemscore.DEInternal.Weighted>
0.8105

> <Gold.Chemscore.Rot.Weighted>
5.9164

> <Gold.Chemscore.Internal.Correction.Weighted>
   9.000000E+99

> <Gold.Protein.RotatedTorsions>
[ 6907 6896 6895 6894 ] final -148.59 input  -60.11 | X-H torsion
[ 7974 7965 7964 7962 ] final  -82.91 input  175.53 | X-H torsion
[ 8008 7997 7996 7995 ] final  148.42 input   59.86 | X-H torsion
[ 10167 10162 10161 10158 ] final  174.93 input  -65.29 | X-H torsion
[ 10718 10713 10712 10709 ] final  100.97 input   66.30 | X-H torsion
[ 10763 10752 10751 10750 ] final  -86.97 input  -60.55 | X-H torsion
[ 11005 11000 10999 10996 ] final -163.76 input  -57.11 | X-H torsion

> <Gold.Protein.ActiveResidues>
 VAL166  LYS551  ARG553  GLY616  TRP617  ASP618  TYR619  PRO620  LYS621  CYS622 
 ASP623  PHE694  ASN695  SER759  ASP760  ASP761  ALA762  ILE779  LEU786  VAL792 
 PHE793  MET794  SER795  GLU796  ALA797  LYS798  CYS799  TRP800  GLU811  SER814 

> <Gold.Protein.RotatedAtoms>
  151.1719  133.4779  159.2593 H   0  0  0  0  0  0  0  0  0  0  0  0  # atno 6907 bound_to 6896
  151.1347  135.0148  159.8608 H   0  0  0  0  0  0  0  0  0  0  0  0  # atno 6908 bound_to 6896
  152.5461  134.1619  159.8614 H   0  0  0  0  0  0  0  0  0  0  0  0  # atno 6909 bound_to 6896
  145.5270  140.9525  143.1624 H   0  0  0  0  0  0  0  0  0  0  0  0  # atno 7974 bound_to 7965
  156.2791  140.2129  156.5696 H   0  0  0  0  0  0  0  0  0  0  0  0  # atno 8008 bound_to 7997
  154.7147  140.0509  157.0606 H   0  0  0  0  0  0  0  0  0  0  0  0  # atno 8009 bound_to 7997
  155.0559  140.3161  155.4679 H   0  0  0  0  0  0  0  0  0  0  0  0  # atno 8010 bound_to 7997
  139.5159  144.3090  152.0309 H   0  0  0  0  0  0  0  0  0  0  0  0  # atno 10167 bound_to 10162
  157.6841  131.0713  150.5181 H   0  0  0  0  0  0  0  0  0  0  0  0  # atno 10718 bound_to 10713
  154.6284  135.5430  153.7652 H   0  0  0  0  0  0  0  0  0  0  0  0  # atno 10763 bound_to 10752
  153.0272  135.6430  154.1338 H   0  0  0  0  0  0  0  0  0  0  0  0  # atno 10764 bound_to 10752
  154.1269  135.2916  155.3175 H   0  0  0  0  0  0  0  0  0  0  0  0  # atno 10765 bound_to 10752
  140.5945  134.5011  157.5197 H   0  0  0  0  0  0  0  0  0  0  0  0  # atno 11005 bound_to 11000
  144.7646  139.6876  143.7220 LP  0  0  0  0  0  0  0  0  0  0  0  0  # atno 17320 bound_to 7965
  146.2069  139.5399  142.9707 LP  0  0  0  0  0  0  0  0  0  0  0  0  # atno 17321 bound_to 7965
  140.2535  144.4144  150.6213 LP  0  0  0  0  0  0  0  0  0  0  0  0  # atno 17342 bound_to 10162
  140.6208  143.2176  151.6698 LP  0  0  0  0  0  0  0  0  0  0  0  0  # atno 17343 bound_to 10162
  156.5495  130.4228  149.6114 LP  0  0  0  0  0  0  0  0  0  0  0  0  # atno 17370 bound_to 10713
  156.2915  130.7126  151.1976 LP  0  0  0  0  0  0  0  0  0  0  0  0  # atno 17371 bound_to 10713
  139.9259  134.8056  156.1069 LP  0  0  0  0  0  0  0  0  0  0  0  0  # atno 17394 bound_to 11000
  141.0913  133.6713  156.2547 LP  0  0  0  0  0  0  0  0  0  0  0  0  # atno 17395 bound_to 11000

$$$$
