AV-unprocessed.smi:2462|AV-procd|sdf|9718|dock8
  -GOLD-   2272013363D 1   1.00000     0.00000
 Structure written by MMmdl.
 40 41  0  0  0  0  0  0  0  0  1 V2000
  152.5267  143.2083  161.5889 C   0  0  0  0  0  0  0  0  0  0  0  0
  152.1781  142.7691  160.1776 C   0  0  0  0  0  0  0  0  0  0  0  0
  151.3428  143.6337  159.4656 N   0  0  0  0  0  0  0  0  0  0  0  0
  151.0085  143.3503  158.2495 C   0  0  0  0  0  0  0  0  0  0  0  0
  151.4653  142.1851  157.6070 N   0  0  0  0  0  0  0  0  0  0  0  0
  151.0196  141.9779  156.2135 C   0  0  0  0  0  0  0  0  0  0  0  0
  149.5956  141.3628  156.0608 C   0  0  1  0  0  0  0  0  0  0  0  0
  148.6847  142.2556  156.6754 O   0  0  0  0  0  0  0  0  0  0  0  0
  149.2166  141.3135  154.5604 C   0  0  0  0  0  0  0  0  0  0  0  0
  147.8457  140.6642  154.2968 C   0  0  0  0  0  0  0  0  0  0  0  0
  147.7576  139.2573  154.9125 C   0  0  2  0  0  0  0  0  0  0  0  0
  146.3937  138.6078  154.6397 C   0  0  0  0  0  0  0  0  0  0  0  0
  148.0611  139.3212  156.4191 C   0  0  0  0  0  0  0  0  0  0  0  0
  149.4340  139.9588  156.6975 C   0  0  0  0  0  0  0  0  0  0  0  0
  152.2492  141.2686  158.2463 C   0  0  0  0  0  0  0  0  0  0  0  0
  152.6040  140.2232  157.6992 O   0  0  0  0  0  0  0  0  0  0  0  0
  152.6380  141.6146  159.6232 C   0  0  0  0  0  0  0  0  0  0  0  0
  153.5513  140.6358  160.3507 C   0  0  0  0  0  0  0  0  0  0  0  0
  152.2147  142.4549  162.3128 H   0  0  0  0  0  0  0  0  0  0  0  0
  152.0311  144.1448  161.8478 H   0  0  0  0  0  0  0  0  0  0  0  0
  153.6018  143.3618  161.6850 H   0  0  0  0  0  0  0  0  0  0  0  0
  150.3638  143.9961  157.6510 H   0  0  0  0  0  0  0  0  0  0  0  0
  151.0881  142.9114  155.6514 H   0  0  0  0  0  0  0  0  0  0  0  0
  151.7368  141.3283  155.7079 H   0  0  0  0  0  0  0  0  0  0  0  0
  148.9314  143.1390  156.4482 H   0  0  0  0  0  0  0  0  0  0  0  0
  149.2338  142.3174  154.1334 H   0  0  0  0  0  0  0  0  0  0  0  0
  149.9721  140.7444  154.0167 H   0  0  0  0  0  0  0  0  0  0  0  0
  147.0530  141.2961  154.6999 H   0  0  0  0  0  0  0  0  0  0  0  0
  147.6732  140.6099  153.2214 H   0  0  0  0  0  0  0  0  0  0  0  0
  148.5189  138.6337  154.4412 H   0  0  0  0  0  0  0  0  0  0  0  0
  145.5826  139.1857  155.0836 H   0  0  0  0  0  0  0  0  0  0  0  0
  146.3490  137.5996  155.0529 H   0  0  0  0  0  0  0  0  0  0  0  0
  146.2020  138.5330  153.5690 H   0  0  0  0  0  0  0  0  0  0  0  0
  147.2817  139.8876  156.9306 H   0  0  0  0  0  0  0  0  0  0  0  0
  148.0372  138.3178  156.8454 H   0  0  0  0  0  0  0  0  0  0  0  0
  150.2077  139.2966  156.3070 H   0  0  0  0  0  0  0  0  0  0  0  0
  149.5874  140.0067  157.7762 H   0  0  0  0  0  0  0  0  0  0  0  0
  154.4739  140.4919  159.7869 H   0  0  0  0  0  0  0  0  0  0  0  0
  153.0607  139.6667  160.4495 H   0  0  0  0  0  0  0  0  0  0  0  0
  153.8290  140.9676  161.3499 H   0  0  0  0  0  0  0  0  0  0  0  0
  1  2  1  0  0  0  0
  1 19  1  0  0  0  0
  1 20  1  0  0  0  0
  1 21  1  0  0  0  0
  2 17  2  0  0  0  0
  2  3  1  0  0  0  0
  3  4  2  0  0  0  0
  4  5  1  0  0  0  0
  4 22  1  0  0  0  0
  5  6  1  0  0  0  0
  5 15  1  0  0  0  0
  6  7  1  0  0  0  0
  6 23  1  0  0  0  0
  6 24  1  0  0  0  0
  7 14  1  0  0  0  0
  7  8  1  0  0  0  0
  7  9  1  0  0  0  0
  8 25  1  0  0  0  0
  9 10  1  0  0  0  0
  9 26  1  0  0  0  0
  9 27  1  0  0  0  0
 10 11  1  0  0  0  0
 10 28  1  0  0  0  0
 10 29  1  0  0  0  0
 11 12  1  0  0  0  0
 11 13  1  0  0  0  0
 11 30  1  0  0  0  0
 12 31  1  0  0  0  0
 12 32  1  0  0  0  0
 12 33  1  0  0  0  0
 13 14  1  0  0  0  0
 13 34  1  0  0  0  0
 13 35  1  0  0  0  0
 14 36  1  0  0  0  0
 14 37  1  0  0  0  0
 15 16  2  0  0  0  0
 15 17  1  0  0  0  0
 17 18  1  0  0  0  0
 18 38  1  0  0  0  0
 18 39  1  0  0  0  0
 18 40  1  0  0  0  0
M  END
> <s_m_source_file>
AV-unprocessed.smi

> <i_m_source_file_index>
2462

> <i_lp_mmshare_version>
43012

> <i_f3d_flags>
0

> <s_epik_input>
W0NIM11jMW5bY0hdbihjKD1PKWMxW0NIM10pW0NIMl1bQ0BAXTIoW09IXSlbQ0gyXVtDSDJdW0NAQEhdKFtDSDNdKVtDSDJdW0NIMl0y

> <s_epik_cmdline>
J2VwaWtfcHl0aG9uJywgJy1waCcsICc3LjAnLCAnLXRuJywgJzgnLCAnLW1hJywgJzIwMCcsICctbWV0YWxfYmluZGluZycsICctaW1hZScsICc8aW5maWxlLm1hZT4nLCAnLW9tYWUnLCAnPG91dGZpbGUubWFlPic=

> <r_lp_tautomer_probability>
1

> <r_epik_Ionization_Penalty>
0.000179745

> <r_epik_Ionization_Penalty_Charging>
2.35483e-07

> <r_epik_Ionization_Penalty_Neutral>
0.00017951

> <r_epik_State_Penalty>
-0

> <r_epik_Charging_Adjusted_Penalty>
2.35483e-07

> <i_epik_Tot_Q>
0

> <i_epik_Tot_abs_Q>
0

> <r_epik_Metal_State_Penalty>
-0

> <b_epik_Metal_Only>
0

> <s_lp_Force_Field>
OPLS_2005

> <r_lp_Energy>
24.8563

> <b_lp_Chiralities_Consistent>
1

> <s_lp_Variant>
AV-unprocessed.smi:2462-2

> <Gold.Version>
5.8.1

> <Gold.Id.Protein>
6NUR|6NUR_protein|mol2

> <Gold.PLP.Fitness>
40.7719

> <Gold.PLP.PLP>
-32.4181

> <Gold.PLP.part.hbond>
-2.0000

> <Gold.PLP.part.metal>
0.0000

> <Gold.PLP.part.buried>
-5.0847

> <Gold.PLP.part.nonpolar>
-24.4528

> <Gold.PLP.part.repulsive>
0.0384

> <Gold.PLP.ligand.clash>
0.0000

> <Gold.PLP.ligand.torsion>
0.3281

> <Gold.PLP.Chemscore.Hbond>
1.9833

> <Gold.PLP.Chemscore.CHOScore>
0.9997

> <Gold.PLP.Chemscore.Metal>
0.0000

> <Gold.Chemscore.Hbonds>
donor molecule, donor type, donor heavy atom, donor atom, acceptor molecule, acceptor atom, score
      L1  H     8    25       P1  8028  1.00
      P1  H  7997  8009       L1    16  0.98
      L1  C     4    22       P1  8028  0.93

> <Gold.PLP.Chemscore.Internal.Correction>
0.0608

> <Gold.Rescore>
     Score         DG    S(hbond)    S(metal)    S(lipo)     H(rot)  DE(clash)    DE(int)     intcor
     16.29     -16.67       1.93        0.00      77.10       1.68       0.00       0.37       ----

> <Gold.Chemscore.Fitness>
16.2937

> <Gold.Chemscore.DG>
-16.6710

> <Gold.Chemscore.ZeroCoef>
-5.4800

> <Gold.Chemscore.Hbond>
1.9344

> <Gold.Chemscore.Metal>
0.0000

> <Gold.Chemscore.Lipo>
77.0953

> <Gold.Chemscore.Internal_Hbond>
0.0000

> <Gold.Chemscore.DEClash>
0.0044

> <Gold.Chemscore.DEInternal>
0.3730

> <Gold.Chemscore.Rot>
1.6758

> <Gold.Chemscore.Internal.Correction>
   9.000000E+99

> <Gold.Chemscore.Hbonds>
donor molecule, donor type, donor heavy atom, donor atom, acceptor molecule, acceptor atom, score
      L1  H     8    25       P1  8028  0.98
      P1  H  7997  8009       L1    16  0.85

> <Gold.Chemscore.Hbond.Weighted>
-6.4608

> <Gold.Chemscore.Metal.Weighted>
-0.0000

> <Gold.Chemscore.Lipo.Weighted>
-9.0201

> <Gold.Chemscore.Internal_Hbond.Weighted>
0.0000

> <Gold.Chemscore.DEClash.Weighted>
0.0044

> <Gold.Chemscore.DEInternal.Weighted>
0.3730

> <Gold.Chemscore.Rot.Weighted>
4.2899

> <Gold.Chemscore.Internal.Correction.Weighted>
   9.000000E+99

> <Gold.Protein.RotatedTorsions>
[ 6907 6896 6895 6894 ] final   -9.94 input  -60.11 | X-H torsion
[ 7974 7965 7964 7962 ] final  -14.15 input  175.53 | X-H torsion
[ 8008 7997 7996 7995 ] final  171.95 input   59.86 | X-H torsion
[ 10167 10162 10161 10158 ] final -176.02 input  -65.29 | X-H torsion
[ 10718 10713 10712 10709 ] final  120.13 input   66.30 | X-H torsion
[ 10763 10752 10751 10750 ] final  125.78 input  -60.55 | X-H torsion
[ 11005 11000 10999 10996 ] final   88.69 input  -57.11 | X-H torsion

> <Gold.Protein.ActiveResidues>
 VAL166  LYS551  ARG553  GLY616  TRP617  ASP618  TYR619  PRO620  LYS621  CYS622 
 ASP623  PHE694  ASN695  SER759  ASP760  ASP761  ALA762  ILE779  LEU786  VAL792 
 PHE793  MET794  SER795  GLU796  ALA797  LYS798  CYS799  TRP800  GLU811  SER814 

> <Gold.Protein.RotatedAtoms>
  151.4099  135.0983  159.9581 H   0  0  0  0  0  0  0  0  0  0  0  0  # atno 6907 bound_to 6896
  152.5023  133.8808  159.7355 H   0  0  0  0  0  0  0  0  0  0  0  0  # atno 6908 bound_to 6896
  150.9300  133.6721  159.2841 H   0  0  0  0  0  0  0  0  0  0  0  0  # atno 6909 bound_to 6896
  146.2086  140.3307  142.8398 H   0  0  0  0  0  0  0  0  0  0  0  0  # atno 7974 bound_to 7965
  156.1222  140.1498  156.9188 H   0  0  0  0  0  0  0  0  0  0  0  0  # atno 8008 bound_to 7997
  154.4844  140.0869  156.7494 H   0  0  0  0  0  0  0  0  0  0  0  0  # atno 8009 bound_to 7997
  155.4408  140.3431  155.4292 H   0  0  0  0  0  0  0  0  0  0  0  0  # atno 8010 bound_to 7997
  139.5551  144.2010  152.1145 H   0  0  0  0  0  0  0  0  0  0  0  0  # atno 10167 bound_to 10162
  157.5912  131.1064  150.7993 H   0  0  0  0  0  0  0  0  0  0  0  0  # atno 10718 bound_to 10713
  153.6828  135.3311  155.3182 H   0  0  0  0  0  0  0  0  0  0  0  0  # atno 10763 bound_to 10752
  154.8461  135.4413  154.1589 H   0  0  0  0  0  0  0  0  0  0  0  0  # atno 10764 bound_to 10752
  153.2609  135.6991  153.7656 H   0  0  0  0  0  0  0  0  0  0  0  0  # atno 10765 bound_to 10752
  139.8891  134.8504  156.3036 H   0  0  0  0  0  0  0  0  0  0  0  0  # atno 11005 bound_to 11000
  144.8855  140.7456  143.5960 LP  0  0  0  0  0  0  0  0  0  0  0  0  # atno 17320 bound_to 7965
  145.3228  139.1783  143.4579 LP  0  0  0  0  0  0  0  0  0  0  0  0  # atno 17321 bound_to 7965
  140.1512  144.5112  150.6686 LP  0  0  0  0  0  0  0  0  0  0  0  0  # atno 17342 bound_to 10162
  140.6822  143.2332  151.5354 LP  0  0  0  0  0  0  0  0  0  0  0  0  # atno 17343 bound_to 10162
  156.8414  130.5049  149.5321 LP  0  0  0  0  0  0  0  0  0  0  0  0  # atno 17370 bound_to 10713
  156.0968  130.5938  150.9826 LP  0  0  0  0  0  0  0  0  0  0  0  0  # atno 17371 bound_to 10713
  140.9897  133.7216  156.0795 LP  0  0  0  0  0  0  0  0  0  0  0  0  # atno 17394 bound_to 11000
  140.7641  134.3906  157.5520 LP  0  0  0  0  0  0  0  0  0  0  0  0  # atno 17395 bound_to 11000

$$$$
