AV-unprocessed.smi:1230|AV-procd|sdf|5157|dock6
  -GOLD-   22720 4233D 1   1.00000     0.00000
 Structure written by MMmdl.
 39 40  0  0  0  0  0  0  0  0  1 V2000
  152.0845  144.8005  158.0432 C   0  0  0  0  0  0  0  0  0  0  0  0
  152.7026  144.1937  159.3126 C   0  0  1  0  0  0  0  0  0  0  0  0
  151.9208  144.5934  160.5805 C   0  0  0  0  0  0  0  0  0  0  0  0
  152.5684  144.0141  161.8485 C   0  0  0  0  0  0  0  0  0  0  0  0
  152.7233  142.4887  161.7506 C   0  0  0  0  0  0  0  0  0  0  0  0
  153.5036  142.0890  160.4877 C   0  0  0  0  0  0  0  0  0  0  0  0
  152.8511  142.6590  159.2097 C   0  0  1  0  0  0  0  0  0  0  0  0
  151.5588  142.0948  159.0104 O   0  0  0  0  0  0  0  0  0  0  0  0
  151.5608  140.7401  158.5880 C   0  0  0  0  0  0  0  0  0  0  0  0
  150.6001  140.6063  157.3971 C   0  0  0  0  0  0  0  0  0  0  0  0
  150.7605  139.3648  156.6824 N   0  0  0  0  0  0  0  0  0  0  0  0
  150.4391  138.1374  157.2420 C   0  0  0  0  0  0  0  0  0  0  0  0
  150.6003  136.9663  156.5813 C   0  0  0  0  0  0  0  0  0  0  0  0
  150.2653  135.7114  157.1692 C   0  0  0  0  0  0  0  0  0  0  0  0
  149.9709  134.7019  157.6530 N   0  0  0  0  0  0  0  0  0  0  0  0
  151.1347  136.9432  155.2207 C   0  0  0  0  0  0  0  0  0  0  0  0
  151.3159  135.9365  154.5381 O   0  0  0  0  0  0  0  0  0  0  0  0
  151.4514  138.2041  154.7045 N   0  0  0  0  0  0  0  0  0  0  0  0
  151.2933  139.4199  155.3727 C   0  0  0  0  0  0  0  0  0  0  0  0
  151.6154  140.4709  154.8181 O   0  0  0  0  0  0  0  0  0  0  0  0
  151.8289  138.2384  153.7686 H   0  0  0  0  0  0  0  0  0  0  0  0
  151.0635  144.4504  157.8884 H   0  0  0  0  0  0  0  0  0  0  0  0
  152.6646  144.5353  157.1591 H   0  0  0  0  0  0  0  0  0  0  0  0
  152.0550  145.8886  158.1036 H   0  0  0  0  0  0  0  0  0  0  0  0
  153.7062  144.6118  159.4047 H   0  0  0  0  0  0  0  0  0  0  0  0
  151.8721  145.6797  160.6612 H   0  0  0  0  0  0  0  0  0  0  0  0
  150.8898  144.2450  160.5062 H   0  0  0  0  0  0  0  0  0  0  0  0
  153.5474  144.4710  161.9991 H   0  0  0  0  0  0  0  0  0  0  0  0
  151.9701  144.2716  162.7228 H   0  0  0  0  0  0  0  0  0  0  0  0
  153.2328  142.1097  162.6369 H   0  0  0  0  0  0  0  0  0  0  0  0
  151.7383  142.0203  161.7374 H   0  0  0  0  0  0  0  0  0  0  0  0
  154.5241  142.4663  160.5654 H   0  0  0  0  0  0  0  0  0  0  0  0
  153.5922  141.0047  160.4324 H   0  0  0  0  0  0  0  0  0  0  0  0
  153.4853  142.4350  158.3499 H   0  0  0  0  0  0  0  0  0  0  0  0
  152.5704  140.4435  158.3008 H   0  0  0  0  0  0  0  0  0  0  0  0
  151.2412  140.0822  159.3960 H   0  0  0  0  0  0  0  0  0  0  0  0
  149.5631  140.6324  157.7356 H   0  0  0  0  0  0  0  0  0  0  0  0
  150.7078  141.4208  156.6774 H   0  0  0  0  0  0  0  0  0  0  0  0
  150.0446  138.1076  158.2482 H   0  0  0  0  0  0  0  0  0  0  0  0
  1  2  1  0  0  0  0
  1 22  1  0  0  0  0
  1 23  1  0  0  0  0
  1 24  1  0  0  0  0
  2  7  1  0  0  0  0
  2  3  1  0  0  0  0
  2 25  1  0  0  0  0
  3  4  1  0  0  0  0
  3 26  1  0  0  0  0
  3 27  1  0  0  0  0
  4  5  1  0  0  0  0
  4 28  1  0  0  0  0
  4 29  1  0  0  0  0
  5  6  1  0  0  0  0
  5 30  1  0  0  0  0
  5 31  1  0  0  0  0
  6  7  1  0  0  0  0
  6 32  1  0  0  0  0
  6 33  1  0  0  0  0
  7  8  1  0  0  0  0
  7 34  1  0  0  0  0
  8  9  1  0  0  0  0
  9 10  1  0  0  0  0
  9 35  1  0  0  0  0
  9 36  1  0  0  0  0
 10 11  1  0  0  0  0
 10 37  1  0  0  0  0
 10 38  1  0  0  0  0
 11 19  1  0  0  0  0
 11 12  1  0  0  0  0
 12 13  2  0  0  0  0
 12 39  1  0  0  0  0
 13 14  1  0  0  0  0
 13 16  1  0  0  0  0
 14 15  3  0  0  0  0
 16 17  2  0  0  0  0
 16 18  1  0  0  0  0
 18 21  1  0  0  0  0
 18 19  1  0  0  0  0
 19 20  2  0  0  0  0
M  END
> <s_m_source_file>
AV-unprocessed.smi

> <i_m_source_file_index>
1230

> <i_lp_mmshare_version>
43012

> <i_f3d_flags>
0

> <s_epik_input>
W0NIM11bQ0BASF0xW0NIMl1bQ0gyXVtDSDJdW0NIMl1bQ0BIXTFPW0NIMl1bQ0gyXW4yW2NIXWMoQyNOKWMoPU8pW25IXWMyPU8=

> <s_epik_cmdline>
J2VwaWtfcHl0aG9uJywgJy1waCcsICc3LjAnLCAnLXRuJywgJzgnLCAnLW1hJywgJzIwMCcsICctbWV0YWxfYmluZGluZycsICctaW1hZScsICc8aW5maWxlLm1hZT4nLCAnLW9tYWUnLCAnPG91dGZpbGUubWFlPic=

> <r_epik_Ionization_Penalty>
0.421541

> <r_epik_Ionization_Penalty_Charging>
0.421541

> <r_epik_Ionization_Penalty_Neutral>
2.29267e-11

> <r_epik_State_Penalty>
0.422277

> <r_epik_Charging_Adjusted_Penalty>
0.843818

> <i_epik_Tot_Q>
0

> <i_epik_Tot_abs_Q>
0

> <r_epik_Metal_State_Penalty>
4.11629

> <b_epik_Metal_Only>
0

> <s_lp_Force_Field>
OPLS_2005

> <r_lp_Energy>
14.8101

> <b_lp_Chiralities_Consistent>
1

> <s_lp_Variant>
AV-unprocessed.smi:1230-6

> <Gold.Version>
5.8.1

> <Gold.Id.Protein>
6NUR|6NUR_protein|mol2

> <Gold.PLP.Fitness>
50.0119

> <Gold.PLP.PLP>
-42.1338

> <Gold.PLP.part.hbond>
-2.9646

> <Gold.PLP.part.metal>
0.0000

> <Gold.PLP.part.buried>
-6.3431

> <Gold.PLP.part.nonpolar>
-32.4534

> <Gold.PLP.part.repulsive>
0.3114

> <Gold.PLP.ligand.clash>
0.0000

> <Gold.PLP.ligand.torsion>
0.5352

> <Gold.PLP.Chemscore.Hbond>
2.9760

> <Gold.PLP.Chemscore.CHOScore>
0.0000

> <Gold.PLP.Chemscore.Metal>
0.0000

> <Gold.Chemscore.Hbonds>
donor molecule, donor type, donor heavy atom, donor atom, acceptor molecule, acceptor atom, score
      P1  H  6896  6908       L1    15  0.85
      P1  H  7989  7998       L1    20  0.54
      P1  H 10752 10763       L1    17  1.00

> <Gold.PLP.Chemscore.Internal.Correction>
0.0206

> <Gold.Rescore>
     Score         DG    S(hbond)    S(metal)    S(lipo)     H(rot)  DE(clash)    DE(int)     intcor
     21.04     -21.64       2.77        0.00     101.39       1.94       0.06       0.54       ----

> <Gold.Chemscore.Fitness>
21.0392

> <Gold.Chemscore.DG>
-21.6385

> <Gold.Chemscore.ZeroCoef>
-5.4800

> <Gold.Chemscore.Hbond>
2.7721

> <Gold.Chemscore.Metal>
0.0000

> <Gold.Chemscore.Lipo>
101.3863

> <Gold.Chemscore.Internal_Hbond>
0.0000

> <Gold.Chemscore.DEClash>
0.0561

> <Gold.Chemscore.DEInternal>
0.5432

> <Gold.Chemscore.Rot>
1.9385

> <Gold.Chemscore.Internal.Correction>
   9.000000E+99

> <Gold.Chemscore.Hbonds>
donor molecule, donor type, donor heavy atom, donor atom, acceptor molecule, acceptor atom, score
      P1  H  6896  6908       L1    15  0.82
      P1  H  7989  7998       L1    20  0.53
      P1  H 10752 10763       L1    17  0.74

> <Gold.Chemscore.Hbond.Weighted>
-9.2588

> <Gold.Chemscore.Metal.Weighted>
-0.0000

> <Gold.Chemscore.Lipo.Weighted>
-11.8622

> <Gold.Chemscore.Internal_Hbond.Weighted>
0.0000

> <Gold.Chemscore.DEClash.Weighted>
0.0561

> <Gold.Chemscore.DEInternal.Weighted>
0.5432

> <Gold.Chemscore.Rot.Weighted>
4.9625

> <Gold.Chemscore.Internal.Correction.Weighted>
   9.000000E+99

> <Gold.Protein.RotatedTorsions>
[ 6907 6896 6895 6894 ] final  135.26 input  -60.11 | X-H torsion
[ 7974 7965 7964 7962 ] final  -62.12 input  175.53 | X-H torsion
[ 8008 7997 7996 7995 ] final   55.64 input   59.86 | X-H torsion
[ 10167 10162 10161 10158 ] final  166.75 input  -65.29 | X-H torsion
[ 10718 10713 10712 10709 ] final -119.31 input   66.30 | X-H torsion
[ 10763 10752 10751 10750 ] final   50.66 input  -60.55 | X-H torsion
[ 11005 11000 10999 10996 ] final  141.46 input  -57.11 | X-H torsion

> <Gold.Protein.ActiveResidues>
 VAL166  LYS551  ARG553  GLY616  TRP617  ASP618  TYR619  PRO620  LYS621  CYS622 
 ASP623  PHE694  ASN695  SER759  ASP760  ASP761  ALA762  ILE779  LEU786  VAL792 
 PHE793  MET794  SER795  GLU796  ALA797  LYS798  CYS799  TRP800  GLU811  SER814 

> <Gold.Protein.RotatedAtoms>
  152.3023  133.5668  159.5626 H   0  0  0  0  0  0  0  0  0  0  0  0  # atno 6907 bound_to 6896
  150.7283  134.0273  159.3730 H   0  0  0  0  0  0  0  0  0  0  0  0  # atno 6908 bound_to 6896
  151.8171  135.0663  160.0471 H   0  0  0  0  0  0  0  0  0  0  0  0  # atno 6909 bound_to 6896
  145.7951  140.8687  143.0260 H   0  0  0  0  0  0  0  0  0  0  0  0  # atno 7974 bound_to 7965
  155.5044  140.3475  155.4377 H   0  0  0  0  0  0  0  0  0  0  0  0  # atno 8008 bound_to 7997
  156.0892  140.1406  156.9642 H   0  0  0  0  0  0  0  0  0  0  0  0  # atno 8009 bound_to 7997
  154.4624  140.0930  156.6907 H   0  0  0  0  0  0  0  0  0  0  0  0  # atno 8010 bound_to 7997
  139.4931  144.3994  151.9427 H   0  0  0  0  0  0  0  0  0  0  0  0  # atno 10167 bound_to 10162
  156.1172  130.6295  150.9401 H   0  0  0  0  0  0  0  0  0  0  0  0  # atno 10718 bound_to 10713
  152.9784  135.5871  154.4288 H   0  0  0  0  0  0  0  0  0  0  0  0  # atno 10763 bound_to 10752
  154.3904  135.2768  155.2160 H   0  0  0  0  0  0  0  0  0  0  0  0  # atno 10764 bound_to 10752
  154.4035  135.6098  153.5965 H   0  0  0  0  0  0  0  0  0  0  0  0  # atno 10765 bound_to 10752
  140.0403  134.9308  157.0830 H   0  0  0  0  0  0  0  0  0  0  0  0  # atno 11005 bound_to 11000
  144.6776  140.0179  143.7484 LP  0  0  0  0  0  0  0  0  0  0  0  0  # atno 17320 bound_to 7965
  145.9936  139.3034  143.0970 LP  0  0  0  0  0  0  0  0  0  0  0  0  # atno 17321 bound_to 7965
  140.3433  144.3177  150.5963 LP  0  0  0  0  0  0  0  0  0  0  0  0  # atno 17342 bound_to 10162
  140.5547  143.2201  151.7867 LP  0  0  0  0  0  0  0  0  0  0  0  0  # atno 17343 bound_to 10162
  157.6355  131.0916  150.8357 LP  0  0  0  0  0  0  0  0  0  0  0  0  # atno 17370 bound_to 10713
  156.8458  130.5063  149.5316 LP  0  0  0  0  0  0  0  0  0  0  0  0  # atno 17371 bound_to 10713
  140.4080  134.2011  155.7163 LP  0  0  0  0  0  0  0  0  0  0  0  0  # atno 17394 bound_to 11000
  141.1879  133.8271  157.1013 LP  0  0  0  0  0  0  0  0  0  0  0  0  # atno 17395 bound_to 11000

$$$$
