AV-unprocessed.smi:527|AV-procd|sdf|2820|dock2
  -GOLD-   2262023303D 1   1.00000     0.00000
 Structure written by MMmdl.
 42 43  0  0  0  0  0  0  0  0  1 V2000
  150.8173  140.4761  155.6110 C   0  0  0  0  0  0  0  0  0  0  0  0
  149.3384  140.2920  155.2228 C   0  0  1  0  0  0  0  0  0  0  0  0
  148.8890  141.4721  154.3378 C   0  0  0  0  0  0  0  0  0  0  0  0
  147.4119  141.3612  153.9455 C   0  0  0  0  0  0  0  0  0  0  0  0
  147.1441  140.0375  153.2239 C   0  0  0  0  0  0  0  0  0  0  0  0
  147.5658  138.8324  154.0871 C   0  0  1  0  0  0  0  0  0  0  0  0
  147.3295  137.5965  153.3418 N   0  0  0  0  0  0  0  0  0  0  0  0
  146.3587  136.7071  153.5975 C   0  0  0  0  0  0  0  0  0  0  0  0
  145.4112  136.9371  154.3522 O   0  0  0  0  0  0  0  0  0  0  0  0
  146.5695  135.5574  152.9277 N   0  0  0  0  0  0  0  0  0  0  0  0
  145.8058  134.4456  152.9404 C   0  0  0  0  0  0  0  0  0  0  0  0
  144.7605  134.3157  153.5829 O   0  0  0  0  0  0  0  0  0  0  0  0
  146.3365  133.2944  152.0752 C   0  0  0  0  0  0  0  0  0  0  0  0
  145.3671  132.8175  151.1033 N   0  0  0  0  0  0  0  0  0  0  0  0
  144.0095  133.1100  151.0587 C   0  0  0  0  0  0  0  0  0  0  0  0
  143.4996  132.4428  149.9677 C   0  0  0  0  0  0  0  0  0  0  0  0
  144.5178  131.7368  149.3316 N   0  0  0  0  0  0  0  0  0  0  0  0
  145.5936  132.0086  150.0587 C   0  0  0  0  0  0  0  0  0  0  0  0
  149.0519  138.9293  154.5290 C   0  0  2  0  0  0  0  0  0  0  0  0
  149.4418  137.7321  155.4241 C   0  0  0  0  0  0  0  0  0  0  0  0
  151.4726  140.3626  154.7470 H   0  0  0  0  0  0  0  0  0  0  0  0
  151.1326  139.7606  156.3695 H   0  0  0  0  0  0  0  0  0  0  0  0
  150.9908  141.4687  156.0275 H   0  0  0  0  0  0  0  0  0  0  0  0
  148.7527  140.3311  156.1426 H   0  0  0  0  0  0  0  0  0  0  0  0
  149.0503  142.4147  154.8620 H   0  0  0  0  0  0  0  0  0  0  0  0
  149.5025  141.5132  153.4366 H   0  0  0  0  0  0  0  0  0  0  0  0
  146.7862  141.4303  154.8363 H   0  0  0  0  0  0  0  0  0  0  0  0
  147.1328  142.1971  153.3038 H   0  0  0  0  0  0  0  0  0  0  0  0
  146.0845  139.9710  152.9740 H   0  0  0  0  0  0  0  0  0  0  0  0
  147.6860  140.0234  152.2771 H   0  0  0  0  0  0  0  0  0  0  0  0
  146.9508  138.8234  154.9896 H   0  0  0  0  0  0  0  0  0  0  0  0
  147.9655  137.4001  152.5829 H   0  0  0  0  0  0  0  0  0  0  0  0
  147.3980  135.5210  152.3527 H   0  0  0  0  0  0  0  0  0  0  0  0
  147.2325  133.6189  151.5441 H   0  0  0  0  0  0  0  0  0  0  0  0
  146.6252  132.4616  152.7176 H   0  0  0  0  0  0  0  0  0  0  0  0
  143.5329  133.7536  151.7835 H   0  0  0  0  0  0  0  0  0  0  0  0
  142.4868  132.4180  149.5937 H   0  0  0  0  0  0  0  0  0  0  0  0
  146.5702  131.6103  149.8252 H   0  0  0  0  0  0  0  0  0  0  0  0
  149.6688  138.8799  153.6301 H   0  0  0  0  0  0  0  0  0  0  0  0
  148.8927  137.7491  156.3660 H   0  0  0  0  0  0  0  0  0  0  0  0
  150.5056  137.7283  155.6571 H   0  0  0  0  0  0  0  0  0  0  0  0
  149.2353  136.7776  154.9409 H   0  0  0  0  0  0  0  0  0  0  0  0
  1  2  1  0  0  0  0
  1 21  1  0  0  0  0
  1 22  1  0  0  0  0
  1 23  1  0  0  0  0
  2 19  1  0  0  0  0
  2  3  1  0  0  0  0
  2 24  1  0  0  0  0
  3  4  1  0  0  0  0
  3 25  1  0  0  0  0
  3 26  1  0  0  0  0
  4  5  1  0  0  0  0
  4 27  1  0  0  0  0
  4 28  1  0  0  0  0
  5  6  1  0  0  0  0
  5 29  1  0  0  0  0
  5 30  1  0  0  0  0
  6  7  1  0  0  0  0
  6 19  1  0  0  0  0
  6 31  1  0  0  0  0
  7  8  1  0  0  0  0
  7 32  1  0  0  0  0
  8  9  2  0  0  0  0
  8 10  1  0  0  0  0
 10 11  1  0  0  0  0
 10 33  1  0  0  0  0
 11 12  2  0  0  0  0
 11 13  1  0  0  0  0
 13 14  1  0  0  0  0
 13 34  1  0  0  0  0
 13 35  1  0  0  0  0
 14 18  1  0  0  0  0
 14 15  1  0  0  0  0
 15 16  2  0  0  0  0
 15 36  1  0  0  0  0
 16 17  1  0  0  0  0
 16 37  1  0  0  0  0
 17 18  2  0  0  0  0
 18 38  1  0  0  0  0
 19 20  1  0  0  0  0
 19 39  1  0  0  0  0
 20 40  1  0  0  0  0
 20 41  1  0  0  0  0
 20 42  1  0  0  0  0
M  END
> <s_m_source_file>
AV-unprocessed.smi

> <i_m_source_file_index>
527

> <i_lp_mmshare_version>
43012

> <i_f3d_flags>
0

> <s_epik_input>
W0NIM11bQ0BASF0xW0NIMl1bQ0gyXVtDSDJdW0NASF0oW0NASF0xW0NIM10pW05IXUMoPU8pW05IXUMoPU8pW0NIMl1uMltjSF1bY0hdbltjSF0y

> <s_epik_cmdline>
J2VwaWtfcHl0aG9uJywgJy1waCcsICc3LjAnLCAnLXRuJywgJzgnLCAnLW1hJywgJzIwMCcsICctbWV0YWxfYmluZGluZycsICctaW1hZScsICc8aW5maWxlLm1hZT4nLCAnLW9tYWUnLCAnPG91dGZpbGUubWFlPic=

> <r_lp_tautomer_probability>
1

> <r_epik_Ionization_Penalty>
0.172132

> <r_epik_Ionization_Penalty_Charging>
0.172105

> <r_epik_Ionization_Penalty_Neutral>
2.71747e-05

> <r_epik_State_Penalty>
0.161503

> <r_epik_Charging_Adjusted_Penalty>
0.333607

> <i_epik_Tot_Q>
0

> <i_epik_Tot_abs_Q>
0

> <r_epik_Metal_State_Penalty>
0.124763

> <b_epik_Metal_Only>
0

> <s_lp_Force_Field>
OPLS_2005

> <r_lp_Energy>
15.9673

> <b_lp_Chiralities_Consistent>
1

> <s_lp_Variant>
AV-unprocessed.smi:527-6

> <Gold.Version>
5.8.1

> <Gold.Id.Protein>
6NUR|6NUR_protein|mol2

> <Gold.PLP.Fitness>
46.8485

> <Gold.PLP.PLP>
-32.7242

> <Gold.PLP.part.hbond>
-3.0000

> <Gold.PLP.part.metal>
0.0000

> <Gold.PLP.part.buried>
-2.0407

> <Gold.PLP.part.nonpolar>
-28.7391

> <Gold.PLP.part.repulsive>
0.3213

> <Gold.PLP.ligand.clash>
0.0000

> <Gold.PLP.ligand.torsion>
0.3106

> <Gold.PLP.Chemscore.Hbond>
2.2061

> <Gold.PLP.Chemscore.CHOScore>
2.6928

> <Gold.PLP.Chemscore.Metal>
0.0000

> <Gold.Chemscore.Hbonds>
donor molecule, donor type, donor heavy atom, donor atom, acceptor molecule, acceptor atom, score
      L1  H     7    32       P1  7948  0.93
      L1  H    10    33       P1  7948  1.00
      P1  H 10785 10796       L1    17  0.23
      L1  C    16    37       P1 10186  0.88
      L1  C    16    37       P1 10952  0.68
      L1  C    18    38       P1 10747  0.96

> <Gold.PLP.Chemscore.Internal.Correction>
0.0491

> <Gold.Rescore>
     Score         DG    S(hbond)    S(metal)    S(lipo)     H(rot)  DE(clash)    DE(int)     intcor
     13.03     -15.91       1.93        0.00      70.54       1.66       0.06       2.82       ----

> <Gold.Chemscore.Fitness>
13.0280

> <Gold.Chemscore.DG>
-15.9119

> <Gold.Chemscore.ZeroCoef>
-5.4800

> <Gold.Chemscore.Hbond>
1.9268

> <Gold.Chemscore.Metal>
0.0000

> <Gold.Chemscore.Lipo>
70.5414

> <Gold.Chemscore.Internal_Hbond>
0.0000

> <Gold.Chemscore.DEClash>
0.0637

> <Gold.Chemscore.DEInternal>
2.8203

> <Gold.Chemscore.Rot>
1.6629

> <Gold.Chemscore.Internal.Correction>
   9.000000E+99

> <Gold.Chemscore.Hbonds>
donor molecule, donor type, donor heavy atom, donor atom, acceptor molecule, acceptor atom, score
      L1  H     7    32       P1  7948  0.91
      L1  H    10    33       P1  7948  0.95
      P1  H 10785 10796       L1    17  0.02

> <Gold.Chemscore.Hbond.Weighted>
-6.4355

> <Gold.Chemscore.Metal.Weighted>
-0.0000

> <Gold.Chemscore.Lipo.Weighted>
-8.2533

> <Gold.Chemscore.Internal_Hbond.Weighted>
0.0000

> <Gold.Chemscore.DEClash.Weighted>
0.0637

> <Gold.Chemscore.DEInternal.Weighted>
2.8203

> <Gold.Chemscore.Rot.Weighted>
4.2569

> <Gold.Chemscore.Internal.Correction.Weighted>
   9.000000E+99

> <Gold.Protein.RotatedTorsions>
[ 6907 6896 6895 6894 ] final  157.09 input  -60.11 | X-H torsion
[ 7974 7965 7964 7962 ] final -137.91 input  175.53 | X-H torsion
[ 8008 7997 7996 7995 ] final -155.50 input   59.86 | X-H torsion
[ 10167 10162 10161 10158 ] final   97.24 input  -65.29 | X-H torsion
[ 10718 10713 10712 10709 ] final -165.60 input   66.30 | X-H torsion
[ 10763 10752 10751 10750 ] final   61.43 input  -60.55 | X-H torsion
[ 11005 11000 10999 10996 ] final -151.66 input  -57.11 | X-H torsion

> <Gold.Protein.ActiveResidues>
 VAL166  LYS551  ARG553  GLY616  TRP617  ASP618  TYR619  PRO620  LYS621  CYS622 
 ASP623  PHE694  ASN695  SER759  ASP760  ASP761  ALA762  ILE779  LEU786  VAL792 
 PHE793  MET794  SER795  GLU796  ALA797  LYS798  CYS799  TRP800  GLU811  SER814 

> <Gold.Protein.RotatedAtoms>
  152.0202  133.3895  159.4254 H   0  0  0  0  0  0  0  0  0  0  0  0  # atno 6907 bound_to 6896
  150.6891  134.3634  159.4970 H   0  0  0  0  0  0  0  0  0  0  0  0  # atno 6908 bound_to 6896
  152.1407  134.9064  160.0604 H   0  0  0  0  0  0  0  0  0  0  0  0  # atno 6909 bound_to 6896
  144.8802  140.6496  143.5211 H   0  0  0  0  0  0  0  0  0  0  0  0  # atno 7974 bound_to 7965
  155.7028  140.0769  157.2403 H   0  0  0  0  0  0  0  0  0  0  0  0  # atno 8008 bound_to 7997
  154.4070  140.1644  156.2263 H   0  0  0  0  0  0  0  0  0  0  0  0  # atno 8009 bound_to 7997
  155.9353  140.3388  155.6285 H   0  0  0  0  0  0  0  0  0  0  0  0  # atno 8010 bound_to 7997
  139.7819  144.6885  151.0011 H   0  0  0  0  0  0  0  0  0  0  0  0  # atno 10167 bound_to 10162
  156.6558  130.9026  151.3021 H   0  0  0  0  0  0  0  0  0  0  0  0  # atno 10718 bound_to 10713
  152.9950  135.5501  154.6032 H   0  0  0  0  0  0  0  0  0  0  0  0  # atno 10763 bound_to 10752
  154.5369  135.2817  155.1132 H   0  0  0  0  0  0  0  0  0  0  0  0  # atno 10764 bound_to 10752
  154.2425  135.6413  153.5265 H   0  0  0  0  0  0  0  0  0  0  0  0  # atno 10765 bound_to 10752
  140.7272  134.3661  157.5173 H   0  0  0  0  0  0  0  0  0  0  0  0  # atno 11005 bound_to 11000
  145.3968  139.1605  143.4199 LP  0  0  0  0  0  0  0  0  0  0  0  0  # atno 17320 bound_to 7965
  146.2989  140.4062  142.8711 LP  0  0  0  0  0  0  0  0  0  0  0  0  # atno 17321 bound_to 7965
  140.7818  143.4474  151.0463 LP  0  0  0  0  0  0  0  0  0  0  0  0  # atno 17342 bound_to 10162
  139.8154  143.7893  152.3174 LP  0  0  0  0  0  0  0  0  0  0  0  0  # atno 17343 bound_to 10162
  157.7126  130.9458  150.1142 LP  0  0  0  0  0  0  0  0  0  0  0  0  # atno 17370 bound_to 10713
  156.2049  130.3662  149.8742 LP  0  0  0  0  0  0  0  0  0  0  0  0  # atno 17371 bound_to 10713
  139.8834  134.8994  156.2766 LP  0  0  0  0  0  0  0  0  0  0  0  0  # atno 17394 bound_to 11000
  140.9952  133.7184  156.0875 LP  0  0  0  0  0  0  0  0  0  0  0  0  # atno 17395 bound_to 11000

$$$$
