AV-unprocessed.smi:652|AV-procd|sdf|3203|dock7
  -GOLD-   22720 0143D 1   1.00000     0.00000
 Structure written by MMmdl.
 48 49  0  0  0  0  0  0  0  0  2 V2000
  146.4168  134.7157  160.9414 C   0  0  0  0  0  0  0  0  0  0  0  0
  147.6850  135.5052  161.3019 C   0  0  0  0  0  0  0  0  0  0  0  0
  147.4141  136.5408  162.4014 C   0  0  0  0  0  0  0  0  0  0  0  0
  148.2200  136.1784  160.1217 N   0  0  0  0  0  0  0  0  0  0  0  0
  147.5940  137.1356  159.4189 C   0  0  0  0  0  0  0  0  0  0  0  0
  146.4733  137.5595  159.7028 O   0  0  0  0  0  0  0  0  0  0  0  0
  148.3523  137.6905  158.2096 C   0  0  0  0  0  0  0  0  0  0  0  0
  147.4854  138.6226  157.3396 C   0  0  0  0  0  0  0  0  0  0  0  0
  148.2260  139.4143  156.3577 N   0  0  0  0  0  0  0  0  0  0  0  0
  148.9023  138.5509  155.3957 C   0  0  0  0  0  0  0  0  0  0  0  0
  149.6793  139.3597  154.3433 C   0  0  0  0  0  0  0  0  0  0  0  0
  150.6158  140.2144  154.9913 O   0  0  0  0  0  0  0  0  0  0  0  0
  150.0050  141.1019  155.9249 C   0  0  2  0  0  0  0  0  0  0  0  0
  151.0858  142.0121  156.5296 C   0  0  0  0  0  0  0  0  0  0  0  0
  150.5384  143.2677  157.0232 N   0  0  0  0  0  0  0  0  0  0  0  0
  151.0097  143.8287  158.2170 C   0  0  0  0  0  0  0  0  0  0  0  0
  152.0185  143.2494  159.0209 C   0  0  0  0  0  0  0  0  0  0  0  0
  152.3971  143.9168  160.1983 C   0  0  0  0  0  0  0  0  0  0  0  0
  151.7436  145.1243  160.5016 C   0  0  0  0  0  0  0  0  0  0  0  0
  150.7815  145.6623  159.7193 N   0  0  0  0  0  0  0  0  0  0  0  0
  150.4417  144.9998  158.5993 N   0  3  0  0  0  0  0  0  0  0  0  0
  149.2110  140.2974  156.9768 C   0  0  0  0  0  0  0  0  0  0  0  0
  146.0142  134.2028  161.8152 H   0  0  0  0  0  0  0  0  0  0  0  0
  146.6227  133.9585  160.1842 H   0  0  0  0  0  0  0  0  0  0  0  0
  145.6373  135.3720  160.5528 H   0  0  0  0  0  0  0  0  0  0  0  0
  148.4325  134.8065  161.6825 H   0  0  0  0  0  0  0  0  0  0  0  0
  147.0438  136.0609  163.3079 H   0  0  0  0  0  0  0  0  0  0  0  0
  146.6703  137.2727  162.0848 H   0  0  0  0  0  0  0  0  0  0  0  0
  148.3236  137.0818  162.6645 H   0  0  0  0  0  0  0  0  0  0  0  0
  149.1389  135.8932  159.8151 H   0  0  0  0  0  0  0  0  0  0  0  0
  149.2327  138.2336  158.5568 H   0  0  0  0  0  0  0  0  0  0  0  0
  148.7124  136.8418  157.6284 H   0  0  0  0  0  0  0  0  0  0  0  0
  146.7143  138.0405  156.8319 H   0  0  0  0  0  0  0  0  0  0  0  0
  146.9548  139.3037  158.0070 H   0  0  0  0  0  0  0  0  0  0  0  0
  149.5902  137.8830  155.9168 H   0  0  0  0  0  0  0  0  0  0  0  0
  148.1731  137.9152  154.8922 H   0  0  0  0  0  0  0  0  0  0  0  0
  150.2151  138.6907  153.6699 H   0  0  0  0  0  0  0  0  0  0  0  0
  148.9976  139.9524  153.7316 H   0  0  0  0  0  0  0  0  0  0  0  0
  149.3075  141.7376  155.3766 H   0  0  0  0  0  0  0  0  0  0  0  0
  151.5832  141.4915  157.3490 H   0  0  0  0  0  0  0  0  0  0  0  0
  151.8445  142.2255  155.7757 H   0  0  0  0  0  0  0  0  0  0  0  0
  149.6923  143.6234  156.6013 H   0  0  0  0  0  0  0  0  0  0  0  0
  152.4985  142.3197  158.7545 H   0  0  0  0  0  0  0  0  0  0  0  0
  153.1619  143.5173  160.8478 H   0  0  0  0  0  0  0  0  0  0  0  0
  151.9982  145.6745  161.3956 H   0  0  0  0  0  0  0  0  0  0  0  0
  148.7180  140.9979  157.6500 H   0  0  0  0  0  0  0  0  0  0  0  0
  149.8957  139.7063  157.5867 H   0  0  0  0  0  0  0  0  0  0  0  0
  149.7155  145.3988  158.0040 H   0  0  0  0  0  0  0  0  0  0  0  0
  1  2  1  0  0  0  0
  1 23  1  0  0  0  0
  1 24  1  0  0  0  0
  1 25  1  0  0  0  0
  2  3  1  0  0  0  0
  2  4  1  0  0  0  0
  2 26  1  0  0  0  0
  3 27  1  0  0  0  0
  3 28  1  0  0  0  0
  3 29  1  0  0  0  0
  4  5  1  0  0  0  0
  4 30  1  0  0  0  0
  5  6  2  0  0  0  0
  5  7  1  0  0  0  0
  7  8  1  0  0  0  0
  7 31  1  0  0  0  0
  7 32  1  0  0  0  0
  8  9  1  0  0  0  0
  8 33  1  0  0  0  0
  8 34  1  0  0  0  0
  9 22  1  0  0  0  0
  9 10  1  0  0  0  0
 10 11  1  0  0  0  0
 10 35  1  0  0  0  0
 10 36  1  0  0  0  0
 11 12  1  0  0  0  0
 11 37  1  0  0  0  0
 11 38  1  0  0  0  0
 12 13  1  0  0  0  0
 13 14  1  0  0  0  0
 13 22  1  0  0  0  0
 13 39  1  0  0  0  0
 14 15  1  0  0  0  0
 14 40  1  0  0  0  0
 14 41  1  0  0  0  0
 15 16  1  0  0  0  0
 15 42  1  0  0  0  0
 16 21  1  0  0  0  0
 16 17  2  0  0  0  0
 17 18  1  0  0  0  0
 17 43  1  0  0  0  0
 18 19  2  0  0  0  0
 18 44  1  0  0  0  0
 19 20  1  0  0  0  0
 19 45  1  0  0  0  0
 20 21  2  0  0  0  0
 21 48  1  0  0  0  0
 22 46  1  0  0  0  0
 22 47  1  0  0  0  0
M  CHG  1  21   1
M  END
> <s_m_source_file>
AV-unprocessed.smi

> <i_m_source_file_index>
652

> <i_lp_mmshare_version>
43012

> <i_f3d_flags>
0

> <s_epik_input>
W0NIM11bQ0hdKFtDSDNdKVtOSF1DKD1PKVtDSDJdW0NIMl1OMVtDSDJdW0NIMl1PW0NASF0oW0NIMl0xKVtDSDJdW05IXWMyW2NIXVtjSF1bY0hdbm4y

> <s_epik_cmdline>
J2VwaWtfcHl0aG9uJywgJy1waCcsICc3LjAnLCAnLXRuJywgJzgnLCAnLW1hJywgJzIwMCcsICctbWV0YWxfYmluZGluZycsICctaW1hZScsICc8aW5maWxlLm1hZT4nLCAnLW9tYWUnLCAnPG91dGZpbGUubWFlPic=

> <r_epik_Ionization_Penalty>
2.70989

> <r_epik_Ionization_Penalty_Charging>
2.3023

> <r_epik_Ionization_Penalty_Neutral>
0.407592

> <r_epik_State_Penalty>
2.65305

> <r_epik_Charging_Adjusted_Penalty>
4.95534

> <i_epik_Tot_Q>
1

> <i_epik_Tot_abs_Q>
1

> <r_epik_Metal_State_Penalty>
2.66064

> <b_epik_Metal_Only>
0

> <s_lp_Force_Field>
OPLS_2005

> <r_lp_Energy>
34.9838

> <b_lp_Chiralities_Consistent>
1

> <s_lp_Variant>
AV-unprocessed.smi:652-12

> <Gold.Version>
5.8.1

> <Gold.Id.Protein>
6NUR|6NUR_protein|mol2

> <Gold.PLP.Fitness>
54.5760

> <Gold.PLP.PLP>
-37.6509

> <Gold.PLP.part.hbond>
-5.7070

> <Gold.PLP.part.metal>
0.0000

> <Gold.PLP.part.buried>
-6.3169

> <Gold.PLP.part.nonpolar>
-27.3141

> <Gold.PLP.part.repulsive>
0.6674

> <Gold.PLP.ligand.clash>
0.0000

> <Gold.PLP.ligand.torsion>
0.5040

> <Gold.PLP.Chemscore.Hbond>
5.9520

> <Gold.PLP.Chemscore.CHOScore>
0.0000

> <Gold.PLP.Chemscore.Metal>
0.0000

> <Gold.Chemscore.Hbonds>
donor molecule, donor type, donor heavy atom, donor atom, acceptor molecule, acceptor atom, score
      L1  H    15    42       P1  8028  2.00
      L1  H    21    48       P1  8029  1.90
      P1  H  6934  6947       L1     6  0.75
      P1  H  7989  7998       L1    12  1.00

> <Gold.PLP.Chemscore.Internal.Correction>
0.0770

> <Gold.Rescore>
     Score         DG    S(hbond)    S(metal)    S(lipo)     H(rot)  DE(clash)    DE(int)     intcor
     17.44     -18.97       2.72        0.00      87.50       2.28       0.08       1.45       ----

> <Gold.Chemscore.Fitness>
17.4390

> <Gold.Chemscore.DG>
-18.9693

> <Gold.Chemscore.ZeroCoef>
-5.4800

> <Gold.Chemscore.Hbond>
2.7186

> <Gold.Chemscore.Metal>
0.0000

> <Gold.Chemscore.Lipo>
87.5032

> <Gold.Chemscore.Internal_Hbond>
0.0000

> <Gold.Chemscore.DEClash>
0.0821

> <Gold.Chemscore.DEInternal>
1.4482

> <Gold.Chemscore.Rot>
2.2768

> <Gold.Chemscore.Internal.Correction>
   9.000000E+99

> <Gold.Chemscore.Hbonds>
donor molecule, donor type, donor heavy atom, donor atom, acceptor molecule, acceptor atom, score
      L1  H    15    42       P1  8028  0.95
      L1  H    21    48       P1  8029  0.20
      P1  H  6934  6947       L1     6  0.08
      P1  H  7989  7998       L1    12  0.34

> <Gold.Chemscore.Hbond.Weighted>
-9.0801

> <Gold.Chemscore.Metal.Weighted>
-0.0000

> <Gold.Chemscore.Lipo.Weighted>
-10.2379

> <Gold.Chemscore.Internal_Hbond.Weighted>
0.0000

> <Gold.Chemscore.DEClash.Weighted>
0.0821

> <Gold.Chemscore.DEInternal.Weighted>
1.4482

> <Gold.Chemscore.Rot.Weighted>
5.8286

> <Gold.Chemscore.Internal.Correction.Weighted>
   9.000000E+99

> <Gold.Protein.RotatedTorsions>
[ 6907 6896 6895 6894 ] final -165.73 input  -60.11 | X-H torsion
[ 7974 7965 7964 7962 ] final   59.74 input  175.53 | X-H torsion
[ 8008 7997 7996 7995 ] final -151.22 input   59.86 | X-H torsion
[ 10167 10162 10161 10158 ] final  116.98 input  -65.29 | X-H torsion
[ 10718 10713 10712 10709 ] final   72.59 input   66.30 | X-H torsion
[ 10763 10752 10751 10750 ] final -151.53 input  -60.55 | X-H torsion
[ 11005 11000 10999 10996 ] final  178.07 input  -57.11 | X-H torsion

> <Gold.Protein.ActiveResidues>
 VAL166  LYS551  ARG553  GLY616  TRP617  ASP618  TYR619  PRO620  LYS621  CYS622 
 ASP623  PHE694  ASN695  SER759  ASP760  ASP761  ALA762  ILE779  LEU786  VAL792 
 PHE793  MET794  SER795  GLU796  ALA797  LYS798  CYS799  TRP800  GLU811  SER814 

> <Gold.Protein.RotatedAtoms>
  151.4323  133.3666  159.2770 H   0  0  0  0  0  0  0  0  0  0  0  0  # atno 6907 bound_to 6896
  150.9216  134.8635  159.7503 H   0  0  0  0  0  0  0  0  0  0  0  0  # atno 6908 bound_to 6896
  152.4984  134.4262  159.9549 H   0  0  0  0  0  0  0  0  0  0  0  0  # atno 6909 bound_to 6896
  145.9038  139.3601  143.0577 H   0  0  0  0  0  0  0  0  0  0  0  0  # atno 7974 bound_to 7965
  155.6359  140.0696  157.2634 H   0  0  0  0  0  0  0  0  0  0  0  0  # atno 8008 bound_to 7997
  154.4195  140.1759  156.1571 H   0  0  0  0  0  0  0  0  0  0  0  0  # atno 8009 bound_to 7997
  155.9895  140.3346  155.6742 H   0  0  0  0  0  0  0  0  0  0  0  0  # atno 8010 bound_to 7997
  139.6210  144.7101  151.2635 H   0  0  0  0  0  0  0  0  0  0  0  0  # atno 10167 bound_to 10162
  157.6508  130.9586  150.0950 H   0  0  0  0  0  0  0  0  0  0  0  0  # atno 10718 bound_to 10713
  154.8052  135.3258  154.7449 H   0  0  0  0  0  0  0  0  0  0  0  0  # atno 10763 bound_to 10752
  153.8109  135.6896  153.4845 H   0  0  0  0  0  0  0  0  0  0  0  0  # atno 10764 bound_to 10752
  153.1793  135.4593  154.9951 H   0  0  0  0  0  0  0  0  0  0  0  0  # atno 10765 bound_to 10752
  140.3910  134.6862  157.4507 H   0  0  0  0  0  0  0  0  0  0  0  0  # atno 11005 bound_to 11000
  145.8758  140.9392  143.0627 LP  0  0  0  0  0  0  0  0  0  0  0  0  # atno 17320 bound_to 7965
  144.6738  140.0715  143.7473 LP  0  0  0  0  0  0  0  0  0  0  0  0  # atno 17321 bound_to 7965
  140.7382  143.6656  150.8126 LP  0  0  0  0  0  0  0  0  0  0  0  0  # atno 17342 bound_to 10162
  140.0267  143.5486  152.2777 LP  0  0  0  0  0  0  0  0  0  0  0  0  # atno 17343 bound_to 10162
  156.1888  130.3653  149.8937 LP  0  0  0  0  0  0  0  0  0  0  0  0  # atno 17370 bound_to 10713
  156.6870  130.8881  151.3583 LP  0  0  0  0  0  0  0  0  0  0  0  0  # atno 17371 bound_to 10713
  140.0406  134.6272  155.8985 LP  0  0  0  0  0  0  0  0  0  0  0  0  # atno 17394 bound_to 11000
  141.1891  133.6564  156.5351 LP  0  0  0  0  0  0  0  0  0  0  0  0  # atno 17395 bound_to 11000

$$$$
