AV-unprocessed.smi:1135|AV-procd|sdf|4860|dock5
  -GOLD-   22720 3433D 1   1.00000     0.00000
 Structure written by MMmdl.
 46 47  0  0  0  0  0  0  0  0  2 V2000
  137.2513  141.8523  155.4770 C   0  0  0  0  0  0  0  0  0  0  0  0
  138.4698  141.1912  154.8172 C   0  0  2  0  0  0  0  0  0  0  0  0
  138.4069  139.6587  154.9215 C   0  0  0  0  0  0  0  0  0  0  0  0
  139.6266  138.9934  154.2594 C   0  0  0  0  0  0  0  0  0  0  0  0
  140.9882  139.4990  154.8005 C   0  0  1  0  0  0  0  0  0  0  0  0
  141.2348  138.9586  156.2292 C   0  0  0  0  0  0  0  0  0  0  0  0
  142.0078  138.9660  153.8869 N   0  0  0  0  0  0  0  0  0  0  0  0
  142.3845  137.6878  153.7191 C   0  0  0  0  0  0  0  0  0  0  0  0
  141.8679  136.7255  154.2873 O   0  0  0  0  0  0  0  0  0  0  0  0
  143.4322  137.5862  152.8881 N   0  0  0  0  0  0  0  0  0  0  0  0
  144.1528  136.3501  152.5891 C   0  0  0  0  0  0  0  0  0  0  0  0
  144.0836  135.9726  151.0942 C   0  0  0  0  0  0  0  0  0  0  0  0
  144.4313  134.5208  150.8099 C   0  0  0  0  0  0  0  0  0  0  0  0
  145.7112  133.9875  151.0787 C   0  0  0  0  0  0  0  0  0  0  0  0
  145.9539  132.6199  150.8334 C   0  0  0  0  0  0  0  0  0  0  0  0
  144.9155  131.8163  150.3191 C   0  0  0  0  0  0  0  0  0  0  0  0
  143.6590  132.4020  150.0625 C   0  0  0  0  0  0  0  0  0  0  0  0
  143.4645  133.7154  150.3135 N   0  3  0  0  0  0  0  0  0  0  0  0
  141.0109  141.0532  154.7599 C   0  0  0  0  0  0  0  0  0  0  0  0
  139.7855  141.7046  155.4233 C   0  0  0  0  0  0  0  0  0  0  0  0
  137.2047  141.6244  156.5423 H   0  0  0  0  0  0  0  0  0  0  0  0
  136.3225  141.5076  155.0213 H   0  0  0  0  0  0  0  0  0  0  0  0
  137.2879  142.9367  155.3699 H   0  0  0  0  0  0  0  0  0  0  0  0
  138.4569  141.4595  153.7596 H   0  0  0  0  0  0  0  0  0  0  0  0
  138.3404  139.3587  155.9676 H   0  0  0  0  0  0  0  0  0  0  0  0
  137.4960  139.2940  154.4456 H   0  0  0  0  0  0  0  0  0  0  0  0
  139.5560  137.9103  154.3706 H   0  0  0  0  0  0  0  0  0  0  0  0
  139.5702  139.1853  153.1863 H   0  0  0  0  0  0  0  0  0  0  0  0
  140.4536  139.2667  156.9231 H   0  0  0  0  0  0  0  0  0  0  0  0
  142.1776  139.3151  156.6435 H   0  0  0  0  0  0  0  0  0  0  0  0
  141.2640  137.8685  156.2396 H   0  0  0  0  0  0  0  0  0  0  0  0
  142.5123  139.6595  153.3541 H   0  0  0  0  0  0  0  0  0  0  0  0
  143.7841  138.4317  152.4627 H   0  0  0  0  0  0  0  0  0  0  0  0
  145.1932  136.4313  152.9084 H   0  0  0  0  0  0  0  0  0  0  0  0
  143.7164  135.5499  153.1872 H   0  0  0  0  0  0  0  0  0  0  0  0
  143.0821  136.1750  150.7121 H   0  0  0  0  0  0  0  0  0  0  0  0
  144.7578  136.6134  150.5249 H   0  0  0  0  0  0  0  0  0  0  0  0
  146.4934  134.6131  151.4832 H   0  0  0  0  0  0  0  0  0  0  0  0
  146.9236  132.1920  151.0421 H   0  0  0  0  0  0  0  0  0  0  0  0
  145.0796  130.7662  150.1268 H   0  0  0  0  0  0  0  0  0  0  0  0
  142.8077  131.8625  149.6734 H   0  0  0  0  0  0  0  0  0  0  0  0
  141.9128  141.4400  155.2347 H   0  0  0  0  0  0  0  0  0  0  0  0
  141.0527  141.3864  153.7216 H   0  0  0  0  0  0  0  0  0  0  0  0
  139.8478  142.7874  155.3094 H   0  0  0  0  0  0  0  0  0  0  0  0
  139.8002  141.5124  156.4967 H   0  0  0  0  0  0  0  0  0  0  0  0
  142.5431  134.1143  150.1328 H   0  0  0  0  0  0  0  0  0  0  0  0
  1  2  1  0  0  0  0
  1 21  1  0  0  0  0
  1 22  1  0  0  0  0
  1 23  1  0  0  0  0
  2 20  1  0  0  0  0
  2  3  1  0  0  0  0
  2 24  1  0  0  0  0
  3  4  1  0  0  0  0
  3 25  1  0  0  0  0
  3 26  1  0  0  0  0
  4  5  1  0  0  0  0
  4 27  1  0  0  0  0
  4 28  1  0  0  0  0
  5  6  1  0  0  0  0
  5  7  1  0  0  0  0
  5 19  1  0  0  0  0
  6 29  1  0  0  0  0
  6 30  1  0  0  0  0
  6 31  1  0  0  0  0
  7  8  1  0  0  0  0
  7 32  1  0  0  0  0
  8  9  2  0  0  0  0
  8 10  1  0  0  0  0
 10 11  1  0  0  0  0
 10 33  1  0  0  0  0
 11 12  1  0  0  0  0
 11 34  1  0  0  0  0
 11 35  1  0  0  0  0
 12 13  1  0  0  0  0
 12 36  1  0  0  0  0
 12 37  1  0  0  0  0
 13 18  1  0  0  0  0
 13 14  2  0  0  0  0
 14 15  1  0  0  0  0
 14 38  1  0  0  0  0
 15 16  2  0  0  0  0
 15 39  1  0  0  0  0
 16 17  1  0  0  0  0
 16 40  1  0  0  0  0
 17 18  2  0  0  0  0
 17 41  1  0  0  0  0
 18 46  1  0  0  0  0
 19 20  1  0  0  0  0
 19 42  1  0  0  0  0
 19 43  1  0  0  0  0
 20 44  1  0  0  0  0
 20 45  1  0  0  0  0
M  CHG  1  18   1
M  END
> <s_m_source_file>
AV-unprocessed.smi

> <i_m_source_file_index>
1135

> <i_lp_mmshare_version>
43012

> <i_f3d_flags>
0

> <s_epik_input>
W0NIMl0xW0NIMl1bQ0BIXShbQ0gzXSlbQ0gyXVtDSDJdW0NAQF0xKFtDSDNdKVtOSF1DKD1PKVtOSF1bQ0gyXVtDSDJdYzJbY0hdW2NIXVtjSF1bY0hdbjI=

> <s_epik_cmdline>
J2VwaWtfcHl0aG9uJywgJy1waCcsICc3LjAnLCAnLXRuJywgJzgnLCAnLW1hJywgJzIwMCcsICctbWV0YWxfYmluZGluZycsICctaW1hZScsICc8aW5maWxlLm1hZT4nLCAnLW9tYWUnLCAnPG91dGZpbGUubWFlPic=

> <r_epik_Ionization_Penalty>
1.55217

> <r_epik_Ionization_Penalty_Charging>
1.55211

> <r_epik_Ionization_Penalty_Neutral>
5.91929e-05

> <r_epik_State_Penalty>
1.64641

> <r_epik_Charging_Adjusted_Penalty>
3.19851

> <i_epik_Tot_Q>
1

> <i_epik_Tot_abs_Q>
1

> <r_epik_Metal_State_Penalty>
1.68848

> <b_epik_Metal_Only>
0

> <s_lp_Force_Field>
OPLS_2005

> <r_lp_Energy>
15.0823

> <b_lp_Chiralities_Consistent>
1

> <s_lp_Variant>
AV-unprocessed.smi:1135-3

> <Gold.Version>
5.8.1

> <Gold.Id.Protein>
6NUR|6NUR_protein|mol2

> <Gold.PLP.Fitness>
48.9008

> <Gold.PLP.PLP>
-37.4800

> <Gold.PLP.part.hbond>
-4.2905

> <Gold.PLP.part.metal>
0.0000

> <Gold.PLP.part.buried>
-2.6872

> <Gold.PLP.part.nonpolar>
-30.9873

> <Gold.PLP.part.repulsive>
0.1965

> <Gold.PLP.ligand.clash>
0.0000

> <Gold.PLP.ligand.torsion>
0.1902

> <Gold.PLP.Chemscore.Hbond>
3.9280

> <Gold.PLP.Chemscore.CHOScore>
0.0000

> <Gold.PLP.Chemscore.Metal>
0.0000

> <Gold.Chemscore.Hbonds>
donor molecule, donor type, donor heavy atom, donor atom, acceptor molecule, acceptor atom, score
      L1  H     7    32       P1 10175  1.00
      L1  H    10    33       P1 10175  0.88
      L1  H    18    46       P1 10186  2.00

> <Gold.PLP.Chemscore.Internal.Correction>
0.0173

> <Gold.Rescore>
     Score         DG    S(hbond)    S(metal)    S(lipo)     H(rot)  DE(clash)    DE(int)     intcor
     20.72     -22.26       2.73        0.00      98.37       1.51       1.24       0.30       ----

> <Gold.Chemscore.Fitness>
20.7243

> <Gold.Chemscore.DG>
-22.2579

> <Gold.Chemscore.ZeroCoef>
-5.4800

> <Gold.Chemscore.Hbond>
2.7337

> <Gold.Chemscore.Metal>
0.0000

> <Gold.Chemscore.Lipo>
98.3693

> <Gold.Chemscore.Internal_Hbond>
0.0000

> <Gold.Chemscore.DEClash>
1.2378

> <Gold.Chemscore.DEInternal>
0.2959

> <Gold.Chemscore.Rot>
1.5085

> <Gold.Chemscore.Internal.Correction>
   9.000000E+99

> <Gold.Chemscore.Hbonds>
donor molecule, donor type, donor heavy atom, donor atom, acceptor molecule, acceptor atom, score
      L1  H     7    32       P1 10175  0.98
      L1  H    10    33       P1 10175  0.82
      L1  H    18    46       P1 10186  0.97

> <Gold.Chemscore.Hbond.Weighted>
-9.1305

> <Gold.Chemscore.Metal.Weighted>
-0.0000

> <Gold.Chemscore.Lipo.Weighted>
-11.5092

> <Gold.Chemscore.Internal_Hbond.Weighted>
0.0000

> <Gold.Chemscore.DEClash.Weighted>
1.2378

> <Gold.Chemscore.DEInternal.Weighted>
0.2959

> <Gold.Chemscore.Rot.Weighted>
3.8617

> <Gold.Chemscore.Internal.Correction.Weighted>
   9.000000E+99

> <Gold.Protein.RotatedTorsions>
[ 6907 6896 6895 6894 ] final -107.89 input  -60.11 | X-H torsion
[ 7974 7965 7964 7962 ] final  -52.29 input  175.53 | X-H torsion
[ 8008 7997 7996 7995 ] final  -51.71 input   59.86 | X-H torsion
[ 10167 10162 10161 10158 ] final  103.60 input  -65.29 | X-H torsion
[ 10718 10713 10712 10709 ] final  117.77 input   66.30 | X-H torsion
[ 10763 10752 10751 10750 ] final    0.67 input  -60.55 | X-H torsion
[ 11005 11000 10999 10996 ] final  106.32 input  -57.11 | X-H torsion

> <Gold.Protein.ActiveResidues>
 VAL166  LYS551  ARG553  GLY616  TRP617  ASP618  TYR619  PRO620  LYS621  CYS622 
 ASP623  PHE694  ASN695  SER759  ASP760  ASP761  ALA762  ILE779  LEU786  VAL792 
 PHE793  MET794  SER795  GLU796  ALA797  LYS798  CYS799  TRP800  GLU811  SER814 

> <Gold.Protein.RotatedAtoms>
  150.7470  133.9758  159.3560 H   0  0  0  0  0  0  0  0  0  0  0  0  # atno 6907 bound_to 6896
  151.7696  135.0788  160.0367 H   0  0  0  0  0  0  0  0  0  0  0  0  # atno 6908 bound_to 6896
  152.3348  133.5962  159.5871 H   0  0  0  0  0  0  0  0  0  0  0  0  # atno 6909 bound_to 6896
  145.9096  140.7926  142.9702 H   0  0  0  0  0  0  0  0  0  0  0  0  # atno 7974 bound_to 7965
  154.4089  140.1241  156.4873 H   0  0  0  0  0  0  0  0  0  0  0  0  # atno 8008 bound_to 7997
  155.7026  140.3494  155.4920 H   0  0  0  0  0  0  0  0  0  0  0  0  # atno 8009 bound_to 7997
  155.9372  140.1080  157.1075 H   0  0  0  0  0  0  0  0  0  0  0  0  # atno 8010 bound_to 7997
  139.7249  144.7050  151.0814 H   0  0  0  0  0  0  0  0  0  0  0  0  # atno 10167 bound_to 10162
  157.6074  131.1041  150.7662 H   0  0  0  0  0  0  0  0  0  0  0  0  # atno 10718 bound_to 10713
  153.3177  135.6967  153.7059 H   0  0  0  0  0  0  0  0  0  0  0  0  # atno 10763 bound_to 10752
  153.5911  135.3479  155.2912 H   0  0  0  0  0  0  0  0  0  0  0  0  # atno 10764 bound_to 10752
  154.8590  135.4318  154.2332 H   0  0  0  0  0  0  0  0  0  0  0  0  # atno 10765 bound_to 10752
  139.8812  134.9365  156.5649 H   0  0  0  0  0  0  0  0  0  0  0  0  # atno 11005 bound_to 11000
  144.6742  140.1804  143.7406 LP  0  0  0  0  0  0  0  0  0  0  0  0  # atno 17320 bound_to 7965
  145.8688  139.2261  143.1673 LP  0  0  0  0  0  0  0  0  0  0  0  0  # atno 17321 bound_to 7965
  140.7761  143.5118  150.9643 LP  0  0  0  0  0  0  0  0  0  0  0  0  # atno 17342 bound_to 10162
  139.8805  143.7077  152.3157 LP  0  0  0  0  0  0  0  0  0  0  0  0  # atno 17343 bound_to 10162
  156.8047  130.4932  149.5364 LP  0  0  0  0  0  0  0  0  0  0  0  0  # atno 17370 bound_to 10713
  156.1165  130.6079  151.0129 LP  0  0  0  0  0  0  0  0  0  0  0  0  # atno 17371 bound_to 10713
  140.8142  133.8405  155.8837 LP  0  0  0  0  0  0  0  0  0  0  0  0  # atno 17394 bound_to 11000
  140.9478  134.1817  157.4750 LP  0  0  0  0  0  0  0  0  0  0  0  0  # atno 17395 bound_to 11000

$$$$
