AV-unprocessed.smi:1847|AV-procd|sdf|7515|dock6
  -GOLD-   22720 9223D 1   1.00000     0.00000
 Structure written by MMmdl.
 25 26  0  0  0  0  0  0  0  0  1 V2000
  150.7692  142.0746  157.9003 O   0  0  0  0  0  0  0  0  0  0  0  0
  151.6025  141.1940  157.6819 C   0  0  0  0  0  0  0  0  0  0  0  0
  152.5803  140.8532  158.5439 N   0  0  0  0  0  0  0  0  0  0  0  0
  152.8580  141.3819  159.8335 C   0  0  0  0  0  0  0  0  0  0  0  0
  152.1740  142.5511  160.2259 C   0  0  0  0  0  0  0  0  0  0  0  0
  152.4437  143.1027  161.4942 C   0  0  0  0  0  0  0  0  0  0  0  0
  153.3374  142.5755  162.3572 N   0  0  0  0  0  0  0  0  0  0  0  0
  154.0039  141.4663  161.9730 C   0  0  0  0  0  0  0  0  0  0  0  0
  153.8082  140.8344  160.7286 C   0  0  0  0  0  0  0  0  0  0  0  0
  151.6744  140.4056  156.4572 C   0  0  0  0  0  0  0  0  0  0  0  0
  150.7345  140.5769  155.4987 C   0  0  0  0  0  0  0  0  0  0  0  0
  150.6960  139.8568  154.3310 O   0  0  0  0  0  0  0  0  0  0  0  0
  151.5642  138.7303  154.2998 C   0  0  0  0  0  0  0  0  0  0  0  0
  152.9157  139.0788  154.9401 C   0  0  0  0  0  0  0  0  0  0  0  0
  152.7255  139.5328  156.2761 O   0  0  0  0  0  0  0  0  0  0  0  0
  153.2440  140.1731  158.2021 H   0  0  0  0  0  0  0  0  0  0  0  0
  151.4498  143.0166  159.5734 H   0  0  0  0  0  0  0  0  0  0  0  0
  151.9289  143.9933  161.8229 H   0  0  0  0  0  0  0  0  0  0  0  0
  154.7221  141.0731  162.6772 H   0  0  0  0  0  0  0  0  0  0  0  0
  154.3937  139.9615  160.4847 H   0  0  0  0  0  0  0  0  0  0  0  0
  149.9017  141.2622  155.5678 H   0  0  0  0  0  0  0  0  0  0  0  0
  151.0946  137.9007  154.8299 H   0  0  0  0  0  0  0  0  0  0  0  0
  151.7019  138.4138  153.2657 H   0  0  0  0  0  0  0  0  0  0  0  0
  153.5694  138.2065  154.9498 H   0  0  0  0  0  0  0  0  0  0  0  0
  153.4227  139.8549  154.3649 H   0  0  0  0  0  0  0  0  0  0  0  0
  1  2  2  0  0  0  0
  2  3  1  0  0  0  0
  2 10  1  0  0  0  0
  3  4  1  0  0  0  0
  3 16  1  0  0  0  0
  4  9  1  0  0  0  0
  4  5  2  0  0  0  0
  5  6  1  0  0  0  0
  5 17  1  0  0  0  0
  6  7  2  0  0  0  0
  6 18  1  0  0  0  0
  7  8  1  0  0  0  0
  8  9  2  0  0  0  0
  8 19  1  0  0  0  0
  9 20  1  0  0  0  0
 10 15  1  0  0  0  0
 10 11  2  0  0  0  0
 11 12  1  0  0  0  0
 11 21  1  0  0  0  0
 12 13  1  0  0  0  0
 13 14  1  0  0  0  0
 13 22  1  0  0  0  0
 13 23  1  0  0  0  0
 14 15  1  0  0  0  0
 14 24  1  0  0  0  0
 14 25  1  0  0  0  0
M  END
> <s_m_source_file>
AV-unprocessed.smi

> <i_m_source_file_index>
1847

> <i_lp_mmshare_version>
43012

> <i_f3d_flags>
0

> <s_epik_input>
TzFbQ0gyXVtDSDJdT1tDSF09QzFDKD1PKVtOSF1jMltjSF1bY0hdbltjSF1bY0hdMg==

> <s_epik_cmdline>
J2VwaWtfcHl0aG9uJywgJy1waCcsICc3LjAnLCAnLXRuJywgJzgnLCAnLW1hJywgJzIwMCcsICctbWV0YWxfYmluZGluZycsICctaW1hZScsICc8aW5maWxlLm1hZT4nLCAnLW9tYWUnLCAnPG91dGZpbGUubWFlPic=

> <r_epik_Ionization_Penalty>
0.039624

> <r_epik_Ionization_Penalty_Charging>
0

> <r_epik_Ionization_Penalty_Neutral>
0.039624

> <r_epik_State_Penalty>
0.0332371

> <r_epik_Charging_Adjusted_Penalty>
0.0332371

> <i_epik_Tot_Q>
0

> <i_epik_Tot_abs_Q>
0

> <r_epik_Metal_State_Penalty>
0.0856011

> <b_epik_Metal_Only>
0

> <s_lp_Force_Field>
OPLS_2005

> <r_lp_Energy>
7.75987

> <b_lp_Chiralities_Consistent>
1

> <s_lp_Variant>
AV-unprocessed.smi:1847-1

> <Gold.Version>
5.8.1

> <Gold.Id.Protein>
6NUR|6NUR_protein|mol2

> <Gold.PLP.Fitness>
39.6479

> <Gold.PLP.PLP>
-34.6063

> <Gold.PLP.part.hbond>
-2.0000

> <Gold.PLP.part.metal>
0.0000

> <Gold.PLP.part.buried>
-3.6601

> <Gold.PLP.part.nonpolar>
-28.0315

> <Gold.PLP.part.repulsive>
0.3394

> <Gold.PLP.ligand.clash>
0.0000

> <Gold.PLP.ligand.torsion>
0.0302

> <Gold.PLP.Chemscore.Hbond>
1.7000

> <Gold.PLP.Chemscore.CHOScore>
0.0000

> <Gold.PLP.Chemscore.Metal>
0.0000

> <Gold.Chemscore.Hbonds>
donor molecule, donor type, donor heavy atom, donor atom, acceptor molecule, acceptor atom, score
      P1  H  7989  7998       L1    12  0.72
      P1  H  7997  8008       L1    15  1.00

> <Gold.PLP.Chemscore.Internal.Correction>
0.0020

> <Gold.Rescore>
     Score         DG    S(hbond)    S(metal)    S(lipo)     H(rot)  DE(clash)    DE(int)     intcor
     14.89     -16.60       0.51        0.00      80.63       0.00       0.25       1.46       ----

> <Gold.Chemscore.Fitness>
14.8935

> <Gold.Chemscore.DG>
-16.6022

> <Gold.Chemscore.ZeroCoef>
-5.4800

> <Gold.Chemscore.Hbond>
0.5056

> <Gold.Chemscore.Metal>
0.0000

> <Gold.Chemscore.Lipo>
80.6292

> <Gold.Chemscore.Internal_Hbond>
0.0000

> <Gold.Chemscore.DEClash>
0.2464

> <Gold.Chemscore.DEInternal>
1.4622

> <Gold.Chemscore.Rot>
0.0000

> <Gold.Chemscore.Internal.Correction>
   9.000000E+99

> <Gold.Chemscore.Hbonds>
donor molecule, donor type, donor heavy atom, donor atom, acceptor molecule, acceptor atom, score
      P1  H  7989  7998       L1    12  0.02
      P1  H  7997  8008       L1    15  0.24

> <Gold.Chemscore.Hbond.Weighted>
-1.6885

> <Gold.Chemscore.Metal.Weighted>
-0.0000

> <Gold.Chemscore.Lipo.Weighted>
-9.4336

> <Gold.Chemscore.Internal_Hbond.Weighted>
0.0000

> <Gold.Chemscore.DEClash.Weighted>
0.2464

> <Gold.Chemscore.DEInternal.Weighted>
1.4622

> <Gold.Chemscore.Rot.Weighted>
0.0000

> <Gold.Chemscore.Internal.Correction.Weighted>
   9.000000E+99

> <Gold.Protein.RotatedTorsions>
[ 6907 6896 6895 6894 ] final   72.16 input  -60.11 | X-H torsion
[ 7974 7965 7964 7962 ] final -134.60 input  175.53 | X-H torsion
[ 8008 7997 7996 7995 ] final  -64.30 input   59.86 | X-H torsion
[ 10167 10162 10161 10158 ] final  -46.28 input  -65.29 | X-H torsion
[ 10718 10713 10712 10709 ] final  176.39 input   66.30 | X-H torsion
[ 10763 10752 10751 10750 ] final   53.77 input  -60.55 | X-H torsion
[ 11005 11000 10999 10996 ] final    4.52 input  -57.11 | X-H torsion

> <Gold.Protein.ActiveResidues>
 VAL166  LYS551  ARG553  GLY616  TRP617  ASP618  TYR619  PRO620  LYS621  CYS622 
 ASP623  PHE694  ASN695  SER759  ASP760  ASP761  ALA762  ILE779  LEU786  VAL792 
 PHE793  MET794  SER795  GLU796  ALA797  LYS798  CYS799  TRP800  GLU811  SER814 

> <Gold.Protein.RotatedAtoms>
  152.4852  134.4613  159.9605 H   0  0  0  0  0  0  0  0  0  0  0  0  # atno 6907 bound_to 6896
  151.4610  133.3587  159.2817 H   0  0  0  0  0  0  0  0  0  0  0  0  # atno 6908 bound_to 6896
  150.8956  134.8389  159.7385 H   0  0  0  0  0  0  0  0  0  0  0  0  # atno 6909 bound_to 6896
  144.9088  140.6868  143.5038 H   0  0  0  0  0  0  0  0  0  0  0  0  # atno 7974 bound_to 7965
  154.4603  140.0957  156.6875 H   0  0  0  0  0  0  0  0  0  0  0  0  # atno 8008 bound_to 7997
  155.5013  140.3473  155.4353 H   0  0  0  0  0  0  0  0  0  0  0  0  # atno 8009 bound_to 7997
  156.0858  140.1384  156.9643 H   0  0  0  0  0  0  0  0  0  0  0  0  # atno 8010 bound_to 7997
  140.6824  143.2838  151.3760 H   0  0  0  0  0  0  0  0  0  0  0  0  # atno 10167 bound_to 10162
  156.9209  130.9940  151.3004 H   0  0  0  0  0  0  0  0  0  0  0  0  # atno 10718 bound_to 10713
  152.9798  135.5767  154.4795 H   0  0  0  0  0  0  0  0  0  0  0  0  # atno 10763 bound_to 10752
  154.4346  135.2774  155.1891 H   0  0  0  0  0  0  0  0  0  0  0  0  # atno 10764 bound_to 10752
  154.3585  135.6194  153.5732 H   0  0  0  0  0  0  0  0  0  0  0  0  # atno 10765 bound_to 10752
  140.5810  134.0012  155.8048 H   0  0  0  0  0  0  0  0  0  0  0  0  # atno 11005 bound_to 11000
  145.3489  139.1711  143.4445 LP  0  0  0  0  0  0  0  0  0  0  0  0  # atno 17320 bound_to 7965
  146.3148  140.3539  142.8658 LP  0  0  0  0  0  0  0  0  0  0  0  0  # atno 17321 bound_to 7965
  139.6156  144.1010  152.2342 LP  0  0  0  0  0  0  0  0  0  0  0  0  # atno 17342 bound_to 10162
  140.0438  144.5987  150.7390 LP  0  0  0  0  0  0  0  0  0  0  0  0  # atno 17343 bound_to 10162
  157.5908  130.8442  149.8657 LP  0  0  0  0  0  0  0  0  0  0  0  0  # atno 17370 bound_to 10713
  156.0491  130.3721  150.1244 LP  0  0  0  0  0  0  0  0  0  0  0  0  # atno 17371 bound_to 10713
  141.0996  133.9789  157.3102 LP  0  0  0  0  0  0  0  0  0  0  0  0  # atno 17394 bound_to 11000
  139.9317  135.0199  156.8422 LP  0  0  0  0  0  0  0  0  0  0  0  0  # atno 17395 bound_to 11000

$$$$
