AV-unprocessed.smi:1710|AV-procd|sdf|6899|dock4
  -GOLD-   22720 8103D 1   1.00000     0.00000
 Structure written by MMmdl.
 36 37  0  0  0  0  0  0  0  0  1 V2000
  148.6596  141.4062  156.4006 C   0  0  0  0  0  0  0  0  0  0  0  0
  148.7124  141.3969  154.5621 S   0  0  0  0  0  0  0  0  0  0  0  0
  148.7388  142.7922  154.0970 O   0  0  0  0  0  0  0  0  0  0  0  0
  149.7703  140.4670  154.1381 O   0  0  0  0  0  0  0  0  0  0  0  0
  147.1822  140.7100  154.0976 N   0  0  0  0  0  0  0  0  0  0  0  0
  146.7580  140.7415  152.6831 C   0  0  0  0  0  0  0  0  0  0  0  0
  146.9635  139.3805  151.9950 C   0  0  0  0  0  0  0  0  0  0  0  0
  146.2823  138.2472  152.7799 C   0  0  0  0  0  0  0  0  0  0  0  0
  146.5423  136.9539  152.1537 N   0  0  0  0  0  0  0  0  0  0  0  0
  145.6074  136.0392  151.8587 C   0  0  0  0  0  0  0  0  0  0  0  0
  144.4083  136.1917  152.0921 O   0  0  0  0  0  0  0  0  0  0  0  0
  146.1488  134.9562  151.2772 N   0  0  0  0  0  0  0  0  0  0  0  0
  145.4749  133.7873  150.8412 C   0  0  0  0  0  0  0  0  0  0  0  0
  146.0806  132.5095  150.6960 C   0  0  0  0  0  0  0  0  0  0  0  0
  145.2073  131.6050  150.2765 N   0  0  0  0  0  0  0  0  0  0  0  0
  144.0493  132.2925  150.1553 N   0  0  0  0  0  0  0  0  0  0  0  0
  144.1643  133.6238  150.4893 C   0  0  0  0  0  0  0  0  0  0  0  0
  146.8047  138.2463  154.2236 C   0  0  0  0  0  0  0  0  0  0  0  0
  146.5932  139.6151  154.8945 C   0  0  0  0  0  0  0  0  0  0  0  0
  143.1976  131.8439  149.8487 H   0  0  0  0  0  0  0  0  0  0  0  0
  149.5954  141.8155  156.7803 H   0  0  0  0  0  0  0  0  0  0  0  0
  148.5408  140.3908  156.7739 H   0  0  0  0  0  0  0  0  0  0  0  0
  147.8366  142.0301  156.7445 H   0  0  0  0  0  0  0  0  0  0  0  0
  145.7018  141.0105  152.6475 H   0  0  0  0  0  0  0  0  0  0  0  0
  147.2918  141.5230  152.1433 H   0  0  0  0  0  0  0  0  0  0  0  0
  146.5646  139.4259  150.9810 H   0  0  0  0  0  0  0  0  0  0  0  0
  148.0283  139.1727  151.8925 H   0  0  0  0  0  0  0  0  0  0  0  0
  145.2055  138.4263  152.8056 H   0  0  0  0  0  0  0  0  0  0  0  0
  147.5029  136.7437  151.9249 H   0  0  0  0  0  0  0  0  0  0  0  0
  147.1472  134.9692  151.1284 H   0  0  0  0  0  0  0  0  0  0  0  0
  147.1038  132.2145  150.8766 H   0  0  0  0  0  0  0  0  0  0  0  0
  143.3272  134.3045  150.4473 H   0  0  0  0  0  0  0  0  0  0  0  0
  146.2944  137.4761  154.8033 H   0  0  0  0  0  0  0  0  0  0  0  0
  147.8625  137.9855  154.2364 H   0  0  0  0  0  0  0  0  0  0  0  0
  147.0078  139.6123  155.9022 H   0  0  0  0  0  0  0  0  0  0  0  0
  145.5250  139.8060  155.0027 H   0  0  0  0  0  0  0  0  0  0  0  0
  1  2  1  0  0  0  0
  1 21  1  0  0  0  0
  1 22  1  0  0  0  0
  1 23  1  0  0  0  0
  2  3  2  0  0  0  0
  2  4  2  0  0  0  0
  2  5  1  0  0  0  0
  5 19  1  0  0  0  0
  5  6  1  0  0  0  0
  6  7  1  0  0  0  0
  6 24  1  0  0  0  0
  6 25  1  0  0  0  0
  7  8  1  0  0  0  0
  7 26  1  0  0  0  0
  7 27  1  0  0  0  0
  8  9  1  0  0  0  0
  8 18  1  0  0  0  0
  8 28  1  0  0  0  0
  9 10  1  0  0  0  0
  9 29  1  0  0  0  0
 10 11  2  0  0  0  0
 10 12  1  0  0  0  0
 12 13  1  0  0  0  0
 12 30  1  0  0  0  0
 13 17  2  0  0  0  0
 13 14  1  0  0  0  0
 14 15  2  0  0  0  0
 14 31  1  0  0  0  0
 15 16  1  0  0  0  0
 16 20  1  0  0  0  0
 16 17  1  0  0  0  0
 17 32  1  0  0  0  0
 18 19  1  0  0  0  0
 18 33  1  0  0  0  0
 18 34  1  0  0  0  0
 19 35  1  0  0  0  0
 19 36  1  0  0  0  0
M  END
> <s_m_source_file>
AV-unprocessed.smi

> <i_m_source_file_index>
1710

> <i_lp_mmshare_version>
43012

> <i_f3d_flags>
0

> <s_epik_input>
W0NIM11TKD1PKSg9TylOMVtDSDJdW0NIMl1bQ0hdKFtDSDJdW0NIMl0xKVtOSF1DKD1PKVtOSF1jMltjSF1uW25IXVtjSF0y

> <s_epik_cmdline>
J2VwaWtfcHl0aG9uJywgJy1waCcsICc3LjAnLCAnLXRuJywgJzgnLCAnLW1hJywgJzIwMCcsICctbWV0YWxfYmluZGluZycsICctaW1hZScsICc8aW5maWxlLm1hZT4nLCAnLW9tYWUnLCAnPG91dGZpbGUubWFlPic=

> <r_lp_tautomer_probability>
1

> <r_epik_Ionization_Penalty>
5.00334e-05

> <r_epik_Ionization_Penalty_Charging>
0

> <r_epik_Ionization_Penalty_Neutral>
5.00334e-05

> <r_epik_State_Penalty>
-0

> <r_epik_Charging_Adjusted_Penalty>
0

> <i_epik_Tot_Q>
0

> <i_epik_Tot_abs_Q>
0

> <r_epik_Metal_State_Penalty>
-0

> <b_epik_Metal_Only>
0

> <s_lp_Force_Field>
OPLS_2005

> <r_lp_Energy>
2.71919

> <b_lp_Chiralities_Consistent>
1

> <s_lp_Variant>
AV-unprocessed.smi:1710-1

> <Gold.Version>
5.8.1

> <Gold.Id.Protein>
6NUR|6NUR_protein|mol2

> <Gold.PLP.Fitness>
36.8430

> <Gold.PLP.PLP>
-22.4322

> <Gold.PLP.part.hbond>
-4.4639

> <Gold.PLP.part.metal>
0.0000

> <Gold.PLP.part.buried>
-1.3458

> <Gold.PLP.part.nonpolar>
-21.7775

> <Gold.PLP.part.repulsive>
5.7403

> <Gold.PLP.ligand.clash>
0.0000

> <Gold.PLP.ligand.torsion>
1.4272

> <Gold.PLP.Chemscore.Hbond>
3.0712

> <Gold.PLP.Chemscore.CHOScore>
2.0000

> <Gold.PLP.Chemscore.Metal>
0.0000

> <Gold.Chemscore.Hbonds>
donor molecule, donor type, donor heavy atom, donor atom, acceptor molecule, acceptor atom, score
      L1  H     9    29       P1  7948  0.98
      L1  H    12    30       P1  7948  0.32
      P1  H  7989  7998       L1     4  0.74
      P1  H  8022  8030       L1     3  1.00
      L1  C    14    31       P1 10747  1.00
      L1  C    17    32       P1 10186  1.00

> <Gold.PLP.Chemscore.Internal.Correction>
2.0515

> <Gold.Rescore>
     Score         DG    S(hbond)    S(metal)    S(lipo)     H(rot)  DE(clash)    DE(int)     intcor
     14.34     -19.21       2.98        0.00      54.26       1.00       3.39       1.48       ----

> <Gold.Chemscore.Fitness>
14.3427

> <Gold.Chemscore.DG>
-19.2135

> <Gold.Chemscore.ZeroCoef>
-5.4800

> <Gold.Chemscore.Hbond>
2.9777

> <Gold.Chemscore.Metal>
0.0000

> <Gold.Chemscore.Lipo>
54.2552

> <Gold.Chemscore.Internal_Hbond>
0.0000

> <Gold.Chemscore.DEClash>
3.3891

> <Gold.Chemscore.DEInternal>
1.4817

> <Gold.Chemscore.Rot>
1.0000

> <Gold.Chemscore.Internal.Correction>
   9.000000E+99

> <Gold.Chemscore.Hbonds>
donor molecule, donor type, donor heavy atom, donor atom, acceptor molecule, acceptor atom, score
      L1  H     9    29       P1  7948  0.91
      L1  H    12    30       P1  7948  0.17
      P1  H  7989  7998       L1     4  0.71
      P1  H  8011  8017       L1     3  0.01
      P1  H  8022  8030       L1     3  0.92

> <Gold.Chemscore.Hbond.Weighted>
-9.9456

> <Gold.Chemscore.Metal.Weighted>
-0.0000

> <Gold.Chemscore.Lipo.Weighted>
-6.3479

> <Gold.Chemscore.Internal_Hbond.Weighted>
0.0000

> <Gold.Chemscore.DEClash.Weighted>
3.3891

> <Gold.Chemscore.DEInternal.Weighted>
1.4817

> <Gold.Chemscore.Rot.Weighted>
2.5600

> <Gold.Chemscore.Internal.Correction.Weighted>
   9.000000E+99

> <Gold.Protein.RotatedTorsions>
[ 6907 6896 6895 6894 ] final -110.23 input  -60.11 | X-H torsion
[ 7974 7965 7964 7962 ] final  -89.74 input  175.53 | X-H torsion
[ 8008 7997 7996 7995 ] final  161.12 input   59.86 | X-H torsion
[ 10167 10162 10161 10158 ] final  -57.50 input  -65.29 | X-H torsion
[ 10718 10713 10712 10709 ] final   40.79 input   66.30 | X-H torsion
[ 10763 10752 10751 10750 ] final  -87.64 input  -60.55 | X-H torsion
[ 11005 11000 10999 10996 ] final  -38.85 input  -57.11 | X-H torsion

> <Gold.Protein.ActiveResidues>
 VAL166  LYS551  ARG553  GLY616  TRP617  ASP618  TYR619  PRO620  LYS621  CYS622 
 ASP623  PHE694  ASN695  SER759  ASP760  ASP761  ALA762  ILE779  LEU786  VAL792 
 PHE793  MET794  SER795  GLU796  ALA797  LYS798  CYS799  TRP800  GLU811  SER814 

> <Gold.Protein.RotatedAtoms>
  150.7611  133.9412  159.3456 H   0  0  0  0  0  0  0  0  0  0  0  0  # atno 6907 bound_to 6896
  151.7321  135.0870  160.0311 H   0  0  0  0  0  0  0  0  0  0  0  0  # atno 6908 bound_to 6896
  152.3583  133.6227  159.6032 H   0  0  0  0  0  0  0  0  0  0  0  0  # atno 6909 bound_to 6896
  145.4358  140.9557  143.2102 H   0  0  0  0  0  0  0  0  0  0  0  0  # atno 7974 bound_to 7965
  156.2125  140.1786  156.7663 H   0  0  0  0  0  0  0  0  0  0  0  0  # atno 8008 bound_to 7997
  154.5743  140.0677  156.9041 H   0  0  0  0  0  0  0  0  0  0  0  0  # atno 8009 bound_to 7997
  155.2616  140.3336  155.4275 H   0  0  0  0  0  0  0  0  0  0  0  0  # atno 8010 bound_to 7997
  140.6254  143.2436  151.5376 H   0  0  0  0  0  0  0  0  0  0  0  0  # atno 10167 bound_to 10162
  157.3862  130.7781  149.7232 H   0  0  0  0  0  0  0  0  0  0  0  0  # atno 10718 bound_to 10713
  154.6358  135.5406  153.7732 H   0  0  0  0  0  0  0  0  0  0  0  0  # atno 10763 bound_to 10752
  153.0308  135.6447  154.1234 H   0  0  0  0  0  0  0  0  0  0  0  0  # atno 10764 bound_to 10752
  154.1161  135.2923  155.3199 H   0  0  0  0  0  0  0  0  0  0  0  0  # atno 10765 bound_to 10752
  141.0058  133.6932  156.2107 H   0  0  0  0  0  0  0  0  0  0  0  0  # atno 11005 bound_to 11000
  144.8153  139.5888  143.7011 LP  0  0  0  0  0  0  0  0  0  0  0  0  # atno 17320 bound_to 7965
  146.2583  139.6351  142.9380 LP  0  0  0  0  0  0  0  0  0  0  0  0  # atno 17321 bound_to 7965
  139.5475  144.2481  152.1470 LP  0  0  0  0  0  0  0  0  0  0  0  0  # atno 17342 bound_to 10162
  140.1712  144.4934  150.6579 LP  0  0  0  0  0  0  0  0  0  0  0  0  # atno 17343 bound_to 10162
  155.9787  130.4048  150.3631 LP  0  0  0  0  0  0  0  0  0  0  0  0  # atno 17370 bound_to 10713
  157.1741  131.0376  151.2781 LP  0  0  0  0  0  0  0  0  0  0  0  0  # atno 17371 bound_to 10713
  140.6815  134.4762  157.5589 LP  0  0  0  0  0  0  0  0  0  0  0  0  # atno 17394 bound_to 11000
  139.9063  134.8443  156.1696 LP  0  0  0  0  0  0  0  0  0  0  0  0  # atno 17395 bound_to 11000

$$$$
