AV-unprocessed.smi:469|AV-procd|sdf|2653|dock6
  -GOLD-   2262023 63D 1   1.00000     0.00000
 Structure written by MMmdl.
 37 38  0  0  0  0  0  0  0  0  1 V2000
  147.8431  145.5385  160.8726 C   0  0  0  0  0  0  0  0  0  0  0  0
  148.8046  145.3229  159.8023 N   0  0  0  0  0  0  0  0  0  0  0  0
  150.0189  144.7821  159.9758 C   0  0  0  0  0  0  0  0  0  0  0  0
  150.4370  144.4084  161.0727 O   0  0  0  0  0  0  0  0  0  0  0  0
  150.8737  144.6367  158.7082 C   0  0  0  0  0  0  0  0  0  0  0  0
  151.3866  143.2732  158.4943 N   0  0  0  0  0  0  0  0  0  0  0  0
  150.7254  142.4887  157.5297 C   0  0  0  0  0  0  0  0  0  0  0  0
  151.1331  141.2452  157.2280 C   0  0  0  0  0  0  0  0  0  0  0  0
  150.1681  140.2160  156.0916 S   0  0  0  0  0  0  0  0  0  0  0  0
  151.0193  139.9107  154.9311 O   0  0  0  0  0  0  0  0  0  0  0  0
  149.5740  139.1182  156.8711 O   0  0  0  0  0  0  0  0  0  0  0  0
  148.8726  141.2177  155.5354 N   0  0  0  0  0  0  0  0  0  0  0  0
  148.8210  141.5481  154.1049 C   0  0  0  0  0  0  0  0  0  0  0  0
  147.4248  141.1399  153.6370 C   0  0  0  0  0  0  0  0  0  0  0  0
  146.5739  141.3382  154.8823 C   0  0  0  0  0  0  0  0  0  0  0  0
  147.5137  140.9232  156.0139 C   0  0  0  0  0  0  0  0  0  0  0  0
  152.2334  140.6837  157.9770 C   0  0  0  0  0  0  0  0  0  0  0  0
  152.8531  141.4172  158.9231 C   0  0  0  0  0  0  0  0  0  0  0  0
  152.4421  142.7942  159.2227 C   0  0  0  0  0  0  0  0  0  0  0  0
  153.0105  143.4744  160.0772 O   0  0  0  0  0  0  0  0  0  0  0  0
  146.9209  145.9541  160.4662 H   0  0  0  0  0  0  0  0  0  0  0  0
  148.2365  146.2375  161.6119 H   0  0  0  0  0  0  0  0  0  0  0  0
  147.6017  144.5999  161.3739 H   0  0  0  0  0  0  0  0  0  0  0  0
  148.5306  145.6016  158.8711 H   0  0  0  0  0  0  0  0  0  0  0  0
  150.2730  144.9492  157.8527 H   0  0  0  0  0  0  0  0  0  0  0  0
  151.6988  145.3501  158.7513 H   0  0  0  0  0  0  0  0  0  0  0  0
  149.8680  142.9577  157.0688 H   0  0  0  0  0  0  0  0  0  0  0  0
  148.9703  142.6218  153.9882 H   0  0  0  0  0  0  0  0  0  0  0  0
  149.6037  141.0342  153.5458 H   0  0  0  0  0  0  0  0  0  0  0  0
  147.0752  141.7247  152.7859 H   0  0  0  0  0  0  0  0  0  0  0  0
  147.4219  140.0875  153.3490 H   0  0  0  0  0  0  0  0  0  0  0  0
  146.3082  142.3910  154.9864 H   0  0  0  0  0  0  0  0  0  0  0  0
  145.6519  140.7564  154.8635 H   0  0  0  0  0  0  0  0  0  0  0  0
  147.4172  139.8531  156.2022 H   0  0  0  0  0  0  0  0  0  0  0  0
  147.3073  141.4514  156.9451 H   0  0  0  0  0  0  0  0  0  0  0  0
  152.5629  139.6740  157.7811 H   0  0  0  0  0  0  0  0  0  0  0  0
  153.6741  140.9826  159.4744 H   0  0  0  0  0  0  0  0  0  0  0  0
  1  2  1  0  0  0  0
  1 21  1  0  0  0  0
  1 22  1  0  0  0  0
  1 23  1  0  0  0  0
  2  3  1  0  0  0  0
  2 24  1  0  0  0  0
  3  4  2  0  0  0  0
  3  5  1  0  0  0  0
  5  6  1  0  0  0  0
  5 25  1  0  0  0  0
  5 26  1  0  0  0  0
  6 19  1  0  0  0  0
  6  7  1  0  0  0  0
  7  8  2  0  0  0  0
  7 27  1  0  0  0  0
  8  9  1  0  0  0  0
  8 17  1  0  0  0  0
  9 10  2  0  0  0  0
  9 11  2  0  0  0  0
  9 12  1  0  0  0  0
 12 16  1  0  0  0  0
 12 13  1  0  0  0  0
 13 14  1  0  0  0  0
 13 28  1  0  0  0  0
 13 29  1  0  0  0  0
 14 15  1  0  0  0  0
 14 30  1  0  0  0  0
 14 31  1  0  0  0  0
 15 16  1  0  0  0  0
 15 32  1  0  0  0  0
 15 33  1  0  0  0  0
 16 34  1  0  0  0  0
 16 35  1  0  0  0  0
 17 18  2  0  0  0  0
 17 36  1  0  0  0  0
 18 19  1  0  0  0  0
 18 37  1  0  0  0  0
 19 20  2  0  0  0  0
M  END
> <s_m_source_file>
AV-unprocessed.smi

> <i_m_source_file_index>
469

> <i_lp_mmshare_version>
43012

> <i_f3d_flags>
0

> <s_epik_input>
W0NIM11bTkhdQyg9TylbQ0gyXW4xW2NIXWMoW2NIXVtjSF1jMT1PKVMoPU8pKD1PKU4yW0NIMl1bQ0gyXVtDSDJdW0NIMl0y

> <s_epik_cmdline>
J2VwaWtfcHl0aG9uJywgJy1waCcsICc3LjAnLCAnLXRuJywgJzgnLCAnLW1hJywgJzIwMCcsICctbWV0YWxfYmluZGluZycsICctaW1hZScsICc8aW5maWxlLm1hZT4nLCAnLW9tYWUnLCAnPG91dGZpbGUubWFlPic=

> <r_lp_tautomer_probability>
1

> <r_epik_Ionization_Penalty>
2.91909e-08

> <r_epik_Ionization_Penalty_Charging>
9.91299e-09

> <r_epik_Ionization_Penalty_Neutral>
1.92779e-08

> <r_epik_State_Penalty>
-0

> <r_epik_Charging_Adjusted_Penalty>
9.91299e-09

> <i_epik_Tot_Q>
0

> <i_epik_Tot_abs_Q>
0

> <r_epik_Metal_State_Penalty>
-0

> <b_epik_Metal_Only>
0

> <s_lp_Force_Field>
OPLS_2005

> <r_lp_Energy>
18.9882

> <b_lp_Chiralities_Consistent>
1

> <s_lp_Variant>
AV-unprocessed.smi:469-1

> <Gold.Version>
5.8.1

> <Gold.Id.Protein>
6NUR|6NUR_protein|mol2

> <Gold.PLP.Fitness>
44.2597

> <Gold.PLP.PLP>
-36.3012

> <Gold.PLP.part.hbond>
-2.5596

> <Gold.PLP.part.metal>
0.0000

> <Gold.PLP.part.buried>
-6.6411

> <Gold.PLP.part.nonpolar>
-28.4306

> <Gold.PLP.part.repulsive>
0.8510

> <Gold.PLP.ligand.clash>
0.0000

> <Gold.PLP.ligand.torsion>
1.7417

> <Gold.PLP.Chemscore.Hbond>
2.0000

> <Gold.PLP.Chemscore.CHOScore>
1.0000

> <Gold.PLP.Chemscore.Metal>
0.0000

> <Gold.Chemscore.Hbonds>
donor molecule, donor type, donor heavy atom, donor atom, acceptor molecule, acceptor atom, score
      L1  H     2    24       P1  8029  1.00
      P1  H  7989  7998       L1    10  1.00
      L1  C     7    27       P1  8028  1.00

> <Gold.PLP.Chemscore.Internal.Correction>
2.4419

> <Gold.Rescore>
     Score         DG    S(hbond)    S(metal)    S(lipo)     H(rot)  DE(clash)    DE(int)     intcor
     14.58     -16.71       2.27        0.00      66.61       1.62       0.08       2.05       ----

> <Gold.Chemscore.Fitness>
14.5819

> <Gold.Chemscore.DG>
-16.7133

> <Gold.Chemscore.ZeroCoef>
-5.4800

> <Gold.Chemscore.Hbond>
2.2736

> <Gold.Chemscore.Metal>
0.0000

> <Gold.Chemscore.Lipo>
66.6106

> <Gold.Chemscore.Internal_Hbond>
0.0000

> <Gold.Chemscore.DEClash>
0.0832

> <Gold.Chemscore.DEInternal>
2.0482

> <Gold.Chemscore.Rot>
1.6226

> <Gold.Chemscore.Internal.Correction>
   9.000000E+99

> <Gold.Chemscore.Hbonds>
donor molecule, donor type, donor heavy atom, donor atom, acceptor molecule, acceptor atom, score
      L1  H     2    24       P1  8029  1.00
      P1  H  7989  7998       L1    10  1.00

> <Gold.Chemscore.Hbond.Weighted>
-7.5938

> <Gold.Chemscore.Metal.Weighted>
-0.0000

> <Gold.Chemscore.Lipo.Weighted>
-7.7934

> <Gold.Chemscore.Internal_Hbond.Weighted>
0.0000

> <Gold.Chemscore.DEClash.Weighted>
0.0832

> <Gold.Chemscore.DEInternal.Weighted>
2.0482

> <Gold.Chemscore.Rot.Weighted>
4.1539

> <Gold.Chemscore.Internal.Correction.Weighted>
   9.000000E+99

> <Gold.Protein.RotatedTorsions>
[ 6907 6896 6895 6894 ] final  -60.08 input  -60.11 | X-H torsion
[ 7974 7965 7964 7962 ] final  134.89 input  175.53 | X-H torsion
[ 8008 7997 7996 7995 ] final  -73.15 input   59.86 | X-H torsion
[ 10167 10162 10161 10158 ] final   72.54 input  -65.29 | X-H torsion
[ 10718 10713 10712 10709 ] final  120.33 input   66.30 | X-H torsion
[ 10763 10752 10751 10750 ] final -149.54 input  -60.55 | X-H torsion
[ 11005 11000 10999 10996 ] final -108.56 input  -57.11 | X-H torsion

> <Gold.Protein.ActiveResidues>
 VAL166  LYS551  ARG553  GLY616  TRP617  ASP618  TYR619  PRO620  LYS621  CYS622 
 ASP623  PHE694  ASN695  SER759  ASP760  ASP761  ALA762  ILE779  LEU786  VAL792 
 PHE793  MET794  SER795  GLU796  ALA797  LYS798  CYS799  TRP800  GLU811  SER814 

> <Gold.Protein.RotatedAtoms>
  150.7882  134.6884  159.6482 H   0  0  0  0  0  0  0  0  0  0  0  0  # atno 6907 bound_to 6896
  152.3983  134.6325  160.0089 H   0  0  0  0  0  0  0  0  0  0  0  0  # atno 6908 bound_to 6896
  151.6605  133.3280  159.3209 H   0  0  0  0  0  0  0  0  0  0  0  0  # atno 6909 bound_to 6896
  144.9718  139.4598  143.5429 H   0  0  0  0  0  0  0  0  0  0  0  0  # atno 7974 bound_to 7965
  154.5224  140.0784  156.8196 H   0  0  0  0  0  0  0  0  0  0  0  0  # atno 8008 bound_to 7997
  155.3548  140.3414  155.4221 H   0  0  0  0  0  0  0  0  0  0  0  0  # atno 8009 bound_to 7997
  156.1695  140.1615  156.8459 H   0  0  0  0  0  0  0  0  0  0  0  0  # atno 8010 bound_to 7997
  140.0341  144.5442  150.7484 H   0  0  0  0  0  0  0  0  0  0  0  0  # atno 10167 bound_to 10162
  157.5898  131.1065  150.8021 H   0  0  0  0  0  0  0  0  0  0  0  0  # atno 10718 bound_to 10713
  154.8171  135.3306  154.7144 H   0  0  0  0  0  0  0  0  0  0  0  0  # atno 10763 bound_to 10752
  153.7783  135.6920  153.4897 H   0  0  0  0  0  0  0  0  0  0  0  0  # atno 10764 bound_to 10752
  153.1997  135.4520  155.0199 H   0  0  0  0  0  0  0  0  0  0  0  0  # atno 10765 bound_to 10752
  141.0895  133.9080  157.2109 H   0  0  0  0  0  0  0  0  0  0  0  0  # atno 11005 bound_to 11000
  146.3384  139.8935  142.8805 LP  0  0  0  0  0  0  0  0  0  0  0  0  # atno 17320 bound_to 7965
  145.2548  141.0056  143.3860 LP  0  0  0  0  0  0  0  0  0  0  0  0  # atno 17321 bound_to 7965
  140.7289  143.2667  151.4023 LP  0  0  0  0  0  0  0  0  0  0  0  0  # atno 17342 bound_to 10162
  139.6056  144.1204  152.2245 LP  0  0  0  0  0  0  0  0  0  0  0  0  # atno 17343 bound_to 10162
  156.8446  130.5059  149.5318 LP  0  0  0  0  0  0  0  0  0  0  0  0  # atno 17370 bound_to 10713
  156.0951  130.5926  150.9800 LP  0  0  0  0  0  0  0  0  0  0  0  0  # atno 17371 bound_to 10713
  139.9718  135.0126  156.9532 LP  0  0  0  0  0  0  0  0  0  0  0  0  # atno 17394 bound_to 11000
  140.5286  134.0836  155.7310 LP  0  0  0  0  0  0  0  0  0  0  0  0  # atno 17395 bound_to 11000

$$$$
