AV-unprocessed.smi:1661|AV-procd|sdf|6653|dock6
  -GOLD-   22720 7363D 1   1.00000     0.00000
 Structure written by MMmdl.
 38 39  0  0  0  0  0  0  0  0  2 V2000
  145.5163  136.3502  151.3103 C   0  0  0  0  0  0  0  0  0  0  0  0
  146.2317  137.4004  152.1715 C   0  0  2  0  0  0  0  0  0  0  0  0
  145.4813  137.6662  153.4872 C   0  0  0  0  0  0  0  0  0  0  0  0
  146.1893  138.7427  154.3270 C   0  0  0  0  0  0  0  0  0  0  0  0
  146.3477  140.0054  153.5602 N   0  3  1  0  0  0  0  0  0  0  0  0
  146.9114  141.0988  154.3908 C   0  0  0  0  0  0  0  0  0  0  0  0
  148.4478  141.0274  154.4912 C   0  0  0  0  0  0  0  0  0  0  0  0
  148.9793  142.0861  155.3417 N   0  0  0  0  0  0  0  0  0  0  0  0
  149.8107  141.8893  156.3754 C   0  0  0  0  0  0  0  0  0  0  0  0
  150.2052  140.7750  156.7203 O   0  0  0  0  0  0  0  0  0  0  0  0
  150.1412  143.0508  156.9667 N   0  0  0  0  0  0  0  0  0  0  0  0
  150.9890  143.2568  158.0874 C   0  0  0  0  0  0  0  0  0  0  0  0
  151.1782  142.3458  159.0548 N   0  0  0  0  0  0  0  0  0  0  0  0
  152.0529  142.8008  160.0331 N   0  0  0  0  0  0  0  0  0  0  0  0
  152.4886  144.0351  159.7653 C   0  0  0  0  0  0  0  0  0  0  0  0
  151.8731  144.7624  158.2912 S   0  0  0  0  0  0  0  0  0  0  0  0
  147.1031  139.7823  152.2982 C   0  0  0  0  0  0  0  0  0  0  0  0
  146.4137  138.7276  151.4166 C   0  0  0  0  0  0  0  0  0  0  0  0
  144.5160  136.6808  151.0287 H   0  0  0  0  0  0  0  0  0  0  0  0
  145.4160  135.4054  151.8454 H   0  0  0  0  0  0  0  0  0  0  0  0
  146.0714  136.1508  150.3933 H   0  0  0  0  0  0  0  0  0  0  0  0
  147.2207  137.0104  152.4170 H   0  0  0  0  0  0  0  0  0  0  0  0
  144.4599  137.9850  153.2737 H   0  0  0  0  0  0  0  0  0  0  0  0
  145.4023  136.7446  154.0648 H   0  0  0  0  0  0  0  0  0  0  0  0
  145.6057  138.9294  155.2293 H   0  0  0  0  0  0  0  0  0  0  0  0
  147.1687  138.3862  154.6503 H   0  0  0  0  0  0  0  0  0  0  0  0
  146.6495  142.0609  153.9480 H   0  0  0  0  0  0  0  0  0  0  0  0
  146.4477  141.0807  155.3785 H   0  0  0  0  0  0  0  0  0  0  0  0
  148.7813  140.0632  154.8756 H   0  0  0  0  0  0  0  0  0  0  0  0
  148.8897  141.1350  153.5003 H   0  0  0  0  0  0  0  0  0  0  0  0
  148.7048  143.0325  155.1212 H   0  0  0  0  0  0  0  0  0  0  0  0
  149.7400  143.8877  156.5699 H   0  0  0  0  0  0  0  0  0  0  0  0
  153.1777  144.5205  160.4405 H   0  0  0  0  0  0  0  0  0  0  0  0
  147.1865  140.7103  151.7341 H   0  0  0  0  0  0  0  0  0  0  0  0
  148.1210  139.4658  152.5326 H   0  0  0  0  0  0  0  0  0  0  0  0
  147.0027  138.5650  150.5133 H   0  0  0  0  0  0  0  0  0  0  0  0
  145.4438  139.1048  151.0889 H   0  0  0  0  0  0  0  0  0  0  0  0
  145.4154  140.2941  153.3002 H   0  0  0  0  0  0  0  0  0  0  0  0
  1  2  1  0  0  0  0
  1 19  1  0  0  0  0
  1 20  1  0  0  0  0
  1 21  1  0  0  0  0
  2 18  1  0  0  0  0
  2  3  1  0  0  0  0
  2 22  1  0  0  0  0
  3  4  1  0  0  0  0
  3 23  1  0  0  0  0
  3 24  1  0  0  0  0
  4  5  1  0  0  0  0
  4 25  1  0  0  0  0
  4 26  1  0  0  0  0
  5  6  1  0  0  0  0
  5 17  1  0  0  0  0
  5 38  1  0  0  0  0
  6  7  1  0  0  0  0
  6 27  1  0  0  0  0
  6 28  1  0  0  0  0
  7  8  1  0  0  0  0
  7 29  1  0  0  0  0
  7 30  1  0  0  0  0
  8  9  1  0  0  0  0
  8 31  1  0  0  0  0
  9 10  2  0  0  0  0
  9 11  1  0  0  0  0
 11 12  1  0  0  0  0
 11 32  1  0  0  0  0
 12 16  1  0  0  0  0
 12 13  2  0  0  0  0
 13 14  1  0  0  0  0
 14 15  2  0  0  0  0
 15 16  1  0  0  0  0
 15 33  1  0  0  0  0
 17 18  1  0  0  0  0
 17 34  1  0  0  0  0
 17 35  1  0  0  0  0
 18 36  1  0  0  0  0
 18 37  1  0  0  0  0
M  CHG  1   5   1
M  END
> <s_m_source_file>
AV-unprocessed.smi

> <i_m_source_file_index>
1661

> <i_lp_mmshare_version>
43012

> <i_f3d_flags>
0

> <s_epik_input>
W0NIM11bQ0hdMVtDSDJdW0NIMl1OKFtDSDJdW0NIMl0xKVtDSDJdW0NIMl1bTkhdQyg9TylbTkhdYzJubltjSF1zMg==

> <s_epik_cmdline>
J2VwaWtfcHl0aG9uJywgJy1waCcsICc3LjAnLCAnLXRuJywgJzgnLCAnLW1hJywgJzIwMCcsICctbWV0YWxfYmluZGluZycsICctaW1hZScsICc8aW5maWxlLm1hZT4nLCAnLW9tYWUnLCAnPG91dGZpbGUubWFlPic=

> <r_lp_tautomer_probability>
1

> <r_epik_Ionization_Penalty>
0.0053917

> <r_epik_Ionization_Penalty_Charging>
0.00168873

> <r_epik_Ionization_Penalty_Neutral>
0.00370297

> <r_epik_State_Penalty>
-0

> <r_epik_Charging_Adjusted_Penalty>
0.00168873

> <i_epik_Tot_Q>
1

> <i_epik_Tot_abs_Q>
1

> <r_epik_Metal_State_Penalty>
0.36997

> <b_epik_Metal_Only>
0

> <s_lp_Force_Field>
OPLS_2005

> <r_lp_Energy>
14.0049

> <b_lp_Chiralities_Consistent>
1

> <s_lp_Variant>
AV-unprocessed.smi:1661-1

> <Gold.Version>
5.8.1

> <Gold.Id.Protein>
6NUR|6NUR_protein|mol2

> <Gold.PLP.Fitness>
43.5175

> <Gold.PLP.PLP>
-32.3978

> <Gold.PLP.part.hbond>
-3.7824

> <Gold.PLP.part.metal>
0.0000

> <Gold.PLP.part.buried>
1.0217

> <Gold.PLP.part.nonpolar>
-30.6486

> <Gold.PLP.part.repulsive>
0.2085

> <Gold.PLP.ligand.clash>
0.0000

> <Gold.PLP.ligand.torsion>
0.3682

> <Gold.PLP.Chemscore.Hbond>
3.9440

> <Gold.PLP.Chemscore.CHOScore>
0.0000

> <Gold.PLP.Chemscore.Metal>
0.0000

> <Gold.Chemscore.Hbonds>
donor molecule, donor type, donor heavy atom, donor atom, acceptor molecule, acceptor atom, score
      L1  H     5    38       P1 10175  2.00
      L1  H     8    31       P1  8028  0.88
      L1  H    11    32       P1  8028  0.89

> <Gold.PLP.Chemscore.Internal.Correction>
0.0241

> <Gold.Rescore>
     Score         DG    S(hbond)    S(metal)    S(lipo)     H(rot)  DE(clash)    DE(int)     intcor
     15.92     -20.48       2.88        0.00      83.28       1.70       3.19       1.37       ----

> <Gold.Chemscore.Fitness>
15.9209

> <Gold.Chemscore.DG>
-20.4816

> <Gold.Chemscore.ZeroCoef>
-5.4800

> <Gold.Chemscore.Hbond>
2.8807

> <Gold.Chemscore.Metal>
0.0000

> <Gold.Chemscore.Lipo>
83.2807

> <Gold.Chemscore.Internal_Hbond>
0.0000

> <Gold.Chemscore.DEClash>
3.1861

> <Gold.Chemscore.DEInternal>
1.3746

> <Gold.Chemscore.Rot>
1.7046

> <Gold.Chemscore.Internal.Correction>
   9.000000E+99

> <Gold.Chemscore.Hbonds>
donor molecule, donor type, donor heavy atom, donor atom, acceptor molecule, acceptor atom, score
      L1  H     5    38       P1 10175  0.99
      L1  H     8    31       P1  8028  0.87
      L1  H    11    32       P1  8028  0.86

> <Gold.Chemscore.Hbond.Weighted>
-9.6216

> <Gold.Chemscore.Metal.Weighted>
-0.0000

> <Gold.Chemscore.Lipo.Weighted>
-9.7438

> <Gold.Chemscore.Internal_Hbond.Weighted>
0.0000

> <Gold.Chemscore.DEClash.Weighted>
3.1861

> <Gold.Chemscore.DEInternal.Weighted>
1.3746

> <Gold.Chemscore.Rot.Weighted>
4.3638

> <Gold.Chemscore.Internal.Correction.Weighted>
   9.000000E+99

> <Gold.Protein.RotatedTorsions>
[ 6907 6896 6895 6894 ] final  -85.02 input  -60.11 | X-H torsion
[ 7974 7965 7964 7962 ] final  -44.57 input  175.53 | X-H torsion
[ 8008 7997 7996 7995 ] final -148.26 input   59.86 | X-H torsion
[ 10167 10162 10161 10158 ] final  -34.66 input  -65.29 | X-H torsion
[ 10718 10713 10712 10709 ] final  -64.33 input   66.30 | X-H torsion
[ 10763 10752 10751 10750 ] final  -55.96 input  -60.55 | X-H torsion
[ 11005 11000 10999 10996 ] final   43.90 input  -57.11 | X-H torsion

> <Gold.Protein.ActiveResidues>
 VAL166  LYS551  ARG553  GLY616  TRP617  ASP618  TYR619  PRO620  LYS621  CYS622 
 ASP623  PHE694  ASN695  SER759  ASP760  ASP761  ALA762  ILE779  LEU786  VAL792 
 PHE793  MET794  SER795  GLU796  ALA797  LYS798  CYS799  TRP800  GLU811  SER814 

> <Gold.Protein.RotatedAtoms>
  150.6872  134.3269  159.4810 H   0  0  0  0  0  0  0  0  0  0  0  0  # atno 6907 bound_to 6896
  152.1138  134.9252  160.0575 H   0  0  0  0  0  0  0  0  0  0  0  0  # atno 6908 bound_to 6896
  152.0485  133.3973  159.4404 H   0  0  0  0  0  0  0  0  0  0  0  0  # atno 6909 bound_to 6896
  145.9907  140.7184  142.9318 H   0  0  0  0  0  0  0  0  0  0  0  0  # atno 7974 bound_to 7965
  155.5888  140.0650  157.2764 H   0  0  0  0  0  0  0  0  0  0  0  0  # atno 8008 bound_to 7997
  154.4311  140.1839  156.1099 H   0  0  0  0  0  0  0  0  0  0  0  0  # atno 8009 bound_to 7997
  156.0249  140.3313  155.7081 H   0  0  0  0  0  0  0  0  0  0  0  0  # atno 8010 bound_to 7997
  140.7181  143.3532  151.2112 H   0  0  0  0  0  0  0  0  0  0  0  0  # atno 10167 bound_to 10162
  156.0736  130.4232  150.1405 H   0  0  0  0  0  0  0  0  0  0  0  0  # atno 10718 bound_to 10713
  154.1991  135.6414  153.5082 H   0  0  0  0  0  0  0  0  0  0  0  0  # atno 10763 bound_to 10752
  153.0016  135.5447  154.6334 H   0  0  0  0  0  0  0  0  0  0  0  0  # atno 10764 bound_to 10752
  154.5743  135.2919  155.0770 H   0  0  0  0  0  0  0  0  0  0  0  0  # atno 10765 bound_to 10752
  140.1601  134.4351  155.8323 H   0  0  0  0  0  0  0  0  0  0  0  0  # atno 11005 bound_to 11000
  144.6888  140.3065  143.7255 LP  0  0  0  0  0  0  0  0  0  0  0  0  # atno 17320 bound_to 7965
  145.7634  139.1832  143.2254 LP  0  0  0  0  0  0  0  0  0  0  0  0  # atno 17321 bound_to 7965
  139.7068  143.9442  152.2930 LP  0  0  0  0  0  0  0  0  0  0  0  0  # atno 17342 bound_to 10162
  139.9154  144.6832  150.8518 LP  0  0  0  0  0  0  0  0  0  0  0  0  # atno 17343 bound_to 10162
  156.9451  130.9757  151.3509 LP  0  0  0  0  0  0  0  0  0  0  0  0  # atno 17370 bound_to 10713
  157.5819  130.8383  149.8535 LP  0  0  0  0  0  0  0  0  0  0  0  0  # atno 17371 bound_to 10713
  141.2208  133.6910  156.7579 LP  0  0  0  0  0  0  0  0  0  0  0  0  # atno 17394 bound_to 11000
  140.2499  134.8548  157.3657 LP  0  0  0  0  0  0  0  0  0  0  0  0  # atno 17395 bound_to 11000

$$$$
