AV-unprocessed.smi:212|AV-procd|sdf|1626|dock8
  -GOLD-   2262019573D 1   1.00000     0.00000
 Structure written by MMmdl.
 65 68  0  0  0  0  0  0  0  0  2 V2000
  148.2501  142.3154  154.4149 C   0  0  0  0  0  0  0  0  0  0  0  0
  148.7056  141.1288  155.2814 C   0  0  1  0  0  0  0  0  0  0  0  0
  148.0288  141.1277  156.6689 C   0  0  0  0  0  0  0  0  0  0  0  0
  146.5979  140.7365  156.5807 N   0  3  2  0  0  0  0  0  0  0  0  0
  145.8759  140.8445  157.8755 C   0  0  0  0  0  0  0  0  0  0  0  0
  145.6318  142.3139  158.2885 C   0  0  0  0  0  0  0  0  0  0  0  0
  144.5895  142.3823  159.4172 C   0  0  0  0  0  0  0  0  0  0  0  0
  146.9292  143.0247  158.7169 C   0  0  0  0  0  0  0  0  0  0  0  0
  145.0834  143.0118  157.1875 O   0  0  0  0  0  0  0  0  0  0  0  0
  146.4123  139.4239  155.9123 C   0  0  0  0  0  0  0  0  0  0  0  0
  147.0839  139.4101  154.5270 C   0  0  0  0  0  0  0  0  0  0  0  0
  148.4788  139.8477  154.6070 N   0  0  0  0  0  0  0  0  0  0  0  0
  149.4503  138.9104  154.7675 C   0  0  0  0  0  0  0  0  0  0  0  0
  150.7596  139.2671  154.6792 N   0  0  0  0  0  0  0  0  0  0  0  0
  151.7220  138.3512  154.8243 C   0  0  0  0  0  0  0  0  0  0  0  0
  151.6002  137.0440  155.0614 N   0  0  0  0  0  0  0  0  0  0  0  0
  150.2899  136.6805  155.1587 C   0  0  0  0  0  0  0  0  0  0  0  0
  149.1632  137.5403  155.0275 C   0  0  0  0  0  0  0  0  0  0  0  0
  147.9910  136.8127  155.2022 N   0  0  0  0  0  0  0  0  0  0  0  0
  148.4017  135.5927  155.4186 C   0  0  0  0  0  0  0  0  0  0  0  0
  149.7676  135.4231  155.4011 N   0  0  0  0  0  0  0  0  0  0  0  0
  150.4979  134.1859  155.6114 C   0  0  0  0  0  0  0  0  0  0  0  0
  149.5659  132.9629  155.8202 C   0  0  2  0  0  0  0  0  0  0  0  0
  150.0215  132.0983  157.0195 C   0  0  0  0  0  0  0  0  0  0  0  0
  149.9862  132.8346  158.2242 O   0  0  0  0  0  0  0  0  0  0  0  0
  149.3805  132.1193  154.5268 C   0  0  1  0  0  0  0  0  0  0  0  0
  148.4480  130.9171  154.7042 C   0  0  0  0  0  0  0  0  0  0  0  0
  147.4118  131.0723  153.5921 C   0  0  0  0  0  0  0  0  0  0  0  0
  147.4112  132.4637  153.3211 O   0  0  0  0  0  0  0  0  0  0  0  0
  148.7673  132.8782  153.3394 C   0  0  0  0  0  0  0  0  0  0  0  0
  148.4814  143.2632  154.9014 H   0  0  0  0  0  0  0  0  0  0  0  0
  147.1768  142.2986  154.2249 H   0  0  0  0  0  0  0  0  0  0  0  0
  148.7593  142.3106  153.4508 H   0  0  0  0  0  0  0  0  0  0  0  0
  149.7722  141.2686  155.4559 H   0  0  0  0  0  0  0  0  0  0  0  0
  148.5447  140.4280  157.3288 H   0  0  0  0  0  0  0  0  0  0  0  0
  148.1172  142.1144  157.1256 H   0  0  0  0  0  0  0  0  0  0  0  0
  144.9288  140.3042  157.8251 H   0  0  0  0  0  0  0  0  0  0  0  0
  146.4469  140.3490  158.6626 H   0  0  0  0  0  0  0  0  0  0  0  0
  144.9408  141.8642  160.3102 H   0  0  0  0  0  0  0  0  0  0  0  0
  143.6473  141.9206  159.1193 H   0  0  0  0  0  0  0  0  0  0  0  0
  144.3741  143.4134  159.7008 H   0  0  0  0  0  0  0  0  0  0  0  0
  147.3988  142.5121  159.5572 H   0  0  0  0  0  0  0  0  0  0  0  0
  146.7335  144.0519  159.0275 H   0  0  0  0  0  0  0  0  0  0  0  0
  147.6582  143.0658  157.9069 H   0  0  0  0  0  0  0  0  0  0  0  0
  144.2742  143.4182  157.4602 H   0  0  0  0  0  0  0  0  0  0  0  0
  146.8297  138.6375  156.5426 H   0  0  0  0  0  0  0  0  0  0  0  0
  145.3486  139.2103  155.8039 H   0  0  0  0  0  0  0  0  0  0  0  0
  147.0084  138.4204  154.0744 H   0  0  0  0  0  0  0  0  0  0  0  0
  146.5508  140.0822  153.8544 H   0  0  0  0  0  0  0  0  0  0  0  0
  152.7344  138.7178  154.7381 H   0  0  0  0  0  0  0  0  0  0  0  0
  147.7149  134.7770  155.5933 H   0  0  0  0  0  0  0  0  0  0  0  0
  151.1507  134.0440  154.7507 H   0  0  0  0  0  0  0  0  0  0  0  0
  151.1558  134.3198  156.4704 H   0  0  0  0  0  0  0  0  0  0  0  0
  148.5804  133.3540  156.0792 H   0  0  0  0  0  0  0  0  0  0  0  0
  149.4002  131.2088  157.1218 H   0  0  0  0  0  0  0  0  0  0  0  0
  151.0470  131.7546  156.8873 H   0  0  0  0  0  0  0  0  0  0  0  0
  149.1124  132.7873  158.5809 H   0  0  0  0  0  0  0  0  0  0  0  0
  150.3543  131.7393  154.2165 H   0  0  0  0  0  0  0  0  0  0  0  0
  148.9794  129.9683  154.6221 H   0  0  0  0  0  0  0  0  0  0  0  0
  147.9599  130.9242  155.6786 H   0  0  0  0  0  0  0  0  0  0  0  0
  147.7193  130.5287  152.6975 H   0  0  0  0  0  0  0  0  0  0  0  0
  146.4231  130.7186  153.8858 H   0  0  0  0  0  0  0  0  0  0  0  0
  148.8554  133.9620  153.4113 H   0  0  0  0  0  0  0  0  0  0  0  0
  149.2425  132.5719  152.4058 H   0  0  0  0  0  0  0  0  0  0  0  0
  146.1660  141.4186  155.9736 H   0  0  0  0  0  0  0  0  0  0  0  0
  1  2  1  0  0  0  0
  1 31  1  0  0  0  0
  1 32  1  0  0  0  0
  1 33  1  0  0  0  0
  2 12  1  0  0  0  0
  2  3  1  0  0  0  0
  2 34  1  0  0  0  0
  3  4  1  0  0  0  0
  3 35  1  0  0  0  0
  3 36  1  0  0  0  0
  4  5  1  0  0  0  0
  4 10  1  0  0  0  0
  4 65  1  0  0  0  0
  5  6  1  0  0  0  0
  5 37  1  0  0  0  0
  5 38  1  0  0  0  0
  6  7  1  0  0  0  0
  6  8  1  0  0  0  0
  6  9  1  0  0  0  0
  7 39  1  0  0  0  0
  7 40  1  0  0  0  0
  7 41  1  0  0  0  0
  8 42  1  0  0  0  0
  8 43  1  0  0  0  0
  8 44  1  0  0  0  0
  9 45  1  0  0  0  0
 10 11  1  0  0  0  0
 10 46  1  0  0  0  0
 10 47  1  0  0  0  0
 11 12  1  0  0  0  0
 11 48  1  0  0  0  0
 11 49  1  0  0  0  0
 12 13  1  0  0  0  0
 13 18  1  0  0  0  0
 13 14  2  0  0  0  0
 14 15  1  0  0  0  0
 15 16  2  0  0  0  0
 15 50  1  0  0  0  0
 16 17  1  0  0  0  0
 17 21  1  0  0  0  0
 17 18  2  0  0  0  0
 18 19  1  0  0  0  0
 19 20  2  0  0  0  0
 20 21  1  0  0  0  0
 20 51  1  0  0  0  0
 21 22  1  0  0  0  0
 22 23  1  0  0  0  0
 22 52  1  0  0  0  0
 22 53  1  0  0  0  0
 23 24  1  0  0  0  0
 23 26  1  0  0  0  0
 23 54  1  0  0  0  0
 24 25  1  0  0  0  0
 24 55  1  0  0  0  0
 24 56  1  0  0  0  0
 25 57  1  0  0  0  0
 26 30  1  0  0  0  0
 26 27  1  0  0  0  0
 26 58  1  0  0  0  0
 27 28  1  0  0  0  0
 27 59  1  0  0  0  0
 27 60  1  0  0  0  0
 28 29  1  0  0  0  0
 28 61  1  0  0  0  0
 28 62  1  0  0  0  0
 29 30  1  0  0  0  0
 30 63  1  0  0  0  0
 30 64  1  0  0  0  0
M  CHG  1   4   1
M  END
> <s_m_source_file>
AV-unprocessed.smi

> <i_m_source_file_index>
212

> <i_lp_mmshare_version>
43012

> <i_f3d_flags>
0

> <s_epik_input>
W0NIM11bQ0BASF0xW0NIMl1OKFtDSDJdQyhbQ0gzXSkoW0NIM10pW09IXSlbQ0gyXVtDSDJdTjFjKG5bY0hdbjIpYyhjMjMpbltjSF1uM1tDSDJdW0NASF0oW0NIMl1bT0hdKVtDQEBIXTRbQ0gyXVtDSDJdT1tDSDJdNA==

> <s_epik_cmdline>
J2VwaWtfcHl0aG9uJywgJy1waCcsICc3LjAnLCAnLXRuJywgJzgnLCAnLW1hJywgJzIwMCcsICctbWV0YWxfYmluZGluZycsICctaW1hZScsICc8aW5maWxlLm1hZT4nLCAnLW9tYWUnLCAnPG91dGZpbGUubWFlPic=

> <r_lp_tautomer_probability>
1

> <r_epik_Ionization_Penalty>
0.00182193

> <r_epik_Ionization_Penalty_Charging>
0.00173996

> <r_epik_Ionization_Penalty_Neutral>
8.19718e-05

> <r_epik_State_Penalty>
-0

> <r_epik_Charging_Adjusted_Penalty>
0.00173996

> <i_epik_Tot_Q>
1

> <i_epik_Tot_abs_Q>
1

> <r_epik_Metal_State_Penalty>
-0

> <b_epik_Metal_Only>
0

> <s_lp_Force_Field>
OPLS_2005

> <r_lp_Energy>
61.088

> <b_lp_Chiralities_Consistent>
1

> <s_lp_Variant>
AV-unprocessed.smi:212-10

> <Gold.Version>
5.8.1

> <Gold.Id.Protein>
6NUR|6NUR_protein|mol2

> <Gold.PLP.Fitness>
42.5471

> <Gold.PLP.PLP>
-34.9879

> <Gold.PLP.part.hbond>
-3.0000

> <Gold.PLP.part.metal>
0.0000

> <Gold.PLP.part.buried>
-3.2182

> <Gold.PLP.part.nonpolar>
-29.8102

> <Gold.PLP.part.repulsive>
0.5004

> <Gold.PLP.ligand.clash>
0.0000

> <Gold.PLP.ligand.torsion>
1.2663

> <Gold.PLP.Chemscore.Hbond>
3.0000

> <Gold.PLP.Chemscore.CHOScore>
0.0000

> <Gold.PLP.Chemscore.Metal>
0.0000

> <Gold.Chemscore.Hbonds>
donor molecule, donor type, donor heavy atom, donor atom, acceptor molecule, acceptor atom, score
      P1  H  6896  6907       L1    25  0.94
      P1  H  7989  7998       L1    14  0.65
      P1  H 10752 10765       L1    16  1.00

> <Gold.PLP.Chemscore.Internal.Correction>
1.0919

> <Gold.Rescore>
     Score         DG    S(hbond)    S(metal)    S(lipo)     H(rot)  DE(clash)    DE(int)     intcor
      7.72     -13.32       2.64        0.00      65.97       3.40       2.77       2.83       ----

> <Gold.Chemscore.Fitness>
7.7182

> <Gold.Chemscore.DG>
-13.3190

> <Gold.Chemscore.ZeroCoef>
-5.4800

> <Gold.Chemscore.Hbond>
2.6409

> <Gold.Chemscore.Metal>
0.0000

> <Gold.Chemscore.Lipo>
65.9737

> <Gold.Chemscore.Internal_Hbond>
0.0000

> <Gold.Chemscore.DEClash>
2.7694

> <Gold.Chemscore.DEInternal>
2.8315

> <Gold.Chemscore.Rot>
3.3986

> <Gold.Chemscore.Internal.Correction>
   9.000000E+99

> <Gold.Chemscore.Hbonds>
donor molecule, donor type, donor heavy atom, donor atom, acceptor molecule, acceptor atom, score
      P1  H  6896  6907       L1    25  0.87
      P1  H  7989  7998       L1    14  0.36
      P1  H 10752 10765       L1    16  0.88

> <Gold.Chemscore.Hbond.Weighted>
-8.8206

> <Gold.Chemscore.Metal.Weighted>
-0.0000

> <Gold.Chemscore.Lipo.Weighted>
-7.7189

> <Gold.Chemscore.Internal_Hbond.Weighted>
0.0000

> <Gold.Chemscore.DEClash.Weighted>
2.7694

> <Gold.Chemscore.DEInternal.Weighted>
2.8315

> <Gold.Chemscore.Rot.Weighted>
8.7005

> <Gold.Chemscore.Internal.Correction.Weighted>
   9.000000E+99

> <Gold.Protein.RotatedTorsions>
[ 6907 6896 6895 6894 ] final -154.87 input  -60.11 | X-H torsion
[ 7974 7965 7964 7962 ] final   76.77 input  175.53 | X-H torsion
[ 8008 7997 7996 7995 ] final   -4.08 input   59.86 | X-H torsion
[ 10167 10162 10161 10158 ] final -152.09 input  -65.29 | X-H torsion
[ 10718 10713 10712 10709 ] final -101.23 input   66.30 | X-H torsion
[ 10763 10752 10751 10750 ] final  175.05 input  -60.55 | X-H torsion
[ 11005 11000 10999 10996 ] final   64.13 input  -57.11 | X-H torsion

> <Gold.Protein.ActiveResidues>
 VAL166  LYS551  ARG553  GLY616  TRP617  ASP618  TYR619  PRO620  LYS621  CYS622 
 ASP623  PHE694  ASN695  SER759  ASP760  ASP761  ALA762  ILE779  LEU786  VAL792 
 PHE793  MET794  SER795  GLU796  ALA797  LYS798  CYS799  TRP800  GLU811  SER814 

> <Gold.Protein.RotatedAtoms>
  151.2640  133.4288  159.2617 H   0  0  0  0  0  0  0  0  0  0  0  0  # atno 6907 bound_to 6896
  151.0505  134.9670  159.8219 H   0  0  0  0  0  0  0  0  0  0  0  0  # atno 6908 bound_to 6896
  152.5381  134.2595  159.8982 H   0  0  0  0  0  0  0  0  0  0  0  0  # atno 6909 bound_to 6896
  145.6986  139.2575  143.1718 H   0  0  0  0  0  0  0  0  0  0  0  0  # atno 7974 bound_to 7965
  154.6180  140.2493  155.7585 H   0  0  0  0  0  0  0  0  0  0  0  0  # atno 8008 bound_to 7997
  156.2410  140.2932  156.0394 H   0  0  0  0  0  0  0  0  0  0  0  0  # atno 8009 bound_to 7997
  155.1943  140.0392  157.2896 H   0  0  0  0  0  0  0  0  0  0  0  0  # atno 8010 bound_to 7997
  139.7211  143.8955  152.2503 H   0  0  0  0  0  0  0  0  0  0  0  0  # atno 10167 bound_to 10162
  156.0188  130.5364  150.6933 H   0  0  0  0  0  0  0  0  0  0  0  0  # atno 10718 bound_to 10713
  154.4623  135.2768  155.1704 H   0  0  0  0  0  0  0  0  0  0  0  0  # atno 10763 bound_to 10752
  154.3487  135.6154  153.5635 H   0  0  0  0  0  0  0  0  0  0  0  0  # atno 10764 bound_to 10752
  152.9856  135.5806  154.4987 H   0  0  0  0  0  0  0  0  0  0  0  0  # atno 10765 bound_to 10752
  139.9979  134.6488  155.9979 H   0  0  0  0  0  0  0  0  0  0  0  0  # atno 11005 bound_to 11000
  146.0818  140.7755  142.9638 LP  0  0  0  0  0  0  0  0  0  0  0  0  # atno 17320 bound_to 7965
  144.6975  140.3501  143.7183 LP  0  0  0  0  0  0  0  0  0  0  0  0  # atno 17321 bound_to 7965
  139.8851  144.6996  150.8833 LP  0  0  0  0  0  0  0  0  0  0  0  0  # atno 17342 bound_to 10162
  140.7754  143.3630  151.1792 LP  0  0  0  0  0  0  0  0  0  0  0  0  # atno 17343 bound_to 10162
  157.4609  131.0883  151.0746 LP  0  0  0  0  0  0  0  0  0  0  0  0  # atno 17370 bound_to 10713
  157.1234  130.6071  149.5511 LP  0  0  0  0  0  0  0  0  0  0  0  0  # atno 17371 bound_to 10713
  141.1619  133.6538  156.4347 LP  0  0  0  0  0  0  0  0  0  0  0  0  # atno 17394 bound_to 11000
  140.4783  134.6688  157.5160 LP  0  0  0  0  0  0  0  0  0  0  0  0  # atno 17395 bound_to 11000

$$$$
