AV-unprocessed.smi:786|AV-procd|sdf|3723|dock5
  -GOLD-   22720 1153D 1   1.00000     0.00000
 Structure written by MMmdl.
 38 39  0  0  0  0  0  0  0  0  2 V2000
  152.8995  136.7126  156.1523 O   0  0  0  0  0  0  0  0  0  0  0  0
  152.2371  138.0272  156.1990 S   0  0  0  0  0  0  0  0  0  0  0  0
  152.8826  139.1155  155.4506 O   0  0  0  0  0  0  0  0  0  0  0  0
  150.5649  137.7817  155.4236 C   0  0  0  0  0  0  0  0  0  0  0  0
  149.3844  138.1177  156.3623 C   0  0  0  0  0  0  0  0  0  0  0  0
  148.1553  137.2560  156.0281 C   0  0  0  0  0  0  0  0  0  0  0  0
  146.9605  137.6262  156.9222 C   0  0  0  0  0  0  0  0  0  0  0  0
  146.6592  139.0097  156.7845 O   0  0  0  0  0  0  0  0  0  0  0  0
  147.7316  139.8489  157.1987 C   0  0  0  0  0  0  0  0  0  0  0  0
  148.9668  139.6002  156.3174 C   0  0  0  0  0  0  0  0  0  0  0  0
  151.8620  138.5087  157.7074 N   0  5  0  0  0  0  0  0  0  0  0  0
  152.3841  139.7507  158.2626 C   0  0  0  0  0  0  0  0  0  0  0  0
  151.3239  140.8738  158.1901 C   0  0  0  0  0  0  0  0  0  0  0  0
  151.5896  142.0827  159.0854 C   0  0  0  0  0  0  0  0  0  0  0  0
  150.9309  143.3119  158.8523 C   0  0  0  0  0  0  0  0  0  0  0  0
  151.1956  144.3942  159.7134 C   0  0  0  0  0  0  0  0  0  0  0  0
  152.0995  144.2096  160.7767 C   0  0  0  0  0  0  0  0  0  0  0  0
  152.7016  142.9455  160.9314 C   0  0  0  0  0  0  0  0  0  0  0  0
  152.4562  141.9022  160.1114 N   0  0  0  0  0  0  0  0  0  0  0  0
  150.5210  138.4016  154.5283 H   0  0  0  0  0  0  0  0  0  0  0  0
  150.5070  136.7497  155.0794 H   0  0  0  0  0  0  0  0  0  0  0  0
  149.6779  137.8750  157.3843 H   0  0  0  0  0  0  0  0  0  0  0  0
  147.8800  137.3950  154.9817 H   0  0  0  0  0  0  0  0  0  0  0  0
  148.3929  136.1991  156.1493 H   0  0  0  0  0  0  0  0  0  0  0  0
  146.0847  137.0437  156.6362 H   0  0  0  0  0  0  0  0  0  0  0  0
  147.1676  137.3947  157.9676 H   0  0  0  0  0  0  0  0  0  0  0  0
  147.4161  140.8889  157.1155 H   0  0  0  0  0  0  0  0  0  0  0  0
  147.9629  139.6700  158.2500 H   0  0  0  0  0  0  0  0  0  0  0  0
  149.7755  140.2484  156.6488 H   0  0  0  0  0  0  0  0  0  0  0  0
  148.7398  139.8899  155.2907 H   0  0  0  0  0  0  0  0  0  0  0  0
  152.7021  139.6397  159.2997 H   0  0  0  0  0  0  0  0  0  0  0  0
  153.2721  140.0737  157.7187 H   0  0  0  0  0  0  0  0  0  0  0  0
  151.2596  141.2290  157.1612 H   0  0  0  0  0  0  0  0  0  0  0  0
  150.3380  140.4664  158.4202 H   0  0  0  0  0  0  0  0  0  0  0  0
  150.2414  143.4231  158.0281 H   0  0  0  0  0  0  0  0  0  0  0  0
  150.7145  145.3488  159.5605 H   0  0  0  0  0  0  0  0  0  0  0  0
  152.3289  145.0174  161.4555 H   0  0  0  0  0  0  0  0  0  0  0  0
  153.4022  142.7682  161.7338 H   0  0  0  0  0  0  0  0  0  0  0  0
  1  2  2  0  0  0  0
  2  3  2  0  0  0  0
  2  4  1  0  0  0  0
  2 11  1  0  0  0  0
  4  5  1  0  0  0  0
  4 20  1  0  0  0  0
  4 21  1  0  0  0  0
  5 10  1  0  0  0  0
  5  6  1  0  0  0  0
  5 22  1  0  0  0  0
  6  7  1  0  0  0  0
  6 23  1  0  0  0  0
  6 24  1  0  0  0  0
  7  8  1  0  0  0  0
  7 25  1  0  0  0  0
  7 26  1  0  0  0  0
  8  9  1  0  0  0  0
  9 10  1  0  0  0  0
  9 27  1  0  0  0  0
  9 28  1  0  0  0  0
 10 29  1  0  0  0  0
 10 30  1  0  0  0  0
 11 12  1  0  0  0  0
 12 13  1  0  0  0  0
 12 31  1  0  0  0  0
 12 32  1  0  0  0  0
 13 14  1  0  0  0  0
 13 33  1  0  0  0  0
 13 34  1  0  0  0  0
 14 19  1  0  0  0  0
 14 15  2  0  0  0  0
 15 16  1  0  0  0  0
 15 35  1  0  0  0  0
 16 17  2  0  0  0  0
 16 36  1  0  0  0  0
 17 18  1  0  0  0  0
 17 37  1  0  0  0  0
 18 19  2  0  0  0  0
 18 38  1  0  0  0  0
M  CHG  1  11  -1
M  END
> <s_m_source_file>
AV-unprocessed.smi

> <i_m_source_file_index>
786

> <i_lp_mmshare_version>
43012

> <i_f3d_flags>
0

> <s_epik_input>
W0NIMl0xW0NIMl1PW0NIMl1bQ0gyXVtDSF0xW0NIMl1TKD1PKSg9TylbTkhdW0NIMl1bQ0gyXWMyW2NIXVtjSF1bY0hdW2NIXW4y

> <s_epik_cmdline>
J2VwaWtfcHl0aG9uJywgJy1waCcsICc3LjAnLCAnLXRuJywgJzgnLCAnLW1hJywgJzIwMCcsICctbWV0YWxfYmluZGluZycsICctaW1hZScsICc8aW5maWxlLm1hZT4nLCAnLW9tYWUnLCAnPG91dGZpbGUubWFlPic=

> <r_epik_Ionization_Penalty>
6.60618

> <r_epik_Ionization_Penalty_Charging>
6.53386

> <r_epik_Ionization_Penalty_Neutral>
0.0723214

> <r_epik_State_Penalty>
6.55045

> <r_epik_Charging_Adjusted_Penalty>
13.0843

> <i_epik_Tot_Q>
-1

> <i_epik_Tot_abs_Q>
1

> <r_epik_Metal_State_Penalty>
2.49618

> <b_epik_Metal_Only>
1

> <s_lp_Force_Field>
OPLS_2005

> <r_lp_Energy>
5.55421

> <b_lp_Chiralities_Consistent>
1

> <s_lp_Variant>
AV-unprocessed.smi:786-3

> <Gold.Version>
5.8.1

> <Gold.Id.Protein>
6NUR|6NUR_protein|mol2

> <Gold.PLP.Fitness>
45.4657

> <Gold.PLP.PLP>
-41.1071

> <Gold.PLP.part.hbond>
-2.0000

> <Gold.PLP.part.metal>
0.0000

> <Gold.PLP.part.buried>
-4.2557

> <Gold.PLP.part.nonpolar>
-34.6250

> <Gold.PLP.part.repulsive>
0.1982

> <Gold.PLP.ligand.clash>
0.0000

> <Gold.PLP.ligand.torsion>
1.3692

> <Gold.PLP.Chemscore.Hbond>
2.0000

> <Gold.PLP.Chemscore.CHOScore>
0.0000

> <Gold.PLP.Chemscore.Metal>
0.0000

> <Gold.Chemscore.Hbonds>
donor molecule, donor type, donor heavy atom, donor atom, acceptor molecule, acceptor atom, score
      P1  H  7997  8009       L1     3  1.00
      P1  H 10752 10763       L1     1  0.51

> <Gold.PLP.Chemscore.Internal.Correction>
1.0970

> <Gold.Rescore>
     Score         DG    S(hbond)    S(metal)    S(lipo)     H(rot)  DE(clash)    DE(int)     intcor
     19.22     -20.40       1.91        0.00     107.28       1.57       0.11       1.07       ----

> <Gold.Chemscore.Fitness>
19.2205

> <Gold.Chemscore.DG>
-20.3962

> <Gold.Chemscore.ZeroCoef>
-5.4800

> <Gold.Chemscore.Hbond>
1.9145

> <Gold.Chemscore.Metal>
0.0000

> <Gold.Chemscore.Lipo>
107.2752

> <Gold.Chemscore.Internal_Hbond>
0.0000

> <Gold.Chemscore.DEClash>
0.1091

> <Gold.Chemscore.DEInternal>
1.0666

> <Gold.Chemscore.Rot>
1.5740

> <Gold.Chemscore.Internal.Correction>
   9.000000E+99

> <Gold.Chemscore.Hbonds>
donor molecule, donor type, donor heavy atom, donor atom, acceptor molecule, acceptor atom, score
      P1  H  7997  8009       L1     3  0.99
      P1  H 10752 10763       L1     1  0.52

> <Gold.Chemscore.Hbond.Weighted>
-6.3943

> <Gold.Chemscore.Metal.Weighted>
-0.0000

> <Gold.Chemscore.Lipo.Weighted>
-12.5512

> <Gold.Chemscore.Internal_Hbond.Weighted>
0.0000

> <Gold.Chemscore.DEClash.Weighted>
0.1091

> <Gold.Chemscore.DEInternal.Weighted>
1.0666

> <Gold.Chemscore.Rot.Weighted>
4.0293

> <Gold.Chemscore.Internal.Correction.Weighted>
   9.000000E+99

> <Gold.Protein.RotatedTorsions>
[ 6907 6896 6895 6894 ] final   94.40 input  -60.11 | X-H torsion
[ 7974 7965 7964 7962 ] final -173.77 input  175.53 | X-H torsion
[ 8008 7997 7996 7995 ] final -152.84 input   59.86 | X-H torsion
[ 10167 10162 10161 10158 ] final  115.25 input  -65.29 | X-H torsion
[ 10718 10713 10712 10709 ] final   51.63 input   66.30 | X-H torsion
[ 10763 10752 10751 10750 ] final   70.32 input  -60.55 | X-H torsion
[ 11005 11000 10999 10996 ] final  117.16 input  -57.11 | X-H torsion

> <Gold.Protein.ActiveResidues>
 VAL166  LYS551  ARG553  GLY616  TRP617  ASP618  TYR619  PRO620  LYS621  CYS622 
 ASP623  PHE694  ASN695  SER759  ASP760  ASP761  ALA762  ILE779  LEU786  VAL792 
 PHE793  MET794  SER795  GLU796  ALA797  LYS798  CYS799  TRP800  GLU811  SER814 

> <Gold.Protein.RotatedAtoms>
  152.5449  134.1199  159.8394 H   0  0  0  0  0  0  0  0  0  0  0  0  # atno 6907 bound_to 6896
  151.1256  133.5066  159.2608 H   0  0  0  0  0  0  0  0  0  0  0  0  # atno 6908 bound_to 6896
  151.1731  135.0337  159.8815 H   0  0  0  0  0  0  0  0  0  0  0  0  # atno 6909 bound_to 6896
  144.7136  140.1572  143.6379 H   0  0  0  0  0  0  0  0  0  0  0  0  # atno 7974 bound_to 7965
  155.6614  140.0723  157.2552 H   0  0  0  0  0  0  0  0  0  0  0  0  # atno 8008 bound_to 7997
  154.4141  140.1715  156.1831 H   0  0  0  0  0  0  0  0  0  0  0  0  # atno 8009 bound_to 7997
  155.9694  140.3363  155.6565 H   0  0  0  0  0  0  0  0  0  0  0  0  # atno 8010 bound_to 7997
  139.6330  144.7117  151.2392 H   0  0  0  0  0  0  0  0  0  0  0  0  # atno 10167 bound_to 10162
  157.4999  130.8431  149.8303 H   0  0  0  0  0  0  0  0  0  0  0  0  # atno 10718 bound_to 10713
  153.0335  135.5178  154.7423 H   0  0  0  0  0  0  0  0  0  0  0  0  # atno 10763 bound_to 10752
  154.6419  135.2913  155.0095 H   0  0  0  0  0  0  0  0  0  0  0  0  # atno 10764 bound_to 10752
  154.1010  135.6636  153.4921 H   0  0  0  0  0  0  0  0  0  0  0  0  # atno 10765 bound_to 10752
  139.9065  134.9607  156.7309 H   0  0  0  0  0  0  0  0  0  0  0  0  # atno 11005 bound_to 11000
  145.9063  139.2460  143.1464 LP  0  0  0  0  0  0  0  0  0  0  0  0  # atno 17320 bound_to 7965
  145.9760  140.8721  143.0138 LP  0  0  0  0  0  0  0  0  0  0  0  0  # atno 17321 bound_to 7965
  140.7450  143.6446  150.8304 LP  0  0  0  0  0  0  0  0  0  0  0  0  # atno 17342 bound_to 10162
  140.0073  143.5680  152.2852 LP  0  0  0  0  0  0  0  0  0  0  0  0  # atno 17343 bound_to 10162
  156.0223  130.3791  150.1926 LP  0  0  0  0  0  0  0  0  0  0  0  0  # atno 17370 bound_to 10713
  157.0116  130.9952  151.3364 LP  0  0  0  0  0  0  0  0  0  0  0  0  # atno 17371 bound_to 10713
  140.6926  133.9377  155.7975 LP  0  0  0  0  0  0  0  0  0  0  0  0  # atno 17394 bound_to 11000
  141.0430  134.0593  157.3878 LP  0  0  0  0  0  0  0  0  0  0  0  0  # atno 17395 bound_to 11000

$$$$
