AV-unprocessed.smi:964|AV-procd|sdf|4280|dock1
  -GOLD-   22720 2183D 1   1.00000     0.00000
 Structure written by MMmdl.
 19 19  0  0  0  0  0  0  0  0  3 V2000
  152.5101  140.4761  158.3819 C   0  0  0  0  0  0  0  0  0  0  0  0
  151.8584  140.3176  157.0271 C   0  0  0  0  0  0  0  0  0  0  0  0
  150.5549  140.5096  156.7799 N   0  0  0  0  0  0  0  0  0  0  0  0
  150.3940  140.2625  155.4844 C   0  0  0  0  0  0  0  0  0  0  0  0
  149.0984  140.3847  154.7162 C   0  0  0  0  0  0  0  0  0  0  0  0
  148.6679  139.0413  154.1169 C   0  0  0  0  0  0  0  0  0  0  0  0
  149.6276  138.5775  153.1022 N   0  3  0  0  0  0  0  0  0  0  0  0
  151.5911  139.9471  154.9612 N   0  5  0  0  0  0  0  0  0  0  0  0
  152.5088  139.9693  155.9065 N   0  0  0  0  0  0  0  0  0  0  0  0
  151.7754  140.7669  159.1333 H   0  0  0  0  0  0  0  0  0  0  0  0
  153.2837  141.2427  158.3411 H   0  0  0  0  0  0  0  0  0  0  0  0
  152.9687  139.5374  158.6928 H   0  0  0  0  0  0  0  0  0  0  0  0
  148.3283  140.7650  155.3885 H   0  0  0  0  0  0  0  0  0  0  0  0
  149.2272  141.1288  153.9292 H   0  0  0  0  0  0  0  0  0  0  0  0
  148.5917  138.2855  154.8994 H   0  0  0  0  0  0  0  0  0  0  0  0
  147.6834  139.1300  153.6564 H   0  0  0  0  0  0  0  0  0  0  0  0
  149.5828  139.1833  152.2954 H   0  0  0  0  0  0  0  0  0  0  0  0
  149.3950  137.6334  152.8292 H   0  0  0  0  0  0  0  0  0  0  0  0
  150.5600  138.5977  153.4895 H   0  0  0  0  0  0  0  0  0  0  0  0
  1  2  1  0  0  0  0
  1 10  1  0  0  0  0
  1 11  1  0  0  0  0
  1 12  1  0  0  0  0
  2  9  2  0  0  0  0
  2  3  1  0  0  0  0
  3  4  2  0  0  0  0
  4  5  1  0  0  0  0
  4  8  1  0  0  0  0
  5  6  1  0  0  0  0
  5 13  1  0  0  0  0
  5 14  1  0  0  0  0
  6  7  1  0  0  0  0
  6 15  1  0  0  0  0
  6 16  1  0  0  0  0
  7 17  1  0  0  0  0
  7 18  1  0  0  0  0
  7 19  1  0  0  0  0
  8  9  1  0  0  0  0
M  CHG  1   7   1
M  CHG  1   8  -1
M  END
> <s_m_source_file>
AV-unprocessed.smi

> <i_m_source_file_index>
964

> <i_lp_mmshare_version>
43012

> <i_f3d_flags>
0

> <s_epik_input>
W0NIM11jMW5jKG5bbkhdMSlbQ0gyXVtDSDJdW05IMl0=

> <s_epik_cmdline>
J2VwaWtfcHl0aG9uJywgJy1waCcsICc3LjAnLCAnLXRuJywgJzgnLCAnLW1hJywgJzIwMCcsICctbWV0YWxfYmluZGluZycsICctaW1hZScsICc8aW5maWxlLm1hZT4nLCAnLW9tYWUnLCAnPG91dGZpbGUubWFlPic=

> <r_lp_tautomer_probability>
0.948284

> <r_epik_Ionization_Penalty>
9.08731

> <r_epik_Ionization_Penalty_Charging>
9.08731

> <r_epik_Ionization_Penalty_Neutral>
3.1995e-13

> <r_epik_State_Penalty>
3.73635

> <r_epik_Charging_Adjusted_Penalty>
12.8237

> <i_epik_Tot_Q>
0

> <i_epik_Tot_abs_Q>
2

> <r_epik_Metal_State_Penalty>
0.739442

> <b_epik_Metal_Only>
1

> <s_lp_Force_Field>
OPLS_2005

> <r_lp_Energy>
-5.24046

> <b_lp_Chiralities_Consistent>
1

> <s_lp_Variant>
AV-unprocessed.smi:964-4

> <Gold.Version>
5.8.1

> <Gold.Id.Protein>
6NUR|6NUR_protein|mol2

> <Gold.PLP.Fitness>
30.7188

> <Gold.PLP.PLP>
-15.7478

> <Gold.PLP.part.hbond>
-4.0000

> <Gold.PLP.part.metal>
0.0000

> <Gold.PLP.part.buried>
-2.2168

> <Gold.PLP.part.nonpolar>
-9.3574

> <Gold.PLP.part.repulsive>
0.1553

> <Gold.PLP.ligand.clash>
0.0000

> <Gold.PLP.ligand.torsion>
0.0174

> <Gold.PLP.Chemscore.Hbond>
5.0000

> <Gold.PLP.Chemscore.CHOScore>
0.0000

> <Gold.PLP.Chemscore.Metal>
0.0000

> <Gold.Chemscore.Hbonds>
donor molecule, donor type, donor heavy atom, donor atom, acceptor molecule, acceptor atom, score
      L1  H     7    17       P1  7957  0.70
      L1  H     7    18       P1  7948  2.00
      P1  H  7989  7998       L1     8  1.00
      P1  H  7997  8009       L1     9  1.00

> <Gold.PLP.Chemscore.Internal.Correction>
0.0059

> <Gold.Rescore>
     Score         DG    S(hbond)    S(metal)    S(lipo)     H(rot)  DE(clash)    DE(int)     intcor
     16.07     -16.16       3.74        0.00      16.93       1.49       0.04       0.06       ----

> <Gold.Chemscore.Fitness>
16.0739

> <Gold.Chemscore.DG>
-16.1645

> <Gold.Chemscore.ZeroCoef>
-5.4800

> <Gold.Chemscore.Hbond>
3.7447

> <Gold.Chemscore.Metal>
0.0000

> <Gold.Chemscore.Lipo>
16.9329

> <Gold.Chemscore.Internal_Hbond>
0.0000

> <Gold.Chemscore.DEClash>
0.0354

> <Gold.Chemscore.DEInternal>
0.0552

> <Gold.Chemscore.Rot>
1.4859

> <Gold.Chemscore.Internal.Correction>
   9.000000E+99

> <Gold.Chemscore.Hbonds>
donor molecule, donor type, donor heavy atom, donor atom, acceptor molecule, acceptor atom, score
      L1  H     7    17       P1  7957  0.62
      L1  H     7    18       P1  7948  0.88
      P1  H  7989  7998       L1     8  0.44
      P1  H  7997  8009       L1     9  0.65

> <Gold.Chemscore.Hbond.Weighted>
-12.5073

> <Gold.Chemscore.Metal.Weighted>
-0.0000

> <Gold.Chemscore.Lipo.Weighted>
-1.9811

> <Gold.Chemscore.Internal_Hbond.Weighted>
0.0000

> <Gold.Chemscore.DEClash.Weighted>
0.0354

> <Gold.Chemscore.DEInternal.Weighted>
0.0552

> <Gold.Chemscore.Rot.Weighted>
3.8039

> <Gold.Chemscore.Internal.Correction.Weighted>
   9.000000E+99

> <Gold.Protein.RotatedTorsions>
[ 6907 6896 6895 6894 ] final  125.39 input  -60.11 | X-H torsion
[ 7974 7965 7964 7962 ] final -107.85 input  175.53 | X-H torsion
[ 8008 7997 7996 7995 ] final -156.73 input   59.86 | X-H torsion
[ 10167 10162 10161 10158 ] final  137.27 input  -65.29 | X-H torsion
[ 10718 10713 10712 10709 ] final -131.88 input   66.30 | X-H torsion
[ 10763 10752 10751 10750 ] final  -42.91 input  -60.55 | X-H torsion
[ 11005 11000 10999 10996 ] final   -2.88 input  -57.11 | X-H torsion

> <Gold.Protein.ActiveResidues>
 VAL166  LYS551  ARG553  GLY616  TRP617  ASP618  TYR619  PRO620  LYS621  CYS622 
 ASP623  PHE694  ASN695  SER759  ASP760  ASP761  ALA762  ILE779  LEU786  VAL792 
 PHE793  MET794  SER795  GLU796  ALA797  LYS798  CYS799  TRP800  GLU811  SER814 

> <Gold.Protein.RotatedAtoms>
  152.3996  133.6797  159.6304 H   0  0  0  0  0  0  0  0  0  0  0  0  # atno 6907 bound_to 6896
  150.7889  133.8815  159.3296 H   0  0  0  0  0  0  0  0  0  0  0  0  # atno 6908 bound_to 6896
  151.6583  135.0994  160.0226 H   0  0  0  0  0  0  0  0  0  0  0  0  # atno 6909 bound_to 6896
  145.2001  140.9053  143.3374 H   0  0  0  0  0  0  0  0  0  0  0  0  # atno 7974 bound_to 7965
  155.7216  140.0791  157.2328 H   0  0  0  0  0  0  0  0  0  0  0  0  # atno 8008 bound_to 7997
  154.4044  140.1611  156.2463 H   0  0  0  0  0  0  0  0  0  0  0  0  # atno 8009 bound_to 7997
  155.9191  140.3399  155.6161 H   0  0  0  0  0  0  0  0  0  0  0  0  # atno 8010 bound_to 7997
  139.5150  144.6419  151.5546 H   0  0  0  0  0  0  0  0  0  0  0  0  # atno 10167 bound_to 10162
  156.2289  130.7025  151.0837 H   0  0  0  0  0  0  0  0  0  0  0  0  # atno 10718 bound_to 10713
  153.9868  135.6710  153.4752 H   0  0  0  0  0  0  0  0  0  0  0  0  # atno 10763 bound_to 10752
  153.0723  135.4967  154.8327 H   0  0  0  0  0  0  0  0  0  0  0  0  # atno 10764 bound_to 10752
  154.7132  135.3101  154.9126 H   0  0  0  0  0  0  0  0  0  0  0  0  # atno 10765 bound_to 10752
  140.6632  133.9301  155.8449 H   0  0  0  0  0  0  0  0  0  0  0  0  # atno 11005 bound_to 11000
  144.9956  139.3647  143.6193 LP  0  0  0  0  0  0  0  0  0  0  0  0  # atno 17320 bound_to 7965
  146.3419  139.9157  142.8774 LP  0  0  0  0  0  0  0  0  0  0  0  0  # atno 17321 bound_to 7965
  140.6189  143.9296  150.6510 LP  0  0  0  0  0  0  0  0  0  0  0  0  # atno 17342 bound_to 10162
  140.2563  143.3556  152.1361 LP  0  0  0  0  0  0  0  0  0  0  0  0  # atno 17343 bound_to 10162
  157.7124  131.0727  150.6453 LP  0  0  0  0  0  0  0  0  0  0  0  0  # atno 17370 bound_to 10713
  156.6520  130.4488  149.5716 LP  0  0  0  0  0  0  0  0  0  0  0  0  # atno 17371 bound_to 10713
  141.0449  134.0568  157.3857 LP  0  0  0  0  0  0  0  0  0  0  0  0  # atno 17394 bound_to 11000
  139.9006  135.0163  156.7248 LP  0  0  0  0  0  0  0  0  0  0  0  0  # atno 17395 bound_to 11000

$$$$
