AV-unprocessed.smi:1917|AV-procd|sdf|7768|dock3
  -GOLD-   22720 9513D 1   1.00000     0.00000
 Structure written by MMmdl.
 44 45  0  0  0  0  0  0  0  0  1 V2000
  144.9947  143.8201  162.4238 C   0  0  0  0  0  0  0  0  0  0  0  0
  145.0229  142.8753  161.2188 C   0  0  0  0  0  0  0  0  0  0  0  0
  144.4601  141.7847  161.3238 O   0  0  0  0  0  0  0  0  0  0  0  0
  145.6574  143.2600  160.0844 N   0  0  0  0  0  0  0  0  0  0  0  0
  145.7105  142.3479  158.9379 C   0  0  0  0  0  0  0  0  0  0  0  0
  146.3416  144.5518  159.9143 C   0  0  0  0  0  0  0  0  0  0  0  0
  147.7765  144.5364  160.4574 C   0  0  0  0  0  0  0  0  0  0  0  0
  148.0107  144.1835  161.6138 O   0  0  0  0  0  0  0  0  0  0  0  0
  148.7342  144.9252  159.6019 N   0  0  0  0  0  0  0  0  0  0  0  0
  150.1651  144.9285  159.8931 C   0  0  0  0  0  0  0  0  0  0  0  0
  150.9431  143.7407  159.3353 C   0  0  0  0  0  0  0  0  0  0  0  0
  152.1431  143.3488  159.9590 C   0  0  0  0  0  0  0  0  0  0  0  0
  152.8483  142.2525  159.4310 C   0  0  0  0  0  0  0  0  0  0  0  0
  152.4316  141.5534  158.3554 N   0  0  0  0  0  0  0  0  0  0  0  0
  151.2798  141.9156  157.7409 C   0  0  0  0  0  0  0  0  0  0  0  0
  150.8793  141.1325  156.6351 N   0  0  0  0  0  0  0  0  0  0  0  0
  150.0651  141.7518  155.5923 C   0  0  0  0  0  0  0  0  0  0  0  0
  149.4481  140.6783  154.6804 C   0  0  0  0  0  0  0  0  0  0  0  0
  150.4746  139.8393  154.1627 O   0  0  0  0  0  0  0  0  0  0  0  0
  151.1619  139.1474  155.1999 C   0  0  0  0  0  0  0  0  0  0  0  0
  151.8474  140.1567  156.1370 C   0  0  0  0  0  0  0  0  0  0  0  0
  150.5122  143.0158  158.1999 C   0  0  0  0  0  0  0  0  0  0  0  0
  146.0013  144.1276  162.7068 H   0  0  0  0  0  0  0  0  0  0  0  0
  144.5459  143.3265  163.2864 H   0  0  0  0  0  0  0  0  0  0  0  0
  144.4020  144.7080  162.2033 H   0  0  0  0  0  0  0  0  0  0  0  0
  144.7083  142.1579  158.5510 H   0  0  0  0  0  0  0  0  0  0  0  0
  146.1549  141.3931  159.2236 H   0  0  0  0  0  0  0  0  0  0  0  0
  146.3099  142.7488  158.1198 H   0  0  0  0  0  0  0  0  0  0  0  0
  146.3621  144.8037  158.8527 H   0  0  0  0  0  0  0  0  0  0  0  0
  145.7970  145.3711  160.3831 H   0  0  0  0  0  0  0  0  0  0  0  0
  148.4572  145.2070  158.6728 H   0  0  0  0  0  0  0  0  0  0  0  0
  150.5915  145.8406  159.4753 H   0  0  0  0  0  0  0  0  0  0  0  0
  150.3169  144.9840  160.9725 H   0  0  0  0  0  0  0  0  0  0  0  0
  152.5170  143.8746  160.8254 H   0  0  0  0  0  0  0  0  0  0  0  0
  153.7717  141.9259  159.8861 H   0  0  0  0  0  0  0  0  0  0  0  0
  149.2612  142.3384  156.0379 H   0  0  0  0  0  0  0  0  0  0  0  0
  150.6853  142.4307  155.0057 H   0  0  0  0  0  0  0  0  0  0  0  0
  148.7141  140.0814  155.2243 H   0  0  0  0  0  0  0  0  0  0  0  0
  148.9212  141.1499  153.8508 H   0  0  0  0  0  0  0  0  0  0  0  0
  150.4656  138.5149  155.7534 H   0  0  0  0  0  0  0  0  0  0  0  0
  151.9051  138.4865  154.7539 H   0  0  0  0  0  0  0  0  0  0  0  0
  152.6362  140.6873  155.6022 H   0  0  0  0  0  0  0  0  0  0  0  0
  152.3253  139.6112  156.9508 H   0  0  0  0  0  0  0  0  0  0  0  0
  149.6057  143.3085  157.6943 H   0  0  0  0  0  0  0  0  0  0  0  0
  1  2  1  0  0  0  0
  1 23  1  0  0  0  0
  1 24  1  0  0  0  0
  1 25  1  0  0  0  0
  2  3  2  0  0  0  0
  2  4  1  0  0  0  0
  4  5  1  0  0  0  0
  4  6  1  0  0  0  0
  5 26  1  0  0  0  0
  5 27  1  0  0  0  0
  5 28  1  0  0  0  0
  6  7  1  0  0  0  0
  6 29  1  0  0  0  0
  6 30  1  0  0  0  0
  7  8  2  0  0  0  0
  7  9  1  0  0  0  0
  9 10  1  0  0  0  0
  9 31  1  0  0  0  0
 10 11  1  0  0  0  0
 10 32  1  0  0  0  0
 10 33  1  0  0  0  0
 11 22  1  0  0  0  0
 11 12  2  0  0  0  0
 12 13  1  0  0  0  0
 12 34  1  0  0  0  0
 13 14  2  0  0  0  0
 13 35  1  0  0  0  0
 14 15  1  0  0  0  0
 15 16  1  0  0  0  0
 15 22  2  0  0  0  0
 16 21  1  0  0  0  0
 16 17  1  0  0  0  0
 17 18  1  0  0  0  0
 17 36  1  0  0  0  0
 17 37  1  0  0  0  0
 18 19  1  0  0  0  0
 18 38  1  0  0  0  0
 18 39  1  0  0  0  0
 19 20  1  0  0  0  0
 20 21  1  0  0  0  0
 20 40  1  0  0  0  0
 20 41  1  0  0  0  0
 21 42  1  0  0  0  0
 21 43  1  0  0  0  0
 22 44  1  0  0  0  0
M  END
> <s_m_source_file>
AV-unprocessed.smi

> <i_m_source_file_index>
1917

> <i_lp_mmshare_version>
43012

> <i_f3d_flags>
0

> <s_epik_input>
W0NIM11DKD1PKU4oW0NIM10pW0NIMl1DKD1PKVtOSF1bQ0gyXWMxW2NIXVtjSF1uYyhbY0hdMSlOMltDSDJdW0NIMl1PW0NIMl1bQ0gyXTI=

> <s_epik_cmdline>
J2VwaWtfcHl0aG9uJywgJy1waCcsICc3LjAnLCAnLXRuJywgJzgnLCAnLW1hJywgJzIwMCcsICctbWV0YWxfYmluZGluZycsICctaW1hZScsICc8aW5maWxlLm1hZT4nLCAnLW9tYWUnLCAnPG91dGZpbGUubWFlPic=

> <r_lp_tautomer_probability>
1

> <r_epik_Ionization_Penalty>
0.00469141

> <r_epik_Ionization_Penalty_Charging>
0

> <r_epik_Ionization_Penalty_Neutral>
0.00469141

> <r_epik_State_Penalty>
0.00339539

> <r_epik_Charging_Adjusted_Penalty>
0.00339539

> <i_epik_Tot_Q>
0

> <i_epik_Tot_abs_Q>
0

> <r_epik_Metal_State_Penalty>
-0

> <b_epik_Metal_Only>
0

> <s_lp_Force_Field>
OPLS_2005

> <r_lp_Energy>
17.0747

> <b_lp_Chiralities_Consistent>
1

> <s_lp_Variant>
AV-unprocessed.smi:1917-1

> <Gold.Version>
5.8.1

> <Gold.Id.Protein>
6NUR|6NUR_protein|mol2

> <Gold.PLP.Fitness>
51.4518

> <Gold.PLP.PLP>
-44.6024

> <Gold.PLP.part.hbond>
-3.6565

> <Gold.PLP.part.metal>
0.0000

> <Gold.PLP.part.buried>
-7.8603

> <Gold.PLP.part.nonpolar>
-32.9292

> <Gold.PLP.part.repulsive>
0.5380

> <Gold.PLP.ligand.clash>
0.0000

> <Gold.PLP.ligand.torsion>
1.3333

> <Gold.PLP.Chemscore.Hbond>
3.0000

> <Gold.PLP.Chemscore.CHOScore>
0.0000

> <Gold.PLP.Chemscore.Metal>
0.0000

> <Gold.Chemscore.Hbonds>
donor molecule, donor type, donor heavy atom, donor atom, acceptor molecule, acceptor atom, score
      L1  H     9    31       P1  8029  1.00
      P1  H  6933  6944       L1     8  0.99
      P1  H  7989  7998       L1    19  1.00

> <Gold.PLP.Chemscore.Internal.Correction>
0.5161

> <Gold.Rescore>
     Score         DG    S(hbond)    S(metal)    S(lipo)     H(rot)  DE(clash)    DE(int)     intcor
     17.30     -18.70       2.55        0.00      83.94       2.00       0.00       1.40       ----

> <Gold.Chemscore.Fitness>
17.2954

> <Gold.Chemscore.DG>
-18.6978

> <Gold.Chemscore.ZeroCoef>
-5.4800

> <Gold.Chemscore.Hbond>
2.5464

> <Gold.Chemscore.Metal>
0.0000

> <Gold.Chemscore.Lipo>
83.9439

> <Gold.Chemscore.Internal_Hbond>
0.0000

> <Gold.Chemscore.DEClash>
0.0000

> <Gold.Chemscore.DEInternal>
1.4024

> <Gold.Chemscore.Rot>
1.9956

> <Gold.Chemscore.Internal.Correction>
   9.000000E+99

> <Gold.Chemscore.Hbonds>
donor molecule, donor type, donor heavy atom, donor atom, acceptor molecule, acceptor atom, score
      L1  H     9    31       P1  8029  1.00
      P1  H  6933  6944       L1     8  0.47
      P1  H  7989  7998       L1    19  0.27

> <Gold.Chemscore.Hbond.Weighted>
-8.5051

> <Gold.Chemscore.Metal.Weighted>
-0.0000

> <Gold.Chemscore.Lipo.Weighted>
-9.8214

> <Gold.Chemscore.Internal_Hbond.Weighted>
0.0000

> <Gold.Chemscore.DEClash.Weighted>
0.0000

> <Gold.Chemscore.DEInternal.Weighted>
1.4024

> <Gold.Chemscore.Rot.Weighted>
5.1087

> <Gold.Chemscore.Internal.Correction.Weighted>
   9.000000E+99

> <Gold.Protein.RotatedTorsions>
[ 6907 6896 6895 6894 ] final    3.36 input  -60.11 | X-H torsion
[ 7974 7965 7964 7962 ] final  130.63 input  175.53 | X-H torsion
[ 8008 7997 7996 7995 ] final -155.86 input   59.86 | X-H torsion
[ 10167 10162 10161 10158 ] final  113.46 input  -65.29 | X-H torsion
[ 10718 10713 10712 10709 ] final -111.26 input   66.30 | X-H torsion
[ 10763 10752 10751 10750 ] final  128.48 input  -60.55 | X-H torsion
[ 11005 11000 10999 10996 ] final   12.63 input  -57.11 | X-H torsion

> <Gold.Protein.ActiveResidues>
 VAL166  LYS551  ARG553  GLY616  TRP617  ASP618  TYR619  PRO620  LYS621  CYS622 
 ASP623  PHE694  ASN695  SER759  ASP760  ASP761  ALA762  ILE779  LEU786  VAL792 
 PHE793  MET794  SER795  GLU796  ALA797  LYS798  CYS799  TRP800  GLU811  SER814 

> <Gold.Protein.RotatedAtoms>
  151.6238  135.1029  160.0106 H   0  0  0  0  0  0  0  0  0  0  0  0  # atno 6907 bound_to 6896
  152.4144  133.7010  159.6434 H   0  0  0  0  0  0  0  0  0  0  0  0  # atno 6908 bound_to 6896
  150.8032  133.8484  159.3239 H   0  0  0  0  0  0  0  0  0  0  0  0  # atno 6909 bound_to 6896
  145.0159  139.4177  143.5221 H   0  0  0  0  0  0  0  0  0  0  0  0  # atno 7974 bound_to 7965
  155.7084  140.0775  157.2381 H   0  0  0  0  0  0  0  0  0  0  0  0  # atno 8008 bound_to 7997
  154.4062  140.1634  156.2322 H   0  0  0  0  0  0  0  0  0  0  0  0  # atno 8009 bound_to 7997
  155.9305  140.3391  155.6248 H   0  0  0  0  0  0  0  0  0  0  0  0  # atno 8010 bound_to 7997
  139.6460  144.7126  151.2142 H   0  0  0  0  0  0  0  0  0  0  0  0  # atno 10167 bound_to 10162
  156.0637  130.5858  150.8349 H   0  0  0  0  0  0  0  0  0  0  0  0  # atno 10718 bound_to 10713
  153.7262  135.3245  155.3277 H   0  0  0  0  0  0  0  0  0  0  0  0  # atno 10763 bound_to 10752
  154.8340  135.4511  154.1167 H   0  0  0  0  0  0  0  0  0  0  0  0  # atno 10764 bound_to 10752
  153.2302  135.6959  153.7979 H   0  0  0  0  0  0  0  0  0  0  0  0  # atno 10765 bound_to 10752
  140.4898  134.0851  155.7769 H   0  0  0  0  0  0  0  0  0  0  0  0  # atno 11005 bound_to 11000
  146.3478  139.9629  142.8715 LP  0  0  0  0  0  0  0  0  0  0  0  0  # atno 17320 bound_to 7965
  145.1960  140.9833  143.4183 LP  0  0  0  0  0  0  0  0  0  0  0  0  # atno 17321 bound_to 7965
  140.7514  143.6231  150.8495 LP  0  0  0  0  0  0  0  0  0  0  0  0  # atno 17342 bound_to 10162
  139.9873  143.5885  152.2922 LP  0  0  0  0  0  0  0  0  0  0  0  0  # atno 17343 bound_to 10162
  157.5663  131.0946  150.9484 LP  0  0  0  0  0  0  0  0  0  0  0  0  # atno 17370 bound_to 10713
  156.9710  130.5491  149.5290 LP  0  0  0  0  0  0  0  0  0  0  0  0  # atno 17371 bound_to 10713
  141.1489  133.9004  157.2146 LP  0  0  0  0  0  0  0  0  0  0  0  0  # atno 17394 bound_to 11000
  139.9776  135.0109  156.9669 LP  0  0  0  0  0  0  0  0  0  0  0  0  # atno 17395 bound_to 11000

$$$$
