AV-unprocessed.smi:1272|AV-procd|sdf|5334|dock1
  -GOLD-   22720 4463D 1   1.00000     0.00000
 Structure written by MMmdl.
 45 47  0  0  0  0  0  0  0  0  1 V2000
  149.8870  141.6848  156.9725 C   0  0  0  0  0  0  0  0  0  0  0  0
  150.9788  142.6825  157.3791 C   0  0  0  0  0  0  0  0  0  0  0  0
  151.9180  142.0831  158.3238 N   0  0  0  0  0  0  0  0  0  0  0  0
  152.5923  140.9202  158.1638 C   0  0  0  0  0  0  0  0  0  0  0  0
  152.5254  140.1731  157.1875 O   0  0  0  0  0  0  0  0  0  0  0  0
  153.3428  140.7133  159.2716 N   0  0  0  0  0  0  0  0  0  0  0  0
  154.2232  139.5738  159.5247 C   0  0  0  0  0  0  0  0  0  0  0  0
  155.6596  140.0238  159.8586 C   0  0  2  0  0  0  0  0  0  0  0  0
  156.3894  140.0914  158.6498 O   0  0  0  0  0  0  0  0  0  0  0  0
  156.3722  138.9995  160.7653 C   0  0  0  0  0  0  0  0  0  0  0  0
  155.6031  138.5336  161.9212 N   0  0  0  0  0  0  0  0  0  0  0  0
  154.8528  137.3087  161.6485 C   0  0  0  0  0  0  0  0  0  0  0  0
  154.0795  136.8217  162.8867 C   0  0  0  0  0  0  0  0  0  0  0  0
  154.9803  136.6346  163.9729 O   0  0  0  0  0  0  0  0  0  0  0  0
  155.6966  137.8203  164.3008 C   0  0  0  0  0  0  0  0  0  0  0  0
  156.4772  138.3057  163.0673 C   0  0  0  0  0  0  0  0  0  0  0  0
  153.1231  141.7613  160.1771 C   0  0  0  0  0  0  0  0  0  0  0  0
  153.6378  141.9969  161.4640 C   0  0  0  0  0  0  0  0  0  0  0  0
  153.2002  143.1643  162.1322 C   0  0  0  0  0  0  0  0  0  0  0  0
  152.2787  144.0515  161.5177 C   0  0  0  0  0  0  0  0  0  0  0  0
  151.7744  143.7893  160.2223 C   0  0  0  0  0  0  0  0  0  0  0  0
  152.2265  142.6230  159.5805 C   0  0  0  0  0  0  0  0  0  0  0  0
  149.1795  142.1450  156.2826 H   0  0  0  0  0  0  0  0  0  0  0  0
  149.3266  141.3377  157.8412 H   0  0  0  0  0  0  0  0  0  0  0  0
  150.3147  140.8123  156.4778 H   0  0  0  0  0  0  0  0  0  0  0  0
  151.5124  143.0291  156.4928 H   0  0  0  0  0  0  0  0  0  0  0  0
  150.5278  143.5688  157.8255 H   0  0  0  0  0  0  0  0  0  0  0  0
  153.8089  139.0204  160.3690 H   0  0  0  0  0  0  0  0  0  0  0  0
  154.2104  138.8753  158.6871 H   0  0  0  0  0  0  0  0  0  0  0  0
  155.6373  141.0058  160.3298 H   0  0  0  0  0  0  0  0  0  0  0  0
  157.1691  139.5656  158.7454 H   0  0  0  0  0  0  0  0  0  0  0  0
  156.6661  138.1359  160.1668 H   0  0  0  0  0  0  0  0  0  0  0  0
  157.3049  139.4477  161.1114 H   0  0  0  0  0  0  0  0  0  0  0  0
  154.1399  137.4679  160.8410 H   0  0  0  0  0  0  0  0  0  0  0  0
  155.5333  136.5233  161.3160 H   0  0  0  0  0  0  0  0  0  0  0  0
  153.3071  137.5400  163.1659 H   0  0  0  0  0  0  0  0  0  0  0  0
  153.5773  135.8782  162.6733 H   0  0  0  0  0  0  0  0  0  0  0  0
  155.0042  138.5889  164.6476 H   0  0  0  0  0  0  0  0  0  0  0  0
  156.3798  137.6087  165.1233 H   0  0  0  0  0  0  0  0  0  0  0  0
  157.2389  137.5676  162.8107 H   0  0  0  0  0  0  0  0  0  0  0  0
  157.0071  139.2253  163.3175 H   0  0  0  0  0  0  0  0  0  0  0  0
  154.3343  141.3155  161.9297 H   0  0  0  0  0  0  0  0  0  0  0  0
  153.5702  143.3815  163.1233 H   0  0  0  0  0  0  0  0  0  0  0  0
  151.9564  144.9364  162.0462 H   0  0  0  0  0  0  0  0  0  0  0  0
  151.0690  144.4581  159.7520 H   0  0  0  0  0  0  0  0  0  0  0  0
  1  2  1  0  0  0  0
  1 23  1  0  0  0  0
  1 24  1  0  0  0  0
  1 25  1  0  0  0  0
  2  3  1  0  0  0  0
  2 26  1  0  0  0  0
  2 27  1  0  0  0  0
  3 22  1  0  0  0  0
  3  4  1  0  0  0  0
  4  5  2  0  0  0  0
  4  6  1  0  0  0  0
  6  7  1  0  0  0  0
  6 17  1  0  0  0  0
  7  8  1  0  0  0  0
  7 28  1  0  0  0  0
  7 29  1  0  0  0  0
  8  9  1  0  0  0  0
  8 10  1  0  0  0  0
  8 30  1  0  0  0  0
  9 31  1  0  0  0  0
 10 11  1  0  0  0  0
 10 32  1  0  0  0  0
 10 33  1  0  0  0  0
 11 16  1  0  0  0  0
 11 12  1  0  0  0  0
 12 13  1  0  0  0  0
 12 34  1  0  0  0  0
 12 35  1  0  0  0  0
 13 14  1  0  0  0  0
 13 36  1  0  0  0  0
 13 37  1  0  0  0  0
 14 15  1  0  0  0  0
 15 16  1  0  0  0  0
 15 38  1  0  0  0  0
 15 39  1  0  0  0  0
 16 40  1  0  0  0  0
 16 41  1  0  0  0  0
 17 22  2  0  0  0  0
 17 18  1  0  0  0  0
 18 19  2  0  0  0  0
 18 42  1  0  0  0  0
 19 20  1  0  0  0  0
 19 43  1  0  0  0  0
 20 21  2  0  0  0  0
 20 44  1  0  0  0  0
 21 22  1  0  0  0  0
 21 45  1  0  0  0  0
M  END
> <s_m_source_file>
AV-unprocessed.smi

> <i_m_source_file_index>
1272

> <i_lp_mmshare_version>
43012

> <i_f3d_flags>
0

> <s_epik_input>
W2NIXTFbY0hdW2NIXVtjSF1jKGMxMiluKFtDSDJdW0NIM10pYyg9TyluMltDSDJdW0NASF0oW09IXSlbQ0gyXU4zW0NIMl1bQ0gyXU9bQ0gyXVtDSDJdMw==

> <s_epik_cmdline>
J2VwaWtfcHl0aG9uJywgJy1waCcsICc3LjAnLCAnLXRuJywgJzgnLCAnLW1hJywgJzIwMCcsICctbWV0YWxfYmluZGluZycsICctaW1hZScsICc8aW5maWxlLm1hZT4nLCAnLW9tYWUnLCAnPG91dGZpbGUubWFlPic=

> <r_epik_Ionization_Penalty>
0.214359

> <r_epik_Ionization_Penalty_Charging>
2.31431e-09

> <r_epik_Ionization_Penalty_Neutral>
0.214359

> <r_epik_State_Penalty>
0.204533

> <r_epik_Charging_Adjusted_Penalty>
0.204533

> <i_epik_Tot_Q>
0

> <i_epik_Tot_abs_Q>
0

> <r_epik_Metal_State_Penalty>
0.204533

> <b_epik_Metal_Only>
0

> <s_lp_Force_Field>
OPLS_2005

> <r_lp_Energy>
61.4886

> <b_lp_Chiralities_Consistent>
1

> <s_lp_Variant>
AV-unprocessed.smi:1272-1

> <Gold.Version>
5.8.1

> <Gold.Id.Protein>
6NUR|6NUR_protein|mol2

> <Gold.PLP.Fitness>
52.4593

> <Gold.PLP.PLP>
-48.6643

> <Gold.PLP.part.hbond>
-2.0000

> <Gold.PLP.part.metal>
0.0000

> <Gold.PLP.part.buried>
-6.9474

> <Gold.PLP.part.nonpolar>
-39.1036

> <Gold.PLP.part.repulsive>
0.0909

> <Gold.PLP.ligand.clash>
0.0000

> <Gold.PLP.ligand.torsion>
0.9644

> <Gold.PLP.Chemscore.Hbond>
1.8637

> <Gold.PLP.Chemscore.CHOScore>
0.0000

> <Gold.PLP.Chemscore.Metal>
0.0000

> <Gold.Chemscore.Hbonds>
donor molecule, donor type, donor heavy atom, donor atom, acceptor molecule, acceptor atom, score
      P1  H  7997  8008       L1     5  0.98
      P1  H  7997  8010       L1     9  0.95

> <Gold.PLP.Chemscore.Internal.Correction>
0.1327

> <Gold.Rescore>
     Score         DG    S(hbond)    S(metal)    S(lipo)     H(rot)  DE(clash)    DE(int)     intcor
     18.93     -19.96       1.56        0.00     125.99       2.14       0.08       0.95       ----

> <Gold.Chemscore.Fitness>
18.9263

> <Gold.Chemscore.DG>
-19.9551

> <Gold.Chemscore.ZeroCoef>
-5.4800

> <Gold.Chemscore.Hbond>
1.5595

> <Gold.Chemscore.Metal>
0.0000

> <Gold.Chemscore.Lipo>
125.9941

> <Gold.Chemscore.Internal_Hbond>
0.0000

> <Gold.Chemscore.DEClash>
0.0778

> <Gold.Chemscore.DEInternal>
0.9510

> <Gold.Chemscore.Rot>
2.1386

> <Gold.Chemscore.Internal.Correction>
   9.000000E+99

> <Gold.Chemscore.Hbonds>
donor molecule, donor type, donor heavy atom, donor atom, acceptor molecule, acceptor atom, score
      P1  H  7997  8008       L1     5  0.46
      P1  H  7997  8010       L1     9  0.68

> <Gold.Chemscore.Hbond.Weighted>
-5.2087

> <Gold.Chemscore.Metal.Weighted>
-0.0000

> <Gold.Chemscore.Lipo.Weighted>
-14.7413

> <Gold.Chemscore.Internal_Hbond.Weighted>
0.0000

> <Gold.Chemscore.DEClash.Weighted>
0.0778

> <Gold.Chemscore.DEInternal.Weighted>
0.9510

> <Gold.Chemscore.Rot.Weighted>
5.4749

> <Gold.Chemscore.Internal.Correction.Weighted>
   9.000000E+99

> <Gold.Protein.RotatedTorsions>
[ 6907 6896 6895 6894 ] final   25.61 input  -60.11 | X-H torsion
[ 7974 7965 7964 7962 ] final -118.90 input  175.53 | X-H torsion
[ 8008 7997 7996 7995 ] final  -48.67 input   59.86 | X-H torsion
[ 10167 10162 10161 10158 ] final -160.34 input  -65.29 | X-H torsion
[ 10718 10713 10712 10709 ] final   28.20 input   66.30 | X-H torsion
[ 10763 10752 10751 10750 ] final    4.53 input  -60.55 | X-H torsion
[ 11005 11000 10999 10996 ] final  142.96 input  -57.11 | X-H torsion

> <Gold.Protein.ActiveResidues>
 VAL166  LYS551  ARG553  GLY616  TRP617  ASP618  TYR619  PRO620  LYS621  CYS622 
 ASP623  PHE694  ASN695  SER759  ASP760  ASP761  ALA762  ILE779  LEU786  VAL792 
 PHE793  MET794  SER795  GLU796  ALA797  LYS798  CYS799  TRP800  GLU811  SER814 

> <Gold.Protein.RotatedAtoms>
  151.9751  135.0057  160.0554 H   0  0  0  0  0  0  0  0  0  0  0  0  # atno 6907 bound_to 6896
  152.1747  133.4662  159.4935 H   0  0  0  0  0  0  0  0  0  0  0  0  # atno 6908 bound_to 6896
  150.6907  134.1826  159.4297 H   0  0  0  0  0  0  0  0  0  0  0  0  # atno 6909 bound_to 6896
  145.0685  140.8342  143.4109 H   0  0  0  0  0  0  0  0  0  0  0  0  # atno 7974 bound_to 7965
  154.4032  140.1316  156.4377 H   0  0  0  0  0  0  0  0  0  0  0  0  # atno 8008 bound_to 7997
  155.7489  140.3488  155.5121 H   0  0  0  0  0  0  0  0  0  0  0  0  # atno 8009 bound_to 7997
  155.8968  140.1012  157.1369 H   0  0  0  0  0  0  0  0  0  0  0  0  # atno 8010 bound_to 7997
  139.6546  144.0021  152.2185 H   0  0  0  0  0  0  0  0  0  0  0  0  # atno 10167 bound_to 10162
  157.2303  130.7020  149.6310 H   0  0  0  0  0  0  0  0  0  0  0  0  # atno 10718 bound_to 10713
  153.2701  135.6931  153.7489 H   0  0  0  0  0  0  0  0  0  0  0  0  # atno 10763 bound_to 10752
  153.6516  135.3376  155.3102 H   0  0  0  0  0  0  0  0  0  0  0  0  # atno 10764 bound_to 10752
  154.8461  135.4456  154.1721 H   0  0  0  0  0  0  0  0  0  0  0  0  # atno 10765 bound_to 10752
  140.0517  134.9252  157.1028 H   0  0  0  0  0  0  0  0  0  0  0  0  # atno 11005 bound_to 11000
  145.1321  139.2625  143.5534 LP  0  0  0  0  0  0  0  0  0  0  0  0  # atno 17320 bound_to 7965
  146.3528  140.0975  142.8609 LP  0  0  0  0  0  0  0  0  0  0  0  0  # atno 17321 bound_to 7965
  139.9744  144.6471  150.7958 LP  0  0  0  0  0  0  0  0  0  0  0  0  # atno 17342 bound_to 10162
  140.7553  143.3044  151.2998 LP  0  0  0  0  0  0  0  0  0  0  0  0  # atno 17343 bound_to 10162
  155.9676  130.4491  150.5645 LP  0  0  0  0  0  0  0  0  0  0  0  0  # atno 17370 bound_to 10713
  157.3485  131.0729  151.1732 LP  0  0  0  0  0  0  0  0  0  0  0  0  # atno 17371 bound_to 10713
  140.3908  134.2187  155.7166 LP  0  0  0  0  0  0  0  0  0  0  0  0  # atno 17394 bound_to 11000
  141.1933  133.8153  157.0804 LP  0  0  0  0  0  0  0  0  0  0  0  0  # atno 17395 bound_to 11000

$$$$
