AV-unprocessed.smi:2975|AV-procd|sdf|11355|dock1
  -GOLD-   2272016273D 1   1.00000     0.00000
 Structure written by MMmdl.
 39 41  0  0  0  0  0  0  0  0  1 V2000
  153.3046  138.6988  154.7223 C   0  0  0  0  0  0  0  0  0  0  0  0
  152.1064  138.3132  155.5996 C   0  0  2  0  0  0  0  0  0  0  0  0
  152.0420  136.9023  155.6610 O   0  0  0  0  0  0  0  0  0  0  0  0
  150.8259  138.9239  155.0976 C   0  0  0  0  0  0  0  0  0  0  0  0
  149.9143  138.2152  154.4274 N   0  0  0  0  0  0  0  0  0  0  0  0
  148.9339  139.1495  154.1591 C   0  0  0  0  0  0  0  0  0  0  0  0
  147.6994  139.0174  153.4843 C   0  0  0  0  0  0  0  0  0  0  0  0
  146.8463  140.1301  153.3332 C   0  0  0  0  0  0  0  0  0  0  0  0
  147.2150  141.3878  153.8529 C   0  0  0  0  0  0  0  0  0  0  0  0
  148.4417  141.5412  154.5269 C   0  0  0  0  0  0  0  0  0  0  0  0
  149.2895  140.4273  154.6751 C   0  0  0  0  0  0  0  0  0  0  0  0
  150.5336  140.2391  155.2684 N   0  0  0  0  0  0  0  0  0  0  0  0
  151.3252  141.2623  155.9330 C   0  0  0  0  0  0  0  0  0  0  0  0
  151.4449  140.9919  157.4376 C   0  0  0  0  0  0  0  0  0  0  0  0
  151.5413  142.2369  158.1138 O   0  0  0  0  0  0  0  0  0  0  0  0
  152.1406  142.2611  159.3553 C   0  0  0  0  0  0  0  0  0  0  0  0
  152.9339  141.2066  159.8761 C   0  0  0  0  0  0  0  0  0  0  0  0
  153.5100  141.3129  161.1569 C   0  0  0  0  0  0  0  0  0  0  0  0
  153.3026  142.4689  161.9317 C   0  0  0  0  0  0  0  0  0  0  0  0
  152.5172  143.5199  161.4238 C   0  0  0  0  0  0  0  0  0  0  0  0
  151.9401  143.4148  160.1434 C   0  0  0  0  0  0  0  0  0  0  0  0
  151.1864  144.4341  159.6659 F   0  0  0  0  0  0  0  0  0  0  0  0
  153.4296  139.7813  154.6845 H   0  0  0  0  0  0  0  0  0  0  0  0
  153.1772  138.3436  153.6990 H   0  0  0  0  0  0  0  0  0  0  0  0
  154.2309  138.2737  155.1101 H   0  0  0  0  0  0  0  0  0  0  0  0
  152.2902  138.6480  156.6196 H   0  0  0  0  0  0  0  0  0  0  0  0
  151.1511  136.6520  155.8518 H   0  0  0  0  0  0  0  0  0  0  0  0
  147.4076  138.0578  153.0838 H   0  0  0  0  0  0  0  0  0  0  0  0
  145.9044  140.0176  152.8166 H   0  0  0  0  0  0  0  0  0  0  0  0
  146.5552  142.2347  153.7338 H   0  0  0  0  0  0  0  0  0  0  0  0
  148.7265  142.5032  154.9265 H   0  0  0  0  0  0  0  0  0  0  0  0
  152.3097  141.3189  155.4686 H   0  0  0  0  0  0  0  0  0  0  0  0
  150.8555  142.2320  155.7641 H   0  0  0  0  0  0  0  0  0  0  0  0
  150.5685  140.4399  157.7816 H   0  0  0  0  0  0  0  0  0  0  0  0
  152.3303  140.3866  157.6383 H   0  0  0  0  0  0  0  0  0  0  0  0
  153.1154  140.3039  159.3131 H   0  0  0  0  0  0  0  0  0  0  0  0
  154.1120  140.5044  161.5450 H   0  0  0  0  0  0  0  0  0  0  0  0
  153.7450  142.5491  162.9138 H   0  0  0  0  0  0  0  0  0  0  0  0
  152.3565  144.4086  162.0165 H   0  0  0  0  0  0  0  0  0  0  0  0
  1  2  1  0  0  0  0
  1 23  1  0  0  0  0
  1 24  1  0  0  0  0
  1 25  1  0  0  0  0
  2  3  1  0  0  0  0
  2  4  1  0  0  0  0
  2 26  1  0  0  0  0
  3 27  1  0  0  0  0
  4 12  1  0  0  0  0
  4  5  2  0  0  0  0
  5  6  1  0  0  0  0
  6 11  2  0  0  0  0
  6  7  1  0  0  0  0
  7  8  2  0  0  0  0
  7 28  1  0  0  0  0
  8  9  1  0  0  0  0
  8 29  1  0  0  0  0
  9 10  2  0  0  0  0
  9 30  1  0  0  0  0
 10 11  1  0  0  0  0
 10 31  1  0  0  0  0
 11 12  1  0  0  0  0
 12 13  1  0  0  0  0
 13 14  1  0  0  0  0
 13 32  1  0  0  0  0
 13 33  1  0  0  0  0
 14 15  1  0  0  0  0
 14 34  1  0  0  0  0
 14 35  1  0  0  0  0
 15 16  1  0  0  0  0
 16 21  1  0  0  0  0
 16 17  2  0  0  0  0
 17 18  1  0  0  0  0
 17 36  1  0  0  0  0
 18 19  2  0  0  0  0
 18 37  1  0  0  0  0
 19 20  1  0  0  0  0
 19 38  1  0  0  0  0
 20 21  2  0  0  0  0
 20 39  1  0  0  0  0
 21 22  1  0  0  0  0
M  END
> <s_m_source_file>
AV-unprocessed.smi

> <i_m_source_file_index>
2975

> <i_lp_mmshare_version>
43012

> <i_f3d_flags>
0

> <s_epik_input>
W2NIXTFbY0hdW2NIXVtjSF1jKGMxMiluKGMobjIpW0NASF0oW0NIM10pW09IXSlbQ0gyXVtDSDJdT2MzW2NIXVtjSF1bY0hdW2NIXWMzRg==

> <s_epik_cmdline>
J2VwaWtfcHl0aG9uJywgJy1waCcsICc3LjAnLCAnLXRuJywgJzgnLCAnLW1hJywgJzIwMCcsICctbWV0YWxfYmluZGluZycsICctaW1hZScsICc8aW5maWxlLm1hZT4nLCAnLW9tYWUnLCAnPG91dGZpbGUubWFlPic=

> <r_lp_tautomer_probability>
1

> <r_epik_Ionization_Penalty>
0.0404035

> <r_epik_Ionization_Penalty_Charging>
0

> <r_epik_Ionization_Penalty_Neutral>
0.0404035

> <r_epik_State_Penalty>
0.0340039

> <r_epik_Charging_Adjusted_Penalty>
0.0340039

> <i_epik_Tot_Q>
0

> <i_epik_Tot_abs_Q>
0

> <r_epik_Metal_State_Penalty>
3.49976e-05

> <b_epik_Metal_Only>
0

> <s_lp_Force_Field>
OPLS_2005

> <r_lp_Energy>
15.721

> <b_lp_Chiralities_Consistent>
1

> <s_lp_Variant>
AV-unprocessed.smi:2975-1

> <Gold.Version>
5.8.1

> <Gold.Id.Protein>
6NUR|6NUR_protein|mol2

> <Gold.PLP.Fitness>
53.2774

> <Gold.PLP.PLP>
-52.1838

> <Gold.PLP.part.hbond>
-1.0000

> <Gold.PLP.part.metal>
0.0000

> <Gold.PLP.part.buried>
-3.5417

> <Gold.PLP.part.nonpolar>
-47.4309

> <Gold.PLP.part.repulsive>
0.2426

> <Gold.PLP.ligand.clash>
0.0000

> <Gold.PLP.ligand.torsion>
0.9964

> <Gold.PLP.Chemscore.Hbond>
1.0000

> <Gold.PLP.Chemscore.CHOScore>
0.0000

> <Gold.PLP.Chemscore.Metal>
0.0000

> <Gold.Chemscore.Hbonds>
donor molecule, donor type, donor heavy atom, donor atom, acceptor molecule, acceptor atom, score
      P1  H 10752 10763       L1     3  1.00

> <Gold.PLP.Chemscore.Internal.Correction>
0.0863

> <Gold.Rescore>
     Score         DG    S(hbond)    S(metal)    S(lipo)     H(rot)  DE(clash)    DE(int)     intcor
     17.53     -18.70       0.95        0.00     134.16       2.21       0.07       1.10       ----

> <Gold.Chemscore.Fitness>
17.5286

> <Gold.Chemscore.DG>
-18.6992

> <Gold.Chemscore.ZeroCoef>
-5.4800

> <Gold.Chemscore.Hbond>
0.9490

> <Gold.Chemscore.Metal>
0.0000

> <Gold.Chemscore.Lipo>
134.1610

> <Gold.Chemscore.Internal_Hbond>
0.0000

> <Gold.Chemscore.DEClash>
0.0701

> <Gold.Chemscore.DEInternal>
1.1004

> <Gold.Chemscore.Rot>
2.2060

> <Gold.Chemscore.Internal.Correction>
   9.000000E+99

> <Gold.Chemscore.Hbonds>
donor molecule, donor type, donor heavy atom, donor atom, acceptor molecule, acceptor atom, score
      P1  H 10752 10763       L1     3  0.82

> <Gold.Chemscore.Hbond.Weighted>
-3.1696

> <Gold.Chemscore.Metal.Weighted>
-0.0000

> <Gold.Chemscore.Lipo.Weighted>
-15.6968

> <Gold.Chemscore.Internal_Hbond.Weighted>
0.0000

> <Gold.Chemscore.DEClash.Weighted>
0.0701

> <Gold.Chemscore.DEInternal.Weighted>
1.1004

> <Gold.Chemscore.Rot.Weighted>
5.6473

> <Gold.Chemscore.Internal.Correction.Weighted>
   9.000000E+99

> <Gold.Protein.RotatedTorsions>
[ 6907 6896 6895 6894 ] final  -50.90 input  -60.11 | X-H torsion
[ 7974 7965 7964 7962 ] final  143.92 input  175.53 | X-H torsion
[ 8008 7997 7996 7995 ] final  -97.65 input   59.86 | X-H torsion
[ 10167 10162 10161 10158 ] final  -14.17 input  -65.29 | X-H torsion
[ 10718 10713 10712 10709 ] final   92.41 input   66.30 | X-H torsion
[ 10763 10752 10751 10750 ] final   75.36 input  -60.55 | X-H torsion
[ 11005 11000 10999 10996 ] final  -43.79 input  -57.11 | X-H torsion

> <Gold.Protein.ActiveResidues>
 VAL166  LYS551  ARG553  GLY616  TRP617  ASP618  TYR619  PRO620  LYS621  CYS622 
 ASP623  PHE694  ASN695  SER759  ASP760  ASP761  ALA762  ILE779  LEU786  VAL792 
 PHE793  MET794  SER795  GLU796  ALA797  LYS798  CYS799  TRP800  GLU811  SER814 

> <Gold.Protein.RotatedAtoms>
  150.8662  134.8026  159.7120 H   0  0  0  0  0  0  0  0  0  0  0  0  # atno 6907 bound_to 6896
  152.4683  134.5020  159.9737 H   0  0  0  0  0  0  0  0  0  0  0  0  # atno 6908 bound_to 6896
  151.5116  133.3445  159.2921 H   0  0  0  0  0  0  0  0  0  0  0  0  # atno 6909 bound_to 6896
  144.8879  139.5601  143.5812 H   0  0  0  0  0  0  0  0  0  0  0  0  # atno 7974 bound_to 7965
  154.7906  140.0461  157.1198 H   0  0  0  0  0  0  0  0  0  0  0  0  # atno 8008 bound_to 7997
  154.9596  140.3075  155.5017 H   0  0  0  0  0  0  0  0  0  0  0  0  # atno 8009 bound_to 7997
  156.2949  140.2273  156.4680 H   0  0  0  0  0  0  0  0  0  0  0  0  # atno 8010 bound_to 7997
  140.7196  143.5349  150.9476 H   0  0  0  0  0  0  0  0  0  0  0  0  # atno 10167 bound_to 10162
  157.6958  131.0442  150.3877 H   0  0  0  0  0  0  0  0  0  0  0  0  # atno 10718 bound_to 10713
  153.0650  135.4991  154.8179 H   0  0  0  0  0  0  0  0  0  0  0  0  # atno 10763 bound_to 10752
  154.6939  135.2989  154.9442 H   0  0  0  0  0  0  0  0  0  0  0  0  # atno 10764 bound_to 10752
  154.0187  135.6745  153.4823 H   0  0  0  0  0  0  0  0  0  0  0  0  # atno 10765 bound_to 10752
  141.0407  133.6781  156.2782 H   0  0  0  0  0  0  0  0  0  0  0  0  # atno 11005 bound_to 11000
  146.3036  139.7506  142.9073 LP  0  0  0  0  0  0  0  0  0  0  0  0  # atno 17320 bound_to 7965
  145.3835  141.0362  143.3164 LP  0  0  0  0  0  0  0  0  0  0  0  0  # atno 17321 bound_to 7965
  139.9071  143.6765  152.3121 LP  0  0  0  0  0  0  0  0  0  0  0  0  # atno 17342 bound_to 10162
  139.7135  144.7616  151.1072 LP  0  0  0  0  0  0  0  0  0  0  0  0  # atno 17343 bound_to 10162
  156.4284  130.3967  149.6777 LP  0  0  0  0  0  0  0  0  0  0  0  0  # atno 17370 bound_to 10713
  156.4003  130.7671  151.2678 LP  0  0  0  0  0  0  0  0  0  0  0  0  # atno 17371 bound_to 10713
  140.6239  134.5334  157.5551 LP  0  0  0  0  0  0  0  0  0  0  0  0  # atno 17394 bound_to 11000
  139.9274  134.8029  156.1029 LP  0  0  0  0  0  0  0  0  0  0  0  0  # atno 17395 bound_to 11000

$$$$
