AV-unprocessed.smi:1417|AV-procd|sdf|5768|dock2
  -GOLD-   22720 5413D 1   1.00000     0.00000
 Structure written by MMmdl.
 38 39  0  0  0  0  0  0  0  0  2 V2000
  149.2500  140.9005  154.8806 C   0  0  0  0  0  0  0  0  0  0  0  0
  150.0771  139.6667  154.7566 C   0  0  0  0  0  0  0  0  0  0  0  0
  149.7576  138.3416  154.6683 C   0  0  0  0  0  0  0  0  0  0  0  0
  151.0265  137.7059  154.5822 C   0  0  0  0  0  0  0  0  0  0  0  0
  151.2408  136.3862  154.4666 N   0  5  0  0  0  0  0  0  0  0  0  0
  150.2986  135.5050  154.8753 C   0  0  0  0  0  0  0  0  0  0  0  0
  149.7701  135.4648  155.9890 O   0  0  0  0  0  0  0  0  0  0  0  0
  149.9461  134.6163  153.9347 N   0  0  0  0  0  0  0  0  0  0  0  0
  148.9541  133.5547  154.0854 C   0  0  0  0  0  0  0  0  0  0  0  0
  149.5949  132.1709  153.8952 C   0  0  0  0  0  0  0  0  0  0  0  0
  148.5336  131.0561  153.9243 C   0  0  0  0  0  0  0  0  0  0  0  0
  147.5104  131.2822  152.8917 N   0  0  0  0  0  0  0  0  0  0  0  0
  146.4985  130.2013  152.8537 C   0  0  0  0  0  0  0  0  0  0  0  0
  146.9755  128.9009  152.1975 C   0  0  0  0  0  0  0  0  0  0  0  0
  147.4007  128.9789  150.9339 N   0  0  0  0  0  0  0  0  0  0  0  0
  146.9533  127.8419  152.8208 O   0  0  0  0  0  0  0  0  0  0  0  0
  146.8345  132.5640  153.1195 C   0  0  0  0  0  0  0  0  0  0  0  0
  147.8368  133.7289  153.0486 C   0  0  0  0  0  0  0  0  0  0  0  0
  152.0269  138.5710  154.5977 N   0  0  0  0  0  0  0  0  0  0  0  0
  151.4268  139.8304  154.7164 O   0  0  0  0  0  0  0  0  0  0  0  0
  148.5951  141.0136  154.0166 H   0  0  0  0  0  0  0  0  0  0  0  0
  149.8769  141.7900  154.9480 H   0  0  0  0  0  0  0  0  0  0  0  0
  148.6274  140.8581  155.7743 H   0  0  0  0  0  0  0  0  0  0  0  0
  148.7744  137.8959  154.6703 H   0  0  0  0  0  0  0  0  0  0  0  0
  150.4072  134.6852  153.0393 H   0  0  0  0  0  0  0  0  0  0  0  0
  148.5088  133.6110  155.0807 H   0  0  0  0  0  0  0  0  0  0  0  0
  150.1314  132.1363  152.9457 H   0  0  0  0  0  0  0  0  0  0  0  0
  150.3364  131.9905  154.6744 H   0  0  0  0  0  0  0  0  0  0  0  0
  149.0413  130.1044  153.7682 H   0  0  0  0  0  0  0  0  0  0  0  0
  148.0676  131.0061  154.9100 H   0  0  0  0  0  0  0  0  0  0  0  0
  146.1552  129.9826  153.8667 H   0  0  0  0  0  0  0  0  0  0  0  0
  145.6231  130.5414  152.2983 H   0  0  0  0  0  0  0  0  0  0  0  0
  147.7159  128.1456  150.4589 H   0  0  0  0  0  0  0  0  0  0  0  0
  147.3970  129.8686  150.4567 H   0  0  0  0  0  0  0  0  0  0  0  0
  146.0657  132.7166  152.3609 H   0  0  0  0  0  0  0  0  0  0  0  0
  146.3289  132.5608  154.0868 H   0  0  0  0  0  0  0  0  0  0  0  0
  147.3165  134.6727  153.2160 H   0  0  0  0  0  0  0  0  0  0  0  0
  148.2616  133.7832  152.0448 H   0  0  0  0  0  0  0  0  0  0  0  0
  1  2  1  0  0  0  0
  1 21  1  0  0  0  0
  1 22  1  0  0  0  0
  1 23  1  0  0  0  0
  2 20  1  0  0  0  0
  2  3  2  0  0  0  0
  3  4  1  0  0  0  0
  3 24  1  0  0  0  0
  4  5  1  0  0  0  0
  4 19  2  0  0  0  0
  5  6  1  0  0  0  0
  6  7  2  0  0  0  0
  6  8  1  0  0  0  0
  8  9  1  0  0  0  0
  8 25  1  0  0  0  0
  9 18  1  0  0  0  0
  9 10  1  0  0  0  0
  9 26  1  0  0  0  0
 10 11  1  0  0  0  0
 10 27  1  0  0  0  0
 10 28  1  0  0  0  0
 11 12  1  0  0  0  0
 11 29  1  0  0  0  0
 11 30  1  0  0  0  0
 12 13  1  0  0  0  0
 12 17  1  0  0  0  0
 13 14  1  0  0  0  0
 13 31  1  0  0  0  0
 13 32  1  0  0  0  0
 14 15  1  0  0  0  0
 14 16  2  0  0  0  0
 15 33  1  0  0  0  0
 15 34  1  0  0  0  0
 17 18  1  0  0  0  0
 17 35  1  0  0  0  0
 17 36  1  0  0  0  0
 18 37  1  0  0  0  0
 18 38  1  0  0  0  0
 19 20  1  0  0  0  0
M  CHG  1   5  -1
M  END
> <s_m_source_file>
AV-unprocessed.smi

> <i_m_source_file_index>
1417

> <i_lp_mmshare_version>
43012

> <i_f3d_flags>
0

> <s_epik_input>
W0NIM11jMVtjSF1jKG5vMSlbTkhdQyg9TylbTkhdW0NIXTJbQ0gyXVtDSDJdTihbQ0gyXVtDSDJdMilbQ0gyXUMoPU8pW05IMl0=

> <s_epik_cmdline>
J2VwaWtfcHl0aG9uJywgJy1waCcsICc3LjAnLCAnLXRuJywgJzgnLCAnLW1hJywgJzIwMCcsICctbWV0YWxfYmluZGluZycsICctaW1hZScsICc8aW5maWxlLm1hZT4nLCAnLW9tYWUnLCAnPG91dGZpbGUubWFlPic=

> <r_epik_Ionization_Penalty>
6.76533

> <r_epik_Ionization_Penalty_Charging>
6.59228

> <r_epik_Ionization_Penalty_Neutral>
0.17305

> <r_epik_State_Penalty>
6.73737

> <r_epik_Charging_Adjusted_Penalty>
13.3296

> <i_epik_Tot_Q>
-1

> <i_epik_Tot_abs_Q>
1

> <r_epik_Metal_State_Penalty>
2.67929

> <b_epik_Metal_Only>
1

> <s_lp_Force_Field>
OPLS_2005

> <r_lp_Energy>
4.40981

> <b_lp_Chiralities_Consistent>
1

> <s_lp_Variant>
AV-unprocessed.smi:1417-4

> <Gold.Version>
5.8.1

> <Gold.Id.Protein>
6NUR|6NUR_protein|mol2

> <Gold.PLP.Fitness>
42.1466

> <Gold.PLP.PLP>
-31.5929

> <Gold.PLP.part.hbond>
-3.9289

> <Gold.PLP.part.metal>
0.0000

> <Gold.PLP.part.buried>
-2.9275

> <Gold.PLP.part.nonpolar>
-24.6941

> <Gold.PLP.part.repulsive>
0.6410

> <Gold.PLP.ligand.clash>
0.0000

> <Gold.PLP.ligand.torsion>
0.7404

> <Gold.PLP.Chemscore.Hbond>
4.0000

> <Gold.PLP.Chemscore.CHOScore>
0.0000

> <Gold.PLP.Chemscore.Metal>
0.0000

> <Gold.Chemscore.Hbonds>
donor molecule, donor type, donor heavy atom, donor atom, acceptor molecule, acceptor atom, score
      L1  H    15    34       P1 10747  0.40
      P1  H  7989  7998       L1    20  1.00
      P1  H 10752 10765       L1     5  2.00

> <Gold.PLP.Chemscore.Internal.Correction>
0.0345

> <Gold.Rescore>
     Score         DG    S(hbond)    S(metal)    S(lipo)     H(rot)  DE(clash)    DE(int)     intcor
     13.66     -14.44       2.41        0.00      51.53       2.00       0.06       0.71       ----

> <Gold.Chemscore.Fitness>
13.6634

> <Gold.Chemscore.DG>
-14.4374

> <Gold.Chemscore.ZeroCoef>
-5.4800

> <Gold.Chemscore.Hbond>
2.4075

> <Gold.Chemscore.Metal>
0.0000

> <Gold.Chemscore.Lipo>
51.5333

> <Gold.Chemscore.Internal_Hbond>
0.0000

> <Gold.Chemscore.DEClash>
0.0616

> <Gold.Chemscore.DEInternal>
0.7124

> <Gold.Chemscore.Rot>
1.9973

> <Gold.Chemscore.Internal.Correction>
   9.000000E+99

> <Gold.Chemscore.Hbonds>
donor molecule, donor type, donor heavy atom, donor atom, acceptor molecule, acceptor atom, score
      L1  H    15    34       P1 10747  0.40
      P1  H  7989  7998       L1    20  0.42
      P1  H 10752 10765       L1     5  0.82

> <Gold.Chemscore.Hbond.Weighted>
-8.0412

> <Gold.Chemscore.Metal.Weighted>
-0.0000

> <Gold.Chemscore.Lipo.Weighted>
-6.0294

> <Gold.Chemscore.Internal_Hbond.Weighted>
0.0000

> <Gold.Chemscore.DEClash.Weighted>
0.0616

> <Gold.Chemscore.DEInternal.Weighted>
0.7124

> <Gold.Chemscore.Rot.Weighted>
5.1131

> <Gold.Chemscore.Internal.Correction.Weighted>
   9.000000E+99

> <Gold.Protein.RotatedTorsions>
[ 6907 6896 6895 6894 ] final   38.83 input  -60.11 | X-H torsion
[ 7974 7965 7964 7962 ] final -147.82 input  175.53 | X-H torsion
[ 8008 7997 7996 7995 ] final   -6.28 input   59.86 | X-H torsion
[ 10167 10162 10161 10158 ] final   -0.83 input  -65.29 | X-H torsion
[ 10718 10713 10712 10709 ] final  -50.70 input   66.30 | X-H torsion
[ 10763 10752 10751 10750 ] final  168.39 input  -60.55 | X-H torsion
[ 11005 11000 10999 10996 ] final  -74.79 input  -57.11 | X-H torsion

> <Gold.Protein.ActiveResidues>
 VAL166  LYS551  ARG553  GLY616  TRP617  ASP618  TYR619  PRO620  LYS621  CYS622 
 ASP623  PHE694  ASN695  SER759  ASP760  ASP761  ALA762  ILE779  LEU786  VAL792 
 PHE793  MET794  SER795  GLU796  ALA797  LYS798  CYS799  TRP800  GLU811  SER814 

> <Gold.Protein.RotatedAtoms>
  152.1616  134.8908  160.0540 H   0  0  0  0  0  0  0  0  0  0  0  0  # atno 6907 bound_to 6896
  151.9901  133.3783  159.4149 H   0  0  0  0  0  0  0  0  0  0  0  0  # atno 6908 bound_to 6896
  150.6888  134.3868  159.5102 H   0  0  0  0  0  0  0  0  0  0  0  0  # atno 6909 bound_to 6896
  144.8068  140.5276  143.5669 H   0  0  0  0  0  0  0  0  0  0  0  0  # atno 7974 bound_to 7965
  154.5953  140.2437  155.7865 H   0  0  0  0  0  0  0  0  0  0  0  0  # atno 8008 bound_to 7997
  156.2275  140.2978  156.0057 H   0  0  0  0  0  0  0  0  0  0  0  0  # atno 8009 bound_to 7997
  155.2303  140.0403  157.2951 H   0  0  0  0  0  0  0  0  0  0  0  0  # atno 8010 bound_to 7997
  140.6784  143.6847  150.8076 H   0  0  0  0  0  0  0  0  0  0  0  0  # atno 10167 bound_to 10162
  156.1776  130.4150  149.9553 H   0  0  0  0  0  0  0  0  0  0  0  0  # atno 10718 bound_to 10713
  154.3678  135.2753  155.2283 H   0  0  0  0  0  0  0  0  0  0  0  0  # atno 10763 bound_to 10752
  154.4444  135.5946  153.6153 H   0  0  0  0  0  0  0  0  0  0  0  0  # atno 10764 bound_to 10752
  152.9840  135.6026  154.3906 H   0  0  0  0  0  0  0  0  0  0  0  0  # atno 10765 bound_to 10752
  141.1639  133.6924  156.7419 H   0  0  0  0  0  0  0  0  0  0  0  0  # atno 11005 bound_to 11000
  145.5418  139.1475  143.3442 LP  0  0  0  0  0  0  0  0  0  0  0  0  # atno 17320 bound_to 7965
  146.2361  140.5558  142.8954 LP  0  0  0  0  0  0  0  0  0  0  0  0  # atno 17321 bound_to 7965
  140.0544  143.5217  152.2658 LP  0  0  0  0  0  0  0  0  0  0  0  0  # atno 17342 bound_to 10162
  139.6091  144.7604  151.2993 LP  0  0  0  0  0  0  0  0  0  0  0  0  # atno 17343 bound_to 10162
  156.7334  130.9052  151.3627 LP  0  0  0  0  0  0  0  0  0  0  0  0  # atno 17370 bound_to 10713
  157.6846  130.9173  150.0355 LP  0  0  0  0  0  0  0  0  0  0  0  0  # atno 17371 bound_to 10713
  140.2668  134.8423  157.3810 LP  0  0  0  0  0  0  0  0  0  0  0  0  # atno 17394 bound_to 11000
  140.1559  134.4791  155.7928 LP  0  0  0  0  0  0  0  0  0  0  0  0  # atno 17395 bound_to 11000

$$$$
