AV-unprocessed.smi:1567|AV-procd|sdf|6306|dock1
  -GOLD-   22720 6503D 1   1.00000     0.00000
 Structure written by MMmdl.
 42 44  0  0  0  0  0  0  0  0  1 V2000
  156.1095  139.8852  159.0592 O   0  0  0  0  0  0  0  0  0  0  0  0
  155.4502  139.9894  160.3031 C   0  0  0  0  0  0  0  0  0  0  0  0
  154.1660  139.1482  160.3064 C   0  0  0  0  0  0  0  0  0  0  0  0
  153.1733  139.5445  159.2006 C   0  0  0  0  0  0  0  0  0  0  0  0
  152.7335  140.9781  159.3042 C   0  0  0  0  0  0  0  0  0  0  0  0
  153.0823  141.7175  160.3587 N   0  0  0  0  0  0  0  0  0  0  0  0
  152.5015  142.9388  160.0877 C   0  0  0  0  0  0  0  0  0  0  0  0
  152.5180  144.1463  160.8216 C   0  0  0  0  0  0  0  0  0  0  0  0
  151.8371  145.2833  160.3395 C   0  0  0  0  0  0  0  0  0  0  0  0
  151.1303  145.2278  159.1209 C   0  0  0  0  0  0  0  0  0  0  0  0
  151.1008  144.0334  158.3755 C   0  0  0  0  0  0  0  0  0  0  0  0
  151.7849  142.9018  158.8597 C   0  0  0  0  0  0  0  0  0  0  0  0
  151.9500  141.6041  158.3829 N   0  0  0  0  0  0  0  0  0  0  0  0
  151.3601  141.0905  157.1508 C   0  0  0  0  0  0  0  0  0  0  0  0
  149.8486  140.8166  157.2803 C   0  0  2  0  0  0  0  0  0  0  0  0
  149.6870  139.5530  157.8922 O   0  0  0  0  0  0  0  0  0  0  0  0
  149.1111  140.9038  155.9498 C   0  0  0  0  0  0  0  0  0  0  0  0
  148.0461  141.8177  155.7873 C   0  0  0  0  0  0  0  0  0  0  0  0
  147.3688  141.9115  154.5564 C   0  0  0  0  0  0  0  0  0  0  0  0
  146.3469  142.7876  154.4114 F   0  0  0  0  0  0  0  0  0  0  0  0
  147.7518  141.0920  153.4780 C   0  0  0  0  0  0  0  0  0  0  0  0
  148.8080  140.1742  153.6345 C   0  0  0  0  0  0  0  0  0  0  0  0
  149.4846  140.0761  154.8662 C   0  0  0  0  0  0  0  0  0  0  0  0
  150.4927  139.1811  154.9999 F   0  0  0  0  0  0  0  0  0  0  0  0
  157.0145  140.1315  159.1752 H   0  0  0  0  0  0  0  0  0  0  0  0
  156.1274  139.6391  161.0824 H   0  0  0  0  0  0  0  0  0  0  0  0
  155.2315  141.0364  160.5143 H   0  0  0  0  0  0  0  0  0  0  0  0
  154.4162  138.0894  160.2282 H   0  0  0  0  0  0  0  0  0  0  0  0
  153.6795  139.2689  161.2728 H   0  0  0  0  0  0  0  0  0  0  0  0
  153.6272  139.3410  158.2346 H   0  0  0  0  0  0  0  0  0  0  0  0
  152.2860  138.9130  159.2542 H   0  0  0  0  0  0  0  0  0  0  0  0
  153.0551  144.1978  161.7571 H   0  0  0  0  0  0  0  0  0  0  0  0
  151.8565  146.2015  160.9080 H   0  0  0  0  0  0  0  0  0  0  0  0
  150.6104  146.1026  158.7591 H   0  0  0  0  0  0  0  0  0  0  0  0
  150.5596  143.9883  157.4422 H   0  0  0  0  0  0  0  0  0  0  0  0
  151.5748  141.7461  156.3101 H   0  0  0  0  0  0  0  0  0  0  0  0
  151.8736  140.1566  156.9180 H   0  0  0  0  0  0  0  0  0  0  0  0
  149.4181  141.5386  157.9743 H   0  0  0  0  0  0  0  0  0  0  0  0
  150.2583  139.5092  158.6438 H   0  0  0  0  0  0  0  0  0  0  0  0
  147.7442  142.4508  156.6088 H   0  0  0  0  0  0  0  0  0  0  0  0
  147.2326  141.1629  152.5335 H   0  0  0  0  0  0  0  0  0  0  0  0
  149.0974  139.5409  152.8091 H   0  0  0  0  0  0  0  0  0  0  0  0
  1  2  1  0  0  0  0
  1 25  1  0  0  0  0
  2  3  1  0  0  0  0
  2 26  1  0  0  0  0
  2 27  1  0  0  0  0
  3  4  1  0  0  0  0
  3 28  1  0  0  0  0
  3 29  1  0  0  0  0
  4  5  1  0  0  0  0
  4 30  1  0  0  0  0
  4 31  1  0  0  0  0
  5 13  1  0  0  0  0
  5  6  2  0  0  0  0
  6  7  1  0  0  0  0
  7 12  2  0  0  0  0
  7  8  1  0  0  0  0
  8  9  2  0  0  0  0
  8 32  1  0  0  0  0
  9 10  1  0  0  0  0
  9 33  1  0  0  0  0
 10 11  2  0  0  0  0
 10 34  1  0  0  0  0
 11 12  1  0  0  0  0
 11 35  1  0  0  0  0
 12 13  1  0  0  0  0
 13 14  1  0  0  0  0
 14 15  1  0  0  0  0
 14 36  1  0  0  0  0
 14 37  1  0  0  0  0
 15 16  1  0  0  0  0
 15 17  1  0  0  0  0
 15 38  1  0  0  0  0
 16 39  1  0  0  0  0
 17 23  1  0  0  0  0
 17 18  2  0  0  0  0
 18 19  1  0  0  0  0
 18 40  1  0  0  0  0
 19 20  1  0  0  0  0
 19 21  2  0  0  0  0
 21 22  1  0  0  0  0
 21 41  1  0  0  0  0
 22 23  2  0  0  0  0
 22 42  1  0  0  0  0
 23 24  1  0  0  0  0
M  END
> <s_m_source_file>
AV-unprocessed.smi

> <i_m_source_file_index>
1567

> <i_lp_mmshare_version>
43012

> <i_f3d_flags>
0

> <s_epik_input>
W09IXVtDSDJdW0NIMl1bQ0gyXWMobjEpbihjKGMxMilbY0hdW2NIXVtjSF1bY0hdMilbQ0gyXVtDQEhdKFtPSF0pYzNbY0hdYyhGKVtjSF1bY0hdYzNG

> <s_epik_cmdline>
J2VwaWtfcHl0aG9uJywgJy1waCcsICc3LjAnLCAnLXRuJywgJzgnLCAnLW1hJywgJzIwMCcsICctbWV0YWxfYmluZGluZycsICctaW1hZScsICc8aW5maWxlLm1hZT4nLCAnLW9tYWUnLCAnPG91dGZpbGUubWFlPic=

> <r_epik_Ionization_Penalty>
0.182562

> <r_epik_Ionization_Penalty_Charging>
0

> <r_epik_Ionization_Penalty_Neutral>
0.182562

> <r_epik_State_Penalty>
0.172086

> <r_epik_Charging_Adjusted_Penalty>
0.172086

> <i_epik_Tot_Q>
0

> <i_epik_Tot_abs_Q>
0

> <r_epik_Metal_State_Penalty>
0.000199649

> <b_epik_Metal_Only>
0

> <s_lp_Force_Field>
OPLS_2005

> <r_lp_Energy>
11.8794

> <b_lp_Chiralities_Consistent>
1

> <s_lp_Variant>
AV-unprocessed.smi:1567-1

> <Gold.Version>
5.8.1

> <Gold.Id.Protein>
6NUR|6NUR_protein|mol2

> <Gold.PLP.Fitness>
51.2598

> <Gold.PLP.PLP>
-49.2343

> <Gold.PLP.part.hbond>
-1.0000

> <Gold.PLP.part.metal>
0.0000

> <Gold.PLP.part.buried>
-2.2533

> <Gold.PLP.part.nonpolar>
-45.8785

> <Gold.PLP.part.repulsive>
0.0000

> <Gold.PLP.ligand.clash>
0.0000

> <Gold.PLP.ligand.torsion>
0.5148

> <Gold.PLP.Chemscore.Hbond>
1.0000

> <Gold.PLP.Chemscore.CHOScore>
0.0000

> <Gold.PLP.Chemscore.Metal>
0.0000

> <Gold.Chemscore.Hbonds>
donor molecule, donor type, donor heavy atom, donor atom, acceptor molecule, acceptor atom, score
      P1  H  7997  8009       L1     1  1.00

> <Gold.PLP.Chemscore.Internal.Correction>
0.0552

> <Gold.Rescore>
     Score         DG    S(hbond)    S(metal)    S(lipo)     H(rot)  DE(clash)    DE(int)     intcor
     13.33     -15.62       0.96        0.00     129.87       3.23       0.56       1.73       ----

> <Gold.Chemscore.Fitness>
13.3313

> <Gold.Chemscore.DG>
-15.6213

> <Gold.Chemscore.ZeroCoef>
-5.4800

> <Gold.Chemscore.Hbond>
0.9614

> <Gold.Chemscore.Metal>
0.0000

> <Gold.Chemscore.Lipo>
129.8651

> <Gold.Chemscore.Internal_Hbond>
0.0000

> <Gold.Chemscore.DEClash>
0.5628

> <Gold.Chemscore.DEInternal>
1.7272

> <Gold.Chemscore.Rot>
3.2281

> <Gold.Chemscore.Internal.Correction>
   9.000000E+99

> <Gold.Chemscore.Hbonds>
donor molecule, donor type, donor heavy atom, donor atom, acceptor molecule, acceptor atom, score
      P1  H  7997  8009       L1     1  0.74

> <Gold.Chemscore.Hbond.Weighted>
-3.2109

> <Gold.Chemscore.Metal.Weighted>
-0.0000

> <Gold.Chemscore.Lipo.Weighted>
-15.1942

> <Gold.Chemscore.Internal_Hbond.Weighted>
0.0000

> <Gold.Chemscore.DEClash.Weighted>
0.5628

> <Gold.Chemscore.DEInternal.Weighted>
1.7272

> <Gold.Chemscore.Rot.Weighted>
8.2639

> <Gold.Chemscore.Internal.Correction.Weighted>
   9.000000E+99

> <Gold.Protein.RotatedTorsions>
[ 6907 6896 6895 6894 ] final  -54.05 input  -60.11 | X-H torsion
[ 7974 7965 7964 7962 ] final  -81.31 input  175.53 | X-H torsion
[ 8008 7997 7996 7995 ] final   90.70 input   59.86 | X-H torsion
[ 10167 10162 10161 10158 ] final  177.34 input  -65.29 | X-H torsion
[ 10718 10713 10712 10709 ] final   37.20 input   66.30 | X-H torsion
[ 10763 10752 10751 10750 ] final   12.91 input  -60.55 | X-H torsion
[ 11005 11000 10999 10996 ] final  150.97 input  -57.11 | X-H torsion

> <Gold.Protein.ActiveResidues>
 VAL166  LYS551  ARG553  GLY616  TRP617  ASP618  TYR619  PRO620  LYS621  CYS622 
 ASP623  PHE694  ASN695  SER759  ASP760  ASP761  ALA762  ILE779  LEU786  VAL792 
 PHE793  MET794  SER795  GLU796  ALA797  LYS798  CYS799  TRP800  GLU811  SER814 

> <Gold.Protein.RotatedAtoms>
  150.8372  134.7650  159.6902 H   0  0  0  0  0  0  0  0  0  0  0  0  # atno 6907 bound_to 6896
  152.4466  134.5478  159.9867 H   0  0  0  0  0  0  0  0  0  0  0  0  # atno 6908 bound_to 6896
  151.5625  133.3363  159.3010 H   0  0  0  0  0  0  0  0  0  0  0  0  # atno 6909 bound_to 6896
  145.5483  140.9500  143.1513 H   0  0  0  0  0  0  0  0  0  0  0  0  # atno 7974 bound_to 7965
  156.0151  140.3346  155.6981 H   0  0  0  0  0  0  0  0  0  0  0  0  # atno 8008 bound_to 7997
  155.6102  140.0664  157.2726 H   0  0  0  0  0  0  0  0  0  0  0  0  # atno 8009 bound_to 7997
  154.4295  140.1795  156.1252 H   0  0  0  0  0  0  0  0  0  0  0  0  # atno 8010 bound_to 7997
  139.5249  144.2809  152.0547 H   0  0  0  0  0  0  0  0  0  0  0  0  # atno 10167 bound_to 10162
  157.3441  130.7563  149.6932 H   0  0  0  0  0  0  0  0  0  0  0  0  # atno 10718 bound_to 10713
  153.1774  135.6822  153.8524 H   0  0  0  0  0  0  0  0  0  0  0  0  # atno 10763 bound_to 10752
  153.7867  135.3174  155.3374 H   0  0  0  0  0  0  0  0  0  0  0  0  # atno 10764 bound_to 10752
  154.8038  135.4761  154.0434 H   0  0  0  0  0  0  0  0  0  0  0  0  # atno 10765 bound_to 10752
  140.1178  134.8883  157.2029 H   0  0  0  0  0  0  0  0  0  0  0  0  # atno 11005 bound_to 11000
  144.7542  139.7117  143.7261 LP  0  0  0  0  0  0  0  0  0  0  0  0  # atno 17320 bound_to 7965
  146.1934  139.5187  142.9790 LP  0  0  0  0  0  0  0  0  0  0  0  0  # atno 17321 bound_to 7965
  140.2265  144.4413  150.6319 LP  0  0  0  0  0  0  0  0  0  0  0  0  # atno 17342 bound_to 10162
  140.6384  143.2199  151.6344 LP  0  0  0  0  0  0  0  0  0  0  0  0  # atno 17343 bound_to 10162
  155.9712  130.4159  150.4206 LP  0  0  0  0  0  0  0  0  0  0  0  0  # atno 17370 bound_to 10713
  157.2258  131.0493  151.2520 LP  0  0  0  0  0  0  0  0  0  0  0  0  # atno 17371 bound_to 10713
  140.3005  134.3137  155.7291 LP  0  0  0  0  0  0  0  0  0  0  0  0  # atno 17394 bound_to 11000
  141.2145  133.7589  156.9634 LP  0  0  0  0  0  0  0  0  0  0  0  0  # atno 17395 bound_to 11000

$$$$
