AV-unprocessed.smi:753|AV-procd|sdf|3605|dock10
  -GOLD-   22720 1 03D 1   1.00000     0.00000
 Structure written by MMmdl.
 44 46  0  0  0  0  0  0  0  0  2 V2000
  145.8338  150.1425  156.7663 C   0  0  0  0  0  0  0  0  0  0  0  0
  145.5465  148.9278  157.6230 C   0  0  0  0  0  0  0  0  0  0  0  0
  145.8295  148.8979  159.0053 C   0  0  0  0  0  0  0  0  0  0  0  0
  145.5421  147.7304  159.7420 C   0  0  0  0  0  0  0  0  0  0  0  0
  144.9762  146.6168  159.0825 C   0  0  0  0  0  0  0  0  0  0  0  0
  144.6870  145.3305  159.8365 C   0  0  0  0  0  0  0  0  0  0  0  0
  145.3926  144.0948  159.2443 C   0  0  0  0  0  0  0  0  0  0  0  0
  146.8007  144.3433  158.9441 N   0  0  0  0  0  0  0  0  0  0  0  0
  147.8316  144.1228  159.7791 C   0  0  0  0  0  0  0  0  0  0  0  0
  147.7018  143.6641  160.9125 O   0  0  0  0  0  0  0  0  0  0  0  0
  149.0387  144.4294  159.2731 N   0  0  0  0  0  0  0  0  0  0  0  0
  150.3448  144.3044  159.9253 C   0  0  2  0  0  0  0  0  0  0  0  0
  151.2749  145.4761  159.5389 C   0  0  0  0  0  0  0  0  0  0  0  0
  152.4913  144.7662  158.9164 C   0  0  2  0  0  0  0  0  0  0  0  0
  152.1032  144.1840  157.5439 C   0  0  0  0  0  0  0  0  0  0  0  0
  151.2203  142.9797  157.9217 C   0  0  0  0  0  0  0  0  0  0  0  0
  151.1653  143.0723  159.4622 C   0  0  1  0  0  0  0  0  0  0  0  0
  152.5908  143.5134  159.7764 C   0  0  0  0  0  0  0  0  0  0  0  0
  144.7061  146.7082  157.7005 C   0  0  0  0  0  0  0  0  0  0  0  0
  144.9989  147.8434  157.0297 N   0  3  0  0  0  0  0  0  0  0  0  0
  146.5628  150.7953  157.2474 H   0  0  0  0  0  0  0  0  0  0  0  0
  144.9194  150.7125  156.6009 H   0  0  0  0  0  0  0  0  0  0  0  0
  146.2349  149.8453  155.7967 H   0  0  0  0  0  0  0  0  0  0  0  0
  146.2663  149.7554  159.4961 H   0  0  0  0  0  0  0  0  0  0  0  0
  145.7652  147.6895  160.7982 H   0  0  0  0  0  0  0  0  0  0  0  0
  144.9767  145.4518  160.8813 H   0  0  0  0  0  0  0  0  0  0  0  0
  143.6088  145.1673  159.8394 H   0  0  0  0  0  0  0  0  0  0  0  0
  145.3429  143.2731  159.9591 H   0  0  0  0  0  0  0  0  0  0  0  0
  144.8669  143.7503  158.3521 H   0  0  0  0  0  0  0  0  0  0  0  0
  147.0091  144.7231  158.0321 H   0  0  0  0  0  0  0  0  0  0  0  0
  149.0561  144.7637  158.3204 H   0  0  0  0  0  0  0  0  0  0  0  0
  150.2218  144.2927  161.0099 H   0  0  0  0  0  0  0  0  0  0  0  0
  150.8176  146.1831  158.8451 H   0  0  0  0  0  0  0  0  0  0  0  0
  151.5703  146.0349  160.4278 H   0  0  0  0  0  0  0  0  0  0  0  0
  153.3905  145.3825  158.8921 H   0  0  0  0  0  0  0  0  0  0  0  0
  151.5737  144.9087  156.9244 H   0  0  0  0  0  0  0  0  0  0  0  0
  152.9855  143.8545  156.9937 H   0  0  0  0  0  0  0  0  0  0  0  0
  150.2407  143.0091  157.4445 H   0  0  0  0  0  0  0  0  0  0  0  0
  151.7000  142.0496  157.6143 H   0  0  0  0  0  0  0  0  0  0  0  0
  150.8635  142.1403  159.9412 H   0  0  0  0  0  0  0  0  0  0  0  0
  153.3504  142.8099  159.4309 H   0  0  0  0  0  0  0  0  0  0  0  0
  152.7554  143.7262  160.8342 H   0  0  0  0  0  0  0  0  0  0  0  0
  144.2832  145.9072  157.1120 H   0  0  0  0  0  0  0  0  0  0  0  0
  144.8026  147.8816  156.0293 H   0  0  0  0  0  0  0  0  0  0  0  0
  1  2  1  0  0  0  0
  1 21  1  0  0  0  0
  1 22  1  0  0  0  0
  1 23  1  0  0  0  0
  2 20  1  0  0  0  0
  2  3  2  0  0  0  0
  3  4  1  0  0  0  0
  3 24  1  0  0  0  0
  4  5  2  0  0  0  0
  4 25  1  0  0  0  0
  5  6  1  0  0  0  0
  5 19  1  0  0  0  0
  6  7  1  0  0  0  0
  6 26  1  0  0  0  0
  6 27  1  0  0  0  0
  7  8  1  0  0  0  0
  7 28  1  0  0  0  0
  7 29  1  0  0  0  0
  8  9  1  0  0  0  0
  8 30  1  0  0  0  0
  9 10  2  0  0  0  0
  9 11  1  0  0  0  0
 11 12  1  0  0  0  0
 11 31  1  0  0  0  0
 12 17  1  0  0  0  0
 12 13  1  0  0  0  0
 12 32  1  0  0  0  0
 13 14  1  0  0  0  0
 13 33  1  0  0  0  0
 13 34  1  0  0  0  0
 14 18  1  0  0  0  0
 14 15  1  0  0  0  0
 14 35  1  0  0  0  0
 15 16  1  0  0  0  0
 15 36  1  0  0  0  0
 15 37  1  0  0  0  0
 16 17  1  0  0  0  0
 16 38  1  0  0  0  0
 16 39  1  0  0  0  0
 17 18  1  0  0  0  0
 17 40  1  0  0  0  0
 18 41  1  0  0  0  0
 18 42  1  0  0  0  0
 19 20  2  0  0  0  0
 19 43  1  0  0  0  0
 20 44  1  0  0  0  0
M  CHG  1  20   1
M  END
> <s_m_source_file>
AV-unprocessed.smi

> <i_m_source_file_index>
753

> <i_lp_mmshare_version>
43012

> <i_f3d_flags>
0

> <s_epik_input>
W0NIM11jMVtjSF1bY0hdYyhbY0hdbjEpW0NIMl1bQ0gyXVtOSF1DKD1PKVtOSF1bQ0BIXShbQ0gyXVtDQEBIXTIzKVtDQEBIXShbQ0gyXTMpW0NIMl1bQ0gyXTI=

> <s_epik_cmdline>
J2VwaWtfcHl0aG9uJywgJy1waCcsICc3LjAnLCAnLXRuJywgJzgnLCAnLW1hJywgJzIwMCcsICctbWV0YWxfYmluZGluZycsICctaW1hZScsICc8aW5maWxlLm1hZT4nLCAnLW9tYWUnLCAnPG91dGZpbGUubWFlPic=

> <r_epik_Ionization_Penalty>
1.41708

> <r_epik_Ionization_Penalty_Charging>
1.41702

> <r_epik_Ionization_Penalty_Neutral>
5.73163e-05

> <r_epik_State_Penalty>
1.50048

> <r_epik_Charging_Adjusted_Penalty>
2.9175

> <i_epik_Tot_Q>
1

> <i_epik_Tot_abs_Q>
1

> <r_epik_Metal_State_Penalty>
1.55295

> <b_epik_Metal_Only>
0

> <s_lp_Force_Field>
OPLS_2005

> <r_lp_Energy>
59.6045

> <b_lp_Chiralities_Consistent>
1

> <s_lp_Variant>
AV-unprocessed.smi:753-7

> <Gold.Version>
5.8.1

> <Gold.Id.Protein>
6NUR|6NUR_protein|mol2

> <Gold.PLP.Fitness>
50.5323

> <Gold.PLP.PLP>
-43.2000

> <Gold.PLP.part.hbond>
-2.8559

> <Gold.PLP.part.metal>
0.0000

> <Gold.PLP.part.buried>
-3.4226

> <Gold.PLP.part.nonpolar>
-37.2218

> <Gold.PLP.part.repulsive>
0.4008

> <Gold.PLP.ligand.clash>
0.0000

> <Gold.PLP.ligand.torsion>
0.5219

> <Gold.PLP.Chemscore.Hbond>
2.7840

> <Gold.PLP.Chemscore.CHOScore>
0.0000

> <Gold.PLP.Chemscore.Metal>
0.0000

> <Gold.Chemscore.Hbonds>
donor molecule, donor type, donor heavy atom, donor atom, acceptor molecule, acceptor atom, score
      L1  H     8    30       P1  8029  0.86
      L1  H    11    31       P1  8029  0.69
      P1  H  6933  6944       L1    10  1.00

> <Gold.PLP.Chemscore.Internal.Correction>
0.0241

> <Gold.Rescore>
     Score         DG    S(hbond)    S(metal)    S(lipo)     H(rot)  DE(clash)    DE(int)     intcor
     25.09     -26.14       2.55        0.00     136.76       1.50       0.50       0.55       ----

> <Gold.Chemscore.Fitness>
25.0878

> <Gold.Chemscore.DG>
-26.1393

> <Gold.Chemscore.ZeroCoef>
-5.4800

> <Gold.Chemscore.Hbond>
2.5464

> <Gold.Chemscore.Metal>
0.0000

> <Gold.Chemscore.Lipo>
136.7604

> <Gold.Chemscore.Internal_Hbond>
0.0000

> <Gold.Chemscore.DEClash>
0.5008

> <Gold.Chemscore.DEInternal>
0.5506

> <Gold.Chemscore.Rot>
1.5027

> <Gold.Chemscore.Internal.Correction>
   9.000000E+99

> <Gold.Chemscore.Hbonds>
donor molecule, donor type, donor heavy atom, donor atom, acceptor molecule, acceptor atom, score
      L1  H     8    30       P1  8029  0.59
      L1  H    11    31       P1  8029  0.38
      P1  H  6933  6944       L1    10  0.99

> <Gold.Chemscore.Hbond.Weighted>
-8.5051

> <Gold.Chemscore.Metal.Weighted>
-0.0000

> <Gold.Chemscore.Lipo.Weighted>
-16.0010

> <Gold.Chemscore.Internal_Hbond.Weighted>
0.0000

> <Gold.Chemscore.DEClash.Weighted>
0.5008

> <Gold.Chemscore.DEInternal.Weighted>
0.5506

> <Gold.Chemscore.Rot.Weighted>
3.8468

> <Gold.Chemscore.Internal.Correction.Weighted>
   9.000000E+99

> <Gold.Protein.RotatedTorsions>
[ 6907 6896 6895 6894 ] final   40.44 input  -60.11 | X-H torsion
[ 7974 7965 7964 7962 ] final   49.45 input  175.53 | X-H torsion
[ 8008 7997 7996 7995 ] final   62.32 input   59.86 | X-H torsion
[ 10167 10162 10161 10158 ] final -165.57 input  -65.29 | X-H torsion
[ 10718 10713 10712 10709 ] final  169.14 input   66.30 | X-H torsion
[ 10763 10752 10751 10750 ] final   39.81 input  -60.55 | X-H torsion
[ 11005 11000 10999 10996 ] final  -67.47 input  -57.11 | X-H torsion

> <Gold.Protein.ActiveResidues>
 VAL166  LYS551  ARG553  GLY616  TRP617  ASP618  TYR619  PRO620  LYS621  CYS622 
 ASP623  PHE694  ASN695  SER759  ASP760  ASP761  ALA762  ILE779  LEU786  VAL792 
 PHE793  MET794  SER795  GLU796  ALA797  LYS798  CYS799  TRP800  GLU811  SER814 

> <Gold.Protein.RotatedAtoms>
  152.1825  134.8742  160.0524 H   0  0  0  0  0  0  0  0  0  0  0  0  # atno 6907 bound_to 6896
  151.9660  133.3705  159.4061 H   0  0  0  0  0  0  0  0  0  0  0  0  # atno 6908 bound_to 6896
  150.6920  134.4113  159.5207 H   0  0  0  0  0  0  0  0  0  0  0  0  # atno 6909 bound_to 6896
  146.0107  139.4540  142.9958 H   0  0  0  0  0  0  0  0  0  0  0  0  # atno 7974 bound_to 7965
  155.6125  140.3495  155.4627 H   0  0  0  0  0  0  0  0  0  0  0  0  # atno 8008 bound_to 7997
  156.0143  140.1240  157.0447 H   0  0  0  0  0  0  0  0  0  0  0  0  # atno 8009 bound_to 7997
  154.4292  140.1075  156.5859 H   0  0  0  0  0  0  0  0  0  0  0  0  # atno 8010 bound_to 7997
  139.6173  144.0694  152.1900 H   0  0  0  0  0  0  0  0  0  0  0  0  # atno 10167 bound_to 10162
  157.0269  131.0248  151.2757 H   0  0  0  0  0  0  0  0  0  0  0  0  # atno 10718 bound_to 10713
  152.9955  135.6210  154.2525 H   0  0  0  0  0  0  0  0  0  0  0  0  # atno 10763 bound_to 10752
  154.2263  135.2794  155.2908 H   0  0  0  0  0  0  0  0  0  0  0  0  # atno 10764 bound_to 10752
  154.5487  135.5740  153.6961 H   0  0  0  0  0  0  0  0  0  0  0  0  # atno 10765 bound_to 10752
  141.1509  133.6720  156.6298 H   0  0  0  0  0  0  0  0  0  0  0  0  # atno 11005 bound_to 11000
  145.7346  141.0030  143.1333 LP  0  0  0  0  0  0  0  0  0  0  0  0  # atno 17320 bound_to 7965
  144.6952  139.9025  143.7459 LP  0  0  0  0  0  0  0  0  0  0  0  0  # atno 17321 bound_to 7965
  140.0327  144.6068  150.7474 LP  0  0  0  0  0  0  0  0  0  0  0  0  # atno 17342 bound_to 10162
  140.7359  143.2747  151.3780 LP  0  0  0  0  0  0  0  0  0  0  0  0  # atno 17343 bound_to 10162
  157.5207  130.7996  149.7806 LP  0  0  0  0  0  0  0  0  0  0  0  0  # atno 17370 bound_to 10713
  156.0083  130.3845  150.2354 LP  0  0  0  0  0  0  0  0  0  0  0  0  # atno 17371 bound_to 10713
  140.3475  134.7796  157.4443 LP  0  0  0  0  0  0  0  0  0  0  0  0  # atno 17394 bound_to 11000
  140.0887  134.5630  155.8466 LP  0  0  0  0  0  0  0  0  0  0  0  0  # atno 17395 bound_to 11000

$$$$
