AV-unprocessed.smi:3314|AV-procd|sdf|12744|dock5
  -GOLD-   2272019 83D 1   1.00000     0.00000
 Structure written by MMmdl.
 37 38  0  0  0  0  0  0  0  0  3 V2000
  154.0269  141.3518  162.2200 C   0  0  0  0  0  0  0  0  0  0  0  0
  153.3366  141.7033  160.9193 C   0  0  0  0  0  0  0  0  0  0  0  0
  152.7186  142.9558  160.7435 C   0  0  0  0  0  0  0  0  0  0  0  0
  152.0981  143.2210  159.5073 C   0  0  0  0  0  0  0  0  0  0  0  0
  151.4142  144.5483  159.2562 C   0  0  0  0  0  0  0  0  0  0  0  0
  152.0650  142.3312  158.4916 N   0  0  0  0  0  0  0  0  0  0  0  0
  152.6500  141.1201  158.6509 C   0  0  0  0  0  0  0  0  0  0  0  0
  152.6173  140.2505  157.6311 N   0  5  0  0  0  0  0  0  0  0  0  0
  151.6312  140.3299  156.7051 C   0  0  0  0  0  0  0  0  0  0  0  0
  150.5577  140.9319  156.7774 O   0  0  0  0  0  0  0  0  0  0  0  0
  151.9888  139.5383  155.4267 C   0  0  1  0  0  0  0  0  0  0  0  0
  152.2006  138.0224  155.6538 C   0  0  0  0  0  0  0  0  0  0  0  0
  150.9193  137.3478  155.9709 N   0  3  2  0  0  0  0  0  0  0  0  0
  151.0877  135.9099  156.2672 C   0  0  0  0  0  0  0  0  0  0  0  0
  149.9145  137.6011  154.9139 C   0  0  0  0  0  0  0  0  0  0  0  0
  149.7318  139.1126  154.7013 C   0  0  0  0  0  0  0  0  0  0  0  0
  150.9939  139.7113  154.4094 O   0  0  0  0  0  0  0  0  0  0  0  0
  153.3033  140.7774  159.8574 C   0  0  0  0  0  0  0  0  0  0  0  0
  153.8436  142.1088  162.9832 H   0  0  0  0  0  0  0  0  0  0  0  0
  155.1031  141.2742  162.0656 H   0  0  0  0  0  0  0  0  0  0  0  0
  153.6627  140.3951  162.5952 H   0  0  0  0  0  0  0  0  0  0  0  0
  152.7204  143.6936  161.5324 H   0  0  0  0  0  0  0  0  0  0  0  0
  151.9065  145.3474  159.8111 H   0  0  0  0  0  0  0  0  0  0  0  0
  150.3729  144.4999  159.5744 H   0  0  0  0  0  0  0  0  0  0  0  0
  151.4385  144.8081  158.1971 H   0  0  0  0  0  0  0  0  0  0  0  0
  152.9208  139.9569  155.0442 H   0  0  0  0  0  0  0  0  0  0  0  0
  152.6318  137.5747  154.7570 H   0  0  0  0  0  0  0  0  0  0  0  0
  152.9181  137.8544  156.4586 H   0  0  0  0  0  0  0  0  0  0  0  0
  151.4732  135.3738  155.3989 H   0  0  0  0  0  0  0  0  0  0  0  0
  150.1346  135.4630  156.5508 H   0  0  0  0  0  0  0  0  0  0  0  0
  151.7821  135.7677  157.0959 H   0  0  0  0  0  0  0  0  0  0  0  0
  150.2345  137.1287  153.9838 H   0  0  0  0  0  0  0  0  0  0  0  0
  148.9620  137.1490  155.1928 H   0  0  0  0  0  0  0  0  0  0  0  0
  149.0596  139.2919  153.8622 H   0  0  0  0  0  0  0  0  0  0  0  0
  149.2663  139.5750  155.5727 H   0  0  0  0  0  0  0  0  0  0  0  0
  153.7724  139.8102  159.9682 H   0  0  0  0  0  0  0  0  0  0  0  0
  150.5707  137.7817  156.8146 H   0  0  0  0  0  0  0  0  0  0  0  0
  1  2  1  0  0  0  0
  1 19  1  0  0  0  0
  1 20  1  0  0  0  0
  1 21  1  0  0  0  0
  2 18  2  0  0  0  0
  2  3  1  0  0  0  0
  3  4  2  0  0  0  0
  3 22  1  0  0  0  0
  4  5  1  0  0  0  0
  4  6  1  0  0  0  0
  5 23  1  0  0  0  0
  5 24  1  0  0  0  0
  5 25  1  0  0  0  0
  6  7  2  0  0  0  0
  7  8  1  0  0  0  0
  7 18  1  0  0  0  0
  8  9  1  0  0  0  0
  9 10  2  0  0  0  0
  9 11  1  0  0  0  0
 11 17  1  0  0  0  0
 11 12  1  0  0  0  0
 11 26  1  0  0  0  0
 12 13  1  0  0  0  0
 12 27  1  0  0  0  0
 12 28  1  0  0  0  0
 13 14  1  0  0  0  0
 13 15  1  0  0  0  0
 13 37  1  0  0  0  0
 14 29  1  0  0  0  0
 14 30  1  0  0  0  0
 14 31  1  0  0  0  0
 15 16  1  0  0  0  0
 15 32  1  0  0  0  0
 15 33  1  0  0  0  0
 16 17  1  0  0  0  0
 16 34  1  0  0  0  0
 16 35  1  0  0  0  0
 18 36  1  0  0  0  0
M  CHG  1   8  -1
M  CHG  1  13   1
M  END
> <s_m_source_file>
AV-unprocessed.smi

> <i_m_source_file_index>
3314

> <i_lp_mmshare_version>
43012

> <i_f3d_flags>
0

> <s_epik_input>
W0NIM11jMVtjSF1jKFtDSDNdKW5jKFtjSF0xKVtOSF1DKD1PKVtDQEBIXTJbQ0gyXU4oW0NIM10pW0NIMl1bQ0gyXU8y

> <s_epik_cmdline>
J2VwaWtfcHl0aG9uJywgJy1waCcsICc3LjAnLCAnLXRuJywgJzgnLCAnLW1hJywgJzIwMCcsICctbWV0YWxfYmluZGluZycsICctaW1hZScsICc8aW5maWxlLm1hZT4nLCAnLW9tYWUnLCAnPG91dGZpbGUubWFlPic=

> <r_epik_Ionization_Penalty>
13.8964

> <r_epik_Ionization_Penalty_Charging>
7.88995

> <r_epik_Ionization_Penalty_Neutral>
6.00641

> <r_epik_State_Penalty>
8.39989

> <r_epik_Charging_Adjusted_Penalty>
16.2898

> <i_epik_Tot_Q>
0

> <i_epik_Tot_abs_Q>
2

> <r_epik_Metal_State_Penalty>
4.31145

> <b_epik_Metal_Only>
1

> <s_lp_Force_Field>
OPLS_2005

> <r_lp_Energy>
7.08315

> <b_lp_Chiralities_Consistent>
1

> <s_lp_Variant>
AV-unprocessed.smi:3314-14

> <Gold.Version>
5.8.1

> <Gold.Id.Protein>
6NUR|6NUR_protein|mol2

> <Gold.PLP.Fitness>
45.7015

> <Gold.PLP.PLP>
-37.1253

> <Gold.PLP.part.hbond>
-2.0000

> <Gold.PLP.part.metal>
0.0000

> <Gold.PLP.part.buried>
-3.4598

> <Gold.PLP.part.nonpolar>
-31.4884

> <Gold.PLP.part.repulsive>
0.2079

> <Gold.PLP.ligand.clash>
0.0000

> <Gold.PLP.ligand.torsion>
0.2133

> <Gold.PLP.Chemscore.Hbond>
2.9840

> <Gold.PLP.Chemscore.CHOScore>
0.0000

> <Gold.PLP.Chemscore.Metal>
0.0000

> <Gold.Chemscore.Hbonds>
donor molecule, donor type, donor heavy atom, donor atom, acceptor molecule, acceptor atom, score
      P1  H  7989  7998       L1    17  1.00
      P1  H  7997  8010       L1     8  1.98

> <Gold.PLP.Chemscore.Internal.Correction>
0.0509

> <Gold.Rescore>
     Score         DG    S(hbond)    S(metal)    S(lipo)     H(rot)  DE(clash)    DE(int)     intcor
     15.37     -18.53       1.41        0.00      93.30       1.00       0.07       3.09       ----

> <Gold.Chemscore.Fitness>
15.3739

> <Gold.Chemscore.DG>
-18.5325

> <Gold.Chemscore.ZeroCoef>
-5.4800

> <Gold.Chemscore.Hbond>
1.4060

> <Gold.Chemscore.Metal>
0.0000

> <Gold.Chemscore.Lipo>
93.3028

> <Gold.Chemscore.Internal_Hbond>
0.0000

> <Gold.Chemscore.DEClash>
0.0650

> <Gold.Chemscore.DEInternal>
3.0935

> <Gold.Chemscore.Rot>
1.0000

> <Gold.Chemscore.Internal.Correction>
   9.000000E+99

> <Gold.Chemscore.Hbonds>
donor molecule, donor type, donor heavy atom, donor atom, acceptor molecule, acceptor atom, score
      P1  H  7989  7998       L1    17  0.34
      P1  H  7997  8010       L1     8  0.58

> <Gold.Chemscore.Hbond.Weighted>
-4.6960

> <Gold.Chemscore.Metal.Weighted>
-0.0000

> <Gold.Chemscore.Lipo.Weighted>
-10.9164

> <Gold.Chemscore.Internal_Hbond.Weighted>
0.0000

> <Gold.Chemscore.DEClash.Weighted>
0.0650

> <Gold.Chemscore.DEInternal.Weighted>
3.0935

> <Gold.Chemscore.Rot.Weighted>
2.5600

> <Gold.Chemscore.Internal.Correction.Weighted>
   9.000000E+99

> <Gold.Protein.RotatedTorsions>
[ 6907 6896 6895 6894 ] final -139.37 input  -60.11 | X-H torsion
[ 7974 7965 7964 7962 ] final -137.30 input  175.53 | X-H torsion
[ 8008 7997 7996 7995 ] final   51.33 input   59.86 | X-H torsion
[ 10167 10162 10161 10158 ] final  -73.15 input  -65.29 | X-H torsion
[ 10718 10713 10712 10709 ] final  -97.86 input   66.30 | X-H torsion
[ 10763 10752 10751 10750 ] final   26.22 input  -60.55 | X-H torsion
[ 11005 11000 10999 10996 ] final  176.05 input  -57.11 | X-H torsion

> <Gold.Protein.ActiveResidues>
 VAL166  LYS551  ARG553  GLY616  TRP617  ASP618  TYR619  PRO620  LYS621  CYS622 
 ASP623  PHE694  ASN695  SER759  ASP760  ASP761  ALA762  ILE779  LEU786  VAL792 
 PHE793  MET794  SER795  GLU796  ALA797  LYS798  CYS799  TRP800  GLU811  SER814 

> <Gold.Protein.RotatedAtoms>
  151.0470  133.5657  159.2645 H   0  0  0  0  0  0  0  0  0  0  0  0  # atno 6907 bound_to 6896
  151.2682  135.0675  159.9134 H   0  0  0  0  0  0  0  0  0  0  0  0  # atno 6908 bound_to 6896
  152.5375  134.0204  159.8033 H   0  0  0  0  0  0  0  0  0  0  0  0  # atno 6909 bound_to 6896
  144.8854  140.6567  143.5179 H   0  0  0  0  0  0  0  0  0  0  0  0  # atno 7974 bound_to 7965
  155.4335  140.3451  155.4282 H   0  0  0  0  0  0  0  0  0  0  0  0  # atno 8008 bound_to 7997
  156.1322  140.1517  156.9079 H   0  0  0  0  0  0  0  0  0  0  0  0  # atno 8009 bound_to 7997
  154.4904  140.0843  156.7561 H   0  0  0  0  0  0  0  0  0  0  0  0  # atno 8010 bound_to 7997
  140.5134  143.2341  151.7554 H   0  0  0  0  0  0  0  0  0  0  0  0  # atno 10167 bound_to 10162
  156.0093  130.5213  150.6437 H   0  0  0  0  0  0  0  0  0  0  0  0  # atno 10718 bound_to 10713
  153.0638  135.6565  154.0402 H   0  0  0  0  0  0  0  0  0  0  0  0  # atno 10763 bound_to 10752
  154.0064  135.2932  155.3398 H   0  0  0  0  0  0  0  0  0  0  0  0  # atno 10764 bound_to 10752
  154.6987  135.5253  153.8564 H   0  0  0  0  0  0  0  0  0  0  0  0  # atno 10765 bound_to 10752
  140.3689  134.7047  157.4379 H   0  0  0  0  0  0  0  0  0  0  0  0  # atno 11005 bound_to 11000
  145.3879  139.1623  143.4245 LP  0  0  0  0  0  0  0  0  0  0  0  0  # atno 17320 bound_to 7965
  146.3021  140.3965  142.8700 LP  0  0  0  0  0  0  0  0  0  0  0  0  # atno 17321 bound_to 7965
  139.4902  144.4358  151.9821 LP  0  0  0  0  0  0  0  0  0  0  0  0  # atno 17342 bound_to 10162
  140.3451  144.3156  150.5959 LP  0  0  0  0  0  0  0  0  0  0  0  0  # atno 17343 bound_to 10162
  157.4212  131.0837  151.1129 LP  0  0  0  0  0  0  0  0  0  0  0  0  # atno 17370 bound_to 10713
  157.1730  130.6276  149.5647 LP  0  0  0  0  0  0  0  0  0  0  0  0  # atno 17371 bound_to 10713
  140.0567  134.6053  155.8797 LP  0  0  0  0  0  0  0  0  0  0  0  0  # atno 17394 bound_to 11000
  141.1961  133.6590  156.5674 LP  0  0  0  0  0  0  0  0  0  0  0  0  # atno 17395 bound_to 11000

$$$$
