AV-unprocessed.smi:2648|AV-procd|sdf|10286|dock4
  -GOLD-   2272014303D 1   1.00000     0.00000
 Structure written by MMmdl.
 33 34  0  0  0  0  0  0  0  0  2 V2000
  145.1483  137.4229  153.8163 O   0  0  0  0  0  0  0  0  0  0  0  0
  146.1284  136.9743  153.2224 C   0  0  0  0  0  0  0  0  0  0  0  0
  147.3589  137.4964  153.3284 N   0  0  0  0  0  0  0  0  0  0  0  0
  147.7046  138.6492  154.1517 C   0  0  0  0  0  0  0  0  0  0  0  0
  149.1850  139.0369  153.9835 C   0  0  0  0  0  0  0  0  0  0  0  0
  149.5091  140.2410  154.7520 N   0  0  0  0  0  0  0  0  0  0  0  0
  150.5613  140.3486  155.5738 C   0  0  0  0  0  0  0  0  0  0  0  0
  151.4037  139.4888  155.8295 O   0  0  0  0  0  0  0  0  0  0  0  0
  150.5693  141.7431  156.1612 C   0  0  0  0  0  0  0  0  0  0  0  0
  149.3963  142.2806  155.5058 N   0  0  0  0  0  0  0  0  0  0  0  0
  148.8098  141.3890  154.6965 C   0  0  0  0  0  0  0  0  0  0  0  0
  147.8052  141.6001  154.0187 O   0  0  0  0  0  0  0  0  0  0  0  0
  146.1109  135.9288  152.3770 N   0  0  0  0  0  0  0  0  0  0  0  0
  145.0131  135.0974  152.0230 C   0  0  0  0  0  0  0  0  0  0  0  0
  145.1840  134.2146  150.9335 C   0  0  0  0  0  0  0  0  0  0  0  0
  144.1283  133.3583  150.5591 C   0  0  0  0  0  0  0  0  0  0  0  0
  142.9676  133.3806  151.2487 N   0  3  0  0  0  0  0  0  0  0  0  0
  142.7616  134.1965  152.3046 C   0  0  0  0  0  0  0  0  0  0  0  0
  143.7808  135.0751  152.7252 C   0  0  0  0  0  0  0  0  0  0  0  0
  148.1091  137.0716  152.8029 H   0  0  0  0  0  0  0  0  0  0  0  0
  147.0561  139.4914  153.9028 H   0  0  0  0  0  0  0  0  0  0  0  0
  147.4993  138.3996  155.1931 H   0  0  0  0  0  0  0  0  0  0  0  0
  149.8256  138.2104  154.2963 H   0  0  0  0  0  0  0  0  0  0  0  0
  149.4141  139.2036  152.9294 H   0  0  0  0  0  0  0  0  0  0  0  0
  150.4524  141.7246  157.2453 H   0  0  0  0  0  0  0  0  0  0  0  0
  151.4712  142.2910  155.8865 H   0  0  0  0  0  0  0  0  0  0  0  0
  149.0718  143.2264  155.6463 H   0  0  0  0  0  0  0  0  0  0  0  0
  146.9753  135.7372  151.8920 H   0  0  0  0  0  0  0  0  0  0  0  0
  146.1133  134.1946  150.3824 H   0  0  0  0  0  0  0  0  0  0  0  0
  144.1780  132.6602  149.7364 H   0  0  0  0  0  0  0  0  0  0  0  0
  141.7960  134.1187  152.7828 H   0  0  0  0  0  0  0  0  0  0  0  0
  143.6013  135.7034  153.5841 H   0  0  0  0  0  0  0  0  0  0  0  0
  142.2167  132.7515  150.9633 H   0  0  0  0  0  0  0  0  0  0  0  0
  1  2  2  0  0  0  0
  2  3  1  0  0  0  0
  2 13  1  0  0  0  0
  3  4  1  0  0  0  0
  3 20  1  0  0  0  0
  4  5  1  0  0  0  0
  4 21  1  0  0  0  0
  4 22  1  0  0  0  0
  5  6  1  0  0  0  0
  5 23  1  0  0  0  0
  5 24  1  0  0  0  0
  6 11  1  0  0  0  0
  6  7  1  0  0  0  0
  7  8  2  0  0  0  0
  7  9  1  0  0  0  0
  9 10  1  0  0  0  0
  9 25  1  0  0  0  0
  9 26  1  0  0  0  0
 10 11  1  0  0  0  0
 10 27  1  0  0  0  0
 11 12  2  0  0  0  0
 13 14  1  0  0  0  0
 13 28  1  0  0  0  0
 14 19  1  0  0  0  0
 14 15  2  0  0  0  0
 15 16  1  0  0  0  0
 15 29  1  0  0  0  0
 16 17  2  0  0  0  0
 16 30  1  0  0  0  0
 17 18  1  0  0  0  0
 17 33  1  0  0  0  0
 18 19  2  0  0  0  0
 18 31  1  0  0  0  0
 19 32  1  0  0  0  0
M  CHG  1  17   1
M  END
> <s_m_source_file>
AV-unprocessed.smi

> <i_m_source_file_index>
2648

> <i_lp_mmshare_version>
43012

> <i_f3d_flags>
0

> <s_epik_input>
W2NIXTFbY0hdbltjSF1bY0hdYzFbTkhdQyg9TylbTkhdW0NIMl1bQ0gyXU4yQyg9TylbQ0gyXVtOSF1DMj1P

> <s_epik_cmdline>
J2VwaWtfcHl0aG9uJywgJy1waCcsICc3LjAnLCAnLXRuJywgJzgnLCAnLW1hJywgJzIwMCcsICctbWV0YWxfYmluZGluZycsICctaW1hZScsICc8aW5maWxlLm1hZT4nLCAnLW9tYWUnLCAnPG91dGZpbGUubWFlPic=

> <r_lp_tautomer_probability>
1

> <r_epik_Ionization_Penalty>
1.05701

> <r_epik_Ionization_Penalty_Charging>
1.05694

> <r_epik_Ionization_Penalty_Neutral>
7.31213e-05

> <r_epik_State_Penalty>
1.11031

> <r_epik_Charging_Adjusted_Penalty>
2.16725

> <i_epik_Tot_Q>
1

> <i_epik_Tot_abs_Q>
1

> <r_epik_Metal_State_Penalty>
1.22924

> <b_epik_Metal_Only>
0

> <s_lp_Force_Field>
OPLS_2005

> <r_lp_Energy>
27.1091

> <b_lp_Chiralities_Consistent>
1

> <s_lp_Variant>
AV-unprocessed.smi:2648-2

> <Gold.Version>
5.8.1

> <Gold.Id.Protein>
6NUR|6NUR_protein|mol2

> <Gold.PLP.Fitness>
38.4962

> <Gold.PLP.PLP>
-30.2693

> <Gold.PLP.part.hbond>
-3.8632

> <Gold.PLP.part.metal>
0.0000

> <Gold.PLP.part.buried>
-5.4782

> <Gold.PLP.part.nonpolar>
-22.5296

> <Gold.PLP.part.repulsive>
0.4970

> <Gold.PLP.ligand.clash>
0.0000

> <Gold.PLP.ligand.torsion>
0.1370

> <Gold.PLP.Chemscore.Hbond>
2.8300

> <Gold.PLP.Chemscore.CHOScore>
0.0000

> <Gold.PLP.Chemscore.Metal>
0.0000

> <Gold.Chemscore.Hbonds>
donor molecule, donor type, donor heavy atom, donor atom, acceptor molecule, acceptor atom, score
      L1  H     3    20       P1  7948  0.96
      L1  H    10    27       P1  8028  0.93
      L1  H    13    28       P1  7948  0.88

> <Gold.PLP.Chemscore.Internal.Correction>
0.0109

> <Gold.Rescore>
     Score         DG    S(hbond)    S(metal)    S(lipo)     H(rot)  DE(clash)    DE(int)     intcor
     13.80     -15.06       2.85        0.00      43.57       1.96       0.00       1.25       ----

> <Gold.Chemscore.Fitness>
13.7996

> <Gold.Chemscore.DG>
-15.0573

> <Gold.Chemscore.ZeroCoef>
-5.4800

> <Gold.Chemscore.Hbond>
2.8471

> <Gold.Chemscore.Metal>
0.0000

> <Gold.Chemscore.Lipo>
43.5705

> <Gold.Chemscore.Internal_Hbond>
0.0000

> <Gold.Chemscore.DEClash>
0.0038

> <Gold.Chemscore.DEInternal>
1.2539

> <Gold.Chemscore.Rot>
1.9648

> <Gold.Chemscore.Internal.Correction>
   9.000000E+99

> <Gold.Chemscore.Hbonds>
donor molecule, donor type, donor heavy atom, donor atom, acceptor molecule, acceptor atom, score
      L1  H     3    20       P1  7948  0.91
      L1  H    10    27       P1  8028  0.89
      L1  H    13    28       P1  7948  0.82

> <Gold.Chemscore.Hbond.Weighted>
-9.5094

> <Gold.Chemscore.Metal.Weighted>
-0.0000

> <Gold.Chemscore.Lipo.Weighted>
-5.0977

> <Gold.Chemscore.Internal_Hbond.Weighted>
0.0000

> <Gold.Chemscore.DEClash.Weighted>
0.0038

> <Gold.Chemscore.DEInternal.Weighted>
1.2539

> <Gold.Chemscore.Rot.Weighted>
5.0299

> <Gold.Chemscore.Internal.Correction.Weighted>
   9.000000E+99

> <Gold.Protein.RotatedTorsions>
[ 6907 6896 6895 6894 ] final   22.92 input  -60.11 | X-H torsion
[ 7974 7965 7964 7962 ] final   88.54 input  175.53 | X-H torsion
[ 8008 7997 7996 7995 ] final  -77.50 input   59.86 | X-H torsion
[ 10167 10162 10161 10158 ] final -179.20 input  -65.29 | X-H torsion
[ 10718 10713 10712 10709 ] final  142.44 input   66.30 | X-H torsion
[ 10763 10752 10751 10750 ] final -132.94 input  -60.55 | X-H torsion
[ 11005 11000 10999 10996 ] final   44.33 input  -57.11 | X-H torsion

> <Gold.Protein.ActiveResidues>
 VAL166  LYS551  ARG553  GLY616  TRP617  ASP618  TYR619  PRO620  LYS621  CYS622 
 ASP623  PHE694  ASN695  SER759  ASP760  ASP761  ALA762  ILE779  LEU786  VAL792 
 PHE793  MET794  SER795  GLU796  ALA797  LYS798  CYS799  TRP800  GLU811  SER814 

> <Gold.Protein.RotatedAtoms>
  151.9345  135.0241  160.0531 H   0  0  0  0  0  0  0  0  0  0  0  0  # atno 6907 bound_to 6896
  152.2089  133.4892  159.5107 H   0  0  0  0  0  0  0  0  0  0  0  0  # atno 6908 bound_to 6896
  150.6971  134.1409  159.4147 H   0  0  0  0  0  0  0  0  0  0  0  0  # atno 6909 bound_to 6896
  145.5442  139.2291  143.2548 H   0  0  0  0  0  0  0  0  0  0  0  0  # atno 7974 bound_to 7965
  154.5602  140.0709  156.8807 H   0  0  0  0  0  0  0  0  0  0  0  0  # atno 8008 bound_to 7997
  155.2826  140.3372  155.4239 H   0  0  0  0  0  0  0  0  0  0  0  0  # atno 8009 bound_to 7997
  156.2036  140.1731  156.7833 H   0  0  0  0  0  0  0  0  0  0  0  0  # atno 8010 bound_to 7997
  139.5397  144.2397  152.0870 H   0  0  0  0  0  0  0  0  0  0  0  0  # atno 10167 bound_to 10162
  157.3805  131.0991  151.0743 H   0  0  0  0  0  0  0  0  0  0  0  0  # atno 10718 bound_to 10713
  154.8738  135.3782  154.4491 H   0  0  0  0  0  0  0  0  0  0  0  0  # atno 10763 bound_to 10752
  153.5169  135.7029  153.5757 H   0  0  0  0  0  0  0  0  0  0  0  0  # atno 10764 bound_to 10752
  153.4021  135.3945  155.1960 H   0  0  0  0  0  0  0  0  0  0  0  0  # atno 10765 bound_to 10752
  140.1561  134.4399  155.8348 H   0  0  0  0  0  0  0  0  0  0  0  0  # atno 11005 bound_to 11000
  146.1960  140.6263  142.9124 LP  0  0  0  0  0  0  0  0  0  0  0  0  # atno 17320 bound_to 7965
  144.7561  140.5311  143.6768 LP  0  0  0  0  0  0  0  0  0  0  0  0  # atno 17321 bound_to 7965
  140.1873  144.4786  150.6497 LP  0  0  0  0  0  0  0  0  0  0  0  0  # atno 17342 bound_to 10162
  140.6621  143.2255  151.5830 LP  0  0  0  0  0  0  0  0  0  0  0  0  # atno 17343 bound_to 10162
  157.1813  130.6311  149.5673 LP  0  0  0  0  0  0  0  0  0  0  0  0  # atno 17370 bound_to 10713
  155.9775  130.4752  150.6596 LP  0  0  0  0  0  0  0  0  0  0  0  0  # atno 17371 bound_to 10713
  141.2204  133.6893  156.7510 LP  0  0  0  0  0  0  0  0  0  0  0  0  # atno 17394 bound_to 11000
  140.2545  134.8515  157.3700 LP  0  0  0  0  0  0  0  0  0  0  0  0  # atno 17395 bound_to 11000

$$$$
