AV-unprocessed.smi:483|AV-procd|sdf|2685|dock1
  -GOLD-   2262023113D 1   1.00000     0.00000
 Structure written by MMmdl.
 44 44  0  0  0  0  0  0  0  0  1 V2000
  143.4041  133.4854  151.4519 C   0  0  0  0  0  0  0  0  0  0  0  0
  144.6497  132.5981  151.5457 C   0  0  0  0  0  0  0  0  0  0  0  0
  145.8646  133.2157  150.8343 C   0  0  0  0  0  0  0  0  0  0  0  0
  147.1148  132.8460  151.4872 N   0  0  0  0  0  0  0  0  0  0  0  0
  147.6213  133.4418  152.5776 C   0  0  0  0  0  0  0  0  0  0  0  0
  147.0637  134.3762  153.1559 O   0  0  0  0  0  0  0  0  0  0  0  0
  148.9521  132.8777  153.1018 C   0  0  2  0  0  0  0  0  0  0  0  0
  148.6651  131.5133  153.7506 C   0  0  0  0  0  0  0  0  0  0  0  0
  149.5156  133.7553  154.1268 N   0  0  0  0  0  0  0  0  0  0  0  0
  149.0185  133.9228  155.3623 C   0  0  0  0  0  0  0  0  0  0  0  0
  148.0105  133.3421  155.7676 O   0  0  0  0  0  0  0  0  0  0  0  0
  149.7985  134.8749  156.2802 C   0  0  0  0  0  0  0  0  0  0  0  0
  149.8225  136.2607  155.7896 N   0  0  0  0  0  0  0  0  0  0  0  0
  148.5815  136.7579  155.4411 N   0  0  0  0  0  0  0  0  0  0  0  0
  148.4426  137.9559  154.9760 C   0  0  0  0  0  0  0  0  0  0  0  0
  147.0442  138.3839  154.6197 C   0  0  0  0  0  0  0  0  0  0  0  0
  149.6144  138.8130  154.8235 C   0  0  0  0  0  0  0  0  0  0  0  0
  149.3920  140.2157  154.2744 C   0  0  0  0  0  0  0  0  0  0  0  0
  150.8273  138.3131  155.1682 C   0  0  0  0  0  0  0  0  0  0  0  0
  152.0290  139.0738  155.0452 C   0  0  0  0  0  0  0  0  0  0  0  0
  152.9928  139.7079  154.9476 N   0  0  0  0  0  0  0  0  0  0  0  0
  150.9930  136.9544  155.6892 C   0  0  0  0  0  0  0  0  0  0  0  0
  152.0797  136.4696  156.0091 O   0  0  0  0  0  0  0  0  0  0  0  0
  142.5587  133.0230  151.9619 H   0  0  0  0  0  0  0  0  0  0  0  0
  143.1162  133.6522  150.4136 H   0  0  0  0  0  0  0  0  0  0  0  0
  143.5792  134.4580  151.9125 H   0  0  0  0  0  0  0  0  0  0  0  0
  144.8834  132.4248  152.5970 H   0  0  0  0  0  0  0  0  0  0  0  0
  144.4284  131.6213  151.1137 H   0  0  0  0  0  0  0  0  0  0  0  0
  145.9072  132.8669  149.8022 H   0  0  0  0  0  0  0  0  0  0  0  0
  145.7716  134.3024  150.7907 H   0  0  0  0  0  0  0  0  0  0  0  0
  147.6369  132.0851  151.0769 H   0  0  0  0  0  0  0  0  0  0  0  0
  149.6619  132.7524  152.2815 H   0  0  0  0  0  0  0  0  0  0  0  0
  148.2504  130.8105  153.0269 H   0  0  0  0  0  0  0  0  0  0  0  0
  147.9581  131.5956  154.5778 H   0  0  0  0  0  0  0  0  0  0  0  0
  149.5805  131.0694  154.1434 H   0  0  0  0  0  0  0  0  0  0  0  0
  150.3548  134.2600  153.8806 H   0  0  0  0  0  0  0  0  0  0  0  0
  149.3439  134.8330  157.2716 H   0  0  0  0  0  0  0  0  0  0  0  0
  150.8183  134.5079  156.4121 H   0  0  0  0  0  0  0  0  0  0  0  0
  146.7003  139.1742  155.2872 H   0  0  0  0  0  0  0  0  0  0  0  0
  146.3354  137.5576  154.6930 H   0  0  0  0  0  0  0  0  0  0  0  0
  147.0017  138.7609  153.5976 H   0  0  0  0  0  0  0  0  0  0  0  0
  150.2896  140.8296  154.3404 H   0  0  0  0  0  0  0  0  0  0  0  0
  148.6081  140.7316  154.8300 H   0  0  0  0  0  0  0  0  0  0  0  0
  149.0977  140.1696  153.2253 H   0  0  0  0  0  0  0  0  0  0  0  0
  1  2  1  0  0  0  0
  1 24  1  0  0  0  0
  1 25  1  0  0  0  0
  1 26  1  0  0  0  0
  2  3  1  0  0  0  0
  2 27  1  0  0  0  0
  2 28  1  0  0  0  0
  3  4  1  0  0  0  0
  3 29  1  0  0  0  0
  3 30  1  0  0  0  0
  4  5  1  0  0  0  0
  4 31  1  0  0  0  0
  5  6  2  0  0  0  0
  5  7  1  0  0  0  0
  7  8  1  0  0  0  0
  7  9  1  0  0  0  0
  7 32  1  0  0  0  0
  8 33  1  0  0  0  0
  8 34  1  0  0  0  0
  8 35  1  0  0  0  0
  9 10  1  0  0  0  0
  9 36  1  0  0  0  0
 10 11  2  0  0  0  0
 10 12  1  0  0  0  0
 12 13  1  0  0  0  0
 12 37  1  0  0  0  0
 12 38  1  0  0  0  0
 13 22  1  0  0  0  0
 13 14  1  0  0  0  0
 14 15  2  0  0  0  0
 15 16  1  0  0  0  0
 15 17  1  0  0  0  0
 16 39  1  0  0  0  0
 16 40  1  0  0  0  0
 16 41  1  0  0  0  0
 17 18  1  0  0  0  0
 17 19  2  0  0  0  0
 18 42  1  0  0  0  0
 18 43  1  0  0  0  0
 18 44  1  0  0  0  0
 19 20  1  0  0  0  0
 19 22  1  0  0  0  0
 20 21  3  0  0  0  0
 22 23  2  0  0  0  0
M  END
> <s_m_source_file>
AV-unprocessed.smi

> <i_m_source_file_index>
483

> <i_lp_mmshare_version>
43012

> <i_f3d_flags>
0

> <s_epik_input>
W0NIM11bQ0gyXVtDSDJdW05IXUMoPU8pW0NASF0oW0NIM10pW05IXUMoPU8pW0NIMl1uMW5jKFtDSDNdKWMoW0NIM10pYyhDI04pYzE9Tw==

> <s_epik_cmdline>
J2VwaWtfcHl0aG9uJywgJy1waCcsICc3LjAnLCAnLXRuJywgJzgnLCAnLW1hJywgJzIwMCcsICctbWV0YWxfYmluZGluZycsICctaW1hZScsICc8aW5maWxlLm1hZT4nLCAnLW9tYWUnLCAnPG91dGZpbGUubWFlPic=

> <r_lp_tautomer_probability>
1

> <r_epik_Ionization_Penalty>
5.96698e-08

> <r_epik_Ionization_Penalty_Charging>
1.88177e-11

> <r_epik_Ionization_Penalty_Neutral>
5.9651e-08

> <r_epik_State_Penalty>
-0

> <r_epik_Charging_Adjusted_Penalty>
1.88177e-11

> <i_epik_Tot_Q>
0

> <i_epik_Tot_abs_Q>
0

> <r_epik_Metal_State_Penalty>
-0

> <b_epik_Metal_Only>
0

> <s_lp_Force_Field>
OPLS_2005

> <r_lp_Energy>
17.9954

> <b_lp_Chiralities_Consistent>
1

> <s_lp_Variant>
AV-unprocessed.smi:483-1

> <Gold.Version>
5.8.1

> <Gold.Id.Protein>
6NUR|6NUR_protein|mol2

> <Gold.PLP.Fitness>
43.1872

> <Gold.PLP.PLP>
-35.6384

> <Gold.PLP.part.hbond>
-3.8572

> <Gold.PLP.part.metal>
0.0000

> <Gold.PLP.part.buried>
-5.3767

> <Gold.PLP.part.nonpolar>
-27.4454

> <Gold.PLP.part.repulsive>
0.9674

> <Gold.PLP.ligand.clash>
0.0000

> <Gold.PLP.ligand.torsion>
0.8369

> <Gold.PLP.Chemscore.Hbond>
3.0374

> <Gold.PLP.Chemscore.CHOScore>
0.0000

> <Gold.PLP.Chemscore.Metal>
0.0000

> <Gold.Chemscore.Hbonds>
donor molecule, donor type, donor heavy atom, donor atom, acceptor molecule, acceptor atom, score
      L1  H     4    31       P1 10747  1.00
      P1  H  7989  7998       L1    21  0.02
      P1  H  7997  8010       L1    21  1.00
      P1  H 10752 10765       L1    23  1.00

> <Gold.PLP.Chemscore.Internal.Correction>
0.1103

> <Gold.Rescore>
     Score         DG    S(hbond)    S(metal)    S(lipo)     H(rot)  DE(clash)    DE(int)     intcor
     12.72     -16.05       2.96        0.00      57.74       2.38       0.20       3.13       ----

> <Gold.Chemscore.Fitness>
12.7190

> <Gold.Chemscore.DG>
-16.0481

> <Gold.Chemscore.ZeroCoef>
-5.4800

> <Gold.Chemscore.Hbond>
2.9647

> <Gold.Chemscore.Metal>
0.0000

> <Gold.Chemscore.Lipo>
57.7351

> <Gold.Chemscore.Internal_Hbond>
0.0000

> <Gold.Chemscore.DEClash>
0.1963

> <Gold.Chemscore.DEInternal>
3.1329

> <Gold.Chemscore.Rot>
2.3785

> <Gold.Chemscore.Internal.Correction>
   9.000000E+99

> <Gold.Chemscore.Hbonds>
donor molecule, donor type, donor heavy atom, donor atom, acceptor molecule, acceptor atom, score
      L1  H     4    31       P1 10747  0.97
      P1  H  7997  8010       L1    21  1.00
      P1  H 10752 10765       L1    23  0.97

> <Gold.Chemscore.Hbond.Weighted>
-9.9021

> <Gold.Chemscore.Metal.Weighted>
-0.0000

> <Gold.Chemscore.Lipo.Weighted>
-6.7550

> <Gold.Chemscore.Internal_Hbond.Weighted>
0.0000

> <Gold.Chemscore.DEClash.Weighted>
0.1963

> <Gold.Chemscore.DEInternal.Weighted>
3.1329

> <Gold.Chemscore.Rot.Weighted>
6.0890

> <Gold.Chemscore.Internal.Correction.Weighted>
   9.000000E+99

> <Gold.Protein.RotatedTorsions>
[ 6907 6896 6895 6894 ] final  -54.46 input  -60.11 | X-H torsion
[ 7974 7965 7964 7962 ] final  121.22 input  175.53 | X-H torsion
[ 8008 7997 7996 7995 ] final  106.58 input   59.86 | X-H torsion
[ 10167 10162 10161 10158 ] final -100.09 input  -65.29 | X-H torsion
[ 10718 10713 10712 10709 ] final   74.38 input   66.30 | X-H torsion
[ 10763 10752 10751 10750 ] final -139.32 input  -60.55 | X-H torsion
[ 11005 11000 10999 10996 ] final  -17.54 input  -57.11 | X-H torsion

> <Gold.Protein.ActiveResidues>
 VAL166  LYS551  ARG553  GLY616  TRP617  ASP618  TYR619  PRO620  LYS621  CYS622 
 ASP623  PHE694  ASN695  SER759  ASP760  ASP761  ALA762  ILE779  LEU786  VAL792 
 PHE793  MET794  SER795  GLU796  ALA797  LYS798  CYS799  TRP800  GLU811  SER814 

> <Gold.Protein.RotatedAtoms>
  150.8336  134.7600  159.6874 H   0  0  0  0  0  0  0  0  0  0  0  0  # atno 6907 bound_to 6896
  152.4437  134.5536  159.9883 H   0  0  0  0  0  0  0  0  0  0  0  0  # atno 6908 bound_to 6896
  151.5691  133.3355  159.3022 H   0  0  0  0  0  0  0  0  0  0  0  0  # atno 6909 bound_to 6896
  145.1219  139.3383  143.4710 H   0  0  0  0  0  0  0  0  0  0  0  0  # atno 7974 bound_to 7965
  156.1755  140.3110  155.9051 H   0  0  0  0  0  0  0  0  0  0  0  0  # atno 8008 bound_to 7997
  155.3497  140.0470  157.3063 H   0  0  0  0  0  0  0  0  0  0  0  0  # atno 8009 bound_to 7997
  154.5285  140.2222  155.8856 H   0  0  0  0  0  0  0  0  0  0  0  0  # atno 8010 bound_to 7997
  140.2555  143.3443  152.0674 H   0  0  0  0  0  0  0  0  0  0  0  0  # atno 10167 bound_to 10162
  157.6589  130.9675  150.1202 H   0  0  0  0  0  0  0  0  0  0  0  0  # atno 10718 bound_to 10713
  154.8612  135.3586  154.5527 H   0  0  0  0  0  0  0  0  0  0  0  0  # atno 10763 bound_to 10752
  153.6144  135.7008  153.5339 H   0  0  0  0  0  0  0  0  0  0  0  0  # atno 10764 bound_to 10752
  153.3181  135.4159  155.1354 H   0  0  0  0  0  0  0  0  0  0  0  0  # atno 10765 bound_to 10752
  140.8178  133.8091  155.9628 H   0  0  0  0  0  0  0  0  0  0  0  0  # atno 11005 bound_to 11000
  146.3520  140.1182  142.8601 LP  0  0  0  0  0  0  0  0  0  0  0  0  # atno 17320 bound_to 7965
  145.0731  140.9169  143.4870 LP  0  0  0  0  0  0  0  0  0  0  0  0  # atno 17321 bound_to 7965
  139.5033  144.6752  151.6146 LP  0  0  0  0  0  0  0  0  0  0  0  0  # atno 17342 bound_to 10162
  140.6007  143.9615  150.6384 LP  0  0  0  0  0  0  0  0  0  0  0  0  # atno 17343 bound_to 10162
  156.2076  130.3664  149.8711 LP  0  0  0  0  0  0  0  0  0  0  0  0  # atno 17370 bound_to 10713
  156.6598  130.8777  151.3545 LP  0  0  0  0  0  0  0  0  0  0  0  0  # atno 17371 bound_to 10713
  140.9130  134.2236  157.4974 LP  0  0  0  0  0  0  0  0  0  0  0  0  # atno 17394 bound_to 11000
  139.8710  134.9759  156.4900 LP  0  0  0  0  0  0  0  0  0  0  0  0  # atno 17395 bound_to 11000

$$$$
