AV-unprocessed.smi:3177|AV-procd|sdf|12128|dock3
  -GOLD-   2272017563D 1   1.00000     0.00000
 Structure written by MMmdl.
 30 31  0  0  0  0  0  0  0  0  1 V2000
  152.7672  142.6128  162.1706 C   0  0  0  0  0  0  0  0  0  0  0  0
  152.7538  143.6461  161.1916 O   0  0  0  0  0  0  0  0  0  0  0  0
  152.1655  143.3847  159.9713 C   0  0  0  0  0  0  0  0  0  0  0  0
  152.1890  144.3889  158.9831 C   0  0  0  0  0  0  0  0  0  0  0  0
  151.5929  144.1298  157.7341 C   0  0  0  0  0  0  0  0  0  0  0  0
  150.9977  142.8658  157.5095 C   0  0  0  0  0  0  0  0  0  0  0  0
  150.3468  142.4947  156.3024 N   0  0  0  0  0  0  0  0  0  0  0  0
  150.1112  141.2596  155.8217 C   0  0  0  0  0  0  0  0  0  0  0  0
  150.3836  140.2199  156.4215 O   0  0  0  0  0  0  0  0  0  0  0  0
  149.4055  141.1955  154.4526 C   0  0  2  0  0  0  0  0  0  0  0  0
  148.0115  141.8316  154.4275 C   0  0  0  0  0  0  0  0  0  0  0  0
  147.1187  140.7462  155.0051 C   0  0  0  0  0  0  0  0  0  0  0  0
  147.8786  139.4496  154.7047 C   0  0  0  0  0  0  0  0  0  0  0  0
  149.1136  139.8438  154.1079 O   0  0  0  0  0  0  0  0  0  0  0  0
  151.0129  141.9353  158.5692 C   0  0  0  0  0  0  0  0  0  0  0  0
  151.5832  142.1769  159.7684 N   0  0  0  0  0  0  0  0  0  0  0  0
  153.2679  142.9738  163.0688 H   0  0  0  0  0  0  0  0  0  0  0  0
  153.3124  141.7360  161.8181 H   0  0  0  0  0  0  0  0  0  0  0  0
  151.7557  142.3173  162.4524 H   0  0  0  0  0  0  0  0  0  0  0  0
  152.6519  145.3443  159.1815 H   0  0  0  0  0  0  0  0  0  0  0  0
  151.5911  144.9058  156.9843 H   0  0  0  0  0  0  0  0  0  0  0  0
  149.9768  143.2579  155.7540 H   0  0  0  0  0  0  0  0  0  0  0  0
  150.0597  141.6434  153.7039 H   0  0  0  0  0  0  0  0  0  0  0  0
  147.9392  142.7731  154.9734 H   0  0  0  0  0  0  0  0  0  0  0  0
  147.7252  142.0323  153.3944 H   0  0  0  0  0  0  0  0  0  0  0  0
  147.0133  140.8755  156.0831 H   0  0  0  0  0  0  0  0  0  0  0  0
  146.1204  140.7587  154.5668 H   0  0  0  0  0  0  0  0  0  0  0  0
  148.0694  138.8904  155.6216 H   0  0  0  0  0  0  0  0  0  0  0  0
  147.3280  138.8018  154.0223 H   0  0  0  0  0  0  0  0  0  0  0  0
  150.5574  140.9628  158.4513 H   0  0  0  0  0  0  0  0  0  0  0  0
  1  2  1  0  0  0  0
  1 17  1  0  0  0  0
  1 18  1  0  0  0  0
  1 19  1  0  0  0  0
  2  3  1  0  0  0  0
  3 16  1  0  0  0  0
  3  4  2  0  0  0  0
  4  5  1  0  0  0  0
  4 20  1  0  0  0  0
  5  6  2  0  0  0  0
  5 21  1  0  0  0  0
  6  7  1  0  0  0  0
  6 15  1  0  0  0  0
  7  8  1  0  0  0  0
  7 22  1  0  0  0  0
  8  9  2  0  0  0  0
  8 10  1  0  0  0  0
 10 14  1  0  0  0  0
 10 11  1  0  0  0  0
 10 23  1  0  0  0  0
 11 12  1  0  0  0  0
 11 24  1  0  0  0  0
 11 25  1  0  0  0  0
 12 13  1  0  0  0  0
 12 26  1  0  0  0  0
 12 27  1  0  0  0  0
 13 14  1  0  0  0  0
 13 28  1  0  0  0  0
 13 29  1  0  0  0  0
 15 16  2  0  0  0  0
 15 30  1  0  0  0  0
M  END
> <s_m_source_file>
AV-unprocessed.smi

> <i_m_source_file_index>
3177

> <i_lp_mmshare_version>
43012

> <i_f3d_flags>
0

> <s_epik_input>
W0NIM11PYzFbY0hdW2NIXWMoW2NIXW4xKVtOSF1DKD1PKVtDQEBIXTJbQ0gyXVtDSDJdW0NIMl1PMg==

> <s_epik_cmdline>
J2VwaWtfcHl0aG9uJywgJy1waCcsICc3LjAnLCAnLXRuJywgJzgnLCAnLW1hJywgJzIwMCcsICctbWV0YWxfYmluZGluZycsICctaW1hZScsICc8aW5maWxlLm1hZT4nLCAnLW9tYWUnLCAnPG91dGZpbGUubWFlPic=

> <r_lp_tautomer_probability>
1

> <r_epik_Ionization_Penalty>
2.59882e-05

> <r_epik_Ionization_Penalty_Charging>
0

> <r_epik_Ionization_Penalty_Neutral>
2.59882e-05

> <r_epik_State_Penalty>
-0

> <r_epik_Charging_Adjusted_Penalty>
0

> <i_epik_Tot_Q>
0

> <i_epik_Tot_abs_Q>
0

> <r_epik_Metal_State_Penalty>
-0

> <b_epik_Metal_Only>
0

> <s_lp_Force_Field>
OPLS_2005

> <r_lp_Energy>
23.6564

> <b_lp_Chiralities_Consistent>
1

> <s_lp_Variant>
AV-unprocessed.smi:3177-1

> <Gold.Version>
5.8.1

> <Gold.Id.Protein>
6NUR|6NUR_protein|mol2

> <Gold.PLP.Fitness>
37.1776

> <Gold.PLP.PLP>
-34.4394

> <Gold.PLP.part.hbond>
-1.3997

> <Gold.PLP.part.metal>
0.0000

> <Gold.PLP.part.buried>
-2.4168

> <Gold.PLP.part.nonpolar>
-30.5388

> <Gold.PLP.part.repulsive>
1.1787

> <Gold.PLP.ligand.clash>
0.0000

> <Gold.PLP.ligand.torsion>
0.1424

> <Gold.PLP.Chemscore.Hbond>
0.9920

> <Gold.PLP.Chemscore.CHOScore>
0.0000

> <Gold.PLP.Chemscore.Metal>
0.0000

> <Gold.Chemscore.Hbonds>
donor molecule, donor type, donor heavy atom, donor atom, acceptor molecule, acceptor atom, score
      L1  H     7    22       P1  8028  0.98

> <Gold.PLP.Chemscore.Internal.Correction>
0.0471

> <Gold.Rescore>
     Score         DG    S(hbond)    S(metal)    S(lipo)     H(rot)  DE(clash)    DE(int)     intcor
     12.81     -14.54       0.97        0.00      76.82       1.24       0.17       1.56       ----

> <Gold.Chemscore.Fitness>
12.8057

> <Gold.Chemscore.DG>
-14.5363

> <Gold.Chemscore.ZeroCoef>
-5.4800

> <Gold.Chemscore.Hbond>
0.9693

> <Gold.Chemscore.Metal>
0.0000

> <Gold.Chemscore.Lipo>
76.8240

> <Gold.Chemscore.Internal_Hbond>
0.0000

> <Gold.Chemscore.DEClash>
0.1727

> <Gold.Chemscore.DEInternal>
1.5580

> <Gold.Chemscore.Rot>
1.2381

> <Gold.Chemscore.Internal.Correction>
   9.000000E+99

> <Gold.Chemscore.Hbonds>
donor molecule, donor type, donor heavy atom, donor atom, acceptor molecule, acceptor atom, score
      L1  H     7    22       P1  8028  0.93

> <Gold.Chemscore.Hbond.Weighted>
-3.2373

> <Gold.Chemscore.Metal.Weighted>
-0.0000

> <Gold.Chemscore.Lipo.Weighted>
-8.9884

> <Gold.Chemscore.Internal_Hbond.Weighted>
0.0000

> <Gold.Chemscore.DEClash.Weighted>
0.1727

> <Gold.Chemscore.DEInternal.Weighted>
1.5580

> <Gold.Chemscore.Rot.Weighted>
3.1694

> <Gold.Chemscore.Internal.Correction.Weighted>
   9.000000E+99

> <Gold.Protein.RotatedTorsions>
[ 6907 6896 6895 6894 ] final  132.34 input  -60.11 | X-H torsion
[ 7974 7965 7964 7962 ] final -158.37 input  175.53 | X-H torsion
[ 8008 7997 7996 7995 ] final  -16.98 input   59.86 | X-H torsion
[ 10167 10162 10161 10158 ] final    0.51 input  -65.29 | X-H torsion
[ 10718 10713 10712 10709 ] final  118.98 input   66.30 | X-H torsion
[ 10763 10752 10751 10750 ] final   93.77 input  -60.55 | X-H torsion
[ 11005 11000 10999 10996 ] final -132.17 input  -57.11 | X-H torsion

> <Gold.Protein.ActiveResidues>
 VAL166  LYS551  ARG553  GLY616  TRP617  ASP618  TYR619  PRO620  LYS621  CYS622 
 ASP623  PHE694  ASN695  SER759  ASP760  ASP761  ALA762  ILE779  LEU786  VAL792 
 PHE793  MET794  SER795  GLU796  ALA797  LYS798  CYS799  TRP800  GLU811  SER814 

> <Gold.Protein.RotatedAtoms>
  152.3334  133.5984  159.5825 H   0  0  0  0  0  0  0  0  0  0  0  0  # atno 6907 bound_to 6896
  150.7436  133.9833  159.3592 H   0  0  0  0  0  0  0  0  0  0  0  0  # atno 6908 bound_to 6896
  151.7705  135.0788  160.0410 H   0  0  0  0  0  0  0  0  0  0  0  0  # atno 6909 bound_to 6896
  144.7508  140.3837  143.6049 H   0  0  0  0  0  0  0  0  0  0  0  0  # atno 7974 bound_to 7965
  154.5012  140.2155  155.9343 H   0  0  0  0  0  0  0  0  0  0  0  0  # atno 8008 bound_to 7997
  156.1436  140.3175  155.8501 H   0  0  0  0  0  0  0  0  0  0  0  0  # atno 8009 bound_to 7997
  155.4074  140.0488  157.3024 H   0  0  0  0  0  0  0  0  0  0  0  0  # atno 8010 bound_to 7997
  140.6725  143.7008  150.7953 H   0  0  0  0  0  0  0  0  0  0  0  0  # atno 10167 bound_to 10162
  157.5993  131.1053  150.7832 H   0  0  0  0  0  0  0  0  0  0  0  0  # atno 10718 bound_to 10713
  153.2340  135.4313  155.0626 H   0  0  0  0  0  0  0  0  0  0  0  0  # atno 10763 bound_to 10752
  154.8310  135.3386  154.6746 H   0  0  0  0  0  0  0  0  0  0  0  0  # atno 10764 bound_to 10752
  153.7172  135.7019  153.5078 H   0  0  0  0  0  0  0  0  0  0  0  0  # atno 10765 bound_to 10752
  140.9194  134.1464  157.4326 H   0  0  0  0  0  0  0  0  0  0  0  0  # atno 11005 bound_to 11000
  145.6950  139.1648  143.2625 LP  0  0  0  0  0  0  0  0  0  0  0  0  # atno 17320 bound_to 7965
  146.1456  140.6997  142.9346 LP  0  0  0  0  0  0  0  0  0  0  0  0  # atno 17321 bound_to 7965
  140.0696  143.5074  152.2586 LP  0  0  0  0  0  0  0  0  0  0  0  0  # atno 17342 bound_to 10162
  139.6000  144.7579  151.3193 LP  0  0  0  0  0  0  0  0  0  0  0  0  # atno 17343 bound_to 10162
  156.8234  130.4992  149.5340 LP  0  0  0  0  0  0  0  0  0  0  0  0  # atno 17370 bound_to 10713
  156.1063  130.6007  150.9976 LP  0  0  0  0  0  0  0  0  0  0  0  0  # atno 17371 bound_to 10713
  139.8772  134.9965  156.5801 LP  0  0  0  0  0  0  0  0  0  0  0  0  # atno 17394 bound_to 11000
  140.8008  133.8507  155.8725 LP  0  0  0  0  0  0  0  0  0  0  0  0  # atno 17395 bound_to 11000

$$$$
