AV-unprocessed.smi:2878|AV-procd|sdf|11047|dock8
  -GOLD-   2272015513D 1   1.00000     0.00000
 Structure written by MMmdl.
 42 43  0  0  0  0  0  0  0  0  1 V2000
  148.1422  133.2014  154.4047 C   0  0  0  0  0  0  0  0  0  0  0  0
  148.2430  132.9937  152.6062 S   0  0  0  0  0  0  0  0  0  0  0  0
  146.4822  133.0847  152.1486 C   0  0  2  0  0  0  0  0  0  0  0  0
  146.3155  133.0409  150.6172 C   0  0  0  0  0  0  0  0  0  0  0  0
  144.8333  133.0760  150.2123 C   0  0  0  0  0  0  0  0  0  0  0  0
  144.1227  134.3027  150.8032 C   0  0  0  0  0  0  0  0  0  0  0  0
  144.2867  134.3593  152.3319 C   0  0  0  0  0  0  0  0  0  0  0  0
  145.7691  134.3149  152.7631 C   0  0  2  0  0  0  0  0  0  0  0  0
  146.4568  135.5551  152.4011 N   0  0  0  0  0  0  0  0  0  0  0  0
  146.0907  136.7849  152.7867 C   0  0  0  0  0  0  0  0  0  0  0  0
  145.1066  137.0251  153.4863 O   0  0  0  0  0  0  0  0  0  0  0  0
  146.9264  137.7223  152.3190 N   0  0  0  0  0  0  0  0  0  0  0  0
  146.7890  139.1548  152.5571 C   0  0  0  0  0  0  0  0  0  0  0  0
  147.1458  139.5289  154.0048 C   0  0  0  0  0  0  0  0  0  0  0  0
  148.6155  139.4792  154.2578 C   0  0  0  0  0  0  0  0  0  0  0  0
  149.4049  138.4092  154.2023 N   0  0  0  0  0  0  0  0  0  0  0  0
  150.6196  138.9681  154.4588 C   0  0  0  0  0  0  0  0  0  0  0  0
  151.8803  138.1752  154.5185 C   0  0  0  0  0  0  0  0  0  0  0  0
  150.6263  140.2820  154.6462 N   0  0  0  0  0  0  0  0  0  0  0  0
  149.2771  140.6363  154.5009 O   0  0  0  0  0  0  0  0  0  0  0  0
  149.1337  133.1058  154.8471 H   0  0  0  0  0  0  0  0  0  0  0  0
  147.4958  132.4400  154.8413 H   0  0  0  0  0  0  0  0  0  0  0  0
  147.7490  134.1847  154.6613 H   0  0  0  0  0  0  0  0  0  0  0  0
  146.0136  132.1853  152.5510 H   0  0  0  0  0  0  0  0  0  0  0  0
  146.8389  133.8813  150.1596 H   0  0  0  0  0  0  0  0  0  0  0  0
  146.7795  132.1379  150.2189 H   0  0  0  0  0  0  0  0  0  0  0  0
  144.7444  133.0826  149.1256 H   0  0  0  0  0  0  0  0  0  0  0  0
  144.3390  132.1670  150.5575 H   0  0  0  0  0  0  0  0  0  0  0  0
  144.5254  135.2115  150.3541 H   0  0  0  0  0  0  0  0  0  0  0  0
  143.0635  134.2767  150.5455 H   0  0  0  0  0  0  0  0  0  0  0  0
  143.7997  135.2517  152.7262 H   0  0  0  0  0  0  0  0  0  0  0  0
  143.7626  133.5119  152.7756 H   0  0  0  0  0  0  0  0  0  0  0  0
  145.7957  134.2162  153.8490 H   0  0  0  0  0  0  0  0  0  0  0  0
  147.2833  135.4623  151.8290 H   0  0  0  0  0  0  0  0  0  0  0  0
  147.7090  137.4256  151.7544 H   0  0  0  0  0  0  0  0  0  0  0  0
  147.4508  139.6775  151.8661 H   0  0  0  0  0  0  0  0  0  0  0  0
  145.7736  139.4761  152.3184 H   0  0  0  0  0  0  0  0  0  0  0  0
  146.7913  140.5338  154.2378 H   0  0  0  0  0  0  0  0  0  0  0  0
  146.6489  138.8527  154.7014 H   0  0  0  0  0  0  0  0  0  0  0  0
  152.4775  138.4731  155.3809 H   0  0  0  0  0  0  0  0  0  0  0  0
  152.4691  138.3370  153.6153 H   0  0  0  0  0  0  0  0  0  0  0  0
  151.6618  137.1103  154.6035 H   0  0  0  0  0  0  0  0  0  0  0  0
  1  2  1  0  0  0  0
  1 21  1  0  0  0  0
  1 22  1  0  0  0  0
  1 23  1  0  0  0  0
  2  3  1  0  0  0  0
  3  8  1  0  0  0  0
  3  4  1  0  0  0  0
  3 24  1  0  0  0  0
  4  5  1  0  0  0  0
  4 25  1  0  0  0  0
  4 26  1  0  0  0  0
  5  6  1  0  0  0  0
  5 27  1  0  0  0  0
  5 28  1  0  0  0  0
  6  7  1  0  0  0  0
  6 29  1  0  0  0  0
  6 30  1  0  0  0  0
  7  8  1  0  0  0  0
  7 31  1  0  0  0  0
  7 32  1  0  0  0  0
  8  9  1  0  0  0  0
  8 33  1  0  0  0  0
  9 10  1  0  0  0  0
  9 34  1  0  0  0  0
 10 11  2  0  0  0  0
 10 12  1  0  0  0  0
 12 13  1  0  0  0  0
 12 35  1  0  0  0  0
 13 14  1  0  0  0  0
 13 36  1  0  0  0  0
 13 37  1  0  0  0  0
 14 15  1  0  0  0  0
 14 38  1  0  0  0  0
 14 39  1  0  0  0  0
 15 20  1  0  0  0  0
 15 16  2  0  0  0  0
 16 17  1  0  0  0  0
 17 18  1  0  0  0  0
 17 19  2  0  0  0  0
 18 40  1  0  0  0  0
 18 41  1  0  0  0  0
 18 42  1  0  0  0  0
 19 20  1  0  0  0  0
M  END
> <s_m_source_file>
AV-unprocessed.smi

> <i_m_source_file_index>
2878

> <i_lp_mmshare_version>
43012

> <i_f3d_flags>
0

> <s_epik_input>
W0NIM11TW0NAQEhdMVtDSDJdW0NIMl1bQ0gyXVtDSDJdW0NASF0xW05IXUMoPU8pW05IXVtDSDJdW0NIMl1jMm5jKFtDSDNdKW5vMg==

> <s_epik_cmdline>
J2VwaWtfcHl0aG9uJywgJy1waCcsICc3LjAnLCAnLXRuJywgJzgnLCAnLW1hJywgJzIwMCcsICctbWV0YWxfYmluZGluZycsICctaW1hZScsICc8aW5maWxlLm1hZT4nLCAnLW9tYWUnLCAnPG91dGZpbGUubWFlPic=

> <r_lp_tautomer_probability>
1

> <r_epik_Ionization_Penalty>
4.9299e-05

> <r_epik_Ionization_Penalty_Charging>
0

> <r_epik_Ionization_Penalty_Neutral>
4.9299e-05

> <r_epik_State_Penalty>
-0

> <r_epik_Charging_Adjusted_Penalty>
0

> <i_epik_Tot_Q>
0

> <i_epik_Tot_abs_Q>
0

> <r_epik_Metal_State_Penalty>
-0

> <b_epik_Metal_Only>
0

> <s_lp_Force_Field>
OPLS_2005

> <r_lp_Energy>
0.628987

> <b_lp_Chiralities_Consistent>
1

> <s_lp_Variant>
AV-unprocessed.smi:2878-3

> <Gold.Version>
5.8.1

> <Gold.Id.Protein>
6NUR|6NUR_protein|mol2

> <Gold.PLP.Fitness>
40.8532

> <Gold.PLP.PLP>
-33.8184

> <Gold.PLP.part.hbond>
-3.1625

> <Gold.PLP.part.metal>
0.0000

> <Gold.PLP.part.buried>
-3.8343

> <Gold.PLP.part.nonpolar>
-27.3387

> <Gold.PLP.part.repulsive>
0.6861

> <Gold.PLP.ligand.clash>
0.0000

> <Gold.PLP.ligand.torsion>
0.1894

> <Gold.PLP.Chemscore.Hbond>
2.4560

> <Gold.PLP.Chemscore.CHOScore>
0.0000

> <Gold.PLP.Chemscore.Metal>
0.0000

> <Gold.Chemscore.Hbonds>
donor molecule, donor type, donor heavy atom, donor atom, acceptor molecule, acceptor atom, score
      L1  H     9    34       P1  7948  0.72
      L1  H    12    35       P1  7948  0.77
      P1  H  7989  7998       L1    19  1.00

> <Gold.PLP.Chemscore.Internal.Correction>
0.0455

> <Gold.Rescore>
     Score         DG    S(hbond)    S(metal)    S(lipo)     H(rot)  DE(clash)    DE(int)     intcor
     14.76     -16.02       2.51        0.00      64.17       2.09       0.03       1.23       ----

> <Gold.Chemscore.Fitness>
14.7596

> <Gold.Chemscore.DG>
-16.0161

> <Gold.Chemscore.ZeroCoef>
-5.4800

> <Gold.Chemscore.Hbond>
2.5104

> <Gold.Chemscore.Metal>
0.0000

> <Gold.Chemscore.Lipo>
64.1684

> <Gold.Chemscore.Internal_Hbond>
0.0000

> <Gold.Chemscore.DEClash>
0.0252

> <Gold.Chemscore.DEInternal>
1.2314

> <Gold.Chemscore.Rot>
2.0923

> <Gold.Chemscore.Internal.Correction>
   9.000000E+99

> <Gold.Chemscore.Hbonds>
donor molecule, donor type, donor heavy atom, donor atom, acceptor molecule, acceptor atom, score
      L1  H     9    34       P1  7948  0.72
      L1  H    12    35       P1  7948  0.76
      P1  H  7989  7998       L1    19  0.45

> <Gold.Chemscore.Hbond.Weighted>
-8.3847

> <Gold.Chemscore.Metal.Weighted>
-0.0000

> <Gold.Chemscore.Lipo.Weighted>
-7.5077

> <Gold.Chemscore.Internal_Hbond.Weighted>
0.0000

> <Gold.Chemscore.DEClash.Weighted>
0.0252

> <Gold.Chemscore.DEInternal.Weighted>
1.2314

> <Gold.Chemscore.Rot.Weighted>
5.3562

> <Gold.Chemscore.Internal.Correction.Weighted>
   9.000000E+99

> <Gold.Protein.RotatedTorsions>
[ 6907 6896 6895 6894 ] final  131.55 input  -60.11 | X-H torsion
[ 7974 7965 7964 7962 ] final -118.45 input  175.53 | X-H torsion
[ 8008 7997 7996 7995 ] final  -30.62 input   59.86 | X-H torsion
[ 10167 10162 10161 10158 ] final   56.36 input  -65.29 | X-H torsion
[ 10718 10713 10712 10709 ] final  -56.91 input   66.30 | X-H torsion
[ 10763 10752 10751 10750 ] final -110.67 input  -60.55 | X-H torsion
[ 11005 11000 10999 10996 ] final   68.56 input  -57.11 | X-H torsion

> <Gold.Protein.ActiveResidues>
 VAL166  LYS551  ARG553  GLY616  TRP617  ASP618  TYR619  PRO620  LYS621  CYS622 
 ASP623  PHE694  ASN695  SER759  ASP760  ASP761  ALA762  ILE779  LEU786  VAL792 
 PHE793  MET794  SER795  GLU796  ALA797  LYS798  CYS799  TRP800  GLU811  SER814 

> <Gold.Protein.RotatedAtoms>
  152.3414  133.6072  159.5879 H   0  0  0  0  0  0  0  0  0  0  0  0  # atno 6907 bound_to 6896
  150.7481  133.9716  159.3556 H   0  0  0  0  0  0  0  0  0  0  0  0  # atno 6908 bound_to 6896
  151.7579  135.0818  160.0392 H   0  0  0  0  0  0  0  0  0  0  0  0  # atno 6909 bound_to 6896
  145.0737  140.8377  143.4080 H   0  0  0  0  0  0  0  0  0  0  0  0  # atno 7974 bound_to 7965
  154.4243  140.1786  156.1437 H   0  0  0  0  0  0  0  0  0  0  0  0  # atno 8008 bound_to 7997
  155.9971  140.3363  155.6785 H   0  0  0  0  0  0  0  0  0  0  0  0  # atno 8009 bound_to 7997
  155.6293  140.0668  157.2644 H   0  0  0  0  0  0  0  0  0  0  0  0  # atno 8010 bound_to 7997
  140.2095  144.3903  150.6494 H   0  0  0  0  0  0  0  0  0  0  0  0  # atno 10167 bound_to 10162
  156.1251  130.4163  150.0369 H   0  0  0  0  0  0  0  0  0  0  0  0  # atno 10718 bound_to 10713
  154.8260  135.4555  154.0921 H   0  0  0  0  0  0  0  0  0  0  0  0  # atno 10763 bound_to 10752
  153.2235  135.6897  153.7979 H   0  0  0  0  0  0  0  0  0  0  0  0  # atno 10764 bound_to 10752
  153.7388  135.3315  155.3276 H   0  0  0  0  0  0  0  0  0  0  0  0  # atno 10765 bound_to 10752
  139.9704  134.6909  156.0458 H   0  0  0  0  0  0  0  0  0  0  0  0  # atno 11005 bound_to 11000
  145.1261  139.2662  143.5563 LP  0  0  0  0  0  0  0  0  0  0  0  0  # atno 17320 bound_to 7965
  146.3529  140.0899  142.8613 LP  0  0  0  0  0  0  0  0  0  0  0  0  # atno 17321 bound_to 7965
  140.6333  143.2191  151.6448 LP  0  0  0  0  0  0  0  0  0  0  0  0  # atno 17342 bound_to 10162
  139.5185  144.3282  152.0850 LP  0  0  0  0  0  0  0  0  0  0  0  0  # atno 17343 bound_to 10162
  156.8297  130.9388  151.3637 LP  0  0  0  0  0  0  0  0  0  0  0  0  # atno 17370 bound_to 10713
  157.6433  130.8824  149.9490 LP  0  0  0  0  0  0  0  0  0  0  0  0  # atno 17371 bound_to 10713
  141.1384  133.6570  156.3659 LP  0  0  0  0  0  0  0  0  0  0  0  0  # atno 17394 bound_to 11000
  140.5305  134.6217  157.5348 LP  0  0  0  0  0  0  0  0  0  0  0  0  # atno 17395 bound_to 11000

$$$$
