AV-unprocessed.smi:109|AV-procd|sdf|1055|dock2
  -GOLD-   2262018113D 1   1.00000     0.00000
 Structure written by MMmdl.
 58 61  0  0  0  0  0  0  0  0  1 V2000
  141.4885  134.8151  159.3763 O   0  0  0  0  0  0  0  0  0  0  0  0
  142.4329  135.8331  159.1251 C   0  0  0  0  0  0  0  0  0  0  0  0
  143.6583  135.6436  160.0354 C   0  0  0  0  0  0  0  0  0  0  0  0
  144.9371  136.3558  159.5306 C   0  0  2  0  0  0  0  0  0  0  0  0
  145.2868  135.8403  158.2048 N   0  0  0  0  0  0  0  0  0  0  0  0
  144.6424  136.2302  157.0823 C   0  0  0  0  0  0  0  0  0  0  0  0
  143.7140  137.2220  157.1012 N   0  0  0  0  0  0  0  0  0  0  0  0
  143.0954  137.5833  155.9731 C   0  0  0  0  0  0  0  0  0  0  0  0
  143.2517  137.0923  154.7413 N   0  0  0  0  0  0  0  0  0  0  0  0
  144.1809  136.0934  154.7197 C   0  0  0  0  0  0  0  0  0  0  0  0
  144.9150  135.6087  155.8368 C   0  0  0  0  0  0  0  0  0  0  0  0
  145.7686  134.5906  155.4324 N   0  0  0  0  0  0  0  0  0  0  0  0
  145.5490  134.4858  154.1488 C   0  0  0  0  0  0  0  0  0  0  0  0
  144.6090  135.3557  153.6383 N   0  0  0  0  0  0  0  0  0  0  0  0
  144.1249  135.5042  152.2297 C   0  0  2  0  0  0  0  0  0  0  0  0
  143.7621  134.2344  151.7746 O   0  0  0  0  0  0  0  0  0  0  0  0
  144.4458  133.9162  150.5639 C   0  0  2  0  0  0  0  0  0  0  0  0
  144.6532  132.3975  150.4277 C   0  0  0  0  0  0  0  0  0  0  0  0
  143.4879  131.7940  149.9085 O   0  0  0  0  0  0  0  0  0  0  0  0
  145.7270  134.7601  150.6153 C   0  0  2  0  0  0  0  0  0  0  0  0
  146.7455  134.1043  151.3536 O   0  0  0  0  0  0  0  0  0  0  0  0
  145.2292  136.0302  151.2930 C   0  0  2  0  0  0  0  0  0  0  0  0
  146.2616  136.7790  151.9123 O   0  0  0  0  0  0  0  0  0  0  0  0
  146.1572  136.1984  160.4830 C   0  0  0  0  0  0  0  0  0  0  0  0
  146.4681  134.7227  160.8389 C   0  0  0  0  0  0  0  0  0  0  0  0
  147.6493  134.5884  161.8143 C   0  0  0  0  0  0  0  0  0  0  0  0
  147.4167  135.3986  163.0952 C   0  0  0  0  0  0  0  0  0  0  0  0
  147.1373  136.8679  162.7593 C   0  0  0  0  0  0  0  0  0  0  0  0
  145.9487  136.9987  161.7949 C   0  0  0  0  0  0  0  0  0  0  0  0
  143.2589  136.1635  152.2997 H   0  0  0  0  0  0  0  0  0  0  0  0
  143.8404  134.2854  149.7335 H   0  0  0  0  0  0  0  0  0  0  0  0
  146.1140  134.9641  149.6164 H   0  0  0  0  0  0  0  0  0  0  0  0
  144.7423  136.6612  150.5484 H   0  0  0  0  0  0  0  0  0  0  0  0
  141.0043  134.6515  158.5814 H   0  0  0  0  0  0  0  0  0  0  0  0
  142.7109  135.7939  158.0719 H   0  0  0  0  0  0  0  0  0  0  0  0
  141.9665  136.8018  159.3055 H   0  0  0  0  0  0  0  0  0  0  0  0
  143.3812  136.0282  161.0153 H   0  0  0  0  0  0  0  0  0  0  0  0
  143.8591  134.5796  160.1676 H   0  0  0  0  0  0  0  0  0  0  0  0
  144.7200  137.4226  159.4847 H   0  0  0  0  0  0  0  0  0  0  0  0
  146.0510  135.1802  158.1867 H   0  0  0  0  0  0  0  0  0  0  0  0
  142.3719  138.3791  156.0718 H   0  0  0  0  0  0  0  0  0  0  0  0
  146.0713  133.7646  153.5373 H   0  0  0  0  0  0  0  0  0  0  0  0
  145.4639  132.1897  149.7285 H   0  0  0  0  0  0  0  0  0  0  0  0
  144.9203  131.9445  151.3830 H   0  0  0  0  0  0  0  0  0  0  0  0
  142.9386  132.4685  149.5393 H   0  0  0  0  0  0  0  0  0  0  0  0
  147.4711  134.6998  151.4610 H   0  0  0  0  0  0  0  0  0  0  0  0
  147.0913  136.3829  151.6939 H   0  0  0  0  0  0  0  0  0  0  0  0
  147.0335  136.6067  159.9767 H   0  0  0  0  0  0  0  0  0  0  0  0
  145.5827  134.2539  161.2703 H   0  0  0  0  0  0  0  0  0  0  0  0
  146.7190  134.1521  159.9463 H   0  0  0  0  0  0  0  0  0  0  0  0
  147.8065  133.5387  162.0637 H   0  0  0  0  0  0  0  0  0  0  0  0
  148.5640  134.9301  161.3280 H   0  0  0  0  0  0  0  0  0  0  0  0
  146.5745  134.9804  163.6480 H   0  0  0  0  0  0  0  0  0  0  0  0
  148.2867  135.3233  163.7484 H   0  0  0  0  0  0  0  0  0  0  0  0
  146.9355  137.4257  163.6742 H   0  0  0  0  0  0  0  0  0  0  0  0
  148.0238  137.3186  162.3113 H   0  0  0  0  0  0  0  0  0  0  0  0
  145.7974  138.0573  161.5839 H   0  0  0  0  0  0  0  0  0  0  0  0
  145.0403  136.6556  162.2919 H   0  0  0  0  0  0  0  0  0  0  0  0
  1  2  1  0  0  0  0
  1 34  1  0  0  0  0
  2  3  1  0  0  0  0
  2 35  1  0  0  0  0
  2 36  1  0  0  0  0
  3  4  1  0  0  0  0
  3 37  1  0  0  0  0
  3 38  1  0  0  0  0
  4  5  1  0  0  0  0
  4 24  1  0  0  0  0
  4 39  1  0  0  0  0
  5  6  1  0  0  0  0
  5 40  1  0  0  0  0
  6 11  1  0  0  0  0
  6  7  2  0  0  0  0
  7  8  1  0  0  0  0
  8  9  2  0  0  0  0
  8 41  1  0  0  0  0
  9 10  1  0  0  0  0
 10 14  1  0  0  0  0
 10 11  2  0  0  0  0
 11 12  1  0  0  0  0
 12 13  2  0  0  0  0
 13 14  1  0  0  0  0
 13 42  1  0  0  0  0
 14 15  1  0  0  0  0
 15 30  1  0  0  0  0
 15 22  1  0  0  0  0
 15 16  1  0  0  0  0
 16 17  1  0  0  0  0
 17 31  1  0  0  0  0
 17 18  1  0  0  0  0
 17 20  1  0  0  0  0
 18 19  1  0  0  0  0
 18 43  1  0  0  0  0
 18 44  1  0  0  0  0
 19 45  1  0  0  0  0
 20 32  1  0  0  0  0
 20 21  1  0  0  0  0
 20 22  1  0  0  0  0
 21 46  1  0  0  0  0
 22 33  1  0  0  0  0
 22 23  1  0  0  0  0
 23 47  1  0  0  0  0
 24 29  1  0  0  0  0
 24 25  1  0  0  0  0
 24 48  1  0  0  0  0
 25 26  1  0  0  0  0
 25 49  1  0  0  0  0
 25 50  1  0  0  0  0
 26 27  1  0  0  0  0
 26 51  1  0  0  0  0
 26 52  1  0  0  0  0
 27 28  1  0  0  0  0
 27 53  1  0  0  0  0
 27 54  1  0  0  0  0
 28 29  1  0  0  0  0
 28 55  1  0  0  0  0
 28 56  1  0  0  0  0
 29 57  1  0  0  0  0
 29 58  1  0  0  0  0
M  END
> <s_m_source_file>
AV-unprocessed.smi

> <i_m_source_file_index>
109

> <i_lp_mmshare_version>
43012

> <i_f3d_flags>
0

> <s_epik_input>
W0NIMl0xW0NIMl1bQ0gyXVtDSDJdW0NIMl1bQ0hdMVtDQEhdKFtDSDJdW0NIMl1bT0hdKVtOSF1jKG5bY0hdbjIpYyhjMjMpbltjSF1uM1tDQEBIXTRPW0NASF0oW0NIMl1bT0hdKVtDQEBIXShbT0hdKVtDQEhdNFtPSF0=

> <s_epik_cmdline>
J2VwaWtfcHl0aG9uJywgJy1waCcsICc3LjAnLCAnLXRuJywgJzgnLCAnLW1hJywgJzIwMCcsICctbWV0YWxfYmluZGluZycsICctaW1hZScsICc8aW5maWxlLm1hZT4nLCAnLW9tYWUnLCAnPG91dGZpbGUubWFlPic=

> <r_lp_tautomer_probability>
1

> <r_epik_Ionization_Penalty>
0.000793976

> <r_epik_Ionization_Penalty_Charging>
0

> <r_epik_Ionization_Penalty_Neutral>
0.000793976

> <r_epik_State_Penalty>
-0

> <r_epik_Charging_Adjusted_Penalty>
0

> <i_epik_Tot_Q>
0

> <i_epik_Tot_abs_Q>
0

> <r_epik_Metal_State_Penalty>
-0

> <b_epik_Metal_Only>
0

> <s_epik_Chemistry_Notes>
This compound contains an acetal/aminal-like group ( X-CH(R)-Y where X, Y are N, S, or O) that may be acid/base labile, releasing an aldehyde.

> <s_lp_Force_Field>
OPLS_2005

> <r_lp_Energy>
59.4654

> <b_lp_Chiralities_Consistent>
1

> <s_lp_Variant>
AV-unprocessed.smi:109-25

> <Gold.Version>
5.8.1

> <Gold.Id.Protein>
6NUR|6NUR_protein|mol2

> <Gold.PLP.Fitness>
45.0277

> <Gold.PLP.PLP>
-34.7519

> <Gold.PLP.part.hbond>
-4.8253

> <Gold.PLP.part.metal>
0.0000

> <Gold.PLP.part.buried>
-5.5138

> <Gold.PLP.part.nonpolar>
-23.9030

> <Gold.PLP.part.repulsive>
0.2356

> <Gold.PLP.ligand.clash>
0.0000

> <Gold.PLP.ligand.torsion>
0.8360

> <Gold.PLP.Chemscore.Hbond>
3.8533

> <Gold.PLP.Chemscore.CHOScore>
0.0000

> <Gold.PLP.Chemscore.Metal>
0.0000

> <Gold.Chemscore.Hbonds>
donor molecule, donor type, donor heavy atom, donor atom, acceptor molecule, acceptor atom, score
      L1  H     1    34       P1 11000  1.00
      L1  H    21    46       P1  7948  0.80
      L1  H    23    47       P1  7948  1.00
      P1  H 10785 10796       L1    19  0.98

> <Gold.PLP.Chemscore.Internal.Correction>
0.3880

> <Gold.Rescore>
     Score         DG    S(hbond)    S(metal)    S(lipo)     H(rot)  DE(clash)    DE(int)     intcor
      4.93      -9.98       2.89        0.00      75.60       5.47       0.63       4.41       ----

> <Gold.Chemscore.Fitness>
4.9337

> <Gold.Chemscore.DG>
-9.9775

> <Gold.Chemscore.ZeroCoef>
-5.4800

> <Gold.Chemscore.Hbond>
2.8878

> <Gold.Chemscore.Metal>
0.0000

> <Gold.Chemscore.Lipo>
75.6047

> <Gold.Chemscore.Internal_Hbond>
0.0000

> <Gold.Chemscore.DEClash>
0.6344

> <Gold.Chemscore.DEInternal>
4.4095

> <Gold.Chemscore.Rot>
5.4662

> <Gold.Chemscore.Internal.Correction>
   9.000000E+99

> <Gold.Chemscore.Hbonds>
donor molecule, donor type, donor heavy atom, donor atom, acceptor molecule, acceptor atom, score
      L1  H     1    34       P1 11000  0.38
      L1  H    21    46       P1  7948  0.27
      L1  H    23    47       P1  7948  0.98
      P1  H 10785 10796       L1    19  0.48

> <Gold.Chemscore.Hbond.Weighted>
-9.6453

> <Gold.Chemscore.Metal.Weighted>
-0.0000

> <Gold.Chemscore.Lipo.Weighted>
-8.8458

> <Gold.Chemscore.Internal_Hbond.Weighted>
0.0000

> <Gold.Chemscore.DEClash.Weighted>
0.6344

> <Gold.Chemscore.DEInternal.Weighted>
4.4095

> <Gold.Chemscore.Rot.Weighted>
13.9935

> <Gold.Chemscore.Internal.Correction.Weighted>
   9.000000E+99

> <Gold.Protein.RotatedTorsions>
[ 6907 6896 6895 6894 ] final   46.66 input  -60.11 | X-H torsion
[ 7974 7965 7964 7962 ] final   76.98 input  175.53 | X-H torsion
[ 8008 7997 7996 7995 ] final   67.74 input   59.86 | X-H torsion
[ 10167 10162 10161 10158 ] final   49.82 input  -65.29 | X-H torsion
[ 10718 10713 10712 10709 ] final  106.30 input   66.30 | X-H torsion
[ 10763 10752 10751 10750 ] final  125.89 input  -60.55 | X-H torsion
[ 11005 11000 10999 10996 ] final   48.96 input  -57.11 | X-H torsion

> <Gold.Protein.ActiveResidues>
 VAL166  LYS551  ARG553  GLY616  TRP617  ASP618  TYR619  PRO620  LYS621  CYS622 
 ASP623  PHE694  ASN695  SER759  ASP760  ASP761  ALA762  ILE779  LEU786  VAL792 
 PHE793  MET794  SER795  GLU796  ALA797  LYS798  CYS799  TRP800  GLU811  SER814 

> <Gold.Protein.RotatedAtoms>
  152.2590  134.8054  160.0433 H   0  0  0  0  0  0  0  0  0  0  0  0  # atno 6907 bound_to 6896
  151.8707  133.3470  159.3742 H   0  0  0  0  0  0  0  0  0  0  0  0  # atno 6908 bound_to 6896
  150.7110  134.5043  159.5620 H   0  0  0  0  0  0  0  0  0  0  0  0  # atno 6909 bound_to 6896
  145.6959  139.2567  143.1733 H   0  0  0  0  0  0  0  0  0  0  0  0  # atno 7974 bound_to 7965
  155.6976  140.3495  155.4919 H   0  0  0  0  0  0  0  0  0  0  0  0  # atno 8008 bound_to 7997
  155.9469  140.1112  157.1032 H   0  0  0  0  0  0  0  0  0  0  0  0  # atno 8009 bound_to 7997
  154.4114  140.1202  156.4987 H   0  0  0  0  0  0  0  0  0  0  0  0  # atno 8010 bound_to 7997
  140.2788  144.3180  150.6270 H   0  0  0  0  0  0  0  0  0  0  0  0  # atno 10167 bound_to 10162
  157.6673  131.0847  150.5987 H   0  0  0  0  0  0  0  0  0  0  0  0  # atno 10718 bound_to 10713
  153.6845  135.3309  155.3187 H   0  0  0  0  0  0  0  0  0  0  0  0  # atno 10763 bound_to 10752
  154.8457  135.4417  154.1572 H   0  0  0  0  0  0  0  0  0  0  0  0  # atno 10764 bound_to 10752
  153.2597  135.6990  153.7669 H   0  0  0  0  0  0  0  0  0  0  0  0  # atno 10765 bound_to 10752
  140.1145  134.4911  155.8649 H   0  0  0  0  0  0  0  0  0  0  0  0  # atno 11005 bound_to 11000
  146.0841  140.7731  142.9627 LP  0  0  0  0  0  0  0  0  0  0  0  0  # atno 17320 bound_to 7965
  144.6983  140.3535  143.7177 LP  0  0  0  0  0  0  0  0  0  0  0  0  # atno 17321 bound_to 7965
  140.5829  143.2171  151.7396 LP  0  0  0  0  0  0  0  0  0  0  0  0  # atno 17342 bound_to 10162
  139.4968  144.4054  152.0137 LP  0  0  0  0  0  0  0  0  0  0  0  0  # atno 17343 bound_to 10162
  156.6287  130.4426  149.5794 LP  0  0  0  0  0  0  0  0  0  0  0  0  # atno 17370 bound_to 10713
  156.2298  130.6788  151.1453 LP  0  0  0  0  0  0  0  0  0  0  0  0  # atno 17371 bound_to 10713
  141.2138  133.6739  156.6769 LP  0  0  0  0  0  0  0  0  0  0  0  0  # atno 17394 bound_to 11000
  140.3047  134.8135  157.4126 LP  0  0  0  0  0  0  0  0  0  0  0  0  # atno 17395 bound_to 11000

$$$$
