AV-unprocessed.smi:672|AV-procd|sdf|3289|dock6
  -GOLD-   22720 0253D 1   1.00000     0.00000
 Structure written by MMmdl.
 36 37  0  0  0  0  0  0  0  0  1 V2000
  143.7526  132.5189  148.9235 C   0  0  0  0  0  0  0  0  0  0  0  0
  143.6231  132.4094  150.4465 C   0  0  0  0  0  0  0  0  0  0  0  0
  144.1813  133.5975  151.1562 C   0  0  0  0  0  0  0  0  0  0  0  0
  143.4324  134.4022  151.9203 N   0  0  0  0  0  0  0  0  0  0  0  0
  144.1766  135.4210  152.4988 N   0  0  0  0  0  0  0  0  0  0  0  0
  145.4722  135.3445  152.1652 C   0  0  0  0  0  0  0  0  0  0  0  0
  146.4597  136.2583  152.6187 N   0  0  0  0  0  0  0  0  0  0  0  0
  146.3363  137.2309  153.5388 C   0  0  0  0  0  0  0  0  0  0  0  0
  145.3102  137.4923  154.1671 O   0  0  0  0  0  0  0  0  0  0  0  0
  147.4883  137.8988  153.6942 N   0  0  0  0  0  0  0  0  0  0  0  0
  147.6977  139.0070  154.6225 C   0  0  2  0  0  0  0  0  0  0  0  0
  146.7279  140.1736  154.3489 C   0  0  0  0  0  0  0  0  0  0  0  0
  147.5875  141.3284  153.8306 C   0  0  0  0  0  0  0  0  0  0  0  0
  148.9645  141.1117  154.4582 C   0  0  1  0  0  0  0  0  0  0  0  0
  149.0409  141.8173  156.1337 S   0  0  0  0  0  0  0  0  0  0  0  0
  150.8284  141.7612  156.4315 C   0  0  0  0  0  0  0  0  0  0  0  0
  149.1171  139.5860  154.4732 C   0  0  0  0  0  0  0  0  0  0  0  0
  145.8915  134.0094  151.1061 S   0  0  0  0  0  0  0  0  0  0  0  0
  143.3345  131.6393  148.4337 H   0  0  0  0  0  0  0  0  0  0  0  0
  144.7974  132.6031  148.6232 H   0  0  0  0  0  0  0  0  0  0  0  0
  143.2232  133.3942  148.5460 H   0  0  0  0  0  0  0  0  0  0  0  0
  142.5743  132.2982  150.7226 H   0  0  0  0  0  0  0  0  0  0  0  0
  144.1353  131.5136  150.7998 H   0  0  0  0  0  0  0  0  0  0  0  0
  147.3674  136.1618  152.1884 H   0  0  0  0  0  0  0  0  0  0  0  0
  148.2807  137.6187  153.1352 H   0  0  0  0  0  0  0  0  0  0  0  0
  147.5602  138.6574  155.6476 H   0  0  0  0  0  0  0  0  0  0  0  0
  145.9289  139.9210  153.6502 H   0  0  0  0  0  0  0  0  0  0  0  0
  146.2496  140.4694  155.2835 H   0  0  0  0  0  0  0  0  0  0  0  0
  147.6707  141.2551  152.7455 H   0  0  0  0  0  0  0  0  0  0  0  0
  147.1612  142.3056  154.0594 H   0  0  0  0  0  0  0  0  0  0  0  0
  149.7401  141.5856  153.8557 H   0  0  0  0  0  0  0  0  0  0  0  0
  151.0568  142.1731  157.4143 H   0  0  0  0  0  0  0  0  0  0  0  0
  151.3579  142.3475  155.6807 H   0  0  0  0  0  0  0  0  0  0  0  0
  151.1961  140.7362  156.3956 H   0  0  0  0  0  0  0  0  0  0  0  0
  149.7878  139.2307  155.2553 H   0  0  0  0  0  0  0  0  0  0  0  0
  149.5532  139.2750  153.5223 H   0  0  0  0  0  0  0  0  0  0  0  0
  1  2  1  0  0  0  0
  1 19  1  0  0  0  0
  1 20  1  0  0  0  0
  1 21  1  0  0  0  0
  2  3  1  0  0  0  0
  2 22  1  0  0  0  0
  2 23  1  0  0  0  0
  3 18  1  0  0  0  0
  3  4  2  0  0  0  0
  4  5  1  0  0  0  0
  5  6  2  0  0  0  0
  6  7  1  0  0  0  0
  6 18  1  0  0  0  0
  7  8  1  0  0  0  0
  7 24  1  0  0  0  0
  8  9  2  0  0  0  0
  8 10  1  0  0  0  0
 10 11  1  0  0  0  0
 10 25  1  0  0  0  0
 11 17  1  0  0  0  0
 11 12  1  0  0  0  0
 11 26  1  0  0  0  0
 12 13  1  0  0  0  0
 12 27  1  0  0  0  0
 12 28  1  0  0  0  0
 13 14  1  0  0  0  0
 13 29  1  0  0  0  0
 13 30  1  0  0  0  0
 14 15  1  0  0  0  0
 14 17  1  0  0  0  0
 14 31  1  0  0  0  0
 15 16  1  0  0  0  0
 16 32  1  0  0  0  0
 16 33  1  0  0  0  0
 16 34  1  0  0  0  0
 17 35  1  0  0  0  0
 17 36  1  0  0  0  0
M  END
> <s_m_source_file>
AV-unprocessed.smi

> <i_m_source_file_index>
672

> <i_lp_mmshare_version>
43012

> <i_f3d_flags>
0

> <s_epik_input>
W0NIM11bQ0gyXWMxbm5jKHMxKVtOSF1DKD1PKVtOSF1bQ0BASF0yW0NIMl1bQ0gyXVtDQEhdKFtDSDJdMilTW0NIM10=

> <s_epik_cmdline>
J2VwaWtfcHl0aG9uJywgJy1waCcsICc3LjAnLCAnLXRuJywgJzgnLCAnLW1hJywgJzIwMCcsICctbWV0YWxfYmluZGluZycsICctaW1hZScsICc8aW5maWxlLm1hZT4nLCAnLW9tYWUnLCAnPG91dGZpbGUubWFlPic=

> <r_lp_tautomer_probability>
1

> <r_epik_Ionization_Penalty>
0.000422169

> <r_epik_Ionization_Penalty_Charging>
0

> <r_epik_Ionization_Penalty_Neutral>
0.000422169

> <r_epik_State_Penalty>
-0

> <r_epik_Charging_Adjusted_Penalty>
0

> <i_epik_Tot_Q>
0

> <i_epik_Tot_abs_Q>
0

> <r_epik_Metal_State_Penalty>
0.200061

> <b_epik_Metal_Only>
0

> <s_lp_Force_Field>
OPLS_2005

> <r_lp_Energy>
12.7649

> <b_lp_Chiralities_Consistent>
1

> <s_lp_Variant>
AV-unprocessed.smi:672-1

> <Gold.Version>
5.8.1

> <Gold.Id.Protein>
6NUR|6NUR_protein|mol2

> <Gold.PLP.Fitness>
35.8405

> <Gold.PLP.PLP>
-30.4771

> <Gold.PLP.part.hbond>
-1.9584

> <Gold.PLP.part.metal>
0.0000

> <Gold.PLP.part.buried>
-3.2651

> <Gold.PLP.part.nonpolar>
-26.6105

> <Gold.PLP.part.repulsive>
0.4678

> <Gold.PLP.ligand.clash>
0.0000

> <Gold.PLP.ligand.torsion>
0.1473

> <Gold.PLP.Chemscore.Hbond>
1.8800

> <Gold.PLP.Chemscore.CHOScore>
0.0000

> <Gold.PLP.Chemscore.Metal>
0.0000

> <Gold.Chemscore.Hbonds>
donor molecule, donor type, donor heavy atom, donor atom, acceptor molecule, acceptor atom, score
      L1  H     7    24       P1  7948  1.00
      L1  H    10    25       P1  7948  0.90

> <Gold.PLP.Chemscore.Internal.Correction>
0.0181

> <Gold.Rescore>
     Score         DG    S(hbond)    S(metal)    S(lipo)     H(rot)  DE(clash)    DE(int)     intcor
     15.90     -17.53       1.94        0.00      77.63       1.37       0.23       1.39       ----

> <Gold.Chemscore.Fitness>
15.9023

> <Gold.Chemscore.DG>
-17.5280

> <Gold.Chemscore.ZeroCoef>
-5.4800

> <Gold.Chemscore.Hbond>
1.9357

> <Gold.Chemscore.Metal>
0.0000

> <Gold.Chemscore.Lipo>
77.6253

> <Gold.Chemscore.Internal_Hbond>
0.0000

> <Gold.Chemscore.DEClash>
0.2317

> <Gold.Chemscore.DEInternal>
1.3939

> <Gold.Chemscore.Rot>
1.3669

> <Gold.Chemscore.Internal.Correction>
   9.000000E+99

> <Gold.Chemscore.Hbonds>
donor molecule, donor type, donor heavy atom, donor atom, acceptor molecule, acceptor atom, score
      L1  H     7    24       P1  7948  0.99
      L1  H    10    25       P1  7948  0.85

> <Gold.Chemscore.Hbond.Weighted>
-6.4651

> <Gold.Chemscore.Metal.Weighted>
-0.0000

> <Gold.Chemscore.Lipo.Weighted>
-9.0822

> <Gold.Chemscore.Internal_Hbond.Weighted>
0.0000

> <Gold.Chemscore.DEClash.Weighted>
0.2317

> <Gold.Chemscore.DEInternal.Weighted>
1.3939

> <Gold.Chemscore.Rot.Weighted>
3.4992

> <Gold.Chemscore.Internal.Correction.Weighted>
   9.000000E+99

> <Gold.Protein.RotatedTorsions>
[ 6907 6896 6895 6894 ] final  123.07 input  -60.11 | X-H torsion
[ 7974 7965 7964 7962 ] final  -14.46 input  175.53 | X-H torsion
[ 8008 7997 7996 7995 ] final -112.27 input   59.86 | X-H torsion
[ 10167 10162 10161 10158 ] final  138.32 input  -65.29 | X-H torsion
[ 10718 10713 10712 10709 ] final -159.22 input   66.30 | X-H torsion
[ 10763 10752 10751 10750 ] final   87.36 input  -60.55 | X-H torsion
[ 11005 11000 10999 10996 ] final    9.06 input  -57.11 | X-H torsion

> <Gold.Protein.ActiveResidues>
 VAL166  LYS551  ARG553  GLY616  TRP617  ASP618  TYR619  PRO620  LYS621  CYS622 
 ASP623  PHE694  ASN695  SER759  ASP760  ASP761  ALA762  ILE779  LEU786  VAL792 
 PHE793  MET794  SER795  GLU796  ALA797  LYS798  CYS799  TRP800  GLU811  SER814 

> <Gold.Protein.RotatedAtoms>
  152.4192  133.7088  159.6466 H   0  0  0  0  0  0  0  0  0  0  0  0  # atno 6907 bound_to 6896
  150.8068  133.8484  159.3207 H   0  0  0  0  0  0  0  0  0  0  0  0  # atno 6908 bound_to 6896
  151.6205  135.1034  160.0152 H   0  0  0  0  0  0  0  0  0  0  0  0  # atno 6909 bound_to 6896
  146.2073  140.3351  142.8402 H   0  0  0  0  0  0  0  0  0  0  0  0  # atno 7974 bound_to 7965
  155.0026  140.0394  157.2366 H   0  0  0  0  0  0  0  0  0  0  0  0  # atno 8008 bound_to 7997
  154.7531  140.2770  155.6253 H   0  0  0  0  0  0  0  0  0  0  0  0  # atno 8009 bound_to 7997
  156.2889  140.2643  156.2289 H   0  0  0  0  0  0  0  0  0  0  0  0  # atno 8010 bound_to 7997
  139.5115  144.6360  151.5695 H   0  0  0  0  0  0  0  0  0  0  0  0  # atno 10167 bound_to 10162
  156.5651  130.8664  151.2821 H   0  0  0  0  0  0  0  0  0  0  0  0  # atno 10718 bound_to 10713
  153.1660  135.4546  154.9838 H   0  0  0  0  0  0  0  0  0  0  0  0  # atno 10763 bound_to 10752
  154.7932  135.3228  154.7730 H   0  0  0  0  0  0  0  0  0  0  0  0  # atno 10764 bound_to 10752
  153.8213  135.6946  153.4881 H   0  0  0  0  0  0  0  0  0  0  0  0  # atno 10765 bound_to 10752
  140.5300  134.0476  155.7870 H   0  0  0  0  0  0  0  0  0  0  0  0  # atno 11005 bound_to 11000
  144.8825  140.7419  143.5978 LP  0  0  0  0  0  0  0  0  0  0  0  0  # atno 17320 bound_to 7965
  145.3271  139.1770  143.4556 LP  0  0  0  0  0  0  0  0  0  0  0  0  # atno 17321 bound_to 7965
  140.6109  143.9437  150.6453 LP  0  0  0  0  0  0  0  0  0  0  0  0  # atno 17342 bound_to 10162
  140.2680  143.3476  152.1264 LP  0  0  0  0  0  0  0  0  0  0  0  0  # atno 17343 bound_to 10162
  157.7360  130.9772  150.2114 LP  0  0  0  0  0  0  0  0  0  0  0  0  # atno 17370 bound_to 10713
  156.2764  130.3728  149.7979 LP  0  0  0  0  0  0  0  0  0  0  0  0  # atno 17371 bound_to 10713
  141.1287  133.9339  157.2582 LP  0  0  0  0  0  0  0  0  0  0  0  0  # atno 17394 bound_to 11000
  139.9559  135.0165  156.9128 LP  0  0  0  0  0  0  0  0  0  0  0  0  # atno 17395 bound_to 11000

$$$$
