AV-unprocessed.smi:438|AV-procd|sdf|2567|dock3
  -GOLD-   2262022543D 1   1.00000     0.00000
 Structure written by MMmdl.
 48 49  0  0  0  0  0  0  0  0  1 V2000
  148.8379  132.9963  153.4001 C   0  0  0  0  0  0  0  0  0  0  0  0
  149.4964  133.5143  154.6663 C   0  0  0  0  0  0  0  0  0  0  0  0
  149.7121  134.8804  154.6840 N   0  0  0  0  0  0  0  0  0  0  0  0
  150.2974  135.4535  155.8027 C   0  0  0  0  0  0  0  0  0  0  0  0
  150.4326  137.2514  155.5811 S   0  0  0  0  0  0  0  0  0  0  0  0
  151.8596  137.6443  156.6339 C   0  0  0  0  0  0  0  0  0  0  0  0
  152.0044  139.1442  156.8733 C   0  0  0  0  0  0  0  0  0  0  0  0
  152.4644  139.8636  155.9873 O   0  0  0  0  0  0  0  0  0  0  0  0
  151.6141  139.5941  158.0786 N   0  0  0  0  0  0  0  0  0  0  0  0
  151.6895  140.9671  158.5858 C   0  0  2  0  0  0  0  0  0  0  0  0
  151.1731  141.9928  157.5525 C   0  0  0  0  0  0  0  0  0  0  0  0
  151.1698  143.4130  158.1365 C   0  0  0  0  0  0  0  0  0  0  0  0
  152.5653  143.7992  158.6480 C   0  0  0  0  0  0  0  0  0  0  0  0
  153.0782  142.7855  159.6835 C   0  0  0  0  0  0  0  0  0  0  0  0
  153.0958  141.3484  159.1232 C   0  0  1  0  0  0  0  0  0  0  0  0
  153.6143  140.3615  160.1848 C   0  0  0  0  0  0  0  0  0  0  0  0
  150.6791  134.7737  156.8434 N   0  0  0  0  0  0  0  0  0  0  0  0
  150.5002  133.3825  156.8787 C   0  0  0  0  0  0  0  0  0  0  0  0
  150.8670  132.7308  157.8556 O   0  0  0  0  0  0  0  0  0  0  0  0
  149.8646  132.7348  155.7115 C   0  0  0  0  0  0  0  0  0  0  0  0
  149.6357  131.2265  155.7495 C   0  0  0  0  0  0  0  0  0  0  0  0
  150.3645  130.4996  154.6103 C   0  0  0  0  0  0  0  0  0  0  0  0
  150.0372  129.1273  154.6332 O   0  0  0  0  0  0  0  0  0  0  0  0
  149.4481  132.2147  152.9466 H   0  0  0  0  0  0  0  0  0  0  0  0
  148.7058  133.7886  152.6621 H   0  0  0  0  0  0  0  0  0  0  0  0
  147.8553  132.5814  153.6254 H   0  0  0  0  0  0  0  0  0  0  0  0
  152.7690  137.2600  156.1703 H   0  0  0  0  0  0  0  0  0  0  0  0
  151.7474  137.1372  157.5931 H   0  0  0  0  0  0  0  0  0  0  0  0
  151.2503  138.9080  158.7241 H   0  0  0  0  0  0  0  0  0  0  0  0
  151.0011  140.9905  159.4317 H   0  0  0  0  0  0  0  0  0  0  0  0
  151.7949  141.9808  156.6571 H   0  0  0  0  0  0  0  0  0  0  0  0
  150.1652  141.7271  157.2324 H   0  0  0  0  0  0  0  0  0  0  0  0
  150.8395  144.1256  157.3803 H   0  0  0  0  0  0  0  0  0  0  0  0
  150.4503  143.4725  158.9541 H   0  0  0  0  0  0  0  0  0  0  0  0
  153.2618  143.8506  157.8102 H   0  0  0  0  0  0  0  0  0  0  0  0
  152.5365  144.7964  159.0879 H   0  0  0  0  0  0  0  0  0  0  0  0
  154.0802  143.0718  160.0047 H   0  0  0  0  0  0  0  0  0  0  0  0
  152.4473  142.8272  160.5725 H   0  0  0  0  0  0  0  0  0  0  0  0
  153.8025  141.3357  158.2926 H   0  0  0  0  0  0  0  0  0  0  0  0
  152.9359  140.3038  161.0364 H   0  0  0  0  0  0  0  0  0  0  0  0
  154.5913  140.6682  160.5588 H   0  0  0  0  0  0  0  0  0  0  0  0
  153.7277  139.3561  159.7796 H   0  0  0  0  0  0  0  0  0  0  0  0
  149.4192  135.4189  153.8814 H   0  0  0  0  0  0  0  0  0  0  0  0
  148.5690  131.0099  155.6951 H   0  0  0  0  0  0  0  0  0  0  0  0
  149.9581  130.8324  156.7146 H   0  0  0  0  0  0  0  0  0  0  0  0
  150.0806  130.9163  153.6433 H   0  0  0  0  0  0  0  0  0  0  0  0
  151.4450  130.6070  154.7079 H   0  0  0  0  0  0  0  0  0  0  0  0
  149.2436  129.0159  155.1338 H   0  0  0  0  0  0  0  0  0  0  0  0
  1 24  1  0  0  0  0
  1 25  1  0  0  0  0
  1 26  1  0  0  0  0
  1  2  1  0  0  0  0
  2 20  2  0  0  0  0
  2  3  1  0  0  0  0
  3  4  1  0  0  0  0
  3 43  1  0  0  0  0
  4  5  1  0  0  0  0
  4 17  2  0  0  0  0
  5  6  1  0  0  0  0
  6  7  1  0  0  0  0
  6 27  1  0  0  0  0
  6 28  1  0  0  0  0
  7  8  2  0  0  0  0
  7  9  1  0  0  0  0
  9 10  1  0  0  0  0
  9 29  1  0  0  0  0
 10 15  1  0  0  0  0
 10 11  1  0  0  0  0
 10 30  1  0  0  0  0
 11 12  1  0  0  0  0
 11 31  1  0  0  0  0
 11 32  1  0  0  0  0
 12 13  1  0  0  0  0
 12 33  1  0  0  0  0
 12 34  1  0  0  0  0
 13 14  1  0  0  0  0
 13 35  1  0  0  0  0
 13 36  1  0  0  0  0
 14 15  1  0  0  0  0
 14 37  1  0  0  0  0
 14 38  1  0  0  0  0
 15 16  1  0  0  0  0
 15 39  1  0  0  0  0
 16 40  1  0  0  0  0
 16 41  1  0  0  0  0
 16 42  1  0  0  0  0
 17 18  1  0  0  0  0
 18 19  2  0  0  0  0
 18 20  1  0  0  0  0
 20 21  1  0  0  0  0
 21 22  1  0  0  0  0
 21 44  1  0  0  0  0
 21 45  1  0  0  0  0
 22 23  1  0  0  0  0
 22 46  1  0  0  0  0
 22 47  1  0  0  0  0
 23 48  1  0  0  0  0
M  END
> <s_m_source_file>
AV-unprocessed.smi

> <i_m_source_file_index>
438

> <i_lp_mmshare_version>
43012

> <i_f3d_flags>
0

> <s_epik_input>
W09IXVtDSDJdW0NIMl1jMWMoW09IXSluYyhuYzFbQ0gzXSlTW0NIMl1DKD1PKVtOSF1bQ0BASF0yW0NIMl1bQ0gyXVtDSDJdW0NIMl1bQ0BIXTJbQ0gzXQ==

> <s_epik_cmdline>
J2VwaWtfcHl0aG9uJywgJy1waCcsICc3LjAnLCAnLXRuJywgJzgnLCAnLW1hJywgJzIwMCcsICctbWV0YWxfYmluZGluZycsICctaW1hZScsICc8aW5maWxlLm1hZT4nLCAnLW9tYWUnLCAnPG91dGZpbGUubWFlPic=

> <r_lp_tautomer_probability>
0.273662

> <r_epik_Ionization_Penalty>
0.0875285

> <r_epik_Ionization_Penalty_Charging>
0.0875254

> <r_epik_Ionization_Penalty_Neutral>
3.01536e-06

> <r_epik_State_Penalty>
0.985796

> <r_epik_Charging_Adjusted_Penalty>
1.07332

> <i_epik_Tot_Q>
0

> <i_epik_Tot_abs_Q>
0

> <r_epik_Metal_State_Penalty>
1.58101

> <b_epik_Metal_Only>
0

> <s_lp_Force_Field>
OPLS_2005

> <r_lp_Energy>
18.1285

> <b_lp_Chiralities_Consistent>
1

> <s_lp_Variant>
AV-unprocessed.smi:438-5

> <Gold.Version>
5.8.1

> <Gold.Id.Protein>
6NUR|6NUR_protein|mol2

> <Gold.PLP.Fitness>
48.6631

> <Gold.PLP.PLP>
-41.3126

> <Gold.PLP.part.hbond>
-3.0000

> <Gold.PLP.part.metal>
0.0000

> <Gold.PLP.part.buried>
-5.9879

> <Gold.PLP.part.nonpolar>
-32.0307

> <Gold.PLP.part.repulsive>
0.1222

> <Gold.PLP.ligand.clash>
0.0000

> <Gold.PLP.ligand.torsion>
0.8615

> <Gold.PLP.Chemscore.Hbond>
3.0000

> <Gold.PLP.Chemscore.CHOScore>
0.0000

> <Gold.PLP.Chemscore.Metal>
0.0000

> <Gold.Chemscore.Hbonds>
donor molecule, donor type, donor heavy atom, donor atom, acceptor molecule, acceptor atom, score
      L1  H     3    43       P1  7948  0.60
      P1  H  6896  6907       L1    19  1.00
      P1  H  7997  8008       L1     8  1.00

> <Gold.PLP.Chemscore.Internal.Correction>
0.0735

> <Gold.Rescore>
     Score         DG    S(hbond)    S(metal)    S(lipo)     H(rot)  DE(clash)    DE(int)     intcor
     17.27     -19.29       2.74        0.00     102.38       2.86       0.10       1.92       ----

> <Gold.Chemscore.Fitness>
17.2726

> <Gold.Chemscore.DG>
-19.2874

> <Gold.Chemscore.ZeroCoef>
-5.4800

> <Gold.Chemscore.Hbond>
2.7432

> <Gold.Chemscore.Metal>
0.0000

> <Gold.Chemscore.Lipo>
102.3776

> <Gold.Chemscore.Internal_Hbond>
0.0000

> <Gold.Chemscore.DEClash>
0.0990

> <Gold.Chemscore.DEInternal>
1.9159

> <Gold.Chemscore.Rot>
2.8645

> <Gold.Chemscore.Internal.Correction>
   9.000000E+99

> <Gold.Chemscore.Hbonds>
donor molecule, donor type, donor heavy atom, donor atom, acceptor molecule, acceptor atom, score
      L1  H     3    43       P1  7948  0.21
      P1  H  6896  6907       L1    19  0.94
      P1  H  7997  8008       L1     8  0.91

> <Gold.Chemscore.Hbond.Weighted>
-9.1624

> <Gold.Chemscore.Metal.Weighted>
-0.0000

> <Gold.Chemscore.Lipo.Weighted>
-11.9782

> <Gold.Chemscore.Internal_Hbond.Weighted>
0.0000

> <Gold.Chemscore.DEClash.Weighted>
0.0990

> <Gold.Chemscore.DEInternal.Weighted>
1.9159

> <Gold.Chemscore.Rot.Weighted>
7.3331

> <Gold.Chemscore.Internal.Correction.Weighted>
   9.000000E+99

> <Gold.Protein.RotatedTorsions>
[ 6907 6896 6895 6894 ] final -156.69 input  -60.11 | X-H torsion
[ 7974 7965 7964 7962 ] final   24.83 input  175.53 | X-H torsion
[ 8008 7997 7996 7995 ] final  -24.19 input   59.86 | X-H torsion
[ 10167 10162 10161 10158 ] final   30.07 input  -65.29 | X-H torsion
[ 10718 10713 10712 10709 ] final  -95.85 input   66.30 | X-H torsion
[ 10763 10752 10751 10750 ] final   37.86 input  -60.55 | X-H torsion
[ 11005 11000 10999 10996 ] final  116.60 input  -57.11 | X-H torsion

> <Gold.Protein.ActiveResidues>
 VAL166  LYS551  ARG553  GLY616  TRP617  ASP618  TYR619  PRO620  LYS621  CYS622 
 ASP623  PHE694  ASN695  SER759  ASP760  ASP761  ALA762  ILE779  LEU786  VAL792 
 PHE793  MET794  SER795  GLU796  ALA797  LYS798  CYS799  TRP800  GLU811  SER814 

> <Gold.Protein.RotatedAtoms>
  151.2915  133.4163  159.2633 H   0  0  0  0  0  0  0  0  0  0  0  0  # atno 6907 bound_to 6896
  151.0273  134.9514  159.8102 H   0  0  0  0  0  0  0  0  0  0  0  0  # atno 6908 bound_to 6896
  152.5338  134.2877  159.9084 H   0  0  0  0  0  0  0  0  0  0  0  0  # atno 6909 bound_to 6896
  146.1918  139.7550  142.8826 H   0  0  0  0  0  0  0  0  0  0  0  0  # atno 7974 bound_to 7965
  154.4543  140.1960  156.0427 H   0  0  0  0  0  0  0  0  0  0  0  0  # atno 8008 bound_to 7997
  156.0713  140.3284  155.7551 H   0  0  0  0  0  0  0  0  0  0  0  0  # atno 8009 bound_to 7997
  155.5259  140.0574  157.2889 H   0  0  0  0  0  0  0  0  0  0  0  0  # atno 8010 bound_to 7997
  140.4710  144.0763  150.6237 H   0  0  0  0  0  0  0  0  0  0  0  0  # atno 10167 bound_to 10162
  156.0051  130.5126  150.6138 H   0  0  0  0  0  0  0  0  0  0  0  0  # atno 10718 bound_to 10713
  153.0022  135.6266  154.2212 H   0  0  0  0  0  0  0  0  0  0  0  0  # atno 10763 bound_to 10752
  154.1955  135.2806  155.3009 H   0  0  0  0  0  0  0  0  0  0  0  0  # atno 10764 bound_to 10752
  154.5725  135.5672  153.7168 H   0  0  0  0  0  0  0  0  0  0  0  0  # atno 10765 bound_to 10752
  139.9046  134.9600  156.7223 H   0  0  0  0  0  0  0  0  0  0  0  0  # atno 11005 bound_to 11000
  145.3768  141.0352  143.3200 LP  0  0  0  0  0  0  0  0  0  0  0  0  # atno 17320 bound_to 7965
  144.8502  139.5334  143.6860 LP  0  0  0  0  0  0  0  0  0  0  0  0  # atno 17321 bound_to 7965
  140.3977  143.2720  151.9985 LP  0  0  0  0  0  0  0  0  0  0  0  0  # atno 17342 bound_to 10162
  139.4818  144.6024  151.7582 LP  0  0  0  0  0  0  0  0  0  0  0  0  # atno 17343 bound_to 10162
  157.3966  131.0803  151.1346 LP  0  0  0  0  0  0  0  0  0  0  0  0  # atno 17370 bound_to 10713
  157.2021  130.6399  149.5742 LP  0  0  0  0  0  0  0  0  0  0  0  0  # atno 17371 bound_to 10713
  140.6991  133.9322  155.8013 LP  0  0  0  0  0  0  0  0  0  0  0  0  # atno 17394 bound_to 11000
  141.0385  134.0655  157.3930 LP  0  0  0  0  0  0  0  0  0  0  0  0  # atno 17395 bound_to 11000

$$$$
