AV-unprocessed.smi:240|AV-procd|sdf|1838|dock2
  -GOLD-   2262020443D 1   1.00000     0.00000
 Structure written by MMmdl.
 55 59  0  0  0  0  0  0  0  0  1 V2000
  150.0069  139.5194  153.5513 O   0  0  0  0  0  0  0  0  0  0  0  0
  148.7326  138.9274  153.7262 C   0  0  2  0  0  0  0  0  0  0  0  0
  147.7355  140.0247  154.1139 C   0  0  0  0  0  0  0  0  0  0  0  0
  147.7467  140.0889  155.6457 C   0  0  0  0  0  0  0  0  0  0  0  0
  148.6211  138.9208  156.1161 C   0  0  0  0  0  0  0  0  0  0  0  0
  148.7245  137.9512  154.9243 C   0  0  2  0  0  0  0  0  0  0  0  0
  149.8850  136.9023  155.0144 C   0  0  1  0  0  0  0  0  0  0  0  0
  151.0781  137.4756  155.8246 C   0  0  0  0  0  0  0  0  0  0  0  0
  152.1250  136.5212  155.9522 O   0  0  0  0  0  0  0  0  0  0  0  0
  151.7003  135.3658  156.6577 C   0  0  0  0  0  0  0  0  0  0  0  0
  150.5800  134.6959  155.8563 C   0  0  0  0  0  0  0  0  0  0  0  0
  149.4803  135.6312  155.6398 N   0  0  0  0  0  0  0  0  0  0  0  0
  148.4178  134.9882  155.1104 C   0  0  0  0  0  0  0  0  0  0  0  0
  147.1891  135.4728  155.4146 N   0  0  0  0  0  0  0  0  0  0  0  0
  146.0983  134.8862  154.9123 C   0  0  0  0  0  0  0  0  0  0  0  0
  146.0168  133.8247  154.1071 N   0  0  0  0  0  0  0  0  0  0  0  0
  147.2521  133.3254  153.8140 C   0  0  0  0  0  0  0  0  0  0  0  0
  148.4969  133.8418  154.2702 C   0  0  0  0  0  0  0  0  0  0  0  0
  149.5426  133.0841  153.7578 N   0  0  0  0  0  0  0  0  0  0  0  0
  148.9492  132.1734  153.0357 C   0  0  0  0  0  0  0  0  0  0  0  0
  147.5736  132.2352  153.0238 N   0  0  0  0  0  0  0  0  0  0  0  0
  146.6665  131.3515  152.3062 C   0  0  0  0  0  0  0  0  0  0  0  0
  146.1500  131.9231  150.9603 C   0  0  2  0  0  0  0  0  0  0  0  0
  147.2293  132.0236  150.0498 O   0  0  0  0  0  0  0  0  0  0  0  0
  145.4665  133.2883  151.0764 C   0  0  0  0  0  0  0  0  0  0  0  0
  143.9862  132.9357  151.0617 C   0  0  0  0  0  0  0  0  0  0  0  0
  143.9364  131.8867  150.1120 O   0  0  0  0  0  0  0  0  0  0  0  0
  145.0468  131.0318  150.3535 C   0  0  0  0  0  0  0  0  0  0  0  0
  150.1420  139.6771  152.6289 H   0  0  0  0  0  0  0  0  0  0  0  0
  148.4286  138.4603  152.7911 H   0  0  0  0  0  0  0  0  0  0  0  0
  147.9636  140.9864  153.6524 H   0  0  0  0  0  0  0  0  0  0  0  0
  146.7378  139.7392  153.7780 H   0  0  0  0  0  0  0  0  0  0  0  0
  148.1440  141.0391  156.0042 H   0  0  0  0  0  0  0  0  0  0  0  0
  146.7315  139.9924  156.0322 H   0  0  0  0  0  0  0  0  0  0  0  0
  149.6122  139.2979  156.3731 H   0  0  0  0  0  0  0  0  0  0  0  0
  148.2087  138.4465  157.0072 H   0  0  0  0  0  0  0  0  0  0  0  0
  147.7829  137.3995  154.8931 H   0  0  0  0  0  0  0  0  0  0  0  0
  150.2533  136.6873  154.0110 H   0  0  0  0  0  0  0  0  0  0  0  0
  151.5055  138.3451  155.3263 H   0  0  0  0  0  0  0  0  0  0  0  0
  150.7556  137.8036  156.8145 H   0  0  0  0  0  0  0  0  0  0  0  0
  152.5439  134.6849  156.7701 H   0  0  0  0  0  0  0  0  0  0  0  0
  151.3639  135.6316  157.6612 H   0  0  0  0  0  0  0  0  0  0  0  0
  150.9728  134.3545  154.8981 H   0  0  0  0  0  0  0  0  0  0  0  0
  150.2231  133.8144  156.3913 H   0  0  0  0  0  0  0  0  0  0  0  0
  145.1559  135.3322  155.1941 H   0  0  0  0  0  0  0  0  0  0  0  0
  149.5037  131.4230  152.4910 H   0  0  0  0  0  0  0  0  0  0  0  0
  147.1812  130.4048  152.1362 H   0  0  0  0  0  0  0  0  0  0  0  0
  145.8261  131.1253  152.9638 H   0  0  0  0  0  0  0  0  0  0  0  0
  147.9002  131.4116  150.3113 H   0  0  0  0  0  0  0  0  0  0  0  0
  145.7486  133.8638  151.9562 H   0  0  0  0  0  0  0  0  0  0  0  0
  145.6849  133.9058  150.2033 H   0  0  0  0  0  0  0  0  0  0  0  0
  143.6575  132.5724  152.0369 H   0  0  0  0  0  0  0  0  0  0  0  0
  143.3539  133.7748  150.7710 H   0  0  0  0  0  0  0  0  0  0  0  0
  145.3506  130.5334  149.4320 H   0  0  0  0  0  0  0  0  0  0  0  0
  144.7350  130.2563  151.0546 H   0  0  0  0  0  0  0  0  0  0  0  0
  1  2  1  0  0  0  0
  1 29  1  0  0  0  0
  2  6  1  0  0  0  0
  2  3  1  0  0  0  0
  2 30  1  0  0  0  0
  3  4  1  0  0  0  0
  3 31  1  0  0  0  0
  3 32  1  0  0  0  0
  4  5  1  0  0  0  0
  4 33  1  0  0  0  0
  4 34  1  0  0  0  0
  5  6  1  0  0  0  0
  5 35  1  0  0  0  0
  5 36  1  0  0  0  0
  6  7  1  0  0  0  0
  6 37  1  0  0  0  0
  7 12  1  0  0  0  0
  7  8  1  0  0  0  0
  7 38  1  0  0  0  0
  8  9  1  0  0  0  0
  8 39  1  0  0  0  0
  8 40  1  0  0  0  0
  9 10  1  0  0  0  0
 10 11  1  0  0  0  0
 10 41  1  0  0  0  0
 10 42  1  0  0  0  0
 11 12  1  0  0  0  0
 11 43  1  0  0  0  0
 11 44  1  0  0  0  0
 12 13  1  0  0  0  0
 13 18  1  0  0  0  0
 13 14  2  0  0  0  0
 14 15  1  0  0  0  0
 15 16  2  0  0  0  0
 15 45  1  0  0  0  0
 16 17  1  0  0  0  0
 17 21  1  0  0  0  0
 17 18  2  0  0  0  0
 18 19  1  0  0  0  0
 19 20  2  0  0  0  0
 20 21  1  0  0  0  0
 20 46  1  0  0  0  0
 21 22  1  0  0  0  0
 22 23  1  0  0  0  0
 22 47  1  0  0  0  0
 22 48  1  0  0  0  0
 23 28  1  0  0  0  0
 23 24  1  0  0  0  0
 23 25  1  0  0  0  0
 24 49  1  0  0  0  0
 25 26  1  0  0  0  0
 25 50  1  0  0  0  0
 25 51  1  0  0  0  0
 26 27  1  0  0  0  0
 26 52  1  0  0  0  0
 26 53  1  0  0  0  0
 27 28  1  0  0  0  0
 28 54  1  0  0  0  0
 28 55  1  0  0  0  0
M  END
> <s_m_source_file>
AV-unprocessed.smi

> <i_m_source_file_index>
240

> <i_lp_mmshare_version>
43012

> <i_f3d_flags>
0

> <s_epik_input>
W09IXVtDQEBIXTFbQ0gyXVtDSDJdW0NIMl1bQ0BIXTFbQ0BASF0yW0NIMl1PW0NIMl1bQ0gyXU4yYyhuW2NIXW4zKWMoYzM0KW5bY0hdbjRbQ0gyXVtDQEBdNShbT0hdKVtDSDJdW0NIMl1PW0NIMl01

> <s_epik_cmdline>
J2VwaWtfcHl0aG9uJywgJy1waCcsICc3LjAnLCAnLXRuJywgJzgnLCAnLW1hJywgJzIwMCcsICctbWV0YWxfYmluZGluZycsICctaW1hZScsICc8aW5maWxlLm1hZT4nLCAnLW9tYWUnLCAnPG91dGZpbGUubWFlPic=

> <r_lp_tautomer_probability>
1

> <r_epik_Ionization_Penalty>
0.000130618

> <r_epik_Ionization_Penalty_Charging>
0

> <r_epik_Ionization_Penalty_Neutral>
0.000130618

> <r_epik_State_Penalty>
-0

> <r_epik_Charging_Adjusted_Penalty>
0

> <i_epik_Tot_Q>
0

> <i_epik_Tot_abs_Q>
0

> <r_epik_Metal_State_Penalty>
-0

> <b_epik_Metal_Only>
0

> <s_lp_Force_Field>
OPLS_2005

> <r_lp_Energy>
64.4166

> <b_lp_Chiralities_Consistent>
1

> <s_lp_Variant>
AV-unprocessed.smi:240-15

> <Gold.Version>
5.8.1

> <Gold.Id.Protein>
6NUR|6NUR_protein|mol2

> <Gold.PLP.Fitness>
40.5491

> <Gold.PLP.PLP>
-33.0434

> <Gold.PLP.part.hbond>
-4.1512

> <Gold.PLP.part.metal>
0.0000

> <Gold.PLP.part.buried>
-6.0158

> <Gold.PLP.part.nonpolar>
-24.7099

> <Gold.PLP.part.repulsive>
0.5729

> <Gold.PLP.ligand.clash>
0.0000

> <Gold.PLP.ligand.torsion>
1.7197

> <Gold.PLP.Chemscore.Hbond>
2.5200

> <Gold.PLP.Chemscore.CHOScore>
1.0000

> <Gold.PLP.Chemscore.Metal>
0.0000

> <Gold.Chemscore.Hbonds>
donor molecule, donor type, donor heavy atom, donor atom, acceptor molecule, acceptor atom, score
      L1  H     1    29       P1  7957  1.00
      L1  H    24    49       P1 10747  0.18
      P1  H 10752 10763       L1     9  0.61
      P1  H 10785 10796       L1    27  0.03
      L1  C    20    46       P1 10747  0.70

> <Gold.PLP.Chemscore.Internal.Correction>
0.3851

> <Gold.Rescore>
     Score         DG    S(hbond)    S(metal)    S(lipo)     H(rot)  DE(clash)    DE(int)     intcor
      8.64     -13.20       2.01        0.00      74.32       3.00       0.06       4.49       ----

> <Gold.Chemscore.Fitness>
8.6445

> <Gold.Chemscore.DG>
-13.2008

> <Gold.Chemscore.ZeroCoef>
-5.4800

> <Gold.Chemscore.Hbond>
2.0107

> <Gold.Chemscore.Metal>
0.0000

> <Gold.Chemscore.Lipo>
74.3174

> <Gold.Chemscore.Internal_Hbond>
0.0000

> <Gold.Chemscore.DEClash>
0.0648

> <Gold.Chemscore.DEInternal>
4.4916

> <Gold.Chemscore.Rot>
3.0039

> <Gold.Chemscore.Internal.Correction>
   9.000000E+99

> <Gold.Chemscore.Hbonds>
donor molecule, donor type, donor heavy atom, donor atom, acceptor molecule, acceptor atom, score
      L1  H     1    29       P1  7957  0.91
      L1  H    24    49       P1 10747  0.19
      P1  H 10752 10763       L1     9  0.08

> <Gold.Chemscore.Hbond.Weighted>
-6.7156

> <Gold.Chemscore.Metal.Weighted>
-0.0000

> <Gold.Chemscore.Lipo.Weighted>
-8.6951

> <Gold.Chemscore.Internal_Hbond.Weighted>
0.0000

> <Gold.Chemscore.DEClash.Weighted>
0.0648

> <Gold.Chemscore.DEInternal.Weighted>
4.4916

> <Gold.Chemscore.Rot.Weighted>
7.6899

> <Gold.Chemscore.Internal.Correction.Weighted>
   9.000000E+99

> <Gold.Protein.RotatedTorsions>
[ 6907 6896 6895 6894 ] final -123.28 input  -60.11 | X-H torsion
[ 7974 7965 7964 7962 ] final  123.89 input  175.53 | X-H torsion
[ 8008 7997 7996 7995 ] final  176.80 input   59.86 | X-H torsion
[ 10167 10162 10161 10158 ] final  -67.02 input  -65.29 | X-H torsion
[ 10718 10713 10712 10709 ] final -108.43 input   66.30 | X-H torsion
[ 10763 10752 10751 10750 ] final   59.82 input  -60.55 | X-H torsion
[ 11005 11000 10999 10996 ] final   69.49 input  -57.11 | X-H torsion

> <Gold.Protein.ActiveResidues>
 VAL166  LYS551  ARG553  GLY616  TRP617  ASP618  TYR619  PRO620  LYS621  CYS622 
 ASP623  PHE694  ASN695  SER759  ASP760  ASP761  ALA762  ILE779  LEU786  VAL792 
 PHE793  MET794  SER795  GLU796  ALA797  LYS798  CYS799  TRP800  GLU811  SER814 

> <Gold.Protein.RotatedAtoms>
  150.8656  133.7580  159.2977 H   0  0  0  0  0  0  0  0  0  0  0  0  # atno 6907 bound_to 6896
  151.5208  135.1065  159.9887 H   0  0  0  0  0  0  0  0  0  0  0  0  # atno 6908 bound_to 6896
  152.4658  133.7876  159.6940 H   0  0  0  0  0  0  0  0  0  0  0  0  # atno 6909 bound_to 6896
  145.0907  139.3589  143.4862 H   0  0  0  0  0  0  0  0  0  0  0  0  # atno 7974 bound_to 7965
  156.0726  140.1374  156.9811 H   0  0  0  0  0  0  0  0  0  0  0  0  # atno 8008 bound_to 7997
  154.4540  140.0969  156.6753 H   0  0  0  0  0  0  0  0  0  0  0  0  # atno 8009 bound_to 7997
  155.5205  140.3456  155.4408 H   0  0  0  0  0  0  0  0  0  0  0  0  # atno 8010 bound_to 7997
  140.5614  143.2313  151.6721 H   0  0  0  0  0  0  0  0  0  0  0  0  # atno 10167 bound_to 10162
  156.0485  130.5712  150.7960 H   0  0  0  0  0  0  0  0  0  0  0  0  # atno 10718 bound_to 10713
  152.9904  135.5558  154.5775 H   0  0  0  0  0  0  0  0  0  0  0  0  # atno 10763 bound_to 10752
  154.5163  135.2805  155.1302 H   0  0  0  0  0  0  0  0  0  0  0  0  # atno 10764 bound_to 10752
  154.2674  135.6369  153.5350 H   0  0  0  0  0  0  0  0  0  0  0  0  # atno 10765 bound_to 10752
  139.9651  134.6995  156.0563 H   0  0  0  0  0  0  0  0  0  0  0  0  # atno 11005 bound_to 11000
  146.3531  140.0740  142.8621 LP  0  0  0  0  0  0  0  0  0  0  0  0  # atno 17320 bound_to 7965
  145.1069  140.9381  143.4679 LP  0  0  0  0  0  0  0  0  0  0  0  0  # atno 17321 bound_to 7965
  139.5072  144.3655  152.0521 LP  0  0  0  0  0  0  0  0  0  0  0  0  # atno 17342 bound_to 10162
  140.2782  144.3889  150.6128 LP  0  0  0  0  0  0  0  0  0  0  0  0  # atno 17343 bound_to 10162
  157.5387  131.0940  150.9857 LP  0  0  0  0  0  0  0  0  0  0  0  0  # atno 17370 bound_to 10713
  157.0145  130.5650  149.5324 LP  0  0  0  0  0  0  0  0  0  0  0  0  # atno 17371 bound_to 10713
  141.1330  133.6582  156.3516 LP  0  0  0  0  0  0  0  0  0  0  0  0  # atno 17394 bound_to 11000
  140.5415  134.6116  157.5381 LP  0  0  0  0  0  0  0  0  0  0  0  0  # atno 17395 bound_to 11000

$$$$
