AV-unprocessed.smi:568|AV-procd|sdf|2957|dock8
  -GOLD-   2262023463D 1   1.00000     0.00000
 Structure written by MMmdl.
 35 36  0  0  0  0  0  0  0  0  1 V2000
  151.0595  131.1270  155.9002 C   0  0  0  0  0  0  0  0  0  0  0  0
  150.6245  132.5591  156.0241 C   0  0  0  0  0  0  0  0  0  0  0  0
  150.8256  133.2026  157.1617 N   0  0  0  0  0  0  0  0  0  0  0  0
  150.3226  134.4923  156.9666 O   0  0  0  0  0  0  0  0  0  0  0  0
  149.8338  134.5767  155.7035 C   0  0  0  0  0  0  0  0  0  0  0  0
  149.2479  135.8882  155.3020 C   0  0  0  0  0  0  0  0  0  0  0  0
  149.9943  133.3855  155.0493 C   0  0  0  0  0  0  0  0  0  0  0  0
  149.6001  133.0215  153.6400 C   0  0  0  0  0  0  0  0  0  0  0  0
  148.0809  132.8747  153.5501 C   0  0  0  0  0  0  0  0  0  0  0  0
  147.5062  131.9891  154.1825 O   0  0  0  0  0  0  0  0  0  0  0  0
  147.4444  133.7556  152.7655 N   0  0  0  0  0  0  0  0  0  0  0  0
  146.0008  133.8253  152.5892 C   0  0  0  0  0  0  0  0  0  0  0  0
  145.5336  132.7984  151.5450 C   0  0  2  0  0  0  0  0  0  0  0  0
  146.1952  132.9299  150.1864 C   0  0  0  0  0  0  0  0  0  0  0  0
  145.2274  132.1637  149.2898 C   0  0  0  0  0  0  0  0  0  0  0  0
  143.9395  132.3195  149.8801 O   0  0  0  0  0  0  0  0  0  0  0  0
  144.0586  132.9213  151.1660 C   0  0  0  0  0  0  0  0  0  0  0  0
  150.4546  130.5914  155.1686 H   0  0  0  0  0  0  0  0  0  0  0  0
  150.9675  130.5983  156.8494 H   0  0  0  0  0  0  0  0  0  0  0  0
  152.1000  131.0626  155.5819 H   0  0  0  0  0  0  0  0  0  0  0  0
  148.4559  135.7542  154.5654 H   0  0  0  0  0  0  0  0  0  0  0  0
  150.0110  136.5318  154.8647 H   0  0  0  0  0  0  0  0  0  0  0  0
  148.8204  136.4040  156.1621 H   0  0  0  0  0  0  0  0  0  0  0  0
  149.9256  133.7782  152.9253 H   0  0  0  0  0  0  0  0  0  0  0  0
  150.0698  132.0885  153.3263 H   0  0  0  0  0  0  0  0  0  0  0  0
  147.9983  134.4473  152.2818 H   0  0  0  0  0  0  0  0  0  0  0  0
  145.5149  133.6347  153.5470 H   0  0  0  0  0  0  0  0  0  0  0  0
  145.7158  134.8323  152.2790 H   0  0  0  0  0  0  0  0  0  0  0  0
  145.7106  131.7897  151.9228 H   0  0  0  0  0  0  0  0  0  0  0  0
  146.2378  133.9771  149.8833 H   0  0  0  0  0  0  0  0  0  0  0  0
  147.2076  132.5256  150.1576 H   0  0  0  0  0  0  0  0  0  0  0  0
  145.2411  132.5229  148.2607 H   0  0  0  0  0  0  0  0  0  0  0  0
  145.4778  131.1022  149.2812 H   0  0  0  0  0  0  0  0  0  0  0  0
  143.3997  132.4434  151.8915 H   0  0  0  0  0  0  0  0  0  0  0  0
  143.7654  133.9688  151.0826 H   0  0  0  0  0  0  0  0  0  0  0  0
  1  2  1  0  0  0  0
  1 18  1  0  0  0  0
  1 19  1  0  0  0  0
  1 20  1  0  0  0  0
  2  7  1  0  0  0  0
  2  3  2  0  0  0  0
  3  4  1  0  0  0  0
  4  5  1  0  0  0  0
  5  6  1  0  0  0  0
  5  7  2  0  0  0  0
  6 21  1  0  0  0  0
  6 22  1  0  0  0  0
  6 23  1  0  0  0  0
  7  8  1  0  0  0  0
  8  9  1  0  0  0  0
  8 24  1  0  0  0  0
  8 25  1  0  0  0  0
  9 10  2  0  0  0  0
  9 11  1  0  0  0  0
 11 12  1  0  0  0  0
 11 26  1  0  0  0  0
 12 13  1  0  0  0  0
 12 27  1  0  0  0  0
 12 28  1  0  0  0  0
 13 17  1  0  0  0  0
 13 14  1  0  0  0  0
 13 29  1  0  0  0  0
 14 15  1  0  0  0  0
 14 30  1  0  0  0  0
 14 31  1  0  0  0  0
 15 16  1  0  0  0  0
 15 32  1  0  0  0  0
 15 33  1  0  0  0  0
 16 17  1  0  0  0  0
 17 34  1  0  0  0  0
 17 35  1  0  0  0  0
M  END
> <s_m_source_file>
AV-unprocessed.smi

> <i_m_source_file_index>
568

> <i_lp_mmshare_version>
43012

> <i_f3d_flags>
0

> <s_epik_input>
W0NIM11jMW5vYyhbQ0gzXSljMVtDSDJdQyg9TylbTkhdW0NIMl1bQ0BASF0yW0NIMl1bQ0gyXU9bQ0gyXTI=

> <s_epik_cmdline>
J2VwaWtfcHl0aG9uJywgJy1waCcsICc3LjAnLCAnLXRuJywgJzgnLCAnLW1hJywgJzIwMCcsICctbWV0YWxfYmluZGluZycsICctaW1hZScsICc8aW5maWxlLm1hZT4nLCAnLW9tYWUnLCAnPG91dGZpbGUubWFlPic=

> <r_lp_tautomer_probability>
1

> <r_epik_Ionization_Penalty>
2.07075e-08

> <r_epik_Ionization_Penalty_Charging>
0

> <r_epik_Ionization_Penalty_Neutral>
2.07075e-08

> <r_epik_State_Penalty>
-0

> <r_epik_Charging_Adjusted_Penalty>
0

> <i_epik_Tot_Q>
0

> <i_epik_Tot_abs_Q>
0

> <r_epik_Metal_State_Penalty>
-0

> <b_epik_Metal_Only>
0

> <s_lp_Force_Field>
OPLS_2005

> <r_lp_Energy>
12.0647

> <b_lp_Chiralities_Consistent>
1

> <s_lp_Variant>
AV-unprocessed.smi:568-1

> <Gold.Version>
5.8.1

> <Gold.Id.Protein>
6NUR|6NUR_protein|mol2

> <Gold.PLP.Fitness>
34.4812

> <Gold.PLP.PLP>
-29.4650

> <Gold.PLP.part.hbond>
-2.3373

> <Gold.PLP.part.metal>
0.0000

> <Gold.PLP.part.buried>
-4.7695

> <Gold.PLP.part.nonpolar>
-22.1205

> <Gold.PLP.part.repulsive>
0.2315

> <Gold.PLP.ligand.clash>
0.0000

> <Gold.PLP.ligand.torsion>
0.3415

> <Gold.PLP.Chemscore.Hbond>
1.8960

> <Gold.PLP.Chemscore.CHOScore>
0.0000

> <Gold.PLP.Chemscore.Metal>
0.0000

> <Gold.Chemscore.Hbonds>
donor molecule, donor type, donor heavy atom, donor atom, acceptor molecule, acceptor atom, score
      L1  H    11    26       P1  7948  1.00
      P1  H  6896  6909       L1     3  0.33

> <Gold.PLP.Chemscore.Internal.Correction>
0.0111

> <Gold.Rescore>
     Score         DG    S(hbond)    S(metal)    S(lipo)     H(rot)  DE(clash)    DE(int)     intcor
     14.89     -15.44       1.81        0.00      67.44       1.56       0.10       0.45       ----

> <Gold.Chemscore.Fitness>
14.8882

> <Gold.Chemscore.DG>
-15.4381

> <Gold.Chemscore.ZeroCoef>
-5.4800

> <Gold.Chemscore.Hbond>
1.8111

> <Gold.Chemscore.Metal>
0.0000

> <Gold.Chemscore.Lipo>
67.4367

> <Gold.Chemscore.Internal_Hbond>
0.0000

> <Gold.Chemscore.DEClash>
0.1013

> <Gold.Chemscore.DEInternal>
0.4487

> <Gold.Chemscore.Rot>
1.5551

> <Gold.Chemscore.Internal.Correction>
   9.000000E+99

> <Gold.Chemscore.Hbonds>
donor molecule, donor type, donor heavy atom, donor atom, acceptor molecule, acceptor atom, score
      L1  H    11    26       P1  7948  0.24
      P1  H  6896  6909       L1     3  0.01

> <Gold.Chemscore.Hbond.Weighted>
-6.0490

> <Gold.Chemscore.Metal.Weighted>
-0.0000

> <Gold.Chemscore.Lipo.Weighted>
-7.8901

> <Gold.Chemscore.Internal_Hbond.Weighted>
0.0000

> <Gold.Chemscore.DEClash.Weighted>
0.1013

> <Gold.Chemscore.DEInternal.Weighted>
0.4487

> <Gold.Chemscore.Rot.Weighted>
3.9809

> <Gold.Chemscore.Internal.Correction.Weighted>
   9.000000E+99

> <Gold.Protein.RotatedTorsions>
[ 6907 6896 6895 6894 ] final  -14.65 input  -60.11 | X-H torsion
[ 7974 7965 7964 7962 ] final -126.27 input  175.53 | X-H torsion
[ 8008 7997 7996 7995 ] final   -1.75 input   59.86 | X-H torsion
[ 10167 10162 10161 10158 ] final -121.49 input  -65.29 | X-H torsion
[ 10718 10713 10712 10709 ] final -115.29 input   66.30 | X-H torsion
[ 10763 10752 10751 10750 ] final  -24.99 input  -60.55 | X-H torsion
[ 11005 11000 10999 10996 ] final   28.68 input  -57.11 | X-H torsion

> <Gold.Protein.ActiveResidues>
 VAL166  LYS551  ARG553  GLY616  TRP617  ASP618  TYR619  PRO620  LYS621  CYS622 
 ASP623  PHE694  ASN695  SER759  ASP760  ASP761  ALA762  ILE779  LEU786  VAL792 
 PHE793  MET794  SER795  GLU796  ALA797  LYS798  CYS799  TRP800  GLU811  SER814 

> <Gold.Protein.RotatedAtoms>
  151.3362  135.0853  159.9355 H   0  0  0  0  0  0  0  0  0  0  0  0  # atno 6907 bound_to 6896
  152.5223  133.9493  159.7674 H   0  0  0  0  0  0  0  0  0  0  0  0  # atno 6908 bound_to 6896
  150.9841  133.6162  159.2748 H   0  0  0  0  0  0  0  0  0  0  0  0  # atno 6909 bound_to 6896
  144.9890  140.7714  143.4566 H   0  0  0  0  0  0  0  0  0  0  0  0  # atno 7974 bound_to 7965
  154.6433  140.2551  155.7296 H   0  0  0  0  0  0  0  0  0  0  0  0  # atno 8008 bound_to 7997
  156.2540  140.2883  156.0757 H   0  0  0  0  0  0  0  0  0  0  0  0  # atno 8009 bound_to 7997
  155.1562  140.0383  157.2822 H   0  0  0  0  0  0  0  0  0  0  0  0  # atno 8010 bound_to 7997
  140.0244  143.5311  152.2205 H   0  0  0  0  0  0  0  0  0  0  0  0  # atno 10167 bound_to 10162
  156.0886  130.6073  150.8887 H   0  0  0  0  0  0  0  0  0  0  0  0  # atno 10718 bound_to 10713
  153.6927  135.6961  153.5085 H   0  0  0  0  0  0  0  0  0  0  0  0  # atno 10763 bound_to 10752
  153.2401  135.4309  155.0688 H   0  0  0  0  0  0  0  0  0  0  0  0  # atno 10764 bound_to 10752
  154.8368  135.3505  154.6468 H   0  0  0  0  0  0  0  0  0  0  0  0  # atno 10765 bound_to 10752
  140.3130  134.2628  155.7731 H   0  0  0  0  0  0  0  0  0  0  0  0  # atno 11005 bound_to 11000
  145.2312  139.2114  143.5042 LP  0  0  0  0  0  0  0  0  0  0  0  0  # atno 17320 bound_to 7965
  146.3427  140.2190  142.8591 LP  0  0  0  0  0  0  0  0  0  0  0  0  # atno 17321 bound_to 7965
  139.6118  144.7610  151.2936 LP  0  0  0  0  0  0  0  0  0  0  0  0  # atno 17342 bound_to 10162
  140.7329  143.6811  150.8000 LP  0  0  0  0  0  0  0  0  0  0  0  0  # atno 17343 bound_to 10162
  157.6028  131.0940  150.8930 LP  0  0  0  0  0  0  0  0  0  0  0  0  # atno 17370 bound_to 10713
  156.9084  130.5272  149.5281 LP  0  0  0  0  0  0  0  0  0  0  0  0  # atno 17371 bound_to 10713
  141.2104  133.7721  156.9935 LP  0  0  0  0  0  0  0  0  0  0  0  0  # atno 17394 bound_to 11000
  140.1008  134.9536  157.1920 LP  0  0  0  0  0  0  0  0  0  0  0  0  # atno 17395 bound_to 11000

$$$$
