AV-unprocessed.smi:3287|AV-procd|sdf|12598|dock2
  -GOLD-   2272018523D 1   1.00000     0.00000
 Structure written by MMmdl.
 43 44  0  0  0  0  0  0  0  0  2 V2000
  151.3338  141.9947  157.1261 C   0  0  0  0  0  0  0  0  0  0  0  0
  150.7284  141.2902  155.9009 C   0  0  2  0  0  0  0  0  0  0  0  0
  149.1913  141.4002  155.8775 C   0  0  0  0  0  0  0  0  0  0  0  0
  148.5985  140.7705  154.6068 C   0  0  0  0  0  0  0  0  0  0  0  0
  149.0432  139.3034  154.4353 C   0  0  1  0  0  0  0  0  0  0  0  0
  148.5352  138.7256  153.1713 N   0  3  0  0  0  0  0  0  0  0  0  0
  147.1322  138.2584  153.2042 C   0  0  0  0  0  0  0  0  0  0  0  0
  146.5769  138.0531  151.7839 C   0  0  2  0  0  0  0  0  0  0  0  0
  146.1471  139.3024  151.2788 O   0  0  0  0  0  0  0  0  0  0  0  0
  145.4547  137.0271  151.7741 C   0  0  0  0  0  0  0  0  0  0  0  0
  144.3010  137.2206  152.5623 C   0  0  0  0  0  0  0  0  0  0  0  0
  143.2835  136.2463  152.5188 C   0  0  0  0  0  0  0  0  0  0  0  0
  143.3537  135.1345  151.7563 N   0  0  0  0  0  0  0  0  0  0  0  0
  144.4587  134.9547  151.0018 C   0  0  0  0  0  0  0  0  0  0  0  0
  145.5329  135.8664  150.9739 C   0  0  0  0  0  0  0  0  0  0  0  0
  150.5817  139.2048  154.4669 C   0  0  0  0  0  0  0  0  0  0  0  0
  151.1959  139.8209  155.7419 C   0  0  2  0  0  0  0  0  0  0  0  0
  150.9436  138.9386  156.9814 C   0  0  0  0  0  0  0  0  0  0  0  0
  150.9553  141.5802  158.0606 H   0  0  0  0  0  0  0  0  0  0  0  0
  151.0924  143.0580  157.1213 H   0  0  0  0  0  0  0  0  0  0  0  0
  152.4206  141.9064  157.1343 H   0  0  0  0  0  0  0  0  0  0  0  0
  151.0968  141.8320  155.0282 H   0  0  0  0  0  0  0  0  0  0  0  0
  148.7653  140.9207  156.7593 H   0  0  0  0  0  0  0  0  0  0  0  0
  148.8952  142.4486  155.9311 H   0  0  0  0  0  0  0  0  0  0  0  0
  147.5120  140.8414  154.6536 H   0  0  0  0  0  0  0  0  0  0  0  0
  148.9079  141.3531  153.7378 H   0  0  0  0  0  0  0  0  0  0  0  0
  148.6435  138.7096  155.2583 H   0  0  0  0  0  0  0  0  0  0  0  0
  148.6350  139.4097  152.4346 H   0  0  0  0  0  0  0  0  0  0  0  0
  147.0935  137.3149  153.7503 H   0  0  0  0  0  0  0  0  0  0  0  0
  146.5102  138.9691  153.7487 H   0  0  0  0  0  0  0  0  0  0  0  0
  147.3765  137.6966  151.1326 H   0  0  0  0  0  0  0  0  0  0  0  0
  145.2334  139.4148  151.4955 H   0  0  0  0  0  0  0  0  0  0  0  0
  144.1917  138.0936  153.1886 H   0  0  0  0  0  0  0  0  0  0  0  0
  142.3890  136.3642  153.1123 H   0  0  0  0  0  0  0  0  0  0  0  0
  144.4877  134.0579  150.4007 H   0  0  0  0  0  0  0  0  0  0  0  0
  146.3939  135.6745  150.3502 H   0  0  0  0  0  0  0  0  0  0  0  0
  150.8924  138.1634  154.3727 H   0  0  0  0  0  0  0  0  0  0  0  0
  150.9919  139.7186  153.5959 H   0  0  0  0  0  0  0  0  0  0  0  0
  152.2768  139.8374  155.5954 H   0  0  0  0  0  0  0  0  0  0  0  0
  149.8904  138.9064  157.2586 H   0  0  0  0  0  0  0  0  0  0  0  0
  151.5014  139.2969  157.8464 H   0  0  0  0  0  0  0  0  0  0  0  0
  151.2667  137.9130  156.8008 H   0  0  0  0  0  0  0  0  0  0  0  0
  149.1117  137.9280  152.9447 H   0  0  0  0  0  0  0  0  0  0  0  0
  1  2  1  0  0  0  0
  1 19  1  0  0  0  0
  1 20  1  0  0  0  0
  1 21  1  0  0  0  0
  2 17  1  0  0  0  0
  2  3  1  0  0  0  0
  2 22  1  0  0  0  0
  3  4  1  0  0  0  0
  3 23  1  0  0  0  0
  3 24  1  0  0  0  0
  4  5  1  0  0  0  0
  4 25  1  0  0  0  0
  4 26  1  0  0  0  0
  5  6  1  0  0  0  0
  5 16  1  0  0  0  0
  5 27  1  0  0  0  0
  6  7  1  0  0  0  0
  6 28  1  0  0  0  0
  6 43  1  0  0  0  0
  7  8  1  0  0  0  0
  7 29  1  0  0  0  0
  7 30  1  0  0  0  0
  8  9  1  0  0  0  0
  8 10  1  0  0  0  0
  8 31  1  0  0  0  0
  9 32  1  0  0  0  0
 10 15  1  0  0  0  0
 10 11  2  0  0  0  0
 11 12  1  0  0  0  0
 11 33  1  0  0  0  0
 12 13  2  0  0  0  0
 12 34  1  0  0  0  0
 13 14  1  0  0  0  0
 14 15  2  0  0  0  0
 14 35  1  0  0  0  0
 15 36  1  0  0  0  0
 16 17  1  0  0  0  0
 16 37  1  0  0  0  0
 16 38  1  0  0  0  0
 17 18  1  0  0  0  0
 17 39  1  0  0  0  0
 18 40  1  0  0  0  0
 18 41  1  0  0  0  0
 18 42  1  0  0  0  0
M  CHG  1   6   1
M  END
> <s_m_source_file>
AV-unprocessed.smi

> <i_m_source_file_index>
3287

> <i_lp_mmshare_version>
43012

> <i_f3d_flags>
0

> <s_epik_input>
W0NIM11bQ0BASF0xW0NIMl1bQ0gyXVtDQEhdKFtDSDJdW0NASF0xW0NIM10pW05IXVtDSDJdW0NASF0oW09IXSljMltjSF1bY0hdbltjSF1bY0hdMg==

> <s_epik_cmdline>
J2VwaWtfcHl0aG9uJywgJy1waCcsICc3LjAnLCAnLXRuJywgJzgnLCAnLW1hJywgJzIwMCcsICctbWV0YWxfYmluZGluZycsICctaW1hZScsICc8aW5maWxlLm1hZT4nLCAnLW9tYWUnLCAnPG91dGZpbGUubWFlPic=

> <r_lp_tautomer_probability>
1

> <r_epik_Ionization_Penalty>
0.00537262

> <r_epik_Ionization_Penalty_Charging>
0.00321624

> <r_epik_Ionization_Penalty_Neutral>
0.00215638

> <r_epik_State_Penalty>
-0

> <r_epik_Charging_Adjusted_Penalty>
0.00321624

> <i_epik_Tot_Q>
1

> <i_epik_Tot_abs_Q>
1

> <r_epik_Metal_State_Penalty>
-0

> <b_epik_Metal_Only>
0

> <s_lp_Force_Field>
OPLS_2005

> <r_lp_Energy>
18.5341

> <b_lp_Chiralities_Consistent>
1

> <s_lp_Variant>
AV-unprocessed.smi:3287-9

> <Gold.Version>
5.8.1

> <Gold.Id.Protein>
6NUR|6NUR_protein|mol2

> <Gold.PLP.Fitness>
43.9406

> <Gold.PLP.PLP>
-34.7629

> <Gold.PLP.part.hbond>
-4.0000

> <Gold.PLP.part.metal>
0.0000

> <Gold.PLP.part.buried>
0.2667

> <Gold.PLP.part.nonpolar>
-31.4762

> <Gold.PLP.part.repulsive>
0.2628

> <Gold.PLP.ligand.clash>
0.0000

> <Gold.PLP.ligand.torsion>
0.5699

> <Gold.PLP.Chemscore.Hbond>
3.4320

> <Gold.PLP.Chemscore.CHOScore>
0.0000

> <Gold.PLP.Chemscore.Metal>
0.0000

> <Gold.Chemscore.Hbonds>
donor molecule, donor type, donor heavy atom, donor atom, acceptor molecule, acceptor atom, score
      L1  H     6    28       P1  7957  0.94
      L1  H     6    43       P1  7948  1.54
      L1  H     9    32       P1 10175  0.84

> <Gold.PLP.Chemscore.Internal.Correction>
0.0216

> <Gold.Rescore>
     Score         DG    S(hbond)    S(metal)    S(lipo)     H(rot)  DE(clash)    DE(int)     intcor
     17.55     -19.20       2.44        0.00      89.33       1.90       1.01       0.65       ----

> <Gold.Chemscore.Fitness>
17.5451

> <Gold.Chemscore.DG>
-19.2035

> <Gold.Chemscore.ZeroCoef>
-5.4800

> <Gold.Chemscore.Hbond>
2.4385

> <Gold.Chemscore.Metal>
0.0000

> <Gold.Chemscore.Lipo>
89.3331

> <Gold.Chemscore.Internal_Hbond>
0.0000

> <Gold.Chemscore.DEClash>
1.0083

> <Gold.Chemscore.DEInternal>
0.6501

> <Gold.Chemscore.Rot>
1.9035

> <Gold.Chemscore.Internal.Correction>
   9.000000E+99

> <Gold.Chemscore.Hbonds>
donor molecule, donor type, donor heavy atom, donor atom, acceptor molecule, acceptor atom, score
      L1  H     6    28       P1  7957  0.92
      L1  H     6    43       P1  7948  0.73
      L1  H     9    32       P1 10175  0.53

> <Gold.Chemscore.Hbond.Weighted>
-8.1444

> <Gold.Chemscore.Metal.Weighted>
-0.0000

> <Gold.Chemscore.Lipo.Weighted>
-10.4520

> <Gold.Chemscore.Internal_Hbond.Weighted>
0.0000

> <Gold.Chemscore.DEClash.Weighted>
1.0083

> <Gold.Chemscore.DEInternal.Weighted>
0.6501

> <Gold.Chemscore.Rot.Weighted>
4.8729

> <Gold.Chemscore.Internal.Correction.Weighted>
   9.000000E+99

> <Gold.Protein.RotatedTorsions>
[ 6907 6896 6895 6894 ] final  -24.19 input  -60.11 | X-H torsion
[ 7974 7965 7964 7962 ] final -156.36 input  175.53 | X-H torsion
[ 8008 7997 7996 7995 ] final  -88.95 input   59.86 | X-H torsion
[ 10167 10162 10161 10158 ] final  179.71 input  -65.29 | X-H torsion
[ 10718 10713 10712 10709 ] final   13.93 input   66.30 | X-H torsion
[ 10763 10752 10751 10750 ] final -161.37 input  -60.55 | X-H torsion
[ 11005 11000 10999 10996 ] final  168.84 input  -57.11 | X-H torsion

> <Gold.Protein.ActiveResidues>
 VAL166  LYS551  ARG553  GLY616  TRP617  ASP618  TYR619  PRO620  LYS621  CYS622 
 ASP623  PHE694  ASN695  SER759  ASP760  ASP761  ALA762  ILE779  LEU786  VAL792 
 PHE793  MET794  SER795  GLU796  ALA797  LYS798  CYS799  TRP800  GLU811  SER814 

> <Gold.Protein.RotatedAtoms>
  151.1930  135.0411  159.8840 H   0  0  0  0  0  0  0  0  0  0  0  0  # atno 6907 bound_to 6896
  152.5438  134.0934  159.8297 H   0  0  0  0  0  0  0  0  0  0  0  0  # atno 6908 bound_to 6896
  151.1065  133.5157  159.2639 H   0  0  0  0  0  0  0  0  0  0  0  0  # atno 6909 bound_to 6896
  144.7596  140.4120  143.5986 H   0  0  0  0  0  0  0  0  0  0  0  0  # atno 7974 bound_to 7965
  154.6808  140.0547  157.0264 H   0  0  0  0  0  0  0  0  0  0  0  0  # atno 8008 bound_to 7997
  155.0954  140.3223  155.4543 H   0  0  0  0  0  0  0  0  0  0  0  0  # atno 8009 bound_to 7997
  156.2693  140.2040  156.6081 H   0  0  0  0  0  0  0  0  0  0  0  0  # atno 8010 bound_to 7997
  139.5348  144.2529  152.0770 H   0  0  0  0  0  0  0  0  0  0  0  0  # atno 10167 bound_to 10162
  157.0318  130.6196  149.5736 H   0  0  0  0  0  0  0  0  0  0  0  0  # atno 10718 bound_to 10713
  154.7309  135.3046  154.8892 H   0  0  0  0  0  0  0  0  0  0  0  0  # atno 10763 bound_to 10752
  153.9735  135.6739  153.4752 H   0  0  0  0  0  0  0  0  0  0  0  0  # atno 10764 bound_to 10752
  153.0918  135.4956  154.8625 H   0  0  0  0  0  0  0  0  0  0  0  0  # atno 10765 bound_to 10752
  140.2915  134.7669  157.3842 H   0  0  0  0  0  0  0  0  0  0  0  0  # atno 11005 bound_to 11000
  145.6662  139.1590  143.2780 LP  0  0  0  0  0  0  0  0  0  0  0  0  # atno 17320 bound_to 7965
  146.1646  140.6738  142.9262 LP  0  0  0  0  0  0  0  0  0  0  0  0  # atno 17321 bound_to 7965
  140.1998  144.4669  150.6437 LP  0  0  0  0  0  0  0  0  0  0  0  0  # atno 17342 bound_to 10162
  140.6548  143.2234  151.5994 LP  0  0  0  0  0  0  0  0  0  0  0  0  # atno 17343 bound_to 10162
  156.0067  130.5154  150.7853 LP  0  0  0  0  0  0  0  0  0  0  0  0  # atno 17370 bound_to 10713
  157.5172  131.0929  151.0125 LP  0  0  0  0  0  0  0  0  0  0  0  0  # atno 17371 bound_to 10713
  140.1191  134.5243  155.8199 LP  0  0  0  0  0  0  0  0  0  0  0  0  # atno 17394 bound_to 11000
  141.2145  133.6750  156.6833 LP  0  0  0  0  0  0  0  0  0  0  0  0  # atno 17395 bound_to 11000

$$$$
