AV-unprocessed.smi:2083|AV-procd|sdf|8492|dock6
  -GOLD-   2272011203D 1   1.00000     0.00000
 Structure written by MMmdl.
 45 46  0  0  0  0  0  0  0  0  2 V2000
  152.3296  140.0579  155.6109 C   0  0  0  0  0  0  0  0  0  0  0  0
  151.8660  138.6632  155.3632 C   0  0  0  0  0  0  0  0  0  0  0  0
  150.8597  138.1374  154.6022 C   0  0  0  0  0  0  0  0  0  0  0  0
  150.9820  136.7411  154.8319 C   0  0  0  0  0  0  0  0  0  0  0  0
  150.0991  135.8206  154.2116 N   0  0  0  0  0  0  0  0  0  0  0  0
  149.8767  134.5412  154.5575 C   0  0  0  0  0  0  0  0  0  0  0  0
  150.4203  133.9523  155.4925 O   0  0  0  0  0  0  0  0  0  0  0  0
  148.9735  133.9653  153.7506 N   0  0  0  0  0  0  0  0  0  0  0  0
  148.4961  132.5911  153.8795 C   0  0  0  0  0  0  0  0  0  0  0  0
  146.9941  132.4975  154.2726 C   0  0  2  0  0  0  0  0  0  0  0  0
  146.8006  131.4505  155.3931 C   0  0  0  0  0  0  0  0  0  0  0  0
  146.0751  132.1922  153.1262 N   0  3  2  0  0  0  0  0  0  0  0  0
  146.2151  130.8368  152.5173 C   0  0  0  0  0  0  0  0  0  0  0  0
  145.1350  130.5769  151.4538 C   0  0  0  0  0  0  0  0  0  0  0  0
  145.1360  131.6640  150.3733 C   0  0  0  0  0  0  0  0  0  0  0  0
  145.0325  133.0629  151.0022 C   0  0  1  0  0  0  0  0  0  0  0  0
  143.6266  133.3783  151.5429 C   0  0  0  0  0  0  0  0  0  0  0  0
  146.1259  133.2485  152.0728 C   0  0  0  0  0  0  0  0  0  0  0  0
  151.9745  136.4412  155.6555 N   0  0  0  0  0  0  0  0  0  0  0  0
  152.5457  137.6716  156.0005 O   0  0  0  0  0  0  0  0  0  0  0  0
  151.8521  140.7560  154.9232 H   0  0  0  0  0  0  0  0  0  0  0  0
  153.4085  140.1371  155.4765 H   0  0  0  0  0  0  0  0  0  0  0  0
  152.0913  140.3684  156.6282 H   0  0  0  0  0  0  0  0  0  0  0  0
  150.1510  138.6693  153.9850 H   0  0  0  0  0  0  0  0  0  0  0  0
  149.5762  136.1777  153.4258 H   0  0  0  0  0  0  0  0  0  0  0  0
  148.5773  134.5188  153.0045 H   0  0  0  0  0  0  0  0  0  0  0  0
  148.6903  132.0929  152.9286 H   0  0  0  0  0  0  0  0  0  0  0  0
  149.1125  132.0939  154.6293 H   0  0  0  0  0  0  0  0  0  0  0  0
  146.7061  133.4746  154.6642 H   0  0  0  0  0  0  0  0  0  0  0  0
  147.4048  131.6807  156.2704 H   0  0  0  0  0  0  0  0  0  0  0  0
  147.0835  130.4544  155.0513 H   0  0  0  0  0  0  0  0  0  0  0  0
  145.7718  131.3945  155.7446 H   0  0  0  0  0  0  0  0  0  0  0  0
  147.2106  130.7304  152.0831 H   0  0  0  0  0  0  0  0  0  0  0  0
  146.1019  130.0570  153.2689 H   0  0  0  0  0  0  0  0  0  0  0  0
  145.2966  129.6015  150.9942 H   0  0  0  0  0  0  0  0  0  0  0  0
  144.1557  130.5278  151.9307 H   0  0  0  0  0  0  0  0  0  0  0  0
  146.0609  131.5947  149.7992 H   0  0  0  0  0  0  0  0  0  0  0  0
  144.3232  131.4983  149.6652 H   0  0  0  0  0  0  0  0  0  0  0  0
  145.2255  133.7874  150.2099 H   0  0  0  0  0  0  0  0  0  0  0  0
  143.3474  132.7201  152.3655 H   0  0  0  0  0  0  0  0  0  0  0  0
  142.8734  133.2710  150.7619 H   0  0  0  0  0  0  0  0  0  0  0  0
  143.5711  134.4035  151.9105 H   0  0  0  0  0  0  0  0  0  0  0  0
  146.0253  134.2429  152.5037 H   0  0  0  0  0  0  0  0  0  0  0  0
  147.1083  133.2237  151.5982 H   0  0  0  0  0  0  0  0  0  0  0  0
  145.1422  132.2145  153.5126 H   0  0  0  0  0  0  0  0  0  0  0  0
  1  2  1  0  0  0  0
  1 21  1  0  0  0  0
  1 22  1  0  0  0  0
  1 23  1  0  0  0  0
  2 20  1  0  0  0  0
  2  3  2  0  0  0  0
  3  4  1  0  0  0  0
  3 24  1  0  0  0  0
  4  5  1  0  0  0  0
  4 19  2  0  0  0  0
  5  6  1  0  0  0  0
  5 25  1  0  0  0  0
  6  7  2  0  0  0  0
  6  8  1  0  0  0  0
  8  9  1  0  0  0  0
  8 26  1  0  0  0  0
  9 10  1  0  0  0  0
  9 27  1  0  0  0  0
  9 28  1  0  0  0  0
 10 11  1  0  0  0  0
 10 12  1  0  0  0  0
 10 29  1  0  0  0  0
 11 30  1  0  0  0  0
 11 31  1  0  0  0  0
 11 32  1  0  0  0  0
 12 18  1  0  0  0  0
 12 13  1  0  0  0  0
 12 45  1  0  0  0  0
 13 14  1  0  0  0  0
 13 33  1  0  0  0  0
 13 34  1  0  0  0  0
 14 15  1  0  0  0  0
 14 35  1  0  0  0  0
 14 36  1  0  0  0  0
 15 16  1  0  0  0  0
 15 37  1  0  0  0  0
 15 38  1  0  0  0  0
 16 17  1  0  0  0  0
 16 18  1  0  0  0  0
 16 39  1  0  0  0  0
 17 40  1  0  0  0  0
 17 41  1  0  0  0  0
 17 42  1  0  0  0  0
 18 43  1  0  0  0  0
 18 44  1  0  0  0  0
 19 20  1  0  0  0  0
M  CHG  1  12   1
M  END
> <s_m_source_file>
AV-unprocessed.smi

> <i_m_source_file_index>
2083

> <i_lp_mmshare_version>
43012

> <i_f3d_flags>
0

> <s_epik_input>
W0NIM11jMVtjSF1jKG5vMSlbTkhdQyg9TylbTkhdW0NIMl1bQ0BIXShbQ0gzXSlOMltDSDJdW0NIMl1bQ0gyXVtDQEBIXShbQ0gzXSlbQ0gyXTI=

> <s_epik_cmdline>
J2VwaWtfcHl0aG9uJywgJy1waCcsICc3LjAnLCAnLXRuJywgJzgnLCAnLW1hJywgJzIwMCcsICctbWV0YWxfYmluZGluZycsICctaW1hZScsICc8aW5maWxlLm1hZT4nLCAnLW9tYWUnLCAnPG91dGZpbGUubWFlPic=

> <r_epik_Ionization_Penalty>
0.00216453

> <r_epik_Ionization_Penalty_Charging>
0.00212879

> <r_epik_Ionization_Penalty_Neutral>
3.57418e-05

> <r_epik_State_Penalty>
0.00146033

> <r_epik_Charging_Adjusted_Penalty>
0.00358912

> <i_epik_Tot_Q>
1

> <i_epik_Tot_abs_Q>
1

> <r_epik_Metal_State_Penalty>
0.0215827

> <b_epik_Metal_Only>
0

> <s_lp_Force_Field>
OPLS_2005

> <r_lp_Energy>
21.6248

> <b_lp_Chiralities_Consistent>
1

> <s_lp_Variant>
AV-unprocessed.smi:2083-3

> <Gold.Version>
5.8.1

> <Gold.Id.Protein>
6NUR|6NUR_protein|mol2

> <Gold.PLP.Fitness>
39.9354

> <Gold.PLP.PLP>
-33.4364

> <Gold.PLP.part.hbond>
-3.7769

> <Gold.PLP.part.metal>
0.0000

> <Gold.PLP.part.buried>
-4.3189

> <Gold.PLP.part.nonpolar>
-25.6322

> <Gold.PLP.part.repulsive>
0.1432

> <Gold.PLP.ligand.clash>
0.0000

> <Gold.PLP.ligand.torsion>
0.7232

> <Gold.PLP.Chemscore.Hbond>
2.6320

> <Gold.PLP.Chemscore.CHOScore>
0.0000

> <Gold.PLP.Chemscore.Metal>
0.0000

> <Gold.Chemscore.Hbonds>
donor molecule, donor type, donor heavy atom, donor atom, acceptor molecule, acceptor atom, score
      L1  H     5    25       P1  7948  1.00
      L1  H     8    26       P1  7948  0.74
      P1  H 10752 10764       L1    19  1.00

> <Gold.PLP.Chemscore.Internal.Correction>
0.0494

> <Gold.Rescore>
     Score         DG    S(hbond)    S(metal)    S(lipo)     H(rot)  DE(clash)    DE(int)     intcor
     15.76     -17.70       2.09        0.00      78.72       1.55       0.05       1.89       ----

> <Gold.Chemscore.Fitness>
15.7582

> <Gold.Chemscore.DG>
-17.6959

> <Gold.Chemscore.ZeroCoef>
-5.4800

> <Gold.Chemscore.Hbond>
2.0859

> <Gold.Chemscore.Metal>
0.0000

> <Gold.Chemscore.Lipo>
78.7205

> <Gold.Chemscore.Internal_Hbond>
0.0000

> <Gold.Chemscore.DEClash>
0.0458

> <Gold.Chemscore.DEInternal>
1.8919

> <Gold.Chemscore.Rot>
1.5474

> <Gold.Chemscore.Internal.Correction>
   9.000000E+99

> <Gold.Chemscore.Hbonds>
donor molecule, donor type, donor heavy atom, donor atom, acceptor molecule, acceptor atom, score
      L1  H     5    25       P1  7948  0.39
      L1  H     8    26       P1  7948  0.16
      P1  H 10752 10764       L1    19  0.39

> <Gold.Chemscore.Hbond.Weighted>
-6.9669

> <Gold.Chemscore.Metal.Weighted>
-0.0000

> <Gold.Chemscore.Lipo.Weighted>
-9.2103

> <Gold.Chemscore.Internal_Hbond.Weighted>
0.0000

> <Gold.Chemscore.DEClash.Weighted>
0.0458

> <Gold.Chemscore.DEInternal.Weighted>
1.8919

> <Gold.Chemscore.Rot.Weighted>
3.9612

> <Gold.Chemscore.Internal.Correction.Weighted>
   9.000000E+99

> <Gold.Protein.RotatedTorsions>
[ 6907 6896 6895 6894 ] final  -29.53 input  -60.11 | X-H torsion
[ 7974 7965 7964 7962 ] final   -5.46 input  175.53 | X-H torsion
[ 8008 7997 7996 7995 ] final  152.70 input   59.86 | X-H torsion
[ 10167 10162 10161 10158 ] final  -59.52 input  -65.29 | X-H torsion
[ 10718 10713 10712 10709 ] final -117.32 input   66.30 | X-H torsion
[ 10763 10752 10751 10750 ] final  -49.87 input  -60.55 | X-H torsion
[ 11005 11000 10999 10996 ] final   41.96 input  -57.11 | X-H torsion

> <Gold.Protein.ActiveResidues>
 VAL166  LYS551  ARG553  GLY616  TRP617  ASP618  TYR619  PRO620  LYS621  CYS622 
 ASP623  PHE694  ASN695  SER759  ASP760  ASP761  ALA762  ILE779  LEU786  VAL792 
 PHE793  MET794  SER795  GLU796  ALA797  LYS798  CYS799  TRP800  GLU811  SER814 

> <Gold.Protein.RotatedAtoms>
  151.1179  135.0063  159.8524 H   0  0  0  0  0  0  0  0  0  0  0  0  # atno 6907 bound_to 6896
  152.5446  134.1757  159.8625 H   0  0  0  0  0  0  0  0  0  0  0  0  # atno 6908 bound_to 6896
  151.1813  133.4678  159.2627 H   0  0  0  0  0  0  0  0  0  0  0  0  # atno 6909 bound_to 6896
  146.2352  140.2024  142.8334 H   0  0  0  0  0  0  0  0  0  0  0  0  # atno 7974 bound_to 7965
  156.2617  140.2013  156.6374 H   0  0  0  0  0  0  0  0  0  0  0  0  # atno 8008 bound_to 7997
  154.6636  140.0558  157.0113 H   0  0  0  0  0  0  0  0  0  0  0  0  # atno 8009 bound_to 7997
  155.1240  140.3227  155.4493 H   0  0  0  0  0  0  0  0  0  0  0  0  # atno 8010 bound_to 7997
  140.6130  143.2393  151.5664 H   0  0  0  0  0  0  0  0  0  0  0  0  # atno 10167 bound_to 10162
  156.1025  130.6184  150.9149 H   0  0  0  0  0  0  0  0  0  0  0  0  # atno 10718 bound_to 10713
  154.1012  135.6563  153.4868 H   0  0  0  0  0  0  0  0  0  0  0  0  # atno 10763 bound_to 10752
  153.0288  135.5225  154.7284 H   0  0  0  0  0  0  0  0  0  0  0  0  # atno 10764 bound_to 10752
  154.6437  135.2992  155.0041 H   0  0  0  0  0  0  0  0  0  0  0  0  # atno 10765 bound_to 10752
  140.1785  134.4134  155.8214 H   0  0  0  0  0  0  0  0  0  0  0  0  # atno 11005 bound_to 11000
  144.9771  140.8424  143.5419 LP  0  0  0  0  0  0  0  0  0  0  0  0  # atno 17320 bound_to 7965
  145.2013  139.2251  143.5191 LP  0  0  0  0  0  0  0  0  0  0  0  0  # atno 17321 bound_to 7965
  139.5376  144.2737  152.1284 LP  0  0  0  0  0  0  0  0  0  0  0  0  # atno 17342 bound_to 10162
  140.1940  144.4723  150.6464 LP  0  0  0  0  0  0  0  0  0  0  0  0  # atno 17343 bound_to 10162
  157.6198  131.0930  150.8644 LP  0  0  0  0  0  0  0  0  0  0  0  0  # atno 17370 bound_to 10713
  156.8769  130.5165  149.5293 LP  0  0  0  0  0  0  0  0  0  0  0  0  # atno 17371 bound_to 10713
  141.2222  133.6989  156.7888 LP  0  0  0  0  0  0  0  0  0  0  0  0  # atno 17394 bound_to 11000
  140.2295  134.8696  157.3462 LP  0  0  0  0  0  0  0  0  0  0  0  0  # atno 17395 bound_to 11000

$$$$
