AV-unprocessed.smi:2876|AV-procd|sdf|11042|dock9
  -GOLD-   2272015513D 1   1.00000     0.00000
 Structure written by MMmdl.
 25 26  0  0  0  0  0  0  0  0  2 V2000
  149.1340  136.9922  160.2260 O   0  0  0  0  0  0  0  0  0  0  0  0
  149.6668  136.6354  159.1530 C   0  0  0  0  0  0  0  0  0  0  0  0
  149.3813  135.5386  158.6201 O   0  5  0  0  0  0  0  0  0  0  0  0
  150.6774  137.5265  158.4667 C   0  0  0  0  0  0  0  0  0  0  0  0
  151.0005  138.6713  159.1192 N   0  0  0  0  0  0  0  0  0  0  0  0
  151.8873  139.4940  158.5544 C   0  0  0  0  0  0  0  0  0  0  0  0
  152.2014  140.6572  159.2317 N   0  0  0  0  0  0  0  0  0  0  0  0
  153.5438  140.7383  159.7927 C   0  0  0  0  0  0  0  0  0  0  0  0
  153.6482  141.9328  160.7568 C   0  0  0  0  0  0  0  0  0  0  0  0
  153.2737  143.1289  160.0802 O   0  0  0  0  0  0  0  0  0  0  0  0
  151.9330  143.0727  159.6025 C   0  0  0  0  0  0  0  0  0  0  0  0
  151.7867  141.9075  158.6085 C   0  0  0  0  0  0  0  0  0  0  0  0
  152.5067  139.3097  157.3891 N   0  0  0  0  0  0  0  0  0  0  0  0
  152.2052  138.1788  156.7190 C   0  0  0  0  0  0  0  0  0  0  0  0
  151.2842  137.2308  157.2099 C   0  0  0  0  0  0  0  0  0  0  0  0
  150.9753  135.8155  156.2611 Cl  0  0  0  0  0  0  0  0  0  0  0  0
  153.7817  139.8118  160.3167 H   0  0  0  0  0  0  0  0  0  0  0  0
  154.2677  140.8449  158.9835 H   0  0  0  0  0  0  0  0  0  0  0  0
  153.0132  141.7830  161.6315 H   0  0  0  0  0  0  0  0  0  0  0  0
  154.6711  142.0354  161.1193 H   0  0  0  0  0  0  0  0  0  0  0  0
  151.2420  142.9591  160.4393 H   0  0  0  0  0  0  0  0  0  0  0  0
  151.6901  144.0166  159.1143 H   0  0  0  0  0  0  0  0  0  0  0  0
  152.3970  142.0907  157.7231 H   0  0  0  0  0  0  0  0  0  0  0  0
  150.7514  141.8276  158.2746 H   0  0  0  0  0  0  0  0  0  0  0  0
  152.7075  138.0285  155.7748 H   0  0  0  0  0  0  0  0  0  0  0  0
  1  2  2  0  0  0  0
  2  3  1  0  0  0  0
  2  4  1  0  0  0  0
  4 15  1  0  0  0  0
  4  5  2  0  0  0  0
  5  6  1  0  0  0  0
  6  7  1  0  0  0  0
  6 13  2  0  0  0  0
  7 12  1  0  0  0  0
  7  8  1  0  0  0  0
  8  9  1  0  0  0  0
  8 17  1  0  0  0  0
  8 18  1  0  0  0  0
  9 10  1  0  0  0  0
  9 19  1  0  0  0  0
  9 20  1  0  0  0  0
 10 11  1  0  0  0  0
 11 12  1  0  0  0  0
 11 21  1  0  0  0  0
 11 22  1  0  0  0  0
 12 23  1  0  0  0  0
 12 24  1  0  0  0  0
 13 14  1  0  0  0  0
 14 15  2  0  0  0  0
 14 25  1  0  0  0  0
 15 16  1  0  0  0  0
M  CHG  1   3  -1
M  END
> <s_m_source_file>
AV-unprocessed.smi

> <i_m_source_file_index>
2876

> <i_lp_mmshare_version>
43012

> <i_f3d_flags>
0

> <s_epik_input>
Tz1DKFtPSF0pYzFuYyhuW2NIXWMxQ2wpTjJbQ0gyXVtDSDJdT1tDSDJdW0NIMl0y

> <s_epik_cmdline>
J2VwaWtfcHl0aG9uJywgJy1waCcsICc3LjAnLCAnLXRuJywgJzgnLCAnLW1hJywgJzIwMCcsICctbWV0YWxfYmluZGluZycsICctaW1hZScsICc8aW5maWxlLm1hZT4nLCAnLW9tYWUnLCAnPG91dGZpbGUubWFlPic=

> <r_lp_tautomer_probability>
1

> <r_epik_Ionization_Penalty>
2.42258e-06

> <r_epik_Ionization_Penalty_Charging>
2.2596e-06

> <r_epik_Ionization_Penalty_Neutral>
1.62982e-07

> <r_epik_State_Penalty>
-0

> <r_epik_Charging_Adjusted_Penalty>
2.2596e-06

> <i_epik_Tot_Q>
-1

> <i_epik_Tot_abs_Q>
1

> <r_epik_Metal_State_Penalty>
-0

> <b_epik_Metal_Only>
0

> <s_lp_Force_Field>
OPLS_2005

> <r_lp_Energy>
19.4651

> <b_lp_Chiralities_Consistent>
1

> <s_lp_Variant>
AV-unprocessed.smi:2876-1

> <Gold.Version>
5.8.1

> <Gold.Id.Protein>
6NUR|6NUR_protein|mol2

> <Gold.PLP.Fitness>
36.2995

> <Gold.PLP.PLP>
-24.5120

> <Gold.PLP.part.hbond>
-3.8268

> <Gold.PLP.part.metal>
0.0000

> <Gold.PLP.part.buried>
-4.0036

> <Gold.PLP.part.nonpolar>
-17.1860

> <Gold.PLP.part.repulsive>
0.0000

> <Gold.PLP.ligand.clash>
0.0000

> <Gold.PLP.ligand.torsion>
0.1354

> <Gold.PLP.Chemscore.Hbond>
3.9345

> <Gold.PLP.Chemscore.CHOScore>
0.0000

> <Gold.PLP.Chemscore.Metal>
0.0000

> <Gold.Chemscore.Hbonds>
donor molecule, donor type, donor heavy atom, donor atom, acceptor molecule, acceptor atom, score
      P1  H  6896  6909       L1     3  2.00
      P1  H  6931  6943       L1     1  1.01
      P1  H  7997  8010       L1    13  0.67

> <Gold.PLP.Chemscore.Internal.Correction>
0.2548

> <Gold.Rescore>
     Score         DG    S(hbond)    S(metal)    S(lipo)     H(rot)  DE(clash)    DE(int)     intcor
     15.84     -17.37       2.31        0.00      57.42       1.00       0.02       1.51       ----

> <Gold.Chemscore.Fitness>
15.8396

> <Gold.Chemscore.DG>
-17.3700

> <Gold.Chemscore.ZeroCoef>
-5.4800

> <Gold.Chemscore.Hbond>
2.3148

> <Gold.Chemscore.Metal>
0.0000

> <Gold.Chemscore.Lipo>
57.4247

> <Gold.Chemscore.Internal_Hbond>
0.0000

> <Gold.Chemscore.DEClash>
0.0223

> <Gold.Chemscore.DEInternal>
1.5081

> <Gold.Chemscore.Rot>
1.0000

> <Gold.Chemscore.Internal.Correction>
   9.000000E+99

> <Gold.Chemscore.Hbonds>
donor molecule, donor type, donor heavy atom, donor atom, acceptor molecule, acceptor atom, score
      P1  H  6896  6909       L1     3  0.25
      P1  H  6931  6943       L1     1  0.50
      P1  H  7997  8010       L1    13  0.55

> <Gold.Chemscore.Hbond.Weighted>
-7.7313

> <Gold.Chemscore.Metal.Weighted>
-0.0000

> <Gold.Chemscore.Lipo.Weighted>
-6.7187

> <Gold.Chemscore.Internal_Hbond.Weighted>
0.0000

> <Gold.Chemscore.DEClash.Weighted>
0.0223

> <Gold.Chemscore.DEInternal.Weighted>
1.5081

> <Gold.Chemscore.Rot.Weighted>
2.5600

> <Gold.Chemscore.Internal.Correction.Weighted>
   9.000000E+99

> <Gold.Protein.RotatedTorsions>
[ 6907 6896 6895 6894 ] final   38.89 input  -60.11 | X-H torsion
[ 7974 7965 7964 7962 ] final  110.11 input  175.53 | X-H torsion
[ 8008 7997 7996 7995 ] final   45.79 input   59.86 | X-H torsion
[ 10167 10162 10161 10158 ] final   42.31 input  -65.29 | X-H torsion
[ 10718 10713 10712 10709 ] final  166.95 input   66.30 | X-H torsion
[ 10763 10752 10751 10750 ] final -105.11 input  -60.55 | X-H torsion
[ 11005 11000 10999 10996 ] final -132.91 input  -57.11 | X-H torsion

> <Gold.Protein.ActiveResidues>
 VAL166  LYS551  ARG553  GLY616  TRP617  ASP618  TYR619  PRO620  LYS621  CYS622 
 ASP623  PHE694  ASN695  SER759  ASP760  ASP761  ALA762  ILE779  LEU786  VAL792 
 PHE793  MET794  SER795  GLU796  ALA797  LYS798  CYS799  TRP800  GLU811  SER814 

> <Gold.Protein.RotatedAtoms>
  152.1623  134.8902  160.0540 H   0  0  0  0  0  0  0  0  0  0  0  0  # atno 6907 bound_to 6896
  151.9893  133.3780  159.4146 H   0  0  0  0  0  0  0  0  0  0  0  0  # atno 6908 bound_to 6896
  150.6889  134.3877  159.5106 H   0  0  0  0  0  0  0  0  0  0  0  0  # atno 6909 bound_to 6896
  145.2592  139.2709  143.4026 H   0  0  0  0  0  0  0  0  0  0  0  0  # atno 7974 bound_to 7965
  155.3418  140.3408  155.4239 H   0  0  0  0  0  0  0  0  0  0  0  0  # atno 8008 bound_to 7997
  156.1809  140.1664  156.8311 H   0  0  0  0  0  0  0  0  0  0  0  0  # atno 8009 bound_to 7997
  154.5333  140.0740  156.8366 H   0  0  0  0  0  0  0  0  0  0  0  0  # atno 8010 bound_to 7997
  140.3557  144.2293  150.6142 H   0  0  0  0  0  0  0  0  0  0  0  0  # atno 10167 bound_to 10162
  157.0584  131.0333  151.2655 H   0  0  0  0  0  0  0  0  0  0  0  0  # atno 10718 bound_to 10713
  154.7924  135.4761  154.0083 H   0  0  0  0  0  0  0  0  0  0  0  0  # atno 10763 bound_to 10752
  153.1651  135.6815  153.8694 H   0  0  0  0  0  0  0  0  0  0  0  0  # atno 10764 bound_to 10752
  153.8295  135.3193  155.3395 H   0  0  0  0  0  0  0  0  0  0  0  0  # atno 10765 bound_to 10752
  140.9128  134.1546  157.4376 H   0  0  0  0  0  0  0  0  0  0  0  0  # atno 11005 bound_to 11000
  146.3280  140.3004  142.8620 LP  0  0  0  0  0  0  0  0  0  0  0  0  # atno 17320 bound_to 7965
  144.9433  140.8102  143.5617 LP  0  0  0  0  0  0  0  0  0  0  0  0  # atno 17321 bound_to 7965
  140.5176  143.2274  151.8439 LP  0  0  0  0  0  0  0  0  0  0  0  0  # atno 17342 bound_to 10162
  139.4820  144.4875  151.9227 LP  0  0  0  0  0  0  0  0  0  0  0  0  # atno 17343 bound_to 10162
  157.4974  130.7859  149.7569 LP  0  0  0  0  0  0  0  0  0  0  0  0  # atno 17370 bound_to 10713
  155.9986  130.3893  150.2697 LP  0  0  0  0  0  0  0  0  0  0  0  0  # atno 17371 bound_to 10713
  139.8760  134.9942  156.5683 LP  0  0  0  0  0  0  0  0  0  0  0  0  # atno 17394 bound_to 11000
  140.8088  133.8446  155.8791 LP  0  0  0  0  0  0  0  0  0  0  0  0  # atno 17395 bound_to 11000

$$$$
