AV-unprocessed.smi:686|AV-procd|sdf|3344|dock1
  -GOLD-   22720 0313D 1   1.00000     0.00000
 Structure written by MMmdl.
 41 42  0  0  0  0  0  0  0  0  2 V2000
  146.2861  140.9291  154.5318 C   0  0  0  0  0  0  0  0  0  0  0  0
  146.9948  139.5775  154.3440 C   0  0  1  0  0  0  0  0  0  0  0  0
  145.9996  138.4163  154.2899 C   0  0  0  0  0  0  0  0  0  0  0  0
  145.5773  138.3134  152.8767 N   0  3  2  0  0  0  0  0  0  0  0  0
  144.9899  137.0045  152.4730 C   0  0  0  0  0  0  0  0  0  0  0  0
  143.6076  136.7935  153.1195 C   0  0  0  0  0  0  0  0  0  0  0  0
  145.9136  135.8269  152.8388 C   0  0  0  0  0  0  0  0  0  0  0  0
  146.7218  138.7719  152.0527 C   0  0  0  0  0  0  0  0  0  0  0  0
  147.7156  139.4812  152.9928 C   0  0  2  0  0  0  0  0  0  0  0  0
  148.9454  138.6959  153.1418 N   0  0  0  0  0  0  0  0  0  0  0  0
  149.9427  138.9928  154.5187 S   0  0  0  0  0  0  0  0  0  0  0  0
  150.4699  140.3615  154.4052 O   0  0  0  0  0  0  0  0  0  0  0  0
  149.1749  138.5989  155.7095 O   0  0  0  0  0  0  0  0  0  0  0  0
  151.3298  137.8059  154.2740 C   0  0  0  0  0  0  0  0  0  0  0  0
  151.1699  136.6488  155.2177 C   0  0  0  0  0  0  0  0  0  0  0  0
  150.1093  135.7035  155.2857 C   0  0  0  0  0  0  0  0  0  0  0  0
  150.4759  134.8873  156.3167 C   0  0  0  0  0  0  0  0  0  0  0  0
  151.6617  135.2876  156.8411 O   0  0  0  0  0  0  0  0  0  0  0  0
  152.0976  136.4126  156.1319 N   0  0  0  0  0  0  0  0  0  0  0  0
  145.5738  141.1252  153.7296 H   0  0  0  0  0  0  0  0  0  0  0  0
  147.0057  141.7483  154.5441 H   0  0  0  0  0  0  0  0  0  0  0  0
  145.7411  140.9582  155.4757 H   0  0  0  0  0  0  0  0  0  0  0  0
  147.6855  139.4461  155.1787 H   0  0  0  0  0  0  0  0  0  0  0  0
  146.5051  137.4941  154.5823 H   0  0  0  0  0  0  0  0  0  0  0  0
  145.1523  138.5602  154.9613 H   0  0  0  0  0  0  0  0  0  0  0  0
  144.8640  137.0092  151.3891 H   0  0  0  0  0  0  0  0  0  0  0  0
  143.1889  135.8268  152.8383 H   0  0  0  0  0  0  0  0  0  0  0  0
  142.8876  137.5507  152.8097 H   0  0  0  0  0  0  0  0  0  0  0  0
  143.6715  136.8201  154.2078 H   0  0  0  0  0  0  0  0  0  0  0  0
  145.4490  134.8738  152.5841 H   0  0  0  0  0  0  0  0  0  0  0  0
  146.1333  135.8112  153.9069 H   0  0  0  0  0  0  0  0  0  0  0  0
  146.8611  135.8667  152.3011 H   0  0  0  0  0  0  0  0  0  0  0  0
  147.1973  137.9318  151.5438 H   0  0  0  0  0  0  0  0  0  0  0  0
  146.3570  139.4519  151.2823 H   0  0  0  0  0  0  0  0  0  0  0  0
  147.9817  140.4709  152.6179 H   0  0  0  0  0  0  0  0  0  0  0  0
  148.7543  137.6986  153.0439 H   0  0  0  0  0  0  0  0  0  0  0  0
  151.3212  137.4702  153.2372 H   0  0  0  0  0  0  0  0  0  0  0  0
  152.2684  138.3334  154.4466 H   0  0  0  0  0  0  0  0  0  0  0  0
  149.2193  135.6376  154.6777 H   0  0  0  0  0  0  0  0  0  0  0  0
  150.0225  134.0209  156.7750 H   0  0  0  0  0  0  0  0  0  0  0  0
  144.8559  139.0102  152.7574 H   0  0  0  0  0  0  0  0  0  0  0  0
  1  2  1  0  0  0  0
  1 20  1  0  0  0  0
  1 21  1  0  0  0  0
  1 22  1  0  0  0  0
  2  9  1  0  0  0  0
  2  3  1  0  0  0  0
  2 23  1  0  0  0  0
  3  4  1  0  0  0  0
  3 24  1  0  0  0  0
  3 25  1  0  0  0  0
  4  5  1  0  0  0  0
  4  8  1  0  0  0  0
  4 41  1  0  0  0  0
  5  6  1  0  0  0  0
  5  7  1  0  0  0  0
  5 26  1  0  0  0  0
  6 27  1  0  0  0  0
  6 28  1  0  0  0  0
  6 29  1  0  0  0  0
  7 30  1  0  0  0  0
  7 31  1  0  0  0  0
  7 32  1  0  0  0  0
  8  9  1  0  0  0  0
  8 33  1  0  0  0  0
  8 34  1  0  0  0  0
  9 10  1  0  0  0  0
  9 35  1  0  0  0  0
 10 11  1  0  0  0  0
 10 36  1  0  0  0  0
 11 12  2  0  0  0  0
 11 13  2  0  0  0  0
 11 14  1  0  0  0  0
 14 15  1  0  0  0  0
 14 37  1  0  0  0  0
 14 38  1  0  0  0  0
 15 19  2  0  0  0  0
 15 16  1  0  0  0  0
 16 17  2  0  0  0  0
 16 39  1  0  0  0  0
 17 18  1  0  0  0  0
 17 40  1  0  0  0  0
 18 19  1  0  0  0  0
M  CHG  1   4   1
M  END
> <s_m_source_file>
AV-unprocessed.smi

> <i_m_source_file_index>
686

> <i_lp_mmshare_version>
43012

> <i_f3d_flags>
0

> <s_epik_input>
W0NIM11bQ0BASF0xW0NIMl1OKFtDSF0oW0NIM10pW0NIM10pW0NIMl1bQ0BIXTFbTkhdUyg9TykoPU8pW0NIMl1jMltjSF1bY0hdb24y

> <s_epik_cmdline>
J2VwaWtfcHl0aG9uJywgJy1waCcsICc3LjAnLCAnLXRuJywgJzgnLCAnLW1hJywgJzIwMCcsICctbWV0YWxfYmluZGluZycsICctaW1hZScsICc8aW5maWxlLm1hZT4nLCAnLW9tYWUnLCAnPG91dGZpbGUubWFlPic=

> <r_epik_Ionization_Penalty>
0.00200818

> <r_epik_Ionization_Penalty_Charging>
0.000701289

> <r_epik_Ionization_Penalty_Neutral>
0.00130689

> <r_epik_State_Penalty>
0.00131314

> <r_epik_Charging_Adjusted_Penalty>
0.00201443

> <i_epik_Tot_Q>
1

> <i_epik_Tot_abs_Q>
1

> <r_epik_Metal_State_Penalty>
0.310831

> <b_epik_Metal_Only>
0

> <s_lp_Force_Field>
OPLS_2005

> <r_lp_Energy>
21.6188

> <b_lp_Chiralities_Consistent>
1

> <s_lp_Variant>
AV-unprocessed.smi:686-8

> <Gold.Version>
5.8.1

> <Gold.Id.Protein>
6NUR|6NUR_protein|mol2

> <Gold.PLP.Fitness>
41.7507

> <Gold.PLP.PLP>
-28.2292

> <Gold.PLP.part.hbond>
-5.4624

> <Gold.PLP.part.metal>
0.0000

> <Gold.PLP.part.buried>
-0.3864

> <Gold.PLP.part.nonpolar>
-22.5055

> <Gold.PLP.part.repulsive>
0.1191

> <Gold.PLP.ligand.clash>
0.0000

> <Gold.PLP.ligand.torsion>
0.6104

> <Gold.PLP.Chemscore.Hbond>
4.8480

> <Gold.PLP.Chemscore.CHOScore>
0.0000

> <Gold.PLP.Chemscore.Metal>
0.0000

> <Gold.Chemscore.Hbonds>
donor molecule, donor type, donor heavy atom, donor atom, acceptor molecule, acceptor atom, score
      L1  H     4    41       P1 10175  2.00
      L1  H    10    36       P1  7948  0.83
      P1  H  7989  7998       L1    12  1.00
      P1  H 10752 10763       L1    19  0.60

> <Gold.PLP.Chemscore.Internal.Correction>
0.1983

> <Gold.Rescore>
     Score         DG    S(hbond)    S(metal)    S(lipo)     H(rot)  DE(clash)    DE(int)     intcor
     15.97     -18.28       3.26        0.00      58.09       1.91       0.42       1.90       ----

> <Gold.Chemscore.Fitness>
15.9725

> <Gold.Chemscore.DG>
-18.2835

> <Gold.Chemscore.ZeroCoef>
-5.4800

> <Gold.Chemscore.Hbond>
3.2635

> <Gold.Chemscore.Metal>
0.0000

> <Gold.Chemscore.Lipo>
58.0932

> <Gold.Chemscore.Internal_Hbond>
0.0000

> <Gold.Chemscore.DEClash>
0.4155

> <Gold.Chemscore.DEInternal>
1.8955

> <Gold.Chemscore.Rot>
1.9115

> <Gold.Chemscore.Internal.Correction>
   9.000000E+99

> <Gold.Chemscore.Hbonds>
donor molecule, donor type, donor heavy atom, donor atom, acceptor molecule, acceptor atom, score
      L1  H     4    41       P1 10175  1.00
      L1  H    10    36       P1  7948  0.83
      P1  H  7989  7998       L1    12  0.92
      P1  H 10752 10763       L1    19  0.01

> <Gold.Chemscore.Hbond.Weighted>
-10.9000

> <Gold.Chemscore.Metal.Weighted>
-0.0000

> <Gold.Chemscore.Lipo.Weighted>
-6.7969

> <Gold.Chemscore.Internal_Hbond.Weighted>
0.0000

> <Gold.Chemscore.DEClash.Weighted>
0.4155

> <Gold.Chemscore.DEInternal.Weighted>
1.8955

> <Gold.Chemscore.Rot.Weighted>
4.8935

> <Gold.Chemscore.Internal.Correction.Weighted>
   9.000000E+99

> <Gold.Protein.RotatedTorsions>
[ 6907 6896 6895 6894 ] final  -78.11 input  -60.11 | X-H torsion
[ 7974 7965 7964 7962 ] final   16.28 input  175.53 | X-H torsion
[ 8008 7997 7996 7995 ] final -106.44 input   59.86 | X-H torsion
[ 10167 10162 10161 10158 ] final  -94.47 input  -65.29 | X-H torsion
[ 10718 10713 10712 10709 ] final -136.38 input   66.30 | X-H torsion
[ 10763 10752 10751 10750 ] final   99.80 input  -60.55 | X-H torsion
[ 11005 11000 10999 10996 ] final   73.35 input  -57.11 | X-H torsion

> <Gold.Protein.ActiveResidues>
 VAL166  LYS551  ARG553  GLY616  TRP617  ASP618  TYR619  PRO620  LYS621  CYS622 
 ASP623  PHE694  ASN695  SER759  ASP760  ASP761  ALA762  ILE779  LEU786  VAL792 
 PHE793  MET794  SER795  GLU796  ALA797  LYS798  CYS799  TRP800  GLU811  SER814 

> <Gold.Protein.RotatedAtoms>
  150.6981  134.4322  159.5253 H   0  0  0  0  0  0  0  0  0  0  0  0  # atno 6907 bound_to 6896
  152.2047  134.8554  160.0513 H   0  0  0  0  0  0  0  0  0  0  0  0  # atno 6908 bound_to 6896
  151.9461  133.3617  159.4020 H   0  0  0  0  0  0  0  0  0  0  0  0  # atno 6909 bound_to 6896
  146.2254  139.8771  142.8577 H   0  0  0  0  0  0  0  0  0  0  0  0  # atno 7974 bound_to 7965
  154.9146  140.0409  157.1965 H   0  0  0  0  0  0  0  0  0  0  0  0  # atno 8008 bound_to 7997
  154.8314  140.2899  155.5698 H   0  0  0  0  0  0  0  0  0  0  0  0  # atno 8009 bound_to 7997
  156.2987  140.2500  156.3240 H   0  0  0  0  0  0  0  0  0  0  0  0  # atno 8010 bound_to 7997
  140.3140  143.3088  152.0117 H   0  0  0  0  0  0  0  0  0  0  0  0  # atno 10167 bound_to 10162
  156.2764  130.7295  151.1279 H   0  0  0  0  0  0  0  0  0  0  0  0  # atno 10718 bound_to 10713
  153.3059  135.4101  155.1293 H   0  0  0  0  0  0  0  0  0  0  0  0  # atno 10763 bound_to 10752
  154.8562  135.3552  154.5789 H   0  0  0  0  0  0  0  0  0  0  0  0  # atno 10764 bound_to 10752
  153.6216  135.7064  153.5367 H   0  0  0  0  0  0  0  0  0  0  0  0  # atno 10765 bound_to 10752
  139.9444  134.7339  156.1016 H   0  0  0  0  0  0  0  0  0  0  0  0  # atno 11005 bound_to 11000
  145.2550  141.0057  143.3859 LP  0  0  0  0  0  0  0  0  0  0  0  0  # atno 17320 bound_to 7965
  144.9344  139.4261  143.6479 LP  0  0  0  0  0  0  0  0  0  0  0  0  # atno 17321 bound_to 7965
  139.4887  144.6362  151.6970 LP  0  0  0  0  0  0  0  0  0  0  0  0  # atno 17342 bound_to 10162
  140.5542  144.0375  150.6140 LP  0  0  0  0  0  0  0  0  0  0  0  0  # atno 17343 bound_to 10162
  157.7300  131.0619  150.5745 LP  0  0  0  0  0  0  0  0  0  0  0  0  # atno 17370 bound_to 10713
  156.5846  130.4313  149.5962 LP  0  0  0  0  0  0  0  0  0  0  0  0  # atno 17371 bound_to 10713
  141.1090  133.6650  156.2933 LP  0  0  0  0  0  0  0  0  0  0  0  0  # atno 17394 bound_to 11000
  140.5870  134.5688  157.5492 LP  0  0  0  0  0  0  0  0  0  0  0  0  # atno 17395 bound_to 11000

$$$$
