AV-unprocessed.smi:1550|AV-procd|sdf|6231|dock1
  -GOLD-   22720 6413D 1   1.00000     0.00000
 Structure written by MMmdl.
 42 43  0  0  0  0  0  0  0  0  2 V2000
  147.9694  139.1535  157.6279 C   0  0  0  0  0  0  0  0  0  0  0  0
  149.3213  138.5349  158.0131 C   0  0  1  0  0  0  0  0  0  0  0  0
  149.9875  139.4588  158.8693 O   0  0  0  0  0  0  0  0  0  0  0  0
  150.6247  140.5492  158.2125 C   0  0  0  0  0  0  0  0  0  0  0  0
  151.2872  141.4445  159.2673 C   0  0  1  0  0  0  0  0  0  0  0  0
  152.6356  140.8751  159.7516 C   0  0  0  0  0  0  0  0  0  0  0  0
  153.3077  141.8398  160.7346 C   0  0  0  0  0  0  0  0  0  0  0  0
  153.3993  143.2343  160.1069 C   0  0  0  0  0  0  0  0  0  0  0  0
  152.0172  143.6872  159.6099 C   0  0  0  0  0  0  0  0  0  0  0  0
  151.4941  142.7326  158.6909 O   0  0  0  0  0  0  0  0  0  0  0  0
  149.1344  137.1870  158.7285 C   0  0  0  0  0  0  0  0  0  0  0  0
  149.6906  136.1845  158.2804 O   0  0  0  0  0  0  0  0  0  0  0  0
  148.3235  137.2147  159.8042 N   0  0  0  0  0  0  0  0  0  0  0  0
  147.9447  136.1770  160.6733 C   0  0  0  0  0  0  0  0  0  0  0  0
  148.0493  134.8475  160.3961 C   0  0  0  0  0  0  0  0  0  0  0  0
  147.6478  133.8179  161.3467 C   0  0  0  0  0  0  0  0  0  0  0  0
  147.6537  132.3322  161.0329 C   0  0  0  0  0  0  0  0  0  0  0  0
  147.9940  132.1391  159.7593 F   0  0  0  0  0  0  0  0  0  0  0  0
  148.5301  131.6832  161.8001 F   0  0  0  0  0  0  0  0  0  0  0  0
  146.4480  131.7978  161.2270 F   0  0  0  0  0  0  0  0  0  0  0  0
  147.1567  134.3527  162.5219 C   0  0  0  0  0  0  0  0  0  0  0  0
  147.0473  135.6489  162.8864 N   0  5  0  0  0  0  0  0  0  0  0  0
  147.4256  136.6029  161.9897 C   0  0  0  0  0  0  0  0  0  0  0  0
  147.3453  137.8031  162.2542 O   0  0  0  0  0  0  0  0  0  0  0  0
  147.3983  138.4859  156.9816 H   0  0  0  0  0  0  0  0  0  0  0  0
  148.1135  140.0896  157.0880 H   0  0  0  0  0  0  0  0  0  0  0  0
  147.3617  139.3715  158.5070 H   0  0  0  0  0  0  0  0  0  0  0  0
  149.9069  138.3977  157.1016 H   0  0  0  0  0  0  0  0  0  0  0  0
  151.3685  140.2124  157.4894 H   0  0  0  0  0  0  0  0  0  0  0  0
  149.8745  141.1204  157.6640 H   0  0  0  0  0  0  0  0  0  0  0  0
  150.6044  141.5507  160.1122 H   0  0  0  0  0  0  0  0  0  0  0  0
  152.4896  139.9035  160.2249 H   0  0  0  0  0  0  0  0  0  0  0  0
  153.2931  140.7100  158.8971 H   0  0  0  0  0  0  0  0  0  0  0  0
  152.7270  141.8889  161.6564 H   0  0  0  0  0  0  0  0  0  0  0  0
  154.2995  141.4775  161.0060 H   0  0  0  0  0  0  0  0  0  0  0  0
  153.7950  143.9486  160.8294 H   0  0  0  0  0  0  0  0  0  0  0  0
  154.0986  143.2146  159.2700 H   0  0  0  0  0  0  0  0  0  0  0  0
  151.3274  143.8199  160.4450 H   0  0  0  0  0  0  0  0  0  0  0  0
  152.0968  144.6517  159.1082 H   0  0  0  0  0  0  0  0  0  0  0  0
  147.8885  138.1027  160.0093 H   0  0  0  0  0  0  0  0  0  0  0  0
  148.4548  134.5057  159.4587 H   0  0  0  0  0  0  0  0  0  0  0  0
  146.7915  133.6298  163.2822 H   0  0  0  0  0  0  0  0  0  0  0  0
  1  2  1  0  0  0  0
  1 25  1  0  0  0  0
  1 26  1  0  0  0  0
  1 27  1  0  0  0  0
  2  3  1  0  0  0  0
  2 11  1  0  0  0  0
  2 28  1  0  0  0  0
  3  4  1  0  0  0  0
  4  5  1  0  0  0  0
  4 29  1  0  0  0  0
  4 30  1  0  0  0  0
  5 10  1  0  0  0  0
  5  6  1  0  0  0  0
  5 31  1  0  0  0  0
  6  7  1  0  0  0  0
  6 32  1  0  0  0  0
  6 33  1  0  0  0  0
  7  8  1  0  0  0  0
  7 34  1  0  0  0  0
  7 35  1  0  0  0  0
  8  9  1  0  0  0  0
  8 36  1  0  0  0  0
  8 37  1  0  0  0  0
  9 10  1  0  0  0  0
  9 38  1  0  0  0  0
  9 39  1  0  0  0  0
 11 12  2  0  0  0  0
 11 13  1  0  0  0  0
 13 14  1  0  0  0  0
 13 40  1  0  0  0  0
 14 23  1  0  0  0  0
 14 15  2  0  0  0  0
 15 16  1  0  0  0  0
 15 41  1  0  0  0  0
 16 17  1  0  0  0  0
 16 21  2  0  0  0  0
 17 18  1  0  0  0  0
 17 19  1  0  0  0  0
 17 20  1  0  0  0  0
 21 22  1  0  0  0  0
 21 42  1  0  0  0  0
 22 23  1  0  0  0  0
 23 24  2  0  0  0  0
M  CHG  1  22  -1
M  END
> <s_m_source_file>
AV-unprocessed.smi

> <i_m_source_file_index>
1550

> <i_lp_mmshare_version>
43012

> <i_f3d_flags>
0

> <s_epik_input>
TzFbQ0gyXVtDSDJdW0NIMl1bQ0gyXVtDQEhdMVtDSDJdT1tDQEBIXShbQ0gzXSlDKD1PKVtOSF1jMltjSF1jKEMoRikoRilGKVtjSF1bbkhdYzI9Tw==

> <s_epik_cmdline>
J2VwaWtfcHl0aG9uJywgJy1waCcsICc3LjAnLCAnLXRuJywgJzgnLCAnLW1hJywgJzIwMCcsICctbWV0YWxfYmluZGluZycsICctaW1hZScsICc8aW5maWxlLm1hZT4nLCAnLW9tYWUnLCAnPG91dGZpbGUubWFlPic=

> <r_epik_Ionization_Penalty>
2.54933

> <r_epik_Ionization_Penalty_Charging>
0.0583423

> <r_epik_Ionization_Penalty_Neutral>
2.49099

> <r_epik_State_Penalty>
2.65532

> <r_epik_Charging_Adjusted_Penalty>
2.71366

> <i_epik_Tot_Q>
-1

> <i_epik_Tot_abs_Q>
1

> <r_epik_Metal_State_Penalty>
0.516364

> <b_epik_Metal_Only>
0

> <s_lp_Force_Field>
OPLS_2005

> <r_lp_Energy>
27.8976

> <b_lp_Chiralities_Consistent>
1

> <s_lp_Variant>
AV-unprocessed.smi:1550-8

> <Gold.Version>
5.8.1

> <Gold.Id.Protein>
6NUR|6NUR_protein|mol2

> <Gold.PLP.Fitness>
48.9393

> <Gold.PLP.PLP>
-42.8892

> <Gold.PLP.part.hbond>
-3.0000

> <Gold.PLP.part.metal>
0.0000

> <Gold.PLP.part.buried>
-5.6438

> <Gold.PLP.part.nonpolar>
-34.2913

> <Gold.PLP.part.repulsive>
0.2271

> <Gold.PLP.ligand.clash>
0.0000

> <Gold.PLP.ligand.torsion>
0.6524

> <Gold.PLP.Chemscore.Hbond>
2.3600

> <Gold.PLP.Chemscore.CHOScore>
0.0000

> <Gold.PLP.Chemscore.Metal>
0.0000

> <Gold.Chemscore.Hbonds>
donor molecule, donor type, donor heavy atom, donor atom, acceptor molecule, acceptor atom, score
      P1  H  6896  6907       L1    12  0.32
      P1  H  6931  6943       L1    24  0.50
      P1  H  6934  6947       L1    24  0.43

> <Gold.PLP.Chemscore.Internal.Correction>
0.2748

> <Gold.Rescore>
     Score         DG    S(hbond)    S(metal)    S(lipo)     H(rot)  DE(clash)    DE(int)     intcor
     16.93     -18.39       2.33        0.00      83.63       1.82       0.01       1.46       ----

> <Gold.Chemscore.Fitness>
16.9306

> <Gold.Chemscore.DG>
-18.3949

> <Gold.Chemscore.ZeroCoef>
-5.4800

> <Gold.Chemscore.Hbond>
2.3349

> <Gold.Chemscore.Metal>
0.0000

> <Gold.Chemscore.Lipo>
83.6313

> <Gold.Chemscore.Internal_Hbond>
0.0000

> <Gold.Chemscore.DEClash>
0.0089

> <Gold.Chemscore.DEInternal>
1.4554

> <Gold.Chemscore.Rot>
1.8236

> <Gold.Chemscore.Internal.Correction>
   9.000000E+99

> <Gold.Chemscore.Hbonds>
donor molecule, donor type, donor heavy atom, donor atom, acceptor molecule, acceptor atom, score
      P1  H  6896  6907       L1    12  0.30
      P1  H  6931  6943       L1    24  0.11
      P1  H  6934  6947       L1    24  0.44

> <Gold.Chemscore.Hbond.Weighted>
-7.7984

> <Gold.Chemscore.Metal.Weighted>
-0.0000

> <Gold.Chemscore.Lipo.Weighted>
-9.7849

> <Gold.Chemscore.Internal_Hbond.Weighted>
0.0000

> <Gold.Chemscore.DEClash.Weighted>
0.0089

> <Gold.Chemscore.DEInternal.Weighted>
1.4554

> <Gold.Chemscore.Rot.Weighted>
4.6684

> <Gold.Chemscore.Internal.Correction.Weighted>
   9.000000E+99

> <Gold.Protein.RotatedTorsions>
[ 6907 6896 6895 6894 ] final  -76.80 input  -60.11 | X-H torsion
[ 7974 7965 7964 7962 ] final  -66.29 input  175.53 | X-H torsion
[ 8008 7997 7996 7995 ] final -141.77 input   59.86 | X-H torsion
[ 10167 10162 10161 10158 ] final  -12.45 input  -65.29 | X-H torsion
[ 10718 10713 10712 10709 ] final  117.90 input   66.30 | X-H torsion
[ 10763 10752 10751 10750 ] final   16.49 input  -60.55 | X-H torsion
[ 11005 11000 10999 10996 ] final  143.79 input  -57.11 | X-H torsion

> <Gold.Protein.ActiveResidues>
 VAL166  LYS551  ARG553  GLY616  TRP617  ASP618  TYR619  PRO620  LYS621  CYS622 
 ASP623  PHE694  ASN695  SER759  ASP760  ASP761  ALA762  ILE779  LEU786  VAL792 
 PHE793  MET794  SER795  GLU796  ALA797  LYS798  CYS799  TRP800  GLU811  SER814 

> <Gold.Protein.RotatedAtoms>
  150.7017  134.4517  159.5339 H   0  0  0  0  0  0  0  0  0  0  0  0  # atno 6907 bound_to 6896
  152.2208  134.8411  160.0495 H   0  0  0  0  0  0  0  0  0  0  0  0  # atno 6908 bound_to 6896
  151.9262  133.3564  159.3951 H   0  0  0  0  0  0  0  0  0  0  0  0  # atno 6909 bound_to 6896
  145.7436  140.8942  143.0517 H   0  0  0  0  0  0  0  0  0  0  0  0  # atno 7974 bound_to 7965
  155.4832  140.0562  157.2964 H   0  0  0  0  0  0  0  0  0  0  0  0  # atno 8008 bound_to 7997
  154.4652  140.2015  156.0090 H   0  0  0  0  0  0  0  0  0  0  0  0  # atno 8009 bound_to 7997
  156.0961  140.3226  155.7884 H   0  0  0  0  0  0  0  0  0  0  0  0  # atno 8010 bound_to 7997
  140.7161  143.5531  150.9279 H   0  0  0  0  0  0  0  0  0  0  0  0  # atno 10167 bound_to 10162
  157.6066  131.1042  150.7680 H   0  0  0  0  0  0  0  0  0  0  0  0  # atno 10718 bound_to 10713
  153.1426  135.6763  153.9004 H   0  0  0  0  0  0  0  0  0  0  0  0  # atno 10763 bound_to 10752
  153.8456  135.3100  155.3430 H   0  0  0  0  0  0  0  0  0  0  0  0  # atno 10764 bound_to 10752
  154.7799  135.4894  153.9907 H   0  0  0  0  0  0  0  0  0  0  0  0  # atno 10765 bound_to 10752
  140.0581  134.9219  157.1136 H   0  0  0  0  0  0  0  0  0  0  0  0  # atno 11005 bound_to 11000
  144.6865  139.9494  143.7477 LP  0  0  0  0  0  0  0  0  0  0  0  0  # atno 17320 bound_to 7965
  146.0425  139.3434  143.0689 LP  0  0  0  0  0  0  0  0  0  0  0  0  # atno 17321 bound_to 7965
  139.9255  143.6555  152.3088 LP  0  0  0  0  0  0  0  0  0  0  0  0  # atno 17342 bound_to 10162
  139.6987  144.7638  151.1311 LP  0  0  0  0  0  0  0  0  0  0  0  0  # atno 17343 bound_to 10162
  156.8066  130.4938  149.5362 LP  0  0  0  0  0  0  0  0  0  0  0  0  # atno 17370 bound_to 10713
  156.1155  130.6071  151.0113 LP  0  0  0  0  0  0  0  0  0  0  0  0  # atno 17371 bound_to 10713
  140.3812  134.2285  155.7171 LP  0  0  0  0  0  0  0  0  0  0  0  0  # atno 17394 bound_to 11000
  141.1961  133.8090  157.0686 LP  0  0  0  0  0  0  0  0  0  0  0  0  # atno 17395 bound_to 11000

$$$$
