AV-unprocessed.smi:1199|AV-procd|sdf|5018|dock10
  -GOLD-   22720 4 33D 1   1.00000     0.00000
 Structure written by MMmdl.
 41 42  0  0  0  0  0  0  0  0  1 V2000
  151.5172  139.3651  155.7802 C   0  0  0  0  0  0  0  0  0  0  0  0
  150.4786  140.4050  156.2207 C   0  0  2  0  0  0  0  0  0  0  0  0
  149.8646  141.1399  155.0079 C   0  0  0  0  0  0  0  0  0  0  0  0
  148.5555  141.7528  155.2423 N   0  0  0  0  0  0  0  0  0  0  0  0
  147.6933  140.9467  156.1022 C   0  0  0  0  0  0  0  0  0  0  0  0
  146.3402  141.6355  156.3485 C   0  0  0  0  0  0  0  0  0  0  0  0
  145.7052  141.8978  155.1011 O   0  0  0  0  0  0  0  0  0  0  0  0
  146.4984  142.7078  154.2391 C   0  0  0  0  0  0  0  0  0  0  0  0
  147.8564  142.0267  153.9930 C   0  0  0  0  0  0  0  0  0  0  0  0
  151.1121  141.3734  157.1142 N   0  0  0  0  0  0  0  0  0  0  0  0
  150.4708  142.2992  157.8444 C   0  0  0  0  0  0  0  0  0  0  0  0
  149.2455  142.3533  157.9552 O   0  0  0  0  0  0  0  0  0  0  0  0
  151.3517  143.3357  158.5515 C   0  0  0  0  0  0  0  0  0  0  0  0
  152.2207  142.7131  159.5602 N   0  0  0  0  0  0  0  0  0  0  0  0
  153.0286  141.6996  159.0678 N   0  0  0  0  0  0  0  0  0  0  0  0
  153.8087  141.0527  159.8660 C   0  0  0  0  0  0  0  0  0  0  0  0
  154.5880  140.0532  159.3376 O   0  0  0  0  0  0  0  0  0  0  0  0
  153.8637  141.3661  161.2770 C   0  0  0  0  0  0  0  0  0  0  0  0
  153.0799  142.3614  161.7462 C   0  0  0  0  0  0  0  0  0  0  0  0
  152.1871  143.1190  160.8678 C   0  0  0  0  0  0  0  0  0  0  0  0
  151.4688  144.0359  161.2665 O   0  0  0  0  0  0  0  0  0  0  0  0
  155.2798  139.9166  159.9665 H   0  0  0  0  0  0  0  0  0  0  0  0
  151.0703  138.6224  155.1190 H   0  0  0  0  0  0  0  0  0  0  0  0
  151.9304  138.8351  156.6390 H   0  0  0  0  0  0  0  0  0  0  0  0
  152.3460  139.8303  155.2451 H   0  0  0  0  0  0  0  0  0  0  0  0
  149.6914  139.8625  156.7455 H   0  0  0  0  0  0  0  0  0  0  0  0
  150.5647  141.9211  154.7084 H   0  0  0  0  0  0  0  0  0  0  0  0
  149.8023  140.4574  154.1592 H   0  0  0  0  0  0  0  0  0  0  0  0
  147.5261  139.9691  155.6477 H   0  0  0  0  0  0  0  0  0  0  0  0
  148.1725  140.7650  157.0626 H   0  0  0  0  0  0  0  0  0  0  0  0
  145.6940  140.9983  156.9520 H   0  0  0  0  0  0  0  0  0  0  0  0
  146.4773  142.5677  156.8994 H   0  0  0  0  0  0  0  0  0  0  0  0
  145.9691  142.8514  153.2970 H   0  0  0  0  0  0  0  0  0  0  0  0
  146.6362  143.6949  154.6832 H   0  0  0  0  0  0  0  0  0  0  0  0
  148.4689  142.6681  153.3582 H   0  0  0  0  0  0  0  0  0  0  0  0
  147.7025  141.0969  153.4432 H   0  0  0  0  0  0  0  0  0  0  0  0
  152.1210  141.4074  157.0979 H   0  0  0  0  0  0  0  0  0  0  0  0
  151.9474  143.8484  157.7944 H   0  0  0  0  0  0  0  0  0  0  0  0
  150.7353  144.1079  159.0161 H   0  0  0  0  0  0  0  0  0  0  0  0
  154.5196  140.8116  161.9321 H   0  0  0  0  0  0  0  0  0  0  0  0
  153.1101  142.6053  162.7981 H   0  0  0  0  0  0  0  0  0  0  0  0
  1  2  1  0  0  0  0
  1 23  1  0  0  0  0
  1 24  1  0  0  0  0
  1 25  1  0  0  0  0
  2  3  1  0  0  0  0
  2 10  1  0  0  0  0
  2 26  1  0  0  0  0
  3  4  1  0  0  0  0
  3 27  1  0  0  0  0
  3 28  1  0  0  0  0
  4  9  1  0  0  0  0
  4  5  1  0  0  0  0
  5  6  1  0  0  0  0
  5 29  1  0  0  0  0
  5 30  1  0  0  0  0
  6  7  1  0  0  0  0
  6 31  1  0  0  0  0
  6 32  1  0  0  0  0
  7  8  1  0  0  0  0
  8  9  1  0  0  0  0
  8 33  1  0  0  0  0
  8 34  1  0  0  0  0
  9 35  1  0  0  0  0
  9 36  1  0  0  0  0
 10 11  1  0  0  0  0
 10 37  1  0  0  0  0
 11 12  2  0  0  0  0
 11 13  1  0  0  0  0
 13 38  1  0  0  0  0
 13 39  1  0  0  0  0
 13 14  1  0  0  0  0
 14 15  1  0  0  0  0
 14 20  1  0  0  0  0
 15 16  2  0  0  0  0
 16 17  1  0  0  0  0
 16 18  1  0  0  0  0
 17 22  1  0  0  0  0
 18 40  1  0  0  0  0
 18 19  2  0  0  0  0
 19 41  1  0  0  0  0
 19 20  1  0  0  0  0
 20 21  2  0  0  0  0
M  END
> <s_m_source_file>
AV-unprocessed.smi

> <i_m_source_file_index>
1199

> <i_lp_mmshare_version>
43012

> <i_f3d_flags>
0

> <s_epik_input>
W0NIMl0xW0NIMl1PW0NIMl1bQ0gyXU4xW0NIMl1bQ0BASF0oW0NIM10pW05IXUMoPU8pW0NIMl1uMltuSF1jKD1PKVtjSF1bY0hdYzI9Tw==

> <s_epik_cmdline>
J2VwaWtfcHl0aG9uJywgJy1waCcsICc3LjAnLCAnLXRuJywgJzgnLCAnLW1hJywgJzIwMCcsICctbWV0YWxfYmluZGluZycsICctaW1hZScsICc8aW5maWxlLm1hZT4nLCAnLW9tYWUnLCAnPG91dGZpbGUubWFlPic=

> <r_epik_Ionization_Penalty>
2.36432

> <r_epik_Ionization_Penalty_Charging>
3.67277e-08

> <r_epik_Ionization_Penalty_Neutral>
2.36432

> <r_epik_State_Penalty>
1.96081

> <r_epik_Charging_Adjusted_Penalty>
1.96081

> <i_epik_Tot_Q>
0

> <i_epik_Tot_abs_Q>
0

> <r_epik_Metal_State_Penalty>
1.96081

> <b_epik_Metal_Only>
0

> <s_lp_Force_Field>
OPLS_2005

> <r_lp_Energy>
35.6953

> <b_lp_Chiralities_Consistent>
1

> <s_lp_Variant>
AV-unprocessed.smi:1199-5

> <Gold.Version>
5.8.1

> <Gold.Id.Protein>
6NUR|6NUR_protein|mol2

> <Gold.PLP.Fitness>
41.4390

> <Gold.PLP.PLP>
-39.4775

> <Gold.PLP.part.hbond>
-1.0000

> <Gold.PLP.part.metal>
0.0000

> <Gold.PLP.part.buried>
-4.9890

> <Gold.PLP.part.nonpolar>
-33.8974

> <Gold.PLP.part.repulsive>
1.1651

> <Gold.PLP.ligand.clash>
0.0000

> <Gold.PLP.ligand.torsion>
0.5248

> <Gold.PLP.Chemscore.Hbond>
0.9920

> <Gold.PLP.Chemscore.CHOScore>
0.0000

> <Gold.PLP.Chemscore.Metal>
0.0000

> <Gold.Chemscore.Hbonds>
donor molecule, donor type, donor heavy atom, donor atom, acceptor molecule, acceptor atom, score
      P1  H  7997  8009       L1    17  0.93

> <Gold.PLP.Chemscore.Internal.Correction>
0.0352

> <Gold.Rescore>
     Score         DG    S(hbond)    S(metal)    S(lipo)     H(rot)  DE(clash)    DE(int)     intcor
      5.78      -8.86       0.95        0.00      66.23       2.94       0.06       3.02       ----

> <Gold.Chemscore.Fitness>
5.7759

> <Gold.Chemscore.DG>
-8.8574

> <Gold.Chemscore.ZeroCoef>
-5.4800

> <Gold.Chemscore.Hbond>
0.9473

> <Gold.Chemscore.Metal>
0.0000

> <Gold.Chemscore.Lipo>
66.2341

> <Gold.Chemscore.Internal_Hbond>
0.0000

> <Gold.Chemscore.DEClash>
0.0640

> <Gold.Chemscore.DEInternal>
3.0176

> <Gold.Chemscore.Rot>
2.9437

> <Gold.Chemscore.Internal.Correction>
   9.000000E+99

> <Gold.Chemscore.Hbonds>
donor molecule, donor type, donor heavy atom, donor atom, acceptor molecule, acceptor atom, score
      P1  H  7997  8009       L1    17  0.81

> <Gold.Chemscore.Hbond.Weighted>
-3.1639

> <Gold.Chemscore.Metal.Weighted>
-0.0000

> <Gold.Chemscore.Lipo.Weighted>
-7.7494

> <Gold.Chemscore.Internal_Hbond.Weighted>
0.0000

> <Gold.Chemscore.DEClash.Weighted>
0.0640

> <Gold.Chemscore.DEInternal.Weighted>
3.0176

> <Gold.Chemscore.Rot.Weighted>
7.5359

> <Gold.Chemscore.Internal.Correction.Weighted>
   9.000000E+99

> <Gold.Protein.RotatedTorsions>
[ 6907 6896 6895 6894 ] final  -44.12 input  -60.11 | X-H torsion
[ 7974 7965 7964 7962 ] final  140.31 input  175.53 | X-H torsion
[ 8008 7997 7996 7995 ] final  123.31 input   59.86 | X-H torsion
[ 10167 10162 10161 10158 ] final   44.24 input  -65.29 | X-H torsion
[ 10718 10713 10712 10709 ] final   71.56 input   66.30 | X-H torsion
[ 10763 10752 10751 10750 ] final   45.29 input  -60.55 | X-H torsion
[ 11005 11000 10999 10996 ] final -171.20 input  -57.11 | X-H torsion

> <Gold.Protein.ActiveResidues>
 VAL166  LYS551  ARG553  GLY616  TRP617  ASP618  TYR619  PRO620  LYS621  CYS622 
 ASP623  PHE694  ASN695  SER759  ASP760  ASP761  ALA762  ILE779  LEU786  VAL792 
 PHE793  MET794  SER795  GLU796  ALA797  LYS798  CYS799  TRP800  GLU811  SER814 

> <Gold.Protein.RotatedAtoms>
  150.9363  134.8775  159.7583 H   0  0  0  0  0  0  0  0  0  0  0  0  # atno 6907 bound_to 6896
  152.5060  134.4006  159.9425 H   0  0  0  0  0  0  0  0  0  0  0  0  # atno 6908 bound_to 6896
  151.4029  133.3711  159.2769 H   0  0  0  0  0  0  0  0  0  0  0  0  # atno 6909 bound_to 6896
  144.9198  139.5182  143.5669 H   0  0  0  0  0  0  0  0  0  0  0  0  # atno 7974 bound_to 7965
  156.2761  140.2766  156.1607 H   0  0  0  0  0  0  0  0  0  0  0  0  # atno 8008 bound_to 7997
  155.0756  140.0387  157.2640 H   0  0  0  0  0  0  0  0  0  0  0  0  # atno 8009 bound_to 7997
  154.7005  140.2648  155.6730 H   0  0  0  0  0  0  0  0  0  0  0  0  # atno 8010 bound_to 7997
  140.3363  144.2526  150.6161 H   0  0  0  0  0  0  0  0  0  0  0  0  # atno 10167 bound_to 10162
  157.6458  130.9535  150.0807 H   0  0  0  0  0  0  0  0  0  0  0  0  # atno 10718 bound_to 10713
  152.9827  135.6044  154.3412 H   0  0  0  0  0  0  0  0  0  0  0  0  # atno 10763 bound_to 10752
  154.3109  135.2771  155.2568 H   0  0  0  0  0  0  0  0  0  0  0  0  # atno 10764 bound_to 10752
  154.4778  135.5925  153.6424 H   0  0  0  0  0  0  0  0  0  0  0  0  # atno 10765 bound_to 10752
  140.5109  134.5803  157.5018 H   0  0  0  0  0  0  0  0  0  0  0  0  # atno 11005 bound_to 11000
  146.3199  139.8069  142.8954 LP  0  0  0  0  0  0  0  0  0  0  0  0  # atno 17320 bound_to 7965
  145.3315  141.0267  143.3444 LP  0  0  0  0  0  0  0  0  0  0  0  0  # atno 17321 bound_to 7965
  140.5350  143.2235  151.8177 LP  0  0  0  0  0  0  0  0  0  0  0  0  # atno 17342 bound_to 10162
  139.4848  144.4672  151.9469 LP  0  0  0  0  0  0  0  0  0  0  0  0  # atno 17343 bound_to 10162
  156.1784  130.3649  149.9069 LP  0  0  0  0  0  0  0  0  0  0  0  0  # atno 17370 bound_to 10713
  156.7027  130.8939  151.3601 LP  0  0  0  0  0  0  0  0  0  0  0  0  # atno 17371 bound_to 10713
  139.9659  134.7373  156.0139 LP  0  0  0  0  0  0  0  0  0  0  0  0  # atno 17394 bound_to 11000
  141.1386  133.6569  156.3665 LP  0  0  0  0  0  0  0  0  0  0  0  0  # atno 17395 bound_to 11000

$$$$
