AV-unprocessed.smi:1427|AV-procd|sdf|5810|dock10
  -GOLD-   22720 5463D 1   1.00000     0.00000
 Structure written by MMmdl.
 33 34  0  0  0  0  0  0  0  0  1 V2000
  150.3214  139.3541  158.2355 C   0  0  0  0  0  0  0  0  0  0  0  0
  150.3835  140.8730  158.0250 C   0  0  1  0  0  0  0  0  0  0  0  0
  151.8411  141.3794  157.9978 C   0  0  0  0  0  0  0  0  0  0  0  0
  151.9620  142.7587  158.4382 N   0  0  0  0  0  0  0  0  0  0  0  0
  151.5087  143.9003  157.8119 C   0  0  0  0  0  0  0  0  0  0  0  0
  151.8708  144.9618  158.5908 C   0  0  0  0  0  0  0  0  0  0  0  0
  152.5481  144.3605  159.6881 C   0  0  0  0  0  0  0  0  0  0  0  0
  152.5977  143.0415  159.5964 N   0  0  0  0  0  0  0  0  0  0  0  0
  149.6941  141.2117  156.7804 N   0  0  0  0  0  0  0  0  0  0  0  0
  150.1364  140.9415  155.5419 C   0  0  0  0  0  0  0  0  0  0  0  0
  151.2125  140.3868  155.3128 O   0  0  0  0  0  0  0  0  0  0  0  0
  149.1942  141.3303  154.3945 C   0  0  2  0  0  0  0  0  0  0  0  0
  147.9043  141.9898  154.9311 C   0  0  0  0  0  0  0  0  0  0  0  0
  146.7523  141.3782  154.1236 C   0  0  0  0  0  0  0  0  0  0  0  0
  147.3896  140.1507  153.4978 C   0  0  0  0  0  0  0  0  0  0  0  0
  146.7519  139.2795  152.9111 O   0  0  0  0  0  0  0  0  0  0  0  0
  148.7090  140.1601  153.6806 N   0  0  0  0  0  0  0  0  0  0  0  0
  150.7949  139.0697  159.1757 H   0  0  0  0  0  0  0  0  0  0  0  0
  150.8296  138.8193  157.4321 H   0  0  0  0  0  0  0  0  0  0  0  0
  149.2892  139.0039  158.2693 H   0  0  0  0  0  0  0  0  0  0  0  0
  149.8726  141.3348  158.8719 H   0  0  0  0  0  0  0  0  0  0  0  0
  152.4609  140.7663  158.6530 H   0  0  0  0  0  0  0  0  0  0  0  0
  152.2621  141.2842  156.9952 H   0  0  0  0  0  0  0  0  0  0  0  0
  150.9788  143.8629  156.8715 H   0  0  0  0  0  0  0  0  0  0  0  0
  151.6830  146.0085  158.4040 H   0  0  0  0  0  0  0  0  0  0  0  0
  153.0023  144.8396  160.5429 H   0  0  0  0  0  0  0  0  0  0  0  0
  148.7932  141.6590  156.8700 H   0  0  0  0  0  0  0  0  0  0  0  0
  149.7006  141.9846  153.6826 H   0  0  0  0  0  0  0  0  0  0  0  0
  147.7492  141.7777  155.9910 H   0  0  0  0  0  0  0  0  0  0  0  0
  147.9381  143.0746  154.8241 H   0  0  0  0  0  0  0  0  0  0  0  0
  145.9014  141.1133  154.7521 H   0  0  0  0  0  0  0  0  0  0  0  0
  146.4135  142.0519  153.3362 H   0  0  0  0  0  0  0  0  0  0  0  0
  149.3277  139.4299  153.3588 H   0  0  0  0  0  0  0  0  0  0  0  0
  1  2  1  0  0  0  0
  1 18  1  0  0  0  0
  1 19  1  0  0  0  0
  1 20  1  0  0  0  0
  2  3  1  0  0  0  0
  2  9  1  0  0  0  0
  2 21  1  0  0  0  0
  3  4  1  0  0  0  0
  3 22  1  0  0  0  0
  3 23  1  0  0  0  0
  4  8  1  0  0  0  0
  4  5  1  0  0  0  0
  5  6  2  0  0  0  0
  5 24  1  0  0  0  0
  6  7  1  0  0  0  0
  6 25  1  0  0  0  0
  7  8  2  0  0  0  0
  7 26  1  0  0  0  0
  9 10  1  0  0  0  0
  9 27  1  0  0  0  0
 10 11  2  0  0  0  0
 10 12  1  0  0  0  0
 12 17  1  0  0  0  0
 12 13  1  0  0  0  0
 12 28  1  0  0  0  0
 13 14  1  0  0  0  0
 13 29  1  0  0  0  0
 13 30  1  0  0  0  0
 14 15  1  0  0  0  0
 14 31  1  0  0  0  0
 14 32  1  0  0  0  0
 15 16  2  0  0  0  0
 15 17  1  0  0  0  0
 17 33  1  0  0  0  0
M  END
> <s_m_source_file>
AV-unprocessed.smi

> <i_m_source_file_index>
1427

> <i_lp_mmshare_version>
43012

> <i_f3d_flags>
0

> <s_epik_input>
bjFbY0hdW2NIXVtjSF1uMVtDSDJdW0NAQEhdKFtDSDNdKVtOSF1DKD1PKVtDQEBIXTJbQ0gyXVtDSDJdQyg9TylbTkhdMg==

> <s_epik_cmdline>
J2VwaWtfcHl0aG9uJywgJy1waCcsICc3LjAnLCAnLXRuJywgJzgnLCAnLW1hJywgJzIwMCcsICctbWV0YWxfYmluZGluZycsICctaW1hZScsICc8aW5maWxlLm1hZT4nLCAnLW9tYWUnLCAnPG91dGZpbGUubWFlPic=

> <r_lp_tautomer_probability>
1

> <r_epik_Ionization_Penalty>
0.000310707

> <r_epik_Ionization_Penalty_Charging>
0

> <r_epik_Ionization_Penalty_Neutral>
0.000310707

> <r_epik_State_Penalty>
-0

> <r_epik_Charging_Adjusted_Penalty>
0

> <i_epik_Tot_Q>
0

> <i_epik_Tot_abs_Q>
0

> <r_epik_Metal_State_Penalty>
-0

> <b_epik_Metal_Only>
0

> <s_lp_Force_Field>
OPLS_2005

> <r_lp_Energy>
14.2046

> <b_lp_Chiralities_Consistent>
1

> <s_lp_Variant>
AV-unprocessed.smi:1427-2

> <Gold.Version>
5.8.1

> <Gold.Id.Protein>
6NUR|6NUR_protein|mol2

> <Gold.PLP.Fitness>
38.0369

> <Gold.PLP.PLP>
-35.2286

> <Gold.PLP.part.hbond>
-2.0000

> <Gold.PLP.part.metal>
0.0000

> <Gold.PLP.part.buried>
-3.9142

> <Gold.PLP.part.nonpolar>
-29.1044

> <Gold.PLP.part.repulsive>
0.4501

> <Gold.PLP.ligand.clash>
2.2057

> <Gold.PLP.ligand.torsion>
0.4826

> <Gold.PLP.Chemscore.Hbond>
0.9815

> <Gold.PLP.Chemscore.CHOScore>
1.0000

> <Gold.PLP.Chemscore.Metal>
0.0000

> <Gold.Chemscore.Hbonds>
donor molecule, donor type, donor heavy atom, donor atom, acceptor molecule, acceptor atom, score
      L1  H    17    33       P1  7957  0.01
      P1  H  7989  7998       L1    11  0.98
      L1  C     5    24       P1  8028  0.96

> <Gold.PLP.Chemscore.Internal.Correction>
0.0349

> <Gold.Rescore>
     Score         DG    S(hbond)    S(metal)    S(lipo)     H(rot)  DE(clash)    DE(int)     intcor
     10.72     -12.43       0.95        0.00      73.48       1.88       0.03       1.67       ----

> <Gold.Chemscore.Fitness>
10.7218

> <Gold.Chemscore.DG>
-12.4270

> <Gold.Chemscore.ZeroCoef>
-5.4800

> <Gold.Chemscore.Hbond>
0.9483

> <Gold.Chemscore.Metal>
0.0000

> <Gold.Chemscore.Lipo>
73.4845

> <Gold.Chemscore.Internal_Hbond>
0.0000

> <Gold.Chemscore.DEClash>
0.0336

> <Gold.Chemscore.DEInternal>
1.6717

> <Gold.Chemscore.Rot>
1.8821

> <Gold.Chemscore.Internal.Correction>
   9.000000E+99

> <Gold.Chemscore.Hbonds>
donor molecule, donor type, donor heavy atom, donor atom, acceptor molecule, acceptor atom, score
      L1  H    17    33       P1  7957  0.02
      P1  H  7989  7998       L1    11  0.47

> <Gold.Chemscore.Hbond.Weighted>
-3.1674

> <Gold.Chemscore.Metal.Weighted>
-0.0000

> <Gold.Chemscore.Lipo.Weighted>
-8.5977

> <Gold.Chemscore.Internal_Hbond.Weighted>
0.0000

> <Gold.Chemscore.DEClash.Weighted>
0.0336

> <Gold.Chemscore.DEInternal.Weighted>
1.6717

> <Gold.Chemscore.Rot.Weighted>
4.8181

> <Gold.Chemscore.Internal.Correction.Weighted>
   9.000000E+99

> <Gold.Protein.RotatedTorsions>
[ 6907 6896 6895 6894 ] final  130.78 input  -60.11 | X-H torsion
[ 7974 7965 7964 7962 ] final  123.21 input  175.53 | X-H torsion
[ 8008 7997 7996 7995 ] final -158.01 input   59.86 | X-H torsion
[ 10167 10162 10161 10158 ] final  -89.88 input  -65.29 | X-H torsion
[ 10718 10713 10712 10709 ] final  141.89 input   66.30 | X-H torsion
[ 10763 10752 10751 10750 ] final   74.33 input  -60.55 | X-H torsion
[ 11005 11000 10999 10996 ] final  -85.37 input  -57.11 | X-H torsion

> <Gold.Protein.ActiveResidues>
 VAL166  LYS551  ARG553  GLY616  TRP617  ASP618  TYR619  PRO620  LYS621  CYS622 
 ASP623  PHE694  ASN695  SER759  ASP760  ASP761  ALA762  ILE779  LEU786  VAL792 
 PHE793  MET794  SER795  GLU796  ALA797  LYS798  CYS799  TRP800  GLU811  SER814 

> <Gold.Protein.RotatedAtoms>
  152.3492  133.6159  159.5932 H   0  0  0  0  0  0  0  0  0  0  0  0  # atno 6907 bound_to 6896
  150.7527  133.9601  159.3521 H   0  0  0  0  0  0  0  0  0  0  0  0  # atno 6908 bound_to 6896
  151.7455  135.0845  160.0373 H   0  0  0  0  0  0  0  0  0  0  0  0  # atno 6909 bound_to 6896
  145.0986  139.3535  143.4823 H   0  0  0  0  0  0  0  0  0  0  0  0  # atno 7974 bound_to 7965
  155.7411  140.0814  157.2245 H   0  0  0  0  0  0  0  0  0  0  0  0  # atno 8008 bound_to 7997
  154.4022  140.1578  156.2672 H   0  0  0  0  0  0  0  0  0  0  0  0  # atno 8009 bound_to 7997
  155.9020  140.3409  155.6036 H   0  0  0  0  0  0  0  0  0  0  0  0  # atno 8010 bound_to 7997
  140.3604  143.2845  151.9621 H   0  0  0  0  0  0  0  0  0  0  0  0  # atno 10167 bound_to 10162
  157.3868  131.0999  151.0685 H   0  0  0  0  0  0  0  0  0  0  0  0  # atno 10718 bound_to 10713
  153.0580  135.5029  154.8027 H   0  0  0  0  0  0  0  0  0  0  0  0  # atno 10763 bound_to 10752
  154.6838  135.2972  154.9579 H   0  0  0  0  0  0  0  0  0  0  0  0  # atno 10764 bound_to 10752
  154.0356  135.6724  153.4837 H   0  0  0  0  0  0  0  0  0  0  0  0  # atno 10765 bound_to 10752
  141.1642  133.7396  156.9005 H   0  0  0  0  0  0  0  0  0  0  0  0  # atno 11005 bound_to 11000
  146.3530  140.0853  142.8615 LP  0  0  0  0  0  0  0  0  0  0  0  0  # atno 17320 bound_to 7965
  145.0982  140.9328  143.4728 LP  0  0  0  0  0  0  0  0  0  0  0  0  # atno 17321 bound_to 7965
  139.4815  144.5997  151.7627 LP  0  0  0  0  0  0  0  0  0  0  0  0  # atno 17342 bound_to 10162
  140.5132  144.0993  150.6001 LP  0  0  0  0  0  0  0  0  0  0  0  0  # atno 17343 bound_to 10162
  157.1733  130.6277  149.5648 LP  0  0  0  0  0  0  0  0  0  0  0  0  # atno 17370 bound_to 10713
  155.9789  130.4778  150.6681 LP  0  0  0  0  0  0  0  0  0  0  0  0  # atno 17371 bound_to 10713
  140.1586  134.9181  157.2685 LP  0  0  0  0  0  0  0  0  0  0  0  0  # atno 17394 bound_to 11000
  140.2638  134.3540  155.7397 LP  0  0  0  0  0  0  0  0  0  0  0  0  # atno 17395 bound_to 11000

$$$$
