AV-unprocessed.smi:2273|AV-procd|sdf|9166|dock8
  -GOLD-   2272012383D 1   1.00000     0.00000
 Structure written by MMmdl.
 53 54  0  0  0  0  0  0  0  0  1 V2000
  144.0879  132.1414  151.1606 C   0  0  0  0  0  0  0  0  0  0  0  0
  145.4140  131.5477  150.6664 C   0  0  0  0  0  0  0  0  0  0  0  0
  146.2255  130.7194  151.7004 C   0  0  0  0  0  0  0  0  0  0  0  0
  145.5134  129.3677  151.9758 C   0  0  0  0  0  0  0  0  0  0  0  0
  146.3411  128.3428  152.7668 C   0  0  0  0  0  0  0  0  0  0  0  0
  146.4854  131.5172  153.0148 C   0  0  2  0  0  0  0  0  0  0  0  0
  147.3669  132.7693  152.8000 C   0  0  0  0  0  0  0  0  0  0  0  0
  147.5458  133.5450  154.1176 C   0  0  2  0  0  0  0  0  0  0  0  0
  148.4395  134.6925  153.9453 N   0  0  0  0  0  0  0  0  0  0  0  0
  149.0426  135.4249  154.8995 C   0  0  0  0  0  0  0  0  0  0  0  0
  148.8734  135.1877  156.0945 O   0  0  0  0  0  0  0  0  0  0  0  0
  149.8121  136.4259  154.4254 N   0  0  0  0  0  0  0  0  0  0  0  0
  150.5479  137.3521  155.1796 C   0  0  0  0  0  0  0  0  0  0  0  0
  150.2755  138.6755  155.0344 C   0  0  0  0  0  0  0  0  0  0  0  0
  149.1736  139.1689  154.1098 C   0  0  0  0  0  0  0  0  0  0  0  0
  151.0428  139.6399  155.7948 C   0  0  0  0  0  0  0  0  0  0  0  0
  152.0122  139.2117  156.6141 C   0  0  0  0  0  0  0  0  0  0  0  0
  152.3182  137.8495  156.7447 N   0  0  0  0  0  0  0  0  0  0  0  0
  153.4095  137.4830  157.6512 C   0  0  0  0  0  0  0  0  0  0  0  0
  151.6627  136.8837  156.0387 C   0  0  0  0  0  0  0  0  0  0  0  0
  152.0110  135.7031  156.1126 O   0  0  0  0  0  0  0  0  0  0  0  0
  148.1141  132.5943  155.1787 C   0  0  0  0  0  0  0  0  0  0  0  0
  147.2612  131.3199  155.2684 C   0  0  0  0  0  0  0  0  0  0  0  0
  147.1600  130.7126  153.9839 O   0  0  0  0  0  0  0  0  0  0  0  0
  143.6698  132.8160  150.4129 H   0  0  0  0  0  0  0  0  0  0  0  0
  144.2259  132.7141  152.0779 H   0  0  0  0  0  0  0  0  0  0  0  0
  143.3430  131.3667  151.3409 H   0  0  0  0  0  0  0  0  0  0  0  0
  145.2205  130.9397  149.7817 H   0  0  0  0  0  0  0  0  0  0  0  0
  146.0165  132.3877  150.3240 H   0  0  0  0  0  0  0  0  0  0  0  0
  147.1926  130.4757  151.2583 H   0  0  0  0  0  0  0  0  0  0  0  0
  144.6112  129.5434  152.5619 H   0  0  0  0  0  0  0  0  0  0  0  0
  145.1831  128.9224  151.0363 H   0  0  0  0  0  0  0  0  0  0  0  0
  145.7223  127.4914  153.0505 H   0  0  0  0  0  0  0  0  0  0  0  0
  146.7410  128.7792  153.6827 H   0  0  0  0  0  0  0  0  0  0  0  0
  147.1732  127.9501  152.1833 H   0  0  0  0  0  0  0  0  0  0  0  0
  145.5212  131.8069  153.4369 H   0  0  0  0  0  0  0  0  0  0  0  0
  148.3429  132.4627  152.4205 H   0  0  0  0  0  0  0  0  0  0  0  0
  146.9471  133.4230  152.0406 H   0  0  0  0  0  0  0  0  0  0  0  0
  146.5721  133.8956  154.4658 H   0  0  0  0  0  0  0  0  0  0  0  0
  148.6276  134.9604  152.9898 H   0  0  0  0  0  0  0  0  0  0  0  0
  149.7772  136.5993  153.4318 H   0  0  0  0  0  0  0  0  0  0  0  0
  149.0775  140.2540  154.1530 H   0  0  0  0  0  0  0  0  0  0  0  0
  148.2132  138.7359  154.3920 H   0  0  0  0  0  0  0  0  0  0  0  0
  149.3890  138.8914  153.0774 H   0  0  0  0  0  0  0  0  0  0  0  0
  150.8337  140.6965  155.7125 H   0  0  0  0  0  0  0  0  0  0  0  0
  152.6153  139.8826  157.2084 H   0  0  0  0  0  0  0  0  0  0  0  0
  153.0695  136.7538  158.3883 H   0  0  0  0  0  0  0  0  0  0  0  0
  153.8042  138.3372  158.2022 H   0  0  0  0  0  0  0  0  0  0  0  0
  154.2370  137.0425  157.0936 H   0  0  0  0  0  0  0  0  0  0  0  0
  149.1388  132.3216  154.9216 H   0  0  0  0  0  0  0  0  0  0  0  0
  148.1557  133.0872  156.1507 H   0  0  0  0  0  0  0  0  0  0  0  0
  147.7207  130.6110  155.9570 H   0  0  0  0  0  0  0  0  0  0  0  0
  146.2666  131.5420  155.6580 H   0  0  0  0  0  0  0  0  0  0  0  0
  1  2  1  0  0  0  0
  1 25  1  0  0  0  0
  1 26  1  0  0  0  0
  1 27  1  0  0  0  0
  2  3  1  0  0  0  0
  2 28  1  0  0  0  0
  2 29  1  0  0  0  0
  3  4  1  0  0  0  0
  3  6  1  0  0  0  0
  3 30  1  0  0  0  0
  4  5  1  0  0  0  0
  4 31  1  0  0  0  0
  4 32  1  0  0  0  0
  5 33  1  0  0  0  0
  5 34  1  0  0  0  0
  5 35  1  0  0  0  0
  6 24  1  0  0  0  0
  6  7  1  0  0  0  0
  6 36  1  0  0  0  0
  7  8  1  0  0  0  0
  7 37  1  0  0  0  0
  7 38  1  0  0  0  0
  8  9  1  0  0  0  0
  8 22  1  0  0  0  0
  8 39  1  0  0  0  0
  9 10  1  0  0  0  0
  9 40  1  0  0  0  0
 10 11  2  0  0  0  0
 10 12  1  0  0  0  0
 12 13  1  0  0  0  0
 12 41  1  0  0  0  0
 13 20  1  0  0  0  0
 13 14  2  0  0  0  0
 14 15  1  0  0  0  0
 14 16  1  0  0  0  0
 15 42  1  0  0  0  0
 15 43  1  0  0  0  0
 15 44  1  0  0  0  0
 16 17  2  0  0  0  0
 16 45  1  0  0  0  0
 17 18  1  0  0  0  0
 17 46  1  0  0  0  0
 18 19  1  0  0  0  0
 18 20  1  0  0  0  0
 19 47  1  0  0  0  0
 19 48  1  0  0  0  0
 19 49  1  0  0  0  0
 20 21  2  0  0  0  0
 22 23  1  0  0  0  0
 22 50  1  0  0  0  0
 22 51  1  0  0  0  0
 23 24  1  0  0  0  0
 23 52  1  0  0  0  0
 23 53  1  0  0  0  0
M  END
> <s_m_source_file>
AV-unprocessed.smi

> <i_m_source_file_index>
2273

> <i_lp_mmshare_version>
43012

> <i_f3d_flags>
0

> <s_epik_input>
W0NIM11bQ0gyXVtDSF0oW0NIMl1bQ0gzXSlbQ0BASF0xW0NIMl1bQ0BIXShbQ0gyXVtDSDJdTzEpW05IXUMoPU8pW05IXWMyYyhbQ0gzXSlbY0hdW2NIXW4oW0NIM10pYzI9Tw==

> <s_epik_cmdline>
J2VwaWtfcHl0aG9uJywgJy1waCcsICc3LjAnLCAnLXRuJywgJzgnLCAnLW1hJywgJzIwMCcsICctbWV0YWxfYmluZGluZycsICctaW1hZScsICc8aW5maWxlLm1hZT4nLCAnLW9tYWUnLCAnPG91dGZpbGUubWFlPic=

> <r_lp_tautomer_probability>
1

> <r_epik_Ionization_Penalty>
2.66245e-05

> <r_epik_Ionization_Penalty_Charging>
6.91055e-06

> <r_epik_Ionization_Penalty_Neutral>
1.97139e-05

> <r_epik_State_Penalty>
-0

> <r_epik_Charging_Adjusted_Penalty>
6.91055e-06

> <i_epik_Tot_Q>
0

> <i_epik_Tot_abs_Q>
0

> <r_epik_Metal_State_Penalty>
-0

> <b_epik_Metal_Only>
0

> <s_lp_Force_Field>
OPLS_2005

> <r_lp_Energy>
42.9176

> <b_lp_Chiralities_Consistent>
1

> <s_lp_Variant>
AV-unprocessed.smi:2273-3

> <Gold.Version>
5.8.1

> <Gold.Id.Protein>
6NUR|6NUR_protein|mol2

> <Gold.PLP.Fitness>
40.8461

> <Gold.PLP.PLP>
-33.1942

> <Gold.PLP.part.hbond>
-3.1920

> <Gold.PLP.part.metal>
0.0000

> <Gold.PLP.part.buried>
-2.1024

> <Gold.PLP.part.nonpolar>
-28.3598

> <Gold.PLP.part.repulsive>
0.1904

> <Gold.PLP.ligand.clash>
0.0000

> <Gold.PLP.ligand.torsion>
0.8934

> <Gold.PLP.Chemscore.Hbond>
2.9680

> <Gold.PLP.Chemscore.CHOScore>
0.0000

> <Gold.PLP.Chemscore.Metal>
0.0000

> <Gold.Chemscore.Hbonds>
donor molecule, donor type, donor heavy atom, donor atom, acceptor molecule, acceptor atom, score
      L1  H     9    40       P1  7948  0.99
      L1  H    12    41       P1  7948  0.96
      P1  H 10752 10763       L1    21  1.00

> <Gold.PLP.Chemscore.Internal.Correction>
0.5346

> <Gold.Rescore>
     Score         DG    S(hbond)    S(metal)    S(lipo)     H(rot)  DE(clash)    DE(int)     intcor
     18.71     -22.25       2.74        0.00      96.26       1.42       0.01       3.53       ----

> <Gold.Chemscore.Fitness>
18.7098

> <Gold.Chemscore.DG>
-22.2516

> <Gold.Chemscore.ZeroCoef>
-5.4800

> <Gold.Chemscore.Hbond>
2.7408

> <Gold.Chemscore.Metal>
0.0000

> <Gold.Chemscore.Lipo>
96.2561

> <Gold.Chemscore.Internal_Hbond>
0.0000

> <Gold.Chemscore.DEClash>
0.0106

> <Gold.Chemscore.DEInternal>
3.5311

> <Gold.Chemscore.Rot>
1.4236

> <Gold.Chemscore.Internal.Correction>
   9.000000E+99

> <Gold.Chemscore.Hbonds>
donor molecule, donor type, donor heavy atom, donor atom, acceptor molecule, acceptor atom, score
      L1  H     9    40       P1  7948  0.42
      L1  H    12    41       P1  7948  0.32
      P1  H 10752 10763       L1    21  0.68

> <Gold.Chemscore.Hbond.Weighted>
-9.1541

> <Gold.Chemscore.Metal.Weighted>
-0.0000

> <Gold.Chemscore.Lipo.Weighted>
-11.2620

> <Gold.Chemscore.Internal_Hbond.Weighted>
0.0000

> <Gold.Chemscore.DEClash.Weighted>
0.0106

> <Gold.Chemscore.DEInternal.Weighted>
3.5311

> <Gold.Chemscore.Rot.Weighted>
3.6445

> <Gold.Chemscore.Internal.Correction.Weighted>
   9.000000E+99

> <Gold.Protein.RotatedTorsions>
[ 6907 6896 6895 6894 ] final  -96.66 input  -60.11 | X-H torsion
[ 7974 7965 7964 7962 ] final  -93.77 input  175.53 | X-H torsion
[ 8008 7997 7996 7995 ] final   60.45 input   59.86 | X-H torsion
[ 10167 10162 10161 10158 ] final   55.01 input  -65.29 | X-H torsion
[ 10718 10713 10712 10709 ] final  -68.34 input   66.30 | X-H torsion
[ 10763 10752 10751 10750 ] final   93.44 input  -60.55 | X-H torsion
[ 11005 11000 10999 10996 ] final  -99.27 input  -57.11 | X-H torsion

> <Gold.Protein.ActiveResidues>
 VAL166  LYS551  ARG553  GLY616  TRP617  ASP618  TYR619  PRO620  LYS621  CYS622 
 ASP623  PHE694  ASN695  SER759  ASP760  ASP761  ALA762  ILE779  LEU786  VAL792 
 PHE793  MET794  SER795  GLU796  ALA797  LYS798  CYS799  TRP800  GLU811  SER814 

> <Gold.Protein.RotatedAtoms>
  150.6995  134.1468  159.4125 H   0  0  0  0  0  0  0  0  0  0  0  0  # atno 6907 bound_to 6896
  151.9452  135.0192  160.0548 H   0  0  0  0  0  0  0  0  0  0  0  0  # atno 6908 bound_to 6896
  152.2059  133.4840  159.5120 H   0  0  0  0  0  0  0  0  0  0  0  0  # atno 6909 bound_to 6896
  145.3822  140.9519  143.2387 H   0  0  0  0  0  0  0  0  0  0  0  0  # atno 7974 bound_to 7965
  155.5826  140.3491  155.4544 H   0  0  0  0  0  0  0  0  0  0  0  0  # atno 8008 bound_to 7997
  156.0362  140.1285  157.0230 H   0  0  0  0  0  0  0  0  0  0  0  0  # atno 8009 bound_to 7997
  154.4372  140.1033  156.6156 H   0  0  0  0  0  0  0  0  0  0  0  0  # atno 8010 bound_to 7997
  140.2240  144.3758  150.6439 H   0  0  0  0  0  0  0  0  0  0  0  0  # atno 10167 bound_to 10162
  156.0510  130.4293  150.1987 H   0  0  0  0  0  0  0  0  0  0  0  0  # atno 10718 bound_to 10713
  153.2303  135.4325  155.0587 H   0  0  0  0  0  0  0  0  0  0  0  0  # atno 10763 bound_to 10752
  154.8293  135.3378  154.6797 H   0  0  0  0  0  0  0  0  0  0  0  0  # atno 10764 bound_to 10752
  153.7225  135.7016  153.5065 H   0  0  0  0  0  0  0  0  0  0  0  0  # atno 10765 bound_to 10752
  141.1314  133.8309  157.0950 H   0  0  0  0  0  0  0  0  0  0  0  0  # atno 11005 bound_to 11000
  144.8500  139.5337  143.6861 LP  0  0  0  0  0  0  0  0  0  0  0  0  # atno 17320 bound_to 7965
  146.2837  139.6945  142.9211 LP  0  0  0  0  0  0  0  0  0  0  0  0  # atno 17321 bound_to 7965
  140.6234  143.2178  151.6647 LP  0  0  0  0  0  0  0  0  0  0  0  0  # atno 17342 bound_to 10162
  139.5134  144.3446  152.0709 LP  0  0  0  0  0  0  0  0  0  0  0  0  # atno 17343 bound_to 10162
  157.0070  130.9939  151.3376 LP  0  0  0  0  0  0  0  0  0  0  0  0  # atno 17370 bound_to 10713
  157.5436  130.8136  149.8059 LP  0  0  0  0  0  0  0  0  0  0  0  0  # atno 17371 bound_to 10713
  140.0369  134.9874  157.0887 LP  0  0  0  0  0  0  0  0  0  0  0  0  # atno 17394 bound_to 11000
  140.4197  134.1894  155.7164 LP  0  0  0  0  0  0  0  0  0  0  0  0  # atno 17395 bound_to 11000

$$$$
