AV-unprocessed.smi:1017|AV-procd|sdf|4438|dock8
  -GOLD-   22720 2393D 1   1.00000     0.00000
 Structure written by MMmdl.
 44 45  0  0  0  0  0  0  0  0  1 V2000
  153.7271  137.9608  155.7058 C   0  0  0  0  0  0  0  0  0  0  0  0
  153.1776  138.9656  154.8719 O   0  0  0  0  0  0  0  0  0  0  0  0
  151.9757  138.5529  154.2441 C   0  0  0  0  0  0  0  0  0  0  0  0
  150.9886  138.0822  155.3231 C   0  0  0  0  0  0  0  0  0  0  0  0
  149.6106  138.4675  155.0008 N   0  0  0  0  0  0  0  0  0  0  0  0
  148.7436  137.3970  154.8572 N   0  0  0  0  0  0  0  0  0  0  0  0
  147.4997  137.5988  154.5694 C   0  0  0  0  0  0  0  0  0  0  0  0
  146.5761  136.4374  154.4241 C   0  0  0  0  0  0  0  0  0  0  0  0
  145.5375  136.3747  155.0824 O   0  0  0  0  0  0  0  0  0  0  0  0
  146.9512  135.4946  153.5379 N   0  0  0  0  0  0  0  0  0  0  0  0
  146.2766  134.2468  153.1426 C   0  0  0  0  0  0  0  0  0  0  0  0
  144.9163  134.5670  152.4575 C   0  0  0  0  0  0  0  0  0  0  0  0
  144.3311  133.4450  152.0359 F   0  0  0  0  0  0  0  0  0  0  0  0
  144.0932  135.1660  153.3200 F   0  0  0  0  0  0  0  0  0  0  0  0
  145.0657  135.3638  151.3997 F   0  0  0  0  0  0  0  0  0  0  0  0
  147.1699  133.3676  152.2209 C   0  0  0  0  0  0  0  0  0  0  0  0
  148.4775  132.9188  152.8987 C   0  0  0  0  0  0  0  0  0  0  0  0
  148.1904  132.1577  154.2005 C   0  0  0  0  0  0  0  0  0  0  0  0
  147.3152  132.9909  155.1477 C   0  0  0  0  0  0  0  0  0  0  0  0
  146.0193  133.4542  154.4530 C   0  0  0  0  0  0  0  0  0  0  0  0
  146.9891  138.9527  154.3893 C   0  0  0  0  0  0  0  0  0  0  0  0
  147.8485  139.9853  154.5313 C   0  0  0  0  0  0  0  0  0  0  0  0
  149.2602  139.7808  154.8563 C   0  0  0  0  0  0  0  0  0  0  0  0
  150.0615  140.7059  154.9851 O   0  0  0  0  0  0  0  0  0  0  0  0
  154.6493  138.3254  156.1584 H   0  0  0  0  0  0  0  0  0  0  0  0
  153.9646  137.0613  155.1362 H   0  0  0  0  0  0  0  0  0  0  0  0
  153.0393  137.6952  156.5099 H   0  0  0  0  0  0  0  0  0  0  0  0
  151.5519  139.3820  153.6748 H   0  0  0  0  0  0  0  0  0  0  0  0
  152.1802  137.7415  153.5436 H   0  0  0  0  0  0  0  0  0  0  0  0
  151.0578  136.9977  155.4262 H   0  0  0  0  0  0  0  0  0  0  0  0
  151.2773  138.4849  156.2955 H   0  0  0  0  0  0  0  0  0  0  0  0
  147.8272  135.6642  153.0656 H   0  0  0  0  0  0  0  0  0  0  0  0
  146.6130  132.4768  151.9281 H   0  0  0  0  0  0  0  0  0  0  0  0
  147.3991  133.8784  151.2864 H   0  0  0  0  0  0  0  0  0  0  0  0
  149.0459  132.2840  152.2187 H   0  0  0  0  0  0  0  0  0  0  0  0
  149.1083  133.7837  153.1071 H   0  0  0  0  0  0  0  0  0  0  0  0
  147.6859  131.2186  153.9693 H   0  0  0  0  0  0  0  0  0  0  0  0
  149.1269  131.8933  154.6926 H   0  0  0  0  0  0  0  0  0  0  0  0
  147.0687  132.4026  156.0320 H   0  0  0  0  0  0  0  0  0  0  0  0
  147.8793  133.8533  155.5046 H   0  0  0  0  0  0  0  0  0  0  0  0
  145.4332  134.0565  155.1483 H   0  0  0  0  0  0  0  0  0  0  0  0
  145.4133  132.5731  154.2391 H   0  0  0  0  0  0  0  0  0  0  0  0
  145.9548  139.1503  154.1496 H   0  0  0  0  0  0  0  0  0  0  0  0
  147.4840  140.9937  154.4013 H   0  0  0  0  0  0  0  0  0  0  0  0
  1  2  1  0  0  0  0
  1 25  1  0  0  0  0
  1 26  1  0  0  0  0
  1 27  1  0  0  0  0
  2  3  1  0  0  0  0
  3  4  1  0  0  0  0
  3 28  1  0  0  0  0
  3 29  1  0  0  0  0
  4  5  1  0  0  0  0
  4 30  1  0  0  0  0
  4 31  1  0  0  0  0
  5 23  1  0  0  0  0
  5  6  1  0  0  0  0
  6  7  2  0  0  0  0
  7  8  1  0  0  0  0
  7 21  1  0  0  0  0
  8  9  2  0  0  0  0
  8 10  1  0  0  0  0
 10 11  1  0  0  0  0
 10 32  1  0  0  0  0
 11 20  1  0  0  0  0
 11 12  1  0  0  0  0
 11 16  1  0  0  0  0
 12 13  1  0  0  0  0
 12 14  1  0  0  0  0
 12 15  1  0  0  0  0
 16 17  1  0  0  0  0
 16 33  1  0  0  0  0
 16 34  1  0  0  0  0
 17 18  1  0  0  0  0
 17 35  1  0  0  0  0
 17 36  1  0  0  0  0
 18 19  1  0  0  0  0
 18 37  1  0  0  0  0
 18 38  1  0  0  0  0
 19 20  1  0  0  0  0
 19 39  1  0  0  0  0
 19 40  1  0  0  0  0
 20 41  1  0  0  0  0
 20 42  1  0  0  0  0
 21 22  2  0  0  0  0
 21 43  1  0  0  0  0
 22 23  1  0  0  0  0
 22 44  1  0  0  0  0
 23 24  2  0  0  0  0
M  END
> <s_m_source_file>
AV-unprocessed.smi

> <i_m_source_file_index>
1017

> <i_lp_mmshare_version>
43012

> <i_f3d_flags>
0

> <s_epik_input>
W0NIM11PW0NIMl1bQ0gyXW4xbmMoW2NIXVtjSF1jMT1PKUMoPU8pW05IXUMyKEMoRikoRilGKVtDSDJdW0NIMl1bQ0gyXVtDSDJdW0NIMl0y

> <s_epik_cmdline>
J2VwaWtfcHl0aG9uJywgJy1waCcsICc3LjAnLCAnLXRuJywgJzgnLCAnLW1hJywgJzIwMCcsICctbWV0YWxfYmluZGluZycsICctaW1hZScsICc8aW5maWxlLm1hZT4nLCAnLW9tYWUnLCAnPG91dGZpbGUubWFlPic=

> <r_lp_tautomer_probability>
1

> <r_epik_Ionization_Penalty>
9.29602e-06

> <r_epik_Ionization_Penalty_Charging>
4.97824e-09

> <r_epik_Ionization_Penalty_Neutral>
9.29104e-06

> <r_epik_State_Penalty>
-0

> <r_epik_Charging_Adjusted_Penalty>
4.97824e-09

> <i_epik_Tot_Q>
0

> <i_epik_Tot_abs_Q>
0

> <r_epik_Metal_State_Penalty>
0.00907788

> <b_epik_Metal_Only>
0

> <s_lp_Force_Field>
OPLS_2005

> <r_lp_Energy>
35.4859

> <b_lp_Chiralities_Consistent>
1

> <s_lp_Variant>
AV-unprocessed.smi:1017-1

> <Gold.Version>
5.8.1

> <Gold.Id.Protein>
6NUR|6NUR_protein|mol2

> <Gold.PLP.Fitness>
39.2344

> <Gold.PLP.PLP>
-33.6124

> <Gold.PLP.part.hbond>
-2.8252

> <Gold.PLP.part.metal>
0.0000

> <Gold.PLP.part.buried>
-3.6133

> <Gold.PLP.part.nonpolar>
-28.1910

> <Gold.PLP.part.repulsive>
0.3446

> <Gold.PLP.ligand.clash>
0.0000

> <Gold.PLP.ligand.torsion>
1.4047

> <Gold.PLP.Chemscore.Hbond>
2.7680

> <Gold.PLP.Chemscore.CHOScore>
0.0000

> <Gold.PLP.Chemscore.Metal>
0.0000

> <Gold.Chemscore.Hbonds>
donor molecule, donor type, donor heavy atom, donor atom, acceptor molecule, acceptor atom, score
      L1  H    10    32       P1  7948  1.00
      P1  H  7989  7998       L1    24  0.57
      P1  H  7997  8008       L1     2  0.10

> <Gold.PLP.Chemscore.Internal.Correction>
0.1275

> <Gold.Rescore>
     Score         DG    S(hbond)    S(metal)    S(lipo)     H(rot)  DE(clash)    DE(int)     intcor
      9.72     -14.65       2.07        0.00      56.34       1.70       0.33       4.60       ----

> <Gold.Chemscore.Fitness>
9.7208

> <Gold.Chemscore.DG>
-14.6489

> <Gold.Chemscore.ZeroCoef>
-5.4800

> <Gold.Chemscore.Hbond>
2.0731

> <Gold.Chemscore.Metal>
0.0000

> <Gold.Chemscore.Lipo>
56.3418

> <Gold.Chemscore.Internal_Hbond>
0.0000

> <Gold.Chemscore.DEClash>
0.3315

> <Gold.Chemscore.DEInternal>
4.5966

> <Gold.Chemscore.Rot>
1.6982

> <Gold.Chemscore.Internal.Correction>
   9.000000E+99

> <Gold.Chemscore.Hbonds>
donor molecule, donor type, donor heavy atom, donor atom, acceptor molecule, acceptor atom, score
      L1  H    10    32       P1  7948  1.00
      P1  H  7989  7998       L1    24  0.53

> <Gold.Chemscore.Hbond.Weighted>
-6.9243

> <Gold.Chemscore.Metal.Weighted>
-0.0000

> <Gold.Chemscore.Lipo.Weighted>
-6.5920

> <Gold.Chemscore.Internal_Hbond.Weighted>
0.0000

> <Gold.Chemscore.DEClash.Weighted>
0.3315

> <Gold.Chemscore.DEInternal.Weighted>
4.5966

> <Gold.Chemscore.Rot.Weighted>
4.3474

> <Gold.Chemscore.Internal.Correction.Weighted>
   9.000000E+99

> <Gold.Protein.RotatedTorsions>
[ 6907 6896 6895 6894 ] final  165.85 input  -60.11 | X-H torsion
[ 7974 7965 7964 7962 ] final   29.43 input  175.53 | X-H torsion
[ 8008 7997 7996 7995 ] final  -22.07 input   59.86 | X-H torsion
[ 10167 10162 10161 10158 ] final   17.60 input  -65.29 | X-H torsion
[ 10718 10713 10712 10709 ] final  111.20 input   66.30 | X-H torsion
[ 10763 10752 10751 10750 ] final   85.27 input  -60.55 | X-H torsion
[ 11005 11000 10999 10996 ] final  143.53 input  -57.11 | X-H torsion

> <Gold.Protein.ActiveResidues>
 VAL166  LYS551  ARG553  GLY616  TRP617  ASP618  TYR619  PRO620  LYS621  CYS622 
 ASP623  PHE694  ASN695  SER759  ASP760  ASP761  ALA762  ILE779  LEU786  VAL792 
 PHE793  MET794  SER795  GLU796  ALA797  LYS798  CYS799  TRP800  GLU811  SER814 

> <Gold.Protein.RotatedAtoms>
  151.8880  133.3509  159.3788 H   0  0  0  0  0  0  0  0  0  0  0  0  # atno 6907 bound_to 6896
  150.7110  134.4953  159.5544 H   0  0  0  0  0  0  0  0  0  0  0  0  # atno 6908 bound_to 6896
  152.2517  134.8126  160.0496 H   0  0  0  0  0  0  0  0  0  0  0  0  # atno 6909 bound_to 6896
  146.1672  139.6923  142.8993 H   0  0  0  0  0  0  0  0  0  0  0  0  # atno 7974 bound_to 7965
  154.4666  140.2017  156.0102 H   0  0  0  0  0  0  0  0  0  0  0  0  # atno 8008 bound_to 7997
  156.0938  140.3254  155.7822 H   0  0  0  0  0  0  0  0  0  0  0  0  # atno 8009 bound_to 7997
  155.4912  140.0546  157.2944 H   0  0  0  0  0  0  0  0  0  0  0  0  # atno 8010 bound_to 7997
  140.5714  143.9154  150.6716 H   0  0  0  0  0  0  0  0  0  0  0  0  # atno 10167 bound_to 10162
  157.6456  131.0946  150.6714 H   0  0  0  0  0  0  0  0  0  0  0  0  # atno 10718 bound_to 10713
  153.1459  135.4623  154.9565 H   0  0  0  0  0  0  0  0  0  0  0  0  # atno 10763 bound_to 10752
  154.7786  135.3181  154.8042 H   0  0  0  0  0  0  0  0  0  0  0  0  # atno 10764 bound_to 10752
  153.8556  135.6917  153.4842 H   0  0  0  0  0  0  0  0  0  0  0  0  # atno 10765 bound_to 10752
  140.0561  134.9230  157.1102 H   0  0  0  0  0  0  0  0  0  0  0  0  # atno 11005 bound_to 11000
  145.4437  141.0424  143.2843 LP  0  0  0  0  0  0  0  0  0  0  0  0  # atno 17320 bound_to 7965
  144.8109  139.5963  143.7030 LP  0  0  0  0  0  0  0  0  0  0  0  0  # atno 17321 bound_to 7965
  140.2630  143.3510  152.1306 LP  0  0  0  0  0  0  0  0  0  0  0  0  # atno 17342 bound_to 10162
  139.5119  144.6909  151.5763 LP  0  0  0  0  0  0  0  0  0  0  0  0  # atno 17343 bound_to 10162
  156.7031  130.4629  149.5567 LP  0  0  0  0  0  0  0  0  0  0  0  0  # atno 17370 bound_to 10713
  156.1781  130.6481  151.0919 LP  0  0  0  0  0  0  0  0  0  0  0  0  # atno 17371 bound_to 10713
  140.3842  134.2254  155.7169 LP  0  0  0  0  0  0  0  0  0  0  0  0  # atno 17394 bound_to 11000
  141.1952  133.8110  157.0723 LP  0  0  0  0  0  0  0  0  0  0  0  0  # atno 17395 bound_to 11000

$$$$
