AV-unprocessed.smi:2908|AV-procd|sdf|11170|dock1
  -GOLD-   2272016 63D 1   1.00000     0.00000
 Structure written by MMmdl.
 44 45  0  0  0  0  0  0  0  0  2 V2000
  146.8500  139.9132  156.6929 O   0  0  0  0  0  0  0  0  0  0  0  0
  147.8855  139.3488  157.0498 C   0  0  0  0  0  0  0  0  0  0  0  0
  149.0648  139.9922  157.1090 N   0  0  0  0  0  0  0  0  0  0  0  0
  149.2901  141.3990  156.7845 C   0  0  0  0  0  0  0  0  0  0  0  0
  150.7877  141.7447  156.6650 C   0  0  0  0  0  0  0  0  0  0  0  0
  151.3002  142.6353  157.7833 C   0  0  0  0  0  0  0  0  0  0  0  0
  152.0996  142.1377  158.8359 C   0  0  0  0  0  0  0  0  0  0  0  0
  152.5648  143.0272  159.8267 C   0  0  0  0  0  0  0  0  0  0  0  0
  152.2196  144.3922  159.7466 C   0  0  0  0  0  0  0  0  0  0  0  0
  151.4158  144.8341  158.6762 C   0  0  0  0  0  0  0  0  0  0  0  0
  150.9897  143.9515  157.7462 N   0  3  0  0  0  0  0  0  0  0  0  0
  147.9427  138.0290  157.3594 N   0  0  0  0  0  0  0  0  0  0  0  0
  149.1454  137.2767  157.7513 C   0  0  0  0  0  0  0  0  0  0  0  0
  149.0881  137.0101  159.2657 C   0  0  0  0  0  0  0  0  0  0  0  0
  147.7966  136.2547  159.6629 C   0  0  0  0  0  0  0  0  0  0  0  0
  147.7268  136.0186  161.1949 C   0  0  1  0  0  0  0  0  0  0  0  0
  147.2314  137.1726  161.8475 O   0  0  0  0  0  0  0  0  0  0  0  0
  146.9063  134.7888  161.6425 C   0  0  0  0  0  0  0  0  0  0  0  0
  147.0271  134.6283  162.9604 F   0  0  0  0  0  0  0  0  0  0  0  0
  145.6148  134.9123  161.3383 F   0  0  0  0  0  0  0  0  0  0  0  0
  147.3821  133.6922  161.0528 F   0  0  0  0  0  0  0  0  0  0  0  0
  146.5484  136.9457  159.0579 C   0  0  0  0  0  0  0  0  0  0  0  0
  146.7321  137.2236  157.5545 C   0  0  0  0  0  0  0  0  0  0  0  0
  149.8718  139.4605  157.4021 H   0  0  0  0  0  0  0  0  0  0  0  0
  148.7650  141.6709  155.8672 H   0  0  0  0  0  0  0  0  0  0  0  0
  148.8426  141.9999  157.5762 H   0  0  0  0  0  0  0  0  0  0  0  0
  151.3747  140.8255  156.6540 H   0  0  0  0  0  0  0  0  0  0  0  0
  150.9756  142.2332  155.7079 H   0  0  0  0  0  0  0  0  0  0  0  0
  152.3628  141.0908  158.8788 H   0  0  0  0  0  0  0  0  0  0  0  0
  153.1816  142.6668  160.6369 H   0  0  0  0  0  0  0  0  0  0  0  0
  152.5679  145.0901  160.4939 H   0  0  0  0  0  0  0  0  0  0  0  0
  151.1062  145.8592  158.5345 H   0  0  0  0  0  0  0  0  0  0  0  0
  149.1701  136.3307  157.2080 H   0  0  0  0  0  0  0  0  0  0  0  0
  150.0819  137.7754  157.5018 H   0  0  0  0  0  0  0  0  0  0  0  0
  149.9640  136.4358  159.5693 H   0  0  0  0  0  0  0  0  0  0  0  0
  149.1445  137.9612  159.7970 H   0  0  0  0  0  0  0  0  0  0  0  0
  147.8676  135.2724  159.1940 H   0  0  0  0  0  0  0  0  0  0  0  0
  148.7473  135.8706  161.5516 H   0  0  0  0  0  0  0  0  0  0  0  0
  146.8320  136.9068  162.6618 H   0  0  0  0  0  0  0  0  0  0  0  0
  145.6646  136.3235  159.1896 H   0  0  0  0  0  0  0  0  0  0  0  0
  146.3492  137.8860  159.5734 H   0  0  0  0  0  0  0  0  0  0  0  0
  145.8384  137.7024  157.1518 H   0  0  0  0  0  0  0  0  0  0  0  0
  146.8312  136.2835  157.0097 H   0  0  0  0  0  0  0  0  0  0  0  0
  150.4152  144.2949  156.9762 H   0  0  0  0  0  0  0  0  0  0  0  0
  1  2  2  0  0  0  0
  2  3  1  0  0  0  0
  2 12  1  0  0  0  0
  3  4  1  0  0  0  0
  3 24  1  0  0  0  0
  4  5  1  0  0  0  0
  4 25  1  0  0  0  0
  4 26  1  0  0  0  0
  5  6  1  0  0  0  0
  5 27  1  0  0  0  0
  5 28  1  0  0  0  0
  6 11  1  0  0  0  0
  6  7  2  0  0  0  0
  7  8  1  0  0  0  0
  7 29  1  0  0  0  0
  8  9  2  0  0  0  0
  8 30  1  0  0  0  0
  9 10  1  0  0  0  0
  9 31  1  0  0  0  0
 10 11  2  0  0  0  0
 10 32  1  0  0  0  0
 11 44  1  0  0  0  0
 12 23  1  0  0  0  0
 12 13  1  0  0  0  0
 13 14  1  0  0  0  0
 13 33  1  0  0  0  0
 13 34  1  0  0  0  0
 14 15  1  0  0  0  0
 14 35  1  0  0  0  0
 14 36  1  0  0  0  0
 15 16  1  0  0  0  0
 15 22  1  0  0  0  0
 15 37  1  0  0  0  0
 16 17  1  0  0  0  0
 16 18  1  0  0  0  0
 16 38  1  0  0  0  0
 17 39  1  0  0  0  0
 18 19  1  0  0  0  0
 18 20  1  0  0  0  0
 18 21  1  0  0  0  0
 22 23  1  0  0  0  0
 22 40  1  0  0  0  0
 22 41  1  0  0  0  0
 23 42  1  0  0  0  0
 23 43  1  0  0  0  0
M  CHG  1  11   1
M  END
> <s_m_source_file>
AV-unprocessed.smi

> <i_m_source_file_index>
2908

> <i_lp_mmshare_version>
43012

> <i_f3d_flags>
0

> <s_epik_input>
RkMoRikoRilbQ0BASF0oW09IXSlbQ0hdKFtDSDJdW0NIMl0xKVtDSDJdW0NIMl1OMUMoPU8pW05IXVtDSDJdW0NIMl1jMltjSF1bY0hdW2NIXVtjSF1uMg==

> <s_epik_cmdline>
J2VwaWtfcHl0aG9uJywgJy1waCcsICc3LjAnLCAnLXRuJywgJzgnLCAnLW1hJywgJzIwMCcsICctbWV0YWxfYmluZGluZycsICctaW1hZScsICc8aW5maWxlLm1hZT4nLCAnLW9tYWUnLCAnPG91dGZpbGUubWFlPic=

> <r_epik_Ionization_Penalty>
1.55054

> <r_epik_Ionization_Penalty_Charging>
1.55036

> <r_epik_Ionization_Penalty_Neutral>
0.00017404

> <r_epik_State_Penalty>
1.64453

> <r_epik_Charging_Adjusted_Penalty>
3.19489

> <i_epik_Tot_Q>
1

> <i_epik_Tot_abs_Q>
1

> <r_epik_Metal_State_Penalty>
1.68672

> <b_epik_Metal_Only>
0

> <s_lp_Force_Field>
OPLS_2005

> <r_lp_Energy>
43.524

> <b_lp_Chiralities_Consistent>
1

> <s_lp_Variant>
AV-unprocessed.smi:2908-4

> <Gold.Version>
5.8.1

> <Gold.Id.Protein>
6NUR|6NUR_protein|mol2

> <Gold.PLP.Fitness>
52.4440

> <Gold.PLP.PLP>
-43.4516

> <Gold.PLP.part.hbond>
-3.0000

> <Gold.PLP.part.metal>
0.0000

> <Gold.PLP.part.buried>
-5.5054

> <Gold.PLP.part.nonpolar>
-34.2116

> <Gold.PLP.part.repulsive>
0.0536

> <Gold.PLP.ligand.clash>
0.0000

> <Gold.PLP.ligand.torsion>
1.0961

> <Gold.PLP.Chemscore.Hbond>
3.5781

> <Gold.PLP.Chemscore.CHOScore>
0.0000

> <Gold.PLP.Chemscore.Metal>
0.0000

> <Gold.Chemscore.Hbonds>
donor molecule, donor type, donor heavy atom, donor atom, acceptor molecule, acceptor atom, score
      L1  H    11    44       P1  8028  1.98
      P1  H  6931  6943       L1    17  0.66
      P1  H  6934  6947       L1    17  0.78

> <Gold.PLP.Chemscore.Internal.Correction>
0.4502

> <Gold.Rescore>
     Score         DG    S(hbond)    S(metal)    S(lipo)     H(rot)  DE(clash)    DE(int)     intcor
     17.32     -18.20       2.30        0.00      95.70       2.40       0.02       0.86       ----

> <Gold.Chemscore.Fitness>
17.3216

> <Gold.Chemscore.DG>
-18.1979

> <Gold.Chemscore.ZeroCoef>
-5.4800

> <Gold.Chemscore.Hbond>
2.2970

> <Gold.Chemscore.Metal>
0.0000

> <Gold.Chemscore.Lipo>
95.6979

> <Gold.Chemscore.Internal_Hbond>
0.0000

> <Gold.Chemscore.DEClash>
0.0186

> <Gold.Chemscore.DEInternal>
0.8577

> <Gold.Chemscore.Rot>
2.4026

> <Gold.Chemscore.Internal.Correction>
   9.000000E+99

> <Gold.Chemscore.Hbonds>
donor molecule, donor type, donor heavy atom, donor atom, acceptor molecule, acceptor atom, score
      L1  H    11    44       P1  8028  0.86
      P1  H  6931  6943       L1    17  0.12
      P1  H  6934  6947       L1    17  0.73

> <Gold.Chemscore.Hbond.Weighted>
-7.6720

> <Gold.Chemscore.Metal.Weighted>
-0.0000

> <Gold.Chemscore.Lipo.Weighted>
-11.1967

> <Gold.Chemscore.Internal_Hbond.Weighted>
0.0000

> <Gold.Chemscore.DEClash.Weighted>
0.0186

> <Gold.Chemscore.DEInternal.Weighted>
0.8577

> <Gold.Chemscore.Rot.Weighted>
6.1508

> <Gold.Chemscore.Internal.Correction.Weighted>
   9.000000E+99

> <Gold.Protein.RotatedTorsions>
[ 6907 6896 6895 6894 ] final -151.50 input  -60.11 | X-H torsion
[ 7974 7965 7964 7962 ] final -116.91 input  175.53 | X-H torsion
[ 8008 7997 7996 7995 ] final -128.50 input   59.86 | X-H torsion
[ 10167 10162 10161 10158 ] final   89.53 input  -65.29 | X-H torsion
[ 10718 10713 10712 10709 ] final   28.53 input   66.30 | X-H torsion
[ 10763 10752 10751 10750 ] final -155.88 input  -60.55 | X-H torsion
[ 11005 11000 10999 10996 ] final  127.37 input  -57.11 | X-H torsion

> <Gold.Protein.ActiveResidues>
 VAL166  LYS551  ARG553  GLY616  TRP617  ASP618  TYR619  PRO620  LYS621  CYS622 
 ASP623  PHE694  ASN695  SER759  ASP760  ASP761  ALA762  ILE779  LEU786  VAL792 
 PHE793  MET794  SER795  GLU796  ALA797  LYS798  CYS799  TRP800  GLU811  SER814 

> <Gold.Protein.RotatedAtoms>
  151.2139  133.4540  159.2598 H   0  0  0  0  0  0  0  0  0  0  0  0  # atno 6907 bound_to 6896
  151.0949  134.9938  159.8431 H   0  0  0  0  0  0  0  0  0  0  0  0  # atno 6908 bound_to 6896
  152.5438  134.2070  159.8788 H   0  0  0  0  0  0  0  0  0  0  0  0  # atno 6909 bound_to 6896
  145.0913  140.8492  143.3980 H   0  0  0  0  0  0  0  0  0  0  0  0  # atno 7974 bound_to 7965
  155.2637  140.0437  157.3000 H   0  0  0  0  0  0  0  0  0  0  0  0  # atno 8008 bound_to 7997
  154.5695  140.2369  155.8182 H   0  0  0  0  0  0  0  0  0  0  0  0  # atno 8009 bound_to 7997
  156.2111  140.2998  155.9743 H   0  0  0  0  0  0  0  0  0  0  0  0  # atno 8010 bound_to 7997
  139.8563  144.6567  150.9110 H   0  0  0  0  0  0  0  0  0  0  0  0  # atno 10167 bound_to 10162
  157.2347  130.7040  149.6330 H   0  0  0  0  0  0  0  0  0  0  0  0  # atno 10718 bound_to 10713
  154.7754  135.3158  154.8102 H   0  0  0  0  0  0  0  0  0  0  0  0  # atno 10763 bound_to 10752
  153.8827  135.6833  153.4770 H   0  0  0  0  0  0  0  0  0  0  0  0  # atno 10764 bound_to 10752
  153.1377  135.4752  154.9383 H   0  0  0  0  0  0  0  0  0  0  0  0  # atno 10765 bound_to 10752
  139.9504  134.9623  156.8845 H   0  0  0  0  0  0  0  0  0  0  0  0  # atno 11005 bound_to 11000
  145.1062  139.2788  143.5661 LP  0  0  0  0  0  0  0  0  0  0  0  0  # atno 17320 bound_to 7965
  146.3531  140.0644  142.8627 LP  0  0  0  0  0  0  0  0  0  0  0  0  # atno 17321 bound_to 7965
  140.7781  143.3783  151.1523 LP  0  0  0  0  0  0  0  0  0  0  0  0  # atno 17342 bound_to 10162
  139.7416  143.8915  152.3051 LP  0  0  0  0  0  0  0  0  0  0  0  0  # atno 17343 bound_to 10162
  155.9673  130.4477  150.5592 LP  0  0  0  0  0  0  0  0  0  0  0  0  # atno 17370 bound_to 10713
  157.3441  131.0722  151.1765 LP  0  0  0  0  0  0  0  0  0  0  0  0  # atno 17371 bound_to 10713
  140.5733  134.0423  155.7438 LP  0  0  0  0  0  0  0  0  0  0  0  0  # atno 17394 bound_to 11000
  141.1165  133.9531  157.2811 LP  0  0  0  0  0  0  0  0  0  0  0  0  # atno 17395 bound_to 11000

$$$$
