AV-unprocessed.smi:638|AV-procd|sdf|3143|dock5
  -GOLD-   22720 0 73D 1   1.00000     0.00000
 Structure written by MMmdl.
 41 42  0  0  0  0  0  0  0  0  3 V2000
  146.8746  135.4693  156.3442 N   0  0  0  0  0  0  0  0  0  0  0  0
  146.5325  135.6940  155.2618 C   0  0  0  0  0  0  0  0  0  0  0  0
  146.0971  135.9799  153.8804 C   0  0  0  0  0  0  0  0  0  0  0  0
  146.8646  137.1049  153.3336 N   0  0  0  0  0  0  0  0  0  0  0  0
  146.8597  138.3766  153.7658 C   0  0  0  0  0  0  0  0  0  0  0  0
  146.1882  138.7659  154.7213 O   0  0  0  0  0  0  0  0  0  0  0  0
  147.7807  139.3448  153.0110 C   0  0  0  0  0  0  0  0  0  0  0  0
  148.8406  139.9096  153.8624 N   0  0  0  0  0  0  0  0  0  0  0  0
  150.0046  139.1350  154.0360 C   0  0  0  0  0  0  0  0  0  0  0  0
  151.0319  139.5493  154.8032 C   0  0  0  0  0  0  0  0  0  0  0  0
  152.2161  138.7372  154.9779 N   0  3  0  0  0  0  0  0  0  0  0  0
  152.2094  137.5877  154.5496 O   0  0  0  0  0  0  0  0  0  0  0  0
  153.1902  139.2196  155.5481 O   0  5  0  0  0  0  0  0  0  0  0  0
  150.9091  140.8386  155.4555 C   0  0  0  0  0  0  0  0  0  0  0  0
  149.7968  141.5824  155.2963 C   0  0  0  0  0  0  0  0  0  0  0  0
  148.6776  141.1266  154.4658 C   0  0  0  0  0  0  0  0  0  0  0  0
  147.6556  141.7976  154.3208 O   0  0  0  0  0  0  0  0  0  0  0  0
  146.2863  134.6942  153.0280 C   0  0  0  0  0  0  0  0  0  0  0  0
  146.0593  134.8551  151.5102 C   0  0  0  0  0  0  0  0  0  0  0  0
  144.6052  134.6970  151.0333 C   0  0  0  0  0  0  0  0  0  0  0  0
  143.5136  135.3286  151.9143 C   0  0  0  0  0  0  0  0  0  0  0  0
  143.8993  136.6413  152.6140 C   0  0  0  0  0  0  0  0  0  0  0  0
  144.6157  136.4096  153.9585 C   0  0  0  0  0  0  0  0  0  0  0  0
  147.4560  136.8903  152.5441 H   0  0  0  0  0  0  0  0  0  0  0  0
  148.2130  138.8094  152.1648 H   0  0  0  0  0  0  0  0  0  0  0  0
  147.1869  140.1459  152.5666 H   0  0  0  0  0  0  0  0  0  0  0  0
  149.9948  138.1883  153.5150 H   0  0  0  0  0  0  0  0  0  0  0  0
  151.7071  141.2168  156.0773 H   0  0  0  0  0  0  0  0  0  0  0  0
  149.7259  142.5394  155.7922 H   0  0  0  0  0  0  0  0  0  0  0  0
  147.3084  134.3413  153.1695 H   0  0  0  0  0  0  0  0  0  0  0  0
  145.6575  133.8905  153.4132 H   0  0  0  0  0  0  0  0  0  0  0  0
  146.4533  135.8081  151.1591 H   0  0  0  0  0  0  0  0  0  0  0  0
  146.6558  134.1041  150.9914 H   0  0  0  0  0  0  0  0  0  0  0  0
  144.5351  135.1132  150.0277 H   0  0  0  0  0  0  0  0  0  0  0  0
  144.3791  133.6358  150.9234 H   0  0  0  0  0  0  0  0  0  0  0  0
  142.6389  135.5050  151.2872 H   0  0  0  0  0  0  0  0  0  0  0  0
  143.1853  134.6045  152.6609 H   0  0  0  0  0  0  0  0  0  0  0  0
  144.4760  137.2884  151.9524 H   0  0  0  0  0  0  0  0  0  0  0  0
  142.9782  137.1850  152.8265 H   0  0  0  0  0  0  0  0  0  0  0  0
  144.0544  135.6762  154.5394 H   0  0  0  0  0  0  0  0  0  0  0  0
  144.5566  137.3318  154.5389 H   0  0  0  0  0  0  0  0  0  0  0  0
  1  2  3  0  0  0  0
  2  3  1  0  0  0  0
  3 23  1  0  0  0  0
  3  4  1  0  0  0  0
  3 18  1  0  0  0  0
  4  5  1  0  0  0  0
  4 24  1  0  0  0  0
  5  6  2  0  0  0  0
  5  7  1  0  0  0  0
  7  8  1  0  0  0  0
  7 25  1  0  0  0  0
  7 26  1  0  0  0  0
  8 16  1  0  0  0  0
  8  9  1  0  0  0  0
  9 10  2  0  0  0  0
  9 27  1  0  0  0  0
 10 11  1  0  0  0  0
 10 14  1  0  0  0  0
 11 12  2  0  0  0  0
 11 13  1  0  0  0  0
 14 15  2  0  0  0  0
 14 28  1  0  0  0  0
 15 16  1  0  0  0  0
 15 29  1  0  0  0  0
 16 17  2  0  0  0  0
 18 19  1  0  0  0  0
 18 30  1  0  0  0  0
 18 31  1  0  0  0  0
 19 20  1  0  0  0  0
 19 32  1  0  0  0  0
 19 33  1  0  0  0  0
 20 21  1  0  0  0  0
 20 34  1  0  0  0  0
 20 35  1  0  0  0  0
 21 22  1  0  0  0  0
 21 36  1  0  0  0  0
 21 37  1  0  0  0  0
 22 23  1  0  0  0  0
 22 38  1  0  0  0  0
 22 39  1  0  0  0  0
 23 40  1  0  0  0  0
 23 41  1  0  0  0  0
M  CHG  1  11   1
M  CHG  1  13  -1
M  END
> <s_m_source_file>
AV-unprocessed.smi

> <i_m_source_file_index>
638

> <i_lp_mmshare_version>
43012

> <i_f3d_flags>
0

> <s_epik_input>
W0NIMl0xW0NIMl1bQ0gyXVtDSDJdW0NIMl1bQ0gyXUMxKEMjTilbTkhdQyg9TylbQ0gyXW4yW2NIXWMoW04rXSg9TylbTy1dKVtjSF1bY0hdYzI9Tw==

> <s_epik_cmdline>
J2VwaWtfcHl0aG9uJywgJy1waCcsICc3LjAnLCAnLXRuJywgJzgnLCAnLW1hJywgJzIwMCcsICctbWV0YWxfYmluZGluZycsICctaW1hZScsICc8aW5maWxlLm1hZT4nLCAnLW9tYWUnLCAnPG91dGZpbGUubWFlPic=

> <r_lp_tautomer_probability>
1

> <r_epik_Ionization_Penalty>
4.51205e-07

> <r_epik_Ionization_Penalty_Charging>
6.24361e-11

> <r_epik_Ionization_Penalty_Neutral>
4.51142e-07

> <r_epik_State_Penalty>
-0

> <r_epik_Charging_Adjusted_Penalty>
6.24361e-11

> <i_epik_Tot_Q>
0

> <i_epik_Tot_abs_Q>
2

> <r_epik_Metal_State_Penalty>
-0

> <b_epik_Metal_Only>
0

> <s_lp_Force_Field>
OPLS_2005

> <r_lp_Energy>
29.2466

> <b_lp_Chiralities_Consistent>
1

> <s_lp_Variant>
AV-unprocessed.smi:638-1

> <Gold.Version>
5.8.1

> <Gold.Id.Protein>
6NUR|6NUR_protein|mol2

> <Gold.PLP.Fitness>
44.4414

> <Gold.PLP.PLP>
-33.7731

> <Gold.PLP.part.hbond>
-3.0000

> <Gold.PLP.part.metal>
0.0000

> <Gold.PLP.part.buried>
-1.5459

> <Gold.PLP.part.nonpolar>
-30.0054

> <Gold.PLP.part.repulsive>
0.3262

> <Gold.PLP.ligand.clash>
0.0000

> <Gold.PLP.ligand.torsion>
0.4357

> <Gold.PLP.Chemscore.Hbond>
2.8400

> <Gold.PLP.Chemscore.CHOScore>
1.0000

> <Gold.PLP.Chemscore.Metal>
0.0000

> <Gold.Chemscore.Hbonds>
donor molecule, donor type, donor heavy atom, donor atom, acceptor molecule, acceptor atom, score
      L1  H     4    24       P1  7948  1.00
      P1  H  7997  8010       L1    13  1.00
      P1  H 10752 10763       L1    12  0.67
      L1  C     9    27       P1  7948  0.52

> <Gold.PLP.Chemscore.Internal.Correction>
0.0196

> <Gold.Rescore>
     Score         DG    S(hbond)    S(metal)    S(lipo)     H(rot)  DE(clash)    DE(int)     intcor
     15.97     -17.91       2.76        0.00      63.20       1.63       0.15       1.79       ----

> <Gold.Chemscore.Fitness>
15.9707

> <Gold.Chemscore.DG>
-17.9090

> <Gold.Chemscore.ZeroCoef>
-5.4800

> <Gold.Chemscore.Hbond>
2.7556

> <Gold.Chemscore.Metal>
0.0000

> <Gold.Chemscore.Lipo>
63.2047

> <Gold.Chemscore.Internal_Hbond>
0.0000

> <Gold.Chemscore.DEClash>
0.1487

> <Gold.Chemscore.DEInternal>
1.7896

> <Gold.Chemscore.Rot>
1.6287

> <Gold.Chemscore.Internal.Correction>
   9.000000E+99

> <Gold.Chemscore.Hbonds>
donor molecule, donor type, donor heavy atom, donor atom, acceptor molecule, acceptor atom, score
      L1  H     4    24       P1  7948  0.96
      P1  H  7997  8010       L1    13  0.98
      P1  H 10752 10763       L1    12  0.64

> <Gold.Chemscore.Hbond.Weighted>
-9.2035

> <Gold.Chemscore.Metal.Weighted>
-0.0000

> <Gold.Chemscore.Lipo.Weighted>
-7.3950

> <Gold.Chemscore.Internal_Hbond.Weighted>
0.0000

> <Gold.Chemscore.DEClash.Weighted>
0.1487

> <Gold.Chemscore.DEInternal.Weighted>
1.7896

> <Gold.Chemscore.Rot.Weighted>
4.1694

> <Gold.Chemscore.Internal.Correction.Weighted>
   9.000000E+99

> <Gold.Protein.RotatedTorsions>
[ 6907 6896 6895 6894 ] final   17.09 input  -60.11 | X-H torsion
[ 7974 7965 7964 7962 ] final  -63.24 input  175.53 | X-H torsion
[ 8008 7997 7996 7995 ] final   89.74 input   59.86 | X-H torsion
[ 10167 10162 10161 10158 ] final   -7.46 input  -65.29 | X-H torsion
[ 10718 10713 10712 10709 ] final  128.52 input   66.30 | X-H torsion
[ 10763 10752 10751 10750 ] final   43.17 input  -60.55 | X-H torsion
[ 11005 11000 10999 10996 ] final  168.03 input  -57.11 | X-H torsion

> <Gold.Protein.ActiveResidues>
 VAL166  LYS551  ARG553  GLY616  TRP617  ASP618  TYR619  PRO620  LYS621  CYS622 
 ASP623  PHE694  ASN695  SER759  ASP760  ASP761  ALA762  ILE779  LEU786  VAL792 
 PHE793  MET794  SER795  GLU796  ALA797  LYS798  CYS799  TRP800  GLU811  SER814 

> <Gold.Protein.RotatedAtoms>
  151.8441  135.0580  160.0451 H   0  0  0  0  0  0  0  0  0  0  0  0  # atno 6907 bound_to 6896
  152.2787  133.5445  159.5492 H   0  0  0  0  0  0  0  0  0  0  0  0  # atno 6908 bound_to 6896
  150.7180  134.0512  159.3841 H   0  0  0  0  0  0  0  0  0  0  0  0  # atno 6909 bound_to 6896
  145.7815  140.8760  143.0328 H   0  0  0  0  0  0  0  0  0  0  0  0  # atno 7974 bound_to 7965
  156.0035  140.3357  155.6869 H   0  0  0  0  0  0  0  0  0  0  0  0  # atno 8008 bound_to 7997
  155.6257  140.0679  157.2682 H   0  0  0  0  0  0  0  0  0  0  0  0  # atno 8009 bound_to 7997
  154.4257  140.1768  156.1406 H   0  0  0  0  0  0  0  0  0  0  0  0  # atno 8010 bound_to 7997
  140.7029  143.6078  150.8734 H   0  0  0  0  0  0  0  0  0  0  0  0  # atno 10167 bound_to 10162
  157.5237  131.1098  150.9115 H   0  0  0  0  0  0  0  0  0  0  0  0  # atno 10718 bound_to 10713
  152.9866  135.6109  154.3069 H   0  0  0  0  0  0  0  0  0  0  0  0  # atno 10763 bound_to 10752
  154.2786  135.2777  155.2709 H   0  0  0  0  0  0  0  0  0  0  0  0  # atno 10764 bound_to 10752
  154.5058  135.5854  153.6623 H   0  0  0  0  0  0  0  0  0  0  0  0  # atno 10765 bound_to 10752
  140.2829  134.7735  157.3774 H   0  0  0  0  0  0  0  0  0  0  0  0  # atno 11005 bound_to 11000
  144.6796  139.9995  143.7484 LP  0  0  0  0  0  0  0  0  0  0  0  0  # atno 17320 bound_to 7965
  146.0070  139.3138  143.0893 LP  0  0  0  0  0  0  0  0  0  0  0  0  # atno 17321 bound_to 7965
  139.9802  143.5960  152.2945 LP  0  0  0  0  0  0  0  0  0  0  0  0  # atno 17342 bound_to 10162
  139.6578  144.7662  151.2021 LP  0  0  0  0  0  0  0  0  0  0  0  0  # atno 17343 bound_to 10162
  156.9717  130.5493  149.5291 LP  0  0  0  0  0  0  0  0  0  0  0  0  # atno 17370 bound_to 10713
  156.0372  130.5458  150.8682 LP  0  0  0  0  0  0  0  0  0  0  0  0  # atno 17371 bound_to 10713
  140.1266  134.5149  155.8139 LP  0  0  0  0  0  0  0  0  0  0  0  0  # atno 17394 bound_to 11000
  141.2159  133.6775  156.6963 LP  0  0  0  0  0  0  0  0  0  0  0  0  # atno 17395 bound_to 11000

$$$$
