AV-unprocessed.smi:1991|AV-procd|sdf|8067|dock4
  -GOLD-   2272010273D 1   1.00000     0.00000
 Structure written by MMmdl.
 44 45  0  0  0  0  0  0  0  0  1 V2000
  147.2886  134.8311  157.9874 C   0  0  0  0  0  0  0  0  0  0  0  0
  148.4831  135.2823  158.8414 C   0  0  2  0  0  0  0  0  0  0  0  0
  148.1416  135.0641  160.2079 O   0  0  0  0  0  0  0  0  0  0  0  0
  146.8798  135.5823  160.6176 C   0  0  0  0  0  0  0  0  0  0  0  0
  146.6749  135.2966  162.1101 C   0  0  0  0  0  0  0  0  0  0  0  0
  147.4945  136.0702  162.8211 F   0  0  0  0  0  0  0  0  0  0  0  0
  145.4182  135.5657  162.4627 F   0  0  0  0  0  0  0  0  0  0  0  0
  146.9524  134.0209  162.3776 F   0  0  0  0  0  0  0  0  0  0  0  0
  148.8218  136.7624  158.6001 C   0  0  0  0  0  0  0  0  0  0  0  0
  149.2726  137.4542  159.5132 O   0  0  0  0  0  0  0  0  0  0  0  0
  148.6042  137.2268  157.3595 N   0  0  0  0  0  0  0  0  0  0  0  0
  148.8447  138.5924  156.9040 C   0  0  0  0  0  0  0  0  0  0  0  0
  150.2111  138.7595  156.2446 C   0  0  0  0  0  0  0  0  0  0  0  0
  151.3465  138.1732  156.8459 C   0  0  0  0  0  0  0  0  0  0  0  0
  152.6063  138.3260  156.2397 C   0  0  0  0  0  0  0  0  0  0  0  0
  152.6849  139.0612  155.0436 C   0  0  0  0  0  0  0  0  0  0  0  0
  151.6114  139.6240  154.4519 N   0  0  0  0  0  0  0  0  0  0  0  0
  150.3957  139.4791  155.0339 C   0  0  0  0  0  0  0  0  0  0  0  0
  149.3060  140.0849  154.3890 N   0  0  0  0  0  0  0  0  0  0  0  0
  148.7951  141.2674  155.0709 C   0  0  0  0  0  0  0  0  0  0  0  0
  147.7093  141.9381  154.2122 C   0  0  0  0  0  0  0  0  0  0  0  0
  146.6840  140.9940  153.9151 O   0  0  0  0  0  0  0  0  0  0  0  0
  147.1799  139.8758  153.1839 C   0  0  0  0  0  0  0  0  0  0  0  0
  148.2523  139.1505  154.0146 C   0  0  0  0  0  0  0  0  0  0  0  0
  147.4741  134.9990  156.9257 H   0  0  0  0  0  0  0  0  0  0  0  0
  146.3767  135.3651  158.2579 H   0  0  0  0  0  0  0  0  0  0  0  0
  147.0971  133.7666  158.1236 H   0  0  0  0  0  0  0  0  0  0  0  0
  149.3416  134.6615  158.5779 H   0  0  0  0  0  0  0  0  0  0  0  0
  146.8436  136.6583  160.4416 H   0  0  0  0  0  0  0  0  0  0  0  0
  146.0686  135.1309  160.0455 H   0  0  0  0  0  0  0  0  0  0  0  0
  148.2354  136.5825  156.6755 H   0  0  0  0  0  0  0  0  0  0  0  0
  148.0803  138.9108  156.1938 H   0  0  0  0  0  0  0  0  0  0  0  0
  148.7259  139.2447  157.7679 H   0  0  0  0  0  0  0  0  0  0  0  0
  151.2566  137.6098  157.7628 H   0  0  0  0  0  0  0  0  0  0  0  0
  153.4900  137.8893  156.6806 H   0  0  0  0  0  0  0  0  0  0  0  0
  153.6342  139.2003  154.5478 H   0  0  0  0  0  0  0  0  0  0  0  0
  148.3795  140.9858  156.0395 H   0  0  0  0  0  0  0  0  0  0  0  0
  149.6106  141.9670  155.2585 H   0  0  0  0  0  0  0  0  0  0  0  0
  147.2727  142.7811  154.7479 H   0  0  0  0  0  0  0  0  0  0  0  0
  148.1333  142.3327  153.2874 H   0  0  0  0  0  0  0  0  0  0  0  0
  146.3536  139.2001  152.9629 H   0  0  0  0  0  0  0  0  0  0  0  0
  147.5870  140.2060  152.2268 H   0  0  0  0  0  0  0  0  0  0  0  0
  148.6762  138.3250  153.4414 H   0  0  0  0  0  0  0  0  0  0  0  0
  147.8013  138.7242  154.9117 H   0  0  0  0  0  0  0  0  0  0  0  0
  1  2  1  0  0  0  0
  1 25  1  0  0  0  0
  1 26  1  0  0  0  0
  1 27  1  0  0  0  0
  2  3  1  0  0  0  0
  2  9  1  0  0  0  0
  2 28  1  0  0  0  0
  3  4  1  0  0  0  0
  4  5  1  0  0  0  0
  4 29  1  0  0  0  0
  4 30  1  0  0  0  0
  5  6  1  0  0  0  0
  5  7  1  0  0  0  0
  5  8  1  0  0  0  0
  9 10  2  0  0  0  0
  9 11  1  0  0  0  0
 11 12  1  0  0  0  0
 11 31  1  0  0  0  0
 12 13  1  0  0  0  0
 12 32  1  0  0  0  0
 12 33  1  0  0  0  0
 13 18  1  0  0  0  0
 13 14  2  0  0  0  0
 14 15  1  0  0  0  0
 14 34  1  0  0  0  0
 15 16  2  0  0  0  0
 15 35  1  0  0  0  0
 16 17  1  0  0  0  0
 16 36  1  0  0  0  0
 17 18  2  0  0  0  0
 18 19  1  0  0  0  0
 19 24  1  0  0  0  0
 19 20  1  0  0  0  0
 20 21  1  0  0  0  0
 20 37  1  0  0  0  0
 20 38  1  0  0  0  0
 21 22  1  0  0  0  0
 21 39  1  0  0  0  0
 21 40  1  0  0  0  0
 22 23  1  0  0  0  0
 23 24  1  0  0  0  0
 23 41  1  0  0  0  0
 23 42  1  0  0  0  0
 24 43  1  0  0  0  0
 24 44  1  0  0  0  0
M  END
> <s_m_source_file>
AV-unprocessed.smi

> <i_m_source_file_index>
1991

> <i_lp_mmshare_version>
43012

> <i_f3d_flags>
0

> <s_epik_input>
RkMoRikoRilbQ0gyXU9bQ0BASF0oW0NIM10pQyg9TylbTkhdW0NIMl1jMVtjSF1bY0hdW2NIXW5jMU4yW0NIMl1bQ0gyXU9bQ0gyXVtDSDJdMg==

> <s_epik_cmdline>
J2VwaWtfcHl0aG9uJywgJy1waCcsICc3LjAnLCAnLXRuJywgJzgnLCAnLW1hJywgJzIwMCcsICctbWV0YWxfYmluZGluZycsICctaW1hZScsICc8aW5maWxlLm1hZT4nLCAnLW9tYWUnLCAnPG91dGZpbGUubWFlPic=

> <r_lp_tautomer_probability>
1

> <r_epik_Ionization_Penalty>
0.00436412

> <r_epik_Ionization_Penalty_Charging>
0

> <r_epik_Ionization_Penalty_Neutral>
0.00436412

> <r_epik_State_Penalty>
0.00314317

> <r_epik_Charging_Adjusted_Penalty>
0.00314317

> <i_epik_Tot_Q>
0

> <i_epik_Tot_abs_Q>
0

> <r_epik_Metal_State_Penalty>
-0

> <b_epik_Metal_Only>
0

> <s_lp_Force_Field>
OPLS_2005

> <r_lp_Energy>
21.8151

> <b_lp_Chiralities_Consistent>
1

> <s_lp_Variant>
AV-unprocessed.smi:1991-1

> <Gold.Version>
5.8.1

> <Gold.Id.Protein>
6NUR|6NUR_protein|mol2

> <Gold.PLP.Fitness>
38.4100

> <Gold.PLP.PLP>
-37.9966

> <Gold.PLP.part.hbond>
-1.9032

> <Gold.PLP.part.metal>
0.0000

> <Gold.PLP.part.buried>
-4.0542

> <Gold.PLP.part.nonpolar>
-32.7103

> <Gold.PLP.part.repulsive>
0.4032

> <Gold.PLP.ligand.clash>
0.0000

> <Gold.PLP.ligand.torsion>
1.4005

> <Gold.PLP.Chemscore.Hbond>
1.0000

> <Gold.PLP.Chemscore.CHOScore>
0.0000

> <Gold.PLP.Chemscore.Metal>
0.0000

> <Gold.Chemscore.Hbonds>
donor molecule, donor type, donor heavy atom, donor atom, acceptor molecule, acceptor atom, score
      P1  H  7989  7998       L1    17  1.00

> <Gold.PLP.Chemscore.Internal.Correction>
0.2145

> <Gold.Rescore>
     Score         DG    S(hbond)    S(metal)    S(lipo)     H(rot)  DE(clash)    DE(int)     intcor
      9.27     -10.59       1.15        0.00      65.35       2.49       0.02       1.31       ----

> <Gold.Chemscore.Fitness>
9.2657

> <Gold.Chemscore.DG>
-10.5914

> <Gold.Chemscore.ZeroCoef>
-5.4800

> <Gold.Chemscore.Hbond>
1.1497

> <Gold.Chemscore.Metal>
0.0000

> <Gold.Chemscore.Lipo>
65.3459

> <Gold.Chemscore.Internal_Hbond>
0.0000

> <Gold.Chemscore.DEClash>
0.0192

> <Gold.Chemscore.DEInternal>
1.3066

> <Gold.Chemscore.Rot>
2.4899

> <Gold.Chemscore.Internal.Correction>
   9.000000E+99

> <Gold.Chemscore.Hbonds>
donor molecule, donor type, donor heavy atom, donor atom, acceptor molecule, acceptor atom, score
      P1  H  7989  7998       L1    17  0.78

> <Gold.Chemscore.Hbond.Weighted>
-3.8401

> <Gold.Chemscore.Metal.Weighted>
-0.0000

> <Gold.Chemscore.Lipo.Weighted>
-7.6455

> <Gold.Chemscore.Internal_Hbond.Weighted>
0.0000

> <Gold.Chemscore.DEClash.Weighted>
0.0192

> <Gold.Chemscore.DEInternal.Weighted>
1.3066

> <Gold.Chemscore.Rot.Weighted>
6.3741

> <Gold.Chemscore.Internal.Correction.Weighted>
   9.000000E+99

> <Gold.Protein.RotatedTorsions>
[ 6907 6896 6895 6894 ] final  -59.01 input  -60.11 | X-H torsion
[ 7974 7965 7964 7962 ] final   60.39 input  175.53 | X-H torsion
[ 8008 7997 7996 7995 ] final   63.50 input   59.86 | X-H torsion
[ 10167 10162 10161 10158 ] final  -36.05 input  -65.29 | X-H torsion
[ 10718 10713 10712 10709 ] final  -26.13 input   66.30 | X-H torsion
[ 10763 10752 10751 10750 ] final  -71.91 input  -60.55 | X-H torsion
[ 11005 11000 10999 10996 ] final    6.24 input  -57.11 | X-H torsion

> <Gold.Protein.ActiveResidues>
 VAL166  LYS551  ARG553  GLY616  TRP617  ASP618  TYR619  PRO620  LYS621  CYS622 
 ASP623  PHE694  ASN695  SER759  ASP760  ASP761  ALA762  ILE779  LEU786  VAL792 
 PHE793  MET794  SER795  GLU796  ALA797  LYS798  CYS799  TRP800  GLU811  SER814 

> <Gold.Protein.RotatedAtoms>
  150.7963  134.7024  159.6557 H   0  0  0  0  0  0  0  0  0  0  0  0  # atno 6907 bound_to 6896
  152.4075  134.6178  160.0052 H   0  0  0  0  0  0  0  0  0  0  0  0  # atno 6908 bound_to 6896
  151.6431  133.3288  159.3171 H   0  0  0  0  0  0  0  0  0  0  0  0  # atno 6909 bound_to 6896
  145.8965  139.3549  143.0618 H   0  0  0  0  0  0  0  0  0  0  0  0  # atno 7974 bound_to 7965
  155.6312  140.3496  155.4683 H   0  0  0  0  0  0  0  0  0  0  0  0  # atno 8008 bound_to 7997
  156.0002  140.1211  157.0579 H   0  0  0  0  0  0  0  0  0  0  0  0  # atno 8009 bound_to 7997
  154.4246  140.1102  156.5672 H   0  0  0  0  0  0  0  0  0  0  0  0  # atno 8010 bound_to 7997
  140.7151  143.3435  151.2306 H   0  0  0  0  0  0  0  0  0  0  0  0  # atno 10167 bound_to 10162
  156.4553  130.4492  149.6963 H   0  0  0  0  0  0  0  0  0  0  0  0  # atno 10718 bound_to 10713
  154.4383  135.5947  153.6113 H   0  0  0  0  0  0  0  0  0  0  0  0  # atno 10763 bound_to 10752
  152.9803  135.5992  154.3753 H   0  0  0  0  0  0  0  0  0  0  0  0  # atno 10764 bound_to 10752
  154.3600  135.2841  155.2304 H   0  0  0  0  0  0  0  0  0  0  0  0  # atno 10765 bound_to 10752
  140.5617  134.0186  155.7974 H   0  0  0  0  0  0  0  0  0  0  0  0  # atno 11005 bound_to 11000
  145.8843  140.9343  143.0585 LP  0  0  0  0  0  0  0  0  0  0  0  0  # atno 17320 bound_to 7965
  144.6733  140.0822  143.7469 LP  0  0  0  0  0  0  0  0  0  0  0  0  # atno 17321 bound_to 7965
  139.6948  143.9631  152.2877 LP  0  0  0  0  0  0  0  0  0  0  0  0  # atno 17342 bound_to 10162
  139.9304  144.6744  150.8368 LP  0  0  0  0  0  0  0  0  0  0  0  0  # atno 17343 bound_to 10162
  156.3773  130.7561  151.2550 LP  0  0  0  0  0  0  0  0  0  0  0  0  # atno 17370 bound_to 10713
  157.7501  131.0306  150.4143 LP  0  0  0  0  0  0  0  0  0  0  0  0  # atno 17371 bound_to 10713
  141.1110  133.9616  157.2909 LP  0  0  0  0  0  0  0  0  0  0  0  0  # atno 17394 bound_to 11000
  139.9404  135.0191  156.8692 LP  0  0  0  0  0  0  0  0  0  0  0  0  # atno 17395 bound_to 11000

$$$$
