AV-unprocessed.smi:1570|AV-procd|sdf|6312|dock8
  -GOLD-   22720 6513D 1   1.00000     0.00000
 Structure written by MMmdl.
 51 53  0  0  0  0  0  0  0  0  1 V2000
  154.1752  141.5686  161.8071 C   0  0  0  0  0  0  0  0  0  0  0  0
  154.5702  141.0896  160.4047 C   0  0  0  0  0  0  0  0  0  0  0  0
  153.4193  141.0803  159.5051 N   0  0  0  0  0  0  0  0  0  0  0  0
  152.9689  140.0261  158.7850 C   0  0  0  0  0  0  0  0  0  0  0  0
  153.4564  138.8957  158.7776 O   0  0  0  0  0  0  0  0  0  0  0  0
  151.9057  140.4381  158.0544 N   0  0  0  0  0  0  0  0  0  0  0  0
  151.1363  139.6394  157.1003 C   0  0  0  0  0  0  0  0  0  0  0  0
  151.9894  139.2014  155.8929 C   0  0  2  0  0  0  0  0  0  0  0  0
  152.1882  140.3329  155.0720 O   0  0  0  0  0  0  0  0  0  0  0  0
  151.3212  138.0985  155.0422 C   0  0  0  0  0  0  0  0  0  0  0  0
  151.3016  136.7664  155.6468 N   0  0  0  0  0  0  0  0  0  0  0  0
  150.4798  136.7153  156.8552 C   0  0  0  0  0  0  0  0  0  0  0  0
  150.4378  135.3022  157.4671 C   0  0  1  0  0  0  0  0  0  0  0  0
  149.5107  135.2283  158.6847 C   0  0  0  0  0  0  0  0  0  0  0  0
  149.9650  134.3826  156.4870 O   0  0  0  0  0  0  0  0  0  0  0  0
  150.7618  134.3609  155.3061 C   0  0  1  0  0  0  0  0  0  0  0  0
  150.1642  133.3316  154.3411 C   0  0  0  0  0  0  0  0  0  0  0  0
  150.7977  135.7771  154.7005 C   0  0  0  0  0  0  0  0  0  0  0  0
  151.6755  141.7979  158.3087 C   0  0  0  0  0  0  0  0  0  0  0  0
  150.7094  142.6828  157.7991 C   0  0  0  0  0  0  0  0  0  0  0  0
  150.7532  144.0211  158.2554 C   0  0  0  0  0  0  0  0  0  0  0  0
  151.7376  144.4386  159.1883 C   0  0  0  0  0  0  0  0  0  0  0  0
  152.6982  143.5269  159.6857 C   0  0  0  0  0  0  0  0  0  0  0  0
  152.6299  142.2029  159.2179 C   0  0  0  0  0  0  0  0  0  0  0  0
  155.0394  141.5752  162.4715 H   0  0  0  0  0  0  0  0  0  0  0  0
  153.4209  140.9168  162.2489 H   0  0  0  0  0  0  0  0  0  0  0  0
  153.7703  142.5807  161.7800 H   0  0  0  0  0  0  0  0  0  0  0  0
  155.3505  141.7353  159.9989 H   0  0  0  0  0  0  0  0  0  0  0  0
  155.0038  140.0910  160.4589 H   0  0  0  0  0  0  0  0  0  0  0  0
  150.7007  138.7684  157.5927 H   0  0  0  0  0  0  0  0  0  0  0  0
  150.2937  140.2436  156.7610 H   0  0  0  0  0  0  0  0  0  0  0  0
  152.9662  138.8867  156.2557 H   0  0  0  0  0  0  0  0  0  0  0  0
  152.2627  140.0396  154.1762 H   0  0  0  0  0  0  0  0  0  0  0  0
  150.2944  138.3813  154.8117 H   0  0  0  0  0  0  0  0  0  0  0  0
  151.8315  138.0585  154.0784 H   0  0  0  0  0  0  0  0  0  0  0  0
  150.8595  137.4050  157.6071 H   0  0  0  0  0  0  0  0  0  0  0  0
  149.4636  137.0387  156.6227 H   0  0  0  0  0  0  0  0  0  0  0  0
  151.4427  135.0065  157.7731 H   0  0  0  0  0  0  0  0  0  0  0  0
  149.8438  135.9043  159.4726 H   0  0  0  0  0  0  0  0  0  0  0  0
  149.4910  134.2198  159.0984 H   0  0  0  0  0  0  0  0  0  0  0  0
  148.4888  135.5004  158.4194 H   0  0  0  0  0  0  0  0  0  0  0  0
  151.7744  134.0493  155.5680 H   0  0  0  0  0  0  0  0  0  0  0  0
  150.7509  133.2668  153.4246 H   0  0  0  0  0  0  0  0  0  0  0  0
  149.1421  133.5941  154.0670 H   0  0  0  0  0  0  0  0  0  0  0  0
  150.1437  132.3398  154.7934 H   0  0  0  0  0  0  0  0  0  0  0  0
  149.7949  136.0577  154.3740 H   0  0  0  0  0  0  0  0  0  0  0  0
  151.4242  135.7699  153.8076 H   0  0  0  0  0  0  0  0  0  0  0  0
  149.9644  142.3590  157.0873 H   0  0  0  0  0  0  0  0  0  0  0  0
  150.0296  144.7335  157.8882 H   0  0  0  0  0  0  0  0  0  0  0  0
  151.7539  145.4654  159.5227 H   0  0  0  0  0  0  0  0  0  0  0  0
  153.4511  143.8403  160.3935 H   0  0  0  0  0  0  0  0  0  0  0  0
  1  2  1  0  0  0  0
  1 25  1  0  0  0  0
  1 26  1  0  0  0  0
  1 27  1  0  0  0  0
  2  3  1  0  0  0  0
  2 28  1  0  0  0  0
  2 29  1  0  0  0  0
  3 24  1  0  0  0  0
  3  4  1  0  0  0  0
  4  5  2  0  0  0  0
  4  6  1  0  0  0  0
  6  7  1  0  0  0  0
  6 19  1  0  0  0  0
  7  8  1  0  0  0  0
  7 30  1  0  0  0  0
  7 31  1  0  0  0  0
  8  9  1  0  0  0  0
  8 10  1  0  0  0  0
  8 32  1  0  0  0  0
  9 33  1  0  0  0  0
 10 11  1  0  0  0  0
 10 34  1  0  0  0  0
 10 35  1  0  0  0  0
 11 18  1  0  0  0  0
 11 12  1  0  0  0  0
 12 13  1  0  0  0  0
 12 36  1  0  0  0  0
 12 37  1  0  0  0  0
 13 14  1  0  0  0  0
 13 15  1  0  0  0  0
 13 38  1  0  0  0  0
 14 39  1  0  0  0  0
 14 40  1  0  0  0  0
 14 41  1  0  0  0  0
 15 16  1  0  0  0  0
 16 17  1  0  0  0  0
 16 18  1  0  0  0  0
 16 42  1  0  0  0  0
 17 43  1  0  0  0  0
 17 44  1  0  0  0  0
 17 45  1  0  0  0  0
 18 46  1  0  0  0  0
 18 47  1  0  0  0  0
 19 24  2  0  0  0  0
 19 20  1  0  0  0  0
 20 21  2  0  0  0  0
 20 48  1  0  0  0  0
 21 22  1  0  0  0  0
 21 49  1  0  0  0  0
 22 23  2  0  0  0  0
 22 50  1  0  0  0  0
 23 24  1  0  0  0  0
 23 51  1  0  0  0  0
M  END
> <s_m_source_file>
AV-unprocessed.smi

> <i_m_source_file_index>
1570

> <i_lp_mmshare_version>
43012

> <i_f3d_flags>
0

> <s_epik_input>
W2NIXTFbY0hdW2NIXVtjSF1jKGMxMiluKFtDSDJdW0NIM10pYyg9TyluMltDSDJdW0NASF0oW09IXSlbQ0gyXU4zW0NIMl1bQ0BASF0oW0NIM10pT1tDQEBIXShbQ0gzXSlbQ0gyXTM=

> <s_epik_cmdline>
J2VwaWtfcHl0aG9uJywgJy1waCcsICc3LjAnLCAnLXRuJywgJzgnLCAnLW1hJywgJzIwMCcsICctbWV0YWxfYmluZGluZycsICctaW1hZScsICc8aW5maWxlLm1hZT4nLCAnLW9tYWUnLCAnPG91dGZpbGUubWFlPic=

> <r_epik_Ionization_Penalty>
0.214359

> <r_epik_Ionization_Penalty_Charging>
2.30976e-09

> <r_epik_Ionization_Penalty_Neutral>
0.214359

> <r_epik_State_Penalty>
0.204533

> <r_epik_Charging_Adjusted_Penalty>
0.204533

> <i_epik_Tot_Q>
0

> <i_epik_Tot_abs_Q>
0

> <r_epik_Metal_State_Penalty>
0.204533

> <b_epik_Metal_Only>
0

> <s_lp_Force_Field>
OPLS_2005

> <r_lp_Energy>
58.4553

> <b_lp_Chiralities_Consistent>
1

> <s_lp_Variant>
AV-unprocessed.smi:1570-1

> <Gold.Version>
5.8.1

> <Gold.Id.Protein>
6NUR|6NUR_protein|mol2

> <Gold.PLP.Fitness>
51.1267

> <Gold.PLP.PLP>
-48.5425

> <Gold.PLP.part.hbond>
-2.0000

> <Gold.PLP.part.metal>
0.0000

> <Gold.PLP.part.buried>
-4.9324

> <Gold.PLP.part.nonpolar>
-41.6406

> <Gold.PLP.part.repulsive>
0.0494

> <Gold.PLP.ligand.clash>
0.0000

> <Gold.PLP.ligand.torsion>
0.2383

> <Gold.PLP.Chemscore.Hbond>
1.0000

> <Gold.PLP.Chemscore.CHOScore>
0.0000

> <Gold.PLP.Chemscore.Metal>
0.0000

> <Gold.Chemscore.Hbonds>
donor molecule, donor type, donor heavy atom, donor atom, acceptor molecule, acceptor atom, score
      P1  H  7997  8008       L1     9  0.01

> <Gold.PLP.Chemscore.Internal.Correction>
0.0609

> <Gold.Rescore>
     Score         DG    S(hbond)    S(metal)    S(lipo)     H(rot)  DE(clash)    DE(int)     intcor
     18.01     -18.42       0.87        0.00     130.68       2.06       0.05       0.36       ----

> <Gold.Chemscore.Fitness>
18.0119

> <Gold.Chemscore.DG>
-18.4231

> <Gold.Chemscore.ZeroCoef>
-5.4800

> <Gold.Chemscore.Hbond>
0.8744

> <Gold.Chemscore.Metal>
0.0000

> <Gold.Chemscore.Lipo>
130.6800

> <Gold.Chemscore.Internal_Hbond>
0.0000

> <Gold.Chemscore.DEClash>
0.0537

> <Gold.Chemscore.DEInternal>
0.3574

> <Gold.Chemscore.Rot>
2.0574

> <Gold.Chemscore.Internal.Correction>
   9.000000E+99

> <Gold.Chemscore.Hbond.Weighted>
-2.9204

> <Gold.Chemscore.Metal.Weighted>
-0.0000

> <Gold.Chemscore.Lipo.Weighted>
-15.2896

> <Gold.Chemscore.Internal_Hbond.Weighted>
0.0000

> <Gold.Chemscore.DEClash.Weighted>
0.0537

> <Gold.Chemscore.DEInternal.Weighted>
0.3574

> <Gold.Chemscore.Rot.Weighted>
5.2669

> <Gold.Chemscore.Internal.Correction.Weighted>
   9.000000E+99

> <Gold.Protein.RotatedTorsions>
[ 6907 6896 6895 6894 ] final   25.96 input  -60.11 | X-H torsion
[ 7974 7965 7964 7962 ] final -133.32 input  175.53 | X-H torsion
[ 8008 7997 7996 7995 ] final  -11.07 input   59.86 | X-H torsion
[ 10167 10162 10161 10158 ] final  141.42 input  -65.29 | X-H torsion
[ 10718 10713 10712 10709 ] final   45.89 input   66.30 | X-H torsion
[ 10763 10752 10751 10750 ] final  154.17 input  -60.55 | X-H torsion
[ 11005 11000 10999 10996 ] final   16.51 input  -57.11 | X-H torsion

> <Gold.Protein.ActiveResidues>
 VAL166  LYS551  ARG553  GLY616  TRP617  ASP618  TYR619  PRO620  LYS621  CYS622 
 ASP623  PHE694  ASN695  SER759  ASP760  ASP761  ALA762  ILE779  LEU786  VAL792 
 PHE793  MET794  SER795  GLU796  ALA797  LYS798  CYS799  TRP800  GLU811  SER814 

> <Gold.Protein.RotatedAtoms>
  151.9803  135.0032  160.0556 H   0  0  0  0  0  0  0  0  0  0  0  0  # atno 6907 bound_to 6896
  152.1702  133.4634  159.4913 H   0  0  0  0  0  0  0  0  0  0  0  0  # atno 6908 bound_to 6896
  150.6900  134.1880  159.4317 H   0  0  0  0  0  0  0  0  0  0  0  0  # atno 6909 bound_to 6896
  144.9204  140.7006  143.4969 H   0  0  0  0  0  0  0  0  0  0  0  0  # atno 7974 bound_to 7965
  154.5497  140.2312  155.8505 H   0  0  0  0  0  0  0  0  0  0  0  0  # atno 8008 bound_to 7997
  156.1935  140.3071  155.9342 H   0  0  0  0  0  0  0  0  0  0  0  0  # atno 8009 bound_to 7997
  155.3094  140.0435  157.3024 H   0  0  0  0  0  0  0  0  0  0  0  0  # atno 8010 bound_to 7997
  139.5021  144.6173  151.6134 H   0  0  0  0  0  0  0  0  0  0  0  0  # atno 10167 bound_to 10162
  157.4424  130.8089  149.7707 H   0  0  0  0  0  0  0  0  0  0  0  0  # atno 10718 bound_to 10713
  154.1480  135.2817  155.3143 H   0  0  0  0  0  0  0  0  0  0  0  0  # atno 10763 bound_to 10752
  154.6238  135.5458  153.7608 H   0  0  0  0  0  0  0  0  0  0  0  0  # atno 10764 bound_to 10752
  153.0230  135.6445  154.1625 H   0  0  0  0  0  0  0  0  0  0  0  0  # atno 10765 bound_to 10752
  140.4464  134.1269  155.7696 H   0  0  0  0  0  0  0  0  0  0  0  0  # atno 11005 bound_to 11000
  145.3306  139.1761  143.4539 LP  0  0  0  0  0  0  0  0  0  0  0  0  # atno 17320 bound_to 7965
  146.3202  140.3335  142.8642 LP  0  0  0  0  0  0  0  0  0  0  0  0  # atno 17321 bound_to 7965
  140.5864  143.9856  150.6298 LP  0  0  0  0  0  0  0  0  0  0  0  0  # atno 17342 bound_to 10162
  140.3022  143.3253  152.0960 LP  0  0  0  0  0  0  0  0  0  0  0  0  # atno 17343 bound_to 10162
  155.9954  130.3912  150.2821 LP  0  0  0  0  0  0  0  0  0  0  0  0  # atno 17370 bound_to 10713
  157.0987  131.0189  151.3094 LP  0  0  0  0  0  0  0  0  0  0  0  0  # atno 17371 bound_to 10713
  141.1683  133.8659  157.1647 LP  0  0  0  0  0  0  0  0  0  0  0  0  # atno 17394 bound_to 11000
  140.0036  135.0018  157.0243 LP  0  0  0  0  0  0  0  0  0  0  0  0  # atno 17395 bound_to 11000

$$$$
