AV-unprocessed.smi:1047|AV-procd|sdf|4590|dock4
  -GOLD-   22720 3 63D 1   1.00000     0.00000
 Structure written by MMmdl.
 57 59  0  0  0  0  0  0  0  0  3 V2000
  146.1544  134.0042  150.8169 C   0  0  0  0  0  0  0  0  0  0  0  0
  145.0369  134.2165  151.8481 C   0  0  0  0  0  0  0  0  0  0  0  0
  144.6529  135.6108  152.0628 N   0  0  0  0  0  0  0  0  0  0  0  0
  143.5364  135.7472  152.9951 C   0  0  0  0  0  0  0  0  0  0  0  0
  143.1670  137.2212  153.2330 C   0  0  0  0  0  0  0  0  0  0  0  0
  144.3125  137.9332  153.6898 O   0  0  0  0  0  0  0  0  0  0  0  0
  145.4065  137.8726  152.7778 C   0  0  1  0  0  0  0  0  0  0  0  0
  146.5702  138.6765  153.3733 C   0  0  0  0  0  0  0  0  0  0  0  0
  146.6228  140.0365  152.8018 N   0  3  0  0  0  0  0  0  0  0  0  0
  147.1308  141.0615  153.7352 C   0  0  0  0  0  0  0  0  0  0  0  0
  148.5480  140.7217  154.2370 C   0  0  1  0  0  0  0  0  0  0  0  0
  149.4793  140.9831  153.2064 O   0  0  0  0  0  0  0  0  0  0  0  0
  148.9897  141.5451  155.4644 C   0  0  0  0  0  0  0  0  0  0  0  0
  149.8173  140.7815  156.4091 N   0  0  0  0  0  0  0  0  0  0  0  0
  149.8912  139.4361  156.6016 C   0  0  0  0  0  0  0  0  0  0  0  0
  150.8149  139.2098  157.5760 N   0  3  0  0  0  0  0  0  0  0  0  0
  151.3424  140.4275  158.0104 C   0  0  0  0  0  0  0  0  0  0  0  0
  152.3021  140.7100  158.9751 C   0  0  0  0  0  0  0  0  0  0  0  0
  152.6264  142.0694  159.1841 C   0  0  0  0  0  0  0  0  0  0  0  0
  153.6742  142.4124  160.2298 C   0  0  0  0  0  0  0  0  0  0  0  0
  151.9907  143.0942  158.4365 C   0  0  0  0  0  0  0  0  0  0  0  0
  152.3449  144.5530  158.6708 C   0  0  0  0  0  0  0  0  0  0  0  0
  151.0169  142.7862  157.4597 C   0  0  0  0  0  0  0  0  0  0  0  0
  150.7096  141.4413  157.2642 C   0  0  0  0  0  0  0  0  0  0  0  0
  145.7804  136.3936  152.5565 C   0  0  0  0  0  0  0  0  0  0  0  0
  146.4595  132.9578  150.7944 H   0  0  0  0  0  0  0  0  0  0  0  0
  147.0346  134.5996  151.0613 H   0  0  0  0  0  0  0  0  0  0  0  0
  145.8353  134.2687  149.8093 H   0  0  0  0  0  0  0  0  0  0  0  0
  144.1625  133.6298  151.5624 H   0  0  0  0  0  0  0  0  0  0  0  0
  145.3826  133.7972  152.7939 H   0  0  0  0  0  0  0  0  0  0  0  0
  142.6587  135.2253  152.6148 H   0  0  0  0  0  0  0  0  0  0  0  0
  143.7903  135.2804  153.9483 H   0  0  0  0  0  0  0  0  0  0  0  0
  142.7883  137.6773  152.3168 H   0  0  0  0  0  0  0  0  0  0  0  0
  142.3768  137.2986  153.9800 H   0  0  0  0  0  0  0  0  0  0  0  0
  145.1106  138.3169  151.8253 H   0  0  0  0  0  0  0  0  0  0  0  0
  146.4708  138.7352  154.4582 H   0  0  0  0  0  0  0  0  0  0  0  0
  147.5142  138.1725  153.1625 H   0  0  0  0  0  0  0  0  0  0  0  0
  147.2124  140.0207  151.9818 H   0  0  0  0  0  0  0  0  0  0  0  0
  147.1236  142.0391  153.2506 H   0  0  0  0  0  0  0  0  0  0  0  0
  146.4377  141.1150  154.5746 H   0  0  0  0  0  0  0  0  0  0  0  0
  148.6045  139.6609  154.4851 H   0  0  0  0  0  0  0  0  0  0  0  0
  149.3873  140.3272  152.5324 H   0  0  0  0  0  0  0  0  0  0  0  0
  149.5899  142.3969  155.1405 H   0  0  0  0  0  0  0  0  0  0  0  0
  148.1321  141.9650  155.9902 H   0  0  0  0  0  0  0  0  0  0  0  0
  149.3241  138.6835  156.0725 H   0  0  0  0  0  0  0  0  0  0  0  0
  152.7814  139.9243  159.5407 H   0  0  0  0  0  0  0  0  0  0  0  0
  154.5033  142.9578  159.7783 H   0  0  0  0  0  0  0  0  0  0  0  0
  154.0821  141.5145  160.6954 H   0  0  0  0  0  0  0  0  0  0  0  0
  153.2413  143.0293  161.0179 H   0  0  0  0  0  0  0  0  0  0  0  0
  151.7529  145.2144  158.0376 H   0  0  0  0  0  0  0  0  0  0  0  0
  153.3968  144.7320  158.4472 H   0  0  0  0  0  0  0  0  0  0  0  0
  152.1583  144.8316  159.7082 H   0  0  0  0  0  0  0  0  0  0  0  0
  150.5357  143.5699  156.8938 H   0  0  0  0  0  0  0  0  0  0  0  0
  146.1437  135.9662  153.4926 H   0  0  0  0  0  0  0  0  0  0  0  0
  146.6065  136.3337  151.8467 H   0  0  0  0  0  0  0  0  0  0  0  0
  145.6870  140.2953  152.5221 H   0  0  0  0  0  0  0  0  0  0  0  0
  151.0704  138.2901  157.9128 H   0  0  0  0  0  0  0  0  0  0  0  0
  1  2  1  0  0  0  0
  1 26  1  0  0  0  0
  1 27  1  0  0  0  0
  1 28  1  0  0  0  0
  2  3  1  0  0  0  0
  2 29  1  0  0  0  0
  2 30  1  0  0  0  0
  3 25  1  0  0  0  0
  3  4  1  0  0  0  0
  4  5  1  0  0  0  0
  4 31  1  0  0  0  0
  4 32  1  0  0  0  0
  5  6  1  0  0  0  0
  5 33  1  0  0  0  0
  5 34  1  0  0  0  0
  6  7  1  0  0  0  0
  7  8  1  0  0  0  0
  7 25  1  0  0  0  0
  7 35  1  0  0  0  0
  8  9  1  0  0  0  0
  8 36  1  0  0  0  0
  8 37  1  0  0  0  0
  9 10  1  0  0  0  0
  9 38  1  0  0  0  0
  9 56  1  0  0  0  0
 10 11  1  0  0  0  0
 10 39  1  0  0  0  0
 10 40  1  0  0  0  0
 11 12  1  0  0  0  0
 11 13  1  0  0  0  0
 11 41  1  0  0  0  0
 12 42  1  0  0  0  0
 13 14  1  0  0  0  0
 13 43  1  0  0  0  0
 13 44  1  0  0  0  0
 14 24  1  0  0  0  0
 14 15  1  0  0  0  0
 15 16  2  0  0  0  0
 15 45  1  0  0  0  0
 16 17  1  0  0  0  0
 16 57  1  0  0  0  0
 17 24  2  0  0  0  0
 17 18  1  0  0  0  0
 18 19  2  0  0  0  0
 18 46  1  0  0  0  0
 19 20  1  0  0  0  0
 19 21  1  0  0  0  0
 20 47  1  0  0  0  0
 20 48  1  0  0  0  0
 20 49  1  0  0  0  0
 21 22  1  0  0  0  0
 21 23  2  0  0  0  0
 22 50  1  0  0  0  0
 22 51  1  0  0  0  0
 22 52  1  0  0  0  0
 23 24  1  0  0  0  0
 23 53  1  0  0  0  0
 25 54  1  0  0  0  0
 25 55  1  0  0  0  0
M  CHG  1   9   1
M  CHG  1  16   1
M  END
> <s_m_source_file>
AV-unprocessed.smi

> <i_m_source_file_index>
1047

> <i_lp_mmshare_version>
43012

> <i_f3d_flags>
0

> <s_epik_input>
W0NIM11bQ0gyXU4xW0NIMl1bQ0gyXU9bQ0BIXShbQ0gyXTEpW0NIMl1bTkhdW0NIMl1bQ0BIXShbT0hdKVtDSDJdbihbY0hdbjIpYyhjMjMpW2NIXWMoW0NIM10pYyhbY0hdMylbQ0gzXQ==

> <s_epik_cmdline>
J2VwaWtfcHl0aG9uJywgJy1waCcsICc3LjAnLCAnLXRuJywgJzgnLCAnLW1hJywgJzIwMCcsICctbWV0YWxfYmluZGluZycsICctaW1hZScsICc8aW5maWxlLm1hZT4nLCAnLW9tYWUnLCAnPG91dGZpbGUubWFlPic=

> <r_epik_Ionization_Penalty>
1.75732

> <r_epik_Ionization_Penalty_Charging>
1.18089

> <r_epik_Ionization_Penalty_Neutral>
0.576429

> <r_epik_State_Penalty>
1.69377

> <r_epik_Charging_Adjusted_Penalty>
2.87466

> <i_epik_Tot_Q>
2

> <i_epik_Tot_abs_Q>
2

> <r_epik_Metal_State_Penalty>
5.70174

> <b_epik_Metal_Only>
0

> <s_lp_Force_Field>
OPLS_2005

> <r_lp_Energy>
42.3107

> <b_lp_Chiralities_Consistent>
1

> <s_lp_Variant>
AV-unprocessed.smi:1047-31

> <Gold.Version>
5.8.1

> <Gold.Id.Protein>
6NUR|6NUR_protein|mol2

> <Gold.PLP.Fitness>
53.9916

> <Gold.PLP.PLP>
-45.8585

> <Gold.PLP.part.hbond>
-3.0494

> <Gold.PLP.part.metal>
0.0000

> <Gold.PLP.part.buried>
-6.1331

> <Gold.PLP.part.nonpolar>
-37.9000

> <Gold.PLP.part.repulsive>
1.0331

> <Gold.PLP.ligand.clash>
0.0000

> <Gold.PLP.ligand.torsion>
1.6619

> <Gold.PLP.Chemscore.Hbond>
3.7368

> <Gold.PLP.Chemscore.CHOScore>
0.0000

> <Gold.PLP.Chemscore.Metal>
0.0000

> <Gold.Chemscore.Hbonds>
donor molecule, donor type, donor heavy atom, donor atom, acceptor molecule, acceptor atom, score
      L1  H     9    56       P1 10175  2.00
      L1  H    12    42       P1  7957  0.63
      P1  H  7989  7998       L1    12  0.11
      P1  H  8011  8017       L1    12  1.00

> <Gold.PLP.Chemscore.Internal.Correction>
0.2465

> <Gold.Rescore>
     Score         DG    S(hbond)    S(metal)    S(lipo)     H(rot)  DE(clash)    DE(int)     intcor
     19.01     -20.84       2.20        0.00     127.27       2.69       0.20       1.63       ----

> <Gold.Chemscore.Fitness>
19.0083

> <Gold.Chemscore.DG>
-20.8369

> <Gold.Chemscore.ZeroCoef>
-5.4800

> <Gold.Chemscore.Hbond>
2.2026

> <Gold.Chemscore.Metal>
0.0000

> <Gold.Chemscore.Lipo>
127.2743

> <Gold.Chemscore.Internal_Hbond>
0.0000

> <Gold.Chemscore.DEClash>
0.2009

> <Gold.Chemscore.DEInternal>
1.6278

> <Gold.Chemscore.Rot>
2.6917

> <Gold.Chemscore.Internal.Correction>
   9.000000E+99

> <Gold.Chemscore.Hbonds>
donor molecule, donor type, donor heavy atom, donor atom, acceptor molecule, acceptor atom, score
      L1  H     9    38       P1  7957  0.01
      L1  H     9    56       P1 10175  0.71
      L1  H    12    42       P1  7957  0.61
      P1  H  7989  7998       L1    12  0.03
      P1  H  8011  8017       L1    12  0.40

> <Gold.Chemscore.Hbond.Weighted>
-7.3565

> <Gold.Chemscore.Metal.Weighted>
-0.0000

> <Gold.Chemscore.Lipo.Weighted>
-14.8911

> <Gold.Chemscore.Internal_Hbond.Weighted>
0.0000

> <Gold.Chemscore.DEClash.Weighted>
0.2009

> <Gold.Chemscore.DEInternal.Weighted>
1.6278

> <Gold.Chemscore.Rot.Weighted>
6.8907

> <Gold.Chemscore.Internal.Correction.Weighted>
   9.000000E+99

> <Gold.Protein.RotatedTorsions>
[ 6907 6896 6895 6894 ] final  171.31 input  -60.11 | X-H torsion
[ 7974 7965 7964 7962 ] final  -96.95 input  175.53 | X-H torsion
[ 8008 7997 7996 7995 ] final  -11.64 input   59.86 | X-H torsion
[ 10167 10162 10161 10158 ] final   98.33 input  -65.29 | X-H torsion
[ 10718 10713 10712 10709 ] final   49.80 input   66.30 | X-H torsion
[ 10763 10752 10751 10750 ] final -125.84 input  -60.55 | X-H torsion
[ 11005 11000 10999 10996 ] final  152.59 input  -57.11 | X-H torsion

> <Gold.Protein.ActiveResidues>
 VAL166  LYS551  ARG553  GLY616  TRP617  ASP618  TYR619  PRO620  LYS621  CYS622 
 ASP623  PHE694  ASN695  SER759  ASP760  ASP761  ALA762  ILE779  LEU786  VAL792 
 PHE793  MET794  SER795  GLU796  ALA797  LYS798  CYS799  TRP800  GLU811  SER814 

> <Gold.Protein.RotatedAtoms>
  151.8022  133.3371  159.3530 H   0  0  0  0  0  0  0  0  0  0  0  0  # atno 6907 bound_to 6896
  150.7354  134.5743  159.5915 H   0  0  0  0  0  0  0  0  0  0  0  0  # atno 6908 bound_to 6896
  152.3135  134.7470  160.0382 H   0  0  0  0  0  0  0  0  0  0  0  0  # atno 6909 bound_to 6896
  145.3401  140.9458  143.2613 H   0  0  0  0  0  0  0  0  0  0  0  0  # atno 7974 bound_to 7965
  154.5447  140.2297  155.8583 H   0  0  0  0  0  0  0  0  0  0  0  0  # atno 8008 bound_to 7997
  156.1891  140.3081  155.9259 H   0  0  0  0  0  0  0  0  0  0  0  0  # atno 8009 bound_to 7997
  155.3188  140.0439  157.3029 H   0  0  0  0  0  0  0  0  0  0  0  0  # atno 8010 bound_to 7997
  139.7718  144.6920  151.0145 H   0  0  0  0  0  0  0  0  0  0  0  0  # atno 10167 bound_to 10162
  157.4822  130.8322  149.8106 H   0  0  0  0  0  0  0  0  0  0  0  0  # atno 10718 bound_to 10713
  154.8740  135.4016  154.3333 H   0  0  0  0  0  0  0  0  0  0  0  0  # atno 10763 bound_to 10752
  153.4143  135.7021  153.6343 H   0  0  0  0  0  0  0  0  0  0  0  0  # atno 10764 bound_to 10752
  153.5032  135.3723  155.2520 H   0  0  0  0  0  0  0  0  0  0  0  0  # atno 10765 bound_to 10752
  140.1321  134.8795  157.2218 H   0  0  0  0  0  0  0  0  0  0  0  0  # atno 11005 bound_to 11000
  144.8797  139.4922  143.6729 LP  0  0  0  0  0  0  0  0  0  0  0  0  # atno 17320 bound_to 7965
  146.3011  139.7429  142.9091 LP  0  0  0  0  0  0  0  0  0  0  0  0  # atno 17321 bound_to 7965
  140.7814  143.4580  151.0318 LP  0  0  0  0  0  0  0  0  0  0  0  0  # atno 17342 bound_to 10162
  139.8263  143.7751  152.3178 LP  0  0  0  0  0  0  0  0  0  0  0  0  # atno 17343 bound_to 10162
  156.0128  130.3826  150.2210 LP  0  0  0  0  0  0  0  0  0  0  0  0  # atno 17370 bound_to 10713
  157.0396  131.0031  151.3287 LP  0  0  0  0  0  0  0  0  0  0  0  0  # atno 17371 bound_to 10713
  140.2829  134.3329  155.7338 LP  0  0  0  0  0  0  0  0  0  0  0  0  # atno 17394 bound_to 11000
  141.2172  133.7489  156.9390 LP  0  0  0  0  0  0  0  0  0  0  0  0  # atno 17395 bound_to 11000

$$$$
