AV-unprocessed.smi:1304|AV-procd|sdf|5432|dock10
  -GOLD-   22720 4593D 1   1.00000     0.00000
 Structure written by MMmdl.
 48 49  0  0  0  0  0  0  0  0  2 V2000
  149.9785  136.9889  156.3057 C   0  0  0  0  0  0  0  0  0  0  0  0
  149.5573  135.8882  155.3156 C   0  0  0  0  0  0  0  0  0  0  0  0
  148.0201  135.6789  155.1504 C   0  0  2  0  0  0  0  0  0  0  0  0
  147.3670  137.0863  155.1166 C   0  0  0  0  0  0  0  0  0  0  0  0
  147.4529  134.8913  156.3741 C   0  0  0  0  0  0  0  0  0  0  0  0
  147.6509  135.5760  157.6508 N   0  0  0  0  0  0  0  0  0  0  0  0
  148.4948  135.1938  158.6217 C   0  0  0  0  0  0  0  0  0  0  0  0
  149.1775  134.1709  158.5619 O   0  0  0  0  0  0  0  0  0  0  0  0
  148.5788  136.1129  159.8468 C   0  0  0  0  0  0  0  0  0  0  0  0
  147.5366  135.8142  160.8428 N   0  0  0  0  0  0  0  0  0  0  0  0
  147.6438  134.5965  161.5440 C   0  0  0  0  0  0  0  0  0  0  0  0
  146.7490  134.2334  162.4766 C   0  0  0  0  0  0  0  0  0  0  0  0
  145.6519  135.1292  162.7557 C   0  0  0  0  0  0  0  0  0  0  0  0
  145.5403  136.2972  162.0919 C   0  0  0  0  0  0  0  0  0  0  0  0
  146.5163  136.6987  161.0723 C   0  0  0  0  0  0  0  0  0  0  0  0
  146.4246  137.7654  160.4632 O   0  0  0  0  0  0  0  0  0  0  0  0
  147.7418  134.9378  153.8660 N   0  3  0  0  0  0  0  0  0  0  0  0
  148.1975  133.5190  153.8226 C   0  0  0  0  0  0  0  0  0  0  0  0
  148.0530  132.9502  152.4020 C   0  0  0  0  0  0  0  0  0  0  0  0
  146.6984  133.0506  151.9860 O   0  0  0  0  0  0  0  0  0  0  0  0
  146.2609  134.4016  151.9402 C   0  0  0  0  0  0  0  0  0  0  0  0
  146.3494  135.0280  153.3424 C   0  0  0  0  0  0  0  0  0  0  0  0
  151.0655  137.0456  156.3689 H   0  0  0  0  0  0  0  0  0  0  0  0
  149.6077  136.7944  157.3118 H   0  0  0  0  0  0  0  0  0  0  0  0
  149.6219  137.9718  155.9982 H   0  0  0  0  0  0  0  0  0  0  0  0
  150.0219  136.0853  154.3498 H   0  0  0  0  0  0  0  0  0  0  0  0
  150.0186  134.9603  155.6536 H   0  0  0  0  0  0  0  0  0  0  0  0
  147.7368  137.7220  155.9223 H   0  0  0  0  0  0  0  0  0  0  0  0
  146.2850  137.0385  155.2398 H   0  0  0  0  0  0  0  0  0  0  0  0
  147.5695  137.6067  154.1803 H   0  0  0  0  0  0  0  0  0  0  0  0
  146.3785  134.7465  156.2668 H   0  0  0  0  0  0  0  0  0  0  0  0
  147.8818  133.8908  156.4323 H   0  0  0  0  0  0  0  0  0  0  0  0
  147.1259  136.4268  157.7945 H   0  0  0  0  0  0  0  0  0  0  0  0
  149.5652  136.0339  160.3088 H   0  0  0  0  0  0  0  0  0  0  0  0
  148.5051  137.1450  159.5020 H   0  0  0  0  0  0  0  0  0  0  0  0
  148.4956  133.9859  161.2822 H   0  0  0  0  0  0  0  0  0  0  0  0
  146.8491  133.2974  163.0064 H   0  0  0  0  0  0  0  0  0  0  0  0
  144.9174  134.8623  163.5012 H   0  0  0  0  0  0  0  0  0  0  0  0
  144.7128  136.9549  162.3147 H   0  0  0  0  0  0  0  0  0  0  0  0
  149.2395  133.4235  154.1211 H   0  0  0  0  0  0  0  0  0  0  0  0
  147.6089  132.9092  154.5083 H   0  0  0  0  0  0  0  0  0  0  0  0
  148.7047  133.4752  151.7019 H   0  0  0  0  0  0  0  0  0  0  0  0
  148.3481  131.9009  152.3870 H   0  0  0  0  0  0  0  0  0  0  0  0
  146.8594  134.9667  151.2237 H   0  0  0  0  0  0  0  0  0  0  0  0
  145.2313  134.4257  151.5827 H   0  0  0  0  0  0  0  0  0  0  0  0
  145.6591  134.5181  154.0147 H   0  0  0  0  0  0  0  0  0  0  0  0
  146.0152  136.0607  153.2598 H   0  0  0  0  0  0  0  0  0  0  0  0
  148.3061  135.4160  153.1780 H   0  0  0  0  0  0  0  0  0  0  0  0
  1  2  1  0  0  0  0
  1 23  1  0  0  0  0
  1 24  1  0  0  0  0
  1 25  1  0  0  0  0
  2  3  1  0  0  0  0
  2 26  1  0  0  0  0
  2 27  1  0  0  0  0
  3  4  1  0  0  0  0
  3  5  1  0  0  0  0
  3 17  1  0  0  0  0
  4 28  1  0  0  0  0
  4 29  1  0  0  0  0
  4 30  1  0  0  0  0
  5  6  1  0  0  0  0
  5 31  1  0  0  0  0
  5 32  1  0  0  0  0
  6  7  1  0  0  0  0
  6 33  1  0  0  0  0
  7  8  2  0  0  0  0
  7  9  1  0  0  0  0
  9 10  1  0  0  0  0
  9 34  1  0  0  0  0
  9 35  1  0  0  0  0
 10 15  1  0  0  0  0
 10 11  1  0  0  0  0
 11 12  2  0  0  0  0
 11 36  1  0  0  0  0
 12 13  1  0  0  0  0
 12 37  1  0  0  0  0
 13 14  2  0  0  0  0
 13 38  1  0  0  0  0
 14 15  1  0  0  0  0
 14 39  1  0  0  0  0
 15 16  2  0  0  0  0
 17 22  1  0  0  0  0
 17 18  1  0  0  0  0
 17 48  1  0  0  0  0
 18 19  1  0  0  0  0
 18 40  1  0  0  0  0
 18 41  1  0  0  0  0
 19 20  1  0  0  0  0
 19 42  1  0  0  0  0
 19 43  1  0  0  0  0
 20 21  1  0  0  0  0
 21 22  1  0  0  0  0
 21 44  1  0  0  0  0
 21 45  1  0  0  0  0
 22 46  1  0  0  0  0
 22 47  1  0  0  0  0
M  CHG  1  17   1
M  END
> <s_m_source_file>
AV-unprocessed.smi

> <i_m_source_file_index>
1304

> <i_lp_mmshare_version>
43012

> <i_f3d_flags>
0

> <s_epik_input>
W0NIMl0xW0NIMl1PW0NIMl1bQ0gyXU4xW0NAQF0oW0NIM10pKFtDSDJdW0NIM10pW0NIMl1bTkhdQyg9TylbQ0gyXW4yW2NIXVtjSF1bY0hdW2NIXWMyPU8=

> <s_epik_cmdline>
J2VwaWtfcHl0aG9uJywgJy1waCcsICc3LjAnLCAnLXRuJywgJzgnLCAnLW1hJywgJzIwMCcsICctbWV0YWxfYmluZGluZycsICctaW1hZScsICc8aW5maWxlLm1hZT4nLCAnLW9tYWUnLCAnPG91dGZpbGUubWFlPic=

> <r_lp_tautomer_probability>
1

> <r_epik_Ionization_Penalty>
0.519658

> <r_epik_Ionization_Penalty_Charging>
0.519658

> <r_epik_Ionization_Penalty_Neutral>
8.70177e-08

> <r_epik_State_Penalty>
0.527569

> <r_epik_Charging_Adjusted_Penalty>
1.04723

> <i_epik_Tot_Q>
1

> <i_epik_Tot_abs_Q>
1

> <r_epik_Metal_State_Penalty>
0.527613

> <b_epik_Metal_Only>
0

> <s_lp_Force_Field>
OPLS_2005

> <r_lp_Energy>
37.518

> <b_lp_Chiralities_Consistent>
1

> <s_lp_Variant>
AV-unprocessed.smi:1304-4

> <Gold.Version>
5.8.1

> <Gold.Id.Protein>
6NUR|6NUR_protein|mol2

> <Gold.PLP.Fitness>
40.6494

> <Gold.PLP.PLP>
-30.3188

> <Gold.PLP.part.hbond>
-3.0000

> <Gold.PLP.part.metal>
0.0000

> <Gold.PLP.part.buried>
-2.8307

> <Gold.PLP.part.nonpolar>
-24.1099

> <Gold.PLP.part.repulsive>
0.1576

> <Gold.PLP.ligand.clash>
0.0000

> <Gold.PLP.ligand.torsion>
0.9722

> <Gold.PLP.Chemscore.Hbond>
4.0000

> <Gold.PLP.Chemscore.CHOScore>
0.0000

> <Gold.PLP.Chemscore.Metal>
0.0000

> <Gold.Chemscore.Hbonds>
donor molecule, donor type, donor heavy atom, donor atom, acceptor molecule, acceptor atom, score
      L1  H    17    48       P1  7948  2.00
      P1  H  6896  6907       L1     8  1.00
      P1  H  6934  6947       L1    16  0.99

> <Gold.PLP.Chemscore.Internal.Correction>
0.2751

> <Gold.Rescore>
     Score         DG    S(hbond)    S(metal)    S(lipo)     H(rot)  DE(clash)    DE(int)     intcor
     16.53     -17.70       2.98        0.00      63.87       2.03       0.00       1.18       ----

> <Gold.Chemscore.Fitness>
16.5275

> <Gold.Chemscore.DG>
-17.7042

> <Gold.Chemscore.ZeroCoef>
-5.4800

> <Gold.Chemscore.Hbond>
2.9784

> <Gold.Chemscore.Metal>
0.0000

> <Gold.Chemscore.Lipo>
63.8670

> <Gold.Chemscore.Internal_Hbond>
0.0000

> <Gold.Chemscore.DEClash>
0.0000

> <Gold.Chemscore.DEInternal>
1.1767

> <Gold.Chemscore.Rot>
2.0298

> <Gold.Chemscore.Internal.Correction>
   9.000000E+99

> <Gold.Chemscore.Hbonds>
donor molecule, donor type, donor heavy atom, donor atom, acceptor molecule, acceptor atom, score
      L1  H    17    48       P1  7948  0.99
      P1  H  6896  6907       L1     8  0.99
      P1  H  6934  6947       L1    16  0.92

> <Gold.Chemscore.Hbond.Weighted>
-9.9480

> <Gold.Chemscore.Metal.Weighted>
-0.0000

> <Gold.Chemscore.Lipo.Weighted>
-7.4724

> <Gold.Chemscore.Internal_Hbond.Weighted>
0.0000

> <Gold.Chemscore.DEClash.Weighted>
0.0000

> <Gold.Chemscore.DEInternal.Weighted>
1.1767

> <Gold.Chemscore.Rot.Weighted>
5.1962

> <Gold.Chemscore.Internal.Correction.Weighted>
   9.000000E+99

> <Gold.Protein.RotatedTorsions>
[ 6907 6896 6895 6894 ] final -103.77 input  -60.11 | X-H torsion
[ 7974 7965 7964 7962 ] final -107.92 input  175.53 | X-H torsion
[ 8008 7997 7996 7995 ] final  154.02 input   59.86 | X-H torsion
[ 10167 10162 10161 10158 ] final  -54.63 input  -65.29 | X-H torsion
[ 10718 10713 10712 10709 ] final  158.35 input   66.30 | X-H torsion
[ 10763 10752 10751 10750 ] final   77.12 input  -60.55 | X-H torsion
[ 11005 11000 10999 10996 ] final   79.85 input  -57.11 | X-H torsion

> <Gold.Protein.ActiveResidues>
 VAL166  LYS551  ARG553  GLY616  TRP617  ASP618  TYR619  PRO620  LYS621  CYS622 
 ASP623  PHE694  ASN695  SER759  ASP760  ASP761  ALA762  ILE779  LEU786  VAL792 
 PHE793  MET794  SER795  GLU796  ALA797  LYS798  CYS799  TRP800  GLU811  SER814 

> <Gold.Protein.RotatedAtoms>
  150.7255  134.0379  159.3755 H   0  0  0  0  0  0  0  0  0  0  0  0  # atno 6907 bound_to 6896
  151.8351  135.0606  160.0451 H   0  0  0  0  0  0  0  0  0  0  0  0  # atno 6908 bound_to 6896
  152.2904  133.5520  159.5590 H   0  0  0  0  0  0  0  0  0  0  0  0  # atno 6909 bound_to 6896
  145.1994  140.9049  143.3378 H   0  0  0  0  0  0  0  0  0  0  0  0  # atno 7974 bound_to 7965
  156.2552  140.1978  156.6581 H   0  0  0  0  0  0  0  0  0  0  0  0  # atno 8008 bound_to 7997
  154.6485  140.0575  156.9954 H   0  0  0  0  0  0  0  0  0  0  0  0  # atno 8009 bound_to 7997
  155.1454  140.3246  155.4445 H   0  0  0  0  0  0  0  0  0  0  0  0  # atno 8010 bound_to 7997
  140.6420  143.2513  151.4964 H   0  0  0  0  0  0  0  0  0  0  0  0  # atno 10167 bound_to 10162
  157.1790  131.0628  151.2142 H   0  0  0  0  0  0  0  0  0  0  0  0  # atno 10718 bound_to 10713
  153.0775  135.4926  154.8435 H   0  0  0  0  0  0  0  0  0  0  0  0  # atno 10763 bound_to 10752
  154.7107  135.3019  154.9204 H   0  0  0  0  0  0  0  0  0  0  0  0  # atno 10764 bound_to 10752
  153.9898  135.6779  153.4806 H   0  0  0  0  0  0  0  0  0  0  0  0  # atno 10765 bound_to 10752
  139.9157  134.7875  156.1832 H   0  0  0  0  0  0  0  0  0  0  0  0  # atno 11005 bound_to 11000
  144.9963  139.3641  143.6190 LP  0  0  0  0  0  0  0  0  0  0  0  0  # atno 17320 bound_to 7965
  146.3421  139.9167  142.8772 LP  0  0  0  0  0  0  0  0  0  0  0  0  # atno 17321 bound_to 7965
  139.5629  144.2112  152.1720 LP  0  0  0  0  0  0  0  0  0  0  0  0  # atno 17342 bound_to 10162
  140.1385  144.5223  150.6758 LP  0  0  0  0  0  0  0  0  0  0  0  0  # atno 17343 bound_to 10162
  157.3970  130.7313  149.6739 LP  0  0  0  0  0  0  0  0  0  0  0  0  # atno 17370 bound_to 10713
  155.9727  130.4131  150.4064 LP  0  0  0  0  0  0  0  0  0  0  0  0  # atno 17371 bound_to 10713
  141.0629  133.6833  156.1988 LP  0  0  0  0  0  0  0  0  0  0  0  0  # atno 17394 bound_to 11000
  140.6632  134.4946  157.5584 LP  0  0  0  0  0  0  0  0  0  0  0  0  # atno 17395 bound_to 11000

$$$$
