AV-unprocessed.smi:398|AV-procd|sdf|2489|dock1
  -GOLD-   2262022433D 1   1.00000     0.00000
 Structure written by MMmdl.
 34 36  0  0  0  0  0  0  0  0  1 V2000
  152.9871  136.5091  156.5538 N   0  0  0  0  0  0  0  0  0  0  0  0
  152.6880  137.6034  156.7826 C   0  0  0  0  0  0  0  0  0  0  0  0
  152.3091  138.9427  157.0906 C   0  0  0  0  0  0  0  0  0  0  0  0
  152.5584  139.4931  158.2967 C   0  0  0  0  0  0  0  0  0  0  0  0
  152.2071  140.7889  158.6069 N   0  0  0  0  0  0  0  0  0  0  0  0
  152.3364  141.3027  159.9413 C   0  0  0  0  0  0  0  0  0  0  0  0
  152.9613  142.6645  160.1744 C   0  0  0  0  0  0  0  0  0  0  0  0
  153.7138  141.4143  160.5582 C   0  0  0  0  0  0  0  0  0  0  0  0
  151.4886  141.5716  157.6769 C   0  0  0  0  0  0  0  0  0  0  0  0
  151.0796  142.6974  157.9719 O   0  0  0  0  0  0  0  0  0  0  0  0
  151.2401  141.0184  156.3972 N   0  0  0  0  0  0  0  0  0  0  0  0
  150.5030  141.8291  155.4030 C   0  0  0  0  0  0  0  0  0  0  0  0
  149.1222  141.2569  155.0452 C   0  0  0  0  0  0  0  0  0  0  0  0
  148.9866  140.0713  154.7383 O   0  0  0  0  0  0  0  0  0  0  0  0
  148.1017  142.1252  155.0972 N   0  0  0  0  0  0  0  0  0  0  0  0
  146.7383  141.8205  154.8055 C   0  0  0  0  0  0  0  0  0  0  0  0
  146.0642  142.6072  153.7022 C   0  0  0  0  0  0  0  0  0  0  0  0
  145.6968  142.8677  155.1369 C   0  0  0  0  0  0  0  0  0  0  0  0
  151.6287  139.7010  156.0434 C   0  0  0  0  0  0  0  0  0  0  0  0
  151.3845  139.2463  154.9244 O   0  0  0  0  0  0  0  0  0  0  0  0
  153.0578  138.8989  159.0487 H   0  0  0  0  0  0  0  0  0  0  0  0
  151.5343  141.0272  160.6238 H   0  0  0  0  0  0  0  0  0  0  0  0
  153.3272  143.2182  159.3117 H   0  0  0  0  0  0  0  0  0  0  0  0
  152.5513  143.2729  160.9780 H   0  0  0  0  0  0  0  0  0  0  0  0
  153.8076  141.1909  161.6190 H   0  0  0  0  0  0  0  0  0  0  0  0
  154.5736  141.1442  159.9480 H   0  0  0  0  0  0  0  0  0  0  0  0
  150.3683  142.8539  155.7525 H   0  0  0  0  0  0  0  0  0  0  0  0
  151.0855  141.9379  154.4864 H   0  0  0  0  0  0  0  0  0  0  0  0
  148.3067  143.0779  155.3616 H   0  0  0  0  0  0  0  0  0  0  0  0
  146.4232  140.7834  154.9135 H   0  0  0  0  0  0  0  0  0  0  0  0
  146.6481  143.3685  153.1882 H   0  0  0  0  0  0  0  0  0  0  0  0
  145.3372  142.0833  153.0847 H   0  0  0  0  0  0  0  0  0  0  0  0
  144.7246  142.5173  155.4774 H   0  0  0  0  0  0  0  0  0  0  0  0
  146.0360  143.8024  155.5797 H   0  0  0  0  0  0  0  0  0  0  0  0
  1  2  3  0  0  0  0
  2  3  1  0  0  0  0
  3 19  1  0  0  0  0
  3  4  2  0  0  0  0
  4  5  1  0  0  0  0
  4 21  1  0  0  0  0
  5  6  1  0  0  0  0
  5  9  1  0  0  0  0
  6  8  1  0  0  0  0
  6  7  1  0  0  0  0
  6 22  1  0  0  0  0
  7  8  1  0  0  0  0
  7 23  1  0  0  0  0
  7 24  1  0  0  0  0
  8 25  1  0  0  0  0
  8 26  1  0  0  0  0
  9 10  2  0  0  0  0
  9 11  1  0  0  0  0
 11 12  1  0  0  0  0
 11 19  1  0  0  0  0
 12 13  1  0  0  0  0
 12 27  1  0  0  0  0
 12 28  1  0  0  0  0
 13 14  2  0  0  0  0
 13 15  1  0  0  0  0
 15 16  1  0  0  0  0
 15 29  1  0  0  0  0
 16 18  1  0  0  0  0
 16 17  1  0  0  0  0
 16 30  1  0  0  0  0
 17 18  1  0  0  0  0
 17 31  1  0  0  0  0
 17 32  1  0  0  0  0
 18 33  1  0  0  0  0
 18 34  1  0  0  0  0
 19 20  2  0  0  0  0
M  END
> <s_m_source_file>
AV-unprocessed.smi

> <i_m_source_file_index>
398

> <i_lp_mmshare_version>
43012

> <i_f3d_flags>
0

> <s_epik_input>
TiNDYzFbY0hdbihbQ0hdMltDSDJdW0NIMl0yKWMoPU8pbihjMT1PKVtDSDJdQyg9TylbTkhdW0NIXTNbQ0gyXVtDSDJdMw==

> <s_epik_cmdline>
J2VwaWtfcHl0aG9uJywgJy1waCcsICc3LjAnLCAnLXRuJywgJzgnLCAnLW1hJywgJzIwMCcsICctbWV0YWxfYmluZGluZycsICctaW1hZScsICc8aW5maWxlLm1hZT4nLCAnLW9tYWUnLCAnPG91dGZpbGUubWFlPic=

> <r_lp_tautomer_probability>
1

> <r_epik_Ionization_Penalty>
2.07526e-08

> <r_epik_Ionization_Penalty_Charging>
8.22213e-11

> <r_epik_Ionization_Penalty_Neutral>
2.06703e-08

> <r_epik_State_Penalty>
-0

> <r_epik_Charging_Adjusted_Penalty>
8.22213e-11

> <i_epik_Tot_Q>
0

> <i_epik_Tot_abs_Q>
0

> <r_epik_Metal_State_Penalty>
-0

> <b_epik_Metal_Only>
0

> <s_lp_Force_Field>
OPLS_2005

> <r_lp_Energy>
41.1586

> <b_lp_Chiralities_Consistent>
1

> <s_lp_Variant>
AV-unprocessed.smi:398-1

> <Gold.Version>
5.8.1

> <Gold.Id.Protein>
6NUR|6NUR_protein|mol2

> <Gold.PLP.Fitness>
46.0245

> <Gold.PLP.PLP>
-37.5103

> <Gold.PLP.part.hbond>
-2.9709

> <Gold.PLP.part.metal>
0.0000

> <Gold.PLP.part.buried>
-4.8682

> <Gold.PLP.part.nonpolar>
-30.9678

> <Gold.PLP.part.repulsive>
0.4149

> <Gold.PLP.ligand.clash>
0.0000

> <Gold.PLP.ligand.torsion>
0.2981

> <Gold.PLP.Chemscore.Hbond>
2.9440

> <Gold.PLP.Chemscore.CHOScore>
0.0000

> <Gold.PLP.Chemscore.Metal>
0.0000

> <Gold.Chemscore.Hbonds>
donor molecule, donor type, donor heavy atom, donor atom, acceptor molecule, acceptor atom, score
      L1  H    15    29       P1  8028  1.00
      P1  H  7989  7998       L1    20  0.65
      P1  H 10752 10763       L1     1  0.98

> <Gold.PLP.Chemscore.Internal.Correction>
0.2785

> <Gold.Rescore>
     Score         DG    S(hbond)    S(metal)    S(lipo)     H(rot)  DE(clash)    DE(int)     intcor
     12.59     -16.51       2.51        0.00      63.51       1.87       0.71       3.22       ----

> <Gold.Chemscore.Fitness>
12.5897

> <Gold.Chemscore.DG>
-16.5124

> <Gold.Chemscore.ZeroCoef>
-5.4800

> <Gold.Chemscore.Hbond>
2.5081

> <Gold.Chemscore.Metal>
0.0000

> <Gold.Chemscore.Lipo>
63.5113

> <Gold.Chemscore.Internal_Hbond>
0.0000

> <Gold.Chemscore.DEClash>
0.7054

> <Gold.Chemscore.DEInternal>
3.2174

> <Gold.Chemscore.Rot>
1.8654

> <Gold.Chemscore.Internal.Correction>
   9.000000E+99

> <Gold.Chemscore.Hbonds>
donor molecule, donor type, donor heavy atom, donor atom, acceptor molecule, acceptor atom, score
      L1  H    15    29       P1  8028  0.98
      P1  H  7989  7998       L1    20  0.42
      P1  H 10752 10763       L1     1  0.92

> <Gold.Chemscore.Hbond.Weighted>
-8.3771

> <Gold.Chemscore.Metal.Weighted>
-0.0000

> <Gold.Chemscore.Lipo.Weighted>
-7.4308

> <Gold.Chemscore.Internal_Hbond.Weighted>
0.0000

> <Gold.Chemscore.DEClash.Weighted>
0.7054

> <Gold.Chemscore.DEInternal.Weighted>
3.2174

> <Gold.Chemscore.Rot.Weighted>
4.7755

> <Gold.Chemscore.Internal.Correction.Weighted>
   9.000000E+99

> <Gold.Protein.RotatedTorsions>
[ 6907 6896 6895 6894 ] final  -46.97 input  -60.11 | X-H torsion
[ 7974 7965 7964 7962 ] final -119.15 input  175.53 | X-H torsion
[ 8008 7997 7996 7995 ] final -129.81 input   59.86 | X-H torsion
[ 10167 10162 10161 10158 ] final -104.41 input  -65.29 | X-H torsion
[ 10718 10713 10712 10709 ] final  -38.42 input   66.30 | X-H torsion
[ 10763 10752 10751 10750 ] final   99.52 input  -60.55 | X-H torsion
[ 11005 11000 10999 10996 ] final  110.85 input  -57.11 | X-H torsion

> <Gold.Protein.ActiveResidues>
 VAL166  LYS551  ARG553  GLY616  TRP617  ASP618  TYR619  PRO620  LYS621  CYS622 
 ASP623  PHE694  ASN695  SER759  ASP760  ASP761  ALA762  ILE779  LEU786  VAL792 
 PHE793  MET794  SER795  GLU796  ALA797  LYS798  CYS799  TRP800  GLU811  SER814 

> <Gold.Protein.RotatedAtoms>
  150.9056  134.8471  159.7390 H   0  0  0  0  0  0  0  0  0  0  0  0  # atno 6907 bound_to 6896
  152.4917  134.4436  159.9561 H   0  0  0  0  0  0  0  0  0  0  0  0  # atno 6908 bound_to 6896
  151.4483  133.3585  159.2827 H   0  0  0  0  0  0  0  0  0  0  0  0  # atno 6909 bound_to 6896
  145.0657  140.8323  143.4125 H   0  0  0  0  0  0  0  0  0  0  0  0  # atno 7974 bound_to 7965
  155.2854  140.0446  157.3019 H   0  0  0  0  0  0  0  0  0  0  0  0  # atno 8008 bound_to 7997
  154.5572  140.2335  155.8359 H   0  0  0  0  0  0  0  0  0  0  0  0  # atno 8009 bound_to 7997
  156.2017  140.3023  155.9549 H   0  0  0  0  0  0  0  0  0  0  0  0  # atno 8010 bound_to 7997
  140.2096  143.3757  152.1062 H   0  0  0  0  0  0  0  0  0  0  0  0  # atno 10167 bound_to 10162
  156.3040  130.4244  149.8115 H   0  0  0  0  0  0  0  0  0  0  0  0  # atno 10718 bound_to 10713
  153.3024  135.4110  155.1264 H   0  0  0  0  0  0  0  0  0  0  0  0  # atno 10763 bound_to 10752
  154.8553  135.3544  154.5833 H   0  0  0  0  0  0  0  0  0  0  0  0  # atno 10764 bound_to 10752
  153.6259  135.7062  153.5351 H   0  0  0  0  0  0  0  0  0  0  0  0  # atno 10765 bound_to 10752
  139.8891  134.9494  156.6342 H   0  0  0  0  0  0  0  0  0  0  0  0  # atno 11005 bound_to 11000
  145.1354  139.2606  143.5518 LP  0  0  0  0  0  0  0  0  0  0  0  0  # atno 17320 bound_to 7965
  146.3526  140.1016  142.8608 LP  0  0  0  0  0  0  0  0  0  0  0  0  # atno 17321 bound_to 7965
  139.5185  144.7007  151.5502 LP  0  0  0  0  0  0  0  0  0  0  0  0  # atno 17342 bound_to 10162
  140.6333  143.9034  150.6625 LP  0  0  0  0  0  0  0  0  0  0  0  0  # atno 17343 bound_to 10162
  156.5483  130.8330  151.3291 LP  0  0  0  0  0  0  0  0  0  0  0  0  # atno 17370 bound_to 10713
  157.7375  130.9797  150.2196 LP  0  0  0  0  0  0  0  0  0  0  0  0  # atno 17371 bound_to 10713
  140.7643  133.8791  155.8442 LP  0  0  0  0  0  0  0  0  0  0  0  0  # atno 17394 bound_to 11000
  140.9896  134.1297  157.4421 LP  0  0  0  0  0  0  0  0  0  0  0  0  # atno 17395 bound_to 11000

$$$$
