AV-unprocessed.smi:2993|AV-procd|sdf|11403|dock1
  -GOLD-   2272016323D 1   1.00000     0.00000
 Structure written by MMmdl.
 34 35  0  0  0  0  0  0  0  0  1 V2000
  149.1930  140.0635  157.6542 C   0  0  0  0  0  0  0  0  0  0  0  0
  150.1689  139.8273  156.5373 C   0  0  0  0  0  0  0  0  0  0  0  0
  149.8027  140.0945  155.2952 N   0  0  0  0  0  0  0  0  0  0  0  0
  150.8994  139.7669  154.4924 O   0  0  0  0  0  0  0  0  0  0  0  0
  151.8944  139.3068  155.2926 C   0  0  0  0  0  0  0  0  0  0  0  0
  153.1594  138.8927  154.6206 C   0  0  0  0  0  0  0  0  0  0  0  0
  151.5001  139.3213  156.6022 C   0  0  0  0  0  0  0  0  0  0  0  0
  152.2830  138.8950  157.8176 C   0  0  0  0  0  0  0  0  0  0  0  0
  152.8164  140.1315  158.5397 C   0  0  0  0  0  0  0  0  0  0  0  0
  154.0183  140.2288  158.7859 O   0  0  0  0  0  0  0  0  0  0  0  0
  151.9088  141.0591  158.8820 N   0  0  0  0  0  0  0  0  0  0  0  0
  152.1861  142.2831  159.6248 C   0  0  1  0  0  0  0  0  0  0  0  0
  153.1649  141.9561  160.7607 C   0  0  0  0  0  0  0  0  0  0  0  0
  152.7258  143.4041  158.7525 C   0  0  0  0  0  0  0  0  0  0  0  0
  152.4282  144.8497  159.0724 C   0  0  0  0  0  0  0  0  0  0  0  0
  151.8196  144.2054  157.8478 C   0  0  0  0  0  0  0  0  0  0  0  0
  148.4076  139.3074  157.6505 H   0  0  0  0  0  0  0  0  0  0  0  0
  148.7174  141.0403  157.5632 H   0  0  0  0  0  0  0  0  0  0  0  0
  149.6817  140.0265  158.6272 H   0  0  0  0  0  0  0  0  0  0  0  0
  153.5268  137.9539  155.0357 H   0  0  0  0  0  0  0  0  0  0  0  0
  153.9328  139.6486  154.7569 H   0  0  0  0  0  0  0  0  0  0  0  0
  153.0078  138.7508  153.5503 H   0  0  0  0  0  0  0  0  0  0  0  0
  151.6619  138.3230  158.5082 H   0  0  0  0  0  0  0  0  0  0  0  0
  153.1147  138.2414  157.5531 H   0  0  0  0  0  0  0  0  0  0  0  0
  150.9455  140.8891  158.6325 H   0  0  0  0  0  0  0  0  0  0  0  0
  151.2583  142.6284  160.0852 H   0  0  0  0  0  0  0  0  0  0  0  0
  153.3580  142.8343  161.3773 H   0  0  0  0  0  0  0  0  0  0  0  0
  154.1221  141.6074  160.3716 H   0  0  0  0  0  0  0  0  0  0  0  0
  152.7660  141.1787  161.4136 H   0  0  0  0  0  0  0  0  0  0  0  0
  153.7248  143.2085  158.3663 H   0  0  0  0  0  0  0  0  0  0  0  0
  151.7658  145.0584  159.9104 H   0  0  0  0  0  0  0  0  0  0  0  0
  153.2268  145.5724  158.9177 H   0  0  0  0  0  0  0  0  0  0  0  0
  152.2134  144.4958  156.8759 H   0  0  0  0  0  0  0  0  0  0  0  0
  150.7532  143.9907  157.8735 H   0  0  0  0  0  0  0  0  0  0  0  0
  1  2  1  0  0  0  0
  1 17  1  0  0  0  0
  1 18  1  0  0  0  0
  1 19  1  0  0  0  0
  2  7  1  0  0  0  0
  2  3  2  0  0  0  0
  3  4  1  0  0  0  0
  4  5  1  0  0  0  0
  5  6  1  0  0  0  0
  5  7  2  0  0  0  0
  6 20  1  0  0  0  0
  6 21  1  0  0  0  0
  6 22  1  0  0  0  0
  7  8  1  0  0  0  0
  8  9  1  0  0  0  0
  8 23  1  0  0  0  0
  8 24  1  0  0  0  0
  9 10  2  0  0  0  0
  9 11  1  0  0  0  0
 11 12  1  0  0  0  0
 11 25  1  0  0  0  0
 12 13  1  0  0  0  0
 12 14  1  0  0  0  0
 12 26  1  0  0  0  0
 13 27  1  0  0  0  0
 13 28  1  0  0  0  0
 13 29  1  0  0  0  0
 14 16  1  0  0  0  0
 14 15  1  0  0  0  0
 14 30  1  0  0  0  0
 15 16  1  0  0  0  0
 15 31  1  0  0  0  0
 15 32  1  0  0  0  0
 16 33  1  0  0  0  0
 16 34  1  0  0  0  0
M  END
> <s_m_source_file>
AV-unprocessed.smi

> <i_m_source_file_index>
2993

> <i_lp_mmshare_version>
43012

> <i_f3d_flags>
0

> <s_epik_input>
W0NIM11jMW5vYyhbQ0gzXSljMVtDSDJdQyg9TylbTkhdW0NASF0oW0NIM10pW0NIXTJbQ0gyXVtDSDJdMg==

> <s_epik_cmdline>
J2VwaWtfcHl0aG9uJywgJy1waCcsICc3LjAnLCAnLXRuJywgJzgnLCAnLW1hJywgJzIwMCcsICctbWV0YWxfYmluZGluZycsICctaW1hZScsICc8aW5maWxlLm1hZT4nLCAnLW9tYWUnLCAnPG91dGZpbGUubWFlPic=

> <r_lp_tautomer_probability>
1

> <r_epik_Ionization_Penalty>
1.92533e-08

> <r_epik_Ionization_Penalty_Charging>
0

> <r_epik_Ionization_Penalty_Neutral>
1.92533e-08

> <r_epik_State_Penalty>
-0

> <r_epik_Charging_Adjusted_Penalty>
0

> <i_epik_Tot_Q>
0

> <i_epik_Tot_abs_Q>
0

> <r_epik_Metal_State_Penalty>
-0

> <b_epik_Metal_Only>
0

> <s_lp_Force_Field>
OPLS_2005

> <r_lp_Energy>
6.29181

> <b_lp_Chiralities_Consistent>
1

> <s_lp_Variant>
AV-unprocessed.smi:2993-2

> <Gold.Version>
5.8.1

> <Gold.Id.Protein>
6NUR|6NUR_protein|mol2

> <Gold.PLP.Fitness>
39.5521

> <Gold.PLP.PLP>
-34.6840

> <Gold.PLP.part.hbond>
-2.0000

> <Gold.PLP.part.metal>
0.0000

> <Gold.PLP.part.buried>
-3.8552

> <Gold.PLP.part.nonpolar>
-29.3847

> <Gold.PLP.part.repulsive>
0.3069

> <Gold.PLP.ligand.clash>
0.0000

> <Gold.PLP.ligand.torsion>
1.0988

> <Gold.PLP.Chemscore.Hbond>
1.9920

> <Gold.PLP.Chemscore.CHOScore>
0.0000

> <Gold.PLP.Chemscore.Metal>
0.0000

> <Gold.Chemscore.Hbonds>
donor molecule, donor type, donor heavy atom, donor atom, acceptor molecule, acceptor atom, score
      P1  H  7989  7998       L1     4  1.00
      P1  H  7997  8010       L1    10  0.90

> <Gold.PLP.Chemscore.Internal.Correction>
1.0898

> <Gold.Rescore>
     Score         DG    S(hbond)    S(metal)    S(lipo)     H(rot)  DE(clash)    DE(int)     intcor
     15.11     -17.71       1.51        0.00      93.39       1.46       0.01       2.59       ----

> <Gold.Chemscore.Fitness>
15.1142

> <Gold.Chemscore.DG>
-17.7136

> <Gold.Chemscore.ZeroCoef>
-5.4800

> <Gold.Chemscore.Hbond>
1.5093

> <Gold.Chemscore.Metal>
0.0000

> <Gold.Chemscore.Lipo>
93.3853

> <Gold.Chemscore.Internal_Hbond>
0.0000

> <Gold.Chemscore.DEClash>
0.0133

> <Gold.Chemscore.DEInternal>
2.5862

> <Gold.Chemscore.Rot>
1.4584

> <Gold.Chemscore.Internal.Correction>
   9.000000E+99

> <Gold.Chemscore.Hbonds>
donor molecule, donor type, donor heavy atom, donor atom, acceptor molecule, acceptor atom, score
      P1  H  7989  7998       L1     4  0.50
      P1  H  7997  8010       L1    10  0.44

> <Gold.Chemscore.Hbond.Weighted>
-5.0410

> <Gold.Chemscore.Metal.Weighted>
-0.0000

> <Gold.Chemscore.Lipo.Weighted>
-10.9261

> <Gold.Chemscore.Internal_Hbond.Weighted>
0.0000

> <Gold.Chemscore.DEClash.Weighted>
0.0133

> <Gold.Chemscore.DEInternal.Weighted>
2.5862

> <Gold.Chemscore.Rot.Weighted>
3.7334

> <Gold.Chemscore.Internal.Correction.Weighted>
   9.000000E+99

> <Gold.Protein.RotatedTorsions>
[ 6907 6896 6895 6894 ] final  103.13 input  -60.11 | X-H torsion
[ 7974 7965 7964 7962 ] final   23.23 input  175.53 | X-H torsion
[ 8008 7997 7996 7995 ] final   17.25 input   59.86 | X-H torsion
[ 10167 10162 10161 10158 ] final  -95.70 input  -65.29 | X-H torsion
[ 10718 10713 10712 10709 ] final -139.00 input   66.30 | X-H torsion
[ 10763 10752 10751 10750 ] final  105.64 input  -60.55 | X-H torsion
[ 11005 11000 10999 10996 ] final -146.31 input  -57.11 | X-H torsion

> <Gold.Protein.ActiveResidues>
 VAL166  LYS551  ARG553  GLY616  TRP617  ASP618  TYR619  PRO620  LYS621  CYS622 
 ASP623  PHE694  ASN695  SER759  ASP760  ASP761  ALA762  ILE779  LEU786  VAL792 
 PHE793  MET794  SER795  GLU796  ALA797  LYS798  CYS799  TRP800  GLU811  SER814 

> <Gold.Protein.RotatedAtoms>
  152.5304  133.9872  159.7833 H   0  0  0  0  0  0  0  0  0  0  0  0  # atno 6907 bound_to 6896
  151.0115  133.5953  159.2689 H   0  0  0  0  0  0  0  0  0  0  0  0  # atno 6908 bound_to 6896
  151.3026  135.0779  159.9297 H   0  0  0  0  0  0  0  0  0  0  0  0  # atno 6909 bound_to 6896
  146.1993  139.7773  142.8773 H   0  0  0  0  0  0  0  0  0  0  0  0  # atno 7974 bound_to 7965
  154.8887  140.2983  155.5383 H   0  0  0  0  0  0  0  0  0  0  0  0  # atno 8008 bound_to 7997
  156.3021  140.2428  156.3833 H   0  0  0  0  0  0  0  0  0  0  0  0  # atno 8009 bound_to 7997
  154.8641  140.0404  157.1673 H   0  0  0  0  0  0  0  0  0  0  0  0  # atno 8010 bound_to 7997
  140.3015  143.3159  152.0243 H   0  0  0  0  0  0  0  0  0  0  0  0  # atno 10167 bound_to 10162
  156.3058  130.7454  151.1517 H   0  0  0  0  0  0  0  0  0  0  0  0  # atno 10718 bound_to 10713
  153.3821  135.3903  155.1864 H   0  0  0  0  0  0  0  0  0  0  0  0  # atno 10763 bound_to 10752
  154.8709  135.3728  154.4844 H   0  0  0  0  0  0  0  0  0  0  0  0  # atno 10764 bound_to 10752
  153.5322  135.7085  153.5739 H   0  0  0  0  0  0  0  0  0  0  0  0  # atno 10765 bound_to 10752
  140.7833  134.3054  157.5038 H   0  0  0  0  0  0  0  0  0  0  0  0  # atno 11005 bound_to 11000
  145.3537  141.0312  143.3324 LP  0  0  0  0  0  0  0  0  0  0  0  0  # atno 17320 bound_to 7965
  144.8649  139.5123  143.6795 LP  0  0  0  0  0  0  0  0  0  0  0  0  # atno 17321 bound_to 7965
  139.4914  144.6452  151.6793 LP  0  0  0  0  0  0  0  0  0  0  0  0  # atno 17342 bound_to 10162
  140.5647  144.0210  150.6186 LP  0  0  0  0  0  0  0  0  0  0  0  0  # atno 17343 bound_to 10162
  157.7379  131.0547  150.5327 LP  0  0  0  0  0  0  0  0  0  0  0  0  # atno 17370 bound_to 10713
  156.5460  130.4220  149.6130 LP  0  0  0  0  0  0  0  0  0  0  0  0  # atno 17371 bound_to 10713
  139.8740  134.9331  156.3572 LP  0  0  0  0  0  0  0  0  0  0  0  0  # atno 17394 bound_to 11000
  140.9461  133.7482  156.0210 LP  0  0  0  0  0  0  0  0  0  0  0  0  # atno 17395 bound_to 11000

$$$$
