AV-unprocessed.smi:3151|AV-procd|sdf|12016|dock8
  -GOLD-   2272017423D 1   1.00000     0.00000
 Structure written by MMmdl.
 35 36  0  0  0  0  0  0  0  0  1 V2000
  150.8032  141.7874  158.4816 O   0  0  0  0  0  0  0  0  0  0  0  0
  150.9529  142.6203  157.5871 C   0  0  0  0  0  0  0  0  0  0  0  0
  151.8679  143.8307  157.8011 C   0  0  0  0  0  0  0  0  0  0  0  0
  152.5474  143.8489  159.1865 C   0  0  0  0  0  0  0  0  0  0  0  0
  153.2077  142.5269  159.5962 C   0  0  0  0  0  0  0  0  0  0  0  0
  153.3255  142.5898  161.1239 C   0  0  0  0  0  0  0  0  0  0  0  0
  152.3123  143.6446  161.5938 C   0  0  0  0  0  0  0  0  0  0  0  0
  151.5760  144.1196  160.3373 C   0  0  0  0  0  0  0  0  0  0  0  0
  150.3499  142.5309  156.3918 N   0  0  0  0  0  0  0  0  0  0  0  0
  149.4402  141.4635  155.9929 C   0  0  0  0  0  0  0  0  0  0  0  0
  149.3364  141.3511  154.4630 C   0  0  0  0  0  0  0  0  0  0  0  0
  148.3599  140.3555  154.0709 N   0  0  0  0  0  0  0  0  0  0  0  0
  147.2123  140.5574  153.3155 C   0  0  0  0  0  0  0  0  0  0  0  0
  146.5963  139.3316  153.2023 C   0  0  0  0  0  0  0  0  0  0  0  0
  147.3422  138.3677  153.8772 N   0  0  0  0  0  0  0  0  0  0  0  0
  148.3712  139.0483  154.3655 C   0  0  0  0  0  0  0  0  0  0  0  0
  152.6299  143.8156  157.0212 H   0  0  0  0  0  0  0  0  0  0  0  0
  151.2985  144.7505  157.6574 H   0  0  0  0  0  0  0  0  0  0  0  0
  153.3082  144.6314  159.2055 H   0  0  0  0  0  0  0  0  0  0  0  0
  152.5655  141.6900  159.3173 H   0  0  0  0  0  0  0  0  0  0  0  0
  154.1739  142.3741  159.1140 H   0  0  0  0  0  0  0  0  0  0  0  0
  153.1338  141.6150  161.5734 H   0  0  0  0  0  0  0  0  0  0  0  0
  154.3331  142.8894  161.4143 H   0  0  0  0  0  0  0  0  0  0  0  0
  151.6212  143.2479  162.3380 H   0  0  0  0  0  0  0  0  0  0  0  0
  152.8411  144.4806  162.0531 H   0  0  0  0  0  0  0  0  0  0  0  0
  151.2820  145.1680  160.3988 H   0  0  0  0  0  0  0  0  0  0  0  0
  150.6680  143.5294  160.2050 H   0  0  0  0  0  0  0  0  0  0  0  0
  150.5286  143.2571  155.7133 H   0  0  0  0  0  0  0  0  0  0  0  0
  149.7650  140.5156  156.4263 H   0  0  0  0  0  0  0  0  0  0  0  0
  148.4591  141.6781  156.4174 H   0  0  0  0  0  0  0  0  0  0  0  0
  149.0504  142.3093  154.0273 H   0  0  0  0  0  0  0  0  0  0  0  0
  150.2990  141.0786  154.0278 H   0  0  0  0  0  0  0  0  0  0  0  0
  146.9364  141.5289  152.9324 H   0  0  0  0  0  0  0  0  0  0  0  0
  145.6806  139.0711  152.6921 H   0  0  0  0  0  0  0  0  0  0  0  0
  149.1507  138.5856  154.9531 H   0  0  0  0  0  0  0  0  0  0  0  0
  1  2  2  0  0  0  0
  2  3  1  0  0  0  0
  2  9  1  0  0  0  0
  3  4  1  0  0  0  0
  3 17  1  0  0  0  0
  3 18  1  0  0  0  0
  4  8  1  0  0  0  0
  4  5  1  0  0  0  0
  4 19  1  0  0  0  0
  5  6  1  0  0  0  0
  5 20  1  0  0  0  0
  5 21  1  0  0  0  0
  6  7  1  0  0  0  0
  6 22  1  0  0  0  0
  6 23  1  0  0  0  0
  7  8  1  0  0  0  0
  7 24  1  0  0  0  0
  7 25  1  0  0  0  0
  8 26  1  0  0  0  0
  8 27  1  0  0  0  0
  9 10  1  0  0  0  0
  9 28  1  0  0  0  0
 10 11  1  0  0  0  0
 10 29  1  0  0  0  0
 10 30  1  0  0  0  0
 11 12  1  0  0  0  0
 11 31  1  0  0  0  0
 11 32  1  0  0  0  0
 12 16  1  0  0  0  0
 12 13  1  0  0  0  0
 13 14  2  0  0  0  0
 13 33  1  0  0  0  0
 14 15  1  0  0  0  0
 14 34  1  0  0  0  0
 15 16  2  0  0  0  0
 16 35  1  0  0  0  0
M  END
> <s_m_source_file>
AV-unprocessed.smi

> <i_m_source_file_index>
3151

> <i_lp_mmshare_version>
43012

> <i_f3d_flags>
0

> <s_epik_input>
W0NIMl0xW0NIMl1bQ0gyXVtDSDJdW0NIXTFbQ0gyXUMoPU8pW05IXVtDSDJdW0NIMl1uMltjSF1bY0hdbltjSF0y

> <s_epik_cmdline>
J2VwaWtfcHl0aG9uJywgJy1waCcsICc3LjAnLCAnLXRuJywgJzgnLCAnLW1hJywgJzIwMCcsICctbWV0YWxfYmluZGluZycsICctaW1hZScsICc8aW5maWxlLm1hZT4nLCAnLW9tYWUnLCAnPG91dGZpbGUubWFlPic=

> <r_lp_tautomer_probability>
1

> <r_epik_Ionization_Penalty>
0.596413

> <r_epik_Ionization_Penalty_Charging>
0.596413

> <r_epik_Ionization_Penalty_Neutral>
2.16921e-08

> <r_epik_State_Penalty>
0.610423

> <r_epik_Charging_Adjusted_Penalty>
1.20684

> <i_epik_Tot_Q>
0

> <i_epik_Tot_abs_Q>
0

> <r_epik_Metal_State_Penalty>
0.300145

> <b_epik_Metal_Only>
0

> <s_lp_Force_Field>
OPLS_2005

> <r_lp_Energy>
20.9474

> <b_lp_Chiralities_Consistent>
1

> <s_lp_Variant>
AV-unprocessed.smi:3151-2

> <Gold.Version>
5.8.1

> <Gold.Id.Protein>
6NUR|6NUR_protein|mol2

> <Gold.PLP.Fitness>
42.0536

> <Gold.PLP.PLP>
-38.4552

> <Gold.PLP.part.hbond>
-1.0000

> <Gold.PLP.part.metal>
0.0000

> <Gold.PLP.part.buried>
-3.4853

> <Gold.PLP.part.nonpolar>
-35.0107

> <Gold.PLP.part.repulsive>
0.2736

> <Gold.PLP.ligand.clash>
0.0000

> <Gold.PLP.ligand.torsion>
0.2125

> <Gold.PLP.Chemscore.Hbond>
0.4480

> <Gold.PLP.Chemscore.CHOScore>
0.8786

> <Gold.PLP.Chemscore.Metal>
0.0000

> <Gold.Chemscore.Hbonds>
donor molecule, donor type, donor heavy atom, donor atom, acceptor molecule, acceptor atom, score
      L1  H     9    28       P1  8028  0.14
      L1  C    14    34       P1 10175  0.94

> <Gold.PLP.Chemscore.Internal.Correction>
0.0436

> <Gold.Rescore>
     Score         DG    S(hbond)    S(metal)    S(lipo)     H(rot)  DE(clash)    DE(int)     intcor
     12.89     -14.67       0.83        0.00      98.38       1.99       0.01       1.77       ----

> <Gold.Chemscore.Fitness>
12.8917

> <Gold.Chemscore.DG>
-14.6675

> <Gold.Chemscore.ZeroCoef>
-5.4800

> <Gold.Chemscore.Hbond>
0.8315

> <Gold.Chemscore.Metal>
0.0000

> <Gold.Chemscore.Lipo>
98.3756

> <Gold.Chemscore.Internal_Hbond>
0.0000

> <Gold.Chemscore.DEClash>
0.0060

> <Gold.Chemscore.DEInternal>
1.7698

> <Gold.Chemscore.Rot>
1.9920

> <Gold.Chemscore.Internal.Correction>
   9.000000E+99

> <Gold.Chemscore.Hbonds>
donor molecule, donor type, donor heavy atom, donor atom, acceptor molecule, acceptor atom, score
      L1  H     9    28       P1  8028  0.15

> <Gold.Chemscore.Hbond.Weighted>
-2.7771

> <Gold.Chemscore.Metal.Weighted>
-0.0000

> <Gold.Chemscore.Lipo.Weighted>
-11.5099

> <Gold.Chemscore.Internal_Hbond.Weighted>
0.0000

> <Gold.Chemscore.DEClash.Weighted>
0.0060

> <Gold.Chemscore.DEInternal.Weighted>
1.7698

> <Gold.Chemscore.Rot.Weighted>
5.0996

> <Gold.Chemscore.Internal.Correction.Weighted>
   9.000000E+99

> <Gold.Protein.RotatedTorsions>
[ 6907 6896 6895 6894 ] final  103.66 input  -60.11 | X-H torsion
[ 7974 7965 7964 7962 ] final   18.49 input  175.53 | X-H torsion
[ 8008 7997 7996 7995 ] final  -23.12 input   59.86 | X-H torsion
[ 10167 10162 10161 10158 ] final   21.20 input  -65.29 | X-H torsion
[ 10718 10713 10712 10709 ] final -108.41 input   66.30 | X-H torsion
[ 10763 10752 10751 10750 ] final -103.20 input  -60.55 | X-H torsion
[ 11005 11000 10999 10996 ] final   52.35 input  -57.11 | X-H torsion

> <Gold.Protein.ActiveResidues>
 VAL166  LYS551  ARG553  GLY616  TRP617  ASP618  TYR619  PRO620  LYS621  CYS622 
 ASP623  PHE694  ASN695  SER759  ASP760  ASP761  ALA762  ILE779  LEU786  VAL792 
 PHE793  MET794  SER795  GLU796  ALA797  LYS798  CYS799  TRP800  GLU811  SER814 

> <Gold.Protein.RotatedAtoms>
  152.5289  133.9793  159.7798 H   0  0  0  0  0  0  0  0  0  0  0  0  # atno 6907 bound_to 6896
  151.0050  133.6012  159.2697 H   0  0  0  0  0  0  0  0  0  0  0  0  # atno 6908 bound_to 6896
  151.3107  135.0800  159.9324 H   0  0  0  0  0  0  0  0  0  0  0  0  # atno 6909 bound_to 6896
  146.2183  139.8449  142.8633 H   0  0  0  0  0  0  0  0  0  0  0  0  # atno 7974 bound_to 7965
  154.4604  140.1989  156.0261 H   0  0  0  0  0  0  0  0  0  0  0  0  # atno 8008 bound_to 7997
  156.0828  140.3269  155.7687 H   0  0  0  0  0  0  0  0  0  0  0  0  # atno 8009 bound_to 7997
  155.5083  140.0559  157.2918 H   0  0  0  0  0  0  0  0  0  0  0  0  # atno 8010 bound_to 7997
  140.5445  143.9619  150.6539 H   0  0  0  0  0  0  0  0  0  0  0  0  # atno 10167 bound_to 10162
  156.0484  130.5712  150.7958 H   0  0  0  0  0  0  0  0  0  0  0  0  # atno 10718 bound_to 10713
  154.7790  135.4832  153.9804 H   0  0  0  0  0  0  0  0  0  0  0  0  # atno 10763 bound_to 10752
  153.1467  135.6783  153.8951 H   0  0  0  0  0  0  0  0  0  0  0  0  # atno 10764 bound_to 10752
  153.8608  135.3155  155.3416 H   0  0  0  0  0  0  0  0  0  0  0  0  # atno 10765 bound_to 10752
  140.0857  134.5278  155.8902 H   0  0  0  0  0  0  0  0  0  0  0  0  # atno 11005 bound_to 11000
  145.2860  141.0153  143.3690 LP  0  0  0  0  0  0  0  0  0  0  0  0  # atno 17320 bound_to 7965
  144.9113  139.4525  143.6585 LP  0  0  0  0  0  0  0  0  0  0  0  0  # atno 17321 bound_to 7965
  140.3028  143.3249  152.0955 LP  0  0  0  0  0  0  0  0  0  0  0  0  # atno 17342 bound_to 10162
  139.5002  144.6686  151.6297 LP  0  0  0  0  0  0  0  0  0  0  0  0  # atno 17343 bound_to 10162
  157.5385  131.0940  150.9859 LP  0  0  0  0  0  0  0  0  0  0  0  0  # atno 17370 bound_to 10713
  157.0148  130.5651  149.5324 LP  0  0  0  0  0  0  0  0  0  0  0  0  # atno 17371 bound_to 10713
  141.2061  133.6653  156.6225 LP  0  0  0  0  0  0  0  0  0  0  0  0  # atno 17394 bound_to 11000
  140.3424  134.7838  157.4407 LP  0  0  0  0  0  0  0  0  0  0  0  0  # atno 17395 bound_to 11000

$$$$
