AV-unprocessed.smi:653|AV-procd|sdf|3209|dock5
  -GOLD-   22720 0143D 1   1.00000     0.00000
 Structure written by MMmdl.
 45 46  0  0  0  0  0  0  0  0  2 V2000
  146.7351  138.9959  152.3699 C   0  0  0  0  0  0  0  0  0  0  0  0
  147.8276  139.2389  153.3897 C   0  0  0  0  0  0  0  0  0  0  0  0
  147.7156  140.2297  154.3886 C   0  0  0  0  0  0  0  0  0  0  0  0
  148.7692  140.4008  155.3103 C   0  0  0  0  0  0  0  0  0  0  0  0
  149.9131  139.5775  155.2165 C   0  0  0  0  0  0  0  0  0  0  0  0
  151.0646  139.7383  156.1927 C   0  0  0  0  0  0  0  0  0  0  0  0
  150.6716  140.6851  157.3275 C   0  0  0  0  0  0  0  0  0  0  0  0
  149.7686  140.3705  158.1027 O   0  0  0  0  0  0  0  0  0  0  0  0
  151.3570  141.8359  157.4128 N   0  0  0  0  0  0  0  0  0  0  0  0
  151.1573  142.8719  158.4219 C   0  0  0  0  0  0  0  0  0  0  0  0
  152.4552  143.6692  158.7028 C   0  0  1  0  0  0  0  0  0  0  0  0
  152.2448  145.1770  158.6918 C   0  0  0  0  0  0  0  0  0  0  0  0
  151.7627  145.4721  160.1131 C   0  0  0  0  0  0  0  0  0  0  0  0
  152.1661  144.3564  160.9030 O   0  0  0  0  0  0  0  0  0  0  0  0
  153.0050  143.5048  160.1312 C   0  0  1  0  0  0  0  0  0  0  0  0
  153.0584  142.0758  160.7188 C   0  0  0  0  0  0  0  0  0  0  0  0
  153.5859  142.0936  162.1626 C   0  0  0  0  0  0  0  0  0  0  0  0
  153.9228  141.1373  159.8593 C   0  0  0  0  0  0  0  0  0  0  0  0
  149.9684  138.6020  154.1973 C   0  0  0  0  0  0  0  0  0  0  0  0
  148.9384  138.4700  153.3332 N   0  3  0  0  0  0  0  0  0  0  0  0
  146.1354  139.8946  152.2225 H   0  0  0  0  0  0  0  0  0  0  0  0
  146.0760  138.1959  152.7079 H   0  0  0  0  0  0  0  0  0  0  0  0
  147.1584  138.7102  151.4063 H   0  0  0  0  0  0  0  0  0  0  0  0
  146.8342  140.8514  154.4495 H   0  0  0  0  0  0  0  0  0  0  0  0
  148.6991  141.1570  156.0789 H   0  0  0  0  0  0  0  0  0  0  0  0
  151.3566  138.7633  156.5862 H   0  0  0  0  0  0  0  0  0  0  0  0
  151.9356  140.1417  155.6746 H   0  0  0  0  0  0  0  0  0  0  0  0
  152.0778  142.0082  156.7269 H   0  0  0  0  0  0  0  0  0  0  0  0
  150.3417  143.5432  158.1476 H   0  0  0  0  0  0  0  0  0  0  0  0
  150.8297  142.3579  159.3245 H   0  0  0  0  0  0  0  0  0  0  0  0
  153.2103  143.3847  157.9689 H   0  0  0  0  0  0  0  0  0  0  0  0
  153.2009  145.6743  158.5226 H   0  0  0  0  0  0  0  0  0  0  0  0
  151.5574  145.5356  157.9269 H   0  0  0  0  0  0  0  0  0  0  0  0
  152.1876  146.3993  160.4985 H   0  0  0  0  0  0  0  0  0  0  0  0
  150.6760  145.5551  160.1506 H   0  0  0  0  0  0  0  0  0  0  0  0
  154.0106  143.9295  160.1632 H   0  0  0  0  0  0  0  0  0  0  0  0
  152.0469  141.6709  160.7546 H   0  0  0  0  0  0  0  0  0  0  0  0
  154.5963  142.5008  162.2111 H   0  0  0  0  0  0  0  0  0  0  0  0
  153.6123  141.0883  162.5841 H   0  0  0  0  0  0  0  0  0  0  0  0
  152.9517  142.6999  162.8098 H   0  0  0  0  0  0  0  0  0  0  0  0
  154.9518  141.4929  159.7995 H   0  0  0  0  0  0  0  0  0  0  0  0
  153.5428  141.0542  158.8415 H   0  0  0  0  0  0  0  0  0  0  0  0
  153.9441  140.1310  160.2789 H   0  0  0  0  0  0  0  0  0  0  0  0
  150.8012  137.9307  154.0462 H   0  0  0  0  0  0  0  0  0  0  0  0
  149.0024  137.7585  152.6048 H   0  0  0  0  0  0  0  0  0  0  0  0
  1  2  1  0  0  0  0
  1 21  1  0  0  0  0
  1 22  1  0  0  0  0
  1 23  1  0  0  0  0
  2 20  1  0  0  0  0
  2  3  2  0  0  0  0
  3  4  1  0  0  0  0
  3 24  1  0  0  0  0
  4  5  2  0  0  0  0
  4 25  1  0  0  0  0
  5  6  1  0  0  0  0
  5 19  1  0  0  0  0
  6  7  1  0  0  0  0
  6 26  1  0  0  0  0
  6 27  1  0  0  0  0
  7  8  2  0  0  0  0
  7  9  1  0  0  0  0
  9 10  1  0  0  0  0
  9 28  1  0  0  0  0
 10 11  1  0  0  0  0
 10 29  1  0  0  0  0
 10 30  1  0  0  0  0
 11 15  1  0  0  0  0
 11 12  1  0  0  0  0
 11 31  1  0  0  0  0
 12 13  1  0  0  0  0
 12 32  1  0  0  0  0
 12 33  1  0  0  0  0
 13 14  1  0  0  0  0
 13 34  1  0  0  0  0
 13 35  1  0  0  0  0
 14 15  1  0  0  0  0
 15 16  1  0  0  0  0
 15 36  1  0  0  0  0
 16 17  1  0  0  0  0
 16 18  1  0  0  0  0
 16 37  1  0  0  0  0
 17 38  1  0  0  0  0
 17 39  1  0  0  0  0
 17 40  1  0  0  0  0
 18 41  1  0  0  0  0
 18 42  1  0  0  0  0
 18 43  1  0  0  0  0
 19 20  2  0  0  0  0
 19 44  1  0  0  0  0
 20 45  1  0  0  0  0
M  CHG  1  20   1
M  END
> <s_m_source_file>
AV-unprocessed.smi

> <i_m_source_file_index>
653

> <i_lp_mmshare_version>
43012

> <i_f3d_flags>
0

> <s_epik_input>
W0NIM11jMVtjSF1bY0hdYyhbY0hdbjEpW0NIMl1DKD1PKVtOSF1bQ0gyXVtDQEBIXTJbQ0gyXVtDSDJdT1tDQEhdMltDSF0oW0NIM10pW0NIM10=

> <s_epik_cmdline>
J2VwaWtfcHl0aG9uJywgJy1waCcsICc3LjAnLCAnLXRuJywgJzgnLCAnLW1hJywgJzIwMCcsICctbWV0YWxfYmluZGluZycsICctaW1hZScsICc8aW5maWxlLm1hZT4nLCAnLW9tYWUnLCAnPG91dGZpbGUubWFlPic=

> <r_epik_Ionization_Penalty>
2.12486

> <r_epik_Ionization_Penalty_Charging>
2.12486

> <r_epik_Ionization_Penalty_Neutral>
9.0873e-08

> <r_epik_State_Penalty>
2.26279

> <r_epik_Charging_Adjusted_Penalty>
4.38765

> <i_epik_Tot_Q>
1

> <i_epik_Tot_abs_Q>
1

> <r_epik_Metal_State_Penalty>
2.27914

> <b_epik_Metal_Only>
0

> <s_lp_Force_Field>
OPLS_2005

> <r_lp_Energy>
28.2902

> <b_lp_Chiralities_Consistent>
1

> <s_lp_Variant>
AV-unprocessed.smi:653-6

> <Gold.Version>
5.8.1

> <Gold.Id.Protein>
6NUR|6NUR_protein|mol2

> <Gold.PLP.Fitness>
52.5404

> <Gold.PLP.PLP>
-48.5094

> <Gold.PLP.part.hbond>
-2.0000

> <Gold.PLP.part.metal>
0.0000

> <Gold.PLP.part.buried>
-3.1004

> <Gold.PLP.part.nonpolar>
-44.0604

> <Gold.PLP.part.repulsive>
0.2796

> <Gold.PLP.ligand.clash>
0.0000

> <Gold.PLP.ligand.torsion>
1.0033

> <Gold.PLP.Chemscore.Hbond>
2.0000

> <Gold.PLP.Chemscore.CHOScore>
0.0000

> <Gold.PLP.Chemscore.Metal>
0.0000

> <Gold.Chemscore.Hbonds>
donor molecule, donor type, donor heavy atom, donor atom, acceptor molecule, acceptor atom, score
      L1  H    20    45       P1  7948  2.00

> <Gold.PLP.Chemscore.Internal.Correction>
0.0375

> <Gold.Rescore>
     Score         DG    S(hbond)    S(metal)    S(lipo)     H(rot)  DE(clash)    DE(int)     intcor
     18.30     -19.37       0.99        0.00     124.89       1.57       0.01       1.07       ----

> <Gold.Chemscore.Fitness>
18.2987

> <Gold.Chemscore.DG>
-19.3737

> <Gold.Chemscore.ZeroCoef>
-5.4800

> <Gold.Chemscore.Hbond>
0.9883

> <Gold.Chemscore.Metal>
0.0000

> <Gold.Chemscore.Lipo>
124.8928

> <Gold.Chemscore.Internal_Hbond>
0.0000

> <Gold.Chemscore.DEClash>
0.0060

> <Gold.Chemscore.DEInternal>
1.0691

> <Gold.Chemscore.Rot>
1.5701

> <Gold.Chemscore.Internal.Correction>
   9.000000E+99

> <Gold.Chemscore.Hbonds>
donor molecule, donor type, donor heavy atom, donor atom, acceptor molecule, acceptor atom, score
      L1  H    20    45       P1  7948  0.99

> <Gold.Chemscore.Hbond.Weighted>
-3.3009

> <Gold.Chemscore.Metal.Weighted>
-0.0000

> <Gold.Chemscore.Lipo.Weighted>
-14.6125

> <Gold.Chemscore.Internal_Hbond.Weighted>
0.0000

> <Gold.Chemscore.DEClash.Weighted>
0.0060

> <Gold.Chemscore.DEInternal.Weighted>
1.0691

> <Gold.Chemscore.Rot.Weighted>
4.0196

> <Gold.Chemscore.Internal.Correction.Weighted>
   9.000000E+99

> <Gold.Protein.RotatedTorsions>
[ 6907 6896 6895 6894 ] final   71.55 input  -60.11 | X-H torsion
[ 7974 7965 7964 7962 ] final  -59.07 input  175.53 | X-H torsion
[ 8008 7997 7996 7995 ] final   62.99 input   59.86 | X-H torsion
[ 10167 10162 10161 10158 ] final  139.61 input  -65.29 | X-H torsion
[ 10718 10713 10712 10709 ] final -160.53 input   66.30 | X-H torsion
[ 10763 10752 10751 10750 ] final  -91.31 input  -60.55 | X-H torsion
[ 11005 11000 10999 10996 ] final -145.77 input  -57.11 | X-H torsion

> <Gold.Protein.ActiveResidues>
 VAL166  LYS551  ARG553  GLY616  TRP617  ASP618  TYR619  PRO620  LYS621  CYS622 
 ASP623  PHE694  ASN695  SER759  ASP760  ASP761  ALA762  ILE779  LEU786  VAL792 
 PHE793  MET794  SER795  GLU796  ALA797  LYS798  CYS799  TRP800  GLU811  SER814 

> <Gold.Protein.RotatedAtoms>
  152.4816  134.4704  159.9633 H   0  0  0  0  0  0  0  0  0  0  0  0  # atno 6907 bound_to 6896
  151.4709  133.3563  159.2831 H   0  0  0  0  0  0  0  0  0  0  0  0  # atno 6908 bound_to 6896
  150.8893  134.8321  159.7343 H   0  0  0  0  0  0  0  0  0  0  0  0  # atno 6909 bound_to 6896
  145.8318  140.8475  143.0080 H   0  0  0  0  0  0  0  0  0  0  0  0  # atno 7974 bound_to 7965
  155.6231  140.3496  155.4658 H   0  0  0  0  0  0  0  0  0  0  0  0  # atno 8008 bound_to 7997
  156.0063  140.1224  157.0522 H   0  0  0  0  0  0  0  0  0  0  0  0  # atno 8009 bound_to 7997
  154.4265  140.1090  156.5753 H   0  0  0  0  0  0  0  0  0  0  0  0  # atno 8010 bound_to 7997
  139.5073  144.6284  151.5879 H   0  0  0  0  0  0  0  0  0  0  0  0  # atno 10167 bound_to 10162
  156.5835  130.8739  151.2871 H   0  0  0  0  0  0  0  0  0  0  0  0  # atno 10718 bound_to 10713
  154.6748  135.5272  153.8185 H   0  0  0  0  0  0  0  0  0  0  0  0  # atno 10763 bound_to 10752
  153.0525  135.6538  154.0669 H   0  0  0  0  0  0  0  0  0  0  0  0  # atno 10764 bound_to 10752
  154.0563  135.2965  155.3312 H   0  0  0  0  0  0  0  0  0  0  0  0  # atno 10765 bound_to 10752
  140.7888  134.2993  157.5020 H   0  0  0  0  0  0  0  0  0  0  0  0  # atno 11005 bound_to 11000
  144.6739  140.0683  143.7474 LP  0  0  0  0  0  0  0  0  0  0  0  0  # atno 17320 bound_to 7965
  145.9563  139.2769  143.1182 LP  0  0  0  0  0  0  0  0  0  0  0  0  # atno 17321 bound_to 7965
  140.6009  143.9612  150.6385 LP  0  0  0  0  0  0  0  0  0  0  0  0  # atno 17342 bound_to 10162
  140.2823  143.3381  152.1140 LP  0  0  0  0  0  0  0  0  0  0  0  0  # atno 17343 bound_to 10162
  157.7321  130.9710  150.1911 LP  0  0  0  0  0  0  0  0  0  0  0  0  # atno 17370 bound_to 10713
  156.2611  130.3711  149.8129 LP  0  0  0  0  0  0  0  0  0  0  0  0  # atno 17371 bound_to 10713
  139.8733  134.9362  156.3654 LP  0  0  0  0  0  0  0  0  0  0  0  0  # atno 17394 bound_to 11000
  140.9410  133.7514  156.0146 LP  0  0  0  0  0  0  0  0  0  0  0  0  # atno 17395 bound_to 11000

$$$$
