AV-unprocessed.smi:1512|AV-procd|sdf|6102|dock9
  -GOLD-   22720 6233D 1   1.00000     0.00000
 Structure written by MMmdl.
 44 46  0  0  0  0  0  0  0  0  3 V2000
  147.1783  142.5137  157.3382 C   0  0  0  0  0  0  0  0  0  0  0  0
  148.5285  141.7908  157.1898 C   0  0  2  0  0  0  0  0  0  0  0  0
  149.6033  142.6437  157.6932 N   0  0  0  0  0  0  0  0  0  0  0  0
  149.5882  143.3190  158.8525 C   0  0  0  0  0  0  0  0  0  0  0  0
  148.6321  143.3052  159.6292 O   0  0  0  0  0  0  0  0  0  0  0  0
  150.8488  144.1405  159.1609 C   0  0  0  0  0  0  0  0  0  0  0  0
  151.8048  143.4471  160.0418 N   0  0  0  0  0  0  0  0  0  0  0  0
  151.9939  143.9916  161.3257 C   0  0  0  0  0  0  0  0  0  0  0  0
  152.8327  143.4390  162.2133 C   0  0  0  0  0  0  0  0  0  0  0  0
  153.5565  142.2543  161.8224 C   0  0  0  0  0  0  0  0  0  0  0  0
  153.3897  141.7109  160.5945 C   0  0  0  0  0  0  0  0  0  0  0  0
  154.1488  140.5254  160.2674 N   0  3  0  0  0  0  0  0  0  0  0  0
  154.1546  140.1262  159.1069 O   0  0  0  0  0  0  0  0  0  0  0  0
  154.7745  139.9647  161.1625 O   0  5  0  0  0  0  0  0  0  0  0  0
  152.4560  142.3175  159.6226 C   0  0  0  0  0  0  0  0  0  0  0  0
  152.2551  141.8445  158.5023 O   0  0  0  0  0  0  0  0  0  0  0  0
  148.8316  141.4041  155.7228 C   0  0  1  0  0  0  0  0  0  0  0  0
  150.2517  140.8420  155.4811 C   0  0  0  0  0  0  0  0  0  0  0  0
  149.9848  139.5612  154.6684 C   0  0  1  0  0  0  0  0  0  0  0  0
  149.4127  138.4813  155.6047 C   0  0  0  0  0  0  0  0  0  0  0  0
  147.9844  138.9892  155.8723 C   0  0  0  0  0  0  0  0  0  0  0  0
  147.9373  140.3133  155.0819 C   0  0  2  0  0  0  0  0  0  0  0  0
  148.7589  139.9482  153.8492 C   0  0  0  0  0  0  0  0  0  0  0  0
  146.3520  141.8804  157.0156 H   0  0  0  0  0  0  0  0  0  0  0  0
  147.1501  143.4276  156.7441 H   0  0  0  0  0  0  0  0  0  0  0  0
  146.9868  142.7860  158.3767 H   0  0  0  0  0  0  0  0  0  0  0  0
  148.5069  140.8849  157.7963 H   0  0  0  0  0  0  0  0  0  0  0  0
  150.4294  142.7159  157.1169 H   0  0  0  0  0  0  0  0  0  0  0  0
  151.3324  144.4163  158.2218 H   0  0  0  0  0  0  0  0  0  0  0  0
  150.5376  145.0861  159.6072 H   0  0  0  0  0  0  0  0  0  0  0  0
  151.4103  144.8747  161.5429 H   0  0  0  0  0  0  0  0  0  0  0  0
  152.9613  143.8678  163.1963 H   0  0  0  0  0  0  0  0  0  0  0  0
  154.2440  141.8095  162.5273 H   0  0  0  0  0  0  0  0  0  0  0  0
  148.7224  142.3060  155.1171 H   0  0  0  0  0  0  0  0  0  0  0  0
  150.8506  141.5516  154.9091 H   0  0  0  0  0  0  0  0  0  0  0  0
  150.7900  140.6267  156.4053 H   0  0  0  0  0  0  0  0  0  0  0  0
  150.8435  139.2249  154.0867 H   0  0  0  0  0  0  0  0  0  0  0  0
  149.3872  137.5098  155.1097 H   0  0  0  0  0  0  0  0  0  0  0  0
  149.9956  138.3752  156.5204 H   0  0  0  0  0  0  0  0  0  0  0  0
  147.2544  138.2841  155.4722 H   0  0  0  0  0  0  0  0  0  0  0  0
  147.7674  139.1067  156.9330 H   0  0  0  0  0  0  0  0  0  0  0  0
  146.9251  140.6527  154.8604 H   0  0  0  0  0  0  0  0  0  0  0  0
  148.9349  140.7900  153.1771 H   0  0  0  0  0  0  0  0  0  0  0  0
  148.3404  139.1172  153.2782 H   0  0  0  0  0  0  0  0  0  0  0  0
  1  2  1  0  0  0  0
  1 24  1  0  0  0  0
  1 25  1  0  0  0  0
  1 26  1  0  0  0  0
  2  3  1  0  0  0  0
  2 17  1  0  0  0  0
  2 27  1  0  0  0  0
  3  4  1  0  0  0  0
  3 28  1  0  0  0  0
  4  5  2  0  0  0  0
  4  6  1  0  0  0  0
  6  7  1  0  0  0  0
  6 29  1  0  0  0  0
  6 30  1  0  0  0  0
  7 15  1  0  0  0  0
  7  8  1  0  0  0  0
  8  9  2  0  0  0  0
  8 31  1  0  0  0  0
  9 10  1  0  0  0  0
  9 32  1  0  0  0  0
 10 11  2  0  0  0  0
 10 33  1  0  0  0  0
 11 12  1  0  0  0  0
 11 15  1  0  0  0  0
 12 13  2  0  0  0  0
 12 14  1  0  0  0  0
 15 16  2  0  0  0  0
 17 22  1  0  0  0  0
 17 18  1  0  0  0  0
 17 34  1  0  0  0  0
 18 19  1  0  0  0  0
 18 35  1  0  0  0  0
 18 36  1  0  0  0  0
 19 23  1  0  0  0  0
 19 20  1  0  0  0  0
 19 37  1  0  0  0  0
 20 21  1  0  0  0  0
 20 38  1  0  0  0  0
 20 39  1  0  0  0  0
 21 22  1  0  0  0  0
 21 40  1  0  0  0  0
 21 41  1  0  0  0  0
 22 23  1  0  0  0  0
 22 42  1  0  0  0  0
 23 43  1  0  0  0  0
 23 44  1  0  0  0  0
M  CHG  1  12   1
M  CHG  1  14  -1
M  END
> <s_m_source_file>
AV-unprocessed.smi

> <i_m_source_file_index>
1512

> <i_lp_mmshare_version>
43012

> <i_f3d_flags>
0

> <s_epik_input>
W0NIMl0xW0NIMl1bQ0BIXShbQ0gyXTIpW0NAQEhdKFtDSDJdW0NAQEhdMTIpW0NASF0oW0NIM10pW05IXUMoPU8pW0NIMl1uM1tjSF1bY0hdW2NIXWMoW04rXSg9TylbTy1dKWMzPU8=

> <s_epik_cmdline>
J2VwaWtfcHl0aG9uJywgJy1waCcsICc3LjAnLCAnLXRuJywgJzgnLCAnLW1hJywgJzIwMCcsICctbWV0YWxfYmluZGluZycsICctaW1hZScsICc8aW5maWxlLm1hZT4nLCAnLW9tYWUnLCAnPG91dGZpbGUubWFlPic=

> <r_lp_tautomer_probability>
1

> <r_epik_Ionization_Penalty>
2.17697e-08

> <r_epik_Ionization_Penalty_Charging>
1.42735e-10

> <r_epik_Ionization_Penalty_Neutral>
2.16269e-08

> <r_epik_State_Penalty>
-0

> <r_epik_Charging_Adjusted_Penalty>
1.42735e-10

> <i_epik_Tot_Q>
0

> <i_epik_Tot_abs_Q>
2

> <r_epik_Metal_State_Penalty>
-0

> <b_epik_Metal_Only>
0

> <s_lp_Force_Field>
OPLS_2005

> <r_lp_Energy>
64.3295

> <b_lp_Chiralities_Consistent>
1

> <s_lp_Variant>
AV-unprocessed.smi:1512-3

> <Gold.Version>
5.8.1

> <Gold.Id.Protein>
6NUR|6NUR_protein|mol2

> <Gold.PLP.Fitness>
45.4021

> <Gold.PLP.PLP>
-42.0527

> <Gold.PLP.part.hbond>
-3.0000

> <Gold.PLP.part.metal>
0.0000

> <Gold.PLP.part.buried>
-2.4424

> <Gold.PLP.part.nonpolar>
-36.8076

> <Gold.PLP.part.repulsive>
0.1703

> <Gold.PLP.ligand.clash>
0.0000

> <Gold.PLP.ligand.torsion>
0.6201

> <Gold.PLP.Chemscore.Hbond>
1.5216

> <Gold.PLP.Chemscore.CHOScore>
0.0000

> <Gold.PLP.Chemscore.Metal>
0.0000

> <Gold.Chemscore.Hbonds>
donor molecule, donor type, donor heavy atom, donor atom, acceptor molecule, acceptor atom, score
      P1  H  6933  6944       L1     5  0.56
      P1  H  7997  8010       L1    13  0.96

> <Gold.PLP.Chemscore.Internal.Correction>
0.0247

> <Gold.Rescore>
     Score         DG    S(hbond)    S(metal)    S(lipo)     H(rot)  DE(clash)    DE(int)     intcor
     11.44     -16.21       1.38        0.00      90.40       1.75       0.05       4.71       ----

> <Gold.Chemscore.Fitness>
11.4419

> <Gold.Chemscore.DG>
-16.2059

> <Gold.Chemscore.ZeroCoef>
-5.4800

> <Gold.Chemscore.Hbond>
1.3838

> <Gold.Chemscore.Metal>
0.0000

> <Gold.Chemscore.Lipo>
90.4050

> <Gold.Chemscore.Internal_Hbond>
0.0000

> <Gold.Chemscore.DEClash>
0.0544

> <Gold.Chemscore.DEInternal>
4.7096

> <Gold.Chemscore.Rot>
1.7474

> <Gold.Chemscore.Internal.Correction>
   9.000000E+99

> <Gold.Chemscore.Hbonds>
donor molecule, donor type, donor heavy atom, donor atom, acceptor molecule, acceptor atom, score
      P1  H  6933  6944       L1     5  0.52
      P1  H  7997  8010       L1    13  0.89

> <Gold.Chemscore.Hbond.Weighted>
-4.6218

> <Gold.Chemscore.Metal.Weighted>
-0.0000

> <Gold.Chemscore.Lipo.Weighted>
-10.5774

> <Gold.Chemscore.Internal_Hbond.Weighted>
0.0000

> <Gold.Chemscore.DEClash.Weighted>
0.0544

> <Gold.Chemscore.DEInternal.Weighted>
4.7096

> <Gold.Chemscore.Rot.Weighted>
4.4733

> <Gold.Chemscore.Internal.Correction.Weighted>
   9.000000E+99

> <Gold.Protein.RotatedTorsions>
[ 6907 6896 6895 6894 ] final  -14.54 input  -60.11 | X-H torsion
[ 7974 7965 7964 7962 ] final -122.32 input  175.53 | X-H torsion
[ 8008 7997 7996 7995 ] final   14.15 input   59.86 | X-H torsion
[ 10167 10162 10161 10158 ] final  108.46 input  -65.29 | X-H torsion
[ 10718 10713 10712 10709 ] final   81.44 input   66.30 | X-H torsion
[ 10763 10752 10751 10750 ] final -117.10 input  -60.55 | X-H torsion
[ 11005 11000 10999 10996 ] final   11.96 input  -57.11 | X-H torsion

> <Gold.Protein.ActiveResidues>
 VAL166  LYS551  ARG553  GLY616  TRP617  ASP618  TYR619  PRO620  LYS621  CYS622 
 ASP623  PHE694  ASN695  SER759  ASP760  ASP761  ALA762  ILE779  LEU786  VAL792 
 PHE793  MET794  SER795  GLU796  ALA797  LYS798  CYS799  TRP800  GLU811  SER814 

> <Gold.Protein.RotatedAtoms>
  151.3378  135.0857  159.9360 H   0  0  0  0  0  0  0  0  0  0  0  0  # atno 6907 bound_to 6896
  152.5219  133.9477  159.7667 H   0  0  0  0  0  0  0  0  0  0  0  0  # atno 6908 bound_to 6896
  150.9828  133.6174  159.2749 H   0  0  0  0  0  0  0  0  0  0  0  0  # atno 6909 bound_to 6896
  145.0307  140.8065  143.4325 H   0  0  0  0  0  0  0  0  0  0  0  0  # atno 7974 bound_to 7965
  154.8444  140.2920  155.5638 H   0  0  0  0  0  0  0  0  0  0  0  0  # atno 8008 bound_to 7997
  156.3013  140.2508  156.3324 H   0  0  0  0  0  0  0  0  0  0  0  0  # atno 8009 bound_to 7997
  154.9089  140.0389  157.1924 H   0  0  0  0  0  0  0  0  0  0  0  0  # atno 8010 bound_to 7997
  139.6845  144.7115  151.1457 H   0  0  0  0  0  0  0  0  0  0  0  0  # atno 10167 bound_to 10162
  157.6833  131.0004  150.2227 H   0  0  0  0  0  0  0  0  0  0  0  0  # atno 10718 bound_to 10713
  154.8543  135.4322  154.1926 H   0  0  0  0  0  0  0  0  0  0  0  0  # atno 10763 bound_to 10752
  153.2991  135.6967  153.7226 H   0  0  0  0  0  0  0  0  0  0  0  0  # atno 10764 bound_to 10752
  153.6363  135.3476  155.3032 H   0  0  0  0  0  0  0  0  0  0  0  0  # atno 10765 bound_to 10752
  140.4974  134.0780  155.7785 H   0  0  0  0  0  0  0  0  0  0  0  0  # atno 11005 bound_to 11000
  145.1774  139.2370  143.5310 LP  0  0  0  0  0  0  0  0  0  0  0  0  # atno 17320 bound_to 7965
  146.3498  140.1540  142.8592 LP  0  0  0  0  0  0  0  0  0  0  0  0  # atno 17321 bound_to 7965
  140.7663  143.5650  150.9057 LP  0  0  0  0  0  0  0  0  0  0  0  0  # atno 17342 bound_to 10162
  139.9324  143.6477  152.3073 LP  0  0  0  0  0  0  0  0  0  0  0  0  # atno 17343 bound_to 10162
  156.2876  130.3741  149.7873 LP  0  0  0  0  0  0  0  0  0  0  0  0  # atno 17370 bound_to 10713
  156.5543  130.8355  151.3309 LP  0  0  0  0  0  0  0  0  0  0  0  0  # atno 17371 bound_to 10713
  141.1453  133.9066  157.2230 LP  0  0  0  0  0  0  0  0  0  0  0  0  # atno 17394 bound_to 11000
  139.9733  135.0121  156.9568 LP  0  0  0  0  0  0  0  0  0  0  0  0  # atno 17395 bound_to 11000

$$$$
