AV-unprocessed.smi:265|AV-procd|sdf|2017|dock3
  -GOLD-   2262021213D 1   1.00000     0.00000
 Structure written by MMmdl.
 52 56  0  0  0  0  0  0  0  0  1 V2000
  148.3353  132.9815  152.5954 C   0  0  0  0  0  0  0  0  0  0  0  0
  148.6843  132.8306  154.0843 C   0  0  2  0  0  0  0  0  0  0  0  0
  147.6809  132.0893  154.7773 O   0  0  0  0  0  0  0  0  0  0  0  0
  147.3261  132.7456  155.9886 C   0  0  0  0  0  0  0  0  0  0  0  0
  148.4783  133.7019  156.2763 C   0  0  0  0  0  0  0  0  0  0  0  0
  148.9005  134.1389  154.8799 C   0  0  2  0  0  0  0  0  0  0  0  0
  148.0033  135.1418  154.4328 O   0  0  0  0  0  0  0  0  0  0  0  0
  150.3196  134.7563  154.7754 C   0  0  0  0  0  0  0  0  0  0  0  0
  150.5699  135.8777  155.6675 N   0  0  0  0  0  0  0  0  0  0  0  0
  150.7205  135.8267  157.0360 C   0  0  0  0  0  0  0  0  0  0  0  0
  150.9394  136.9746  157.6174 N   0  0  0  0  0  0  0  0  0  0  0  0
  150.9611  137.8822  156.5669 C   0  0  0  0  0  0  0  0  0  0  0  0
  151.1493  139.2853  156.4804 C   0  0  0  0  0  0  0  0  0  0  0  0
  151.3570  140.0465  157.5751 N   0  0  0  0  0  0  0  0  0  0  0  0
  152.5760  139.6987  158.3060 C   0  0  0  0  0  0  0  0  0  0  0  0
  152.6523  140.4533  159.6470 C   0  0  0  0  0  0  0  0  0  0  0  0
  152.5022  141.9613  159.4042 C   0  0  2  0  0  0  0  0  0  0  0  0
  152.4578  142.6969  160.6175 O   0  0  0  0  0  0  0  0  0  0  0  0
  152.4843  144.1152  160.4217 C   0  0  0  0  0  0  0  0  0  0  0  0
  151.5005  144.5889  159.3298 C   0  0  0  0  0  0  0  0  0  0  0  0
  151.2436  145.7852  159.2154 O   0  0  0  0  0  0  0  0  0  0  0  0
  150.9813  143.6684  158.5003 N   0  0  0  0  0  0  0  0  0  0  0  0
  151.1760  142.2355  158.6768 C   0  0  1  0  0  0  0  0  0  0  0  0
  151.1461  141.4750  157.3416 C   0  0  0  0  0  0  0  0  0  0  0  0
  151.1138  139.8611  155.2501 N   0  0  0  0  0  0  0  0  0  0  0  0
  150.9052  139.1041  154.1680 C   0  0  0  0  0  0  0  0  0  0  0  0
  150.7086  137.7852  154.0960 N   0  0  0  0  0  0  0  0  0  0  0  0
  150.7423  137.2098  155.3327 C   0  0  0  0  0  0  0  0  0  0  0  0
  153.3481  142.3042  158.8041 H   0  0  0  0  0  0  0  0  0  0  0  0
  150.3505  141.8804  159.2965 H   0  0  0  0  0  0  0  0  0  0  0  0
  149.1009  133.5528  152.0701 H   0  0  0  0  0  0  0  0  0  0  0  0
  147.3793  133.4860  152.4540 H   0  0  0  0  0  0  0  0  0  0  0  0
  148.2631  132.0049  152.1168 H   0  0  0  0  0  0  0  0  0  0  0  0
  149.5775  132.2125  154.1588 H   0  0  0  0  0  0  0  0  0  0  0  0
  146.3991  133.2980  155.8303 H   0  0  0  0  0  0  0  0  0  0  0  0
  147.1611  132.0318  156.7958 H   0  0  0  0  0  0  0  0  0  0  0  0
  148.1983  134.5286  156.9302 H   0  0  0  0  0  0  0  0  0  0  0  0
  149.2722  133.1419  156.7689 H   0  0  0  0  0  0  0  0  0  0  0  0
  148.3689  135.5499  153.6630 H   0  0  0  0  0  0  0  0  0  0  0  0
  151.0715  133.9923  154.9782 H   0  0  0  0  0  0  0  0  0  0  0  0
  150.5035  135.0948  153.7549 H   0  0  0  0  0  0  0  0  0  0  0  0
  150.6529  134.9042  157.5946 H   0  0  0  0  0  0  0  0  0  0  0  0
  152.6048  138.6229  158.4850 H   0  0  0  0  0  0  0  0  0  0  0  0
  153.4465  139.9439  157.6957 H   0  0  0  0  0  0  0  0  0  0  0  0
  151.8626  140.1031  160.3131 H   0  0  0  0  0  0  0  0  0  0  0  0
  153.5991  140.2423  160.1445 H   0  0  0  0  0  0  0  0  0  0  0  0
  152.2531  144.6084  161.3661 H   0  0  0  0  0  0  0  0  0  0  0  0
  153.4931  144.4183  160.1385 H   0  0  0  0  0  0  0  0  0  0  0  0
  150.3624  143.9717  157.7625 H   0  0  0  0  0  0  0  0  0  0  0  0
  151.9202  141.8567  156.6740 H   0  0  0  0  0  0  0  0  0  0  0  0
  150.1866  141.6281  156.8453 H   0  0  0  0  0  0  0  0  0  0  0  0
  150.8934  139.6303  153.2248 H   0  0  0  0  0  0  0  0  0  0  0  0
  1  2  1  0  0  0  0
  1 31  1  0  0  0  0
  1 32  1  0  0  0  0
  1 33  1  0  0  0  0
  2  6  1  0  0  0  0
  2  3  1  0  0  0  0
  2 34  1  0  0  0  0
  3  4  1  0  0  0  0
  4  5  1  0  0  0  0
  4 35  1  0  0  0  0
  4 36  1  0  0  0  0
  5  6  1  0  0  0  0
  5 37  1  0  0  0  0
  5 38  1  0  0  0  0
  6  7  1  0  0  0  0
  6  8  1  0  0  0  0
  7 39  1  0  0  0  0
  8  9  1  0  0  0  0
  8 40  1  0  0  0  0
  8 41  1  0  0  0  0
  9 28  1  0  0  0  0
  9 10  1  0  0  0  0
 10 11  2  0  0  0  0
 10 42  1  0  0  0  0
 11 12  1  0  0  0  0
 12 28  2  0  0  0  0
 12 13  1  0  0  0  0
 13 14  1  0  0  0  0
 13 25  2  0  0  0  0
 14 24  1  0  0  0  0
 14 15  1  0  0  0  0
 15 16  1  0  0  0  0
 15 43  1  0  0  0  0
 15 44  1  0  0  0  0
 16 17  1  0  0  0  0
 16 45  1  0  0  0  0
 16 46  1  0  0  0  0
 17 29  1  0  0  0  0
 17 23  1  0  0  0  0
 17 18  1  0  0  0  0
 18 19  1  0  0  0  0
 19 20  1  0  0  0  0
 19 47  1  0  0  0  0
 19 48  1  0  0  0  0
 20 21  2  0  0  0  0
 20 22  1  0  0  0  0
 22 23  1  0  0  0  0
 22 49  1  0  0  0  0
 23 30  1  0  0  0  0
 23 24  1  0  0  0  0
 24 50  1  0  0  0  0
 24 51  1  0  0  0  0
 25 26  1  0  0  0  0
 26 27  2  0  0  0  0
 26 52  1  0  0  0  0
 27 28  1  0  0  0  0
M  END
> <s_m_source_file>
AV-unprocessed.smi

> <i_m_source_file_index>
265

> <i_lp_mmshare_version>
43012

> <i_f3d_flags>
0

> <s_epik_input>
W0NIMl0xW0NIMl1PW0NAQEhdKFtDSDNdKVtDQEBdMShbT0hdKVtDSDJdbihbY0hdbjIpYyhjMjMpbltjSF1uYzNOKFtDSDJdW0NIMl00KVtDSDJdW0NAQEhdKFtDQEhdNDUpW05IXUMoPU8pW0NIMl1PNQ==

> <s_epik_cmdline>
J2VwaWtfcHl0aG9uJywgJy1waCcsICc3LjAnLCAnLXRuJywgJzgnLCAnLW1hJywgJzIwMCcsICctbWV0YWxfYmluZGluZycsICctaW1hZScsICc8aW5maWxlLm1hZT4nLCAnLW9tYWUnLCAnPG91dGZpbGUubWFlPic=

> <r_lp_tautomer_probability>
1

> <r_epik_Ionization_Penalty>
0.00221504

> <r_epik_Ionization_Penalty_Charging>
0

> <r_epik_Ionization_Penalty_Neutral>
0.00221504

> <r_epik_State_Penalty>
-0

> <r_epik_Charging_Adjusted_Penalty>
0

> <i_epik_Tot_Q>
0

> <i_epik_Tot_abs_Q>
0

> <r_epik_Metal_State_Penalty>
-0

> <b_epik_Metal_Only>
0

> <s_lp_Force_Field>
OPLS_2005

> <r_lp_Energy>
49.4841

> <b_lp_Chiralities_Consistent>
1

> <s_lp_Variant>
AV-unprocessed.smi:265-3

> <Gold.Version>
5.8.1

> <Gold.Id.Protein>
6NUR|6NUR_protein|mol2

> <Gold.PLP.Fitness>
43.7367

> <Gold.PLP.PLP>
-38.2136

> <Gold.PLP.part.hbond>
-3.2286

> <Gold.PLP.part.metal>
0.0000

> <Gold.PLP.part.buried>
-5.8508

> <Gold.PLP.part.nonpolar>
-29.6956

> <Gold.PLP.part.repulsive>
0.5348

> <Gold.PLP.ligand.clash>
0.0000

> <Gold.PLP.ligand.torsion>
0.3501

> <Gold.PLP.Chemscore.Hbond>
1.0000

> <Gold.PLP.Chemscore.CHOScore>
1.0000

> <Gold.PLP.Chemscore.Metal>
0.0000

> <Gold.Chemscore.Hbonds>
donor molecule, donor type, donor heavy atom, donor atom, acceptor molecule, acceptor atom, score
      L1  H     7    39       P1  7948  1.00
      L1  C    26    52       P1  7957  1.00

> <Gold.PLP.Chemscore.Internal.Correction>
0.2233

> <Gold.Rescore>
     Score         DG    S(hbond)    S(metal)    S(lipo)     H(rot)  DE(clash)    DE(int)     intcor
     11.57     -12.07       1.00        0.00      76.93       2.25       0.16       0.34       ----

> <Gold.Chemscore.Fitness>
11.5732

> <Gold.Chemscore.DG>
-12.0725

> <Gold.Chemscore.ZeroCoef>
-5.4800

> <Gold.Chemscore.Hbond>
0.9999

> <Gold.Chemscore.Metal>
0.0000

> <Gold.Chemscore.Lipo>
76.9294

> <Gold.Chemscore.Internal_Hbond>
0.0000

> <Gold.Chemscore.DEClash>
0.1594

> <Gold.Chemscore.DEInternal>
0.3400

> <Gold.Chemscore.Rot>
2.2453

> <Gold.Chemscore.Internal.Correction>
   9.000000E+99

> <Gold.Chemscore.Hbonds>
donor molecule, donor type, donor heavy atom, donor atom, acceptor molecule, acceptor atom, score
      L1  H     7    39       P1  7948  0.96

> <Gold.Chemscore.Hbond.Weighted>
-3.3397

> <Gold.Chemscore.Metal.Weighted>
-0.0000

> <Gold.Chemscore.Lipo.Weighted>
-9.0007

> <Gold.Chemscore.Internal_Hbond.Weighted>
0.0000

> <Gold.Chemscore.DEClash.Weighted>
0.1594

> <Gold.Chemscore.DEInternal.Weighted>
0.3400

> <Gold.Chemscore.Rot.Weighted>
5.7479

> <Gold.Chemscore.Internal.Correction.Weighted>
   9.000000E+99

> <Gold.Protein.RotatedTorsions>
[ 6907 6896 6895 6894 ] final -126.42 input  -60.11 | X-H torsion
[ 7974 7965 7964 7962 ] final  149.15 input  175.53 | X-H torsion
[ 8008 7997 7996 7995 ] final   -0.45 input   59.86 | X-H torsion
[ 10167 10162 10161 10158 ] final -163.89 input  -65.29 | X-H torsion
[ 10718 10713 10712 10709 ] final  -68.69 input   66.30 | X-H torsion
[ 10763 10752 10751 10750 ] final -163.42 input  -60.55 | X-H torsion
[ 11005 11000 10999 10996 ] final -150.18 input  -57.11 | X-H torsion

> <Gold.Protein.ActiveResidues>
 VAL166  LYS551  ARG553  GLY616  TRP617  ASP618  TYR619  PRO620  LYS621  CYS622 
 ASP623  PHE694  ASN695  SER759  ASP760  ASP761  ALA762  ILE779  LEU786  VAL792 
 PHE793  MET794  SER795  GLU796  ALA797  LYS798  CYS799  TRP800  GLU811  SER814 

> <Gold.Protein.RotatedAtoms>
  150.8967  133.7171  159.2889 H   0  0  0  0  0  0  0  0  0  0  0  0  # atno 6907 bound_to 6896
  151.4704  135.1044  159.9759 H   0  0  0  0  0  0  0  0  0  0  0  0  # atno 6908 bound_to 6896
  152.4853  133.8309  159.7158 H   0  0  0  0  0  0  0  0  0  0  0  0  # atno 6909 bound_to 6896
  144.8459  139.6244  143.5995 H   0  0  0  0  0  0  0  0  0  0  0  0  # atno 7974 bound_to 7965
  154.6579  140.2584  155.7141 H   0  0  0  0  0  0  0  0  0  0  0  0  # atno 8008 bound_to 7997
  156.2605  140.2854  156.0961 H   0  0  0  0  0  0  0  0  0  0  0  0  # atno 8009 bound_to 7997
  155.1352  140.0379  157.2775 H   0  0  0  0  0  0  0  0  0  0  0  0  # atno 8010 bound_to 7997
  139.6289  144.0478  152.1998 H   0  0  0  0  0  0  0  0  0  0  0  0  # atno 10167 bound_to 10162
  156.0493  130.4299  150.2037 H   0  0  0  0  0  0  0  0  0  0  0  0  # atno 10718 bound_to 10713
  154.7124  135.3009  154.9177 H   0  0  0  0  0  0  0  0  0  0  0  0  # atno 10763 bound_to 10752
  154.0074  135.6699  153.4767 H   0  0  0  0  0  0  0  0  0  0  0  0  # atno 10764 bound_to 10752
  153.0765  135.5032  154.8330 H   0  0  0  0  0  0  0  0  0  0  0  0  # atno 10765 bound_to 10752
  140.7429  134.3494  157.5143 H   0  0  0  0  0  0  0  0  0  0  0  0  # atno 11005 bound_to 11000
  146.2744  139.6715  142.9273 LP  0  0  0  0  0  0  0  0  0  0  0  0  # atno 17320 bound_to 7965
  145.4597  141.0432  143.2758 LP  0  0  0  0  0  0  0  0  0  0  0  0  # atno 17321 bound_to 7965
  140.0139  144.6203  150.7624 LP  0  0  0  0  0  0  0  0  0  0  0  0  # atno 17342 bound_to 10162
  140.7427  143.2836  151.3527 LP  0  0  0  0  0  0  0  0  0  0  0  0  # atno 17343 bound_to 10162
  157.0123  130.9954  151.3362 LP  0  0  0  0  0  0  0  0  0  0  0  0  # atno 17370 bound_to 10713
  157.5402  130.8115  149.8019 LP  0  0  0  0  0  0  0  0  0  0  0  0  # atno 17371 bound_to 10713
  139.8802  134.9092  156.2986 LP  0  0  0  0  0  0  0  0  0  0  0  0  # atno 17394 bound_to 11000
  140.9821  133.7261  156.0687 LP  0  0  0  0  0  0  0  0  0  0  0  0  # atno 17395 bound_to 11000

$$$$
