AV-unprocessed.smi:1543|AV-procd|sdf|6205|dock2
  -GOLD-   22720 6373D 1   1.00000     0.00000
 Structure written by MMmdl.
 48 49  0  0  0  0  0  0  0  0  1 V2000
  151.6424  137.8203  154.3496 C   0  0  0  0  0  0  0  0  0  0  0  0
  150.5974  138.7494  154.9767 C   0  0  2  0  0  0  0  0  0  0  0  0
  149.1906  138.5095  154.3990 C   0  0  0  0  0  0  0  0  0  0  0  0
  148.2079  139.4596  154.9281 N   0  0  0  0  0  0  0  0  0  0  0  0
  146.7946  139.1854  154.5435 C   0  0  0  0  0  0  0  0  0  0  0  0
  146.2511  137.8658  155.1416 C   0  0  0  0  0  0  0  0  0  0  0  0
  145.8566  140.3250  155.0167 C   0  0  0  0  0  0  0  0  0  0  0  0
  146.6257  139.0983  152.9984 C   0  0  0  0  0  0  0  0  0  0  0  0
  146.8390  137.7424  152.4919 N   0  0  0  0  0  0  0  0  0  0  0  0
  145.8832  136.8486  152.2037 C   0  0  0  0  0  0  0  0  0  0  0  0
  144.6813  137.0620  152.3591 O   0  0  0  0  0  0  0  0  0  0  0  0
  146.4194  135.7064  151.7404 N   0  0  0  0  0  0  0  0  0  0  0  0
  145.7663  134.5073  151.3441 C   0  0  0  0  0  0  0  0  0  0  0  0
  144.3615  134.3451  151.2631 C   0  0  0  0  0  0  0  0  0  0  0  0
  143.8435  133.1041  150.8443 C   0  0  0  0  0  0  0  0  0  0  0  0
  144.7458  132.0748  150.5144 C   0  0  0  0  0  0  0  0  0  0  0  0
  146.0862  132.2186  150.5742 N   0  0  0  0  0  0  0  0  0  0  0  0
  146.5753  133.4107  150.9771 C   0  0  0  0  0  0  0  0  0  0  0  0
  148.6739  140.8202  154.6374 C   0  0  0  0  0  0  0  0  0  0  0  0
  150.0877  141.0937  155.1850 C   0  0  1  0  0  0  0  0  0  0  0  0
  150.1232  141.2468  156.7153 C   0  0  0  0  0  0  0  0  0  0  0  0
  150.9977  140.0943  154.7262 O   0  0  0  0  0  0  0  0  0  0  0  0
  151.3885  136.7733  154.5174 H   0  0  0  0  0  0  0  0  0  0  0  0
  152.6285  137.9960  154.7804 H   0  0  0  0  0  0  0  0  0  0  0  0
  151.7159  137.9788  153.2735 H   0  0  0  0  0  0  0  0  0  0  0  0
  150.5826  138.5711  156.0524 H   0  0  0  0  0  0  0  0  0  0  0  0
  149.2335  138.5818  153.3119 H   0  0  0  0  0  0  0  0  0  0  0  0
  148.9087  137.4856  154.6364 H   0  0  0  0  0  0  0  0  0  0  0  0
  145.2131  137.7022  154.8491 H   0  0  0  0  0  0  0  0  0  0  0  0
  146.2729  137.8684  156.2313 H   0  0  0  0  0  0  0  0  0  0  0  0
  146.8139  136.9971  154.8005 H   0  0  0  0  0  0  0  0  0  0  0  0
  144.8585  140.2259  154.5882 H   0  0  0  0  0  0  0  0  0  0  0  0
  146.2367  141.3056  154.7272 H   0  0  0  0  0  0  0  0  0  0  0  0
  145.7215  140.3295  156.0980 H   0  0  0  0  0  0  0  0  0  0  0  0
  145.6296  139.4175  152.6924 H   0  0  0  0  0  0  0  0  0  0  0  0
  147.2975  139.8064  152.5101 H   0  0  0  0  0  0  0  0  0  0  0  0
  147.7983  137.4759  152.3251 H   0  0  0  0  0  0  0  0  0  0  0  0
  147.4282  135.6709  151.7222 H   0  0  0  0  0  0  0  0  0  0  0  0
  143.6728  135.1406  151.4992 H   0  0  0  0  0  0  0  0  0  0  0  0
  142.7773  132.9461  150.7738 H   0  0  0  0  0  0  0  0  0  0  0  0
  144.3810  131.1118  150.1889 H   0  0  0  0  0  0  0  0  0  0  0  0
  147.6523  133.4893  151.0114 H   0  0  0  0  0  0  0  0  0  0  0  0
  148.6843  140.9837  153.5596 H   0  0  0  0  0  0  0  0  0  0  0  0
  148.0028  141.5667  155.0576 H   0  0  0  0  0  0  0  0  0  0  0  0
  150.4334  142.0375  154.7628 H   0  0  0  0  0  0  0  0  0  0  0  0
  149.5052  142.0867  157.0338 H   0  0  0  0  0  0  0  0  0  0  0  0
  151.1389  141.4329  157.0645 H   0  0  0  0  0  0  0  0  0  0  0  0
  149.7505  140.3589  157.2258 H   0  0  0  0  0  0  0  0  0  0  0  0
  1  2  1  0  0  0  0
  1 23  1  0  0  0  0
  1 24  1  0  0  0  0
  1 25  1  0  0  0  0
  2 22  1  0  0  0  0
  2  3  1  0  0  0  0
  2 26  1  0  0  0  0
  3  4  1  0  0  0  0
  3 27  1  0  0  0  0
  3 28  1  0  0  0  0
  4  5  1  0  0  0  0
  4 19  1  0  0  0  0
  5  6  1  0  0  0  0
  5  7  1  0  0  0  0
  5  8  1  0  0  0  0
  6 29  1  0  0  0  0
  6 30  1  0  0  0  0
  6 31  1  0  0  0  0
  7 32  1  0  0  0  0
  7 33  1  0  0  0  0
  7 34  1  0  0  0  0
  8  9  1  0  0  0  0
  8 35  1  0  0  0  0
  8 36  1  0  0  0  0
  9 10  1  0  0  0  0
  9 37  1  0  0  0  0
 10 11  2  0  0  0  0
 10 12  1  0  0  0  0
 12 13  1  0  0  0  0
 12 38  1  0  0  0  0
 13 18  1  0  0  0  0
 13 14  2  0  0  0  0
 14 15  1  0  0  0  0
 14 39  1  0  0  0  0
 15 16  2  0  0  0  0
 15 40  1  0  0  0  0
 16 17  1  0  0  0  0
 16 41  1  0  0  0  0
 17 18  2  0  0  0  0
 18 42  1  0  0  0  0
 19 20  1  0  0  0  0
 19 43  1  0  0  0  0
 19 44  1  0  0  0  0
 20 21  1  0  0  0  0
 20 22  1  0  0  0  0
 20 45  1  0  0  0  0
 21 46  1  0  0  0  0
 21 47  1  0  0  0  0
 21 48  1  0  0  0  0
M  END
> <s_m_source_file>
AV-unprocessed.smi

> <i_m_source_file_index>
1543

> <i_lp_mmshare_version>
43012

> <i_f3d_flags>
0

> <s_epik_input>
W0NIM11bQ0BASF0xW0NIMl1OKFtDSDJdW0NASF0oTzEpW0NIM10pQyhbQ0gzXSkoW0NIM10pW0NIMl1bTkhdQyg9TylbTkhdYzJbY0hdW2NIXVtjSF1uW2NIXTI=

> <s_epik_cmdline>
J2VwaWtfcHl0aG9uJywgJy1waCcsICc3LjAnLCAnLXRuJywgJzgnLCAnLW1hJywgJzIwMCcsICctbWV0YWxfYmluZGluZycsICctaW1hZScsICc8aW5maWxlLm1hZT4nLCAnLW9tYWUnLCAnPG91dGZpbGUubWFlPic=

> <r_epik_Ionization_Penalty>
0.270794

> <r_epik_Ionization_Penalty_Charging>
0

> <r_epik_Ionization_Penalty_Neutral>
0.270794

> <r_epik_State_Penalty>
0.268291

> <r_epik_Charging_Adjusted_Penalty>
0.268291

> <i_epik_Tot_Q>
0

> <i_epik_Tot_abs_Q>
0

> <r_epik_Metal_State_Penalty>
0.264827

> <b_epik_Metal_Only>
0

> <s_lp_Force_Field>
OPLS_2005

> <r_lp_Energy>
46.6988

> <b_lp_Chiralities_Consistent>
1

> <s_lp_Variant>
AV-unprocessed.smi:1543-1

> <Gold.Version>
5.8.1

> <Gold.Id.Protein>
6NUR|6NUR_protein|mol2

> <Gold.PLP.Fitness>
41.8797

> <Gold.PLP.PLP>
-35.6812

> <Gold.PLP.part.hbond>
-3.0000

> <Gold.PLP.part.metal>
0.0000

> <Gold.PLP.part.buried>
-6.4720

> <Gold.PLP.part.nonpolar>
-28.4792

> <Gold.PLP.part.repulsive>
1.0951

> <Gold.PLP.ligand.clash>
1.1967

> <Gold.PLP.ligand.torsion>
0.7992

> <Gold.PLP.Chemscore.Hbond>
2.9760

> <Gold.PLP.Chemscore.CHOScore>
0.0000

> <Gold.PLP.Chemscore.Metal>
0.0000

> <Gold.Chemscore.Hbonds>
donor molecule, donor type, donor heavy atom, donor atom, acceptor molecule, acceptor atom, score
      L1  H     9    37       P1  7948  0.98
      L1  H    12    38       P1  7948  1.00
      P1  H  7989  7998       L1    22  0.95

> <Gold.PLP.Chemscore.Internal.Correction>
0.0656

> <Gold.Rescore>
     Score         DG    S(hbond)    S(metal)    S(lipo)     H(rot)  DE(clash)    DE(int)     intcor
     19.46     -21.60       2.90        0.00      86.24       1.43       0.10       2.04       ----

> <Gold.Chemscore.Fitness>
19.4599

> <Gold.Chemscore.DG>
-21.6018

> <Gold.Chemscore.ZeroCoef>
-5.4800

> <Gold.Chemscore.Hbond>
2.9013

> <Gold.Chemscore.Metal>
0.0000

> <Gold.Chemscore.Lipo>
86.2393

> <Gold.Chemscore.Internal_Hbond>
0.0000

> <Gold.Chemscore.DEClash>
0.0991

> <Gold.Chemscore.DEInternal>
2.0428

> <Gold.Chemscore.Rot>
1.4291

> <Gold.Chemscore.Internal.Correction>
   9.000000E+99

> <Gold.Chemscore.Hbonds>
donor molecule, donor type, donor heavy atom, donor atom, acceptor molecule, acceptor atom, score
      L1  H     9    37       P1  7948  0.93
      L1  H    12    38       P1  7948  0.97
      P1  H  7989  7998       L1    22  0.21

> <Gold.Chemscore.Hbond.Weighted>
-9.6904

> <Gold.Chemscore.Metal.Weighted>
-0.0000

> <Gold.Chemscore.Lipo.Weighted>
-10.0900

> <Gold.Chemscore.Internal_Hbond.Weighted>
0.0000

> <Gold.Chemscore.DEClash.Weighted>
0.0991

> <Gold.Chemscore.DEInternal.Weighted>
2.0428

> <Gold.Chemscore.Rot.Weighted>
3.6586

> <Gold.Chemscore.Internal.Correction.Weighted>
   9.000000E+99

> <Gold.Protein.RotatedTorsions>
[ 6907 6896 6895 6894 ] final   67.10 input  -60.11 | X-H torsion
[ 7974 7965 7964 7962 ] final   14.44 input  175.53 | X-H torsion
[ 8008 7997 7996 7995 ] final  -80.36 input   59.86 | X-H torsion
[ 10167 10162 10161 10158 ] final   44.53 input  -65.29 | X-H torsion
[ 10718 10713 10712 10709 ] final -155.92 input   66.30 | X-H torsion
[ 10763 10752 10751 10750 ] final  -30.06 input  -60.55 | X-H torsion
[ 11005 11000 10999 10996 ] final -112.32 input  -57.11 | X-H torsion

> <Gold.Protein.ActiveResidues>
 VAL166  LYS551  ARG553  GLY616  TRP617  ASP618  TYR619  PRO620  LYS621  CYS622 
 ASP623  PHE694  ASN695  SER759  ASP760  ASP761  ALA762  ILE779  LEU786  VAL792 
 PHE793  MET794  SER795  GLU796  ALA797  LYS798  CYS799  TRP800  GLU811  SER814 

> <Gold.Protein.RotatedAtoms>
  152.4528  134.5356  159.9823 H   0  0  0  0  0  0  0  0  0  0  0  0  # atno 6907 bound_to 6896
  151.5424  133.3425  159.2946 H   0  0  0  0  0  0  0  0  0  0  0  0  # atno 6908 bound_to 6896
  150.8463  134.7804  159.7036 H   0  0  0  0  0  0  0  0  0  0  0  0  # atno 6909 bound_to 6896
  146.2305  139.9041  142.8534 H   0  0  0  0  0  0  0  0  0  0  0  0  # atno 7974 bound_to 7965
  154.5875  140.0664  156.9192 H   0  0  0  0  0  0  0  0  0  0  0  0  # atno 8008 bound_to 7997
  155.2354  140.3340  155.4280 H   0  0  0  0  0  0  0  0  0  0  0  0  # atno 8009 bound_to 7997
  156.2233  140.1808  156.7409 H   0  0  0  0  0  0  0  0  0  0  0  0  # atno 8010 bound_to 7997
  140.3334  144.2560  150.6165 H   0  0  0  0  0  0  0  0  0  0  0  0  # atno 10167 bound_to 10162
  156.5194  130.8471  151.2676 H   0  0  0  0  0  0  0  0  0  0  0  0  # atno 10718 bound_to 10713
  153.7748  135.6909  153.4899 H   0  0  0  0  0  0  0  0  0  0  0  0  # atno 10763 bound_to 10752
  153.1850  135.4492  155.0076 H   0  0  0  0  0  0  0  0  0  0  0  0  # atno 10764 bound_to 10752
  154.8104  135.3375  154.7255 H   0  0  0  0  0  0  0  0  0  0  0  0  # atno 10765 bound_to 10752
  141.0682  133.9424  157.2537 H   0  0  0  0  0  0  0  0  0  0  0  0  # atno 11005 bound_to 11000
  145.2294  140.9967  143.3999 LP  0  0  0  0  0  0  0  0  0  0  0  0  # atno 17320 bound_to 7965
  144.9543  139.4048  143.6387 LP  0  0  0  0  0  0  0  0  0  0  0  0  # atno 17321 bound_to 7965
  140.5376  143.2230  151.8137 LP  0  0  0  0  0  0  0  0  0  0  0  0  # atno 17342 bound_to 10162
  139.4852  144.4641  151.9505 LP  0  0  0  0  0  0  0  0  0  0  0  0  # atno 17343 bound_to 10162
  157.7439  130.9922  150.2630 LP  0  0  0  0  0  0  0  0  0  0  0  0  # atno 17370 bound_to 10713
  156.3164  130.3779  149.7615 LP  0  0  0  0  0  0  0  0  0  0  0  0  # atno 17371 bound_to 10713
  139.9497  135.0177  156.8958 LP  0  0  0  0  0  0  0  0  0  0  0  0  # atno 17394 bound_to 11000
  140.5729  134.0426  155.7436 LP  0  0  0  0  0  0  0  0  0  0  0  0  # atno 17395 bound_to 11000

$$$$
