AV-unprocessed.smi:473|AV-procd|sdf|2663|dock3
  -GOLD-   2262023 73D 1   1.00000     0.00000
 Structure written by MMmdl.
 43 45  0  0  0  0  0  0  0  0  2 V2000
  152.2471  144.3685  161.1574 C   0  0  0  0  0  0  0  0  0  0  0  0
  152.1104  143.2978  160.0880 C   0  0  0  0  0  0  0  0  0  0  0  0
  151.2843  143.5611  158.9718 C   0  0  0  0  0  0  0  0  0  0  0  0
  151.1831  142.5643  158.0086 C   0  0  0  0  0  0  0  0  0  0  0  0
  150.4672  142.5180  156.8103 N   0  3  0  0  0  0  0  0  0  0  0  0
  150.6846  141.3216  156.1969 C   0  0  0  0  0  0  0  0  0  0  0  0
  151.5288  140.6038  156.9867 N   0  0  0  0  0  0  0  0  0  0  0  0
  152.0888  139.2589  156.7971 C   0  0  0  0  0  0  0  0  0  0  0  0
  151.5527  138.2377  157.8203 C   0  0  2  0  0  0  0  0  0  0  0  0
  151.9229  136.9372  157.4051 O   0  0  0  0  0  0  0  0  0  0  0  0
  150.0226  138.3011  157.9462 C   0  0  0  0  0  0  0  0  0  0  0  0
  149.6071  137.4088  158.9716 O   0  0  0  0  0  0  0  0  0  0  0  0
  148.2125  137.4500  159.2471 C   0  0  0  0  0  0  0  0  0  0  0  0
  147.9306  136.6248  160.4652 C   0  0  0  0  0  0  0  0  0  0  0  0
  147.9512  135.2787  160.7059 C   0  0  0  0  0  0  0  0  0  0  0  0
  147.6015  135.1086  162.0741 C   0  0  0  0  0  0  0  0  0  0  0  0
  147.4009  136.3649  162.5704 C   0  0  0  0  0  0  0  0  0  0  0  0
  147.6025  137.3016  161.6042 O   0  0  0  0  0  0  0  0  0  0  0  0
  151.8660  141.3386  158.1279 C   0  0  0  0  0  0  0  0  0  0  0  0
  152.6818  141.0613  159.2220 C   0  0  0  0  0  0  0  0  0  0  0  0
  152.8005  142.0639  160.2111 C   0  0  0  0  0  0  0  0  0  0  0  0
  153.6896  141.7934  161.4130 C   0  0  0  0  0  0  0  0  0  0  0  0
  151.6617  145.2549  160.9118 H   0  0  0  0  0  0  0  0  0  0  0  0
  153.2882  144.6749  161.2610 H   0  0  0  0  0  0  0  0  0  0  0  0
  151.8974  143.9949  162.1201 H   0  0  0  0  0  0  0  0  0  0  0  0
  150.7567  144.4986  158.8707 H   0  0  0  0  0  0  0  0  0  0  0  0
  150.2674  141.0026  155.2526 H   0  0  0  0  0  0  0  0  0  0  0  0
  151.8733  138.9403  155.7763 H   0  0  0  0  0  0  0  0  0  0  0  0
  153.1741  139.3407  156.8738 H   0  0  0  0  0  0  0  0  0  0  0  0
  152.0042  138.4365  158.7928 H   0  0  0  0  0  0  0  0  0  0  0  0
  152.5117  137.0127  156.6701 H   0  0  0  0  0  0  0  0  0  0  0  0
  149.7252  139.3152  158.2167 H   0  0  0  0  0  0  0  0  0  0  0  0
  149.5367  138.0691  156.9969 H   0  0  0  0  0  0  0  0  0  0  0  0
  147.8611  138.4754  159.3714 H   0  0  0  0  0  0  0  0  0  0  0  0
  147.6796  137.0294  158.3943 H   0  0  0  0  0  0  0  0  0  0  0  0
  148.1866  134.5103  159.9844 H   0  0  0  0  0  0  0  0  0  0  0  0
  147.5109  134.1846  162.6259 H   0  0  0  0  0  0  0  0  0  0  0  0
  147.1270  136.7535  163.5403 H   0  0  0  0  0  0  0  0  0  0  0  0
  153.2086  140.1228  159.3134 H   0  0  0  0  0  0  0  0  0  0  0  0
  154.1257  140.7947  161.3700 H   0  0  0  0  0  0  0  0  0  0  0  0
  153.1180  141.8669  162.3384 H   0  0  0  0  0  0  0  0  0  0  0  0
  154.5079  142.5128  161.4521 H   0  0  0  0  0  0  0  0  0  0  0  0
  149.8767  143.2489  156.4344 H   0  0  0  0  0  0  0  0  0  0  0  0
  1  2  1  0  0  0  0
  1 23  1  0  0  0  0
  1 24  1  0  0  0  0
  1 25  1  0  0  0  0
  2 21  1  0  0  0  0
  2  3  2  0  0  0  0
  3  4  1  0  0  0  0
  3 26  1  0  0  0  0
  4 19  2  0  0  0  0
  4  5  1  0  0  0  0
  5  6  2  0  0  0  0
  5 43  1  0  0  0  0
  6  7  1  0  0  0  0
  6 27  1  0  0  0  0
  7  8  1  0  0  0  0
  7 19  1  0  0  0  0
  8  9  1  0  0  0  0
  8 28  1  0  0  0  0
  8 29  1  0  0  0  0
  9 10  1  0  0  0  0
  9 11  1  0  0  0  0
  9 30  1  0  0  0  0
 10 31  1  0  0  0  0
 11 12  1  0  0  0  0
 11 32  1  0  0  0  0
 11 33  1  0  0  0  0
 12 13  1  0  0  0  0
 13 14  1  0  0  0  0
 13 34  1  0  0  0  0
 13 35  1  0  0  0  0
 14 18  1  0  0  0  0
 14 15  2  0  0  0  0
 15 16  1  0  0  0  0
 15 36  1  0  0  0  0
 16 17  2  0  0  0  0
 16 37  1  0  0  0  0
 17 18  1  0  0  0  0
 17 38  1  0  0  0  0
 19 20  1  0  0  0  0
 20 21  2  0  0  0  0
 20 39  1  0  0  0  0
 21 22  1  0  0  0  0
 22 40  1  0  0  0  0
 22 41  1  0  0  0  0
 22 42  1  0  0  0  0
M  CHG  1   5   1
M  END
> <s_m_source_file>
AV-unprocessed.smi

> <i_m_source_file_index>
473

> <i_lp_mmshare_version>
43012

> <i_f3d_flags>
0

> <s_epik_input>
W0NIM11jKFtjSF0xKWMoW0NIM10pW2NIXWMoYzEyKW4oW2NIXW4yKVtDSDJdW0NASF0oW09IXSlbQ0gyXU9bQ0gyXWMzW2NIXVtjSF1bY0hdbzM=

> <s_epik_cmdline>
J2VwaWtfcHl0aG9uJywgJy1waCcsICc3LjAnLCAnLXRuJywgJzgnLCAnLW1hJywgJzIwMCcsICctbWV0YWxfYmluZGluZycsICctaW1hZScsICc8aW5maWxlLm1hZT4nLCAnLW9tYWUnLCAnPG91dGZpbGUubWFlPic=

> <r_epik_Ionization_Penalty>
1.03981

> <r_epik_Ionization_Penalty_Charging>
1.03981

> <r_epik_Ionization_Penalty_Neutral>
9.34185e-07

> <r_epik_State_Penalty>
1.09172

> <r_epik_Charging_Adjusted_Penalty>
2.13153

> <i_epik_Tot_Q>
1

> <i_epik_Tot_abs_Q>
1

> <r_epik_Metal_State_Penalty>
5.0824

> <b_epik_Metal_Only>
0

> <s_lp_Force_Field>
OPLS_2005

> <r_lp_Energy>
14.0474

> <b_lp_Chiralities_Consistent>
1

> <s_lp_Variant>
AV-unprocessed.smi:473-3

> <Gold.Version>
5.8.1

> <Gold.Id.Protein>
6NUR|6NUR_protein|mol2

> <Gold.PLP.Fitness>
58.1691

> <Gold.PLP.PLP>
-47.2147

> <Gold.PLP.part.hbond>
-3.0000

> <Gold.PLP.part.metal>
0.0000

> <Gold.PLP.part.buried>
-6.2994

> <Gold.PLP.part.nonpolar>
-37.9487

> <Gold.PLP.part.repulsive>
0.0409

> <Gold.PLP.ligand.clash>
0.0000

> <Gold.PLP.ligand.torsion>
0.2717

> <Gold.PLP.Chemscore.Hbond>
3.7920

> <Gold.PLP.Chemscore.CHOScore>
0.0000

> <Gold.PLP.Chemscore.Metal>
0.0000

> <Gold.Chemscore.Hbonds>
donor molecule, donor type, donor heavy atom, donor atom, acceptor molecule, acceptor atom, score
      L1  H     5    43       P1  8028  2.00
      P1  H  6931  6943       L1    18  0.93
      P1  H  6934  6947       L1    18  0.75

> <Gold.PLP.Chemscore.Internal.Correction>
0.1218

> <Gold.Rescore>
     Score         DG    S(hbond)    S(metal)    S(lipo)     H(rot)  DE(clash)    DE(int)     intcor
     20.53     -20.96       2.25        0.00     122.65       2.49       0.02       0.41       ----

> <Gold.Chemscore.Fitness>
20.5278

> <Gold.Chemscore.DG>
-20.9589

> <Gold.Chemscore.ZeroCoef>
-5.4800

> <Gold.Chemscore.Hbond>
2.2476

> <Gold.Chemscore.Metal>
0.0000

> <Gold.Chemscore.Lipo>
122.6489

> <Gold.Chemscore.Internal_Hbond>
0.0000

> <Gold.Chemscore.DEClash>
0.0232

> <Gold.Chemscore.DEInternal>
0.4079

> <Gold.Chemscore.Rot>
2.4913

> <Gold.Chemscore.Internal.Correction>
   9.000000E+99

> <Gold.Chemscore.Hbonds>
donor molecule, donor type, donor heavy atom, donor atom, acceptor molecule, acceptor atom, score
      L1  H     5    43       P1  8028  0.99
      P1  H  6931  6943       L1    18  0.29
      P1  H  6934  6947       L1    18  0.30

> <Gold.Chemscore.Hbond.Weighted>
-7.5068

> <Gold.Chemscore.Metal.Weighted>
-0.0000

> <Gold.Chemscore.Lipo.Weighted>
-14.3499

> <Gold.Chemscore.Internal_Hbond.Weighted>
0.0000

> <Gold.Chemscore.DEClash.Weighted>
0.0232

> <Gold.Chemscore.DEInternal.Weighted>
0.4079

> <Gold.Chemscore.Rot.Weighted>
6.3778

> <Gold.Chemscore.Internal.Correction.Weighted>
   9.000000E+99

> <Gold.Protein.RotatedTorsions>
[ 6907 6896 6895 6894 ] final   32.88 input  -60.11 | X-H torsion
[ 7974 7965 7964 7962 ] final   55.88 input  175.53 | X-H torsion
[ 8008 7997 7996 7995 ] final  -62.60 input   59.86 | X-H torsion
[ 10167 10162 10161 10158 ] final  -12.64 input  -65.29 | X-H torsion
[ 10718 10713 10712 10709 ] final   39.86 input   66.30 | X-H torsion
[ 10763 10752 10751 10750 ] final  -89.23 input  -60.55 | X-H torsion
[ 11005 11000 10999 10996 ] final   76.19 input  -57.11 | X-H torsion

> <Gold.Protein.ActiveResidues>
 VAL166  LYS551  ARG553  GLY616  TRP617  ASP618  TYR619  PRO620  LYS621  CYS622 
 ASP623  PHE694  ASN695  SER759  ASP760  ASP761  ALA762  ILE779  LEU786  VAL792 
 PHE793  MET794  SER795  GLU796  ALA797  LYS798  CYS799  TRP800  GLU811  SER814 

> <Gold.Protein.RotatedAtoms>
  152.0807  134.9473  160.0573 H   0  0  0  0  0  0  0  0  0  0  0  0  # atno 6907 bound_to 6896
  152.0762  133.4126  159.4489 H   0  0  0  0  0  0  0  0  0  0  0  0  # atno 6908 bound_to 6896
  150.6836  134.2954  159.4727 H   0  0  0  0  0  0  0  0  0  0  0  0  # atno 6909 bound_to 6896
  145.9457  139.3927  143.0336 H   0  0  0  0  0  0  0  0  0  0  0  0  # atno 7974 bound_to 7965
  154.4508  140.0992  156.6613 H   0  0  0  0  0  0  0  0  0  0  0  0  # atno 8008 bound_to 7997
  155.5290  140.3481  155.4404 H   0  0  0  0  0  0  0  0  0  0  0  0  # atno 8009 bound_to 7997
  156.0677  140.1342  156.9855 H   0  0  0  0  0  0  0  0  0  0  0  0  # atno 8010 bound_to 7997
  140.7165  143.5511  150.9300 H   0  0  0  0  0  0  0  0  0  0  0  0  # atno 10167 bound_to 10162
  157.3755  130.7725  149.7152 H   0  0  0  0  0  0  0  0  0  0  0  0  # atno 10718 bound_to 10713
  154.6531  135.5348  153.7925 H   0  0  0  0  0  0  0  0  0  0  0  0  # atno 10763 bound_to 10752
  153.0397  135.6487  154.0987 H   0  0  0  0  0  0  0  0  0  0  0  0  # atno 10764 bound_to 10752
  154.0902  135.2940  155.3253 H   0  0  0  0  0  0  0  0  0  0  0  0  # atno 10765 bound_to 10752
  139.9309  134.7580  156.1364 H   0  0  0  0  0  0  0  0  0  0  0  0  # atno 11005 bound_to 11000
  145.8239  140.9665  143.0884 LP  0  0  0  0  0  0  0  0  0  0  0  0  # atno 17320 bound_to 7965
  144.6787  140.0077  143.7484 LP  0  0  0  0  0  0  0  0  0  0  0  0  # atno 17321 bound_to 7965
  139.9235  143.6577  152.3091 LP  0  0  0  0  0  0  0  0  0  0  0  0  # atno 17342 bound_to 10162
  139.7003  144.7636  151.1285 LP  0  0  0  0  0  0  0  0  0  0  0  0  # atno 17343 bound_to 10162
  155.9764  130.4075  150.3779 LP  0  0  0  0  0  0  0  0  0  0  0  0  # atno 17370 bound_to 10713
  157.1876  131.0407  151.2717 LP  0  0  0  0  0  0  0  0  0  0  0  0  # atno 17371 bound_to 10713
  141.0897  133.6719  156.2514 LP  0  0  0  0  0  0  0  0  0  0  0  0  # atno 17394 bound_to 11000
  140.6204  134.5368  157.5546 LP  0  0  0  0  0  0  0  0  0  0  0  0  # atno 17395 bound_to 11000

$$$$
