AV-unprocessed.smi:2339|AV-procd|sdf|9343|dock4
  -GOLD-   2272012563D 1   1.00000     0.00000
 Structure written by MMmdl.
 49 52  0  0  0  0  0  0  0  0  1 V2000
  148.4081  131.3411  161.4546 C   0  0  0  0  0  0  0  0  0  0  0  0
  147.6621  132.2338  160.4569 C   0  0  0  0  0  0  0  0  0  0  0  0
  147.5539  133.6042  160.9356 N   0  0  0  0  0  0  0  0  0  0  0  0
  146.8625  133.9103  162.1032 C   0  0  0  0  0  0  0  0  0  0  0  0
  146.6786  135.1622  162.5653 C   0  0  0  0  0  0  0  0  0  0  0  0
  147.2298  136.3022  161.8057 C   0  0  0  0  0  0  0  0  0  0  0  0
  147.0808  137.4592  162.1990 O   0  0  0  0  0  0  0  0  0  0  0  0
  147.9647  135.9752  160.5556 C   0  0  0  0  0  0  0  0  0  0  0  0
  148.4703  137.0675  159.8343 N   0  0  0  0  0  0  0  0  0  0  0  0
  149.6370  137.1996  159.1717 C   0  0  0  0  0  0  0  0  0  0  0  0
  150.5311  136.3578  159.1269 O   0  0  0  0  0  0  0  0  0  0  0  0
  149.7582  138.3732  158.5270 N   0  0  0  0  0  0  0  0  0  0  0  0
  150.8895  138.8342  157.7191 C   0  0  1  0  0  0  0  0  0  0  0  0
  150.5242  138.9403  156.2296 C   0  0  2  0  0  0  0  0  0  0  0  0
  151.1861  138.0310  155.2307 C   0  0  0  0  0  0  0  0  0  0  0  0
  152.3356  138.8904  154.6982 C   0  0  0  0  0  0  0  0  0  0  0  0
  152.5577  139.8631  155.7168 O   0  0  0  0  0  0  0  0  0  0  0  0
  151.2831  140.2582  156.2185 C   0  0  2  0  0  0  0  0  0  0  0  0
  151.1407  140.3630  157.7518 C   0  0  0  0  0  0  0  0  0  0  0  0
  150.0374  141.3030  158.2458 C   0  0  0  0  0  0  0  0  0  0  0  0
  150.6769  142.6832  158.4127 C   0  0  0  0  0  0  0  0  0  0  0  0
  152.1711  142.4198  158.6250 C   0  0  0  0  0  0  0  0  0  0  0  0
  152.3440  140.9015  158.5223 C   0  0  0  0  0  0  0  0  0  0  0  0
  148.0735  134.6692  160.2023 C   0  0  0  0  0  0  0  0  0  0  0  0
  148.4775  130.3187  161.0830 H   0  0  0  0  0  0  0  0  0  0  0  0
  147.8961  131.3122  162.4169 H   0  0  0  0  0  0  0  0  0  0  0  0
  149.4226  131.7033  161.6240 H   0  0  0  0  0  0  0  0  0  0  0  0
  148.1757  132.2245  159.4948 H   0  0  0  0  0  0  0  0  0  0  0  0
  146.6651  131.8313  160.2745 H   0  0  0  0  0  0  0  0  0  0  0  0
  146.4766  133.0504  162.6311 H   0  0  0  0  0  0  0  0  0  0  0  0
  146.1357  135.3521  163.4793 H   0  0  0  0  0  0  0  0  0  0  0  0
  147.8534  137.8663  159.8034 H   0  0  0  0  0  0  0  0  0  0  0  0
  148.9792  139.0114  158.5989 H   0  0  0  0  0  0  0  0  0  0  0  0
  151.8085  138.2622  157.8671 H   0  0  0  0  0  0  0  0  0  0  0  0
  149.4558  139.0955  156.0679 H   0  0  0  0  0  0  0  0  0  0  0  0
  151.5663  137.1315  155.7157 H   0  0  0  0  0  0  0  0  0  0  0  0
  150.5112  137.7217  154.4319 H   0  0  0  0  0  0  0  0  0  0  0  0
  153.2354  138.3105  154.4929 H   0  0  0  0  0  0  0  0  0  0  0  0
  152.0393  139.3999  153.7800 H   0  0  0  0  0  0  0  0  0  0  0  0
  150.8061  141.0452  155.6326 H   0  0  0  0  0  0  0  0  0  0  0  0
  149.1812  141.3377  157.5712 H   0  0  0  0  0  0  0  0  0  0  0  0
  149.6624  140.9774  159.2165 H   0  0  0  0  0  0  0  0  0  0  0  0
  150.5312  143.2762  157.5090 H   0  0  0  0  0  0  0  0  0  0  0  0
  150.2335  143.2333  159.2432 H   0  0  0  0  0  0  0  0  0  0  0  0
  152.7508  142.9215  157.8492 H   0  0  0  0  0  0  0  0  0  0  0  0
  152.5193  142.7933  159.5886 H   0  0  0  0  0  0  0  0  0  0  0  0
  152.3627  140.4789  159.5265 H   0  0  0  0  0  0  0  0  0  0  0  0
  153.2956  140.6399  158.0592 H   0  0  0  0  0  0  0  0  0  0  0  0
  148.5785  134.3416  159.3077 H   0  0  0  0  0  0  0  0  0  0  0  0
  1  2  1  0  0  0  0
  1 25  1  0  0  0  0
  1 26  1  0  0  0  0
  1 27  1  0  0  0  0
  2  3  1  0  0  0  0
  2 28  1  0  0  0  0
  2 29  1  0  0  0  0
  3 24  1  0  0  0  0
  3  4  1  0  0  0  0
  4  5  2  0  0  0  0
  4 30  1  0  0  0  0
  5  6  1  0  0  0  0
  5 31  1  0  0  0  0
  6  7  2  0  0  0  0
  6  8  1  0  0  0  0
  8  9  1  0  0  0  0
  8 24  2  0  0  0  0
  9 10  1  0  0  0  0
  9 32  1  0  0  0  0
 10 11  2  0  0  0  0
 10 12  1  0  0  0  0
 12 13  1  0  0  0  0
 12 33  1  0  0  0  0
 13 19  1  0  0  0  0
 13 14  1  0  0  0  0
 13 34  1  0  0  0  0
 14 18  1  0  0  0  0
 14 15  1  0  0  0  0
 14 35  1  0  0  0  0
 15 16  1  0  0  0  0
 15 36  1  0  0  0  0
 15 37  1  0  0  0  0
 16 17  1  0  0  0  0
 16 38  1  0  0  0  0
 16 39  1  0  0  0  0
 17 18  1  0  0  0  0
 18 19  1  0  0  0  0
 18 40  1  0  0  0  0
 19 23  1  0  0  0  0
 19 20  1  0  0  0  0
 20 21  1  0  0  0  0
 20 41  1  0  0  0  0
 20 42  1  0  0  0  0
 21 22  1  0  0  0  0
 21 43  1  0  0  0  0
 21 44  1  0  0  0  0
 22 23  1  0  0  0  0
 22 45  1  0  0  0  0
 22 46  1  0  0  0  0
 23 47  1  0  0  0  0
 23 48  1  0  0  0  0
 24 49  1  0  0  0  0
M  END
> <s_m_source_file>
AV-unprocessed.smi

> <i_m_source_file_index>
2339

> <i_lp_mmshare_version>
43012

> <i_f3d_flags>
0

> <s_epik_input>
W0NIM11bQ0gyXW4xW2NIXVtjSF1jKD1PKWMoW2NIXTEpW05IXUMoPU8pW05IXVtDQEBIXTJbQ0BASF0oW0NIMl1bQ0gyXU8zKVtDQEBIXTNDMjRbQ0gyXVtDSDJdW0NIMl1bQ0gyXTQ=

> <s_epik_cmdline>
J2VwaWtfcHl0aG9uJywgJy1waCcsICc3LjAnLCAnLXRuJywgJzgnLCAnLW1hJywgJzIwMCcsICctbWV0YWxfYmluZGluZycsICctaW1hZScsICc8aW5maWxlLm1hZT4nLCAnLW9tYWUnLCAnPG91dGZpbGUubWFlPic=

> <r_lp_tautomer_probability>
1

> <r_epik_Ionization_Penalty>
0.00145966

> <r_epik_Ionization_Penalty_Charging>
0.00143969

> <r_epik_Ionization_Penalty_Neutral>
1.99697e-05

> <r_epik_State_Penalty>
0.000961843

> <r_epik_Charging_Adjusted_Penalty>
0.00240153

> <i_epik_Tot_Q>
0

> <i_epik_Tot_abs_Q>
0

> <r_epik_Metal_State_Penalty>
-0

> <b_epik_Metal_Only>
0

> <s_lp_Force_Field>
OPLS_2005

> <r_lp_Energy>
57.3281

> <b_lp_Chiralities_Consistent>
1

> <s_lp_Variant>
AV-unprocessed.smi:2339-8

> <Gold.Version>
5.8.1

> <Gold.Id.Protein>
6NUR|6NUR_protein|mol2

> <Gold.PLP.Fitness>
53.4588

> <Gold.PLP.PLP>
-44.6041

> <Gold.PLP.part.hbond>
-4.0230

> <Gold.PLP.part.metal>
0.0000

> <Gold.PLP.part.buried>
-5.3115

> <Gold.PLP.part.nonpolar>
-35.8926

> <Gold.PLP.part.repulsive>
0.7705

> <Gold.PLP.ligand.clash>
0.0000

> <Gold.PLP.ligand.torsion>
0.5171

> <Gold.PLP.Chemscore.Hbond>
3.2320

> <Gold.PLP.Chemscore.CHOScore>
0.0000

> <Gold.PLP.Chemscore.Metal>
0.0000

> <Gold.Chemscore.Hbonds>
donor molecule, donor type, donor heavy atom, donor atom, acceptor molecule, acceptor atom, score
      P1  H  6896  6909       L1    11  1.00
      P1  H  6931  6943       L1     7  0.54
      P1  H  6934  6947       L1     7  0.64
      P1  H  7997  8008       L1    17  1.00

> <Gold.PLP.Chemscore.Internal.Correction>
0.1929

> <Gold.Rescore>
     Score         DG    S(hbond)    S(metal)    S(lipo)     H(rot)  DE(clash)    DE(int)     intcor
     23.61     -24.02       2.90        0.00     101.19       1.17       0.00       0.41       ----

> <Gold.Chemscore.Fitness>
23.6146

> <Gold.Chemscore.DG>
-24.0237

> <Gold.Chemscore.ZeroCoef>
-5.4800

> <Gold.Chemscore.Hbond>
2.9016

> <Gold.Chemscore.Metal>
0.0000

> <Gold.Chemscore.Lipo>
101.1937

> <Gold.Chemscore.Internal_Hbond>
0.0000

> <Gold.Chemscore.DEClash>
0.0000

> <Gold.Chemscore.DEInternal>
0.4091

> <Gold.Chemscore.Rot>
1.1670

> <Gold.Chemscore.Internal.Correction>
   9.000000E+99

> <Gold.Chemscore.Hbonds>
donor molecule, donor type, donor heavy atom, donor atom, acceptor molecule, acceptor atom, score
      P1  H  6896  6909       L1    11  0.96
      P1  H  6931  6943       L1     7  0.18
      P1  H  6934  6947       L1     7  0.61
      P1  H  7997  8008       L1    17  0.72

> <Gold.Chemscore.Hbond.Weighted>
-9.6915

> <Gold.Chemscore.Metal.Weighted>
-0.0000

> <Gold.Chemscore.Lipo.Weighted>
-11.8397

> <Gold.Chemscore.Internal_Hbond.Weighted>
0.0000

> <Gold.Chemscore.DEClash.Weighted>
0.0000

> <Gold.Chemscore.DEInternal.Weighted>
0.4091

> <Gold.Chemscore.Rot.Weighted>
2.9874

> <Gold.Chemscore.Internal.Correction.Weighted>
   9.000000E+99

> <Gold.Protein.RotatedTorsions>
[ 6907 6896 6895 6894 ] final   73.75 input  -60.11 | X-H torsion
[ 7974 7965 7964 7962 ] final  -29.85 input  175.53 | X-H torsion
[ 8008 7997 7996 7995 ] final  -15.87 input   59.86 | X-H torsion
[ 10167 10162 10161 10158 ] final  -10.87 input  -65.29 | X-H torsion
[ 10718 10713 10712 10709 ] final  -97.60 input   66.30 | X-H torsion
[ 10763 10752 10751 10750 ] final  179.43 input  -60.55 | X-H torsion
[ 11005 11000 10999 10996 ] final  168.14 input  -57.11 | X-H torsion

> <Gold.Protein.ActiveResidues>
 VAL166  LYS551  ARG553  GLY616  TRP617  ASP618  TYR619  PRO620  LYS621  CYS622 
 ASP623  PHE694  ASN695  SER759  ASP760  ASP761  ALA762  ILE779  LEU786  VAL792 
 PHE793  MET794  SER795  GLU796  ALA797  LYS798  CYS799  TRP800  GLU811  SER814 

> <Gold.Protein.RotatedAtoms>
  152.4940  134.4374  159.9532 H   0  0  0  0  0  0  0  0  0  0  0  0  # atno 6907 bound_to 6896
  151.4356  133.3651  159.2782 H   0  0  0  0  0  0  0  0  0  0  0  0  # atno 6908 bound_to 6896
  150.9123  134.8564  159.7493 H   0  0  0  0  0  0  0  0  0  0  0  0  # atno 6909 bound_to 6896
  146.1186  140.5465  142.8745 H   0  0  0  0  0  0  0  0  0  0  0  0  # atno 7974 bound_to 7965
  154.5097  140.2185  155.9181 H   0  0  0  0  0  0  0  0  0  0  0  0  # atno 8008 bound_to 7997
  156.1537  140.3156  155.8657 H   0  0  0  0  0  0  0  0  0  0  0  0  # atno 8009 bound_to 7997
  155.3889  140.0477  157.3032 H   0  0  0  0  0  0  0  0  0  0  0  0  # atno 8010 bound_to 7997
  140.7124  143.5701  150.9102 H   0  0  0  0  0  0  0  0  0  0  0  0  # atno 10167 bound_to 10162
  156.0087  130.5201  150.6398 H   0  0  0  0  0  0  0  0  0  0  0  0  # atno 10718 bound_to 10713
  154.5205  135.2793  155.1266 H   0  0  0  0  0  0  0  0  0  0  0  0  # atno 10763 bound_to 10752
  154.2825  135.6282  153.5356 H   0  0  0  0  0  0  0  0  0  0  0  0  # atno 10764 bound_to 10752
  152.9936  135.5654  154.5693 H   0  0  0  0  0  0  0  0  0  0  0  0  # atno 10765 bound_to 10752
  140.2842  134.7726  157.3784 H   0  0  0  0  0  0  0  0  0  0  0  0  # atno 11005 bound_to 11000
  144.7576  140.5345  143.6758 LP  0  0  0  0  0  0  0  0  0  0  0  0  # atno 17320 bound_to 7965
  145.5514  139.1477  143.3392 LP  0  0  0  0  0  0  0  0  0  0  0  0  # atno 17321 bound_to 7965
  139.9427  143.6363  152.3049 LP  0  0  0  0  0  0  0  0  0  0  0  0  # atno 17342 bound_to 10162
  139.6853  144.7652  151.1534 LP  0  0  0  0  0  0  0  0  0  0  0  0  # atno 17343 bound_to 10162
  157.4180  131.0833  151.1158 LP  0  0  0  0  0  0  0  0  0  0  0  0  # atno 17370 bound_to 10713
  157.1768  130.6292  149.5658 LP  0  0  0  0  0  0  0  0  0  0  0  0  # atno 17371 bound_to 10713
  140.1255  134.5163  155.8148 LP  0  0  0  0  0  0  0  0  0  0  0  0  # atno 17394 bound_to 11000
  141.2157  133.6771  156.6945 LP  0  0  0  0  0  0  0  0  0  0  0  0  # atno 17395 bound_to 11000

$$$$
