AV-unprocessed.smi:1005|AV-procd|sdf|4389|dock1
  -GOLD-   22720 2313D 1   1.00000     0.00000
 Structure written by MMmdl.
 55 57  0  0  0  0  0  0  0  0  1 V2000
  152.9685  142.8297  161.5708 C   0  0  0  0  0  0  0  0  0  0  0  0
  152.4001  142.5395  160.1930 C   0  0  0  0  0  0  0  0  0  0  0  0
  152.7871  141.3554  159.5245 C   0  0  0  0  0  0  0  0  0  0  0  0
  152.2862  141.0525  158.2393 C   0  0  0  0  0  0  0  0  0  0  0  0
  152.5258  139.9692  157.4105 N   0  0  0  0  0  0  0  0  0  0  0  0
  151.7785  140.2702  156.3517 C   0  0  0  0  0  0  0  0  0  0  0  0
  151.0824  141.4218  156.3981 N   0  0  0  0  0  0  0  0  0  0  0  0
  150.2152  141.9750  155.3757 C   0  0  0  0  0  0  0  0  0  0  0  0
  149.2541  140.9132  154.8043 C   0  0  1  0  0  0  0  0  0  0  0  0
  149.9778  140.0390  153.9621 O   0  0  0  0  0  0  0  0  0  0  0  0
  148.5628  140.0711  155.8951 C   0  0  0  0  0  0  0  0  0  0  0  0
  147.4210  140.7105  156.5502 N   0  0  0  0  0  0  0  0  0  0  0  0
  146.5846  141.4135  155.5850 C   0  0  0  0  0  0  0  0  0  0  0  0
  145.3734  142.0812  156.2572 C   0  0  0  0  0  0  0  0  0  0  0  0
  145.8233  142.9499  157.2920 O   0  0  0  0  0  0  0  0  0  0  0  0
  146.5897  142.2798  158.2909 C   0  0  2  0  0  0  0  0  0  0  0  0
  147.0078  143.2791  159.3866 C   0  0  0  0  0  0  0  0  0  0  0  0
  145.9247  143.7758  160.2371 N   0  0  0  0  0  0  0  0  0  0  0  0
  146.3689  144.8033  161.1712 C   0  0  0  0  0  0  0  0  0  0  0  0
  145.2934  142.6793  160.9579 C   0  0  0  0  0  0  0  0  0  0  0  0
  147.8133  141.6425  157.6048 C   0  0  0  0  0  0  0  0  0  0  0  0
  151.3824  141.9750  157.6371 C   0  0  0  0  0  0  0  0  0  0  0  0
  150.9845  143.1525  158.2940 C   0  0  0  0  0  0  0  0  0  0  0  0
  151.4932  143.4395  159.5774 C   0  0  0  0  0  0  0  0  0  0  0  0
  151.0571  144.7150  160.2765 C   0  0  0  0  0  0  0  0  0  0  0  0
  153.6559  142.0466  161.8917 H   0  0  0  0  0  0  0  0  0  0  0  0
  152.1679  142.8956  162.3077 H   0  0  0  0  0  0  0  0  0  0  0  0
  153.5153  143.7728  161.5674 H   0  0  0  0  0  0  0  0  0  0  0  0
  153.4764  140.6688  159.9937 H   0  0  0  0  0  0  0  0  0  0  0  0
  151.7396  139.6201  155.4899 H   0  0  0  0  0  0  0  0  0  0  0  0
  149.6640  142.8206  155.7898 H   0  0  0  0  0  0  0  0  0  0  0  0
  150.8536  142.3766  154.5882 H   0  0  0  0  0  0  0  0  0  0  0  0
  148.5035  141.3943  154.1774 H   0  0  0  0  0  0  0  0  0  0  0  0
  149.5714  140.0399  153.1091 H   0  0  0  0  0  0  0  0  0  0  0  0
  148.2438  139.1203  155.4650 H   0  0  0  0  0  0  0  0  0  0  0  0
  149.3081  139.8218  156.6518 H   0  0  0  0  0  0  0  0  0  0  0  0
  147.1742  142.1736  155.0699 H   0  0  0  0  0  0  0  0  0  0  0  0
  146.2349  140.7188  154.8207 H   0  0  0  0  0  0  0  0  0  0  0  0
  144.8049  142.6588  155.5282 H   0  0  0  0  0  0  0  0  0  0  0  0
  144.6976  141.3311  156.6707 H   0  0  0  0  0  0  0  0  0  0  0  0
  145.9872  141.4897  158.7434 H   0  0  0  0  0  0  0  0  0  0  0  0
  147.7269  142.7690  160.0292 H   0  0  0  0  0  0  0  0  0  0  0  0
  147.5515  144.1130  158.9400 H   0  0  0  0  0  0  0  0  0  0  0  0
  145.5524  145.1100  161.8258 H   0  0  0  0  0  0  0  0  0  0  0  0
  146.7057  145.6957  160.6450 H   0  0  0  0  0  0  0  0  0  0  0  0
  147.1861  144.4419  161.7968 H   0  0  0  0  0  0  0  0  0  0  0  0
  144.4536  143.0395  161.5531 H   0  0  0  0  0  0  0  0  0  0  0  0
  146.0007  142.1899  161.6291 H   0  0  0  0  0  0  0  0  0  0  0  0
  144.9071  141.9308  160.2653 H   0  0  0  0  0  0  0  0  0  0  0  0
  148.3989  141.1274  158.3644 H   0  0  0  0  0  0  0  0  0  0  0  0
  148.4534  142.4240  157.1919 H   0  0  0  0  0  0  0  0  0  0  0  0
  150.2941  143.8289  157.8126 H   0  0  0  0  0  0  0  0  0  0  0  0
  150.3593  145.2863  159.6634 H   0  0  0  0  0  0  0  0  0  0  0  0
  151.9178  145.3512  160.4839 H   0  0  0  0  0  0  0  0  0  0  0  0
  150.5609  144.4834  161.2193 H   0  0  0  0  0  0  0  0  0  0  0  0
  1  2  1  0  0  0  0
  1 26  1  0  0  0  0
  1 27  1  0  0  0  0
  1 28  1  0  0  0  0
  2 24  1  0  0  0  0
  2  3  2  0  0  0  0
  3  4  1  0  0  0  0
  3 29  1  0  0  0  0
  4 22  2  0  0  0  0
  4  5  1  0  0  0  0
  5  6  2  0  0  0  0
  6  7  1  0  0  0  0
  6 30  1  0  0  0  0
  7  8  1  0  0  0  0
  7 22  1  0  0  0  0
  8  9  1  0  0  0  0
  8 31  1  0  0  0  0
  8 32  1  0  0  0  0
  9 10  1  0  0  0  0
  9 11  1  0  0  0  0
  9 33  1  0  0  0  0
 10 34  1  0  0  0  0
 11 12  1  0  0  0  0
 11 35  1  0  0  0  0
 11 36  1  0  0  0  0
 12 21  1  0  0  0  0
 12 13  1  0  0  0  0
 13 14  1  0  0  0  0
 13 37  1  0  0  0  0
 13 38  1  0  0  0  0
 14 15  1  0  0  0  0
 14 39  1  0  0  0  0
 14 40  1  0  0  0  0
 15 16  1  0  0  0  0
 16 17  1  0  0  0  0
 16 21  1  0  0  0  0
 16 41  1  0  0  0  0
 17 18  1  0  0  0  0
 17 42  1  0  0  0  0
 17 43  1  0  0  0  0
 18 19  1  0  0  0  0
 18 20  1  0  0  0  0
 19 44  1  0  0  0  0
 19 45  1  0  0  0  0
 19 46  1  0  0  0  0
 20 47  1  0  0  0  0
 20 48  1  0  0  0  0
 20 49  1  0  0  0  0
 21 50  1  0  0  0  0
 21 51  1  0  0  0  0
 22 23  1  0  0  0  0
 23 24  2  0  0  0  0
 23 52  1  0  0  0  0
 24 25  1  0  0  0  0
 25 53  1  0  0  0  0
 25 54  1  0  0  0  0
 25 55  1  0  0  0  0
M  END
> <s_m_source_file>
AV-unprocessed.smi

> <i_m_source_file_index>
1005

> <i_lp_mmshare_version>
43012

> <i_f3d_flags>
0

> <s_epik_input>
W0NIM11jKFtjSF0xKWMoW0NIM10pW2NIXWMoYzEyKW4oW2NIXW4yKVtDSDJdW0NASF0oW09IXSlbQ0gyXU4zW0NIMl1bQ0gyXU9bQ0BIXShbQ0gyXTMpW0NIMl1OKFtDSDNdKVtDSDNd

> <s_epik_cmdline>
J2VwaWtfcHl0aG9uJywgJy1waCcsICc3LjAnLCAnLXRuJywgJzgnLCAnLW1hJywgJzIwMCcsICctbWV0YWxfYmluZGluZycsICctaW1hZScsICc8aW5maWxlLm1hZT4nLCAnLW9tYWUnLCAnPG91dGZpbGUubWFlPic=

> <r_epik_Ionization_Penalty>
2.78613

> <r_epik_Ionization_Penalty_Charging>
0

> <r_epik_Ionization_Penalty_Neutral>
2.78613

> <r_epik_State_Penalty>
2.57336

> <r_epik_Charging_Adjusted_Penalty>
2.57336

> <i_epik_Tot_Q>
0

> <i_epik_Tot_abs_Q>
0

> <r_epik_Metal_State_Penalty>
2.49087

> <b_epik_Metal_Only>
0

> <s_lp_Force_Field>
OPLS_2005

> <r_lp_Energy>
32.9837

> <b_lp_Chiralities_Consistent>
1

> <s_lp_Variant>
AV-unprocessed.smi:1005-28

> <Gold.Version>
5.8.1

> <Gold.Id.Protein>
6NUR|6NUR_protein|mol2

> <Gold.PLP.Fitness>
52.8713

> <Gold.PLP.PLP>
-45.4778

> <Gold.PLP.part.hbond>
-3.0000

> <Gold.PLP.part.metal>
0.0000

> <Gold.PLP.part.buried>
-6.3565

> <Gold.PLP.part.nonpolar>
-35.8405

> <Gold.PLP.part.repulsive>
0.2678

> <Gold.PLP.ligand.clash>
0.0000

> <Gold.PLP.ligand.torsion>
0.6821

> <Gold.PLP.Chemscore.Hbond>
2.8400

> <Gold.PLP.Chemscore.CHOScore>
0.0000

> <Gold.PLP.Chemscore.Metal>
0.0000

> <Gold.Chemscore.Hbonds>
donor molecule, donor type, donor heavy atom, donor atom, acceptor molecule, acceptor atom, score
      L1  H    10    34       P1  7957  1.00
      P1  H  7989  7998       L1    10  0.79
      P1  H  7997  8008       L1     5  1.00

> <Gold.PLP.Chemscore.Internal.Correction>
0.2376

> <Gold.Rescore>
     Score         DG    S(hbond)    S(metal)    S(lipo)     H(rot)  DE(clash)    DE(int)     intcor
     16.60     -20.26       2.07        0.00     117.40       2.29       1.95       1.72       ----

> <Gold.Chemscore.Fitness>
16.5983

> <Gold.Chemscore.DG>
-20.2641

> <Gold.Chemscore.ZeroCoef>
-5.4800

> <Gold.Chemscore.Hbond>
2.0687

> <Gold.Chemscore.Metal>
0.0000

> <Gold.Chemscore.Lipo>
117.4005

> <Gold.Chemscore.Internal_Hbond>
0.0000

> <Gold.Chemscore.DEClash>
1.9450

> <Gold.Chemscore.DEInternal>
1.7208

> <Gold.Chemscore.Rot>
2.2895

> <Gold.Chemscore.Internal.Correction>
   9.000000E+99

> <Gold.Chemscore.Hbonds>
donor molecule, donor type, donor heavy atom, donor atom, acceptor molecule, acceptor atom, score
      L1  H    10    34       P1  7957  0.96
      P1  H  7989  7998       L1    10  0.11
      P1  H  7997  8008       L1     5  0.30

> <Gold.Chemscore.Hbond.Weighted>
-6.9094

> <Gold.Chemscore.Metal.Weighted>
-0.0000

> <Gold.Chemscore.Lipo.Weighted>
-13.7359

> <Gold.Chemscore.Internal_Hbond.Weighted>
0.0000

> <Gold.Chemscore.DEClash.Weighted>
1.9450

> <Gold.Chemscore.DEInternal.Weighted>
1.7208

> <Gold.Chemscore.Rot.Weighted>
5.8612

> <Gold.Chemscore.Internal.Correction.Weighted>
   9.000000E+99

> <Gold.Protein.RotatedTorsions>
[ 6907 6896 6895 6894 ] final   12.74 input  -60.11 | X-H torsion
[ 7974 7965 7964 7962 ] final   81.94 input  175.53 | X-H torsion
[ 8008 7997 7996 7995 ] final  -64.69 input   59.86 | X-H torsion
[ 10167 10162 10161 10158 ] final -163.04 input  -65.29 | X-H torsion
[ 10718 10713 10712 10709 ] final  114.72 input   66.30 | X-H torsion
[ 10763 10752 10751 10750 ] final  -42.40 input  -60.55 | X-H torsion
[ 11005 11000 10999 10996 ] final -103.57 input  -57.11 | X-H torsion

> <Gold.Protein.ActiveResidues>
 VAL166  LYS551  ARG553  GLY616  TRP617  ASP618  TYR619  PRO620  LYS621  CYS622 
 ASP623  PHE694  ASN695  SER759  ASP760  ASP761  ALA762  ILE779  LEU786  VAL792 
 PHE793  MET794  SER795  GLU796  ALA797  LYS798  CYS799  TRP800  GLU811  SER814 

> <Gold.Protein.RotatedAtoms>
  151.7751  135.0776  160.0365 H   0  0  0  0  0  0  0  0  0  0  0  0  # atno 6907 bound_to 6896
  152.3262  133.5903  159.5786 H   0  0  0  0  0  0  0  0  0  0  0  0  # atno 6908 bound_to 6896
  150.7396  133.9853  159.3631 H   0  0  0  0  0  0  0  0  0  0  0  0  # atno 6909 bound_to 6896
  145.6315  139.2406  143.2082 H   0  0  0  0  0  0  0  0  0  0  0  0  # atno 7974 bound_to 7965
  154.4627  140.0948  156.6936 H   0  0  0  0  0  0  0  0  0  0  0  0  # atno 8008 bound_to 7997
  155.4948  140.3472  155.4342 H   0  0  0  0  0  0  0  0  0  0  0  0  # atno 8009 bound_to 7997
  156.0899  140.1394  156.9594 H   0  0  0  0  0  0  0  0  0  0  0  0  # atno 8010 bound_to 7997
  139.6349  144.0369  152.2046 H   0  0  0  0  0  0  0  0  0  0  0  0  # atno 10167 bound_to 10162
  157.6264  131.1002  150.7227 H   0  0  0  0  0  0  0  0  0  0  0  0  # atno 10718 bound_to 10713
  153.9784  135.6720  153.4749 H   0  0  0  0  0  0  0  0  0  0  0  0  # atno 10763 bound_to 10752
  153.0760  135.4948  154.8401 H   0  0  0  0  0  0  0  0  0  0  0  0  # atno 10764 bound_to 10752
  154.7178  135.3111  154.9056 H   0  0  0  0  0  0  0  0  0  0  0  0  # atno 10765 bound_to 10752
  141.1140  133.8651  157.1503 H   0  0  0  0  0  0  0  0  0  0  0  0  # atno 11005 bound_to 11000
  146.1352  140.7131  142.9393 LP  0  0  0  0  0  0  0  0  0  0  0  0  # atno 17320 bound_to 7965
  144.7192  140.4314  143.7021 LP  0  0  0  0  0  0  0  0  0  0  0  0  # atno 17321 bound_to 7965
  140.0044  144.6270  150.7702 LP  0  0  0  0  0  0  0  0  0  0  0  0  # atno 17342 bound_to 10162
  140.7460  143.2883  151.3400 LP  0  0  0  0  0  0  0  0  0  0  0  0  # atno 17343 bound_to 10162
  156.7574  130.4788  149.5444 LP  0  0  0  0  0  0  0  0  0  0  0  0  # atno 17370 bound_to 10713
  156.1439  130.6264  151.0505 LP  0  0  0  0  0  0  0  0  0  0  0  0  # atno 17371 bound_to 10713
  140.0050  135.0012  157.0272 LP  0  0  0  0  0  0  0  0  0  0  0  0  # atno 17394 bound_to 11000
  140.4698  134.1398  155.7201 LP  0  0  0  0  0  0  0  0  0  0  0  0  # atno 17395 bound_to 11000

$$$$
