AV-unprocessed.smi:2569|AV-procd|sdf|10105|dock2
  -GOLD-   2272014123D 1   1.00000     0.00000
 Structure written by MMmdl.
 40 42  0  0  0  0  0  0  0  0  2 V2000
  152.0645  144.2271  161.1061 C   0  0  0  0  0  0  0  0  0  0  0  0
  151.9993  143.2455  159.9482 C   0  0  0  0  0  0  0  0  0  0  0  0
  151.1625  143.5506  158.8512 C   0  0  0  0  0  0  0  0  0  0  0  0
  151.1274  142.6349  157.8061 C   0  0  0  0  0  0  0  0  0  0  0  0
  150.4190  142.6476  156.6028 N   0  3  0  0  0  0  0  0  0  0  0  0
  150.7095  141.5227  155.8923 C   0  0  0  0  0  0  0  0  0  0  0  0
  151.5952  140.7928  156.6232 N   0  0  0  0  0  0  0  0  0  0  0  0
  152.2186  139.4973  156.3177 C   0  0  0  0  0  0  0  0  0  0  0  0
  151.7251  138.8875  154.9875 C   0  0  1  0  0  0  0  0  0  0  0  0
  152.7204  138.0519  154.4323 O   0  0  0  0  0  0  0  0  0  0  0  0
  150.4337  138.0585  155.1299 C   0  0  0  0  0  0  0  0  0  0  0  0
  150.5698  136.9656  156.0782 N   0  0  0  0  0  0  0  0  0  0  0  0
  151.4900  135.9871  155.8913 N   0  0  0  0  0  0  0  0  0  0  0  0
  151.3778  135.1705  156.8992 N   0  0  0  0  0  0  0  0  0  0  0  0
  150.3862  135.5810  157.7708 N   0  0  0  0  0  0  0  0  0  0  0  0
  149.9178  136.6908  157.2155 C   0  0  0  0  0  0  0  0  0  0  0  0
  148.8196  137.5384  157.7677 C   0  0  0  0  0  0  0  0  0  0  0  0
  151.8847  141.4474  157.8264 C   0  0  0  0  0  0  0  0  0  0  0  0
  152.7135  141.1315  158.9003 C   0  0  0  0  0  0  0  0  0  0  0  0
  152.7653  142.0512  159.9719 C   0  0  0  0  0  0  0  0  0  0  0  0
  153.6637  141.7343  161.1551 C   0  0  0  0  0  0  0  0  0  0  0  0
  151.4305  145.0962  160.9287 H   0  0  0  0  0  0  0  0  0  0  0  0
  153.0846  144.5840  161.2487 H   0  0  0  0  0  0  0  0  0  0  0  0
  151.7300  143.7532  162.0293 H   0  0  0  0  0  0  0  0  0  0  0  0
  150.5771  144.4583  158.8261 H   0  0  0  0  0  0  0  0  0  0  0  0
  150.3081  141.2567  154.9250 H   0  0  0  0  0  0  0  0  0  0  0  0
  153.3031  139.6096  156.3234 H   0  0  0  0  0  0  0  0  0  0  0  0
  151.9782  138.8329  157.1484 H   0  0  0  0  0  0  0  0  0  0  0  0
  151.5503  139.6946  154.2754 H   0  0  0  0  0  0  0  0  0  0  0  0
  152.3196  137.2333  154.1826 H   0  0  0  0  0  0  0  0  0  0  0  0
  149.6091  138.6938  155.4557 H   0  0  0  0  0  0  0  0  0  0  0  0
  150.1405  137.6472  154.1624 H   0  0  0  0  0  0  0  0  0  0  0  0
  148.3413  137.0387  158.6106 H   0  0  0  0  0  0  0  0  0  0  0  0
  148.0643  137.7251  157.0041 H   0  0  0  0  0  0  0  0  0  0  0  0
  149.2194  138.4925  158.1108 H   0  0  0  0  0  0  0  0  0  0  0  0
  153.3014  140.2257  158.9176 H   0  0  0  0  0  0  0  0  0  0  0  0
  154.1717  140.7783  161.0253 H   0  0  0  0  0  0  0  0  0  0  0  0
  153.0811  141.6793  162.0750 H   0  0  0  0  0  0  0  0  0  0  0  0
  154.4274  142.5032  161.2727 H   0  0  0  0  0  0  0  0  0  0  0  0
  149.7823  143.3684  156.2874 H   0  0  0  0  0  0  0  0  0  0  0  0
  1  2  1  0  0  0  0
  1 22  1  0  0  0  0
  1 23  1  0  0  0  0
  1 24  1  0  0  0  0
  2 20  1  0  0  0  0
  2  3  2  0  0  0  0
  3  4  1  0  0  0  0
  3 25  1  0  0  0  0
  4 18  2  0  0  0  0
  4  5  1  0  0  0  0
  5  6  2  0  0  0  0
  5 40  1  0  0  0  0
  6  7  1  0  0  0  0
  6 26  1  0  0  0  0
  7  8  1  0  0  0  0
  7 18  1  0  0  0  0
  8  9  1  0  0  0  0
  8 27  1  0  0  0  0
  8 28  1  0  0  0  0
  9 10  1  0  0  0  0
  9 11  1  0  0  0  0
  9 29  1  0  0  0  0
 10 30  1  0  0  0  0
 11 12  1  0  0  0  0
 11 31  1  0  0  0  0
 11 32  1  0  0  0  0
 12 16  1  0  0  0  0
 12 13  1  0  0  0  0
 13 14  2  0  0  0  0
 14 15  1  0  0  0  0
 15 16  2  0  0  0  0
 16 17  1  0  0  0  0
 17 33  1  0  0  0  0
 17 34  1  0  0  0  0
 17 35  1  0  0  0  0
 18 19  1  0  0  0  0
 19 20  2  0  0  0  0
 19 36  1  0  0  0  0
 20 21  1  0  0  0  0
 21 37  1  0  0  0  0
 21 38  1  0  0  0  0
 21 39  1  0  0  0  0
M  CHG  1   5   1
M  END
> <s_m_source_file>
AV-unprocessed.smi

> <i_m_source_file_index>
2569

> <i_lp_mmshare_version>
43012

> <i_f3d_flags>
0

> <s_epik_input>
W0NIM11jKFtjSF0xKWMoW0NIM10pW2NIXWMoYzEyKW4oW2NIXW4yKVtDSDJdW0NASF0oW09IXSlbQ0gyXW4zbm5uYzNbQ0gzXQ==

> <s_epik_cmdline>
J2VwaWtfcHl0aG9uJywgJy1waCcsICc3LjAnLCAnLXRuJywgJzgnLCAnLW1hJywgJzIwMCcsICctbWV0YWxfYmluZGluZycsICctaW1hZScsICc8aW5maWxlLm1hZT4nLCAnLW9tYWUnLCAnPG91dGZpbGUubWFlPic=

> <r_lp_tautomer_probability>
1

> <r_epik_Ionization_Penalty>
1.13338

> <r_epik_Ionization_Penalty_Charging>
1.13335

> <r_epik_Ionization_Penalty_Neutral>
3.02334e-05

> <r_epik_State_Penalty>
1.19324

> <r_epik_Charging_Adjusted_Penalty>
2.3266

> <i_epik_Tot_Q>
1

> <i_epik_Tot_abs_Q>
1

> <r_epik_Metal_State_Penalty>
1.27602

> <b_epik_Metal_Only>
0

> <s_lp_Force_Field>
OPLS_2005

> <r_lp_Energy>
16.0623

> <b_lp_Chiralities_Consistent>
1

> <s_lp_Variant>
AV-unprocessed.smi:2569-4

> <Gold.Version>
5.8.1

> <Gold.Id.Protein>
6NUR|6NUR_protein|mol2

> <Gold.PLP.Fitness>
53.1604

> <Gold.PLP.PLP>
-43.0133

> <Gold.PLP.part.hbond>
-4.5696

> <Gold.PLP.part.metal>
0.0000

> <Gold.PLP.part.buried>
-6.5065

> <Gold.PLP.part.nonpolar>
-31.2861

> <Gold.PLP.part.repulsive>
0.0973

> <Gold.PLP.ligand.clash>
0.0000

> <Gold.PLP.ligand.torsion>
0.3277

> <Gold.PLP.Chemscore.Hbond>
3.5920

> <Gold.PLP.Chemscore.CHOScore>
0.0000

> <Gold.PLP.Chemscore.Metal>
0.0000

> <Gold.Chemscore.Hbonds>
donor molecule, donor type, donor heavy atom, donor atom, acceptor molecule, acceptor atom, score
      L1  H     5    40       P1  8028  2.00
      P1  H  6896  6907       L1    15  0.55
      P1  H 10752 10765       L1    13  1.00

> <Gold.PLP.Chemscore.Internal.Correction>
0.0265

> <Gold.Rescore>
     Score         DG    S(hbond)    S(metal)    S(lipo)     H(rot)  DE(clash)    DE(int)     intcor
     16.71     -18.53       2.33        0.00     101.68       2.59       0.04       1.78       ----

> <Gold.Chemscore.Fitness>
16.7084

> <Gold.Chemscore.DG>
-18.5270

> <Gold.Chemscore.ZeroCoef>
-5.4800

> <Gold.Chemscore.Hbond>
2.3260

> <Gold.Chemscore.Metal>
0.0000

> <Gold.Chemscore.Lipo>
101.6816

> <Gold.Chemscore.Internal_Hbond>
0.0000

> <Gold.Chemscore.DEClash>
0.0361

> <Gold.Chemscore.DEInternal>
1.7825

> <Gold.Chemscore.Rot>
2.5854

> <Gold.Chemscore.Internal.Correction>
   9.000000E+99

> <Gold.Chemscore.Hbonds>
donor molecule, donor type, donor heavy atom, donor atom, acceptor molecule, acceptor atom, score
      L1  H     5    40       P1  8028  1.00
      P1  H  6896  6907       L1    15  0.24
      P1  H 10752 10765       L1    13  0.88

> <Gold.Chemscore.Hbond.Weighted>
-7.7689

> <Gold.Chemscore.Metal.Weighted>
-0.0000

> <Gold.Chemscore.Lipo.Weighted>
-11.8968

> <Gold.Chemscore.Internal_Hbond.Weighted>
0.0000

> <Gold.Chemscore.DEClash.Weighted>
0.0361

> <Gold.Chemscore.DEInternal.Weighted>
1.7825

> <Gold.Chemscore.Rot.Weighted>
6.6187

> <Gold.Chemscore.Internal.Correction.Weighted>
   9.000000E+99

> <Gold.Protein.RotatedTorsions>
[ 6907 6896 6895 6894 ] final  -82.76 input  -60.11 | X-H torsion
[ 7974 7965 7964 7962 ] final -140.65 input  175.53 | X-H torsion
[ 8008 7997 7996 7995 ] final  165.60 input   59.86 | X-H torsion
[ 10167 10162 10161 10158 ] final -120.18 input  -65.29 | X-H torsion
[ 10718 10713 10712 10709 ] final  124.78 input   66.30 | X-H torsion
[ 10763 10752 10751 10750 ] final -177.12 input  -60.55 | X-H torsion
[ 11005 11000 10999 10996 ] final  -12.91 input  -57.11 | X-H torsion

> <Gold.Protein.ActiveResidues>
 VAL166  LYS551  ARG553  GLY616  TRP617  ASP618  TYR619  PRO620  LYS621  CYS622 
 ASP623  PHE694  ASN695  SER759  ASP760  ASP761  ALA762  ILE779  LEU786  VAL792 
 PHE793  MET794  SER795  GLU796  ALA797  LYS798  CYS799  TRP800  GLU811  SER814 

> <Gold.Protein.RotatedAtoms>
  150.6893  134.3615  159.4952 H   0  0  0  0  0  0  0  0  0  0  0  0  # atno 6907 bound_to 6896
  152.1443  134.9035  160.0561 H   0  0  0  0  0  0  0  0  0  0  0  0  # atno 6908 bound_to 6896
  152.0157  133.3844  159.4274 H   0  0  0  0  0  0  0  0  0  0  0  0  # atno 6909 bound_to 6896
  144.8581  140.6175  143.5346 H   0  0  0  0  0  0  0  0  0  0  0  0  # atno 7974 bound_to 7965
  156.1787  140.1666  156.8314 H   0  0  0  0  0  0  0  0  0  0  0  0  # atno 8008 bound_to 7997
  154.5336  140.0751  156.8422 H   0  0  0  0  0  0  0  0  0  0  0  0  # atno 8009 bound_to 7997
  155.3356  140.3381  155.4241 H   0  0  0  0  0  0  0  0  0  0  0  0  # atno 8010 bound_to 7997
  140.0386  143.5176  152.2141 H   0  0  0  0  0  0  0  0  0  0  0  0  # atno 10167 bound_to 10162
  157.5557  131.1092  150.8626 H   0  0  0  0  0  0  0  0  0  0  0  0  # atno 10718 bound_to 10713
  154.5640  135.2822  155.0892 H   0  0  0  0  0  0  0  0  0  0  0  0  # atno 10763 bound_to 10752
  154.2290  135.6377  153.5173 H   0  0  0  0  0  0  0  0  0  0  0  0  # atno 10764 bound_to 10752
  153.0037  135.5532  154.6243 H   0  0  0  0  0  0  0  0  0  0  0  0  # atno 10765 bound_to 10752
  140.7706  133.8442  155.9203 H   0  0  0  0  0  0  0  0  0  0  0  0  # atno 11005 bound_to 11000
  145.4367  139.1541  143.3993 LP  0  0  0  0  0  0  0  0  0  0  0  0  # atno 17320 bound_to 7965
  146.2839  140.4486  142.8765 LP  0  0  0  0  0  0  0  0  0  0  0  0  # atno 17321 bound_to 7965
  139.6029  144.7588  151.3130 LP  0  0  0  0  0  0  0  0  0  0  0  0  # atno 17342 bound_to 10162
  140.7270  143.6974  150.7873 LP  0  0  0  0  0  0  0  0  0  0  0  0  # atno 17343 bound_to 10162
  156.9138  130.5290  149.5280 LP  0  0  0  0  0  0  0  0  0  0  0  0  # atno 17370 bound_to 10713
  156.0616  130.5667  150.9204 LP  0  0  0  0  0  0  0  0  0  0  0  0  # atno 17371 bound_to 10713
  140.9577  134.1696  157.4678 LP  0  0  0  0  0  0  0  0  0  0  0  0  # atno 17394 bound_to 11000
  139.8756  134.9933  156.5639 LP  0  0  0  0  0  0  0  0  0  0  0  0  # atno 17395 bound_to 11000

$$$$
