AV-unprocessed.smi:2725|AV-procd|sdf|10515|dock4
  -GOLD-   2272014553D 1   1.00000     0.00000
 Structure written by MMmdl.
 44 45  0  0  0  0  0  0  0  0  1 V2000
  150.7717  140.5008  155.3803 O   0  0  0  0  0  0  0  0  0  0  0  0
  150.3517  141.6263  155.6510 C   0  0  0  0  0  0  0  0  0  0  0  0
  151.1110  142.5358  156.6217 C   0  0  0  0  0  0  0  0  0  0  0  0
  150.9639  142.1156  158.0970 C   0  0  0  0  0  0  0  0  0  0  0  0
  151.9426  142.8477  159.0321 C   0  0  0  0  0  0  0  0  0  0  0  0
  152.4381  142.0096  160.2153 C   0  0  0  0  0  0  0  0  0  0  0  0
  152.9304  143.0258  161.2525 C   0  0  0  0  0  0  0  0  0  0  0  0
  152.2519  144.3601  160.9061 C   0  0  0  0  0  0  0  0  0  0  0  0
  151.3341  144.0757  159.7129 C   0  0  0  0  0  0  0  0  0  0  0  0
  149.2227  142.1334  155.1332 N   0  0  0  0  0  0  0  0  0  0  0  0
  148.3376  141.4457  154.1930 C   0  0  2  0  0  0  0  0  0  0  0  0
  147.1314  142.3530  153.8770 C   0  0  0  0  0  0  0  0  0  0  0  0
  146.8602  143.2098  154.9663 O   0  0  0  0  0  0  0  0  0  0  0  0
  147.8969  140.0702  154.7536 C   0  0  0  0  0  0  0  0  0  0  0  0
  147.0405  139.2415  153.8068 C   0  0  0  0  0  0  0  0  0  0  0  0
  146.4910  138.0095  154.2237 C   0  0  0  0  0  0  0  0  0  0  0  0
  145.6980  137.2845  153.3137 C   0  0  0  0  0  0  0  0  0  0  0  0
  145.4881  137.8142  152.0258 C   0  0  0  0  0  0  0  0  0  0  0  0
  146.0837  139.0501  151.7044 C   0  0  0  0  0  0  0  0  0  0  0  0
  146.8441  139.7540  152.5706 N   0  0  0  0  0  0  0  0  0  0  0  0
  152.1626  142.5366  156.3337 H   0  0  0  0  0  0  0  0  0  0  0  0
  150.7509  143.5585  156.4989 H   0  0  0  0  0  0  0  0  0  0  0  0
  149.9444  142.3204  158.4272 H   0  0  0  0  0  0  0  0  0  0  0  0
  151.1054  141.0379  158.1941 H   0  0  0  0  0  0  0  0  0  0  0  0
  152.8081  143.1777  158.4553 H   0  0  0  0  0  0  0  0  0  0  0  0
  151.6105  141.4363  160.6361 H   0  0  0  0  0  0  0  0  0  0  0  0
  153.2164  141.3016  159.9297 H   0  0  0  0  0  0  0  0  0  0  0  0
  152.6929  142.7005  162.2657 H   0  0  0  0  0  0  0  0  0  0  0  0
  154.0137  143.1346  161.1907 H   0  0  0  0  0  0  0  0  0  0  0  0
  151.6966  144.7698  161.7505 H   0  0  0  0  0  0  0  0  0  0  0  0
  153.0085  145.0942  160.6267 H   0  0  0  0  0  0  0  0  0  0  0  0
  151.2508  144.9295  159.0398 H   0  0  0  0  0  0  0  0  0  0  0  0
  150.3318  143.8419  160.0748 H   0  0  0  0  0  0  0  0  0  0  0  0
  148.9550  143.0675  155.4076 H   0  0  0  0  0  0  0  0  0  0  0  0
  148.8706  141.2567  153.2589 H   0  0  0  0  0  0  0  0  0  0  0  0
  147.3507  142.9900  153.0197 H   0  0  0  0  0  0  0  0  0  0  0  0
  146.2428  141.7738  153.6226 H   0  0  0  0  0  0  0  0  0  0  0  0
  147.6463  143.6924  155.1721 H   0  0  0  0  0  0  0  0  0  0  0  0
  148.7711  139.4877  155.0475 H   0  0  0  0  0  0  0  0  0  0  0  0
  147.3323  140.2237  155.6743 H   0  0  0  0  0  0  0  0  0  0  0  0
  146.6677  137.6309  155.2199 H   0  0  0  0  0  0  0  0  0  0  0  0
  145.2588  136.3399  153.5985 H   0  0  0  0  0  0  0  0  0  0  0  0
  144.8862  137.2859  151.3013 H   0  0  0  0  0  0  0  0  0  0  0  0
  145.9451  139.4859  150.7260 H   0  0  0  0  0  0  0  0  0  0  0  0
  1  2  2  0  0  0  0
  2  3  1  0  0  0  0
  2 10  1  0  0  0  0
  3  4  1  0  0  0  0
  3 21  1  0  0  0  0
  3 22  1  0  0  0  0
  4  5  1  0  0  0  0
  4 23  1  0  0  0  0
  4 24  1  0  0  0  0
  5  9  1  0  0  0  0
  5  6  1  0  0  0  0
  5 25  1  0  0  0  0
  6  7  1  0  0  0  0
  6 26  1  0  0  0  0
  6 27  1  0  0  0  0
  7  8  1  0  0  0  0
  7 28  1  0  0  0  0
  7 29  1  0  0  0  0
  8  9  1  0  0  0  0
  8 30  1  0  0  0  0
  8 31  1  0  0  0  0
  9 32  1  0  0  0  0
  9 33  1  0  0  0  0
 10 11  1  0  0  0  0
 10 34  1  0  0  0  0
 11 12  1  0  0  0  0
 11 14  1  0  0  0  0
 11 35  1  0  0  0  0
 12 13  1  0  0  0  0
 12 36  1  0  0  0  0
 12 37  1  0  0  0  0
 13 38  1  0  0  0  0
 14 15  1  0  0  0  0
 14 39  1  0  0  0  0
 14 40  1  0  0  0  0
 15 20  1  0  0  0  0
 15 16  2  0  0  0  0
 16 17  1  0  0  0  0
 16 41  1  0  0  0  0
 17 18  2  0  0  0  0
 17 42  1  0  0  0  0
 18 19  1  0  0  0  0
 18 43  1  0  0  0  0
 19 20  2  0  0  0  0
 19 44  1  0  0  0  0
M  END
> <s_m_source_file>
AV-unprocessed.smi

> <i_m_source_file_index>
2725

> <i_lp_mmshare_version>
43012

> <i_f3d_flags>
0

> <s_epik_input>
W0NIMl0xW0NIMl1bQ0gyXVtDSDJdW0NIXTFbQ0gyXVtDSDJdQyg9TylbTkhdW0NASF0oW0NIMl1bT0hdKVtDSDJdYzJbY0hdW2NIXVtjSF1bY0hdbjI=

> <s_epik_cmdline>
J2VwaWtfcHl0aG9uJywgJy1waCcsICc3LjAnLCAnLXRuJywgJzgnLCAnLW1hJywgJzIwMCcsICctbWV0YWxfYmluZGluZycsICctaW1hZScsICc8aW5maWxlLm1hZT4nLCAnLW9tYWUnLCAnPG91dGZpbGUubWFlPic=

> <r_epik_Ionization_Penalty>
0.0257016

> <r_epik_Ionization_Penalty_Charging>
0

> <r_epik_Ionization_Penalty_Neutral>
0.0257016

> <r_epik_State_Penalty>
0.0209381

> <r_epik_Charging_Adjusted_Penalty>
0.0209381

> <i_epik_Tot_Q>
0

> <i_epik_Tot_abs_Q>
0

> <r_epik_Metal_State_Penalty>
0.0200649

> <b_epik_Metal_Only>
0

> <s_lp_Force_Field>
OPLS_2005

> <r_lp_Energy>
24.7076

> <b_lp_Chiralities_Consistent>
1

> <s_lp_Variant>
AV-unprocessed.smi:2725-1

> <Gold.Version>
5.8.1

> <Gold.Id.Protein>
6NUR|6NUR_protein|mol2

> <Gold.PLP.Fitness>
49.2627

> <Gold.PLP.PLP>
-40.5982

> <Gold.PLP.part.hbond>
-3.0000

> <Gold.PLP.part.metal>
0.0000

> <Gold.PLP.part.buried>
-4.1895

> <Gold.PLP.part.nonpolar>
-33.5973

> <Gold.PLP.part.repulsive>
1.7878

> <Gold.PLP.ligand.clash>
0.0000

> <Gold.PLP.ligand.torsion>
1.1610

> <Gold.PLP.Chemscore.Hbond>
2.9260

> <Gold.PLP.Chemscore.CHOScore>
0.6913

> <Gold.PLP.Chemscore.Metal>
0.0000

> <Gold.Chemscore.Hbonds>
donor molecule, donor type, donor heavy atom, donor atom, acceptor molecule, acceptor atom, score
      L1  H    10    34       P1  8028  1.00
      L1  H    13    38       P1  8028  0.70
      P1  H  7989  7998       L1     1  0.81
      L1  C    19    44       P1 10171  0.58

> <Gold.PLP.Chemscore.Internal.Correction>
0.1347

> <Gold.Rescore>
     Score         DG    S(hbond)    S(metal)    S(lipo)     H(rot)  DE(clash)    DE(int)     intcor
     13.45     -18.71       1.53        0.00     122.70       2.44       2.15       3.11       ----

> <Gold.Chemscore.Fitness>
13.4503

> <Gold.Chemscore.DG>
-18.7089

> <Gold.Chemscore.ZeroCoef>
-5.4800

> <Gold.Chemscore.Hbond>
1.5340

> <Gold.Chemscore.Metal>
0.0000

> <Gold.Chemscore.Lipo>
122.7001

> <Gold.Chemscore.Internal_Hbond>
0.0000

> <Gold.Chemscore.DEClash>
2.1528

> <Gold.Chemscore.DEInternal>
3.1058

> <Gold.Chemscore.Rot>
2.4416

> <Gold.Chemscore.Internal.Correction>
   9.000000E+99

> <Gold.Chemscore.Hbonds>
donor molecule, donor type, donor heavy atom, donor atom, acceptor molecule, acceptor atom, score
      L1  H    10    34       P1  8028  1.00
      L1  H    13    38       P1  8028  0.07
      P1  H  7989  7998       L1     1  0.20

> <Gold.Chemscore.Hbond.Weighted>
-5.1236

> <Gold.Chemscore.Metal.Weighted>
-0.0000

> <Gold.Chemscore.Lipo.Weighted>
-14.3559

> <Gold.Chemscore.Internal_Hbond.Weighted>
0.0000

> <Gold.Chemscore.DEClash.Weighted>
2.1528

> <Gold.Chemscore.DEInternal.Weighted>
3.1058

> <Gold.Chemscore.Rot.Weighted>
6.2505

> <Gold.Chemscore.Internal.Correction.Weighted>
   9.000000E+99

> <Gold.Protein.RotatedTorsions>
[ 6907 6896 6895 6894 ] final  159.28 input  -60.11 | X-H torsion
[ 7974 7965 7964 7962 ] final -141.07 input  175.53 | X-H torsion
[ 8008 7997 7996 7995 ] final  148.08 input   59.86 | X-H torsion
[ 10167 10162 10161 10158 ] final  107.28 input  -65.29 | X-H torsion
[ 10718 10713 10712 10709 ] final  148.17 input   66.30 | X-H torsion
[ 10763 10752 10751 10750 ] final  173.03 input  -60.55 | X-H torsion
[ 11005 11000 10999 10996 ] final   -3.62 input  -57.11 | X-H torsion

> <Gold.Protein.ActiveResidues>
 VAL166  LYS551  ARG553  GLY616  TRP617  ASP618  TYR619  PRO620  LYS621  CYS622 
 ASP623  PHE694  ASN695  SER759  ASP760  ASP761  ALA762  ILE779  LEU786  VAL792 
 PHE793  MET794  SER795  GLU796  ALA797  LYS798  CYS799  TRP800  GLU811  SER814 

> <Gold.Protein.RotatedAtoms>
  151.9879  133.3780  159.4132 H   0  0  0  0  0  0  0  0  0  0  0  0  # atno 6907 bound_to 6896
  150.6926  134.3969  159.5110 H   0  0  0  0  0  0  0  0  0  0  0  0  # atno 6908 bound_to 6896
  152.1698  134.8844  160.0586 H   0  0  0  0  0  0  0  0  0  0  0  0  # atno 6909 bound_to 6896
  144.8547  140.6123  143.5367 H   0  0  0  0  0  0  0  0  0  0  0  0  # atno 7974 bound_to 7965
  156.2803  140.2138  156.5640 H   0  0  0  0  0  0  0  0  0  0  0  0  # atno 8008 bound_to 7997
  154.7190  140.0505  157.0644 H   0  0  0  0  0  0  0  0  0  0  0  0  # atno 8009 bound_to 7997
  155.0504  140.3155  155.4697 H   0  0  0  0  0  0  0  0  0  0  0  0  # atno 8010 bound_to 7997
  139.6940  144.7104  151.1299 H   0  0  0  0  0  0  0  0  0  0  0  0  # atno 10167 bound_to 10162
  157.3119  131.0889  151.1309 H   0  0  0  0  0  0  0  0  0  0  0  0  # atno 10718 bound_to 10713
  154.4343  135.2760  155.1891 H   0  0  0  0  0  0  0  0  0  0  0  0  # atno 10763 bound_to 10752
  154.3784  135.6093  153.5781 H   0  0  0  0  0  0  0  0  0  0  0  0  # atno 10764 bound_to 10752
  152.9837  135.5874  154.4660 H   0  0  0  0  0  0  0  0  0  0  0  0  # atno 10765 bound_to 10752
  140.6713  133.9234  155.8496 H   0  0  0  0  0  0  0  0  0  0  0  0  # atno 11005 bound_to 11000
  145.4429  139.1533  143.3960 LP  0  0  0  0  0  0  0  0  0  0  0  0  # atno 17320 bound_to 7965
  146.2814  140.4551  142.8775 LP  0  0  0  0  0  0  0  0  0  0  0  0  # atno 17321 bound_to 7965
  140.7691  143.5518  150.9195 LP  0  0  0  0  0  0  0  0  0  0  0  0  # atno 17342 bound_to 10162
  139.9197  143.6620  152.3099 LP  0  0  0  0  0  0  0  0  0  0  0  0  # atno 17343 bound_to 10162
  157.2628  130.6667  149.5982 LP  0  0  0  0  0  0  0  0  0  0  0  0  # atno 17370 bound_to 10713
  155.9678  130.4503  150.5693 LP  0  0  0  0  0  0  0  0  0  0  0  0  # atno 17371 bound_to 10713
  141.0390  134.0649  157.3925 LP  0  0  0  0  0  0  0  0  0  0  0  0  # atno 17394 bound_to 11000
  139.8981  135.0153  156.7130 LP  0  0  0  0  0  0  0  0  0  0  0  0  # atno 17395 bound_to 11000

$$$$
