AV-unprocessed.smi:2886|AV-procd|sdf|11088|dock1
  -GOLD-   2272015563D 1   1.00000     0.00000
 Structure written by MMmdl.
 28 30  0  0  0  0  0  0  0  0  1 V2000
  142.1649  131.7573  158.5550 O   0  0  0  0  0  0  0  0  0  0  0  0
  142.9219  132.7260  158.5493 C   0  0  0  0  0  0  0  0  0  0  0  0
  143.4426  133.2092  157.3969 N   0  0  0  0  0  0  0  0  0  0  0  0
  144.3016  134.2736  157.2698 N   0  0  0  0  0  0  0  0  0  0  0  0
  144.6608  134.9027  158.3362 C   0  0  0  0  0  0  0  0  0  0  0  0
  144.1898  134.5362  159.6678 C   0  0  0  0  0  0  0  0  0  0  0  0
  144.5780  135.2145  160.8160 N   0  0  0  0  0  0  0  0  0  0  0  0
  145.4738  136.3565  160.9397 C   0  0  1  0  0  0  0  0  0  0  0  0
  145.4352  137.0019  162.3254 C   0  0  0  0  0  0  0  0  0  0  0  0
  146.9219  136.9960  162.7104 C   0  0  1  0  0  0  0  0  0  0  0  0
  147.3959  135.5901  163.1007 C   0  0  0  0  0  0  0  0  0  0  0  0
  147.4302  134.8862  161.7454 C   0  0  0  0  0  0  0  0  0  0  0  0
  146.9637  136.0019  160.7950 C   0  0  2  0  0  0  0  0  0  0  0  0
  147.5348  137.1293  161.4378 O   0  0  0  0  0  0  0  0  0  0  0  0
  143.3504  133.4663  159.7442 C   0  0  0  0  0  0  0  0  0  0  0  0
  142.7422  132.9339  161.2760 Cl  0  0  0  0  0  0  0  0  0  0  0  0
  143.2024  132.7644  156.5226 H   0  0  0  0  0  0  0  0  0  0  0  0
  145.3480  135.7464  158.2846 H   0  0  0  0  0  0  0  0  0  0  0  0
  144.0805  134.9805  161.6637 H   0  0  0  0  0  0  0  0  0  0  0  0
  145.2110  137.1200  160.2075 H   0  0  0  0  0  0  0  0  0  0  0  0
  145.0524  138.0206  162.2586 H   0  0  0  0  0  0  0  0  0  0  0  0
  144.8242  136.4573  163.0470 H   0  0  0  0  0  0  0  0  0  0  0  0
  147.1971  137.7703  163.4270 H   0  0  0  0  0  0  0  0  0  0  0  0
  148.3942  135.6241  163.5387 H   0  0  0  0  0  0  0  0  0  0  0  0
  146.7259  135.1077  163.8131 H   0  0  0  0  0  0  0  0  0  0  0  0
  148.4487  134.5799  161.5047 H   0  0  0  0  0  0  0  0  0  0  0  0
  146.7965  133.9998  161.7094 H   0  0  0  0  0  0  0  0  0  0  0  0
  147.2843  135.8643  159.7619 H   0  0  0  0  0  0  0  0  0  0  0  0
  1  2  2  0  0  0  0
  2 15  1  0  0  0  0
  2  3  1  0  0  0  0
  3 17  1  0  0  0  0
  3  4  1  0  0  0  0
  4  5  2  0  0  0  0
  5  6  1  0  0  0  0
  5 18  1  0  0  0  0
  6  7  1  0  0  0  0
  6 15  2  0  0  0  0
  7  8  1  0  0  0  0
  7 19  1  0  0  0  0
  8 13  1  0  0  0  0
  8  9  1  0  0  0  0
  8 20  1  0  0  0  0
  9 10  1  0  0  0  0
  9 21  1  0  0  0  0
  9 22  1  0  0  0  0
 10 14  1  0  0  0  0
 10 11  1  0  0  0  0
 10 23  1  0  0  0  0
 11 12  1  0  0  0  0
 11 24  1  0  0  0  0
 11 25  1  0  0  0  0
 12 13  1  0  0  0  0
 12 26  1  0  0  0  0
 12 27  1  0  0  0  0
 13 14  1  0  0  0  0
 13 28  1  0  0  0  0
 15 16  1  0  0  0  0
M  END
> <s_m_source_file>
AV-unprocessed.smi

> <i_m_source_file_index>
2886

> <i_lp_mmshare_version>
43012

> <i_f3d_flags>
0

> <s_epik_input>
Tz1jMVtuSF1uW2NIXWMoYzFDbClbTkhdW0NASF0oW0NIMl1bQ0BASF0yMylbQ0BASF0oTzMpW0NIMl1bQ0gyXTI=

> <s_epik_cmdline>
J2VwaWtfcHl0aG9uJywgJy1waCcsICc3LjAnLCAnLXRuJywgJzgnLCAnLW1hJywgJzIwMCcsICctbWV0YWxfYmluZGluZycsICctaW1hZScsICc8aW5maWxlLm1hZT4nLCAnLW9tYWUnLCAnPG91dGZpbGUubWFlPic=

> <r_lp_tautomer_probability>
0.986175

> <r_epik_Ionization_Penalty>
0.000975594

> <r_epik_Ionization_Penalty_Charging>
0.000940184

> <r_epik_Ionization_Penalty_Neutral>
3.54099e-05

> <r_epik_State_Penalty>
0.00620319

> <r_epik_Charging_Adjusted_Penalty>
0.00714337

> <i_epik_Tot_Q>
0

> <i_epik_Tot_abs_Q>
0

> <r_epik_Metal_State_Penalty>
0.287699

> <b_epik_Metal_Only>
0

> <s_lp_Force_Field>
OPLS_2005

> <r_lp_Energy>
55.2825

> <b_lp_Chiralities_Consistent>
1

> <s_lp_Variant>
AV-unprocessed.smi:2886-2

> <Gold.Version>
5.8.1

> <Gold.Id.Protein>
6NUR|6NUR_protein|mol2

> <Gold.PLP.Fitness>
31.1296

> <Gold.PLP.PLP>
-22.9058

> <Gold.PLP.part.hbond>
-3.3165

> <Gold.PLP.part.metal>
0.0000

> <Gold.PLP.part.buried>
-4.1909

> <Gold.PLP.part.nonpolar>
-16.7291

> <Gold.PLP.part.repulsive>
0.2076

> <Gold.PLP.ligand.clash>
0.0000

> <Gold.PLP.ligand.torsion>
0.1635

> <Gold.PLP.Chemscore.Hbond>
2.8473

> <Gold.PLP.Chemscore.CHOScore>
0.0000

> <Gold.PLP.Chemscore.Metal>
0.0000

> <Gold.Chemscore.Hbonds>
donor molecule, donor type, donor heavy atom, donor atom, acceptor molecule, acceptor atom, score
      L1  H     3    17       P1 10957  1.00
      P1  H  6931  6943       L1    14  0.98
      P1  H  6934  6947       L1    14  0.88

> <Gold.PLP.Chemscore.Internal.Correction>
0.0090

> <Gold.Rescore>
     Score         DG    S(hbond)    S(metal)    S(lipo)     H(rot)  DE(clash)    DE(int)     intcor
     16.64     -16.79       2.33        0.00      52.13       1.00       0.00       0.15       ----

> <Gold.Chemscore.Fitness>
16.6406

> <Gold.Chemscore.DG>
-16.7949

> <Gold.Chemscore.ZeroCoef>
-5.4800

> <Gold.Chemscore.Hbond>
2.3279

> <Gold.Chemscore.Metal>
0.0000

> <Gold.Chemscore.Lipo>
52.1346

> <Gold.Chemscore.Internal_Hbond>
0.0000

> <Gold.Chemscore.DEClash>
0.0021

> <Gold.Chemscore.DEInternal>
0.1521

> <Gold.Chemscore.Rot>
1.0000

> <Gold.Chemscore.Internal.Correction>
   9.000000E+99

> <Gold.Chemscore.Hbonds>
donor molecule, donor type, donor heavy atom, donor atom, acceptor molecule, acceptor atom, score
      L1  H     3    17       P1 10957  0.93
      P1  H  6931  6943       L1    14  0.24
      P1  H  6934  6947       L1    14  0.38

> <Gold.Chemscore.Hbond.Weighted>
-7.7751

> <Gold.Chemscore.Metal.Weighted>
-0.0000

> <Gold.Chemscore.Lipo.Weighted>
-6.0997

> <Gold.Chemscore.Internal_Hbond.Weighted>
0.0000

> <Gold.Chemscore.DEClash.Weighted>
0.0021

> <Gold.Chemscore.DEInternal.Weighted>
0.1521

> <Gold.Chemscore.Rot.Weighted>
2.5600

> <Gold.Chemscore.Internal.Correction.Weighted>
   9.000000E+99

> <Gold.Protein.RotatedTorsions>
[ 6907 6896 6895 6894 ] final  -42.18 input  -60.11 | X-H torsion
[ 7974 7965 7964 7962 ] final  -57.97 input  175.53 | X-H torsion
[ 8008 7997 7996 7995 ] final -155.06 input   59.86 | X-H torsion
[ 10167 10162 10161 10158 ] final -127.21 input  -65.29 | X-H torsion
[ 10718 10713 10712 10709 ] final   40.74 input   66.30 | X-H torsion
[ 10763 10752 10751 10750 ] final -175.87 input  -60.55 | X-H torsion
[ 11005 11000 10999 10996 ] final   42.81 input  -57.11 | X-H torsion

> <Gold.Protein.ActiveResidues>
 VAL166  LYS551  ARG553  GLY616  TRP617  ASP618  TYR619  PRO620  LYS621  CYS622 
 ASP623  PHE694  ASN695  SER759  ASP760  ASP761  ALA762  ILE779  LEU786  VAL792 
 PHE793  MET794  SER795  GLU796  ALA797  LYS798  CYS799  TRP800  GLU811  SER814 

> <Gold.Protein.RotatedAtoms>
  150.9582  134.8973  159.7713 H   0  0  0  0  0  0  0  0  0  0  0  0  # atno 6907 bound_to 6896
  152.5146  134.3710  159.9328 H   0  0  0  0  0  0  0  0  0  0  0  0  # atno 6908 bound_to 6896
  151.3724  133.3810  159.2736 H   0  0  0  0  0  0  0  0  0  0  0  0  # atno 6909 bound_to 6896
  145.8448  140.8393  143.0016 H   0  0  0  0  0  0  0  0  0  0  0  0  # atno 7974 bound_to 7965
  155.6961  140.0761  157.2429 H   0  0  0  0  0  0  0  0  0  0  0  0  # atno 8008 bound_to 7997
  154.4080  140.1656  156.2192 H   0  0  0  0  0  0  0  0  0  0  0  0  # atno 8009 bound_to 7997
  155.9409  140.3384  155.6330 H   0  0  0  0  0  0  0  0  0  0  0  0  # atno 8010 bound_to 7997
  139.9633  143.5926  152.2438 H   0  0  0  0  0  0  0  0  0  0  0  0  # atno 10167 bound_to 10162
  157.3856  130.7778  149.7228 H   0  0  0  0  0  0  0  0  0  0  0  0  # atno 10718 bound_to 10713
  154.5792  135.2834  155.0750 H   0  0  0  0  0  0  0  0  0  0  0  0  # atno 10763 bound_to 10752
  154.2093  135.6411  153.5114 H   0  0  0  0  0  0  0  0  0  0  0  0  # atno 10764 bound_to 10752
  153.0082  135.5488  154.6440 H   0  0  0  0  0  0  0  0  0  0  0  0  # atno 10765 bound_to 10752
  140.1703  134.4230  155.8261 H   0  0  0  0  0  0  0  0  0  0  0  0  # atno 11005 bound_to 11000
  144.6731  140.0865  143.7467 LP  0  0  0  0  0  0  0  0  0  0  0  0  # atno 17320 bound_to 7965
  145.9424  139.2678  143.1260 LP  0  0  0  0  0  0  0  0  0  0  0  0  # atno 17321 bound_to 7965
  139.6537  144.7661  151.2097 LP  0  0  0  0  0  0  0  0  0  0  0  0  # atno 17342 bound_to 10162
  140.7546  143.6119  150.8597 LP  0  0  0  0  0  0  0  0  0  0  0  0  # atno 17343 bound_to 10162
  155.9786  130.4049  150.3639 LP  0  0  0  0  0  0  0  0  0  0  0  0  # atno 17370 bound_to 10713
  157.1749  131.0378  151.2777 LP  0  0  0  0  0  0  0  0  0  0  0  0  # atno 17371 bound_to 10713
  141.2217  133.6953  156.7752 LP  0  0  0  0  0  0  0  0  0  0  0  0  # atno 17394 bound_to 11000
  140.2385  134.8632  157.3549 LP  0  0  0  0  0  0  0  0  0  0  0  0  # atno 17395 bound_to 11000

$$$$
