AV-unprocessed.smi:1693|AV-procd|sdf|6785|dock1
  -GOLD-   22720 7543D 1   1.00000     0.00000
 Structure written by MMmdl.
 36 37  0  0  0  0  0  0  0  0  1 V2000
  150.4300  142.1492  155.9645 C   0  0  0  0  0  0  0  0  0  0  0  0
  150.0834  140.9266  155.1856 C   0  0  0  0  0  0  0  0  0  0  0  0
  150.9899  140.0043  154.8399 N   0  0  0  0  0  0  0  0  0  0  0  0
  150.4281  138.9575  154.1224 N   0  0  0  0  0  0  0  0  0  0  0  0
  149.1096  139.1225  153.9477 C   0  0  0  0  0  0  0  0  0  0  0  0
  148.2838  138.2005  153.2520 N   0  0  0  0  0  0  0  0  0  0  0  0
  146.9410  138.1535  153.2060 C   0  0  0  0  0  0  0  0  0  0  0  0
  146.1809  138.9289  153.7861 O   0  0  0  0  0  0  0  0  0  0  0  0
  146.5205  137.1374  152.4395 N   0  0  0  0  0  0  0  0  0  0  0  0
  145.1236  136.7737  152.2139 C   0  0  0  0  0  0  0  0  0  0  0  0
  144.9517  135.5133  151.3279 C   0  0  0  0  0  0  0  0  0  0  0  0
  145.0034  135.9426  149.9796 O   0  0  0  0  0  0  0  0  0  0  0  0
  146.1515  134.5596  151.5465 C   0  0  0  0  0  0  0  0  0  0  0  0
  146.0231  133.2354  150.7725 C   0  0  0  0  0  0  0  0  0  0  0  0
  144.7027  132.5262  151.1008 C   0  0  0  0  0  0  0  0  0  0  0  0
  143.5060  133.4419  150.8115 C   0  0  0  0  0  0  0  0  0  0  0  0
  143.6133  134.7711  151.5800 C   0  0  0  0  0  0  0  0  0  0  0  0
  148.4422  140.5857  154.6513 S   0  0  0  0  0  0  0  0  0  0  0  0
  151.5018  142.1891  156.1624 H   0  0  0  0  0  0  0  0  0  0  0  0
  149.8990  142.1469  156.9164 H   0  0  0  0  0  0  0  0  0  0  0  0
  150.1447  143.0403  155.4055 H   0  0  0  0  0  0  0  0  0  0  0  0
  148.7742  137.4922  152.7264 H   0  0  0  0  0  0  0  0  0  0  0  0
  147.2166  136.5532  152.0006 H   0  0  0  0  0  0  0  0  0  0  0  0
  144.5824  136.6688  153.1563 H   0  0  0  0  0  0  0  0  0  0  0  0
  144.6723  137.6290  151.7103 H   0  0  0  0  0  0  0  0  0  0  0  0
  144.7853  136.8613  149.9491 H   0  0  0  0  0  0  0  0  0  0  0  0
  147.0841  135.0553  151.2731 H   0  0  0  0  0  0  0  0  0  0  0  0
  146.2369  134.3273  152.6089 H   0  0  0  0  0  0  0  0  0  0  0  0
  146.0819  133.4236  149.6998 H   0  0  0  0  0  0  0  0  0  0  0  0
  146.8631  132.5841  151.0148 H   0  0  0  0  0  0  0  0  0  0  0  0
  144.6182  131.6082  150.5187 H   0  0  0  0  0  0  0  0  0  0  0  0
  144.6948  132.2305  152.1506 H   0  0  0  0  0  0  0  0  0  0  0  0
  143.4472  133.6389  149.7404 H   0  0  0  0  0  0  0  0  0  0  0  0
  142.5790  132.9347  151.0800 H   0  0  0  0  0  0  0  0  0  0  0  0
  143.5141  134.5676  152.6471 H   0  0  0  0  0  0  0  0  0  0  0  0
  142.7654  135.4020  151.3108 H   0  0  0  0  0  0  0  0  0  0  0  0
  1  2  1  0  0  0  0
  1 19  1  0  0  0  0
  1 20  1  0  0  0  0
  1 21  1  0  0  0  0
  2 18  1  0  0  0  0
  2  3  2  0  0  0  0
  3  4  1  0  0  0  0
  4  5  2  0  0  0  0
  5  6  1  0  0  0  0
  5 18  1  0  0  0  0
  6  7  1  0  0  0  0
  6 22  1  0  0  0  0
  7  8  2  0  0  0  0
  7  9  1  0  0  0  0
  9 10  1  0  0  0  0
  9 23  1  0  0  0  0
 10 11  1  0  0  0  0
 10 24  1  0  0  0  0
 10 25  1  0  0  0  0
 11 17  1  0  0  0  0
 11 12  1  0  0  0  0
 11 13  1  0  0  0  0
 12 26  1  0  0  0  0
 13 14  1  0  0  0  0
 13 27  1  0  0  0  0
 13 28  1  0  0  0  0
 14 15  1  0  0  0  0
 14 29  1  0  0  0  0
 14 30  1  0  0  0  0
 15 16  1  0  0  0  0
 15 31  1  0  0  0  0
 15 32  1  0  0  0  0
 16 17  1  0  0  0  0
 16 33  1  0  0  0  0
 16 34  1  0  0  0  0
 17 35  1  0  0  0  0
 17 36  1  0  0  0  0
M  END
> <s_m_source_file>
AV-unprocessed.smi

> <i_m_source_file_index>
1693

> <i_lp_mmshare_version>
43012

> <i_f3d_flags>
0

> <s_epik_input>
W0NIM11jMW5uYyhzMSlbTkhdQyg9TylbTkhdW0NIMl1DMihbT0hdKVtDSDJdW0NIMl1bQ0gyXVtDSDJdW0NIMl0y

> <s_epik_cmdline>
J2VwaWtfcHl0aG9uJywgJy1waCcsICc3LjAnLCAnLXRuJywgJzgnLCAnLW1hJywgJzIwMCcsICctbWV0YWxfYmluZGluZycsICctaW1hZScsICc8aW5maWxlLm1hZT4nLCAnLW9tYWUnLCAnPG91dGZpbGUubWFlPic=

> <r_lp_tautomer_probability>
1

> <r_epik_Ionization_Penalty>
0.000488803

> <r_epik_Ionization_Penalty_Charging>
0

> <r_epik_Ionization_Penalty_Neutral>
0.000488803

> <r_epik_State_Penalty>
-0

> <r_epik_Charging_Adjusted_Penalty>
0

> <i_epik_Tot_Q>
0

> <i_epik_Tot_abs_Q>
0

> <r_epik_Metal_State_Penalty>
0.215163

> <b_epik_Metal_Only>
0

> <s_lp_Force_Field>
OPLS_2005

> <r_lp_Energy>
12.5822

> <b_lp_Chiralities_Consistent>
1

> <s_lp_Variant>
AV-unprocessed.smi:1693-1

> <Gold.Version>
5.8.1

> <Gold.Id.Protein>
6NUR|6NUR_protein|mol2

> <Gold.PLP.Fitness>
40.2491

> <Gold.PLP.PLP>
-30.0931

> <Gold.PLP.part.hbond>
-5.5890

> <Gold.PLP.part.metal>
0.0000

> <Gold.PLP.part.buried>
-1.9336

> <Gold.PLP.part.nonpolar>
-23.4744

> <Gold.PLP.part.repulsive>
0.4751

> <Gold.PLP.ligand.clash>
0.0000

> <Gold.PLP.ligand.torsion>
0.4936

> <Gold.PLP.Chemscore.Hbond>
3.7120

> <Gold.PLP.Chemscore.CHOScore>
0.0000

> <Gold.PLP.Chemscore.Metal>
0.0000

> <Gold.Chemscore.Hbonds>
donor molecule, donor type, donor heavy atom, donor atom, acceptor molecule, acceptor atom, score
      L1  H     6    22       P1  7948  0.98
      L1  H     9    23       P1  7948  0.91
      L1  H    12    26       P1 10171  1.00
      P1  H  7989  7998       L1     3  0.68

> <Gold.PLP.Chemscore.Internal.Correction>
0.0072

> <Gold.Rescore>
     Score         DG    S(hbond)    S(metal)    S(lipo)     H(rot)  DE(clash)    DE(int)     intcor
     15.66     -17.64       2.94        0.00      60.62       1.86       0.41       1.57       ----

> <Gold.Chemscore.Fitness>
15.6626

> <Gold.Chemscore.DG>
-17.6371

> <Gold.Chemscore.ZeroCoef>
-5.4800

> <Gold.Chemscore.Hbond>
2.9397

> <Gold.Chemscore.Metal>
0.0000

> <Gold.Chemscore.Lipo>
60.6209

> <Gold.Chemscore.Internal_Hbond>
0.0000

> <Gold.Chemscore.DEClash>
0.4067

> <Gold.Chemscore.DEInternal>
1.5678

> <Gold.Chemscore.Rot>
1.8570

> <Gold.Chemscore.Internal.Correction>
   9.000000E+99

> <Gold.Chemscore.Hbonds>
donor molecule, donor type, donor heavy atom, donor atom, acceptor molecule, acceptor atom, score
      L1  H     6    22       P1  7948  0.91
      L1  H     9    23       P1  7948  0.90
      L1  H    12    26       P1 10171  0.99
      P1  H  7989  7998       L1     3  0.02

> <Gold.Chemscore.Hbond.Weighted>
-9.8184

> <Gold.Chemscore.Metal.Weighted>
-0.0000

> <Gold.Chemscore.Lipo.Weighted>
-7.0926

> <Gold.Chemscore.Internal_Hbond.Weighted>
0.0000

> <Gold.Chemscore.DEClash.Weighted>
0.4067

> <Gold.Chemscore.DEInternal.Weighted>
1.5678

> <Gold.Chemscore.Rot.Weighted>
4.7540

> <Gold.Chemscore.Internal.Correction.Weighted>
   9.000000E+99

> <Gold.Protein.RotatedTorsions>
[ 6907 6896 6895 6894 ] final   95.89 input  -60.11 | X-H torsion
[ 7974 7965 7964 7962 ] final  172.72 input  175.53 | X-H torsion
[ 8008 7997 7996 7995 ] final  -31.15 input   59.86 | X-H torsion
[ 10167 10162 10161 10158 ] final  -33.04 input  -65.29 | X-H torsion
[ 10718 10713 10712 10709 ] final   22.63 input   66.30 | X-H torsion
[ 10763 10752 10751 10750 ] final -149.67 input  -60.55 | X-H torsion
[ 11005 11000 10999 10996 ] final   39.72 input  -57.11 | X-H torsion

> <Gold.Protein.ActiveResidues>
 VAL166  LYS551  ARG553  GLY616  TRP617  ASP618  TYR619  PRO620  LYS621  CYS622 
 ASP623  PHE694  ASN695  SER759  ASP760  ASP761  ALA762  ILE779  LEU786  VAL792 
 PHE793  MET794  SER795  GLU796  ALA797  LYS798  CYS799  TRP800  GLU811  SER814 

> <Gold.Protein.RotatedAtoms>
  152.5440  134.0970  159.8301 H   0  0  0  0  0  0  0  0  0  0  0  0  # atno 6907 bound_to 6896
  151.1052  133.5206  159.2615 H   0  0  0  0  0  0  0  0  0  0  0  0  # atno 6908 bound_to 6896
  151.1946  135.0426  159.8901 H   0  0  0  0  0  0  0  0  0  0  0  0  # atno 6909 bound_to 6896
  144.7261  139.9541  143.6433 H   0  0  0  0  0  0  0  0  0  0  0  0  # atno 7974 bound_to 7965
  154.4224  140.1772  156.1521 H   0  0  0  0  0  0  0  0  0  0  0  0  # atno 8008 bound_to 7997
  155.9907  140.3369  155.6726 H   0  0  0  0  0  0  0  0  0  0  0  0  # atno 8009 bound_to 7997
  155.6376  140.0676  157.2619 H   0  0  0  0  0  0  0  0  0  0  0  0  # atno 8010 bound_to 7997
  140.7211  143.3649  151.1890 H   0  0  0  0  0  0  0  0  0  0  0  0  # atno 10167 bound_to 10162
  157.1550  130.6691  149.6024 H   0  0  0  0  0  0  0  0  0  0  0  0  # atno 10718 bound_to 10713
  154.8164  135.3303  154.7164 H   0  0  0  0  0  0  0  0  0  0  0  0  # atno 10763 bound_to 10752
  153.7804  135.6919  153.4894 H   0  0  0  0  0  0  0  0  0  0  0  0  # atno 10764 bound_to 10752
  153.1984  135.4525  155.0183 H   0  0  0  0  0  0  0  0  0  0  0  0  # atno 10765 bound_to 10752
  140.2001  134.3881  155.8101 H   0  0  0  0  0  0  0  0  0  0  0  0  # atno 11005 bound_to 11000
  146.0689  139.3678  143.0535 LP  0  0  0  0  0  0  0  0  0  0  0  0  # atno 17320 bound_to 7965
  145.7994  140.9778  143.1006 LP  0  0  0  0  0  0  0  0  0  0  0  0  # atno 17321 bound_to 7965
  139.7209  143.9225  152.2985 LP  0  0  0  0  0  0  0  0  0  0  0  0  # atno 17342 bound_to 10162
  139.8981  144.6927  150.8695 LP  0  0  0  0  0  0  0  0  0  0  0  0  # atno 17343 bound_to 10162
  155.9763  130.4731  150.6523 LP  0  0  0  0  0  0  0  0  0  0  0  0  # atno 17370 bound_to 10713
  157.4185  131.0833  151.1153 LP  0  0  0  0  0  0  0  0  0  0  0  0  # atno 17371 bound_to 10713
  141.2227  133.7089  156.8242 LP  0  0  0  0  0  0  0  0  0  0  0  0  # atno 17394 bound_to 11000
  140.2064  134.8859  157.3226 LP  0  0  0  0  0  0  0  0  0  0  0  0  # atno 17395 bound_to 11000

$$$$
