AV-unprocessed.smi:2135|AV-procd|sdf|8699|dock3
  -GOLD-   2272011453D 1   1.00000     0.00000
 Structure written by MMmdl.
 42 43  0  0  0  0  0  0  0  0  1 V2000
  152.5304  137.7634  156.8140 C   0  0  0  0  0  0  0  0  0  0  0  0
  151.8820  138.4717  155.2450 S   0  0  0  0  0  0  0  0  0  0  0  0
  152.7350  139.6095  154.8686 O   0  0  0  0  0  0  0  0  0  0  0  0
  151.6786  137.3674  154.2951 O   0  0  0  0  0  0  0  0  0  0  0  0
  150.3158  139.0981  155.6736 N   0  0  0  0  0  0  0  0  0  0  0  0
  150.0209  140.5343  155.4953 C   0  0  0  0  0  0  0  0  0  0  0  0
  149.1768  140.7880  154.2340 C   0  0  0  0  0  0  0  0  0  0  0  0
  147.9091  139.9258  154.2312 C   0  0  0  0  0  0  0  0  0  0  0  0
  148.2901  138.4402  154.3621 C   0  0  2  0  0  0  0  0  0  0  0  0
  147.0443  137.5448  154.3753 C   0  0  0  0  0  0  0  0  0  0  0  0
  146.2717  137.5688  155.3339 O   0  0  0  0  0  0  0  0  0  0  0  0
  146.8646  136.7531  153.3067 N   0  0  0  0  0  0  0  0  0  0  0  0
  145.7652  135.8109  153.1393 C   0  0  0  0  0  0  0  0  0  0  0  0
  146.2773  134.3998  152.8071 C   0  0  0  0  0  0  0  0  0  0  0  0
  145.2817  133.6127  151.9790 C   0  0  0  0  0  0  0  0  0  0  0  0
  143.9479  134.0486  151.8407 C   0  0  0  0  0  0  0  0  0  0  0  0
  143.0604  133.2793  151.0640 C   0  0  0  0  0  0  0  0  0  0  0  0
  143.5463  132.1036  150.4574 C   0  0  0  0  0  0  0  0  0  0  0  0
  144.8213  131.6768  150.5834 N   0  0  0  0  0  0  0  0  0  0  0  0
  145.6662  132.4205  151.3296 C   0  0  0  0  0  0  0  0  0  0  0  0
  149.1310  138.2167  155.6382 C   0  0  0  0  0  0  0  0  0  0  0  0
  153.5136  137.3315  156.6288 H   0  0  0  0  0  0  0  0  0  0  0  0
  151.8632  136.9809  157.1710 H   0  0  0  0  0  0  0  0  0  0  0  0
  152.6256  138.5458  157.5644 H   0  0  0  0  0  0  0  0  0  0  0  0
  149.4771  140.8844  156.3734 H   0  0  0  0  0  0  0  0  0  0  0  0
  150.9451  141.1104  155.4562 H   0  0  0  0  0  0  0  0  0  0  0  0
  148.9058  141.8427  154.1800 H   0  0  0  0  0  0  0  0  0  0  0  0
  149.7634  140.5793  153.3403 H   0  0  0  0  0  0  0  0  0  0  0  0
  147.2614  140.2299  155.0549 H   0  0  0  0  0  0  0  0  0  0  0  0
  147.3480  140.0965  153.3115 H   0  0  0  0  0  0  0  0  0  0  0  0
  148.8901  138.1685  153.4937 H   0  0  0  0  0  0  0  0  0  0  0  0
  147.5458  136.7963  152.5627 H   0  0  0  0  0  0  0  0  0  0  0  0
  145.1471  135.7944  154.0386 H   0  0  0  0  0  0  0  0  0  0  0  0
  145.1296  136.1747  152.3315 H   0  0  0  0  0  0  0  0  0  0  0  0
  147.2232  134.4616  152.2672 H   0  0  0  0  0  0  0  0  0  0  0  0
  146.4827  133.8446  153.7233 H   0  0  0  0  0  0  0  0  0  0  0  0
  143.6085  134.9543  152.3217 H   0  0  0  0  0  0  0  0  0  0  0  0
  142.0318  133.5826  150.9364 H   0  0  0  0  0  0  0  0  0  0  0  0
  142.8928  131.4892  149.8558 H   0  0  0  0  0  0  0  0  0  0  0  0
  146.6779  132.0514  151.4133 H   0  0  0  0  0  0  0  0  0  0  0  0
  149.4382  137.1737  155.7157 H   0  0  0  0  0  0  0  0  0  0  0  0
  148.5294  138.4230  156.5248 H   0  0  0  0  0  0  0  0  0  0  0  0
  1  2  1  0  0  0  0
  1 22  1  0  0  0  0
  1 23  1  0  0  0  0
  1 24  1  0  0  0  0
  2  3  2  0  0  0  0
  2  4  2  0  0  0  0
  2  5  1  0  0  0  0
  5 21  1  0  0  0  0
  5  6  1  0  0  0  0
  6  7  1  0  0  0  0
  6 25  1  0  0  0  0
  6 26  1  0  0  0  0
  7  8  1  0  0  0  0
  7 27  1  0  0  0  0
  7 28  1  0  0  0  0
  8  9  1  0  0  0  0
  8 29  1  0  0  0  0
  8 30  1  0  0  0  0
  9 10  1  0  0  0  0
  9 21  1  0  0  0  0
  9 31  1  0  0  0  0
 10 11  2  0  0  0  0
 10 12  1  0  0  0  0
 12 13  1  0  0  0  0
 12 32  1  0  0  0  0
 13 14  1  0  0  0  0
 13 33  1  0  0  0  0
 13 34  1  0  0  0  0
 14 15  1  0  0  0  0
 14 35  1  0  0  0  0
 14 36  1  0  0  0  0
 15 20  1  0  0  0  0
 15 16  2  0  0  0  0
 16 17  1  0  0  0  0
 16 37  1  0  0  0  0
 17 18  2  0  0  0  0
 17 38  1  0  0  0  0
 18 19  1  0  0  0  0
 18 39  1  0  0  0  0
 19 20  2  0  0  0  0
 20 40  1  0  0  0  0
 21 41  1  0  0  0  0
 21 42  1  0  0  0  0
M  END
> <s_m_source_file>
AV-unprocessed.smi

> <i_m_source_file_index>
2135

> <i_lp_mmshare_version>
43012

> <i_f3d_flags>
0

> <s_epik_input>
W0NIM11TKD1PKSg9TylOMVtDSDJdW0NIMl1bQ0gyXVtDQEhdKFtDSDJdMSlDKD1PKVtOSF1bQ0gyXVtDSDJdYzJbY0hdW2NIXVtjSF1uW2NIXTI=

> <s_epik_cmdline>
J2VwaWtfcHl0aG9uJywgJy1waCcsICc3LjAnLCAnLXRuJywgJzgnLCAnLW1hJywgJzIwMCcsICctbWV0YWxfYmluZGluZycsICctaW1hZScsICc8aW5maWxlLm1hZT4nLCAnLW9tYWUnLCAnPG91dGZpbGUubWFlPic=

> <r_epik_Ionization_Penalty>
0.0134582

> <r_epik_Ionization_Penalty_Charging>
0

> <r_epik_Ionization_Penalty_Neutral>
0.0134582

> <r_epik_State_Penalty>
0.010475

> <r_epik_Charging_Adjusted_Penalty>
0.010475

> <i_epik_Tot_Q>
0

> <i_epik_Tot_abs_Q>
0

> <r_epik_Metal_State_Penalty>
0.0102416

> <b_epik_Metal_Only>
0

> <s_lp_Force_Field>
OPLS_2005

> <r_lp_Energy>
-1.59051

> <b_lp_Chiralities_Consistent>
1

> <s_lp_Variant>
AV-unprocessed.smi:2135-2

> <Gold.Version>
5.8.1

> <Gold.Id.Protein>
6NUR|6NUR_protein|mol2

> <Gold.PLP.Fitness>
45.7173

> <Gold.PLP.PLP>
-30.6832

> <Gold.PLP.part.hbond>
-3.7513

> <Gold.PLP.part.metal>
0.0000

> <Gold.PLP.part.buried>
-5.3357

> <Gold.PLP.part.nonpolar>
-24.2268

> <Gold.PLP.part.repulsive>
0.4149

> <Gold.PLP.ligand.clash>
0.0000

> <Gold.PLP.ligand.torsion>
1.5088

> <Gold.PLP.Chemscore.Hbond>
3.3225

> <Gold.PLP.Chemscore.CHOScore>
2.0000

> <Gold.PLP.Chemscore.Metal>
0.0000

> <Gold.Chemscore.Hbonds>
donor molecule, donor type, donor heavy atom, donor atom, acceptor molecule, acceptor atom, score
      L1  H    12    32       P1  7948  1.00
      P1  H  7989  7998       L1     3  0.39
      P1  H  7997  8009       L1     3  0.86
      P1  H 10752 10763       L1     4  0.78
      L1  C    18    39       P1 10952  1.00
      L1  C    20    40       P1 10747  0.25

> <Gold.PLP.Chemscore.Internal.Correction>
2.0843

> <Gold.Rescore>
     Score         DG    S(hbond)    S(metal)    S(lipo)     H(rot)  DE(clash)    DE(int)     intcor
     18.25     -19.75       3.01        0.00      70.14       1.56       0.06       1.45       ----

> <Gold.Chemscore.Fitness>
18.2450

> <Gold.Chemscore.DG>
-19.7492

> <Gold.Chemscore.ZeroCoef>
-5.4800

> <Gold.Chemscore.Hbond>
3.0142

> <Gold.Chemscore.Metal>
0.0000

> <Gold.Chemscore.Lipo>
70.1391

> <Gold.Chemscore.Internal_Hbond>
0.0000

> <Gold.Chemscore.DEClash>
0.0572

> <Gold.Chemscore.DEInternal>
1.4470

> <Gold.Chemscore.Rot>
1.5643

> <Gold.Chemscore.Internal.Correction>
   9.000000E+99

> <Gold.Chemscore.Hbonds>
donor molecule, donor type, donor heavy atom, donor atom, acceptor molecule, acceptor atom, score
      L1  H    12    32       P1  7948  0.94
      P1  H  7989  7998       L1     3  0.30
      P1  H  7997  8009       L1     3  0.83
      P1  H 10752 10763       L1     4  0.74

> <Gold.Chemscore.Hbond.Weighted>
-10.0675

> <Gold.Chemscore.Metal.Weighted>
-0.0000

> <Gold.Chemscore.Lipo.Weighted>
-8.2063

> <Gold.Chemscore.Internal_Hbond.Weighted>
0.0000

> <Gold.Chemscore.DEClash.Weighted>
0.0572

> <Gold.Chemscore.DEInternal.Weighted>
1.4470

> <Gold.Chemscore.Rot.Weighted>
4.0046

> <Gold.Chemscore.Internal.Correction.Weighted>
   9.000000E+99

> <Gold.Protein.RotatedTorsions>
[ 6907 6896 6895 6894 ] final  170.16 input  -60.11 | X-H torsion
[ 7974 7965 7964 7962 ] final  -97.63 input  175.53 | X-H torsion
[ 8008 7997 7996 7995 ] final -140.61 input   59.86 | X-H torsion
[ 10167 10162 10161 10158 ] final  -66.07 input  -65.29 | X-H torsion
[ 10718 10713 10712 10709 ] final  123.63 input   66.30 | X-H torsion
[ 10763 10752 10751 10750 ] final   38.72 input  -60.55 | X-H torsion
[ 11005 11000 10999 10996 ] final -108.42 input  -57.11 | X-H torsion

> <Gold.Protein.ActiveResidues>
 VAL166  LYS551  ARG553  GLY616  TRP617  ASP618  TYR619  PRO620  LYS621  CYS622 
 ASP623  PHE694  ASN695  SER759  ASP760  ASP761  ALA762  ILE779  LEU786  VAL792 
 PHE793  MET794  SER795  GLU796  ALA797  LYS798  CYS799  TRP800  GLU811  SER814 

> <Gold.Protein.RotatedAtoms>
  151.8205  133.3394  159.3582 H   0  0  0  0  0  0  0  0  0  0  0  0  # atno 6907 bound_to 6896
  150.7296  134.5578  159.5836 H   0  0  0  0  0  0  0  0  0  0  0  0  # atno 6908 bound_to 6896
  152.3009  134.7613  160.0409 H   0  0  0  0  0  0  0  0  0  0  0  0  # atno 6909 bound_to 6896
  145.3312  140.9442  143.2660 H   0  0  0  0  0  0  0  0  0  0  0  0  # atno 7974 bound_to 7965
  155.4641  140.0548  157.2987 H   0  0  0  0  0  0  0  0  0  0  0  0  # atno 8008 bound_to 7997
  154.4725  140.2046  155.9914 H   0  0  0  0  0  0  0  0  0  0  0  0  # atno 8009 bound_to 7997
  156.1079  140.3209  155.8036 H   0  0  0  0  0  0  0  0  0  0  0  0  # atno 8010 bound_to 7997
  140.5684  143.2316  151.6588 H   0  0  0  0  0  0  0  0  0  0  0  0  # atno 10167 bound_to 10162
  157.5649  131.1087  150.8472 H   0  0  0  0  0  0  0  0  0  0  0  0  # atno 10718 bound_to 10713
  152.9991  135.6241  154.2350 H   0  0  0  0  0  0  0  0  0  0  0  0  # atno 10763 bound_to 10752
  154.2091  135.2800  155.2966 H   0  0  0  0  0  0  0  0  0  0  0  0  # atno 10764 bound_to 10752
  154.5621  135.5702  153.7076 H   0  0  0  0  0  0  0  0  0  0  0  0  # atno 10765 bound_to 10752
  141.0902  133.9067  157.2092 H   0  0  0  0  0  0  0  0  0  0  0  0  # atno 11005 bound_to 11000
  144.8862  139.4836  143.6699 LP  0  0  0  0  0  0  0  0  0  0  0  0  # atno 17320 bound_to 7965
  146.3044  139.7533  142.9067 LP  0  0  0  0  0  0  0  0  0  0  0  0  # atno 17321 bound_to 7965
  139.5105  144.3542  152.0624 LP  0  0  0  0  0  0  0  0  0  0  0  0  # atno 17342 bound_to 10162
  140.2676  144.3999  150.6162 LP  0  0  0  0  0  0  0  0  0  0  0  0  # atno 17343 bound_to 10162
  156.8959  130.5229  149.5284 LP  0  0  0  0  0  0  0  0  0  0  0  0  # atno 17370 bound_to 10713
  156.0698  130.5734  150.9362 LP  0  0  0  0  0  0  0  0  0  0  0  0  # atno 17371 bound_to 10713
  139.9727  135.0123  156.9553 LP  0  0  0  0  0  0  0  0  0  0  0  0  # atno 17394 bound_to 11000
  140.5268  134.0852  155.7306 LP  0  0  0  0  0  0  0  0  0  0  0  0  # atno 17395 bound_to 11000

$$$$
