AV-unprocessed.smi:2994|AV-procd|sdf|11404|dock7
  -GOLD-   2272016323D 1   1.00000     0.00000
 Structure written by MMmdl.
 47 49  0  0  0  0  0  0  0  0  1 V2000
  144.7500  137.2458  153.5068 C   0  0  0  0  0  0  0  0  0  0  0  0
  145.7104  136.0584  153.6857 C   0  0  2  0  0  0  0  0  0  0  0  0
  147.0895  136.5360  153.7362 N   0  0  0  0  0  0  0  0  0  0  0  0
  147.6597  137.1650  154.7744 C   0  0  0  0  0  0  0  0  0  0  0  0
  147.0654  137.4197  155.8215 O   0  0  0  0  0  0  0  0  0  0  0  0
  148.9381  137.4817  154.5040 N   0  0  0  0  0  0  0  0  0  0  0  0
  149.8794  138.1778  155.3115 C   0  0  0  0  0  0  0  0  0  0  0  0
  151.2113  138.4670  154.9290 C   0  0  0  0  0  0  0  0  0  0  0  0
  152.0390  139.1706  155.8245 C   0  0  0  0  0  0  0  0  0  0  0  0
  151.5123  139.5646  157.0749 C   0  0  0  0  0  0  0  0  0  0  0  0
  152.3581  140.3340  158.0471 C   0  0  0  0  0  0  0  0  0  0  0  0
  153.4662  139.8870  158.3469 O   0  0  0  0  0  0  0  0  0  0  0  0
  151.8569  141.4831  158.5669 N   0  0  0  0  0  0  0  0  0  0  0  0
  150.7060  142.2346  158.0403 C   0  0  0  0  0  0  0  0  0  0  0  0
  151.2153  143.5202  157.3618 C   0  0  0  0  0  0  0  0  0  0  0  0
  152.0617  144.3636  158.3330 C   0  0  0  0  0  0  0  0  0  0  0  0
  153.1561  143.5173  159.0083 C   0  0  0  0  0  0  0  0  0  0  0  0
  152.5596  142.2348  159.6156 C   0  0  0  0  0  0  0  0  0  0  0  0
  150.2339  139.3144  157.4353 N   0  0  0  0  0  0  0  0  0  0  0  0
  149.4467  138.6378  156.5727 C   0  0  0  0  0  0  0  0  0  0  0  0
  145.4951  135.0249  152.5961 C   0  0  0  0  0  0  0  0  0  0  0  0
  145.3036  135.4404  151.1571 C   0  0  0  0  0  0  0  0  0  0  0  0
  144.1484  134.8522  151.9358 C   0  0  0  0  0  0  0  0  0  0  0  0
  143.7122  136.9114  153.4973 H   0  0  0  0  0  0  0  0  0  0  0  0
  144.9381  137.7713  152.5700 H   0  0  0  0  0  0  0  0  0  0  0  0
  144.8500  137.9665  154.3189 H   0  0  0  0  0  0  0  0  0  0  0  0
  145.4782  135.5776  154.6381 H   0  0  0  0  0  0  0  0  0  0  0  0
  147.6535  136.3716  152.9154 H   0  0  0  0  0  0  0  0  0  0  0  0
  149.2624  137.2434  153.5783 H   0  0  0  0  0  0  0  0  0  0  0  0
  151.6149  138.1791  153.9715 H   0  0  0  0  0  0  0  0  0  0  0  0
  153.0585  139.4035  155.5532 H   0  0  0  0  0  0  0  0  0  0  0  0
  150.1031  141.6777  157.3254 H   0  0  0  0  0  0  0  0  0  0  0  0
  150.0342  142.4845  158.8625 H   0  0  0  0  0  0  0  0  0  0  0  0
  151.8146  143.2564  156.4893 H   0  0  0  0  0  0  0  0  0  0  0  0
  150.3747  144.1085  156.9927 H   0  0  0  0  0  0  0  0  0  0  0  0
  152.5073  145.2101  157.8097 H   0  0  0  0  0  0  0  0  0  0  0  0
  151.4108  144.7839  159.1007 H   0  0  0  0  0  0  0  0  0  0  0  0
  153.9197  143.2525  158.2755 H   0  0  0  0  0  0  0  0  0  0  0  0
  153.6566  144.1015  159.7811 H   0  0  0  0  0  0  0  0  0  0  0  0
  151.8538  142.4891  160.4077 H   0  0  0  0  0  0  0  0  0  0  0  0
  153.3442  141.6498  160.0977 H   0  0  0  0  0  0  0  0  0  0  0  0
  148.4351  138.4547  156.9049 H   0  0  0  0  0  0  0  0  0  0  0  0
  146.0697  134.1122  152.7446 H   0  0  0  0  0  0  0  0  0  0  0  0
  145.2684  136.5054  150.9359 H   0  0  0  0  0  0  0  0  0  0  0  0
  145.7633  134.8197  150.3907 H   0  0  0  0  0  0  0  0  0  0  0  0
  143.8374  133.8399  151.6860 H   0  0  0  0  0  0  0  0  0  0  0  0
  143.3475  135.5268  152.2319 H   0  0  0  0  0  0  0  0  0  0  0  0
  1  2  1  0  0  0  0
  1 24  1  0  0  0  0
  1 25  1  0  0  0  0
  1 26  1  0  0  0  0
  2  3  1  0  0  0  0
  2 21  1  0  0  0  0
  2 27  1  0  0  0  0
  3  4  1  0  0  0  0
  3 28  1  0  0  0  0
  4  5  2  0  0  0  0
  4  6  1  0  0  0  0
  6  7  1  0  0  0  0
  6 29  1  0  0  0  0
  7 20  1  0  0  0  0
  7  8  2  0  0  0  0
  8  9  1  0  0  0  0
  8 30  1  0  0  0  0
  9 10  2  0  0  0  0
  9 31  1  0  0  0  0
 10 11  1  0  0  0  0
 10 19  1  0  0  0  0
 11 12  2  0  0  0  0
 11 13  1  0  0  0  0
 13 18  1  0  0  0  0
 13 14  1  0  0  0  0
 14 15  1  0  0  0  0
 14 32  1  0  0  0  0
 14 33  1  0  0  0  0
 15 16  1  0  0  0  0
 15 34  1  0  0  0  0
 15 35  1  0  0  0  0
 16 17  1  0  0  0  0
 16 36  1  0  0  0  0
 16 37  1  0  0  0  0
 17 18  1  0  0  0  0
 17 38  1  0  0  0  0
 17 39  1  0  0  0  0
 18 40  1  0  0  0  0
 18 41  1  0  0  0  0
 19 20  2  0  0  0  0
 20 42  1  0  0  0  0
 21 23  1  0  0  0  0
 21 22  1  0  0  0  0
 21 43  1  0  0  0  0
 22 23  1  0  0  0  0
 22 44  1  0  0  0  0
 22 45  1  0  0  0  0
 23 46  1  0  0  0  0
 23 47  1  0  0  0  0
M  END
> <s_m_source_file>
AV-unprocessed.smi

> <i_m_source_file_index>
2994

> <i_lp_mmshare_version>
43012

> <i_f3d_flags>
0

> <s_epik_input>
W0NIMl0xW0NIMl1bQ0hdMVtDQEhdKFtDSDNdKVtOSF1DKD1PKVtOSF1jMltjSF1bY0hdYyhuW2NIXTIpQyg9TylOM1tDSDJdW0NIMl1bQ0gyXVtDSDJdW0NIMl0z

> <s_epik_cmdline>
J2VwaWtfcHl0aG9uJywgJy1waCcsICc3LjAnLCAnLXRuJywgJzgnLCAnLW1hJywgJzIwMCcsICctbWV0YWxfYmluZGluZycsICctaW1hZScsICc8aW5maWxlLm1hZT4nLCAnLW9tYWUnLCAnPG91dGZpbGUubWFlPic=

> <r_lp_tautomer_probability>
1

> <r_epik_Ionization_Penalty>
4.52104e-05

> <r_epik_Ionization_Penalty_Charging>
0

> <r_epik_Ionization_Penalty_Neutral>
4.52104e-05

> <r_epik_State_Penalty>
-0

> <r_epik_Charging_Adjusted_Penalty>
0

> <i_epik_Tot_Q>
0

> <i_epik_Tot_abs_Q>
0

> <r_epik_Metal_State_Penalty>
-0

> <b_epik_Metal_Only>
0

> <s_lp_Force_Field>
OPLS_2005

> <r_lp_Energy>
45.7479

> <b_lp_Chiralities_Consistent>
1

> <s_lp_Variant>
AV-unprocessed.smi:2994-1

> <Gold.Version>
5.8.1

> <Gold.Id.Protein>
6NUR|6NUR_protein|mol2

> <Gold.PLP.Fitness>
47.0178

> <Gold.PLP.PLP>
-39.8254

> <Gold.PLP.part.hbond>
-2.9389

> <Gold.PLP.part.metal>
0.0000

> <Gold.PLP.part.buried>
-2.8454

> <Gold.PLP.part.nonpolar>
-34.5484

> <Gold.PLP.part.repulsive>
0.0329

> <Gold.PLP.ligand.clash>
0.0000

> <Gold.PLP.ligand.torsion>
1.7130

> <Gold.PLP.Chemscore.Hbond>
2.8800

> <Gold.PLP.Chemscore.CHOScore>
0.0000

> <Gold.PLP.Chemscore.Metal>
0.0000

> <Gold.Chemscore.Hbonds>
donor molecule, donor type, donor heavy atom, donor atom, acceptor molecule, acceptor atom, score
      L1  H     3    28       P1  7948  1.00
      L1  H     6    29       P1  7948  0.99
      P1  H  7997  8010       L1    12  1.00

> <Gold.PLP.Chemscore.Internal.Correction>
1.9785

> <Gold.Rescore>
     Score         DG    S(hbond)    S(metal)    S(lipo)     H(rot)  DE(clash)    DE(int)     intcor
     20.11     -24.22       2.87        0.00     103.06       1.14       0.10       4.01       ----

> <Gold.Chemscore.Fitness>
20.1092

> <Gold.Chemscore.DG>
-24.2169

> <Gold.Chemscore.ZeroCoef>
-5.4800

> <Gold.Chemscore.Hbond>
2.8732

> <Gold.Chemscore.Metal>
0.0000

> <Gold.Chemscore.Lipo>
103.0625

> <Gold.Chemscore.Internal_Hbond>
0.0000

> <Gold.Chemscore.DEClash>
0.0998

> <Gold.Chemscore.DEInternal>
4.0079

> <Gold.Chemscore.Rot>
1.1399

> <Gold.Chemscore.Internal.Correction>
   9.000000E+99

> <Gold.Chemscore.Hbonds>
donor molecule, donor type, donor heavy atom, donor atom, acceptor molecule, acceptor atom, score
      L1  H     3    28       P1  7948  1.00
      L1  H     6    29       P1  7948  0.90
      P1  H  7997  8010       L1    12  0.91

> <Gold.Chemscore.Hbond.Weighted>
-9.5966

> <Gold.Chemscore.Metal.Weighted>
-0.0000

> <Gold.Chemscore.Lipo.Weighted>
-12.0583

> <Gold.Chemscore.Internal_Hbond.Weighted>
0.0000

> <Gold.Chemscore.DEClash.Weighted>
0.0998

> <Gold.Chemscore.DEInternal.Weighted>
4.0079

> <Gold.Chemscore.Rot.Weighted>
2.9180

> <Gold.Chemscore.Internal.Correction.Weighted>
   9.000000E+99

> <Gold.Protein.RotatedTorsions>
[ 6907 6896 6895 6894 ] final  134.33 input  -60.11 | X-H torsion
[ 7974 7965 7964 7962 ] final  -19.00 input  175.53 | X-H torsion
[ 8008 7997 7996 7995 ] final   26.04 input   59.86 | X-H torsion
[ 10167 10162 10161 10158 ] final -121.06 input  -65.29 | X-H torsion
[ 10718 10713 10712 10709 ] final   64.37 input   66.30 | X-H torsion
[ 10763 10752 10751 10750 ] final  174.31 input  -60.55 | X-H torsion
[ 11005 11000 10999 10996 ] final  -75.25 input  -57.11 | X-H torsion

> <Gold.Protein.ActiveResidues>
 VAL166  LYS551  ARG553  GLY616  TRP617  ASP618  TYR619  PRO620  LYS621  CYS622 
 ASP623  PHE694  ASN695  SER759  ASP760  ASP761  ALA762  ILE779  LEU786  VAL792 
 PHE793  MET794  SER795  GLU796  ALA797  LYS798  CYS799  TRP800  GLU811  SER814 

> <Gold.Protein.RotatedAtoms>
  152.3125  133.5767  159.5689 H   0  0  0  0  0  0  0  0  0  0  0  0  # atno 6907 bound_to 6896
  150.7330  134.0131  159.3685 H   0  0  0  0  0  0  0  0  0  0  0  0  # atno 6908 bound_to 6896
  151.8023  135.0706  160.0453 H   0  0  0  0  0  0  0  0  0  0  0  0  # atno 6909 bound_to 6896
  146.1864  140.4000  142.8475 H   0  0  0  0  0  0  0  0  0  0  0  0  # atno 7974 bound_to 7965
  155.0210  140.3147  155.4793 H   0  0  0  0  0  0  0  0  0  0  0  0  # atno 8008 bound_to 7997
  156.2892  140.2197  156.5270 H   0  0  0  0  0  0  0  0  0  0  0  0  # atno 8009 bound_to 7997
  154.7452  140.0470  157.0833 H   0  0  0  0  0  0  0  0  0  0  0  0  # atno 8010 bound_to 7997
  140.0291  143.5266  152.2185 H   0  0  0  0  0  0  0  0  0  0  0  0  # atno 10167 bound_to 10162
  157.6035  130.9156  149.9837 H   0  0  0  0  0  0  0  0  0  0  0  0  # atno 10718 bound_to 10713
  154.4521  135.2765  155.1773 H   0  0  0  0  0  0  0  0  0  0  0  0  # atno 10763 bound_to 10752
  154.3596  135.6132  153.5687 H   0  0  0  0  0  0  0  0  0  0  0  0  # atno 10764 bound_to 10752
  152.9848  135.5831  154.4868 H   0  0  0  0  0  0  0  0  0  0  0  0  # atno 10765 bound_to 10752
  141.1643  133.6940  156.7487 H   0  0  0  0  0  0  0  0  0  0  0  0  # atno 11005 bound_to 11000
  144.8405  140.6849  143.6233 LP  0  0  0  0  0  0  0  0  0  0  0  0  # atno 17320 bound_to 7965
  145.3926  139.1613  143.4220 LP  0  0  0  0  0  0  0  0  0  0  0  0  # atno 17321 bound_to 7965
  139.6088  144.7603  151.3000 LP  0  0  0  0  0  0  0  0  0  0  0  0  # atno 17342 bound_to 10162
  140.7309  143.6865  150.7957 LP  0  0  0  0  0  0  0  0  0  0  0  0  # atno 17343 bound_to 10162
  156.1115  130.3650  150.0041 LP  0  0  0  0  0  0  0  0  0  0  0  0  # atno 17370 bound_to 10713
  156.8139  130.9334  151.3643 LP  0  0  0  0  0  0  0  0  0  0  0  0  # atno 17371 bound_to 10713
  140.2620  134.8459  157.3767 LP  0  0  0  0  0  0  0  0  0  0  0  0  # atno 17394 bound_to 11000
  140.1602  134.4738  155.7900 LP  0  0  0  0  0  0  0  0  0  0  0  0  # atno 17395 bound_to 11000

$$$$
