AV-unprocessed.smi:663|AV-procd|sdf|3250|dock8
  -GOLD-   22720 0203D 1   1.00000     0.00000
 Structure written by MMmdl.
 29 30  0  0  0  0  0  0  0  0  2 V2000
  150.1537  138.3465  153.3892 N   0  0  0  0  0  0  0  0  0  0  0  0
  150.7643  138.6720  154.5312 C   0  0  0  0  0  0  0  0  0  0  0  0
  151.3145  139.7590  154.6945 O   0  0  0  0  0  0  0  0  0  0  0  0
  150.7669  137.6219  155.6485 C   0  0  0  0  0  0  0  0  0  0  0  0
  150.5865  138.2158  157.0650 C   0  0  1  0  0  0  0  0  0  0  0  0
  150.2760  137.1544  158.0255 N   0  0  0  0  0  0  0  0  0  0  0  0
  149.1597  137.0262  158.7588 C   0  0  0  0  0  0  0  0  0  0  0  0
  148.2589  137.8634  158.6703 O   0  0  0  0  0  0  0  0  0  0  0  0
  149.1522  135.9244  159.5432 N   0  5  0  0  0  0  0  0  0  0  0  0
  148.1796  135.7581  160.4544 C   0  0  0  0  0  0  0  0  0  0  0  0
  147.5515  136.7932  161.0352 N   0  0  0  0  0  0  0  0  0  0  0  0
  146.5807  136.4002  161.9468 N   0  0  0  0  0  0  0  0  0  0  0  0
  146.5064  135.0725  162.0354 C   0  0  0  0  0  0  0  0  0  0  0  0
  147.6204  134.1814  161.0201 S   0  0  0  0  0  0  0  0  0  0  0  0
  151.8181  139.0033  157.4724 C   0  0  0  0  0  0  0  0  0  0  0  0
  151.8430  139.8054  158.7512 C   0  0  0  0  0  0  0  0  0  0  0  0
  151.8327  140.5123  157.4141 C   0  0  0  0  0  0  0  0  0  0  0  0
  150.1058  139.0196  152.6385 H   0  0  0  0  0  0  0  0  0  0  0  0
  149.7194  137.4406  153.2903 H   0  0  0  0  0  0  0  0  0  0  0  0
  149.9976  136.8717  155.4581 H   0  0  0  0  0  0  0  0  0  0  0  0
  151.7209  137.0966  155.5924 H   0  0  0  0  0  0  0  0  0  0  0  0
  149.7611  138.9296  157.0293 H   0  0  0  0  0  0  0  0  0  0  0  0
  150.9782  136.4390  158.1434 H   0  0  0  0  0  0  0  0  0  0  0  0
  145.7944  134.6148  162.7058 H   0  0  0  0  0  0  0  0  0  0  0  0
  152.7535  138.5161  157.2024 H   0  0  0  0  0  0  0  0  0  0  0  0
  150.9317  139.8384  159.3453 H   0  0  0  0  0  0  0  0  0  0  0  0
  152.7707  139.8142  159.3197 H   0  0  0  0  0  0  0  0  0  0  0  0
  152.7537  140.9926  157.0905 H   0  0  0  0  0  0  0  0  0  0  0  0
  150.9144  141.0176  157.1211 H   0  0  0  0  0  0  0  0  0  0  0  0
  1  2  1  0  0  0  0
  1 18  1  0  0  0  0
  1 19  1  0  0  0  0
  2  3  2  0  0  0  0
  2  4  1  0  0  0  0
  4  5  1  0  0  0  0
  4 20  1  0  0  0  0
  4 21  1  0  0  0  0
  5  6  1  0  0  0  0
  5 15  1  0  0  0  0
  5 22  1  0  0  0  0
  6  7  1  0  0  0  0
  6 23  1  0  0  0  0
  7  8  2  0  0  0  0
  7  9  1  0  0  0  0
  9 10  1  0  0  0  0
 10 14  1  0  0  0  0
 10 11  2  0  0  0  0
 11 12  1  0  0  0  0
 12 13  2  0  0  0  0
 13 14  1  0  0  0  0
 13 24  1  0  0  0  0
 15 17  1  0  0  0  0
 15 16  1  0  0  0  0
 15 25  1  0  0  0  0
 16 17  1  0  0  0  0
 16 26  1  0  0  0  0
 16 27  1  0  0  0  0
 17 28  1  0  0  0  0
 17 29  1  0  0  0  0
M  CHG  1   9  -1
M  END
> <s_m_source_file>
AV-unprocessed.smi

> <i_m_source_file_index>
663

> <i_lp_mmshare_version>
43012

> <i_f3d_flags>
0

> <s_epik_input>
W05IMl1DKD1PKVtDSDJdW0NAQEhdKFtDSF0xW0NIMl1bQ0gyXTEpW05IXUMoPU8pW05IXWMybm5bY0hdczI=

> <s_epik_cmdline>
J2VwaWtfcHl0aG9uJywgJy1waCcsICc3LjAnLCAnLXRuJywgJzgnLCAnLW1hJywgJzIwMCcsICctbWV0YWxfYmluZGluZycsICctaW1hZScsICc8aW5maWxlLm1hZT4nLCAnLW9tYWUnLCAnPG91dGZpbGUubWFlPic=

> <r_lp_tautomer_probability>
1

> <r_epik_Ionization_Penalty>
4.41895

> <r_epik_Ionization_Penalty_Charging>
4.37725

> <r_epik_Ionization_Penalty_Neutral>
0.0416999

> <r_epik_State_Penalty>
4.37688

> <r_epik_Charging_Adjusted_Penalty>
8.75413

> <i_epik_Tot_Q>
-1

> <i_epik_Tot_abs_Q>
1

> <r_epik_Metal_State_Penalty>
0.761195

> <b_epik_Metal_Only>
1

> <s_lp_Force_Field>
OPLS_2005

> <r_lp_Energy>
7.27665

> <b_lp_Chiralities_Consistent>
1

> <s_lp_Variant>
AV-unprocessed.smi:663-4

> <Gold.Version>
5.8.1

> <Gold.Id.Protein>
6NUR|6NUR_protein|mol2

> <Gold.PLP.Fitness>
45.5096

> <Gold.PLP.PLP>
-27.4330

> <Gold.PLP.part.hbond>
-7.1748

> <Gold.PLP.part.metal>
0.0000

> <Gold.PLP.part.buried>
-5.9121

> <Gold.PLP.part.nonpolar>
-15.4222

> <Gold.PLP.part.repulsive>
0.2589

> <Gold.PLP.ligand.clash>
0.0000

> <Gold.PLP.ligand.torsion>
1.1938

> <Gold.PLP.Chemscore.Hbond>
6.4447

> <Gold.PLP.Chemscore.CHOScore>
0.0000

> <Gold.PLP.Chemscore.Metal>
0.0000

> <Gold.Chemscore.Hbonds>
donor molecule, donor type, donor heavy atom, donor atom, acceptor molecule, acceptor atom, score
      L1  H     1    18       P1  7957  1.00
      L1  H     1    19       P1  7948  0.78
      P1  H  6896  6907       L1     9  2.00
      P1  H  6931  6943       L1    11  0.44
      P1  H  6934  6947       L1    11  0.42
      P1  H  7989  7998       L1     3  1.00

> <Gold.PLP.Chemscore.Internal.Correction>
1.1299

> <Gold.Rescore>
     Score         DG    S(hbond)    S(metal)    S(lipo)     H(rot)  DE(clash)    DE(int)     intcor
     14.22     -18.23       4.38        0.00      38.26       2.49       0.00       4.01       ----

> <Gold.Chemscore.Fitness>
14.2172

> <Gold.Chemscore.DG>
-18.2287

> <Gold.Chemscore.ZeroCoef>
-5.4800

> <Gold.Chemscore.Hbond>
4.3825

> <Gold.Chemscore.Metal>
0.0000

> <Gold.Chemscore.Lipo>
38.2556

> <Gold.Chemscore.Internal_Hbond>
0.0000

> <Gold.Chemscore.DEClash>
0.0000

> <Gold.Chemscore.DEInternal>
4.0116

> <Gold.Chemscore.Rot>
2.4863

> <Gold.Chemscore.Internal.Correction>
   9.000000E+99

> <Gold.Chemscore.Hbonds>
donor molecule, donor type, donor heavy atom, donor atom, acceptor molecule, acceptor atom, score
      L1  H     1    18       P1  7957  0.60
      L1  H     1    19       P1  7948  0.53
      P1  H  6896  6907       L1     9  0.91
      P1  H  6931  6943       L1    11  0.29
      P1  H  6934  6947       L1    11  0.12
      P1  H  7989  7998       L1     3  1.00

> <Gold.Chemscore.Hbond.Weighted>
-14.6377

> <Gold.Chemscore.Metal.Weighted>
-0.0000

> <Gold.Chemscore.Lipo.Weighted>
-4.4759

> <Gold.Chemscore.Internal_Hbond.Weighted>
0.0000

> <Gold.Chemscore.DEClash.Weighted>
0.0000

> <Gold.Chemscore.DEInternal.Weighted>
4.0116

> <Gold.Chemscore.Rot.Weighted>
6.3648

> <Gold.Chemscore.Internal.Correction.Weighted>
   9.000000E+99

> <Gold.Protein.RotatedTorsions>
[ 6907 6896 6895 6894 ] final  -53.69 input  -60.11 | X-H torsion
[ 7974 7965 7964 7962 ] final -132.10 input  175.53 | X-H torsion
[ 8008 7997 7996 7995 ] final -128.78 input   59.86 | X-H torsion
[ 10167 10162 10161 10158 ] final  124.51 input  -65.29 | X-H torsion
[ 10718 10713 10712 10709 ] final   32.39 input   66.30 | X-H torsion
[ 10763 10752 10751 10750 ] final   59.43 input  -60.55 | X-H torsion
[ 11005 11000 10999 10996 ] final  101.69 input  -57.11 | X-H torsion

> <Gold.Protein.ActiveResidues>
 VAL166  LYS551  ARG553  GLY616  TRP617  ASP618  TYR619  PRO620  LYS621  CYS622 
 ASP623  PHE694  ASN695  SER759  ASP760  ASP761  ALA762  ILE779  LEU786  VAL792 
 PHE793  MET794  SER795  GLU796  ALA797  LYS798  CYS799  TRP800  GLU811  SER814 

> <Gold.Protein.RotatedAtoms>
  150.8404  134.7694  159.6927 H   0  0  0  0  0  0  0  0  0  0  0  0  # atno 6907 bound_to 6896
  152.4493  134.5425  159.9853 H   0  0  0  0  0  0  0  0  0  0  0  0  # atno 6908 bound_to 6896
  151.5566  133.3371  159.2999 H   0  0  0  0  0  0  0  0  0  0  0  0  # atno 6909 bound_to 6896
  144.9317  140.7136  143.4902 H   0  0  0  0  0  0  0  0  0  0  0  0  # atno 7974 bound_to 7965
  155.2683  140.0439  157.3004 H   0  0  0  0  0  0  0  0  0  0  0  0  # atno 8008 bound_to 7997
  154.5669  140.2362  155.8219 H   0  0  0  0  0  0  0  0  0  0  0  0  # atno 8009 bound_to 7997
  156.2092  140.3004  155.9701 H   0  0  0  0  0  0  0  0  0  0  0  0  # atno 8010 bound_to 7997
  139.5738  144.6953  151.3708 H   0  0  0  0  0  0  0  0  0  0  0  0  # atno 10167 bound_to 10162
  157.2846  130.7272  149.6576 H   0  0  0  0  0  0  0  0  0  0  0  0  # atno 10718 bound_to 10713
  152.9894  135.5572  154.5712 H   0  0  0  0  0  0  0  0  0  0  0  0  # atno 10763 bound_to 10752
  154.5112  135.2802  155.1343 H   0  0  0  0  0  0  0  0  0  0  0  0  # atno 10764 bound_to 10752
  154.2734  135.6358  153.5372 H   0  0  0  0  0  0  0  0  0  0  0  0  # atno 10765 bound_to 10752
  139.8774  134.9193  156.4945 H   0  0  0  0  0  0  0  0  0  0  0  0  # atno 11005 bound_to 11000
  145.3131  139.1812  143.4628 LP  0  0  0  0  0  0  0  0  0  0  0  0  # atno 17320 bound_to 7965
  146.3249  140.3139  142.8628 LP  0  0  0  0  0  0  0  0  0  0  0  0  # atno 17321 bound_to 7965
  140.7021  143.7605  150.7420 LP  0  0  0  0  0  0  0  0  0  0  0  0  # atno 17342 bound_to 10162
  140.1119  143.4691  152.2365 LP  0  0  0  0  0  0  0  0  0  0  0  0  # atno 17343 bound_to 10162
  155.9665  130.4327  150.4977 LP  0  0  0  0  0  0  0  0  0  0  0  0  # atno 17370 bound_to 10713
  157.2927  131.0629  151.2123 LP  0  0  0  0  0  0  0  0  0  0  0  0  # atno 17371 bound_to 10713
  140.8634  133.8042  155.9289 LP  0  0  0  0  0  0  0  0  0  0  0  0  # atno 17394 bound_to 11000
  140.9026  134.2359  157.5033 LP  0  0  0  0  0  0  0  0  0  0  0  0  # atno 17395 bound_to 11000

$$$$
