AV-unprocessed.smi:2114|AV-procd|sdf|8622|dock9
  -GOLD-   2272011363D 1   1.00000     0.00000
 Structure written by MMmdl.
 47 48  0  0  0  0  0  0  0  0  1 V2000
  145.5509  136.2942  151.5959 C   0  0  0  0  0  0  0  0  0  0  0  0
  145.9330  136.6383  152.9159 O   0  0  0  0  0  0  0  0  0  0  0  0
  145.9011  138.0377  153.1457 C   0  0  0  0  0  0  0  0  0  0  0  0
  147.1512  138.6819  152.5271 C   0  0  1  0  0  0  0  0  0  0  0  0
  146.7896  139.6584  151.3988 C   0  0  0  0  0  0  0  0  0  0  0  0
  147.8989  139.3917  153.5617 N   0  0  0  0  0  0  0  0  0  0  0  0
  147.4015  140.3205  154.3947 C   0  0  0  0  0  0  0  0  0  0  0  0
  146.2328  140.7066  154.3739 O   0  0  0  0  0  0  0  0  0  0  0  0
  148.3945  140.9303  155.3399 C   0  0  0  0  0  0  0  0  0  0  0  0
  149.7867  140.8095  155.1310 C   0  0  0  0  0  0  0  0  0  0  0  0
  150.6701  141.3879  156.0622 C   0  0  0  0  0  0  0  0  0  0  0  0
  150.1340  142.0679  157.1747 C   0  0  0  0  0  0  0  0  0  0  0  0
  151.0100  142.6522  158.0997 N   0  0  0  0  0  0  0  0  0  0  0  0
  151.9394  141.7124  158.7110 C   0  0  0  0  0  0  0  0  0  0  0  0
  152.7240  142.4080  159.8375 C   0  0  1  0  0  0  0  0  0  0  0  0
  153.7895  141.4899  160.4454 C   0  0  0  0  0  0  0  0  0  0  0  0
  153.3794  143.5634  159.3125 O   0  0  0  0  0  0  0  0  0  0  0  0
  152.5128  144.5170  158.6911 C   0  0  2  0  0  0  0  0  0  0  0  0
  151.6585  145.2777  159.7204 C   0  0  0  0  0  0  0  0  0  0  0  0
  151.6806  143.8384  157.5845 C   0  0  0  0  0  0  0  0  0  0  0  0
  148.8014  142.1757  157.3907 N   0  0  0  0  0  0  0  0  0  0  0  0
  147.9598  141.6138  156.4967 C   0  0  0  0  0  0  0  0  0  0  0  0
  145.5889  135.2117  151.4740 H   0  0  0  0  0  0  0  0  0  0  0  0
  146.2231  136.7392  150.8611 H   0  0  0  0  0  0  0  0  0  0  0  0
  144.5325  136.6212  151.3825 H   0  0  0  0  0  0  0  0  0  0  0  0
  145.0032  138.4580  152.6898 H   0  0  0  0  0  0  0  0  0  0  0  0
  145.8528  138.2467  154.2159 H   0  0  0  0  0  0  0  0  0  0  0  0
  147.7595  137.8840  152.0972 H   0  0  0  0  0  0  0  0  0  0  0  0
  146.2480  139.1510  150.6003 H   0  0  0  0  0  0  0  0  0  0  0  0
  147.6850  140.0990  150.9590 H   0  0  0  0  0  0  0  0  0  0  0  0
  146.1612  140.4721  151.7628 H   0  0  0  0  0  0  0  0  0  0  0  0
  148.8801  139.1676  153.6418 H   0  0  0  0  0  0  0  0  0  0  0  0
  150.1820  140.2815  154.2753 H   0  0  0  0  0  0  0  0  0  0  0  0
  151.7385  141.3123  155.9215 H   0  0  0  0  0  0  0  0  0  0  0  0
  151.3903  140.8571  159.1070 H   0  0  0  0  0  0  0  0  0  0  0  0
  152.6291  141.3324  157.9556 H   0  0  0  0  0  0  0  0  0  0  0  0
  152.0396  142.7034  160.6332 H   0  0  0  0  0  0  0  0  0  0  0  0
  153.3384  140.5929  160.8706 H   0  0  0  0  0  0  0  0  0  0  0  0
  154.3319  141.9981  161.2430 H   0  0  0  0  0  0  0  0  0  0  0  0
  154.5163  141.1767  159.6951 H   0  0  0  0  0  0  0  0  0  0  0  0
  153.1616  145.2523  158.2148 H   0  0  0  0  0  0  0  0  0  0  0  0
  151.1108  146.0901  159.2421 H   0  0  0  0  0  0  0  0  0  0  0  0
  152.2857  145.7157  160.4970 H   0  0  0  0  0  0  0  0  0  0  0  0
  150.9243  144.6344  160.2051 H   0  0  0  0  0  0  0  0  0  0  0  0
  152.3365  143.5478  156.7623 H   0  0  0  0  0  0  0  0  0  0  0  0
  150.9495  144.5374  157.1759 H   0  0  0  0  0  0  0  0  0  0  0  0
  146.9068  141.7250  156.7121 H   0  0  0  0  0  0  0  0  0  0  0  0
  1  2  1  0  0  0  0
  1 23  1  0  0  0  0
  1 24  1  0  0  0  0
  1 25  1  0  0  0  0
  2  3  1  0  0  0  0
  3  4  1  0  0  0  0
  3 26  1  0  0  0  0
  3 27  1  0  0  0  0
  4  5  1  0  0  0  0
  4  6  1  0  0  0  0
  4 28  1  0  0  0  0
  5 29  1  0  0  0  0
  5 30  1  0  0  0  0
  5 31  1  0  0  0  0
  6  7  1  0  0  0  0
  6 32  1  0  0  0  0
  7  8  2  0  0  0  0
  7  9  1  0  0  0  0
  9 22  1  0  0  0  0
  9 10  2  0  0  0  0
 10 11  1  0  0  0  0
 10 33  1  0  0  0  0
 11 12  2  0  0  0  0
 11 34  1  0  0  0  0
 12 13  1  0  0  0  0
 12 21  1  0  0  0  0
 13 20  1  0  0  0  0
 13 14  1  0  0  0  0
 14 15  1  0  0  0  0
 14 35  1  0  0  0  0
 14 36  1  0  0  0  0
 15 16  1  0  0  0  0
 15 17  1  0  0  0  0
 15 37  1  0  0  0  0
 16 38  1  0  0  0  0
 16 39  1  0  0  0  0
 16 40  1  0  0  0  0
 17 18  1  0  0  0  0
 18 19  1  0  0  0  0
 18 20  1  0  0  0  0
 18 41  1  0  0  0  0
 19 42  1  0  0  0  0
 19 43  1  0  0  0  0
 19 44  1  0  0  0  0
 20 45  1  0  0  0  0
 20 46  1  0  0  0  0
 21 22  2  0  0  0  0
 22 47  1  0  0  0  0
M  END
> <s_m_source_file>
AV-unprocessed.smi

> <i_m_source_file_index>
2114

> <i_lp_mmshare_version>
43012

> <i_f3d_flags>
0

> <s_epik_input>
W0NIM11PW0NIMl1bQ0BIXShbQ0gzXSlbTkhdQyg9TyljMVtjSF1bY0hdYyhuW2NIXTEpTjJbQ0gyXVtDQEBIXShbQ0gzXSlPW0NAQEhdKFtDSDNdKVtDSDJdMg==

> <s_epik_cmdline>
J2VwaWtfcHl0aG9uJywgJy1waCcsICc3LjAnLCAnLXRuJywgJzgnLCAnLW1hJywgJzIwMCcsICctbWV0YWxfYmluZGluZycsICctaW1hZScsICc8aW5maWxlLm1hZT4nLCAnLW9tYWUnLCAnPG91dGZpbGUubWFlPic=

> <r_lp_tautomer_probability>
1

> <r_epik_Ionization_Penalty>
1.92915e-05

> <r_epik_Ionization_Penalty_Charging>
0

> <r_epik_Ionization_Penalty_Neutral>
1.92915e-05

> <r_epik_State_Penalty>
-0

> <r_epik_Charging_Adjusted_Penalty>
0

> <i_epik_Tot_Q>
0

> <i_epik_Tot_abs_Q>
0

> <r_epik_Metal_State_Penalty>
-0

> <b_epik_Metal_Only>
0

> <s_lp_Force_Field>
OPLS_2005

> <r_lp_Energy>
24.377

> <b_lp_Chiralities_Consistent>
1

> <s_lp_Variant>
AV-unprocessed.smi:2114-6

> <Gold.Version>
5.8.1

> <Gold.Id.Protein>
6NUR|6NUR_protein|mol2

> <Gold.PLP.Fitness>
40.7734

> <Gold.PLP.PLP>
-42.9890

> <Gold.PLP.part.hbond>
-1.0000

> <Gold.PLP.part.metal>
0.0000

> <Gold.PLP.part.buried>
-1.0611

> <Gold.PLP.part.nonpolar>
-41.9155

> <Gold.PLP.part.repulsive>
0.8909

> <Gold.PLP.ligand.clash>
0.0000

> <Gold.PLP.ligand.torsion>
1.1689

> <Gold.PLP.Chemscore.Hbond>
0.0000

> <Gold.PLP.Chemscore.CHOScore>
0.0000

> <Gold.PLP.Chemscore.Metal>
0.0000

> <Gold.PLP.Chemscore.Internal.Correction>
0.1223

> <Gold.Rescore>
     Score         DG    S(hbond)    S(metal)    S(lipo)     H(rot)  DE(clash)    DE(int)     intcor
     12.19     -15.00       0.00        0.00     114.71       1.52       0.44       2.37       ----

> <Gold.Chemscore.Fitness>
12.1901

> <Gold.Chemscore.DG>
-15.0027

> <Gold.Chemscore.ZeroCoef>
-5.4800

> <Gold.Chemscore.Hbond>
0.0000

> <Gold.Chemscore.Metal>
0.0000

> <Gold.Chemscore.Lipo>
114.7062

> <Gold.Chemscore.Internal_Hbond>
0.0000

> <Gold.Chemscore.DEClash>
0.4406

> <Gold.Chemscore.DEInternal>
2.3719

> <Gold.Chemscore.Rot>
1.5226

> <Gold.Chemscore.Internal.Correction>
   9.000000E+99

> <Gold.Chemscore.Hbond.Weighted>
-0.0000

> <Gold.Chemscore.Metal.Weighted>
-0.0000

> <Gold.Chemscore.Lipo.Weighted>
-13.4206

> <Gold.Chemscore.Internal_Hbond.Weighted>
0.0000

> <Gold.Chemscore.DEClash.Weighted>
0.4406

> <Gold.Chemscore.DEInternal.Weighted>
2.3719

> <Gold.Chemscore.Rot.Weighted>
3.8980

> <Gold.Chemscore.Internal.Correction.Weighted>
   9.000000E+99

> <Gold.Protein.RotatedTorsions>
[ 6907 6896 6895 6894 ] final   77.13 input  -60.11 | X-H torsion
[ 7974 7965 7964 7962 ] final   82.17 input  175.53 | X-H torsion
[ 8008 7997 7996 7995 ] final   69.68 input   59.86 | X-H torsion
[ 10167 10162 10161 10158 ] final -108.91 input  -65.29 | X-H torsion
[ 10718 10713 10712 10709 ] final -151.19 input   66.30 | X-H torsion
[ 10763 10752 10751 10750 ] final -165.62 input  -60.55 | X-H torsion
[ 11005 11000 10999 10996 ] final  177.98 input  -57.11 | X-H torsion

> <Gold.Protein.ActiveResidues>
 VAL166  LYS551  ARG553  GLY616  TRP617  ASP618  TYR619  PRO620  LYS621  CYS622 
 ASP623  PHE694  ASN695  SER759  ASP760  ASP761  ALA762  ILE779  LEU786  VAL792 
 PHE793  MET794  SER795  GLU796  ALA797  LYS798  CYS799  TRP800  GLU811  SER814 

> <Gold.Protein.RotatedAtoms>
  152.5104  134.3864  159.9368 H   0  0  0  0  0  0  0  0  0  0  0  0  # atno 6907 bound_to 6896
  151.3823  133.3811  159.2719 H   0  0  0  0  0  0  0  0  0  0  0  0  # atno 6908 bound_to 6896
  150.9495  134.8917  159.7722 H   0  0  0  0  0  0  0  0  0  0  0  0  # atno 6909 bound_to 6896
  145.6286  139.2400  143.2097 H   0  0  0  0  0  0  0  0  0  0  0  0  # atno 7974 bound_to 7965
  155.7272  140.3492  155.5043 H   0  0  0  0  0  0  0  0  0  0  0  0  # atno 8008 bound_to 7997
  155.9215  140.1068  157.1224 H   0  0  0  0  0  0  0  0  0  0  0  0  # atno 8009 bound_to 7997
  154.4070  140.1248  156.4673 H   0  0  0  0  0  0  0  0  0  0  0  0  # atno 8010 bound_to 7997
  140.1610  143.4120  152.1425 H   0  0  0  0  0  0  0  0  0  0  0  0  # atno 10167 bound_to 10162
  156.4560  130.8191  151.2422 H   0  0  0  0  0  0  0  0  0  0  0  0  # atno 10718 bound_to 10713
  154.6914  135.2971  154.9474 H   0  0  0  0  0  0  0  0  0  0  0  0  # atno 10763 bound_to 10752
  154.0436  135.6654  153.4796 H   0  0  0  0  0  0  0  0  0  0  0  0  # atno 10764 bound_to 10752
  153.0615  135.5113  154.8008 H   0  0  0  0  0  0  0  0  0  0  0  0  # atno 10765 bound_to 10752
  140.3901  134.6870  157.4502 H   0  0  0  0  0  0  0  0  0  0  0  0  # atno 11005 bound_to 11000
  146.1375  140.7103  142.9383 LP  0  0  0  0  0  0  0  0  0  0  0  0  # atno 17320 bound_to 7965
  144.7202  140.4349  143.7013 LP  0  0  0  0  0  0  0  0  0  0  0  0  # atno 17321 bound_to 7965
  139.5381  144.7230  151.4825 LP  0  0  0  0  0  0  0  0  0  0  0  0  # atno 17342 bound_to 10162
  140.6643  143.8432  150.6923 LP  0  0  0  0  0  0  0  0  0  0  0  0  # atno 17343 bound_to 10162
  157.7500  131.0122  150.3376 LP  0  0  0  0  0  0  0  0  0  0  0  0  # atno 17370 bound_to 10713
  156.3766  130.3873  149.7134 LP  0  0  0  0  0  0  0  0  0  0  0  0  # atno 17371 bound_to 10713
  140.0413  134.6263  155.8977 LP  0  0  0  0  0  0  0  0  0  0  0  0  # atno 17394 bound_to 11000
  141.1894  133.6565  156.5365 LP  0  0  0  0  0  0  0  0  0  0  0  0  # atno 17395 bound_to 11000

$$$$
