AV-unprocessed.smi:3345|AV-procd|sdf|12899|dock3
  -GOLD-   2272019313D 1   1.00000     0.00000
 Structure written by MMmdl.
 40 41  0  0  0  0  0  0  0  0  1 V2000
  145.1528  136.5841  154.4138 C   0  0  0  0  0  0  0  0  0  0  0  0
  146.6135  136.9743  154.6745 C   0  0  2  0  0  0  0  0  0  0  0  0
  146.9748  138.3149  153.9986 C   0  0  0  0  0  0  0  0  0  0  0  0
  148.0304  139.0873  154.6581 N   0  0  0  0  0  0  0  0  0  0  0  0
  148.0618  140.4841  154.2316 C   0  0  0  0  0  0  0  0  0  0  0  0
  149.1774  141.2711  154.9402 C   0  0  0  0  0  0  0  0  0  0  0  0
  150.4318  140.6389  154.7066 O   0  0  0  0  0  0  0  0  0  0  0  0
  150.4557  139.2847  155.1461 C   0  0  0  0  0  0  0  0  0  0  0  0
  149.3431  138.4925  154.4381 C   0  0  0  0  0  0  0  0  0  0  0  0
  147.4963  135.9246  154.1722 N   0  0  0  0  0  0  0  0  0  0  0  0
  147.4748  134.6345  154.5443 C   0  0  0  0  0  0  0  0  0  0  0  0
  146.5802  134.1411  155.2319 O   0  0  0  0  0  0  0  0  0  0  0  0
  148.6825  133.7940  154.1042 C   0  0  2  0  0  0  0  0  0  0  0  0
  148.4799  132.2823  154.3350 C   0  0  0  0  0  0  0  0  0  0  0  0
  149.8873  134.2989  154.7544 N   0  0  0  0  0  0  0  0  0  0  0  0
  150.4309  135.5177  154.7224 C   0  0  0  0  0  0  0  0  0  0  0  0
  151.5002  135.6528  155.4937 N   0  0  0  0  0  0  0  0  0  0  0  0
  151.5591  134.3948  156.0222 C   0  0  0  0  0  0  0  0  0  0  0  0
  150.6110  133.5480  155.6220 N   0  0  0  0  0  0  0  0  0  0  0  0
  144.4716  137.3488  154.7880 H   0  0  0  0  0  0  0  0  0  0  0  0
  144.9019  135.6477  154.9132 H   0  0  0  0  0  0  0  0  0  0  0  0
  144.9576  136.4570  153.3485 H   0  0  0  0  0  0  0  0  0  0  0  0
  146.7264  137.0845  155.7536 H   0  0  0  0  0  0  0  0  0  0  0  0
  147.2932  138.0950  152.9785 H   0  0  0  0  0  0  0  0  0  0  0  0
  146.0774  138.9280  153.9027 H   0  0  0  0  0  0  0  0  0  0  0  0
  148.2093  140.5387  153.1521 H   0  0  0  0  0  0  0  0  0  0  0  0
  147.1088  140.9677  154.4417 H   0  0  0  0  0  0  0  0  0  0  0  0
  149.2172  142.2938  154.5655 H   0  0  0  0  0  0  0  0  0  0  0  0
  148.9858  141.3298  156.0124 H   0  0  0  0  0  0  0  0  0  0  0  0
  151.4312  138.8537  154.9207 H   0  0  0  0  0  0  0  0  0  0  0  0
  150.3300  139.2443  156.2287 H   0  0  0  0  0  0  0  0  0  0  0  0
  149.3492  137.4640  154.8008 H   0  0  0  0  0  0  0  0  0  0  0  0
  149.5550  138.4483  153.3688 H   0  0  0  0  0  0  0  0  0  0  0  0
  148.2661  136.2292  153.5942 H   0  0  0  0  0  0  0  0  0  0  0  0
  148.8100  133.9438  153.0309 H   0  0  0  0  0  0  0  0  0  0  0  0
  147.6088  131.9157  153.7911 H   0  0  0  0  0  0  0  0  0  0  0  0
  148.3351  132.0430  155.3893 H   0  0  0  0  0  0  0  0  0  0  0  0
  149.3441  131.7171  153.9846 H   0  0  0  0  0  0  0  0  0  0  0  0
  150.0298  136.3268  154.1298 H   0  0  0  0  0  0  0  0  0  0  0  0
  152.3176  134.0971  156.7312 H   0  0  0  0  0  0  0  0  0  0  0  0
  1  2  1  0  0  0  0
  1 20  1  0  0  0  0
  1 21  1  0  0  0  0
  1 22  1  0  0  0  0
  2  3  1  0  0  0  0
  2 10  1  0  0  0  0
  2 23  1  0  0  0  0
  3  4  1  0  0  0  0
  3 24  1  0  0  0  0
  3 25  1  0  0  0  0
  4  9  1  0  0  0  0
  4  5  1  0  0  0  0
  5  6  1  0  0  0  0
  5 26  1  0  0  0  0
  5 27  1  0  0  0  0
  6  7  1  0  0  0  0
  6 28  1  0  0  0  0
  6 29  1  0  0  0  0
  7  8  1  0  0  0  0
  8  9  1  0  0  0  0
  8 30  1  0  0  0  0
  8 31  1  0  0  0  0
  9 32  1  0  0  0  0
  9 33  1  0  0  0  0
 10 11  1  0  0  0  0
 10 34  1  0  0  0  0
 11 12  2  0  0  0  0
 11 13  1  0  0  0  0
 13 14  1  0  0  0  0
 13 15  1  0  0  0  0
 13 35  1  0  0  0  0
 14 36  1  0  0  0  0
 14 37  1  0  0  0  0
 14 38  1  0  0  0  0
 15 19  1  0  0  0  0
 15 16  1  0  0  0  0
 16 17  2  0  0  0  0
 16 39  1  0  0  0  0
 17 18  1  0  0  0  0
 18 19  2  0  0  0  0
 18 40  1  0  0  0  0
M  END
> <s_m_source_file>
AV-unprocessed.smi

> <i_m_source_file_index>
3345

> <i_lp_mmshare_version>
43012

> <i_f3d_flags>
0

> <s_epik_input>
W0NIMl0xW0NIMl1PW0NIMl1bQ0gyXU4xW0NIMl1bQ0BASF0oW0NIM10pW05IXUMoPU8pW0NASF0oW0NIM10pbjJbY0hdbltjSF1uMg==

> <s_epik_cmdline>
J2VwaWtfcHl0aG9uJywgJy1waCcsICc3LjAnLCAnLXRuJywgJzgnLCAnLW1hJywgJzIwMCcsICctbWV0YWxfYmluZGluZycsICctaW1hZScsICc8aW5maWxlLm1hZT4nLCAnLW9tYWUnLCAnPG91dGZpbGUubWFlPic=

> <r_lp_tautomer_probability>
1

> <r_epik_Ionization_Penalty>
0.211373

> <r_epik_Ionization_Penalty_Charging>
0

> <r_epik_Ionization_Penalty_Neutral>
0.211373

> <r_epik_State_Penalty>
0.201459

> <r_epik_Charging_Adjusted_Penalty>
0.201459

> <i_epik_Tot_Q>
0

> <i_epik_Tot_abs_Q>
0

> <r_epik_Metal_State_Penalty>
0.201458

> <b_epik_Metal_Only>
0

> <s_lp_Force_Field>
OPLS_2005

> <r_lp_Energy>
29.1887

> <b_lp_Chiralities_Consistent>
1

> <s_lp_Variant>
AV-unprocessed.smi:3345-1

> <Gold.Version>
5.8.1

> <Gold.Id.Protein>
6NUR|6NUR_protein|mol2

> <Gold.PLP.Fitness>
34.8810

> <Gold.PLP.PLP>
-24.3974

> <Gold.PLP.part.hbond>
-3.0000

> <Gold.PLP.part.metal>
0.0000

> <Gold.PLP.part.buried>
-3.0639

> <Gold.PLP.part.nonpolar>
-18.9530

> <Gold.PLP.part.repulsive>
0.3274

> <Gold.PLP.ligand.clash>
0.0000

> <Gold.PLP.ligand.torsion>
0.6607

> <Gold.PLP.Chemscore.Hbond>
2.8640

> <Gold.PLP.Chemscore.CHOScore>
0.9994

> <Gold.PLP.Chemscore.Metal>
0.0000

> <Gold.Chemscore.Hbonds>
donor molecule, donor type, donor heavy atom, donor atom, acceptor molecule, acceptor atom, score
      L1  H    10    34       P1  7948  0.90
      P1  H  7989  7998       L1     7  0.91
      P1  H 10752 10763       L1    17  0.55
      L1  C    16    39       P1  7948  0.96

> <Gold.PLP.Chemscore.Internal.Correction>
0.2150

> <Gold.Rescore>
     Score         DG    S(hbond)    S(metal)    S(lipo)     H(rot)  DE(clash)    DE(int)     intcor
     10.93     -13.18       2.80        0.00      41.48       2.54       0.01       2.24       ----

> <Gold.Chemscore.Fitness>
10.9302

> <Gold.Chemscore.DG>
-13.1778

> <Gold.Chemscore.ZeroCoef>
-5.4800

> <Gold.Chemscore.Hbond>
2.7950

> <Gold.Chemscore.Metal>
0.0000

> <Gold.Chemscore.Lipo>
41.4786

> <Gold.Chemscore.Internal_Hbond>
0.0000

> <Gold.Chemscore.DEClash>
0.0121

> <Gold.Chemscore.DEInternal>
2.2355

> <Gold.Chemscore.Rot>
2.5353

> <Gold.Chemscore.Internal.Correction>
   9.000000E+99

> <Gold.Chemscore.Hbonds>
donor molecule, donor type, donor heavy atom, donor atom, acceptor molecule, acceptor atom, score
      L1  H    10    34       P1  7948  0.88
      P1  H  7989  7998       L1     7  0.67
      P1  H 10752 10763       L1    17  0.03

> <Gold.Chemscore.Hbond.Weighted>
-9.3353

> <Gold.Chemscore.Metal.Weighted>
-0.0000

> <Gold.Chemscore.Lipo.Weighted>
-4.8530

> <Gold.Chemscore.Internal_Hbond.Weighted>
0.0000

> <Gold.Chemscore.DEClash.Weighted>
0.0121

> <Gold.Chemscore.DEInternal.Weighted>
2.2355

> <Gold.Chemscore.Rot.Weighted>
6.4905

> <Gold.Chemscore.Internal.Correction.Weighted>
   9.000000E+99

> <Gold.Protein.RotatedTorsions>
[ 6907 6896 6895 6894 ] final   66.86 input  -60.11 | X-H torsion
[ 7974 7965 7964 7962 ] final   34.51 input  175.53 | X-H torsion
[ 8008 7997 7996 7995 ] final -116.30 input   59.86 | X-H torsion
[ 10167 10162 10161 10158 ] final   33.08 input  -65.29 | X-H torsion
[ 10718 10713 10712 10709 ] final   25.92 input   66.30 | X-H torsion
[ 10763 10752 10751 10750 ] final   76.59 input  -60.55 | X-H torsion
[ 11005 11000 10999 10996 ] final -120.69 input  -57.11 | X-H torsion

> <Gold.Protein.ActiveResidues>
 VAL166  LYS551  ARG553  GLY616  TRP617  ASP618  TYR619  PRO620  LYS621  CYS622 
 ASP623  PHE694  ASN695  SER759  ASP760  ASP761  ALA762  ILE779  LEU786  VAL792 
 PHE793  MET794  SER795  GLU796  ALA797  LYS798  CYS799  TRP800  GLU811  SER814 

> <Gold.Protein.RotatedAtoms>
  152.4511  134.5392  159.9833 H   0  0  0  0  0  0  0  0  0  0  0  0  # atno 6907 bound_to 6896
  151.5464  133.3418  159.2953 H   0  0  0  0  0  0  0  0  0  0  0  0  # atno 6908 bound_to 6896
  150.8440  134.7774  159.7019 H   0  0  0  0  0  0  0  0  0  0  0  0  # atno 6909 bound_to 6896
  146.1348  139.6260  142.9202 H   0  0  0  0  0  0  0  0  0  0  0  0  # atno 7974 bound_to 7965
  155.0657  140.0393  157.2592 H   0  0  0  0  0  0  0  0  0  0  0  0  # atno 8008 bound_to 7997
  154.7023  140.2676  155.6683 H   0  0  0  0  0  0  0  0  0  0  0  0  # atno 8009 bound_to 7997
  156.2764  140.2738  156.1638 H   0  0  0  0  0  0  0  0  0  0  0  0  # atno 8010 bound_to 7997
  140.4440  144.1146  150.6179 H   0  0  0  0  0  0  0  0  0  0  0  0  # atno 10167 bound_to 10162
  157.1999  130.6885  149.6184 H   0  0  0  0  0  0  0  0  0  0  0  0  # atno 10718 bound_to 10713
  153.0736  135.4946  154.8358 H   0  0  0  0  0  0  0  0  0  0  0  0  # atno 10763 bound_to 10752
  154.7057  135.3010  154.9276 H   0  0  0  0  0  0  0  0  0  0  0  0  # atno 10764 bound_to 10752
  153.9986  135.6769  153.4811 H   0  0  0  0  0  0  0  0  0  0  0  0  # atno 10765 bound_to 10752
  141.0125  134.0244  157.3395 H   0  0  0  0  0  0  0  0  0  0  0  0  # atno 11005 bound_to 11000
  145.5180  141.0433  143.2451 LP  0  0  0  0  0  0  0  0  0  0  0  0  # atno 17320 bound_to 7965
  144.7728  139.6696  143.7187 LP  0  0  0  0  0  0  0  0  0  0  0  0  # atno 17321 bound_to 7965
  140.4285  143.2579  151.9625 LP  0  0  0  0  0  0  0  0  0  0  0  0  # atno 17342 bound_to 10162
  139.4791  144.5765  151.8002 LP  0  0  0  0  0  0  0  0  0  0  0  0  # atno 17343 bound_to 10162
  155.9702  130.4586  150.6006 LP  0  0  0  0  0  0  0  0  0  0  0  0  # atno 17370 bound_to 10713
  157.3778  131.0776  151.1503 LP  0  0  0  0  0  0  0  0  0  0  0  0  # atno 17371 bound_to 10713
  139.9098  135.0188  156.7642 LP  0  0  0  0  0  0  0  0  0  0  0  0  # atno 17394 bound_to 11000
  140.6710  133.9559  155.7856 LP  0  0  0  0  0  0  0  0  0  0  0  0  # atno 17395 bound_to 11000

$$$$
