AV-unprocessed.smi:634|AV-procd|sdf|3135|dock3
  -GOLD-   22720 0 63D 1   1.00000     0.00000
 Structure written by MMmdl.
 32 33  0  0  0  0  0  0  0  0  2 V2000
  143.9202  134.6325  162.5221 C   0  0  0  0  0  0  0  0  0  0  0  0
  145.0873  135.1437  161.7484 C   0  0  0  0  0  0  0  0  0  0  0  0
  145.4956  136.4025  161.4101 C   0  0  0  0  0  0  0  0  0  0  0  0
  146.6895  136.1701  160.6742 C   0  0  0  0  0  0  0  0  0  0  0  0
  147.4642  137.1112  160.1127 N   0  5  0  0  0  0  0  0  0  0  0  0
  148.5620  136.7569  159.4056 C   0  0  0  0  0  0  0  0  0  0  0  0
  148.9673  135.6078  159.2184 O   0  0  0  0  0  0  0  0  0  0  0  0
  149.2279  137.8042  158.8897 N   0  0  0  0  0  0  0  0  0  0  0  0
  150.4603  137.8102  158.0894 C   0  0  1  0  0  0  0  0  0  0  0  0
  151.5389  137.1161  158.9444 C   0  0  0  0  0  0  0  0  0  0  0  0
  150.2852  137.0142  156.7518 C   0  0  0  0  0  0  0  0  0  0  0  0
  150.4329  137.9361  155.5336 C   0  0  0  0  0  0  0  0  0  0  0  0
  151.5636  139.2536  156.0778 S   0  0  0  0  0  0  0  0  0  0  0  0
  152.9349  138.7211  156.0961 O   0  0  0  0  0  0  0  0  0  0  0  0
  151.2456  140.5181  155.3971 O   0  0  0  0  0  0  0  0  0  0  0  0
  150.9141  139.2644  157.7820 C   0  0  0  0  0  0  0  0  0  0  0  0
  146.9712  134.8828  160.5605 N   0  0  0  0  0  0  0  0  0  0  0  0
  145.9515  134.2179  161.2521 O   0  0  0  0  0  0  0  0  0  0  0  0
  142.9958  134.7735  161.9620 H   0  0  0  0  0  0  0  0  0  0  0  0
  143.8260  135.1612  163.4706 H   0  0  0  0  0  0  0  0  0  0  0  0
  144.0259  133.5691  162.7381 H   0  0  0  0  0  0  0  0  0  0  0  0
  145.0204  137.3409  161.6531 H   0  0  0  0  0  0  0  0  0  0  0  0
  148.8318  138.7123  159.0838 H   0  0  0  0  0  0  0  0  0  0  0  0
  152.5018  137.0968  158.4326 H   0  0  0  0  0  0  0  0  0  0  0  0
  151.2645  136.0846  159.1691 H   0  0  0  0  0  0  0  0  0  0  0  0
  151.6856  137.6300  159.8953 H   0  0  0  0  0  0  0  0  0  0  0  0
  151.0609  136.2508  156.6760 H   0  0  0  0  0  0  0  0  0  0  0  0
  149.3434  136.4658  156.7082 H   0  0  0  0  0  0  0  0  0  0  0  0
  150.8284  137.4324  154.6521 H   0  0  0  0  0  0  0  0  0  0  0  0
  149.4779  138.3965  155.2802 H   0  0  0  0  0  0  0  0  0  0  0  0
  150.0813  139.9675  157.7992 H   0  0  0  0  0  0  0  0  0  0  0  0
  151.6749  139.6421  158.4651 H   0  0  0  0  0  0  0  0  0  0  0  0
  1  2  1  0  0  0  0
  1 19  1  0  0  0  0
  1 20  1  0  0  0  0
  1 21  1  0  0  0  0
  2 18  1  0  0  0  0
  2  3  2  0  0  0  0
  3  4  1  0  0  0  0
  3 22  1  0  0  0  0
  4  5  1  0  0  0  0
  4 17  2  0  0  0  0
  5  6  1  0  0  0  0
  6  7  2  0  0  0  0
  6  8  1  0  0  0  0
  8  9  1  0  0  0  0
  8 23  1  0  0  0  0
  9 16  1  0  0  0  0
  9 10  1  0  0  0  0
  9 11  1  0  0  0  0
 10 24  1  0  0  0  0
 10 25  1  0  0  0  0
 10 26  1  0  0  0  0
 11 12  1  0  0  0  0
 11 27  1  0  0  0  0
 11 28  1  0  0  0  0
 12 13  1  0  0  0  0
 12 29  1  0  0  0  0
 12 30  1  0  0  0  0
 13 14  2  0  0  0  0
 13 15  2  0  0  0  0
 13 16  1  0  0  0  0
 16 31  1  0  0  0  0
 16 32  1  0  0  0  0
 17 18  1  0  0  0  0
M  CHG  1   5  -1
M  END
> <s_m_source_file>
AV-unprocessed.smi

> <i_m_source_file_index>
634

> <i_lp_mmshare_version>
43012

> <i_f3d_flags>
0

> <s_epik_input>
W0NIM11jMVtjSF1jKG5vMSlbTkhdQyg9TylbTkhdW0NAQF0yKFtDSDNdKVtDSDJdW0NIMl1TKD1PKSg9TylbQ0gyXTI=

> <s_epik_cmdline>
J2VwaWtfcHl0aG9uJywgJy1waCcsICc3LjAnLCAnLXRuJywgJzgnLCAnLW1hJywgJzIwMCcsICctbWV0YWxfYmluZGluZycsICctaW1hZScsICc8aW5maWxlLm1hZT4nLCAnLW9tYWUnLCAnPG91dGZpbGUubWFlPic=

> <r_lp_tautomer_probability>
1

> <r_epik_Ionization_Penalty>
6.15572

> <r_epik_Ionization_Penalty_Charging>
6.1556

> <r_epik_Ionization_Penalty_Neutral>
0.000118136

> <r_epik_State_Penalty>
6.15558

> <r_epik_Charging_Adjusted_Penalty>
12.3112

> <i_epik_Tot_Q>
-1

> <i_epik_Tot_abs_Q>
1

> <r_epik_Metal_State_Penalty>
2.10569

> <b_epik_Metal_Only>
1

> <s_lp_Force_Field>
OPLS_2005

> <r_lp_Energy>
-1.37943

> <b_lp_Chiralities_Consistent>
1

> <s_lp_Variant>
AV-unprocessed.smi:634-3

> <Gold.Version>
5.8.1

> <Gold.Id.Protein>
6NUR|6NUR_protein|mol2

> <Gold.PLP.Fitness>
37.0898

> <Gold.PLP.PLP>
-22.1489

> <Gold.PLP.part.hbond>
-4.0000

> <Gold.PLP.part.metal>
0.0000

> <Gold.PLP.part.buried>
-6.0123

> <Gold.PLP.part.nonpolar>
-13.1482

> <Gold.PLP.part.repulsive>
0.2910

> <Gold.PLP.ligand.clash>
0.0000

> <Gold.PLP.ligand.torsion>
0.0082

> <Gold.PLP.Chemscore.Hbond>
4.9840

> <Gold.PLP.Chemscore.CHOScore>
0.0000

> <Gold.PLP.Chemscore.Metal>
0.0000

> <Gold.Chemscore.Hbonds>
donor molecule, donor type, donor heavy atom, donor atom, acceptor molecule, acceptor atom, score
      P1  H  6896  6908       L1     7  1.00
      P1  H  6934  6947       L1     5  1.69
      P1  H  7989  7998       L1    15  0.90
      P1  H  7997  8008       L1    14  1.00

> <Gold.PLP.Chemscore.Internal.Correction>
0.0053

> <Gold.Rescore>
     Score         DG    S(hbond)    S(metal)    S(lipo)     H(rot)  DE(clash)    DE(int)     intcor
     17.55     -20.29       3.83        0.00      39.08       1.00       0.01       2.72       ----

> <Gold.Chemscore.Fitness>
17.5517

> <Gold.Chemscore.DG>
-20.2877

> <Gold.Chemscore.ZeroCoef>
-5.4800

> <Gold.Chemscore.Hbond>
3.8308

> <Gold.Chemscore.Metal>
0.0000

> <Gold.Chemscore.Lipo>
39.0835

> <Gold.Chemscore.Internal_Hbond>
0.0000

> <Gold.Chemscore.DEClash>
0.0140

> <Gold.Chemscore.DEInternal>
2.7219

> <Gold.Chemscore.Rot>
1.0000

> <Gold.Chemscore.Internal.Correction>
   9.000000E+99

> <Gold.Chemscore.Hbonds>
donor molecule, donor type, donor heavy atom, donor atom, acceptor molecule, acceptor atom, score
      P1  H  6896  6908       L1     7  0.95
      P1  H  6934  6947       L1     5  0.68
      P1  H  7989  7998       L1    15  0.86
      P1  H  7997  8008       L1    14  0.80

> <Gold.Chemscore.Hbond.Weighted>
-12.7949

> <Gold.Chemscore.Metal.Weighted>
-0.0000

> <Gold.Chemscore.Lipo.Weighted>
-4.5728

> <Gold.Chemscore.Internal_Hbond.Weighted>
0.0000

> <Gold.Chemscore.DEClash.Weighted>
0.0140

> <Gold.Chemscore.DEInternal.Weighted>
2.7219

> <Gold.Chemscore.Rot.Weighted>
2.5600

> <Gold.Chemscore.Internal.Correction.Weighted>
   9.000000E+99

> <Gold.Protein.RotatedTorsions>
[ 6907 6896 6895 6894 ] final  174.42 input  -60.11 | X-H torsion
[ 7974 7965 7964 7962 ] final  165.75 input  175.53 | X-H torsion
[ 8008 7997 7996 7995 ] final  -28.99 input   59.86 | X-H torsion
[ 10167 10162 10161 10158 ] final  154.37 input  -65.29 | X-H torsion
[ 10718 10713 10712 10709 ] final  -55.59 input   66.30 | X-H torsion
[ 10763 10752 10751 10750 ] final   43.91 input  -60.55 | X-H torsion
[ 11005 11000 10999 10996 ] final   31.85 input  -57.11 | X-H torsion

> <Gold.Protein.ActiveResidues>
 VAL166  LYS551  ARG553  GLY616  TRP617  ASP618  TYR619  PRO620  LYS621  CYS622 
 ASP623  PHE694  ASN695  SER759  ASP760  ASP761  ALA762  ILE779  LEU786  VAL792 
 PHE793  MET794  SER795  GLU796  ALA797  LYS798  CYS799  TRP800  GLU811  SER814 

> <Gold.Protein.RotatedAtoms>
  151.7526  133.3328  159.3395 H   0  0  0  0  0  0  0  0  0  0  0  0  # atno 6907 bound_to 6896
  150.7529  134.6178  159.6129 H   0  0  0  0  0  0  0  0  0  0  0  0  # atno 6908 bound_to 6896
  152.3458  134.7075  160.0302 H   0  0  0  0  0  0  0  0  0  0  0  0  # atno 6909 bound_to 6896
  144.7490  139.8516  143.6372 H   0  0  0  0  0  0  0  0  0  0  0  0  # atno 7974 bound_to 7965
  154.4308  140.1830  156.1177 H   0  0  0  0  0  0  0  0  0  0  0  0  # atno 8008 bound_to 7997
  156.0168  140.3345  155.6971 H   0  0  0  0  0  0  0  0  0  0  0  0  # atno 8009 bound_to 7997
  155.6033  140.0642  157.2717 H   0  0  0  0  0  0  0  0  0  0  0  0  # atno 8010 bound_to 7997
  139.4823  144.5192  151.7902 H   0  0  0  0  0  0  0  0  0  0  0  0  # atno 10167 bound_to 10162
  156.1357  130.4157  150.0191 H   0  0  0  0  0  0  0  0  0  0  0  0  # atno 10718 bound_to 10713
  152.9851  135.6087  154.3189 H   0  0  0  0  0  0  0  0  0  0  0  0  # atno 10763 bound_to 10752
  154.2900  135.2775  155.2661 H   0  0  0  0  0  0  0  0  0  0  0  0  # atno 10764 bound_to 10752
  154.4961  135.5879  153.6552 H   0  0  0  0  0  0  0  0  0  0  0  0  # atno 10765 bound_to 10752
  140.2796  134.2988  155.7804 H   0  0  0  0  0  0  0  0  0  0  0  0  # atno 11005 bound_to 11000
  146.1412  139.4469  143.0107 LP  0  0  0  0  0  0  0  0  0  0  0  0  # atno 17320 bound_to 7965
  145.7015  141.0134  143.1502 LP  0  0  0  0  0  0  0  0  0  0  0  0  # atno 17321 bound_to 7965
  140.4704  144.1594  150.5917 LP  0  0  0  0  0  0  0  0  0  0  0  0  # atno 17342 bound_to 10162
  140.4388  143.2535  151.9500 LP  0  0  0  0  0  0  0  0  0  0  0  0  # atno 17343 bound_to 10162
  156.8091  130.9318  151.3644 LP  0  0  0  0  0  0  0  0  0  0  0  0  # atno 17370 bound_to 10713
  157.6529  130.8900  149.9670 LP  0  0  0  0  0  0  0  0  0  0  0  0  # atno 17371 bound_to 10713
  141.2165  133.7517  156.9460 LP  0  0  0  0  0  0  0  0  0  0  0  0  # atno 17394 bound_to 11000
  140.1296  134.9365  157.2318 LP  0  0  0  0  0  0  0  0  0  0  0  0  # atno 17395 bound_to 11000

$$$$
