AV-unprocessed.smi:1501|AV-procd|sdf|6066|dock2
  -GOLD-   22720 6183D 1   1.00000     0.00000
 Structure written by MMmdl.
 48 49  0  0  0  0  0  0  0  0  2 V2000
  148.7952  141.0449  155.0036 C   0  0  0  0  0  0  0  0  0  0  0  0
  150.0448  140.9238  155.8575 C   0  0  0  0  0  0  0  0  0  0  0  0
  150.1921  141.8866  156.8665 N   0  0  0  0  0  0  0  0  0  0  0  0
  151.2330  141.8657  157.6434 C   0  0  0  0  0  0  0  0  0  0  0  0
  151.4156  142.8073  158.6598 N   0  0  0  0  0  0  0  0  0  0  0  0
  152.5939  142.7594  159.5287 C   0  0  0  0  0  0  0  0  0  0  0  0
  152.3378  143.4856  160.8599 C   0  0  0  0  0  0  0  0  0  0  0  0
  151.9231  144.8213  160.6068 O   0  0  0  0  0  0  0  0  0  0  0  0
  150.7089  144.8531  159.8693 C   0  0  0  0  0  0  0  0  0  0  0  0
  150.9122  144.1726  158.5054 C   0  0  0  0  0  0  0  0  0  0  0  0
  152.2273  140.9066  157.5277 N   0  5  0  0  0  0  0  0  0  0  0  0
  152.1462  139.9353  156.5743 C   0  0  0  0  0  0  0  0  0  0  0  0
  153.0081  139.0652  156.4542 O   0  0  0  0  0  0  0  0  0  0  0  0
  150.9773  139.9467  155.6776 C   0  0  0  0  0  0  0  0  0  0  0  0
  150.8756  138.8850  154.5846 C   0  0  0  0  0  0  0  0  0  0  0  0
  149.5796  138.0596  154.6983 C   0  0  0  0  0  0  0  0  0  0  0  0
  149.7194  136.8358  155.6087 C   0  0  0  0  0  0  0  0  0  0  0  0
  149.8196  136.9671  156.8292 O   0  0  0  0  0  0  0  0  0  0  0  0
  149.7359  135.6421  154.9963 N   0  0  0  0  0  0  0  0  0  0  0  0
  149.8764  134.3557  155.6714 C   0  0  0  0  0  0  0  0  0  0  0  0
  150.0196  133.1781  154.6837 C   0  0  0  0  0  0  0  0  0  0  0  0
  148.7376  133.0040  153.8564 C   0  0  0  0  0  0  0  0  0  0  0  0
  150.3930  131.8646  155.3920 C   0  0  0  0  0  0  0  0  0  0  0  0
  148.2574  140.0972  154.9713 H   0  0  0  0  0  0  0  0  0  0  0  0
  149.0578  141.3315  153.9852 H   0  0  0  0  0  0  0  0  0  0  0  0
  148.1170  141.8006  155.4017 H   0  0  0  0  0  0  0  0  0  0  0  0
  152.8960  141.7334  159.7400 H   0  0  0  0  0  0  0  0  0  0  0  0
  153.4283  143.2282  159.0059 H   0  0  0  0  0  0  0  0  0  0  0  0
  151.5828  142.9620  161.4483 H   0  0  0  0  0  0  0  0  0  0  0  0
  153.2496  143.5054  161.4570 H   0  0  0  0  0  0  0  0  0  0  0  0
  149.9132  144.3630  160.4329 H   0  0  0  0  0  0  0  0  0  0  0  0
  150.4059  145.8905  159.7286 H   0  0  0  0  0  0  0  0  0  0  0  0
  151.6196  144.7443  157.9038 H   0  0  0  0  0  0  0  0  0  0  0  0
  149.9639  144.1694  157.9662 H   0  0  0  0  0  0  0  0  0  0  0  0
  150.9297  139.3645  153.6073 H   0  0  0  0  0  0  0  0  0  0  0  0
  151.7467  138.2289  154.6261 H   0  0  0  0  0  0  0  0  0  0  0  0
  148.7743  138.6939  155.0722 H   0  0  0  0  0  0  0  0  0  0  0  0
  149.2712  137.7142  153.7111 H   0  0  0  0  0  0  0  0  0  0  0  0
  149.6469  135.6245  153.9906 H   0  0  0  0  0  0  0  0  0  0  0  0
  150.7535  134.4074  156.3171 H   0  0  0  0  0  0  0  0  0  0  0  0
  149.0222  134.1959  156.3318 H   0  0  0  0  0  0  0  0  0  0  0  0
  150.8225  133.4156  153.9843 H   0  0  0  0  0  0  0  0  0  0  0  0
  147.8840  132.7652  154.4919 H   0  0  0  0  0  0  0  0  0  0  0  0
  148.8456  132.2006  153.1272 H   0  0  0  0  0  0  0  0  0  0  0  0
  148.4983  133.9148  153.3066 H   0  0  0  0  0  0  0  0  0  0  0  0
  149.6359  131.5810  156.1236 H   0  0  0  0  0  0  0  0  0  0  0  0
  151.3467  131.9477  155.9137 H   0  0  0  0  0  0  0  0  0  0  0  0
  150.4865  131.0467  154.6770 H   0  0  0  0  0  0  0  0  0  0  0  0
  1  2  1  0  0  0  0
  1 24  1  0  0  0  0
  1 25  1  0  0  0  0
  1 26  1  0  0  0  0
  2 14  2  0  0  0  0
  2  3  1  0  0  0  0
  3  4  2  0  0  0  0
  4  5  1  0  0  0  0
  4 11  1  0  0  0  0
  5 10  1  0  0  0  0
  5  6  1  0  0  0  0
  6  7  1  0  0  0  0
  6 27  1  0  0  0  0
  6 28  1  0  0  0  0
  7  8  1  0  0  0  0
  7 29  1  0  0  0  0
  7 30  1  0  0  0  0
  8  9  1  0  0  0  0
  9 10  1  0  0  0  0
  9 31  1  0  0  0  0
  9 32  1  0  0  0  0
 10 33  1  0  0  0  0
 10 34  1  0  0  0  0
 11 12  1  0  0  0  0
 12 13  2  0  0  0  0
 12 14  1  0  0  0  0
 14 15  1  0  0  0  0
 15 16  1  0  0  0  0
 15 35  1  0  0  0  0
 15 36  1  0  0  0  0
 16 17  1  0  0  0  0
 16 37  1  0  0  0  0
 16 38  1  0  0  0  0
 17 18  2  0  0  0  0
 17 19  1  0  0  0  0
 19 20  1  0  0  0  0
 19 39  1  0  0  0  0
 20 21  1  0  0  0  0
 20 40  1  0  0  0  0
 20 41  1  0  0  0  0
 21 22  1  0  0  0  0
 21 23  1  0  0  0  0
 21 42  1  0  0  0  0
 22 43  1  0  0  0  0
 22 44  1  0  0  0  0
 22 45  1  0  0  0  0
 23 46  1  0  0  0  0
 23 47  1  0  0  0  0
 23 48  1  0  0  0  0
M  CHG  1  11  -1
M  END
> <s_m_source_file>
AV-unprocessed.smi

> <i_m_source_file_index>
1501

> <i_lp_mmshare_version>
43012

> <i_f3d_flags>
0

> <s_epik_input>
W0NIMl0xW0NIMl1PW0NIMl1bQ0gyXU4xYyhuYzJbQ0gzXSlbbkhdYyg9TyljMltDSDJdW0NIMl1DKD1PKVtOSF1bQ0gyXVtDSF0oW0NIM10pW0NIM10=

> <s_epik_cmdline>
J2VwaWtfcHl0aG9uJywgJy1waCcsICc3LjAnLCAnLXRuJywgJzgnLCAnLW1hJywgJzIwMCcsICctbWV0YWxfYmluZGluZycsICctaW1hZScsICc8aW5maWxlLm1hZT4nLCAnLW9tYWUnLCAnPG91dGZpbGUubWFlPic=

> <r_lp_tautomer_probability>
1

> <r_epik_Ionization_Penalty>
5.04715

> <r_epik_Ionization_Penalty_Charging>
9.89309e-08

> <r_epik_Ionization_Penalty_Neutral>
5.04715

> <r_epik_State_Penalty>
2.57778

> <r_epik_Charging_Adjusted_Penalty>
2.57778

> <i_epik_Tot_Q>
-1

> <i_epik_Tot_abs_Q>
1

> <r_epik_Metal_State_Penalty>
0.1232

> <b_epik_Metal_Only>
0

> <s_lp_Force_Field>
OPLS_2005

> <r_lp_Energy>
25.0321

> <b_lp_Chiralities_Consistent>
1

> <s_lp_Variant>
AV-unprocessed.smi:1501-3

> <Gold.Version>
5.8.1

> <Gold.Id.Protein>
6NUR|6NUR_protein|mol2

> <Gold.PLP.Fitness>
51.0340

> <Gold.PLP.PLP>
-46.8341

> <Gold.PLP.part.hbond>
-2.2708

> <Gold.PLP.part.metal>
0.0000

> <Gold.PLP.part.buried>
-3.5833

> <Gold.PLP.part.nonpolar>
-40.3886

> <Gold.PLP.part.repulsive>
0.3114

> <Gold.PLP.ligand.clash>
0.0000

> <Gold.PLP.ligand.torsion>
0.5484

> <Gold.PLP.Chemscore.Hbond>
1.6500

> <Gold.PLP.Chemscore.CHOScore>
0.0000

> <Gold.PLP.Chemscore.Metal>
0.0000

> <Gold.Chemscore.Hbonds>
donor molecule, donor type, donor heavy atom, donor atom, acceptor molecule, acceptor atom, score
      L1  H    19    39       P1  7948  0.37
      P1  H  7997  8008       L1    13  0.85

> <Gold.PLP.Chemscore.Internal.Correction>
0.3467

> <Gold.Rescore>
     Score         DG    S(hbond)    S(metal)    S(lipo)     H(rot)  DE(clash)    DE(int)     intcor
     14.81     -15.31       0.91        0.00      97.29       1.79       0.08       0.42       ----

> <Gold.Chemscore.Fitness>
14.8141

> <Gold.Chemscore.DG>
-15.3143

> <Gold.Chemscore.ZeroCoef>
-5.4800

> <Gold.Chemscore.Hbond>
0.9063

> <Gold.Chemscore.Metal>
0.0000

> <Gold.Chemscore.Lipo>
97.2938

> <Gold.Chemscore.Internal_Hbond>
0.0000

> <Gold.Chemscore.DEClash>
0.0827

> <Gold.Chemscore.DEInternal>
0.4175

> <Gold.Chemscore.Rot>
1.7875

> <Gold.Chemscore.Internal.Correction>
   9.000000E+99

> <Gold.Chemscore.Hbonds>
donor molecule, donor type, donor heavy atom, donor atom, acceptor molecule, acceptor atom, score
      L1  H    19    39       P1  7948  0.09
      P1  H  7997  8008       L1    13  0.15

> <Gold.Chemscore.Hbond.Weighted>
-3.0269

> <Gold.Chemscore.Metal.Weighted>
-0.0000

> <Gold.Chemscore.Lipo.Weighted>
-11.3834

> <Gold.Chemscore.Internal_Hbond.Weighted>
0.0000

> <Gold.Chemscore.DEClash.Weighted>
0.0827

> <Gold.Chemscore.DEInternal.Weighted>
0.4175

> <Gold.Chemscore.Rot.Weighted>
4.5760

> <Gold.Chemscore.Internal.Correction.Weighted>
   9.000000E+99

> <Gold.Protein.RotatedTorsions>
[ 6907 6896 6895 6894 ] final   21.27 input  -60.11 | X-H torsion
[ 7974 7965 7964 7962 ] final    6.36 input  175.53 | X-H torsion
[ 8008 7997 7996 7995 ] final  -38.68 input   59.86 | X-H torsion
[ 10167 10162 10161 10158 ] final -179.25 input  -65.29 | X-H torsion
[ 10718 10713 10712 10709 ] final  111.25 input   66.30 | X-H torsion
[ 10763 10752 10751 10750 ] final   14.47 input  -60.55 | X-H torsion
[ 11005 11000 10999 10996 ] final  145.56 input  -57.11 | X-H torsion

> <Gold.Protein.ActiveResidues>
 VAL166  LYS551  ARG553  GLY616  TRP617  ASP618  TYR619  PRO620  LYS621  CYS622 
 ASP623  PHE694  ASN695  SER759  ASP760  ASP761  ALA762  ILE779  LEU786  VAL792 
 PHE793  MET794  SER795  GLU796  ALA797  LYS798  CYS799  TRP800  GLU811  SER814 

> <Gold.Protein.RotatedAtoms>
  151.9092  135.0346  160.0512 H   0  0  0  0  0  0  0  0  0  0  0  0  # atno 6907 bound_to 6896
  152.2293  133.5041  159.5215 H   0  0  0  0  0  0  0  0  0  0  0  0  # atno 6908 bound_to 6896
  150.7021  134.1154  159.4058 H   0  0  0  0  0  0  0  0  0  0  0  0  # atno 6909 bound_to 6896
  146.2435  140.0245  142.8395 H   0  0  0  0  0  0  0  0  0  0  0  0  # atno 7974 bound_to 7965
  154.4033  140.1571  156.2740 H   0  0  0  0  0  0  0  0  0  0  0  0  # atno 8008 bound_to 7997
  155.8928  140.3437  155.5947 H   0  0  0  0  0  0  0  0  0  0  0  0  # atno 8009 bound_to 7997
  155.7538  140.0808  157.2179 H   0  0  0  0  0  0  0  0  0  0  0  0  # atno 8010 bound_to 7997
  139.5395  144.2403  152.0865 H   0  0  0  0  0  0  0  0  0  0  0  0  # atno 10167 bound_to 10162
  157.6454  131.0947  150.6722 H   0  0  0  0  0  0  0  0  0  0  0  0  # atno 10718 bound_to 10713
  153.1619  135.6797  153.8731 H   0  0  0  0  0  0  0  0  0  0  0  0  # atno 10763 bound_to 10752
  153.8123  135.3141  155.3403 H   0  0  0  0  0  0  0  0  0  0  0  0  # atno 10764 bound_to 10752
  154.7938  135.4819  154.0203 H   0  0  0  0  0  0  0  0  0  0  0  0  # atno 10765 bound_to 10752
  140.0722  134.9145  157.1364 H   0  0  0  0  0  0  0  0  0  0  0  0  # atno 11005 bound_to 11000
  145.1210  140.9462  143.4600 LP  0  0  0  0  0  0  0  0  0  0  0  0  # atno 17320 bound_to 7965
  145.0481  139.3204  143.5942 LP  0  0  0  0  0  0  0  0  0  0  0  0  # atno 17321 bound_to 7965
  140.1879  144.4780  150.6494 LP  0  0  0  0  0  0  0  0  0  0  0  0  # atno 17342 bound_to 10162
  140.6618  143.2254  151.5838 LP  0  0  0  0  0  0  0  0  0  0  0  0  # atno 17343 bound_to 10162
  156.7039  130.4631  149.5565 LP  0  0  0  0  0  0  0  0  0  0  0  0  # atno 17370 bound_to 10713
  156.1776  130.6478  151.0913 LP  0  0  0  0  0  0  0  0  0  0  0  0  # atno 17371 bound_to 10713
  140.3610  134.2494  155.7187 LP  0  0  0  0  0  0  0  0  0  0  0  0  # atno 17394 bound_to 11000
  141.2016  133.7958  157.0432 LP  0  0  0  0  0  0  0  0  0  0  0  0  # atno 17395 bound_to 11000

$$$$
