AV-unprocessed.smi:3260|AV-procd|sdf|12477|dock7
  -GOLD-   2272018373D 1   1.00000     0.00000
 Structure written by MMmdl.
 38 39  0  0  0  0  0  0  0  0  1 V2000
  144.2503  131.8442  150.2511 C   0  0  0  0  0  0  0  0  0  0  0  0
  144.7495  133.0770  150.8216 N   0  0  0  0  0  0  0  0  0  0  0  0
  144.0622  134.2407  151.0918 C   0  0  0  0  0  0  0  0  0  0  0  0
  144.9541  135.1296  151.6229 C   0  0  0  0  0  0  0  0  0  0  0  0
  144.7181  136.5411  152.0828 C   0  0  0  0  0  0  0  0  0  0  0  0
  145.9756  137.1427  152.7310 C   0  0  0  0  0  0  0  0  0  0  0  0
  145.8376  138.5798  152.9354 N   0  0  0  0  0  0  0  0  0  0  0  0
  146.7997  139.3803  153.4147 C   0  0  0  0  0  0  0  0  0  0  0  0
  147.9204  138.9900  153.7428 O   0  0  0  0  0  0  0  0  0  0  0  0
  146.3938  140.6553  153.4915 N   0  0  0  0  0  0  0  0  0  0  0  0
  147.2207  141.7701  153.9390 C   0  0  0  0  0  0  0  0  0  0  0  0
  146.3731  142.8565  154.6205 C   0  0  1  0  0  0  0  0  0  0  0  0
  145.5206  143.6714  153.6509 C   0  0  0  0  0  0  0  0  0  0  0  0
  144.3968  144.1992  154.5285 C   0  0  0  0  0  0  0  0  0  0  0  0
  144.4428  143.3053  155.7718 C   0  0  0  0  0  0  0  0  0  0  0  0
  145.3886  142.2887  155.4699 O   0  0  0  0  0  0  0  0  0  0  0  0
  146.1773  134.4004  151.6387 C   0  0  0  0  0  0  0  0  0  0  0  0
  146.0515  133.1733  151.1601 N   0  0  0  0  0  0  0  0  0  0  0  0
  143.2201  131.9760  149.9193 H   0  0  0  0  0  0  0  0  0  0  0  0
  144.2842  131.0521  150.9995 H   0  0  0  0  0  0  0  0  0  0  0  0
  144.8630  131.5567  149.3959 H   0  0  0  0  0  0  0  0  0  0  0  0
  143.0072  134.3415  150.8837 H   0  0  0  0  0  0  0  0  0  0  0  0
  144.4106  137.1674  151.2447 H   0  0  0  0  0  0  0  0  0  0  0  0
  143.8917  136.5732  152.7941 H   0  0  0  0  0  0  0  0  0  0  0  0
  146.1907  136.6484  153.6803 H   0  0  0  0  0  0  0  0  0  0  0  0
  146.8424  136.9747  152.0912 H   0  0  0  0  0  0  0  0  0  0  0  0
  144.9498  138.9934  152.6914 H   0  0  0  0  0  0  0  0  0  0  0  0
  145.4527  140.8747  153.2000 H   0  0  0  0  0  0  0  0  0  0  0  0
  147.9475  141.3762  154.6498 H   0  0  0  0  0  0  0  0  0  0  0  0
  147.7960  142.1889  153.1112 H   0  0  0  0  0  0  0  0  0  0  0  0
  147.0076  143.5253  155.2056 H   0  0  0  0  0  0  0  0  0  0  0  0
  146.0838  144.4640  153.1576 H   0  0  0  0  0  0  0  0  0  0  0  0
  145.1048  143.0225  152.8788 H   0  0  0  0  0  0  0  0  0  0  0  0
  144.5641  145.2415  154.8021 H   0  0  0  0  0  0  0  0  0  0  0  0
  143.4359  144.1366  154.0169 H   0  0  0  0  0  0  0  0  0  0  0  0
  144.7876  143.8716  156.6382 H   0  0  0  0  0  0  0  0  0  0  0  0
  143.4716  142.8727  156.0131 H   0  0  0  0  0  0  0  0  0  0  0  0
  147.1483  134.7265  151.9817 H   0  0  0  0  0  0  0  0  0  0  0  0
  1  2  1  0  0  0  0
  1 19  1  0  0  0  0
  1 20  1  0  0  0  0
  1 21  1  0  0  0  0
  2 18  1  0  0  0  0
  2  3  1  0  0  0  0
  3  4  2  0  0  0  0
  3 22  1  0  0  0  0
  4  5  1  0  0  0  0
  4 17  1  0  0  0  0
  5  6  1  0  0  0  0
  5 23  1  0  0  0  0
  5 24  1  0  0  0  0
  6  7  1  0  0  0  0
  6 25  1  0  0  0  0
  6 26  1  0  0  0  0
  7  8  1  0  0  0  0
  7 27  1  0  0  0  0
  8  9  2  0  0  0  0
  8 10  1  0  0  0  0
 10 11  1  0  0  0  0
 10 28  1  0  0  0  0
 11 12  1  0  0  0  0
 11 29  1  0  0  0  0
 11 30  1  0  0  0  0
 12 16  1  0  0  0  0
 12 13  1  0  0  0  0
 12 31  1  0  0  0  0
 13 14  1  0  0  0  0
 13 32  1  0  0  0  0
 13 33  1  0  0  0  0
 14 15  1  0  0  0  0
 14 34  1  0  0  0  0
 14 35  1  0  0  0  0
 15 16  1  0  0  0  0
 15 36  1  0  0  0  0
 15 37  1  0  0  0  0
 17 18  2  0  0  0  0
 17 38  1  0  0  0  0
M  END
> <s_m_source_file>
AV-unprocessed.smi

> <i_m_source_file_index>
3260

> <i_lp_mmshare_version>
43012

> <i_f3d_flags>
0

> <s_epik_input>
W0NIM11uMVtjSF1jKFtjSF1uMSlbQ0gyXVtDSDJdW05IXUMoPU8pW05IXVtDSDJdW0NAQEhdMltDSDJdW0NIMl1bQ0gyXU8y

> <s_epik_cmdline>
J2VwaWtfcHl0aG9uJywgJy1waCcsICc3LjAnLCAnLXRuJywgJzgnLCAnLW1hJywgJzIwMCcsICctbWV0YWxfYmluZGluZycsICctaW1hZScsICc8aW5maWxlLm1hZT4nLCAnLW9tYWUnLCAnPG91dGZpbGUubWFlPic=

> <r_lp_tautomer_probability>
1

> <r_epik_Ionization_Penalty>
0.000550106

> <r_epik_Ionization_Penalty_Charging>
0

> <r_epik_Ionization_Penalty_Neutral>
0.000550106

> <r_epik_State_Penalty>
-0

> <r_epik_Charging_Adjusted_Penalty>
0

> <i_epik_Tot_Q>
0

> <i_epik_Tot_abs_Q>
0

> <r_epik_Metal_State_Penalty>
-0

> <b_epik_Metal_Only>
0

> <s_lp_Force_Field>
OPLS_2005

> <r_lp_Energy>
10.8429

> <b_lp_Chiralities_Consistent>
1

> <s_lp_Variant>
AV-unprocessed.smi:3260-2

> <Gold.Version>
5.8.1

> <Gold.Id.Protein>
6NUR|6NUR_protein|mol2

> <Gold.PLP.Fitness>
45.0537

> <Gold.PLP.PLP>
-33.7886

> <Gold.PLP.part.hbond>
-2.0000

> <Gold.PLP.part.metal>
0.0000

> <Gold.PLP.part.buried>
-6.3113

> <Gold.PLP.part.nonpolar>
-26.2898

> <Gold.PLP.part.repulsive>
0.7489

> <Gold.PLP.ligand.clash>
0.0000

> <Gold.PLP.ligand.torsion>
0.3742

> <Gold.PLP.Chemscore.Hbond>
2.0000

> <Gold.PLP.Chemscore.CHOScore>
1.9938

> <Gold.PLP.Chemscore.Metal>
0.0000

> <Gold.Chemscore.Hbonds>
donor molecule, donor type, donor heavy atom, donor atom, acceptor molecule, acceptor atom, score
      L1  H     7    27       P1 10175  1.00
      L1  H    10    28       P1 10175  1.00
      L1  C     3    22       P1 10186  1.00
      L1  C    17    38       P1  7948  1.00

> <Gold.PLP.Chemscore.Internal.Correction>
0.0322

> <Gold.Rescore>
     Score         DG    S(hbond)    S(metal)    S(lipo)     H(rot)  DE(clash)    DE(int)     intcor
     12.77     -13.89       1.69        0.00      64.17       1.85       0.59       0.52       ----

> <Gold.Chemscore.Fitness>
12.7743

> <Gold.Chemscore.DG>
-13.8854

> <Gold.Chemscore.ZeroCoef>
-5.4800

> <Gold.Chemscore.Hbond>
1.6888

> <Gold.Chemscore.Metal>
0.0000

> <Gold.Chemscore.Lipo>
64.1717

> <Gold.Chemscore.Internal_Hbond>
0.0000

> <Gold.Chemscore.DEClash>
0.5917

> <Gold.Chemscore.DEInternal>
0.5194

> <Gold.Chemscore.Rot>
1.8528

> <Gold.Chemscore.Internal.Correction>
   9.000000E+99

> <Gold.Chemscore.Hbonds>
donor molecule, donor type, donor heavy atom, donor atom, acceptor molecule, acceptor atom, score
      L1  H     7    27       P1 10175  0.97
      L1  H    10    28       P1 10175  0.59

> <Gold.Chemscore.Hbond.Weighted>
-5.6406

> <Gold.Chemscore.Metal.Weighted>
-0.0000

> <Gold.Chemscore.Lipo.Weighted>
-7.5081

> <Gold.Chemscore.Internal_Hbond.Weighted>
0.0000

> <Gold.Chemscore.DEClash.Weighted>
0.5917

> <Gold.Chemscore.DEInternal.Weighted>
0.5194

> <Gold.Chemscore.Rot.Weighted>
4.7433

> <Gold.Chemscore.Internal.Correction.Weighted>
   9.000000E+99

> <Gold.Protein.RotatedTorsions>
[ 6907 6896 6895 6894 ] final -168.90 input  -60.11 | X-H torsion
[ 7974 7965 7964 7962 ] final   51.05 input  175.53 | X-H torsion
[ 8008 7997 7996 7995 ] final -141.98 input   59.86 | X-H torsion
[ 10167 10162 10161 10158 ] final  -33.67 input  -65.29 | X-H torsion
[ 10718 10713 10712 10709 ] final    9.24 input   66.30 | X-H torsion
[ 10763 10752 10751 10750 ] final   58.24 input  -60.55 | X-H torsion
[ 11005 11000 10999 10996 ] final  -28.83 input  -57.11 | X-H torsion

> <Gold.Protein.ActiveResidues>
 VAL166  LYS551  ARG553  GLY616  TRP617  ASP618  TYR619  PRO620  LYS621  CYS622 
 ASP623  PHE694  ASN695  SER759  ASP760  ASP761  ALA762  ILE779  LEU786  VAL792 
 PHE793  MET794  SER795  GLU796  ALA797  LYS798  CYS799  TRP800  GLU811  SER814 

> <Gold.Protein.RotatedAtoms>
  151.4830  133.3542  159.2841 H   0  0  0  0  0  0  0  0  0  0  0  0  # atno 6907 bound_to 6896
  150.8884  134.8287  159.7287 H   0  0  0  0  0  0  0  0  0  0  0  0  # atno 6908 bound_to 6896
  152.4808  134.4737  159.9695 H   0  0  0  0  0  0  0  0  0  0  0  0  # atno 6909 bound_to 6896
  145.9952  139.4381  143.0049 H   0  0  0  0  0  0  0  0  0  0  0  0  # atno 7974 bound_to 7965
  155.4867  140.0564  157.2959 H   0  0  0  0  0  0  0  0  0  0  0  0  # atno 8008 bound_to 7997
  154.4639  140.2009  156.0122 H   0  0  0  0  0  0  0  0  0  0  0  0  # atno 8009 bound_to 7997
  156.0939  140.3229  155.7857 H   0  0  0  0  0  0  0  0  0  0  0  0  # atno 8010 bound_to 7997
  140.7200  143.3603  151.1976 H   0  0  0  0  0  0  0  0  0  0  0  0  # atno 10167 bound_to 10162
  156.9635  130.5942  149.5663 H   0  0  0  0  0  0  0  0  0  0  0  0  # atno 10718 bound_to 10713
  152.9866  135.5613  154.5520 H   0  0  0  0  0  0  0  0  0  0  0  0  # atno 10763 bound_to 10752
  154.4955  135.2795  155.1464 H   0  0  0  0  0  0  0  0  0  0  0  0  # atno 10764 bound_to 10752
  154.2916  135.6325  153.5440 H   0  0  0  0  0  0  0  0  0  0  0  0  # atno 10765 bound_to 10752
  140.9243  133.7379  156.0845 H   0  0  0  0  0  0  0  0  0  0  0  0  # atno 11005 bound_to 11000
  145.7570  140.9950  143.1220 LP  0  0  0  0  0  0  0  0  0  0  0  0  # atno 17320 bound_to 7965
  144.6901  139.9284  143.7471 LP  0  0  0  0  0  0  0  0  0  0  0  0  # atno 17321 bound_to 7965
  139.7154  143.9309  152.2964 LP  0  0  0  0  0  0  0  0  0  0  0  0  # atno 17342 bound_to 10162
  139.9048  144.6891  150.8626 LP  0  0  0  0  0  0  0  0  0  0  0  0  # atno 17343 bound_to 10162
  156.0312  130.5403  150.8539 LP  0  0  0  0  0  0  0  0  0  0  0  0  # atno 17370 bound_to 10713
  157.5642  131.0946  150.9515 LP  0  0  0  0  0  0  0  0  0  0  0  0  # atno 17371 bound_to 10713
  140.7947  134.3578  157.5455 LP  0  0  0  0  0  0  0  0  0  0  0  0  # atno 17394 bound_to 11000
  139.8782  134.9161  156.3147 LP  0  0  0  0  0  0  0  0  0  0  0  0  # atno 17395 bound_to 11000

$$$$
