AV-unprocessed.smi:1209|AV-procd|sdf|5073|dock3
  -GOLD-   22720 4123D 1   1.00000     0.00000
 Structure written by MMmdl.
 49 51  0  0  0  0  0  0  0  0  2 V2000
  142.2169  145.5989  155.8777 C   0  0  0  0  0  0  0  0  0  0  0  0
  143.3582  144.6408  155.9040 C   0  0  0  0  0  0  0  0  0  0  0  0
  143.6239  143.4895  155.2187 C   0  0  0  0  0  0  0  0  0  0  0  0
  144.8848  143.0772  155.7308 C   0  0  0  0  0  0  0  0  0  0  0  0
  145.6888  141.8620  155.3557 C   0  0  0  0  0  0  0  0  0  0  0  0
  146.0722  141.8706  153.9200 N   0  3  1  0  0  0  0  0  0  0  0  0
  146.3567  143.2367  153.4128 C   0  0  0  0  0  0  0  0  0  0  0  0
  147.1661  140.9081  153.6216 C   0  0  0  0  0  0  0  0  0  0  0  0
  148.3791  141.0830  154.5574 C   0  0  2  0  0  0  0  0  0  0  0  0
  149.1696  142.1555  154.0796 O   0  0  0  0  0  0  0  0  0  0  0  0
  149.2366  139.8041  154.6298 C   0  0  0  0  0  0  0  0  0  0  0  0
  150.3564  139.9372  155.5449 N   0  0  0  0  0  0  0  0  0  0  0  0
  151.4885  139.2074  155.5489 C   0  0  0  0  0  0  0  0  0  0  0  0
  152.3909  139.4883  156.4841 N   0  0  0  0  0  0  0  0  0  0  0  0
  151.7735  140.5226  157.1662 C   0  0  0  0  0  0  0  0  0  0  0  0
  152.2059  141.2709  158.2827 C   0  0  0  0  0  0  0  0  0  0  0  0
  151.3988  142.2962  158.8249 C   0  0  0  0  0  0  0  0  0  0  0  0
  151.9019  143.0725  160.0291 C   0  0  0  0  0  0  0  0  0  0  0  0
  150.1376  142.5884  158.2462 C   0  0  0  0  0  0  0  0  0  0  0  0
  149.2544  143.6867  158.8111 C   0  0  0  0  0  0  0  0  0  0  0  0
  149.6899  141.8503  157.1305 C   0  0  0  0  0  0  0  0  0  0  0  0
  150.5008  140.8302  156.6018 C   0  0  0  0  0  0  0  0  0  0  0  0
  145.3368  143.9119  156.6525 N   0  0  0  0  0  0  0  0  0  0  0  0
  144.3702  144.9169  156.7664 O   0  0  0  0  0  0  0  0  0  0  0  0
  141.3799  145.1924  155.3095 H   0  0  0  0  0  0  0  0  0  0  0  0
  142.5137  146.5409  155.4161 H   0  0  0  0  0  0  0  0  0  0  0  0
  141.8664  145.8118  156.8878 H   0  0  0  0  0  0  0  0  0  0  0  0
  143.0085  143.0149  154.4685 H   0  0  0  0  0  0  0  0  0  0  0  0
  146.5840  141.7741  155.9740 H   0  0  0  0  0  0  0  0  0  0  0  0
  145.0851  140.9787  155.5680 H   0  0  0  0  0  0  0  0  0  0  0  0
  147.1893  143.6876  153.9543 H   0  0  0  0  0  0  0  0  0  0  0  0
  145.4897  143.8878  153.5225 H   0  0  0  0  0  0  0  0  0  0  0  0
  146.6096  143.2294  152.3535 H   0  0  0  0  0  0  0  0  0  0  0  0
  146.7754  139.8912  153.6845 H   0  0  0  0  0  0  0  0  0  0  0  0
  147.5116  141.0342  152.5944 H   0  0  0  0  0  0  0  0  0  0  0  0
  148.0480  141.3320  155.5651 H   0  0  0  0  0  0  0  0  0  0  0  0
  149.2395  142.8088  154.7591 H   0  0  0  0  0  0  0  0  0  0  0  0
  148.6273  138.9618  154.9601 H   0  0  0  0  0  0  0  0  0  0  0  0
  149.6205  139.5404  153.6434 H   0  0  0  0  0  0  0  0  0  0  0  0
  151.6587  138.4233  154.8256 H   0  0  0  0  0  0  0  0  0  0  0  0
  153.1671  141.0486  158.7225 H   0  0  0  0  0  0  0  0  0  0  0  0
  152.0224  144.1271  159.7806 H   0  0  0  0  0  0  0  0  0  0  0  0
  152.8667  142.6966  160.3704 H   0  0  0  0  0  0  0  0  0  0  0  0
  151.1997  142.9898  160.8587 H   0  0  0  0  0  0  0  0  0  0  0  0
  148.3440  143.8076  158.2234 H   0  0  0  0  0  0  0  0  0  0  0  0
  149.7817  144.6410  158.8089 H   0  0  0  0  0  0  0  0  0  0  0  0
  148.9637  143.4531  159.8355 H   0  0  0  0  0  0  0  0  0  0  0  0
  148.7303  142.0620  156.6831 H   0  0  0  0  0  0  0  0  0  0  0  0
  145.2638  141.5314  153.4173 H   0  0  0  0  0  0  0  0  0  0  0  0
  1  2  1  0  0  0  0
  1 25  1  0  0  0  0
  1 26  1  0  0  0  0
  1 27  1  0  0  0  0
  2 24  1  0  0  0  0
  2  3  2  0  0  0  0
  3  4  1  0  0  0  0
  3 28  1  0  0  0  0
  4  5  1  0  0  0  0
  4 23  2  0  0  0  0
  5  6  1  0  0  0  0
  5 29  1  0  0  0  0
  5 30  1  0  0  0  0
  6  7  1  0  0  0  0
  6  8  1  0  0  0  0
  6 49  1  0  0  0  0
  7 31  1  0  0  0  0
  7 32  1  0  0  0  0
  7 33  1  0  0  0  0
  8  9  1  0  0  0  0
  8 34  1  0  0  0  0
  8 35  1  0  0  0  0
  9 10  1  0  0  0  0
  9 11  1  0  0  0  0
  9 36  1  0  0  0  0
 10 37  1  0  0  0  0
 11 12  1  0  0  0  0
 11 38  1  0  0  0  0
 11 39  1  0  0  0  0
 12 22  1  0  0  0  0
 12 13  1  0  0  0  0
 13 14  2  0  0  0  0
 13 40  1  0  0  0  0
 14 15  1  0  0  0  0
 15 22  2  0  0  0  0
 15 16  1  0  0  0  0
 16 17  2  0  0  0  0
 16 41  1  0  0  0  0
 17 18  1  0  0  0  0
 17 19  1  0  0  0  0
 18 42  1  0  0  0  0
 18 43  1  0  0  0  0
 18 44  1  0  0  0  0
 19 20  1  0  0  0  0
 19 21  2  0  0  0  0
 20 45  1  0  0  0  0
 20 46  1  0  0  0  0
 20 47  1  0  0  0  0
 21 22  1  0  0  0  0
 21 48  1  0  0  0  0
 23 24  1  0  0  0  0
M  CHG  1   6   1
M  END
> <s_m_source_file>
AV-unprocessed.smi

> <i_m_source_file_index>
1209

> <i_lp_mmshare_version>
43012

> <i_f3d_flags>
0

> <s_epik_input>
W0NIM11jMVtjSF1jKG5vMSlbQ0gyXU4oW0NIM10pW0NIMl1bQ0BIXShbT0hdKVtDSDJdbihbY0hdbjIpYyhjMjMpW2NIXWMoW0NIM10pYyhbY0hdMylbQ0gzXQ==

> <s_epik_cmdline>
J2VwaWtfcHl0aG9uJywgJy1waCcsICc3LjAnLCAnLXRuJywgJzgnLCAnLW1hJywgJzIwMCcsICctbWV0YWxfYmluZGluZycsICctaW1hZScsICc8aW5maWxlLm1hZT4nLCAnLW9tYWUnLCAnPG91dGZpbGUubWFlPic=

> <r_epik_Ionization_Penalty>
2.05249

> <r_epik_Ionization_Penalty_Charging>
1.96618

> <r_epik_Ionization_Penalty_Neutral>
0.0863156

> <r_epik_State_Penalty>
2.19215

> <r_epik_Charging_Adjusted_Penalty>
4.15833

> <i_epik_Tot_Q>
1

> <i_epik_Tot_abs_Q>
1

> <r_epik_Metal_State_Penalty>
2.17654

> <b_epik_Metal_Only>
0

> <s_lp_Force_Field>
OPLS_2005

> <r_lp_Energy>
10.2768

> <b_lp_Chiralities_Consistent>
1

> <s_lp_Variant>
AV-unprocessed.smi:1209-5

> <Gold.Version>
5.8.1

> <Gold.Id.Protein>
6NUR|6NUR_protein|mol2

> <Gold.PLP.Fitness>
50.0457

> <Gold.PLP.PLP>
-38.9894

> <Gold.PLP.part.hbond>
-3.9748

> <Gold.PLP.part.metal>
0.0000

> <Gold.PLP.part.buried>
-5.7403

> <Gold.PLP.part.nonpolar>
-29.4896

> <Gold.PLP.part.repulsive>
0.1936

> <Gold.PLP.ligand.clash>
0.4015

> <Gold.PLP.ligand.torsion>
0.8089

> <Gold.PLP.Chemscore.Hbond>
4.2720

> <Gold.PLP.Chemscore.CHOScore>
0.0000

> <Gold.PLP.Chemscore.Metal>
0.0000

> <Gold.Chemscore.Hbonds>
donor molecule, donor type, donor heavy atom, donor atom, acceptor molecule, acceptor atom, score
      L1  H     6    49       P1 10175  1.16
      L1  H    10    37       P1  8028  0.76
      P1  H  7997  8010       L1    14  0.94
      P1  H  8011  8017       L1    10  0.32

> <Gold.PLP.Chemscore.Internal.Correction>
0.2597

> <Gold.Rescore>
     Score         DG    S(hbond)    S(metal)    S(lipo)     H(rot)  DE(clash)    DE(int)     intcor
     16.50     -18.71       3.14        0.00      78.87       2.53       0.01       2.20       ----

> <Gold.Chemscore.Fitness>
16.4990

> <Gold.Chemscore.DG>
-18.7073

> <Gold.Chemscore.ZeroCoef>
-5.4800

> <Gold.Chemscore.Hbond>
3.1392

> <Gold.Chemscore.Metal>
0.0000

> <Gold.Chemscore.Lipo>
78.8657

> <Gold.Chemscore.Internal_Hbond>
0.0000

> <Gold.Chemscore.DEClash>
0.0117

> <Gold.Chemscore.DEInternal>
2.1965

> <Gold.Chemscore.Rot>
2.5332

> <Gold.Chemscore.Internal.Correction>
   9.000000E+99

> <Gold.Chemscore.Hbonds>
donor molecule, donor type, donor heavy atom, donor atom, acceptor molecule, acceptor atom, score
      L1  H     6    49       P1 10175  0.06
      L1  H    10    37       P1  8028  0.73
      P1  H  7997  8010       L1    14  0.27
      P1  H  8011  8017       L1    10  0.32

> <Gold.Chemscore.Hbond.Weighted>
-10.4851

> <Gold.Chemscore.Metal.Weighted>
-0.0000

> <Gold.Chemscore.Lipo.Weighted>
-9.2273

> <Gold.Chemscore.Internal_Hbond.Weighted>
0.0000

> <Gold.Chemscore.DEClash.Weighted>
0.0117

> <Gold.Chemscore.DEInternal.Weighted>
2.1965

> <Gold.Chemscore.Rot.Weighted>
6.4851

> <Gold.Chemscore.Internal.Correction.Weighted>
   9.000000E+99

> <Gold.Protein.RotatedTorsions>
[ 6907 6896 6895 6894 ] final  -82.13 input  -60.11 | X-H torsion
[ 7974 7965 7964 7962 ] final  -89.50 input  175.53 | X-H torsion
[ 8008 7997 7996 7995 ] final   64.25 input   59.86 | X-H torsion
[ 10167 10162 10161 10158 ] final   26.78 input  -65.29 | X-H torsion
[ 10718 10713 10712 10709 ] final   92.62 input   66.30 | X-H torsion
[ 10763 10752 10751 10750 ] final  -51.66 input  -60.55 | X-H torsion
[ 11005 11000 10999 10996 ] final  -91.43 input  -57.11 | X-H torsion

> <Gold.Protein.ActiveResidues>
 VAL166  LYS551  ARG553  GLY616  TRP617  ASP618  TYR619  PRO620  LYS621  CYS622 
 ASP623  PHE694  ASN695  SER759  ASP760  ASP761  ALA762  ILE779  LEU786  VAL792 
 PHE793  MET794  SER795  GLU796  ALA797  LYS798  CYS799  TRP800  GLU811  SER814 

> <Gold.Protein.RotatedAtoms>
  150.6901  134.3712  159.4992 H   0  0  0  0  0  0  0  0  0  0  0  0  # atno 6907 bound_to 6896
  152.1527  134.8972  160.0556 H   0  0  0  0  0  0  0  0  0  0  0  0  # atno 6908 bound_to 6896
  152.0064  133.3810  159.4239 H   0  0  0  0  0  0  0  0  0  0  0  0  # atno 6909 bound_to 6896
  145.4390  140.9558  143.2085 H   0  0  0  0  0  0  0  0  0  0  0  0  # atno 7974 bound_to 7965
  155.6430  140.3497  155.4721 H   0  0  0  0  0  0  0  0  0  0  0  0  # atno 8008 bound_to 7997
  155.9910  140.1193  157.0661 H   0  0  0  0  0  0  0  0  0  0  0  0  # atno 8009 bound_to 7997
  154.4219  140.1119  156.5552 H   0  0  0  0  0  0  0  0  0  0  0  0  # atno 8010 bound_to 7997
  140.4994  144.0340  150.6327 H   0  0  0  0  0  0  0  0  0  0  0  0  # atno 10167 bound_to 10162
  157.6958  131.0449  150.3909 H   0  0  0  0  0  0  0  0  0  0  0  0  # atno 10718 bound_to 10713
  154.1301  135.6521  153.4920 H   0  0  0  0  0  0  0  0  0  0  0  0  # atno 10763 bound_to 10752
  153.0198  135.5291  154.7009 H   0  0  0  0  0  0  0  0  0  0  0  0  # atno 10764 bound_to 10752
  154.6242  135.2968  155.0262 H   0  0  0  0  0  0  0  0  0  0  0  0  # atno 10765 bound_to 10752
  141.1545  133.7755  156.9878 H   0  0  0  0  0  0  0  0  0  0  0  0  # atno 11005 bound_to 11000
  144.8133  139.5922  143.7019 LP  0  0  0  0  0  0  0  0  0  0  0  0  # atno 17320 bound_to 7965
  146.2566  139.6317  142.9390 LP  0  0  0  0  0  0  0  0  0  0  0  0  # atno 17321 bound_to 7965
  140.3631  143.2896  152.0361 LP  0  0  0  0  0  0  0  0  0  0  0  0  # atno 17342 bound_to 10162
  139.4868  144.6287  151.7112 LP  0  0  0  0  0  0  0  0  0  0  0  0  # atno 17343 bound_to 10162
  156.4313  130.3972  149.6759 LP  0  0  0  0  0  0  0  0  0  0  0  0  # atno 17370 bound_to 10713
  156.3975  130.7658  151.2663 LP  0  0  0  0  0  0  0  0  0  0  0  0  # atno 17371 bound_to 10713
  140.1023  134.9528  157.1941 LP  0  0  0  0  0  0  0  0  0  0  0  0  # atno 17394 bound_to 11000
  140.3302  134.2818  155.7229 LP  0  0  0  0  0  0  0  0  0  0  0  0  # atno 17395 bound_to 11000

$$$$
