AV-unprocessed.smi:91|AV-procd|sdf|833|dock6
  -GOLD-   2262017253D 1   1.00000     0.00000
 Structure written by MMmdl.
 60 63  0  0  0  0  0  0  0  0  1 V2000
  147.3348  137.3713  163.3728 C   0  0  0  0  0  0  0  0  0  0  0  0
  147.9436  136.1467  163.0033 O   0  0  0  0  0  0  0  0  0  0  0  0
  147.1212  135.3655  162.1506 C   0  0  0  0  0  0  0  0  0  0  0  0
  147.7480  135.2750  160.7524 C   0  0  2  0  0  0  0  0  0  0  0  0
  148.7011  136.4438  160.4450 C   0  0  0  0  0  0  0  0  0  0  0  0
  149.1709  136.3466  159.0715 N   0  0  0  0  0  0  0  0  0  0  0  0
  150.1448  137.2302  158.7691 C   0  0  0  0  0  0  0  0  0  0  0  0
  151.4398  136.8232  158.7052 N   0  0  0  0  0  0  0  0  0  0  0  0
  152.3986  137.7035  158.4012 C   0  0  0  0  0  0  0  0  0  0  0  0
  152.2817  139.0057  158.1308 N   0  0  0  0  0  0  0  0  0  0  0  0
  150.9809  139.4122  158.1914 C   0  0  0  0  0  0  0  0  0  0  0  0
  149.8599  138.5944  158.5045 C   0  0  0  0  0  0  0  0  0  0  0  0
  148.6946  139.3489  158.4803 N   0  0  0  0  0  0  0  0  0  0  0  0
  149.1039  140.5488  158.1690 C   0  0  0  0  0  0  0  0  0  0  0  0
  150.4609  140.6755  157.9690 N   0  0  0  0  0  0  0  0  0  0  0  0
  151.1807  141.8843  157.6053 C   0  0  0  0  0  0  0  0  0  0  0  0
  151.1086  142.9723  158.7114 C   0  0  2  0  0  0  0  0  0  0  0  0
  151.7409  144.2960  158.2245 C   0  0  0  0  0  0  0  0  0  0  0  0
  151.2023  144.6842  156.9785 O   0  0  0  0  0  0  0  0  0  0  0  0
  151.7727  142.4926  160.0280 C   0  0  2  0  0  0  0  0  0  0  0  0
  151.9902  143.5770  161.0694 C   0  0  0  0  0  0  0  0  0  0  0  0
  153.0271  142.9390  161.9854 C   0  0  0  0  0  0  0  0  0  0  0  0
  153.8475  142.1510  161.1326 O   0  0  0  0  0  0  0  0  0  0  0  0
  153.2074  141.9715  159.8729 C   0  0  0  0  0  0  0  0  0  0  0  0
  148.0748  136.3165  158.1119 C   0  0  0  0  0  0  0  0  0  0  0  0
  147.1102  135.1483  158.4166 C   0  0  0  0  0  0  0  0  0  0  0  0
  145.8249  135.3076  157.5903 C   0  0  0  0  0  0  0  0  0  0  0  0
  147.7472  133.7774  158.1041 C   0  0  0  0  0  0  0  0  0  0  0  0
  146.6963  135.2221  159.7864 O   0  0  0  0  0  0  0  0  0  0  0  0
  148.0046  137.9312  164.0251 H   0  0  0  0  0  0  0  0  0  0  0  0
  146.4030  137.2009  163.9137 H   0  0  0  0  0  0  0  0  0  0  0  0
  147.1245  137.9871  162.4975 H   0  0  0  0  0  0  0  0  0  0  0  0
  147.0103  134.3632  162.5676 H   0  0  0  0  0  0  0  0  0  0  0  0
  146.1233  135.8019  162.0836 H   0  0  0  0  0  0  0  0  0  0  0  0
  148.3083  134.3408  160.7116 H   0  0  0  0  0  0  0  0  0  0  0  0
  148.1897  137.3973  160.5847 H   0  0  0  0  0  0  0  0  0  0  0  0
  149.5491  136.4278  161.1313 H   0  0  0  0  0  0  0  0  0  0  0  0
  153.4033  137.3083  158.3693 H   0  0  0  0  0  0  0  0  0  0  0  0
  148.4185  141.3776  158.0762 H   0  0  0  0  0  0  0  0  0  0  0  0
  152.2109  141.6117  157.3765 H   0  0  0  0  0  0  0  0  0  0  0  0
  150.7703  142.2502  156.6633 H   0  0  0  0  0  0  0  0  0  0  0  0
  150.0607  143.1809  158.9369 H   0  0  0  0  0  0  0  0  0  0  0  0
  151.5438  145.1088  158.9225 H   0  0  0  0  0  0  0  0  0  0  0  0
  152.8241  144.2032  158.1400 H   0  0  0  0  0  0  0  0  0  0  0  0
  150.2624  144.7388  157.0596 H   0  0  0  0  0  0  0  0  0  0  0  0
  151.1646  141.7035  160.4742 H   0  0  0  0  0  0  0  0  0  0  0  0
  152.4037  144.4742  160.6064 H   0  0  0  0  0  0  0  0  0  0  0  0
  151.0825  143.8534  161.6058 H   0  0  0  0  0  0  0  0  0  0  0  0
  153.6117  143.6765  162.5356 H   0  0  0  0  0  0  0  0  0  0  0  0
  152.5428  142.2811  162.7080 H   0  0  0  0  0  0  0  0  0  0  0  0
  153.2388  140.9246  159.5701 H   0  0  0  0  0  0  0  0  0  0  0  0
  153.7536  142.5534  159.1293 H   0  0  0  0  0  0  0  0  0  0  0  0
  147.5345  137.2634  158.1620 H   0  0  0  0  0  0  0  0  0  0  0  0
  148.4684  136.2289  157.0981 H   0  0  0  0  0  0  0  0  0  0  0  0
  146.0357  135.2867  156.5206 H   0  0  0  0  0  0  0  0  0  0  0  0
  145.3277  136.2527  157.8109 H   0  0  0  0  0  0  0  0  0  0  0  0
  145.1162  134.5070  157.8047 H   0  0  0  0  0  0  0  0  0  0  0  0
  147.9506  133.6770  157.0375 H   0  0  0  0  0  0  0  0  0  0  0  0
  147.0828  132.9619  158.3912 H   0  0  0  0  0  0  0  0  0  0  0  0
  148.6949  133.6293  158.6210 H   0  0  0  0  0  0  0  0  0  0  0  0
  1  2  1  0  0  0  0
  1 30  1  0  0  0  0
  1 31  1  0  0  0  0
  1 32  1  0  0  0  0
  2  3  1  0  0  0  0
  3  4  1  0  0  0  0
  3 33  1  0  0  0  0
  3 34  1  0  0  0  0
  4 29  1  0  0  0  0
  4  5  1  0  0  0  0
  4 35  1  0  0  0  0
  5  6  1  0  0  0  0
  5 36  1  0  0  0  0
  5 37  1  0  0  0  0
  6  7  1  0  0  0  0
  6 25  1  0  0  0  0
  7 12  1  0  0  0  0
  7  8  2  0  0  0  0
  8  9  1  0  0  0  0
  9 10  2  0  0  0  0
  9 38  1  0  0  0  0
 10 11  1  0  0  0  0
 11 15  1  0  0  0  0
 11 12  2  0  0  0  0
 12 13  1  0  0  0  0
 13 14  2  0  0  0  0
 14 15  1  0  0  0  0
 14 39  1  0  0  0  0
 15 16  1  0  0  0  0
 16 17  1  0  0  0  0
 16 40  1  0  0  0  0
 16 41  1  0  0  0  0
 17 18  1  0  0  0  0
 17 20  1  0  0  0  0
 17 42  1  0  0  0  0
 18 19  1  0  0  0  0
 18 43  1  0  0  0  0
 18 44  1  0  0  0  0
 19 45  1  0  0  0  0
 20 24  1  0  0  0  0
 20 21  1  0  0  0  0
 20 46  1  0  0  0  0
 21 22  1  0  0  0  0
 21 47  1  0  0  0  0
 21 48  1  0  0  0  0
 22 23  1  0  0  0  0
 22 49  1  0  0  0  0
 22 50  1  0  0  0  0
 23 24  1  0  0  0  0
 24 51  1  0  0  0  0
 24 52  1  0  0  0  0
 25 26  1  0  0  0  0
 25 53  1  0  0  0  0
 25 54  1  0  0  0  0
 26 27  1  0  0  0  0
 26 28  1  0  0  0  0
 26 29  1  0  0  0  0
 27 55  1  0  0  0  0
 27 56  1  0  0  0  0
 27 57  1  0  0  0  0
 28 58  1  0  0  0  0
 28 59  1  0  0  0  0
 28 60  1  0  0  0  0
M  END
> <s_m_source_file>
AV-unprocessed.smi

> <i_m_source_file_index>
91

> <i_lp_mmshare_version>
43012

> <i_f3d_flags>
0

> <s_epik_input>
W0NIM11PW0NIMl1bQ0BASF0oTzEpW0NIMl1OKFtDSDJdQzEoW0NIM10pW0NIM10pYyhuW2NIXW4yKWMoYzIzKW5bY0hdbjNbQ0gyXVtDQEhdKFtDSDJdW09IXSlbQ0BASF00W0NIMl1bQ0gyXU9bQ0gyXTQ=

> <s_epik_cmdline>
J2VwaWtfcHl0aG9uJywgJy1waCcsICc3LjAnLCAnLXRuJywgJzgnLCAnLW1hJywgJzIwMCcsICctbWV0YWxfYmluZGluZycsICctaW1hZScsICc8aW5maWxlLm1hZT4nLCAnLW9tYWUnLCAnPG91dGZpbGUubWFlPic=

> <r_lp_tautomer_probability>
1

> <r_epik_Ionization_Penalty>
8.63591e-05

> <r_epik_Ionization_Penalty_Charging>
0

> <r_epik_Ionization_Penalty_Neutral>
8.63591e-05

> <r_epik_State_Penalty>
-0

> <r_epik_Charging_Adjusted_Penalty>
0

> <i_epik_Tot_Q>
0

> <i_epik_Tot_abs_Q>
0

> <r_epik_Metal_State_Penalty>
-0

> <b_epik_Metal_Only>
0

> <s_lp_Force_Field>
OPLS_2005

> <r_lp_Energy>
49.9364

> <b_lp_Chiralities_Consistent>
1

> <s_lp_Variant>
AV-unprocessed.smi:91-1

> <Gold.Version>
5.8.1

> <Gold.Id.Protein>
6NUR|6NUR_protein|mol2

> <Gold.PLP.Fitness>
49.3651

> <Gold.PLP.PLP>
-45.8076

> <Gold.PLP.part.hbond>
-3.6423

> <Gold.PLP.part.metal>
0.0000

> <Gold.PLP.part.buried>
-3.8326

> <Gold.PLP.part.nonpolar>
-37.6786

> <Gold.PLP.part.repulsive>
0.0112

> <Gold.PLP.ligand.clash>
0.0000

> <Gold.PLP.ligand.torsion>
1.3116

> <Gold.PLP.Chemscore.Hbond>
1.9440

> <Gold.PLP.Chemscore.CHOScore>
0.0000

> <Gold.PLP.Chemscore.Metal>
0.0000

> <Gold.Chemscore.Hbonds>
donor molecule, donor type, donor heavy atom, donor atom, acceptor molecule, acceptor atom, score
      L1  H    19    45       P1  8028  0.59
      P1  H  6896  6909       L1     8  0.74

> <Gold.PLP.Chemscore.Internal.Correction>
0.3486

> <Gold.Rescore>
     Score         DG    S(hbond)    S(metal)    S(lipo)     H(rot)  DE(clash)    DE(int)     intcor
     15.16     -16.78       1.75        0.00     112.73       3.03       0.21       1.41       ----

> <Gold.Chemscore.Fitness>
15.1581

> <Gold.Chemscore.DG>
-16.7779

> <Gold.Chemscore.ZeroCoef>
-5.4800

> <Gold.Chemscore.Hbond>
1.7548

> <Gold.Chemscore.Metal>
0.0000

> <Gold.Chemscore.Lipo>
112.7330

> <Gold.Chemscore.Internal_Hbond>
0.0000

> <Gold.Chemscore.DEClash>
0.2092

> <Gold.Chemscore.DEInternal>
1.4107

> <Gold.Chemscore.Rot>
3.0284

> <Gold.Chemscore.Internal.Correction>
   9.000000E+99

> <Gold.Chemscore.Hbonds>
donor molecule, donor type, donor heavy atom, donor atom, acceptor molecule, acceptor atom, score
      L1  H    19    45       P1  8028  0.27
      P1  H  6896  6909       L1     8  0.32

> <Gold.Chemscore.Hbond.Weighted>
-5.8610

> <Gold.Chemscore.Metal.Weighted>
-0.0000

> <Gold.Chemscore.Lipo.Weighted>
-13.1898

> <Gold.Chemscore.Internal_Hbond.Weighted>
0.0000

> <Gold.Chemscore.DEClash.Weighted>
0.2092

> <Gold.Chemscore.DEInternal.Weighted>
1.4107

> <Gold.Chemscore.Rot.Weighted>
7.7528

> <Gold.Chemscore.Internal.Correction.Weighted>
   9.000000E+99

> <Gold.Protein.RotatedTorsions>
[ 6907 6896 6895 6894 ] final  115.71 input  -60.11 | X-H torsion
[ 7974 7965 7964 7962 ] final -160.60 input  175.53 | X-H torsion
[ 8008 7997 7996 7995 ] final  -44.57 input   59.86 | X-H torsion
[ 10167 10162 10161 10158 ] final  -77.59 input  -65.29 | X-H torsion
[ 10718 10713 10712 10709 ] final  -48.11 input   66.30 | X-H torsion
[ 10763 10752 10751 10750 ] final  -85.64 input  -60.55 | X-H torsion
[ 11005 11000 10999 10996 ] final   -0.35 input  -57.11 | X-H torsion

> <Gold.Protein.ActiveResidues>
 VAL166  LYS551  ARG553  GLY616  TRP617  ASP618  TYR619  PRO620  LYS621  CYS622 
 ASP623  PHE694  ASN695  SER759  ASP760  ASP761  ALA762  ILE779  LEU786  VAL792 
 PHE793  MET794  SER795  GLU796  ALA797  LYS798  CYS799  TRP800  GLU811  SER814 

> <Gold.Protein.RotatedAtoms>
  152.4724  133.8061  159.6978 H   0  0  0  0  0  0  0  0  0  0  0  0  # atno 6907 bound_to 6896
  150.8721  133.7481  159.2964 H   0  0  0  0  0  0  0  0  0  0  0  0  # atno 6908 bound_to 6896
  151.5012  135.1065  159.9881 H   0  0  0  0  0  0  0  0  0  0  0  0  # atno 6909 bound_to 6896
  144.7421  140.3519  143.6114 H   0  0  0  0  0  0  0  0  0  0  0  0  # atno 7974 bound_to 7965
  154.3998  140.1419  156.3705 H   0  0  0  0  0  0  0  0  0  0  0  0  # atno 8008 bound_to 7997
  155.8097  140.3473  155.5430 H   0  0  0  0  0  0  0  0  0  0  0  0  # atno 8009 bound_to 7997
  155.8399  140.0925  157.1731 H   0  0  0  0  0  0  0  0  0  0  0  0  # atno 8010 bound_to 7997
  140.4757  143.2415  151.8137 H   0  0  0  0  0  0  0  0  0  0  0  0  # atno 10167 bound_to 10162
  156.2019  130.4156  149.9229 H   0  0  0  0  0  0  0  0  0  0  0  0  # atno 10718 bound_to 10713
  154.6133  135.5478  153.7497 H   0  0  0  0  0  0  0  0  0  0  0  0  # atno 10763 bound_to 10752
  153.0205  135.6395  154.1546 H   0  0  0  0  0  0  0  0  0  0  0  0  # atno 10764 bound_to 10752
  154.1483  135.2904  155.3122 H   0  0  0  0  0  0  0  0  0  0  0  0  # atno 10765 bound_to 10752
  140.6353  133.9538  155.8296 H   0  0  0  0  0  0  0  0  0  0  0  0  # atno 11005 bound_to 11000
  145.7267  139.1725  143.2453 LP  0  0  0  0  0  0  0  0  0  0  0  0  # atno 17320 bound_to 7965
  146.1236  140.7277  142.9445 LP  0  0  0  0  0  0  0  0  0  0  0  0  # atno 17321 bound_to 7965
  139.4825  144.4836  151.9275 LP  0  0  0  0  0  0  0  0  0  0  0  0  # atno 17342 bound_to 10162
  140.3922  144.2601  150.5899 LP  0  0  0  0  0  0  0  0  0  0  0  0  # atno 17343 bound_to 10162
  156.6935  130.8905  151.3591 LP  0  0  0  0  0  0  0  0  0  0  0  0  # atno 17370 bound_to 10713
  157.6991  130.9313  150.0730 LP  0  0  0  0  0  0  0  0  0  0  0  0  # atno 17371 bound_to 10713
  141.0646  134.0296  157.3612 LP  0  0  0  0  0  0  0  0  0  0  0  0  # atno 17394 bound_to 11000
  139.9100  135.0188  156.7653 LP  0  0  0  0  0  0  0  0  0  0  0  0  # atno 17395 bound_to 11000

$$$$
