AV-unprocessed.smi:528|AV-procd|sdf|2834|dock5
  -GOLD-   2262023323D 1   1.00000     0.00000
 Structure written by MMmdl.
 45 47  0  0  0  0  0  0  0  0  1 V2000
  151.3994  140.3566  157.8686 C   0  0  0  0  0  0  0  0  0  0  0  0
  151.2252  141.7981  157.3626 C   0  0  1  0  0  0  0  0  0  0  0  0
  150.1126  141.8184  156.4145 N   0  0  0  0  0  0  0  0  0  0  0  0
  150.0097  141.0737  155.3023 C   0  0  0  0  0  0  0  0  0  0  0  0
  150.8474  140.2366  154.9635 O   0  0  0  0  0  0  0  0  0  0  0  0
  148.7599  141.3132  154.4451 C   0  0  0  0  0  0  0  0  0  0  0  0
  147.5250  140.8538  155.1022 N   0  0  0  0  0  0  0  0  0  0  0  0
  146.5329  141.8203  155.3593 C   0  0  0  0  0  0  0  0  0  0  0  0
  145.3682  141.5303  155.9702 C   0  0  0  0  0  0  0  0  0  0  0  0
  144.2933  142.5844  156.1865 C   0  0  0  0  0  0  0  0  0  0  0  0
  144.6809  143.4861  157.0888 F   0  0  0  0  0  0  0  0  0  0  0  0
  144.0472  143.2214  155.0428 F   0  0  0  0  0  0  0  0  0  0  0  0
  143.1546  142.0329  156.6078 F   0  0  0  0  0  0  0  0  0  0  0  0
  145.1572  140.1424  156.3320 C   0  0  0  0  0  0  0  0  0  0  0  0
  146.0926  139.2042  156.0871 C   0  0  0  0  0  0  0  0  0  0  0  0
  147.3643  139.5392  155.4424 C   0  0  0  0  0  0  0  0  0  0  0  0
  148.2301  138.6918  155.2207 O   0  0  0  0  0  0  0  0  0  0  0  0
  150.9667  142.7994  158.5173 C   0  0  1  0  0  0  0  0  0  0  0  0
  152.0831  142.8019  159.5906 C   0  0  0  0  0  0  0  0  0  0  0  0
  152.4877  144.2838  159.6814 C   0  0  2  0  0  0  0  0  0  0  0  0
  151.3495  145.0895  160.3327 C   0  0  0  0  0  0  0  0  0  0  0  0
  150.2807  145.1175  159.2249 C   0  0  0  0  0  0  0  0  0  0  0  0
  150.9351  144.2937  158.0993 C   0  0  1  0  0  0  0  0  0  0  0  0
  152.3946  144.7165  158.2243 C   0  0  0  0  0  0  0  0  0  0  0  0
  152.2515  140.2664  158.5419 H   0  0  0  0  0  0  0  0  0  0  0  0
  151.5698  139.6697  157.0391 H   0  0  0  0  0  0  0  0  0  0  0  0
  150.5144  140.0142  158.4060 H   0  0  0  0  0  0  0  0  0  0  0  0
  152.1493  142.0803  156.8559 H   0  0  0  0  0  0  0  0  0  0  0  0
  149.3705  142.4756  156.6075 H   0  0  0  0  0  0  0  0  0  0  0  0
  148.7060  142.3780  154.2152 H   0  0  0  0  0  0  0  0  0  0  0  0
  148.8716  140.8171  153.4788 H   0  0  0  0  0  0  0  0  0  0  0  0
  146.7815  142.8188  155.0300 H   0  0  0  0  0  0  0  0  0  0  0  0
  144.2355  139.8501  156.8132 H   0  0  0  0  0  0  0  0  0  0  0  0
  145.9027  138.1802  156.3739 H   0  0  0  0  0  0  0  0  0  0  0  0
  150.0132  142.5381  158.9793 H   0  0  0  0  0  0  0  0  0  0  0  0
  151.7400  142.4052  160.5467 H   0  0  0  0  0  0  0  0  0  0  0  0
  152.9421  142.2074  159.2773 H   0  0  0  0  0  0  0  0  0  0  0  0
  153.4599  144.4432  160.1487 H   0  0  0  0  0  0  0  0  0  0  0  0
  150.9870  144.6237  161.2497 H   0  0  0  0  0  0  0  0  0  0  0  0
  151.6763  146.1012  160.5758 H   0  0  0  0  0  0  0  0  0  0  0  0
  149.3281  144.6989  159.5512 H   0  0  0  0  0  0  0  0  0  0  0  0
  150.0980  146.1415  158.8964 H   0  0  0  0  0  0  0  0  0  0  0  0
  150.4863  144.4915  157.1265 H   0  0  0  0  0  0  0  0  0  0  0  0
  152.5490  145.7872  158.0798 H   0  0  0  0  0  0  0  0  0  0  0  0
  153.0661  144.1672  157.5628 H   0  0  0  0  0  0  0  0  0  0  0  0
  1  2  1  0  0  0  0
  1 25  1  0  0  0  0
  1 26  1  0  0  0  0
  1 27  1  0  0  0  0
  2  3  1  0  0  0  0
  2 18  1  0  0  0  0
  2 28  1  0  0  0  0
  3  4  1  0  0  0  0
  3 29  1  0  0  0  0
  4  5  2  0  0  0  0
  4  6  1  0  0  0  0
  6  7  1  0  0  0  0
  6 30  1  0  0  0  0
  6 31  1  0  0  0  0
  7 16  1  0  0  0  0
  7  8  1  0  0  0  0
  8  9  2  0  0  0  0
  8 32  1  0  0  0  0
  9 10  1  0  0  0  0
  9 14  1  0  0  0  0
 10 11  1  0  0  0  0
 10 12  1  0  0  0  0
 10 13  1  0  0  0  0
 14 15  2  0  0  0  0
 14 33  1  0  0  0  0
 15 16  1  0  0  0  0
 15 34  1  0  0  0  0
 16 17  2  0  0  0  0
 18 23  1  0  0  0  0
 18 19  1  0  0  0  0
 18 35  1  0  0  0  0
 19 20  1  0  0  0  0
 19 36  1  0  0  0  0
 19 37  1  0  0  0  0
 20 24  1  0  0  0  0
 20 21  1  0  0  0  0
 20 38  1  0  0  0  0
 21 22  1  0  0  0  0
 21 39  1  0  0  0  0
 21 40  1  0  0  0  0
 22 23  1  0  0  0  0
 22 41  1  0  0  0  0
 22 42  1  0  0  0  0
 23 24  1  0  0  0  0
 23 43  1  0  0  0  0
 24 44  1  0  0  0  0
 24 45  1  0  0  0  0
M  END
> <s_m_source_file>
AV-unprocessed.smi

> <i_m_source_file_index>
528

> <i_lp_mmshare_version>
43012

> <i_f3d_flags>
0

> <s_epik_input>
W0NIMl0xW0NIMl1bQ0BASF0oW0NIMl0yKVtDQEBIXShbQ0gyXVtDQEhdMTIpW0NASF0oW0NIM10pW05IXUMoPU8pW0NIMl1uM1tjSF1jKEMoRikoRilGKVtjSF1bY0hdYzM9Tw==

> <s_epik_cmdline>
J2VwaWtfcHl0aG9uJywgJy1waCcsICc3LjAnLCAnLXRuJywgJzgnLCAnLW1hJywgJzIwMCcsICctbWV0YWxfYmluZGluZycsICctaW1hZScsICc8aW5maWxlLm1hZT4nLCAnLW9tYWUnLCAnPG91dGZpbGUubWFlPic=

> <r_lp_tautomer_probability>
1

> <r_epik_Ionization_Penalty>
4.09479e-08

> <r_epik_Ionization_Penalty_Charging>
1.9321e-08

> <r_epik_Ionization_Penalty_Neutral>
2.16269e-08

> <r_epik_State_Penalty>
-0

> <r_epik_Charging_Adjusted_Penalty>
1.9321e-08

> <i_epik_Tot_Q>
0

> <i_epik_Tot_abs_Q>
0

> <r_epik_Metal_State_Penalty>
-0

> <b_epik_Metal_Only>
0

> <s_lp_Force_Field>
OPLS_2005

> <r_lp_Energy>
62.5946

> <b_lp_Chiralities_Consistent>
1

> <s_lp_Variant>
AV-unprocessed.smi:528-4

> <Gold.Version>
5.8.1

> <Gold.Id.Protein>
6NUR|6NUR_protein|mol2

> <Gold.PLP.Fitness>
53.0851

> <Gold.PLP.PLP>
-47.2995

> <Gold.PLP.part.hbond>
-1.5975

> <Gold.PLP.part.metal>
0.0000

> <Gold.PLP.part.buried>
-4.6250

> <Gold.PLP.part.nonpolar>
-41.4867

> <Gold.PLP.part.repulsive>
0.1957

> <Gold.PLP.ligand.clash>
0.0000

> <Gold.PLP.ligand.torsion>
0.2851

> <Gold.PLP.Chemscore.Hbond>
1.3432

> <Gold.PLP.Chemscore.CHOScore>
0.7549

> <Gold.PLP.Chemscore.Metal>
0.0000

> <Gold.Chemscore.Hbonds>
donor molecule, donor type, donor heavy atom, donor atom, acceptor molecule, acceptor atom, score
      P1  H  7989  7998       L1     5  1.00
      L1  C     8    32       P1  8028  0.13

> <Gold.PLP.Chemscore.Internal.Correction>
0.0615

> <Gold.Rescore>
     Score         DG    S(hbond)    S(metal)    S(lipo)     H(rot)  DE(clash)    DE(int)     intcor
     15.74     -17.07       0.86        0.00     112.06       1.71       0.37       0.95       ----

> <Gold.Chemscore.Fitness>
15.7369

> <Gold.Chemscore.DG>
-17.0652

> <Gold.Chemscore.ZeroCoef>
-5.4800

> <Gold.Chemscore.Hbond>
0.8557

> <Gold.Chemscore.Metal>
0.0000

> <Gold.Chemscore.Lipo>
112.0610

> <Gold.Chemscore.Internal_Hbond>
0.0000

> <Gold.Chemscore.DEClash>
0.3743

> <Gold.Chemscore.DEInternal>
0.9540

> <Gold.Chemscore.Rot>
1.7125

> <Gold.Chemscore.Internal.Correction>
   9.000000E+99

> <Gold.Chemscore.Hbonds>
donor molecule, donor type, donor heavy atom, donor atom, acceptor molecule, acceptor atom, score
      L1  H     3    29       P1  8028  0.01
      P1  H  7989  7998       L1     5  0.55

> <Gold.Chemscore.Hbond.Weighted>
-2.8580

> <Gold.Chemscore.Metal.Weighted>
-0.0000

> <Gold.Chemscore.Lipo.Weighted>
-13.1111

> <Gold.Chemscore.Internal_Hbond.Weighted>
0.0000

> <Gold.Chemscore.DEClash.Weighted>
0.3743

> <Gold.Chemscore.DEInternal.Weighted>
0.9540

> <Gold.Chemscore.Rot.Weighted>
4.3840

> <Gold.Chemscore.Internal.Correction.Weighted>
   9.000000E+99

> <Gold.Protein.RotatedTorsions>
[ 6907 6896 6895 6894 ] final    0.92 input  -60.11 | X-H torsion
[ 7974 7965 7964 7962 ] final -120.66 input  175.53 | X-H torsion
[ 8008 7997 7996 7995 ] final  -12.05 input   59.86 | X-H torsion
[ 10167 10162 10161 10158 ] final  -91.31 input  -65.29 | X-H torsion
[ 10718 10713 10712 10709 ] final  123.25 input   66.30 | X-H torsion
[ 10763 10752 10751 10750 ] final  108.49 input  -60.55 | X-H torsion
[ 11005 11000 10999 10996 ] final   10.15 input  -57.11 | X-H torsion

> <Gold.Protein.ActiveResidues>
 VAL166  LYS551  ARG553  GLY616  TRP617  ASP618  TYR619  PRO620  LYS621  CYS622 
 ASP623  PHE694  ASN695  SER759  ASP760  ASP761  ALA762  ILE779  LEU786  VAL792 
 PHE793  MET794  SER795  GLU796  ALA797  LYS798  CYS799  TRP800  GLU811  SER814 

> <Gold.Protein.RotatedAtoms>
  151.5842  135.1057  160.0024 H   0  0  0  0  0  0  0  0  0  0  0  0  # atno 6907 bound_to 6896
  152.4339  133.7321  159.6604 H   0  0  0  0  0  0  0  0  0  0  0  0  # atno 6908 bound_to 6896
  150.8234  133.8143  159.3152 H   0  0  0  0  0  0  0  0  0  0  0  0  # atno 6909 bound_to 6896
  145.0489  140.8203  143.4221 H   0  0  0  0  0  0  0  0  0  0  0  0  # atno 7974 bound_to 7965
  154.5411  140.2286  155.8640 H   0  0  0  0  0  0  0  0  0  0  0  0  # atno 8008 bound_to 7997
  156.1859  140.3089  155.9200 H   0  0  0  0  0  0  0  0  0  0  0  0  # atno 8009 bound_to 7997
  155.3256  140.0442  157.3031 H   0  0  0  0  0  0  0  0  0  0  0  0  # atno 8010 bound_to 7997
  140.3461  143.2916  151.9779 H   0  0  0  0  0  0  0  0  0  0  0  0  # atno 10167 bound_to 10162
  157.5679  131.1085  150.8420 H   0  0  0  0  0  0  0  0  0  0  0  0  # atno 10718 bound_to 10713
  153.4214  135.3810  155.2114 H   0  0  0  0  0  0  0  0  0  0  0  0  # atno 10763 bound_to 10752
  154.8745  135.3818  154.4379 H   0  0  0  0  0  0  0  0  0  0  0  0  # atno 10764 bound_to 10752
  153.4900  135.7088  153.5952 H   0  0  0  0  0  0  0  0  0  0  0  0  # atno 10765 bound_to 10752
  140.5177  134.0590  155.7836 H   0  0  0  0  0  0  0  0  0  0  0  0  # atno 11005 bound_to 11000
  145.1552  139.2491  143.5420 LP  0  0  0  0  0  0  0  0  0  0  0  0  # atno 17320 bound_to 7965
  146.3516  140.1265  142.8598 LP  0  0  0  0  0  0  0  0  0  0  0  0  # atno 17321 bound_to 7965
  139.4833  144.6115  151.7424 LP  0  0  0  0  0  0  0  0  0  0  0  0  # atno 17342 bound_to 10162
  140.5263  144.0801  150.6038 LP  0  0  0  0  0  0  0  0  0  0  0  0  # atno 17343 bound_to 10162
  156.8900  130.5209  149.5286 LP  0  0  0  0  0  0  0  0  0  0  0  0  # atno 17370 bound_to 10713
  156.0726  130.5756  150.9413 LP  0  0  0  0  0  0  0  0  0  0  0  0  # atno 17371 bound_to 10713
  141.1351  133.9235  157.2451 LP  0  0  0  0  0  0  0  0  0  0  0  0  # atno 17394 bound_to 11000
  139.9623  135.0151  156.9295 LP  0  0  0  0  0  0  0  0  0  0  0  0  # atno 17395 bound_to 11000

$$$$
