AV-unprocessed.smi:3165|AV-procd|sdf|12086|dock7
  -GOLD-   2272017513D 1   1.00000     0.00000
 Structure written by MMmdl.
 38 39  0  0  0  0  0  0  0  0  2 V2000
  148.3624  142.0628  157.3863 C   0  0  0  0  0  0  0  0  0  0  0  0
  149.8746  141.9187  157.1235 C   0  0  1  0  0  0  0  0  0  0  0  0
  150.1786  141.4886  155.6727 C   0  0  0  0  0  0  0  0  0  0  0  0
  150.3150  140.0512  155.5184 N   0  0  0  0  0  0  0  0  0  0  0  0
  149.3669  139.0710  155.7257 C   0  0  0  0  0  0  0  0  0  0  0  0
  149.9541  137.8716  155.4412 C   0  0  0  0  0  0  0  0  0  0  0  0
  151.2775  138.2255  155.0567 C   0  0  0  0  0  0  0  0  0  0  0  0
  151.4889  139.5313  155.0995 N   0  0  0  0  0  0  0  0  0  0  0  0
  150.5936  143.1785  157.4175 N   0  3  0  0  0  0  0  0  0  0  0  0
  150.4121  143.7133  158.7839 C   0  0  0  0  0  0  0  0  0  0  0  0
  151.7001  143.5639  159.6057 C   0  0  2  0  0  0  0  0  0  0  0  0
  152.2104  142.1099  159.6140 C   0  0  0  0  0  0  0  0  0  0  0  0
  153.4413  141.9741  160.5177 C   0  0  0  0  0  0  0  0  0  0  0  0
  153.1274  142.5374  161.9077 C   0  0  0  0  0  0  0  0  0  0  0  0
  152.5642  143.9623  161.7916 C   0  0  0  0  0  0  0  0  0  0  0  0
  151.4178  143.9637  160.9457 O   0  0  0  0  0  0  0  0  0  0  0  0
  147.8331  141.1303  157.1895 H   0  0  0  0  0  0  0  0  0  0  0  0
  147.9222  142.8329  156.7519 H   0  0  0  0  0  0  0  0  0  0  0  0
  148.1534  142.3255  158.4229 H   0  0  0  0  0  0  0  0  0  0  0  0
  150.2698  141.1495  157.7889 H   0  0  0  0  0  0  0  0  0  0  0  0
  149.3872  141.8318  155.0044 H   0  0  0  0  0  0  0  0  0  0  0  0
  151.1023  141.9539  155.3250 H   0  0  0  0  0  0  0  0  0  0  0  0
  148.3654  139.3044  156.0563 H   0  0  0  0  0  0  0  0  0  0  0  0
  149.5061  136.8907  155.4965 H   0  0  0  0  0  0  0  0  0  0  0  0
  152.0843  137.5772  154.7478 H   0  0  0  0  0  0  0  0  0  0  0  0
  151.5805  143.0007  157.2960 H   0  0  0  0  0  0  0  0  0  0  0  0
  150.1160  144.7616  158.7471 H   0  0  0  0  0  0  0  0  0  0  0  0
  149.6032  143.1663  159.2696 H   0  0  0  0  0  0  0  0  0  0  0  0
  152.4691  144.2152  159.1858 H   0  0  0  0  0  0  0  0  0  0  0  0
  151.4226  141.4446  159.9703 H   0  0  0  0  0  0  0  0  0  0  0  0
  152.4562  141.7884  158.6014 H   0  0  0  0  0  0  0  0  0  0  0  0
  153.7476  140.9301  160.5903 H   0  0  0  0  0  0  0  0  0  0  0  0
  154.2801  142.5179  160.0813 H   0  0  0  0  0  0  0  0  0  0  0  0
  152.3984  141.8981  162.4072 H   0  0  0  0  0  0  0  0  0  0  0  0
  154.0240  142.5336  162.5283 H   0  0  0  0  0  0  0  0  0  0  0  0
  152.2761  144.3317  162.7758 H   0  0  0  0  0  0  0  0  0  0  0  0
  153.3179  144.6488  161.4024 H   0  0  0  0  0  0  0  0  0  0  0  0
  150.3124  143.8818  156.7490 H   0  0  0  0  0  0  0  0  0  0  0  0
  1  2  1  0  0  0  0
  1 17  1  0  0  0  0
  1 18  1  0  0  0  0
  1 19  1  0  0  0  0
  2  3  1  0  0  0  0
  2  9  1  0  0  0  0
  2 20  1  0  0  0  0
  3  4  1  0  0  0  0
  3 21  1  0  0  0  0
  3 22  1  0  0  0  0
  4  8  1  0  0  0  0
  4  5  1  0  0  0  0
  5  6  2  0  0  0  0
  5 23  1  0  0  0  0
  6  7  1  0  0  0  0
  6 24  1  0  0  0  0
  7  8  2  0  0  0  0
  7 25  1  0  0  0  0
  9 10  1  0  0  0  0
  9 26  1  0  0  0  0
  9 38  1  0  0  0  0
 10 11  1  0  0  0  0
 10 27  1  0  0  0  0
 10 28  1  0  0  0  0
 11 16  1  0  0  0  0
 11 12  1  0  0  0  0
 11 29  1  0  0  0  0
 12 13  1  0  0  0  0
 12 30  1  0  0  0  0
 12 31  1  0  0  0  0
 13 14  1  0  0  0  0
 13 32  1  0  0  0  0
 13 33  1  0  0  0  0
 14 15  1  0  0  0  0
 14 34  1  0  0  0  0
 14 35  1  0  0  0  0
 15 16  1  0  0  0  0
 15 36  1  0  0  0  0
 15 37  1  0  0  0  0
M  CHG  1   9   1
M  END
> <s_m_source_file>
AV-unprocessed.smi

> <i_m_source_file_index>
3165

> <i_lp_mmshare_version>
43012

> <i_f3d_flags>
0

> <s_epik_input>
bjFbY0hdW2NIXVtjSF1uMVtDSDJdW0NAQEhdKFtDSDNdKVtOSF1bQ0gyXVtDQEBIXTJbQ0gyXVtDSDJdW0NIMl1bQ0gyXU8y

> <s_epik_cmdline>
J2VwaWtfcHl0aG9uJywgJy1waCcsICc3LjAnLCAnLXRuJywgJzgnLCAnLW1hJywgJzIwMCcsICctbWV0YWxfYmluZGluZycsICctaW1hZScsICc8aW5maWxlLm1hZT4nLCAnLW9tYWUnLCAnPG91dGZpbGUubWFlPic=

> <r_lp_tautomer_probability>
1

> <r_epik_Ionization_Penalty>
0.00849196

> <r_epik_Ionization_Penalty_Charging>
0.00848754

> <r_epik_Ionization_Penalty_Neutral>
4.42049e-06

> <r_epik_State_Penalty>
0.00639836

> <r_epik_Charging_Adjusted_Penalty>
0.0148859

> <i_epik_Tot_Q>
1

> <i_epik_Tot_abs_Q>
1

> <r_epik_Metal_State_Penalty>
0.00639878

> <b_epik_Metal_Only>
0

> <s_lp_Force_Field>
OPLS_2005

> <r_lp_Energy>
12.7684

> <b_lp_Chiralities_Consistent>
1

> <s_lp_Variant>
AV-unprocessed.smi:3165-2

> <Gold.Version>
5.8.1

> <Gold.Id.Protein>
6NUR|6NUR_protein|mol2

> <Gold.PLP.Fitness>
45.6507

> <Gold.PLP.PLP>
-38.2887

> <Gold.PLP.part.hbond>
-2.6621

> <Gold.PLP.part.metal>
0.0000

> <Gold.PLP.part.buried>
-5.7918

> <Gold.PLP.part.nonpolar>
-29.3900

> <Gold.PLP.part.repulsive>
0.2225

> <Gold.PLP.ligand.clash>
0.0000

> <Gold.PLP.ligand.torsion>
0.8579

> <Gold.PLP.Chemscore.Hbond>
3.0000

> <Gold.PLP.Chemscore.CHOScore>
0.0000

> <Gold.PLP.Chemscore.Metal>
0.0000

> <Gold.Chemscore.Hbonds>
donor molecule, donor type, donor heavy atom, donor atom, acceptor molecule, acceptor atom, score
      L1  H     9    38       P1  8028  2.00
      P1  H  7989  7998       L1     8  0.60

> <Gold.PLP.Chemscore.Internal.Correction>
0.0778

> <Gold.Rescore>
     Score         DG    S(hbond)    S(metal)    S(lipo)     H(rot)  DE(clash)    DE(int)     intcor
     17.39     -18.15       1.85        0.00      91.58       1.64       0.00       0.75       ----

> <Gold.Chemscore.Fitness>
17.3946

> <Gold.Chemscore.DG>
-18.1510

> <Gold.Chemscore.ZeroCoef>
-5.4800

> <Gold.Chemscore.Hbond>
1.8459

> <Gold.Chemscore.Metal>
0.0000

> <Gold.Chemscore.Lipo>
91.5835

> <Gold.Chemscore.Internal_Hbond>
0.0000

> <Gold.Chemscore.DEClash>
0.0015

> <Gold.Chemscore.DEInternal>
0.7549

> <Gold.Chemscore.Rot>
1.6444

> <Gold.Chemscore.Internal.Correction>
   9.000000E+99

> <Gold.Chemscore.Hbonds>
donor molecule, donor type, donor heavy atom, donor atom, acceptor molecule, acceptor atom, score
      L1  H     9    38       P1  8028  0.93
      P1  H  7989  7998       L1     8  0.06

> <Gold.Chemscore.Hbond.Weighted>
-6.1654

> <Gold.Chemscore.Metal.Weighted>
-0.0000

> <Gold.Chemscore.Lipo.Weighted>
-10.7153

> <Gold.Chemscore.Internal_Hbond.Weighted>
0.0000

> <Gold.Chemscore.DEClash.Weighted>
0.0015

> <Gold.Chemscore.DEInternal.Weighted>
0.7549

> <Gold.Chemscore.Rot.Weighted>
4.2097

> <Gold.Chemscore.Internal.Correction.Weighted>
   9.000000E+99

> <Gold.Protein.RotatedTorsions>
[ 6907 6896 6895 6894 ] final   34.11 input  -60.11 | X-H torsion
[ 7974 7965 7964 7962 ] final  -43.07 input  175.53 | X-H torsion
[ 8008 7997 7996 7995 ] final  -99.63 input   59.86 | X-H torsion
[ 10167 10162 10161 10158 ] final  -53.91 input  -65.29 | X-H torsion
[ 10718 10713 10712 10709 ] final -103.41 input   66.30 | X-H torsion
[ 10763 10752 10751 10750 ] final  -95.47 input  -60.55 | X-H torsion
[ 11005 11000 10999 10996 ] final  119.45 input  -57.11 | X-H torsion

> <Gold.Protein.ActiveResidues>
 VAL166  LYS551  ARG553  GLY616  TRP617  ASP618  TYR619  PRO620  LYS621  CYS622 
 ASP623  PHE694  ASN695  SER759  ASP760  ASP761  ALA762  ILE779  LEU786  VAL792 
 PHE793  MET794  SER795  GLU796  ALA797  LYS798  CYS799  TRP800  GLU811  SER814 

> <Gold.Protein.RotatedAtoms>
  152.0978  134.9362  160.0570 H   0  0  0  0  0  0  0  0  0  0  0  0  # atno 6907 bound_to 6896
  152.0589  133.4048  159.4417 H   0  0  0  0  0  0  0  0  0  0  0  0  # atno 6908 bound_to 6896
  150.6838  134.3143  159.4803 H   0  0  0  0  0  0  0  0  0  0  0  0  # atno 6909 bound_to 6896
  146.0055  140.7025  142.9250 H   0  0  0  0  0  0  0  0  0  0  0  0  # atno 7974 bound_to 7965
  154.8174  140.0446  157.1386 H   0  0  0  0  0  0  0  0  0  0  0  0  # atno 8008 bound_to 7997
  154.9298  140.3038  155.5153 H   0  0  0  0  0  0  0  0  0  0  0  0  # atno 8009 bound_to 7997
  156.2977  140.2325  156.4357 H   0  0  0  0  0  0  0  0  0  0  0  0  # atno 8010 bound_to 7997
  140.6459  143.2535  151.4860 H   0  0  0  0  0  0  0  0  0  0  0  0  # atno 10167 bound_to 10162
  156.0264  130.5466  150.7248 H   0  0  0  0  0  0  0  0  0  0  0  0  # atno 10718 bound_to 10713
  154.7152  135.5119  153.8726 H   0  0  0  0  0  0  0  0  0  0  0  0  # atno 10763 bound_to 10752
  153.0814  135.6632  154.0046 H   0  0  0  0  0  0  0  0  0  0  0  0  # atno 10764 bound_to 10752
  153.9880  135.3022  155.3394 H   0  0  0  0  0  0  0  0  0  0  0  0  # atno 10765 bound_to 10752
  139.9147  134.9628  156.7657 H   0  0  0  0  0  0  0  0  0  0  0  0  # atno 11005 bound_to 11000
  144.6934  140.3307  143.7216 LP  0  0  0  0  0  0  0  0  0  0  0  0  # atno 17320 bound_to 7965
  145.7423  139.1768  143.2369 LP  0  0  0  0  0  0  0  0  0  0  0  0  # atno 17321 bound_to 7965
  139.5670  144.2019  152.1780 LP  0  0  0  0  0  0  0  0  0  0  0  0  # atno 17342 bound_to 10162
  140.1303  144.5294  150.6806 LP  0  0  0  0  0  0  0  0  0  0  0  0  # atno 17343 bound_to 10162
  157.4855  131.0906  151.0487 LP  0  0  0  0  0  0  0  0  0  0  0  0  # atno 17370 bound_to 10713
  157.0908  130.5941  149.5439 LP  0  0  0  0  0  0  0  0  0  0  0  0  # atno 17371 bound_to 10713
  140.6661  133.9601  155.7831 LP  0  0  0  0  0  0  0  0  0  0  0  0  # atno 17394 bound_to 11000
  141.0610  134.0347  157.3659 LP  0  0  0  0  0  0  0  0  0  0  0  0  # atno 17395 bound_to 11000

$$$$
