AV-unprocessed.smi:1795|AV-procd|sdf|7249|dock1
  -GOLD-   22720 8503D 1   1.00000     0.00000
 Structure written by MMmdl.
 48 49  0  0  0  0  0  0  0  0  2 V2000
  147.2101  132.7729  149.0577 C   0  0  0  0  0  0  0  0  0  0  0  0
  147.4276  133.7628  150.2078 C   0  0  2  0  0  0  0  0  0  0  0  0
  148.0284  133.0847  151.4523 C   0  0  0  0  0  0  0  0  0  0  0  0
  148.1749  134.0532  152.5725 N   0  3  2  0  0  0  0  0  0  0  0  0
  148.8696  133.4562  153.7605 C   0  0  1  0  0  0  0  0  0  0  0  0
  150.2417  132.8877  153.3312 C   0  0  0  0  0  0  0  0  0  0  0  0
  149.0259  134.4388  154.9550 C   0  0  0  0  0  0  0  0  0  0  0  0
  149.7266  135.6671  154.5891 N   0  0  0  0  0  0  0  0  0  0  0  0
  150.2727  136.5389  155.4511 C   0  0  0  0  0  0  0  0  0  0  0  0
  150.2666  136.3764  156.6718 O   0  0  0  0  0  0  0  0  0  0  0  0
  150.9269  137.7814  154.8321 C   0  0  0  0  0  0  0  0  0  0  0  0
  150.3715  139.0401  155.3564 N   0  0  0  0  0  0  0  0  0  0  0  0
  149.1853  139.5173  154.7636 C   0  0  0  0  0  0  0  0  0  0  0  0
  148.5979  140.6549  155.1672 C   0  0  0  0  0  0  0  0  0  0  0  0
  149.2135  141.3973  156.2417 C   0  0  0  0  0  0  0  0  0  0  0  0
  150.3499  140.9520  156.8136 C   0  0  0  0  0  0  0  0  0  0  0  0
  150.9969  139.7103  156.3739 C   0  0  0  0  0  0  0  0  0  0  0  0
  152.0377  139.2977  156.8877 O   0  0  0  0  0  0  0  0  0  0  0  0
  146.8606  134.6996  152.8396 C   0  0  0  0  0  0  0  0  0  0  0  0
  146.2782  135.3226  151.5558 C   0  0  2  0  0  0  0  0  0  0  0  0
  144.8865  135.9225  151.7852 C   0  0  0  0  0  0  0  0  0  0  0  0
  146.1670  134.3208  150.5538 O   0  0  0  0  0  0  0  0  0  0  0  0
  148.1502  132.3133  148.7516 H   0  0  0  0  0  0  0  0  0  0  0  0
  146.7874  133.2742  148.1865 H   0  0  0  0  0  0  0  0  0  0  0  0
  146.5256  131.9747  149.3464 H   0  0  0  0  0  0  0  0  0  0  0  0
  148.0933  134.5555  149.8615 H   0  0  0  0  0  0  0  0  0  0  0  0
  147.3899  132.2586  151.7699 H   0  0  0  0  0  0  0  0  0  0  0  0
  148.9896  132.6513  151.1822 H   0  0  0  0  0  0  0  0  0  0  0  0
  148.2557  132.6271  154.1169 H   0  0  0  0  0  0  0  0  0  0  0  0
  150.7278  132.3486  154.1436 H   0  0  0  0  0  0  0  0  0  0  0  0
  150.9150  133.6856  153.0164 H   0  0  0  0  0  0  0  0  0  0  0  0
  150.1674  132.1783  152.5093 H   0  0  0  0  0  0  0  0  0  0  0  0
  148.0521  134.6630  155.3941 H   0  0  0  0  0  0  0  0  0  0  0  0
  149.6267  133.9881  155.7446 H   0  0  0  0  0  0  0  0  0  0  0  0
  149.7862  135.8803  153.6038 H   0  0  0  0  0  0  0  0  0  0  0  0
  152.0011  137.7243  155.0138 H   0  0  0  0  0  0  0  0  0  0  0  0
  150.8182  137.7556  153.7459 H   0  0  0  0  0  0  0  0  0  0  0  0
  148.7915  138.9080  153.9630 H   0  0  0  0  0  0  0  0  0  0  0  0
  147.6906  141.0070  154.6989 H   0  0  0  0  0  0  0  0  0  0  0  0
  148.7609  142.3151  156.5875 H   0  0  0  0  0  0  0  0  0  0  0  0
  150.7963  141.5214  157.6157 H   0  0  0  0  0  0  0  0  0  0  0  0
  146.1691  133.9627  153.2518 H   0  0  0  0  0  0  0  0  0  0  0  0
  146.9645  135.4999  153.5716 H   0  0  0  0  0  0  0  0  0  0  0  0
  146.9401  136.1140  151.1993 H   0  0  0  0  0  0  0  0  0  0  0  0
  144.9177  136.7135  152.5350 H   0  0  0  0  0  0  0  0  0  0  0  0
  144.1806  135.1648  152.1271 H   0  0  0  0  0  0  0  0  0  0  0  0
  144.4915  136.3537  150.8649 H   0  0  0  0  0  0  0  0  0  0  0  0
  148.7781  134.7938  152.2432 H   0  0  0  0  0  0  0  0  0  0  0  0
  1  2  1  0  0  0  0
  1 23  1  0  0  0  0
  1 24  1  0  0  0  0
  1 25  1  0  0  0  0
  2 22  1  0  0  0  0
  2  3  1  0  0  0  0
  2 26  1  0  0  0  0
  3  4  1  0  0  0  0
  3 27  1  0  0  0  0
  3 28  1  0  0  0  0
  4  5  1  0  0  0  0
  4 19  1  0  0  0  0
  4 48  1  0  0  0  0
  5  6  1  0  0  0  0
  5  7  1  0  0  0  0
  5 29  1  0  0  0  0
  6 30  1  0  0  0  0
  6 31  1  0  0  0  0
  6 32  1  0  0  0  0
  7  8  1  0  0  0  0
  7 33  1  0  0  0  0
  7 34  1  0  0  0  0
  8  9  1  0  0  0  0
  8 35  1  0  0  0  0
  9 10  2  0  0  0  0
  9 11  1  0  0  0  0
 11 12  1  0  0  0  0
 11 36  1  0  0  0  0
 11 37  1  0  0  0  0
 12 17  1  0  0  0  0
 12 13  1  0  0  0  0
 13 14  2  0  0  0  0
 13 38  1  0  0  0  0
 14 15  1  0  0  0  0
 14 39  1  0  0  0  0
 15 16  2  0  0  0  0
 15 40  1  0  0  0  0
 16 17  1  0  0  0  0
 16 41  1  0  0  0  0
 17 18  2  0  0  0  0
 19 20  1  0  0  0  0
 19 42  1  0  0  0  0
 19 43  1  0  0  0  0
 20 21  1  0  0  0  0
 20 22  1  0  0  0  0
 20 44  1  0  0  0  0
 21 45  1  0  0  0  0
 21 46  1  0  0  0  0
 21 47  1  0  0  0  0
M  CHG  1   4   1
M  END
> <s_m_source_file>
AV-unprocessed.smi

> <i_m_source_file_index>
1795

> <i_lp_mmshare_version>
43012

> <i_f3d_flags>
0

> <s_epik_input>
W0NIM11bQ0BASF0xW0NIMl1OKFtDSDJdW0NASF0oTzEpW0NIM10pW0NASF0oW0NIM10pW0NIMl1bTkhdQyg9TylbQ0gyXW4yW2NIXVtjSF1bY0hdW2NIXWMyPU8=

> <s_epik_cmdline>
J2VwaWtfcHl0aG9uJywgJy1waCcsICc3LjAnLCAnLXRuJywgJzgnLCAnLW1hJywgJzIwMCcsICctbWV0YWxfYmluZGluZycsICctaW1hZScsICc8aW5maWxlLm1hZT4nLCAnLW9tYWUnLCAnPG91dGZpbGUubWFlPic=

> <r_lp_tautomer_probability>
1

> <r_epik_Ionization_Penalty>
0.656654

> <r_epik_Ionization_Penalty_Charging>
0.656654

> <r_epik_Ionization_Penalty_Neutral>
8.90321e-08

> <r_epik_State_Penalty>
0.675641

> <r_epik_Charging_Adjusted_Penalty>
1.33229

> <i_epik_Tot_Q>
1

> <i_epik_Tot_abs_Q>
1

> <r_epik_Metal_State_Penalty>
0.675691

> <b_epik_Metal_Only>
0

> <s_lp_Force_Field>
OPLS_2005

> <r_lp_Energy>
27.2799

> <b_lp_Chiralities_Consistent>
1

> <s_lp_Variant>
AV-unprocessed.smi:1795-13

> <Gold.Version>
5.8.1

> <Gold.Id.Protein>
6NUR|6NUR_protein|mol2

> <Gold.PLP.Fitness>
53.6529

> <Gold.PLP.PLP>
-41.9913

> <Gold.PLP.part.hbond>
-3.0000

> <Gold.PLP.part.metal>
0.0000

> <Gold.PLP.part.buried>
-3.5831

> <Gold.PLP.part.nonpolar>
-34.9105

> <Gold.PLP.part.repulsive>
0.1774

> <Gold.PLP.ligand.clash>
0.0000

> <Gold.PLP.ligand.torsion>
0.4927

> <Gold.PLP.Chemscore.Hbond>
4.0000

> <Gold.PLP.Chemscore.CHOScore>
0.1491

> <Gold.PLP.Chemscore.Metal>
0.0000

> <Gold.Chemscore.Hbonds>
donor molecule, donor type, donor heavy atom, donor atom, acceptor molecule, acceptor atom, score
      L1  H     4    48       P1  7948  0.38
      L1  H     8    35       P1  7948  0.80

> <Gold.PLP.Chemscore.Internal.Correction>
0.1998

> <Gold.Rescore>
     Score         DG    S(hbond)    S(metal)    S(lipo)     H(rot)  DE(clash)    DE(int)     intcor
     18.16     -18.53       2.69        0.00      76.09       1.89       0.11       0.25       ----

> <Gold.Chemscore.Fitness>
18.1620

> <Gold.Chemscore.DG>
-18.5252

> <Gold.Chemscore.ZeroCoef>
-5.4800

> <Gold.Chemscore.Hbond>
2.6867

> <Gold.Chemscore.Metal>
0.0000

> <Gold.Chemscore.Lipo>
76.0881

> <Gold.Chemscore.Internal_Hbond>
0.0000

> <Gold.Chemscore.DEClash>
0.1117

> <Gold.Chemscore.DEInternal>
0.2515

> <Gold.Chemscore.Rot>
1.8870

> <Gold.Chemscore.Internal.Correction>
   9.000000E+99

> <Gold.Chemscore.Hbonds>
donor molecule, donor type, donor heavy atom, donor atom, acceptor molecule, acceptor atom, score
      L1  H     8    35       P1  7948  0.11
      P1  H  7997  8010       L1    18  0.03

> <Gold.Chemscore.Hbond.Weighted>
-8.9737

> <Gold.Chemscore.Metal.Weighted>
-0.0000

> <Gold.Chemscore.Lipo.Weighted>
-8.9023

> <Gold.Chemscore.Internal_Hbond.Weighted>
0.0000

> <Gold.Chemscore.DEClash.Weighted>
0.1117

> <Gold.Chemscore.DEInternal.Weighted>
0.2515

> <Gold.Chemscore.Rot.Weighted>
4.8308

> <Gold.Chemscore.Internal.Correction.Weighted>
   9.000000E+99

> <Gold.Protein.RotatedTorsions>
[ 6907 6896 6895 6894 ] final   88.72 input  -60.11 | X-H torsion
[ 7974 7965 7964 7962 ] final  -99.75 input  175.53 | X-H torsion
[ 8008 7997 7996 7995 ] final   71.11 input   59.86 | X-H torsion
[ 10167 10162 10161 10158 ] final   52.13 input  -65.29 | X-H torsion
[ 10718 10713 10712 10709 ] final   62.61 input   66.30 | X-H torsion
[ 10763 10752 10751 10750 ] final  -55.62 input  -60.55 | X-H torsion
[ 11005 11000 10999 10996 ] final  148.02 input  -57.11 | X-H torsion

> <Gold.Protein.ActiveResidues>
 VAL166  LYS551  ARG553  GLY616  TRP617  ASP618  TYR619  PRO620  LYS621  CYS622 
 ASP623  PHE694  ASN695  SER759  ASP760  ASP761  ALA762  ILE779  LEU786  VAL792 
 PHE793  MET794  SER795  GLU796  ALA797  LYS798  CYS799  TRP800  GLU811  SER814 

> <Gold.Protein.RotatedAtoms>
  152.5428  134.2078  159.8737 H   0  0  0  0  0  0  0  0  0  0  0  0  # atno 6907 bound_to 6896
  151.2063  133.4575  159.2605 H   0  0  0  0  0  0  0  0  0  0  0  0  # atno 6908 bound_to 6896
  151.0940  134.9946  159.8472 H   0  0  0  0  0  0  0  0  0  0  0  0  # atno 6909 bound_to 6896
  145.3035  140.9383  143.2810 H   0  0  0  0  0  0  0  0  0  0  0  0  # atno 7974 bound_to 7965
  155.7490  140.3489  155.5141 H   0  0  0  0  0  0  0  0  0  0  0  0  # atno 8008 bound_to 7997
  155.9022  140.1036  157.1362 H   0  0  0  0  0  0  0  0  0  0  0  0  # atno 8009 bound_to 7997
  154.4045  140.1284  156.4438 H   0  0  0  0  0  0  0  0  0  0  0  0  # atno 8010 bound_to 7997
  140.2546  144.3441  150.6337 H   0  0  0  0  0  0  0  0  0  0  0  0  # atno 10167 bound_to 10162
  157.5913  130.9060  149.9610 H   0  0  0  0  0  0  0  0  0  0  0  0  # atno 10718 bound_to 10713
  154.1937  135.6423  153.5067 H   0  0  0  0  0  0  0  0  0  0  0  0  # atno 10763 bound_to 10752
  153.0029  135.5435  154.6388 H   0  0  0  0  0  0  0  0  0  0  0  0  # atno 10764 bound_to 10752
  154.5783  135.2923  155.0731 H   0  0  0  0  0  0  0  0  0  0  0  0  # atno 10765 bound_to 10752
  140.0925  134.9032  157.1672 H   0  0  0  0  0  0  0  0  0  0  0  0  # atno 11005 bound_to 11000
  144.9074  139.4572  143.6603 LP  0  0  0  0  0  0  0  0  0  0  0  0  # atno 17320 bound_to 7965
  146.3143  139.7862  142.8995 LP  0  0  0  0  0  0  0  0  0  0  0  0  # atno 17321 bound_to 7965
  140.6014  143.2167  151.7065 LP  0  0  0  0  0  0  0  0  0  0  0  0  # atno 17342 bound_to 10162
  139.5035  144.3787  152.0398 LP  0  0  0  0  0  0  0  0  0  0  0  0  # atno 17343 bound_to 10162
  156.0968  130.3659  150.0291 LP  0  0  0  0  0  0  0  0  0  0  0  0  # atno 17370 bound_to 10713
  156.8413  130.9427  151.3631 LP  0  0  0  0  0  0  0  0  0  0  0  0  # atno 17371 bound_to 10713
  140.3333  134.2786  155.7224 LP  0  0  0  0  0  0  0  0  0  0  0  0  # atno 17394 bound_to 11000
  141.2082  133.7784  157.0073 LP  0  0  0  0  0  0  0  0  0  0  0  0  # atno 17395 bound_to 11000

$$$$
