AV-unprocessed.smi:3068|AV-procd|sdf|11709|dock6
  -GOLD-   2272017113D 1   1.00000     0.00000
 Structure written by MMmdl.
 39 41  0  0  0  0  0  0  0  0  1 V2000
  154.0325  139.1944  154.7754 N   0  0  0  0  0  0  0  0  0  0  0  0
  153.0044  138.6672  154.8418 C   0  0  0  0  0  0  0  0  0  0  0  0
  151.7101  138.0026  154.9252 C   0  0  0  0  0  0  0  0  0  0  0  0
  151.7245  136.6512  154.9948 N   0  0  0  0  0  0  0  0  0  0  0  0
  150.5320  136.0232  155.0720 C   0  0  0  0  0  0  0  0  0  0  0  0
  149.3200  136.7404  155.0818 C   0  0  0  0  0  0  0  0  0  0  0  0
  149.2965  138.0882  155.0142 N   0  0  0  0  0  0  0  0  0  0  0  0
  150.4877  138.7325  154.9325 C   0  0  0  0  0  0  0  0  0  0  0  0
  150.4801  140.1381  154.8630 N   0  0  0  0  0  0  0  0  0  0  0  0
  149.9147  140.9556  155.9302 C   0  0  0  0  0  0  0  0  0  0  0  0
  150.9915  141.5215  156.8704 C   0  0  1  0  0  0  0  0  0  0  0  0
  150.4244  142.6208  157.7872 C   0  0  0  0  0  0  0  0  0  0  0  0
  151.4219  143.1089  158.7309 N   0  0  0  0  0  0  0  0  0  0  0  0
  150.8693  144.1467  159.5996 C   0  0  0  0  0  0  0  0  0  0  0  0
  151.9118  144.7041  160.5818 C   0  0  0  0  0  0  0  0  0  0  0  0
  152.5107  143.5689  161.4242 C   0  0  0  0  0  0  0  0  0  0  0  0
  153.0405  142.4553  160.5078 C   0  0  0  0  0  0  0  0  0  0  0  0
  151.9527  141.9912  159.5171 C   0  0  2  0  0  0  0  0  0  0  0  0
  152.4932  140.8777  158.5969 C   0  0  0  0  0  0  0  0  0  0  0  0
  151.4767  140.4614  157.6908 O   0  0  0  0  0  0  0  0  0  0  0  0
  150.5448  134.9446  155.1273 H   0  0  0  0  0  0  0  0  0  0  0  0
  148.3688  136.2330  155.1443 H   0  0  0  0  0  0  0  0  0  0  0  0
  150.6685  140.5841  153.9764 H   0  0  0  0  0  0  0  0  0  0  0  0
  149.3262  141.7646  155.4959 H   0  0  0  0  0  0  0  0  0  0  0  0
  149.2135  140.3437  156.4984 H   0  0  0  0  0  0  0  0  0  0  0  0
  151.8157  141.9347  156.2865 H   0  0  0  0  0  0  0  0  0  0  0  0
  150.0611  143.4491  157.1775 H   0  0  0  0  0  0  0  0  0  0  0  0
  149.5614  142.2313  158.3297 H   0  0  0  0  0  0  0  0  0  0  0  0
  150.4807  144.9644  158.9914 H   0  0  0  0  0  0  0  0  0  0  0  0
  150.0214  143.7486  160.1590 H   0  0  0  0  0  0  0  0  0  0  0  0
  152.7037  145.2091  160.0273 H   0  0  0  0  0  0  0  0  0  0  0  0
  151.4566  145.4539  161.2291 H   0  0  0  0  0  0  0  0  0  0  0  0
  153.3099  143.9492  162.0608 H   0  0  0  0  0  0  0  0  0  0  0  0
  151.7463  143.1636  162.0882 H   0  0  0  0  0  0  0  0  0  0  0  0
  153.9084  142.8206  159.9571 H   0  0  0  0  0  0  0  0  0  0  0  0
  153.3862  141.6148  161.1108 H   0  0  0  0  0  0  0  0  0  0  0  0
  151.1359  141.5622  160.1003 H   0  0  0  0  0  0  0  0  0  0  0  0
  153.3652  141.2210  158.0376 H   0  0  0  0  0  0  0  0  0  0  0  0
  152.8100  140.0168  159.1859 H   0  0  0  0  0  0  0  0  0  0  0  0
  1  2  3  0  0  0  0
  2  3  1  0  0  0  0
  3  8  1  0  0  0  0
  3  4  2  0  0  0  0
  4  5  1  0  0  0  0
  5  6  2  0  0  0  0
  5 21  1  0  0  0  0
  6  7  1  0  0  0  0
  6 22  1  0  0  0  0
  7  8  2  0  0  0  0
  8  9  1  0  0  0  0
  9 10  1  0  0  0  0
  9 23  1  0  0  0  0
 10 11  1  0  0  0  0
 10 24  1  0  0  0  0
 10 25  1  0  0  0  0
 11 20  1  0  0  0  0
 11 12  1  0  0  0  0
 11 26  1  0  0  0  0
 12 13  1  0  0  0  0
 12 27  1  0  0  0  0
 12 28  1  0  0  0  0
 13 18  1  0  0  0  0
 13 14  1  0  0  0  0
 14 15  1  0  0  0  0
 14 29  1  0  0  0  0
 14 30  1  0  0  0  0
 15 16  1  0  0  0  0
 15 31  1  0  0  0  0
 15 32  1  0  0  0  0
 16 17  1  0  0  0  0
 16 33  1  0  0  0  0
 16 34  1  0  0  0  0
 17 18  1  0  0  0  0
 17 35  1  0  0  0  0
 17 36  1  0  0  0  0
 18 19  1  0  0  0  0
 18 37  1  0  0  0  0
 19 20  1  0  0  0  0
 19 38  1  0  0  0  0
 19 39  1  0  0  0  0
M  END
> <s_m_source_file>
AV-unprocessed.smi

> <i_m_source_file_index>
3068

> <i_lp_mmshare_version>
43012

> <i_f3d_flags>
0

> <s_epik_input>
TiNDYzFuW2NIXVtjSF1uYzFbTkhdW0NIMl1bQ0BIXShbQ0gyXTIpT1tDSDJdW0NAQEhdKE4yMylbQ0gyXVtDSDJdW0NIMl1bQ0gyXTM=

> <s_epik_cmdline>
J2VwaWtfcHl0aG9uJywgJy1waCcsICc3LjAnLCAnLXRuJywgJzgnLCAnLW1hJywgJzIwMCcsICctbWV0YWxfYmluZGluZycsICctaW1hZScsICc8aW5maWxlLm1hZT4nLCAnLW9tYWUnLCAnPG91dGZpbGUubWFlPic=

> <r_epik_Ionization_Penalty>
1.22359

> <r_epik_Ionization_Penalty_Charging>
0

> <r_epik_Ionization_Penalty_Neutral>
1.22359

> <r_epik_State_Penalty>
1.29103

> <r_epik_Charging_Adjusted_Penalty>
1.29103

> <i_epik_Tot_Q>
0

> <i_epik_Tot_abs_Q>
0

> <r_epik_Metal_State_Penalty>
1.29103

> <b_epik_Metal_Only>
0

> <s_lp_Force_Field>
OPLS_2005

> <r_lp_Energy>
45.8407

> <b_lp_Chiralities_Consistent>
1

> <s_lp_Variant>
AV-unprocessed.smi:3068-12

> <Gold.Version>
5.8.1

> <Gold.Id.Protein>
6NUR|6NUR_protein|mol2

> <Gold.PLP.Fitness>
43.5656

> <Gold.PLP.PLP>
-39.1664

> <Gold.PLP.part.hbond>
-1.8474

> <Gold.PLP.part.metal>
0.0000

> <Gold.PLP.part.buried>
-7.8628

> <Gold.PLP.part.nonpolar>
-31.8157

> <Gold.PLP.part.repulsive>
1.9293

> <Gold.PLP.ligand.clash>
0.0000

> <Gold.PLP.ligand.torsion>
0.8009

> <Gold.PLP.Chemscore.Hbond>
2.0000

> <Gold.PLP.Chemscore.CHOScore>
0.0000

> <Gold.PLP.Chemscore.Metal>
0.0000

> <Gold.Chemscore.Hbonds>
donor molecule, donor type, donor heavy atom, donor atom, acceptor molecule, acceptor atom, score
      P1  H  7997  8010       L1     1  0.88
      P1  H 10752 10764       L1     4  1.00

> <Gold.PLP.Chemscore.Internal.Correction>
0.0011

> <Gold.Rescore>
     Score         DG    S(hbond)    S(metal)    S(lipo)     H(rot)  DE(clash)    DE(int)     intcor
     18.73     -19.69       1.90        0.00      95.67       1.30       0.14       0.83       ----

> <Gold.Chemscore.Fitness>
18.7256

> <Gold.Chemscore.DG>
-19.6936

> <Gold.Chemscore.ZeroCoef>
-5.4800

> <Gold.Chemscore.Hbond>
1.9022

> <Gold.Chemscore.Metal>
0.0000

> <Gold.Chemscore.Lipo>
95.6673

> <Gold.Chemscore.Internal_Hbond>
0.0000

> <Gold.Chemscore.DEClash>
0.1367

> <Gold.Chemscore.DEInternal>
0.8313

> <Gold.Chemscore.Rot>
1.3019

> <Gold.Chemscore.Internal.Correction>
   9.000000E+99

> <Gold.Chemscore.Hbonds>
donor molecule, donor type, donor heavy atom, donor atom, acceptor molecule, acceptor atom, score
      P1  H  7997  8010       L1     1  0.82
      P1  H 10752 10764       L1     4  0.80

> <Gold.Chemscore.Hbond.Weighted>
-6.3532

> <Gold.Chemscore.Metal.Weighted>
-0.0000

> <Gold.Chemscore.Lipo.Weighted>
-11.1931

> <Gold.Chemscore.Internal_Hbond.Weighted>
0.0000

> <Gold.Chemscore.DEClash.Weighted>
0.1367

> <Gold.Chemscore.DEInternal.Weighted>
0.8313

> <Gold.Chemscore.Rot.Weighted>
3.3327

> <Gold.Chemscore.Internal.Correction.Weighted>
   9.000000E+99

> <Gold.Protein.RotatedTorsions>
[ 6907 6896 6895 6894 ] final  -20.05 input  -60.11 | X-H torsion
[ 7974 7965 7964 7962 ] final    8.18 input  175.53 | X-H torsion
[ 8008 7997 7996 7995 ] final  121.59 input   59.86 | X-H torsion
[ 10167 10162 10161 10158 ] final   30.51 input  -65.29 | X-H torsion
[ 10718 10713 10712 10709 ] final   75.76 input   66.30 | X-H torsion
[ 10763 10752 10751 10750 ] final  -74.44 input  -60.55 | X-H torsion
[ 11005 11000 10999 10996 ] final  102.17 input  -57.11 | X-H torsion

> <Gold.Protein.ActiveResidues>
 VAL166  LYS551  ARG553  GLY616  TRP617  ASP618  TYR619  PRO620  LYS621  CYS622 
 ASP623  PHE694  ASN695  SER759  ASP760  ASP761  ALA762  ILE779  LEU786  VAL792 
 PHE793  MET794  SER795  GLU796  ALA797  LYS798  CYS799  TRP800  GLU811  SER814 

> <Gold.Protein.RotatedAtoms>
  151.2540  135.0631  159.9072 H   0  0  0  0  0  0  0  0  0  0  0  0  # atno 6907 bound_to 6896
  152.5376  134.0302  159.8031 H   0  0  0  0  0  0  0  0  0  0  0  0  # atno 6908 bound_to 6896
  151.0514  133.5571  159.2673 H   0  0  0  0  0  0  0  0  0  0  0  0  # atno 6909 bound_to 6896
  146.2419  139.9972  142.8419 H   0  0  0  0  0  0  0  0  0  0  0  0  # atno 7974 bound_to 7965
  156.2692  140.2805  156.1332 H   0  0  0  0  0  0  0  0  0  0  0  0  # atno 8008 bound_to 7997
  155.1032  140.0390  157.2720 H   0  0  0  0  0  0  0  0  0  0  0  0  # atno 8009 bound_to 7997
  154.6799  140.2606  155.6925 H   0  0  0  0  0  0  0  0  0  0  0  0  # atno 8010 bound_to 7997
  140.4672  144.0818  150.6227 H   0  0  0  0  0  0  0  0  0  0  0  0  # atno 10167 bound_to 10162
  157.6647  130.9742  150.1400 H   0  0  0  0  0  0  0  0  0  0  0  0  # atno 10718 bound_to 10713
  154.4731  135.5864  153.6336 H   0  0  0  0  0  0  0  0  0  0  0  0  # atno 10763 bound_to 10752
  152.9837  135.6071  154.3341 H   0  0  0  0  0  0  0  0  0  0  0  0  # atno 10764 bound_to 10752
  154.3225  135.2843  155.2491 H   0  0  0  0  0  0  0  0  0  0  0  0  # atno 10765 bound_to 10752
  139.8776  134.9213  156.5018 H   0  0  0  0  0  0  0  0  0  0  0  0  # atno 11005 bound_to 11000
  145.1448  140.9591  143.4467 LP  0  0  0  0  0  0  0  0  0  0  0  0  # atno 17320 bound_to 7965
  145.0261  139.3381  143.6048 LP  0  0  0  0  0  0  0  0  0  0  0  0  # atno 17321 bound_to 7965
  140.4022  143.2698  151.9934 LP  0  0  0  0  0  0  0  0  0  0  0  0  # atno 17342 bound_to 10162
  139.4813  144.5988  151.7643 LP  0  0  0  0  0  0  0  0  0  0  0  0  # atno 17343 bound_to 10162
  156.2225  130.3675  149.8539 LP  0  0  0  0  0  0  0  0  0  0  0  0  # atno 17370 bound_to 10713
  156.6388  130.8696  151.3510 LP  0  0  0  0  0  0  0  0  0  0  0  0  # atno 17371 bound_to 10713
  140.8584  133.8078  155.9240 LP  0  0  0  0  0  0  0  0  0  0  0  0  # atno 17394 bound_to 11000
  140.9074  134.2303  157.5006 LP  0  0  0  0  0  0  0  0  0  0  0  0  # atno 17395 bound_to 11000

$$$$
