AV-unprocessed.smi:750|AV-procd|sdf|3593|dock4
  -GOLD-   22720 0583D 1   1.00000     0.00000
 Structure written by MMmdl.
 22 23  0  0  0  0  0  0  0  0  2 V2000
  150.1505  139.5060  158.6270 C   0  0  0  0  0  0  0  0  0  0  0  0
  150.9259  140.4072  157.6415 C   0  0  2  0  0  0  0  0  0  0  0  0
  151.3575  141.7318  158.2998 C   0  0  0  0  0  0  0  0  0  0  0  0
  152.1758  141.7791  159.4559 C   0  0  0  0  0  0  0  0  0  0  0  0
  152.5280  143.0275  160.0036 C   0  0  0  0  0  0  0  0  0  0  0  0
  152.0519  144.1935  159.3765 C   0  0  0  0  0  0  0  0  0  0  0  0
  151.2726  144.1747  158.2762 N   0  0  0  0  0  0  0  0  0  0  0  0
  150.9391  142.9725  157.7593 C   0  0  0  0  0  0  0  0  0  0  0  0
  150.1256  140.5749  156.4337 N   0  5  0  0  0  0  0  0  0  0  0  0
  150.8074  140.0722  155.3778 C   0  0  0  0  0  0  0  0  0  0  0  0
  150.4598  140.0483  154.1994 O   0  0  0  0  0  0  0  0  0  0  0  0
  151.9783  139.5657  155.7732 N   0  0  0  0  0  0  0  0  0  0  0  0
  152.1487  139.6849  157.0860 C   0  0  0  0  0  0  0  0  0  0  0  0
  153.1074  139.2859  157.7467 O   0  0  0  0  0  0  0  0  0  0  0  0
  150.7475  139.2400  159.4993 H   0  0  0  0  0  0  0  0  0  0  0  0
  149.8396  138.5709  158.1582 H   0  0  0  0  0  0  0  0  0  0  0  0
  149.2498  140.0047  158.9866 H   0  0  0  0  0  0  0  0  0  0  0  0
  152.5383  140.8813  159.9335 H   0  0  0  0  0  0  0  0  0  0  0  0
  153.1490  143.0879  160.8848 H   0  0  0  0  0  0  0  0  0  0  0  0
  152.3030  145.1674  159.7700 H   0  0  0  0  0  0  0  0  0  0  0  0
  150.3088  143.0086  156.8835 H   0  0  0  0  0  0  0  0  0  0  0  0
  152.6437  139.1296  155.1525 H   0  0  0  0  0  0  0  0  0  0  0  0
  1  2  1  0  0  0  0
  1 15  1  0  0  0  0
  1 16  1  0  0  0  0
  1 17  1  0  0  0  0
  2 13  1  0  0  0  0
  2  3  1  0  0  0  0
  2  9  1  0  0  0  0
  3  8  1  0  0  0  0
  3  4  2  0  0  0  0
  4  5  1  0  0  0  0
  4 18  1  0  0  0  0
  5  6  2  0  0  0  0
  5 19  1  0  0  0  0
  6  7  1  0  0  0  0
  6 20  1  0  0  0  0
  7  8  2  0  0  0  0
  8 21  1  0  0  0  0
  9 10  1  0  0  0  0
 10 11  2  0  0  0  0
 10 12  1  0  0  0  0
 12 13  1  0  0  0  0
 12 22  1  0  0  0  0
 13 14  2  0  0  0  0
M  CHG  1   9  -1
M  END
> <s_m_source_file>
AV-unprocessed.smi

> <i_m_source_file_index>
750

> <i_lp_mmshare_version>
43012

> <i_f3d_flags>
0

> <s_epik_input>
Tz1DMVtOSF1DKD1PKVtOSF1bQ0BAXTEoW0NIM10pYzJbY0hdW2NIXVtjSF1uW2NIXTI=

> <s_epik_cmdline>
J2VwaWtfcHl0aG9uJywgJy1waCcsICc3LjAnLCAnLXRuJywgJzgnLCAnLW1hJywgJzIwMCcsICctbWV0YWxfYmluZGluZycsICctaW1hZScsICc8aW5maWxlLm1hZT4nLCAnLW9tYWUnLCAnPG91dGZpbGUubWFlPic=

> <r_lp_tautomer_probability>
1

> <r_epik_Ionization_Penalty>
4.84674

> <r_epik_Ionization_Penalty_Charging>
4.8337

> <r_epik_Ionization_Penalty_Neutral>
0.0130349

> <r_epik_State_Penalty>
4.85653

> <r_epik_Charging_Adjusted_Penalty>
9.69023

> <i_epik_Tot_Q>
-1

> <i_epik_Tot_abs_Q>
1

> <r_epik_Metal_State_Penalty>
1.3191

> <b_epik_Metal_Only>
1

> <s_lp_Force_Field>
OPLS_2005

> <r_lp_Energy>
14.3278

> <b_lp_Chiralities_Consistent>
1

> <s_lp_Variant>
AV-unprocessed.smi:750-6

> <Gold.Version>
5.8.1

> <Gold.Id.Protein>
6NUR|6NUR_protein|mol2

> <Gold.PLP.Fitness>
33.4824

> <Gold.PLP.PLP>
-24.7966

> <Gold.PLP.part.hbond>
-2.0000

> <Gold.PLP.part.metal>
0.0000

> <Gold.PLP.part.buried>
-3.7200

> <Gold.PLP.part.nonpolar>
-20.2798

> <Gold.PLP.part.repulsive>
0.6737

> <Gold.PLP.ligand.clash>
0.0000

> <Gold.PLP.ligand.torsion>
0.0344

> <Gold.PLP.Chemscore.Hbond>
1.9000

> <Gold.PLP.Chemscore.CHOScore>
1.0000

> <Gold.PLP.Chemscore.Metal>
0.0000

> <Gold.Chemscore.Hbonds>
donor molecule, donor type, donor heavy atom, donor atom, acceptor molecule, acceptor atom, score
      P1  H  7989  7998       L1    11  1.00
      P1  H  7997  8010       L1    14  0.70
      L1  C     8    21       P1  8028  0.99

> <Gold.PLP.Chemscore.Internal.Correction>
0.0547

> <Gold.Rescore>
     Score         DG    S(hbond)    S(metal)    S(lipo)     H(rot)  DE(clash)    DE(int)     intcor
     13.64     -13.76       1.00        0.00      64.27       1.00       0.01       0.11       ----

> <Gold.Chemscore.Fitness>
13.6432

> <Gold.Chemscore.DG>
-13.7635

> <Gold.Chemscore.ZeroCoef>
-5.4800

> <Gold.Chemscore.Hbond>
0.9953

> <Gold.Chemscore.Metal>
0.0000

> <Gold.Chemscore.Lipo>
64.2657

> <Gold.Chemscore.Internal_Hbond>
0.0000

> <Gold.Chemscore.DEClash>
0.0139

> <Gold.Chemscore.DEInternal>
0.1063

> <Gold.Chemscore.Rot>
1.0000

> <Gold.Chemscore.Internal.Correction>
   9.000000E+99

> <Gold.Chemscore.Hbonds>
donor molecule, donor type, donor heavy atom, donor atom, acceptor molecule, acceptor atom, score
      P1  H  7989  7998       L1    11  0.38
      P1  H  7997  8010       L1    14  0.07

> <Gold.Chemscore.Hbond.Weighted>
-3.3244

> <Gold.Chemscore.Metal.Weighted>
-0.0000

> <Gold.Chemscore.Lipo.Weighted>
-7.5191

> <Gold.Chemscore.Internal_Hbond.Weighted>
0.0000

> <Gold.Chemscore.DEClash.Weighted>
0.0139

> <Gold.Chemscore.DEInternal.Weighted>
0.1063

> <Gold.Chemscore.Rot.Weighted>
2.5600

> <Gold.Chemscore.Internal.Correction.Weighted>
   9.000000E+99

> <Gold.Protein.RotatedTorsions>
[ 6907 6896 6895 6894 ] final  112.24 input  -60.11 | X-H torsion
[ 7974 7965 7964 7962 ] final  129.00 input  175.53 | X-H torsion
[ 8008 7997 7996 7995 ] final   63.39 input   59.86 | X-H torsion
[ 10167 10162 10161 10158 ] final  164.45 input  -65.29 | X-H torsion
[ 10718 10713 10712 10709 ] final  137.41 input   66.30 | X-H torsion
[ 10763 10752 10751 10750 ] final -163.66 input  -60.55 | X-H torsion
[ 11005 11000 10999 10996 ] final  165.10 input  -57.11 | X-H torsion

> <Gold.Protein.ActiveResidues>
 VAL166  LYS551  ARG553  GLY616  TRP617  ASP618  TYR619  PRO620  LYS621  CYS622 
 ASP623  PHE694  ASN695  SER759  ASP760  ASP761  ALA762  ILE779  LEU786  VAL792 
 PHE793  MET794  SER795  GLU796  ALA797  LYS798  CYS799  TRP800  GLU811  SER814 

> <Gold.Protein.RotatedAtoms>
  152.4927  133.8544  159.7217 H   0  0  0  0  0  0  0  0  0  0  0  0  # atno 6907 bound_to 6896
  150.9072  133.7034  159.2870 H   0  0  0  0  0  0  0  0  0  0  0  0  # atno 6908 bound_to 6896
  151.4455  135.1029  159.9735 H   0  0  0  0  0  0  0  0  0  0  0  0  # atno 6909 bound_to 6896
  145.0334  139.4026  143.5138 H   0  0  0  0  0  0  0  0  0  0  0  0  # atno 7974 bound_to 7965
  155.6294  140.3496  155.4678 H   0  0  0  0  0  0  0  0  0  0  0  0  # atno 8008 bound_to 7997
  156.0015  140.1214  157.0566 H   0  0  0  0  0  0  0  0  0  0  0  0  # atno 8009 bound_to 7997
  154.4250  140.1099  156.5689 H   0  0  0  0  0  0  0  0  0  0  0  0  # atno 8010 bound_to 7997
  139.4889  144.4234  151.9159 H   0  0  0  0  0  0  0  0  0  0  0  0  # atno 10167 bound_to 10162
  157.4364  131.1053  151.0193 H   0  0  0  0  0  0  0  0  0  0  0  0  # atno 10718 bound_to 10713
  154.7101  135.3004  154.9210 H   0  0  0  0  0  0  0  0  0  0  0  0  # atno 10763 bound_to 10752
  154.0114  135.6694  153.4769 H   0  0  0  0  0  0  0  0  0  0  0  0  # atno 10764 bound_to 10752
  153.0748  135.5040  154.8295 H   0  0  0  0  0  0  0  0  0  0  0  0  # atno 10765 bound_to 10752
  140.2526  134.7965  157.3516 H   0  0  0  0  0  0  0  0  0  0  0  0  # atno 11005 bound_to 11000
  146.3501  139.9897  142.8687 LP  0  0  0  0  0  0  0  0  0  0  0  0  # atno 17320 bound_to 7965
  145.1740  140.9735  143.4305 LP  0  0  0  0  0  0  0  0  0  0  0  0  # atno 17321 bound_to 7965
  140.3679  144.2892  150.5924 LP  0  0  0  0  0  0  0  0  0  0  0  0  # atno 17342 bound_to 10162
  140.5345  143.2236  151.8185 LP  0  0  0  0  0  0  0  0  0  0  0  0  # atno 17343 bound_to 10162
  157.1072  130.6006  149.5473 LP  0  0  0  0  0  0  0  0  0  0  0  0  # atno 17370 bound_to 10713
  155.9932  130.4992  150.7370 LP  0  0  0  0  0  0  0  0  0  0  0  0  # atno 17371 bound_to 10713
  140.1542  134.4810  155.7939 LP  0  0  0  0  0  0  0  0  0  0  0  0  # atno 17394 bound_to 11000
  141.2199  133.6875  156.7432 LP  0  0  0  0  0  0  0  0  0  0  0  0  # atno 17395 bound_to 11000

$$$$
