AV-unprocessed.smi:1381|AV-procd|sdf|5607|dock9
  -GOLD-   22720 5213D 1   1.00000     0.00000
 Structure written by MMmdl.
 43 44  0  0  0  0  0  0  0  0  2 V2000
  152.2960  140.7925  158.0853 C   0  0  0  0  0  0  0  0  0  0  0  0
  151.8478  140.3721  156.7278 C   0  0  0  0  0  0  0  0  0  0  0  0
  150.6458  140.4433  156.0813 C   0  0  0  0  0  0  0  0  0  0  0  0
  150.9279  139.8600  154.8174 C   0  0  0  0  0  0  0  0  0  0  0  0
  149.9191  139.7441  153.8272 N   0  0  0  0  0  0  0  0  0  0  0  0
  148.6397  139.3722  154.0033 C   0  0  0  0  0  0  0  0  0  0  0  0
  148.1275  139.0760  155.0833 O   0  0  0  0  0  0  0  0  0  0  0  0
  147.9701  139.3553  152.8417 N   0  0  0  0  0  0  0  0  0  0  0  0
  146.5654  138.9909  152.6972 C   0  0  0  0  0  0  0  0  0  0  0  0
  146.3479  138.0507  151.4957 C   0  0  0  0  0  0  0  0  0  0  0  0
  146.1317  136.6422  151.9090 N   0  3  1  0  0  0  0  0  0  0  0  0
  145.3723  136.5371  153.1761 C   0  0  0  0  0  0  0  0  0  0  0  0
  145.2653  135.0676  153.6209 C   0  0  1  0  0  0  0  0  0  0  0  0
  144.4089  134.9099  154.8822 C   0  0  0  0  0  0  0  0  0  0  0  0
  144.6615  134.3004  152.5826 O   0  0  0  0  0  0  0  0  0  0  0  0
  145.3411  134.3477  151.3280 C   0  0  2  0  0  0  0  0  0  0  0  0
  146.6676  133.5676  151.3538 C   0  0  0  0  0  0  0  0  0  0  0  0
  145.4955  135.8082  150.8596 C   0  0  0  0  0  0  0  0  0  0  0  0
  152.1874  139.4677  154.7029 N   0  0  0  0  0  0  0  0  0  0  0  0
  152.7832  139.7930  155.9270 O   0  0  0  0  0  0  0  0  0  0  0  0
  151.5418  141.4122  158.5703 H   0  0  0  0  0  0  0  0  0  0  0  0
  153.2197  141.3683  158.0272 H   0  0  0  0  0  0  0  0  0  0  0  0
  152.4780  139.9236  158.7178 H   0  0  0  0  0  0  0  0  0  0  0  0
  149.7175  140.8490  156.4554 H   0  0  0  0  0  0  0  0  0  0  0  0
  150.2048  139.9618  152.8840 H   0  0  0  0  0  0  0  0  0  0  0  0
  148.4653  139.6127  152.0003 H   0  0  0  0  0  0  0  0  0  0  0  0
  146.2173  138.5404  153.6271 H   0  0  0  0  0  0  0  0  0  0  0  0
  145.9903  139.9071  152.5615 H   0  0  0  0  0  0  0  0  0  0  0  0
  145.4715  138.4013  150.9487 H   0  0  0  0  0  0  0  0  0  0  0  0
  147.1853  138.1000  150.7977 H   0  0  0  0  0  0  0  0  0  0  0  0
  145.8711  137.1168  153.9539 H   0  0  0  0  0  0  0  0  0  0  0  0
  144.3785  136.9683  153.0425 H   0  0  0  0  0  0  0  0  0  0  0  0
  146.2599  134.6776  153.8377 H   0  0  0  0  0  0  0  0  0  0  0  0
  144.8277  135.4746  155.7155 H   0  0  0  0  0  0  0  0  0  0  0  0
  144.3518  133.8642  155.1856 H   0  0  0  0  0  0  0  0  0  0  0  0
  143.3910  135.2635  154.7161 H   0  0  0  0  0  0  0  0  0  0  0  0
  144.6917  133.8386  150.6152 H   0  0  0  0  0  0  0  0  0  0  0  0
  147.0971  133.5038  150.3537 H   0  0  0  0  0  0  0  0  0  0  0  0
  146.5124  132.5489  151.7099 H   0  0  0  0  0  0  0  0  0  0  0  0
  147.4128  134.0365  151.9959 H   0  0  0  0  0  0  0  0  0  0  0  0
  144.5130  136.2213  150.6256 H   0  0  0  0  0  0  0  0  0  0  0  0
  146.0735  135.8357  149.9364 H   0  0  0  0  0  0  0  0  0  0  0  0
  147.0444  136.2495  152.0904 H   0  0  0  0  0  0  0  0  0  0  0  0
  1  2  1  0  0  0  0
  1 21  1  0  0  0  0
  1 22  1  0  0  0  0
  1 23  1  0  0  0  0
  2 20  1  0  0  0  0
  2  3  2  0  0  0  0
  3  4  1  0  0  0  0
  3 24  1  0  0  0  0
  4  5  1  0  0  0  0
  4 19  2  0  0  0  0
  5  6  1  0  0  0  0
  5 25  1  0  0  0  0
  6  7  2  0  0  0  0
  6  8  1  0  0  0  0
  8  9  1  0  0  0  0
  8 26  1  0  0  0  0
  9 10  1  0  0  0  0
  9 27  1  0  0  0  0
  9 28  1  0  0  0  0
 10 11  1  0  0  0  0
 10 29  1  0  0  0  0
 10 30  1  0  0  0  0
 11 18  1  0  0  0  0
 11 12  1  0  0  0  0
 11 43  1  0  0  0  0
 12 13  1  0  0  0  0
 12 31  1  0  0  0  0
 12 32  1  0  0  0  0
 13 14  1  0  0  0  0
 13 15  1  0  0  0  0
 13 33  1  0  0  0  0
 14 34  1  0  0  0  0
 14 35  1  0  0  0  0
 14 36  1  0  0  0  0
 15 16  1  0  0  0  0
 16 17  1  0  0  0  0
 16 18  1  0  0  0  0
 16 37  1  0  0  0  0
 17 38  1  0  0  0  0
 17 39  1  0  0  0  0
 17 40  1  0  0  0  0
 18 41  1  0  0  0  0
 18 42  1  0  0  0  0
 19 20  1  0  0  0  0
M  CHG  1  11   1
M  END
> <s_m_source_file>
AV-unprocessed.smi

> <i_m_source_file_index>
1381

> <i_lp_mmshare_version>
43012

> <i_f3d_flags>
0

> <s_epik_input>
W0NIM11jMVtjSF1jKG5vMSlbTkhdQyg9TylbTkhdW0NIMl1bQ0gyXU4yW0NIMl1bQ0BASF0oW0NIM10pT1tDQEBIXShbQ0gzXSlbQ0gyXTI=

> <s_epik_cmdline>
J2VwaWtfcHl0aG9uJywgJy1waCcsICc3LjAnLCAnLXRuJywgJzgnLCAnLW1hJywgJzIwMCcsICctbWV0YWxfYmluZGluZycsICctaW1hZScsICc8aW5maWxlLm1hZT4nLCAnLW9tYWUnLCAnPG91dGZpbGUubWFlPic=

> <r_epik_Ionization_Penalty>
0.707076

> <r_epik_Ionization_Penalty_Charging>
0.707039

> <r_epik_Ionization_Penalty_Neutral>
3.6548e-05

> <r_epik_State_Penalty>
0.730276

> <r_epik_Charging_Adjusted_Penalty>
1.43732

> <i_epik_Tot_Q>
1

> <i_epik_Tot_abs_Q>
1

> <r_epik_Metal_State_Penalty>
0.743132

> <b_epik_Metal_Only>
0

> <s_lp_Force_Field>
OPLS_2005

> <r_lp_Energy>
14.2109

> <b_lp_Chiralities_Consistent>
1

> <s_lp_Variant>
AV-unprocessed.smi:1381-6

> <Gold.Version>
5.8.1

> <Gold.Id.Protein>
6NUR|6NUR_protein|mol2

> <Gold.PLP.Fitness>
43.1295

> <Gold.PLP.PLP>
-30.3853

> <Gold.PLP.part.hbond>
-4.9238

> <Gold.PLP.part.metal>
0.0000

> <Gold.PLP.part.buried>
-1.9172

> <Gold.PLP.part.nonpolar>
-25.0403

> <Gold.PLP.part.repulsive>
1.0556

> <Gold.PLP.ligand.clash>
0.0000

> <Gold.PLP.ligand.torsion>
0.9690

> <Gold.PLP.Chemscore.Hbond>
4.8873

> <Gold.PLP.Chemscore.CHOScore>
0.0000

> <Gold.PLP.Chemscore.Metal>
0.0000

> <Gold.Chemscore.Hbonds>
donor molecule, donor type, donor heavy atom, donor atom, acceptor molecule, acceptor atom, score
      L1  H     5    25       P1  7957  0.88
      L1  H     8    26       P1  7957  0.83
      L1  H    11    43       P1  7948  2.00
      P1  H  7997  8010       L1    20  1.00

> <Gold.PLP.Chemscore.Internal.Correction>
0.0205

> <Gold.Rescore>
     Score         DG    S(hbond)    S(metal)    S(lipo)     H(rot)  DE(clash)    DE(int)     intcor
     19.77     -21.07       3.70        0.00      62.87       1.61       0.18       1.12       ----

> <Gold.Chemscore.Fitness>
19.7740

> <Gold.Chemscore.DG>
-21.0687

> <Gold.Chemscore.ZeroCoef>
-5.4800

> <Gold.Chemscore.Hbond>
3.6975

> <Gold.Chemscore.Metal>
0.0000

> <Gold.Chemscore.Lipo>
62.8693

> <Gold.Chemscore.Internal_Hbond>
0.0000

> <Gold.Chemscore.DEClash>
0.1785

> <Gold.Chemscore.DEInternal>
1.1162

> <Gold.Chemscore.Rot>
1.6081

> <Gold.Chemscore.Internal.Correction>
   9.000000E+99

> <Gold.Chemscore.Hbonds>
donor molecule, donor type, donor heavy atom, donor atom, acceptor molecule, acceptor atom, score
      L1  H     5    25       P1  7957  0.86
      L1  H     8    26       P1  7957  0.82
      L1  H    11    43       P1  7948  0.95
      P1  H  7997  8010       L1    20  0.76

> <Gold.Chemscore.Hbond.Weighted>
-12.3497

> <Gold.Chemscore.Metal.Weighted>
-0.0000

> <Gold.Chemscore.Lipo.Weighted>
-7.3557

> <Gold.Chemscore.Internal_Hbond.Weighted>
0.0000

> <Gold.Chemscore.DEClash.Weighted>
0.1785

> <Gold.Chemscore.DEInternal.Weighted>
1.1162

> <Gold.Chemscore.Rot.Weighted>
4.1167

> <Gold.Chemscore.Internal.Correction.Weighted>
   9.000000E+99

> <Gold.Protein.RotatedTorsions>
[ 6907 6896 6895 6894 ] final   64.20 input  -60.11 | X-H torsion
[ 7974 7965 7964 7962 ] final -158.04 input  175.53 | X-H torsion
[ 8008 7997 7996 7995 ] final   67.70 input   59.86 | X-H torsion
[ 10167 10162 10161 10158 ] final -153.24 input  -65.29 | X-H torsion
[ 10718 10713 10712 10709 ] final  108.68 input   66.30 | X-H torsion
[ 10763 10752 10751 10750 ] final  158.13 input  -60.55 | X-H torsion
[ 11005 11000 10999 10996 ] final   15.37 input  -57.11 | X-H torsion

> <Gold.Protein.ActiveResidues>
 VAL166  LYS551  ARG553  GLY616  TRP617  ASP618  TYR619  PRO620  LYS621  CYS622 
 ASP623  PHE694  ASN695  SER759  ASP760  ASP761  ALA762  ILE779  LEU786  VAL792 
 PHE793  MET794  SER795  GLU796  ALA797  LYS798  CYS799  TRP800  GLU811  SER814 

> <Gold.Protein.RotatedAtoms>
  152.4313  134.5772  159.9937 H   0  0  0  0  0  0  0  0  0  0  0  0  # atno 6907 bound_to 6896
  151.5895  133.3362  159.3033 H   0  0  0  0  0  0  0  0  0  0  0  0  # atno 6908 bound_to 6896
  150.8206  134.7447  159.6833 H   0  0  0  0  0  0  0  0  0  0  0  0  # atno 6909 bound_to 6896
  144.7522  140.3884  143.6039 H   0  0  0  0  0  0  0  0  0  0  0  0  # atno 7974 bound_to 7965
  155.6969  140.3495  155.4917 H   0  0  0  0  0  0  0  0  0  0  0  0  # atno 8008 bound_to 7997
  155.9475  140.1113  157.1027 H   0  0  0  0  0  0  0  0  0  0  0  0  # atno 8009 bound_to 7997
  154.4115  140.1201  156.4994 H   0  0  0  0  0  0  0  0  0  0  0  0  # atno 8010 bound_to 7997
  139.7113  143.9104  152.2469 H   0  0  0  0  0  0  0  0  0  0  0  0  # atno 10167 bound_to 10162
  157.6575  131.0898  150.6342 H   0  0  0  0  0  0  0  0  0  0  0  0  # atno 10718 bound_to 10713
  154.2112  135.2786  155.2958 H   0  0  0  0  0  0  0  0  0  0  0  0  # atno 10763 bound_to 10752
  154.5777  135.5599  153.7159 H   0  0  0  0  0  0  0  0  0  0  0  0  # atno 10764 bound_to 10752
  153.0064  135.6337  154.2251 H   0  0  0  0  0  0  0  0  0  0  0  0  # atno 10765 bound_to 10752
  140.4590  134.1146  155.7713 H   0  0  0  0  0  0  0  0  0  0  0  0  # atno 11005 bound_to 11000
  145.6902  139.1637  143.2651 LP  0  0  0  0  0  0  0  0  0  0  0  0  # atno 17320 bound_to 7965
  146.1488  140.6955  142.9332 LP  0  0  0  0  0  0  0  0  0  0  0  0  # atno 17321 bound_to 7965
  139.8974  144.6931  150.8703 LP  0  0  0  0  0  0  0  0  0  0  0  0  # atno 17342 bound_to 10162
  140.7734  143.3540  151.1958 LP  0  0  0  0  0  0  0  0  0  0  0  0  # atno 17343 bound_to 10162
  156.6647  130.4522  149.5676 LP  0  0  0  0  0  0  0  0  0  0  0  0  # atno 17370 bound_to 10713
  156.2041  130.6638  151.1199 LP  0  0  0  0  0  0  0  0  0  0  0  0  # atno 17371 bound_to 10713
  141.1630  133.8757  157.1796 LP  0  0  0  0  0  0  0  0  0  0  0  0  # atno 17394 bound_to 11000
  139.9957  135.0047  157.0077 LP  0  0  0  0  0  0  0  0  0  0  0  0  # atno 17395 bound_to 11000

$$$$
