AV-unprocessed.smi:786|AV-procd|sdf|3724|dock2
  -GOLD-   22720 1153D 1   1.00000     0.00000
 Structure written by MMmdl.
 39 40  0  0  0  0  0  0  0  0  3 V2000
  150.1890  133.3625  157.4897 O   0  0  0  0  0  0  0  0  0  0  0  0
  149.8663  134.4019  156.4994 S   0  0  0  0  0  0  0  0  0  0  0  0
  148.7880  135.3391  156.8531 O   0  0  0  0  0  0  0  0  0  0  0  0
  151.3834  135.4482  156.3062 C   0  0  0  0  0  0  0  0  0  0  0  0
  151.1273  136.9582  156.0784 C   0  0  0  0  0  0  0  0  0  0  0  0
  150.5626  137.3162  154.6907 C   0  0  0  0  0  0  0  0  0  0  0  0
  150.4590  138.8399  154.5090 C   0  0  0  0  0  0  0  0  0  0  0  0
  151.7246  139.4525  154.7246 O   0  0  0  0  0  0  0  0  0  0  0  0
  152.2089  139.2550  156.0473 C   0  0  0  0  0  0  0  0  0  0  0  0
  152.4241  137.7551  156.3033 C   0  0  0  0  0  0  0  0  0  0  0  0
  149.6918  133.8143  154.9961 N   0  5  0  0  0  0  0  0  0  0  0  0
  148.4161  133.9236  154.3000 C   0  0  0  0  0  0  0  0  0  0  0  0
  148.4053  133.1333  152.9688 C   0  0  0  0  0  0  0  0  0  0  0  0
  147.1315  133.2750  152.1417 C   0  0  0  0  0  0  0  0  0  0  0  0
  146.3235  132.1643  151.8070 C   0  0  0  0  0  0  0  0  0  0  0  0
  145.1556  132.3643  151.0419 C   0  0  0  0  0  0  0  0  0  0  0  0
  144.8141  133.6690  150.6299 C   0  0  0  0  0  0  0  0  0  0  0  0
  145.6504  134.7433  150.9949 C   0  0  0  0  0  0  0  0  0  0  0  0
  146.7600  134.5109  151.7285 N   0  3  0  0  0  0  0  0  0  0  0  0
  151.9803  135.3101  157.2076 H   0  0  0  0  0  0  0  0  0  0  0  0
  151.9592  135.0318  155.4797 H   0  0  0  0  0  0  0  0  0  0  0  0
  150.4082  137.2970  156.8250 H   0  0  0  0  0  0  0  0  0  0  0  0
  151.1976  136.8953  153.9103 H   0  0  0  0  0  0  0  0  0  0  0  0
  149.5689  136.8927  154.5563 H   0  0  0  0  0  0  0  0  0  0  0  0
  150.1236  139.0727  153.4983 H   0  0  0  0  0  0  0  0  0  0  0  0
  149.7199  139.2612  155.1923 H   0  0  0  0  0  0  0  0  0  0  0  0
  153.1502  139.7927  156.1615 H   0  0  0  0  0  0  0  0  0  0  0  0
  151.5105  139.6782  156.7712 H   0  0  0  0  0  0  0  0  0  0  0  0
  152.7872  137.6046  157.3205 H   0  0  0  0  0  0  0  0  0  0  0  0
  153.2046  137.3862  155.6365 H   0  0  0  0  0  0  0  0  0  0  0  0
  147.6024  133.5532  154.9244 H   0  0  0  0  0  0  0  0  0  0  0  0
  148.1660  134.9640  154.0917 H   0  0  0  0  0  0  0  0  0  0  0  0
  149.2418  133.4720  152.3568 H   0  0  0  0  0  0  0  0  0  0  0  0
  148.5963  132.0757  153.1527 H   0  0  0  0  0  0  0  0  0  0  0  0
  146.5985  131.1704  152.1283 H   0  0  0  0  0  0  0  0  0  0  0  0
  144.5294  131.5260  150.7740 H   0  0  0  0  0  0  0  0  0  0  0  0
  143.9248  133.8427  150.0421 H   0  0  0  0  0  0  0  0  0  0  0  0
  145.4696  135.7730  150.7235 H   0  0  0  0  0  0  0  0  0  0  0  0
  147.3578  135.3018  151.9758 H   0  0  0  0  0  0  0  0  0  0  0  0
  1  2  2  0  0  0  0
  2  3  2  0  0  0  0
  2  4  1  0  0  0  0
  2 11  1  0  0  0  0
  4  5  1  0  0  0  0
  4 20  1  0  0  0  0
  4 21  1  0  0  0  0
  5 10  1  0  0  0  0
  5  6  1  0  0  0  0
  5 22  1  0  0  0  0
  6  7  1  0  0  0  0
  6 23  1  0  0  0  0
  6 24  1  0  0  0  0
  7  8  1  0  0  0  0
  7 25  1  0  0  0  0
  7 26  1  0  0  0  0
  8  9  1  0  0  0  0
  9 10  1  0  0  0  0
  9 27  1  0  0  0  0
  9 28  1  0  0  0  0
 10 29  1  0  0  0  0
 10 30  1  0  0  0  0
 11 12  1  0  0  0  0
 12 13  1  0  0  0  0
 12 31  1  0  0  0  0
 12 32  1  0  0  0  0
 13 14  1  0  0  0  0
 13 33  1  0  0  0  0
 13 34  1  0  0  0  0
 14 19  1  0  0  0  0
 14 15  2  0  0  0  0
 15 16  1  0  0  0  0
 15 35  1  0  0  0  0
 16 17  2  0  0  0  0
 16 36  1  0  0  0  0
 17 18  1  0  0  0  0
 17 37  1  0  0  0  0
 18 19  2  0  0  0  0
 18 38  1  0  0  0  0
 19 39  1  0  0  0  0
M  CHG  1  11  -1
M  CHG  1  19   1
M  END
> <s_m_source_file>
AV-unprocessed.smi

> <i_m_source_file_index>
786

> <i_lp_mmshare_version>
43012

> <i_f3d_flags>
0

> <s_epik_input>
W0NIMl0xW0NIMl1PW0NIMl1bQ0gyXVtDSF0xW0NIMl1TKD1PKSg9TylbTkhdW0NIMl1bQ0gyXWMyW2NIXVtjSF1bY0hdW2NIXW4y

> <s_epik_cmdline>
J2VwaWtfcHl0aG9uJywgJy1waCcsICc3LjAnLCAnLXRuJywgJzgnLCAnLW1hJywgJzIwMCcsICctbWV0YWxfYmluZGluZycsICctaW1hZScsICc8aW5maWxlLm1hZT4nLCAnLW9tYWUnLCAnPG91dGZpbGUubWFlPic=

> <r_epik_Ionization_Penalty>
7.39271

> <r_epik_Ionization_Penalty_Charging>
7.39271

> <r_epik_Ionization_Penalty_Neutral>
5.66014e-11

> <r_epik_State_Penalty>
8.23716

> <r_epik_Charging_Adjusted_Penalty>
15.6299

> <i_epik_Tot_Q>
0

> <i_epik_Tot_abs_Q>
2

> <r_epik_Metal_State_Penalty>
4.19267

> <b_epik_Metal_Only>
1

> <s_lp_Force_Field>
OPLS_2005

> <r_lp_Energy>
3.22126

> <b_lp_Chiralities_Consistent>
1

> <s_lp_Variant>
AV-unprocessed.smi:786-4

> <Gold.Version>
5.8.1

> <Gold.Id.Protein>
6NUR|6NUR_protein|mol2

> <Gold.PLP.Fitness>
42.6885

> <Gold.PLP.PLP>
-31.9159

> <Gold.PLP.part.hbond>
-3.0000

> <Gold.PLP.part.metal>
0.0000

> <Gold.PLP.part.buried>
-4.9130

> <Gold.PLP.part.nonpolar>
-25.0074

> <Gold.PLP.part.repulsive>
0.2076

> <Gold.PLP.ligand.clash>
0.0000

> <Gold.PLP.ligand.torsion>
1.1441

> <Gold.PLP.Chemscore.Hbond>
4.0000

> <Gold.PLP.Chemscore.CHOScore>
0.0000

> <Gold.PLP.Chemscore.Metal>
0.0000

> <Gold.Chemscore.Hbonds>
donor molecule, donor type, donor heavy atom, donor atom, acceptor molecule, acceptor atom, score
      L1  H    19    39       P1  7948  1.98
      P1  H  6896  6909       L1     1  1.00
      P1  H  7989  7998       L1     8  1.00

> <Gold.PLP.Chemscore.Internal.Correction>
1.0608

> <Gold.Rescore>
     Score         DG    S(hbond)    S(metal)    S(lipo)     H(rot)  DE(clash)    DE(int)     intcor
     18.79     -19.99       2.84        0.00      79.70       1.68       0.06       1.13       ----

> <Gold.Chemscore.Fitness>
18.7905

> <Gold.Chemscore.DG>
-19.9858

> <Gold.Chemscore.ZeroCoef>
-5.4800

> <Gold.Chemscore.Hbond>
2.8408

> <Gold.Chemscore.Metal>
0.0000

> <Gold.Chemscore.Lipo>
79.6985

> <Gold.Chemscore.Internal_Hbond>
0.0000

> <Gold.Chemscore.DEClash>
0.0605

> <Gold.Chemscore.DEInternal>
1.1348

> <Gold.Chemscore.Rot>
1.6824

> <Gold.Chemscore.Internal.Correction>
   9.000000E+99

> <Gold.Chemscore.Hbonds>
donor molecule, donor type, donor heavy atom, donor atom, acceptor molecule, acceptor atom, score
      L1  H    19    39       P1  7948  0.94
      P1  H  6896  6909       L1     1  0.96
      P1  H  7989  7998       L1     8  0.29

> <Gold.Chemscore.Hbond.Weighted>
-9.4881

> <Gold.Chemscore.Metal.Weighted>
-0.0000

> <Gold.Chemscore.Lipo.Weighted>
-9.3247

> <Gold.Chemscore.Internal_Hbond.Weighted>
0.0000

> <Gold.Chemscore.DEClash.Weighted>
0.0605

> <Gold.Chemscore.DEInternal.Weighted>
1.1348

> <Gold.Chemscore.Rot.Weighted>
4.3070

> <Gold.Chemscore.Internal.Correction.Weighted>
   9.000000E+99

> <Gold.Protein.RotatedTorsions>
[ 6907 6896 6895 6894 ] final  -20.35 input  -60.11 | X-H torsion
[ 7974 7965 7964 7962 ] final  -64.69 input  175.53 | X-H torsion
[ 8008 7997 7996 7995 ] final   12.73 input   59.86 | X-H torsion
[ 10167 10162 10161 10158 ] final   95.91 input  -65.29 | X-H torsion
[ 10718 10713 10712 10709 ] final   63.44 input   66.30 | X-H torsion
[ 10763 10752 10751 10750 ] final   56.28 input  -60.55 | X-H torsion
[ 11005 11000 10999 10996 ] final  -35.34 input  -57.11 | X-H torsion

> <Gold.Protein.ActiveResidues>
 VAL166  LYS551  ARG553  GLY616  TRP617  ASP618  TYR619  PRO620  LYS621  CYS622 
 ASP623  PHE694  ASN695  SER759  ASP760  ASP761  ALA762  ILE779  LEU786  VAL792 
 PHE793  MET794  SER795  GLU796  ALA797  LYS798  CYS799  TRP800  GLU811  SER814 

> <Gold.Protein.RotatedAtoms>
  151.2495  135.0617  159.9056 H   0  0  0  0  0  0  0  0  0  0  0  0  # atno 6907 bound_to 6896
  152.5382  134.0347  159.8051 H   0  0  0  0  0  0  0  0  0  0  0  0  # atno 6908 bound_to 6896
  151.0553  133.5540  159.2670 H   0  0  0  0  0  0  0  0  0  0  0  0  # atno 6909 bound_to 6896
  145.7636  140.8849  143.0417 H   0  0  0  0  0  0  0  0  0  0  0  0  # atno 7974 bound_to 7965
  154.8246  140.2889  155.5763 H   0  0  0  0  0  0  0  0  0  0  0  0  # atno 8008 bound_to 7997
  156.3000  140.2543  156.3091 H   0  0  0  0  0  0  0  0  0  0  0  0  # atno 8009 bound_to 7997
  154.9299  140.0384  157.2032 H   0  0  0  0  0  0  0  0  0  0  0  0  # atno 8010 bound_to 7997
  139.7944  144.6839  150.9849 H   0  0  0  0  0  0  0  0  0  0  0  0  # atno 10167 bound_to 10162
  157.5971  130.9105  149.9716 H   0  0  0  0  0  0  0  0  0  0  0  0  # atno 10718 bound_to 10713
  152.9829  135.5681  154.5204 H   0  0  0  0  0  0  0  0  0  0  0  0  # atno 10763 bound_to 10752
  154.4693  135.2784  155.1657 H   0  0  0  0  0  0  0  0  0  0  0  0  # atno 10764 bound_to 10752
  154.3212  135.6268  153.5562 H   0  0  0  0  0  0  0  0  0  0  0  0  # atno 10765 bound_to 10752
  140.9788  133.7068  156.1648 H   0  0  0  0  0  0  0  0  0  0  0  0  # atno 11005 bound_to 11000
  144.6826  139.9757  143.7483 LP  0  0  0  0  0  0  0  0  0  0  0  0  # atno 17320 bound_to 7965
  146.0240  139.3276  143.0795 LP  0  0  0  0  0  0  0  0  0  0  0  0  # atno 17321 bound_to 7965
  140.7820  143.4347  151.0641 LP  0  0  0  0  0  0  0  0  0  0  0  0  # atno 17342 bound_to 10162
  139.8022  143.8068  152.3164 LP  0  0  0  0  0  0  0  0  0  0  0  0  # atno 17343 bound_to 10162
  156.1036  130.3654  150.0174 LP  0  0  0  0  0  0  0  0  0  0  0  0  # atno 17370 bound_to 10713
  156.8285  130.9384  151.3638 LP  0  0  0  0  0  0  0  0  0  0  0  0  # atno 17371 bound_to 10713
  140.7218  134.4350  157.5574 LP  0  0  0  0  0  0  0  0  0  0  0  0  # atno 17394 bound_to 11000
  139.8941  134.8713  156.2190 LP  0  0  0  0  0  0  0  0  0  0  0  0  # atno 17395 bound_to 11000

$$$$
