AV-unprocessed.smi:767|AV-procd|sdf|3662|dock6
  -GOLD-   22720 1 73D 1   1.00000     0.00000
 Structure written by MMmdl.
 47 49  0  0  0  0  0  0  0  0  1 V2000
  151.1930  145.4129  159.9898 C   0  0  0  0  0  0  0  0  0  0  0  0
  152.0398  144.1926  160.2845 C   0  0  0  0  0  0  0  0  0  0  0  0
  152.1281  143.6791  161.5949 C   0  0  0  0  0  0  0  0  0  0  0  0
  152.9246  142.5394  161.8156 C   0  0  0  0  0  0  0  0  0  0  0  0
  153.5966  141.9557  160.7223 C   0  0  0  0  0  0  0  0  0  0  0  0
  154.4377  140.7030  160.9046 C   0  0  0  0  0  0  0  0  0  0  0  0
  153.6905  139.3982  160.5581 C   0  0  0  0  0  0  0  0  0  0  0  0
  153.1256  139.4056  159.2123 N   0  0  0  0  0  0  0  0  0  0  0  0
  151.9891  138.7989  158.8460 C   0  0  0  0  0  0  0  0  0  0  0  0
  151.2960  138.1136  159.5976 O   0  0  0  0  0  0  0  0  0  0  0  0
  151.6876  139.0559  157.5675 N   0  0  0  0  0  0  0  0  0  0  0  0
  150.4830  138.5953  156.8748 C   0  0  1  0  0  0  0  0  0  0  0  0
  149.5147  139.7436  156.4999 C   0  0  1  0  0  0  0  0  0  0  0  0
  149.6428  141.1420  157.0510 C   0  0  0  0  0  0  0  0  0  0  0  0
  150.4530  141.8662  155.9715 C   0  0  0  0  0  0  0  0  0  0  0  0
  151.0709  140.8282  155.2120 O   0  0  0  0  0  0  0  0  0  0  0  0
  150.1512  139.7417  155.1200 C   0  0  1  0  0  0  0  0  0  0  0  0
  150.7270  138.3308  155.3653 C   0  0  0  0  0  0  0  0  0  0  0  0
  152.1624  138.0850  154.8810 C   0  0  0  0  0  0  0  0  0  0  0  0
  149.8768  137.1984  154.7808 C   0  0  0  0  0  0  0  0  0  0  0  0
  153.4509  142.5549  159.4534 C   0  0  0  0  0  0  0  0  0  0  0  0
  152.6898  143.6482  159.2321 N   0  0  0  0  0  0  0  0  0  0  0  0
  150.3760  145.5004  160.7067 H   0  0  0  0  0  0  0  0  0  0  0  0
  150.7596  145.3555  158.9907 H   0  0  0  0  0  0  0  0  0  0  0  0
  151.8015  146.3154  160.0499 H   0  0  0  0  0  0  0  0  0  0  0  0
  151.5942  144.1418  162.4118 H   0  0  0  0  0  0  0  0  0  0  0  0
  153.0044  142.1144  162.8056 H   0  0  0  0  0  0  0  0  0  0  0  0
  155.3354  140.7884  160.2916 H   0  0  0  0  0  0  0  0  0  0  0  0
  154.7830  140.6568  161.9382 H   0  0  0  0  0  0  0  0  0  0  0  0
  154.3879  138.5615  160.6026 H   0  0  0  0  0  0  0  0  0  0  0  0
  152.9151  139.1916  161.2972 H   0  0  0  0  0  0  0  0  0  0  0  0
  153.6173  139.9483  158.5174 H   0  0  0  0  0  0  0  0  0  0  0  0
  152.3183  139.6392  157.0372 H   0  0  0  0  0  0  0  0  0  0  0  0
  149.9812  137.7631  157.3722 H   0  0  0  0  0  0  0  0  0  0  0  0
  148.4859  139.3823  156.4589 H   0  0  0  0  0  0  0  0  0  0  0  0
  148.6724  141.6175  157.1957 H   0  0  0  0  0  0  0  0  0  0  0  0
  150.1551  141.1573  158.0106 H   0  0  0  0  0  0  0  0  0  0  0  0
  149.7929  142.4379  155.3177 H   0  0  0  0  0  0  0  0  0  0  0  0
  151.1925  142.5485  156.3911 H   0  0  0  0  0  0  0  0  0  0  0  0
  149.4392  139.8386  154.2990 H   0  0  0  0  0  0  0  0  0  0  0  0
  152.2094  138.0024  153.7947 H   0  0  0  0  0  0  0  0  0  0  0  0
  152.5706  137.1641  155.2986 H   0  0  0  0  0  0  0  0  0  0  0  0
  152.8375  138.8936  155.1615 H   0  0  0  0  0  0  0  0  0  0  0  0
  149.8981  137.2021  153.6906 H   0  0  0  0  0  0  0  0  0  0  0  0
  148.8316  137.2826  155.0799 H   0  0  0  0  0  0  0  0  0  0  0  0
  150.2281  136.2217  155.1147 H   0  0  0  0  0  0  0  0  0  0  0  0
  153.9489  142.1390  158.5901 H   0  0  0  0  0  0  0  0  0  0  0  0
  1  2  1  0  0  0  0
  1 23  1  0  0  0  0
  1 24  1  0  0  0  0
  1 25  1  0  0  0  0
  2 22  1  0  0  0  0
  2  3  2  0  0  0  0
  3  4  1  0  0  0  0
  3 26  1  0  0  0  0
  4  5  2  0  0  0  0
  4 27  1  0  0  0  0
  5  6  1  0  0  0  0
  5 21  1  0  0  0  0
  6  7  1  0  0  0  0
  6 28  1  0  0  0  0
  6 29  1  0  0  0  0
  7  8  1  0  0  0  0
  7 30  1  0  0  0  0
  7 31  1  0  0  0  0
  8  9  1  0  0  0  0
  8 32  1  0  0  0  0
  9 10  2  0  0  0  0
  9 11  1  0  0  0  0
 11 12  1  0  0  0  0
 11 33  1  0  0  0  0
 12 18  1  0  0  0  0
 12 13  1  0  0  0  0
 12 34  1  0  0  0  0
 13 17  1  0  0  0  0
 13 14  1  0  0  0  0
 13 35  1  0  0  0  0
 14 15  1  0  0  0  0
 14 36  1  0  0  0  0
 14 37  1  0  0  0  0
 15 16  1  0  0  0  0
 15 38  1  0  0  0  0
 15 39  1  0  0  0  0
 16 17  1  0  0  0  0
 17 18  1  0  0  0  0
 17 40  1  0  0  0  0
 18 19  1  0  0  0  0
 18 20  1  0  0  0  0
 19 41  1  0  0  0  0
 19 42  1  0  0  0  0
 19 43  1  0  0  0  0
 20 44  1  0  0  0  0
 20 45  1  0  0  0  0
 20 46  1  0  0  0  0
 21 22  2  0  0  0  0
 21 47  1  0  0  0  0
M  END
> <s_m_source_file>
AV-unprocessed.smi

> <i_m_source_file_index>
767

> <i_lp_mmshare_version>
43012

> <i_f3d_flags>
0

> <s_epik_input>
W0NIM11jMVtjSF1bY0hdYyhbY0hdbjEpW0NIMl1bQ0gyXVtOSF1DKD1PKVtOSF1bQ0BIXTJDKFtDSDNdKShbQ0gzXSlbQ0BIXShbQ0BASF0yMylPW0NIMl1bQ0gyXTM=

> <s_epik_cmdline>
J2VwaWtfcHl0aG9uJywgJy1waCcsICc3LjAnLCAnLXRuJywgJzgnLCAnLW1hJywgJzIwMCcsICctbWV0YWxfYmluZGluZycsICctaW1hZScsICc8aW5maWxlLm1hZT4nLCAnLW9tYWUnLCAnPG91dGZpbGUubWFlPic=

> <r_epik_Ionization_Penalty>
0.0567523

> <r_epik_Ionization_Penalty_Charging>
0

> <r_epik_Ionization_Penalty_Neutral>
0.0567523

> <r_epik_State_Penalty>
0.0489186

> <r_epik_Charging_Adjusted_Penalty>
0.0489186

> <i_epik_Tot_Q>
0

> <i_epik_Tot_abs_Q>
0

> <r_epik_Metal_State_Penalty>
0.044622

> <b_epik_Metal_Only>
0

> <s_lp_Force_Field>
OPLS_2005

> <r_lp_Energy>
33.3409

> <b_lp_Chiralities_Consistent>
1

> <s_lp_Variant>
AV-unprocessed.smi:767-6

> <Gold.Version>
5.8.1

> <Gold.Id.Protein>
6NUR|6NUR_protein|mol2

> <Gold.PLP.Fitness>
44.0443

> <Gold.PLP.PLP>
-42.9558

> <Gold.PLP.part.hbond>
-1.3609

> <Gold.PLP.part.metal>
0.0000

> <Gold.PLP.part.buried>
-5.2839

> <Gold.PLP.part.nonpolar>
-36.7758

> <Gold.PLP.part.repulsive>
0.1976

> <Gold.PLP.ligand.clash>
0.0000

> <Gold.PLP.ligand.torsion>
0.7316

> <Gold.PLP.Chemscore.Hbond>
0.7840

> <Gold.PLP.Chemscore.CHOScore>
0.0000

> <Gold.PLP.Chemscore.Metal>
0.0000

> <Gold.Chemscore.Hbonds>
donor molecule, donor type, donor heavy atom, donor atom, acceptor molecule, acceptor atom, score
      P1  H  7989  7998       L1    16  0.78

> <Gold.PLP.Chemscore.Internal.Correction>
0.1997

> <Gold.Rescore>
     Score         DG    S(hbond)    S(metal)    S(lipo)     H(rot)  DE(clash)    DE(int)     intcor
     18.81     -19.59       0.88        0.00     127.29       1.45       0.05       0.73       ----

> <Gold.Chemscore.Fitness>
18.8125

> <Gold.Chemscore.DG>
-19.5913

> <Gold.Chemscore.ZeroCoef>
-5.4800

> <Gold.Chemscore.Hbond>
0.8770

> <Gold.Chemscore.Metal>
0.0000

> <Gold.Chemscore.Lipo>
127.2932

> <Gold.Chemscore.Internal_Hbond>
0.0000

> <Gold.Chemscore.DEClash>
0.0485

> <Gold.Chemscore.DEInternal>
0.7302

> <Gold.Chemscore.Rot>
1.4497

> <Gold.Chemscore.Internal.Correction>
   9.000000E+99

> <Gold.Chemscore.Hbonds>
donor molecule, donor type, donor heavy atom, donor atom, acceptor molecule, acceptor atom, score
      P1  H  7989  7998       L1    16  0.20

> <Gold.Chemscore.Hbond.Weighted>
-2.9292

> <Gold.Chemscore.Metal.Weighted>
-0.0000

> <Gold.Chemscore.Lipo.Weighted>
-14.8933

> <Gold.Chemscore.Internal_Hbond.Weighted>
0.0000

> <Gold.Chemscore.DEClash.Weighted>
0.0485

> <Gold.Chemscore.DEInternal.Weighted>
0.7302

> <Gold.Chemscore.Rot.Weighted>
3.7112

> <Gold.Chemscore.Internal.Correction.Weighted>
   9.000000E+99

> <Gold.Protein.RotatedTorsions>
[ 6907 6896 6895 6894 ] final  126.02 input  -60.11 | X-H torsion
[ 7974 7965 7964 7962 ] final  110.59 input  175.53 | X-H torsion
[ 8008 7997 7996 7995 ] final  -51.56 input   59.86 | X-H torsion
[ 10167 10162 10161 10158 ] final -126.41 input  -65.29 | X-H torsion
[ 10718 10713 10712 10709 ] final  101.77 input   66.30 | X-H torsion
[ 10763 10752 10751 10750 ] final  -85.61 input  -60.55 | X-H torsion
[ 11005 11000 10999 10996 ] final  142.08 input  -57.11 | X-H torsion

> <Gold.Protein.ActiveResidues>
 VAL166  LYS551  ARG553  GLY616  TRP617  ASP618  TYR619  PRO620  LYS621  CYS622 
 ASP623  PHE694  ASN695  SER759  ASP760  ASP761  ALA762  ILE779  LEU786  VAL792 
 PHE793  MET794  SER795  GLU796  ALA797  LYS798  CYS799  TRP800  GLU811  SER814 

> <Gold.Protein.RotatedAtoms>
  152.3940  133.6720  159.6260 H   0  0  0  0  0  0  0  0  0  0  0  0  # atno 6907 bound_to 6896
  150.7843  133.8905  159.3321 H   0  0  0  0  0  0  0  0  0  0  0  0  # atno 6908 bound_to 6896
  151.6686  135.0981  160.0245 H   0  0  0  0  0  0  0  0  0  0  0  0  # atno 6909 bound_to 6896
  145.2530  139.2732  143.4057 H   0  0  0  0  0  0  0  0  0  0  0  0  # atno 7974 bound_to 7965
  154.4085  140.1245  156.4848 H   0  0  0  0  0  0  0  0  0  0  0  0  # atno 8008 bound_to 7997
  155.7049  140.3494  155.4929 H   0  0  0  0  0  0  0  0  0  0  0  0  # atno 8009 bound_to 7997
  155.9352  140.1077  157.1090 H   0  0  0  0  0  0  0  0  0  0  0  0  # atno 8010 bound_to 7997
  139.9718  143.5838  152.2410 H   0  0  0  0  0  0  0  0  0  0  0  0  # atno 10167 bound_to 10162
  157.6820  131.0735  150.5303 H   0  0  0  0  0  0  0  0  0  0  0  0  # atno 10718 bound_to 10713
  154.6130  135.5479  153.7494 H   0  0  0  0  0  0  0  0  0  0  0  0  # atno 10763 bound_to 10752
  153.0204  135.6394  154.1550 H   0  0  0  0  0  0  0  0  0  0  0  0  # atno 10764 bound_to 10752
  154.1487  135.2904  155.3121 H   0  0  0  0  0  0  0  0  0  0  0  0  # atno 10765 bound_to 10752
  140.0449  134.9285  157.0912 H   0  0  0  0  0  0  0  0  0  0  0  0  # atno 11005 bound_to 11000
  146.3297  140.2926  142.8616 LP  0  0  0  0  0  0  0  0  0  0  0  0  # atno 17320 bound_to 7965
  144.9486  140.8154  143.5586 LP  0  0  0  0  0  0  0  0  0  0  0  0  # atno 17321 bound_to 7965
  139.6476  144.7659  151.2213 LP  0  0  0  0  0  0  0  0  0  0  0  0  # atno 17342 bound_to 10162
  140.7519  143.6214  150.8510 LP  0  0  0  0  0  0  0  0  0  0  0  0  # atno 17343 bound_to 10162
  156.5613  130.4256  149.6061 LP  0  0  0  0  0  0  0  0  0  0  0  0  # atno 17370 bound_to 10713
  156.2818  130.7075  151.1901 LP  0  0  0  0  0  0  0  0  0  0  0  0  # atno 17371 bound_to 10713
  140.4009  134.2084  155.7163 LP  0  0  0  0  0  0  0  0  0  0  0  0  # atno 17394 bound_to 11000
  141.1902  133.8222  157.0927 LP  0  0  0  0  0  0  0  0  0  0  0  0  # atno 17395 bound_to 11000

$$$$
