AV-unprocessed.smi:933|AV-procd|sdf|4201|dock5
  -GOLD-   22720 2103D 1   1.00000     0.00000
 Structure written by MMmdl.
 42 43  0  0  0  0  0  0  0  0  1 V2000
  155.4261  140.5709  160.1415 C   0  0  0  0  0  0  0  0  0  0  0  0
  154.2332  140.5947  161.1030 C   0  0  0  0  0  0  0  0  0  0  0  0
  153.5188  141.9048  161.0977 C   0  0  0  0  0  0  0  0  0  0  0  0
  153.1225  142.5231  159.9821 N   0  0  0  0  0  0  0  0  0  0  0  0
  152.4469  143.7201  160.2398 C   0  0  0  0  0  0  0  0  0  0  0  0
  151.9328  144.5484  159.1017 C   0  0  0  0  0  0  0  0  0  0  0  0
  152.2693  143.9309  157.7376 C   0  0  0  0  0  0  0  0  0  0  0  0
  151.0489  143.6190  156.9983 N   0  0  0  0  0  0  0  0  0  0  0  0
  150.4790  142.4116  156.8446 C   0  0  0  0  0  0  0  0  0  0  0  0
  150.9637  141.3958  157.3396 O   0  0  0  0  0  0  0  0  0  0  0  0
  149.3538  142.4153  156.1103 N   0  0  0  0  0  0  0  0  0  0  0  0
  148.5417  141.2399  155.8087 C   0  0  2  0  0  0  0  0  0  0  0  0
  149.3893  140.1049  155.1959 C   0  0  0  0  0  0  0  0  0  0  0  0
  148.8980  139.9308  153.7579 C   0  0  0  0  0  0  0  0  0  0  0  0
  147.4444  140.3901  153.7986 C   0  0  0  0  0  0  0  0  0  0  0  0
  147.4586  141.5793  154.7629 C   0  0  1  0  0  0  0  0  0  0  0  0
  146.0856  141.8946  155.3722 C   0  0  0  0  0  0  0  0  0  0  0  0
  152.3244  143.9944  161.5792 C   0  0  0  0  0  0  0  0  0  0  0  0
  153.0526  142.7566  162.5655 S   0  0  0  0  0  0  0  0  0  0  0  0
  155.9260  139.6024  160.1673 H   0  0  0  0  0  0  0  0  0  0  0  0
  156.1601  141.3325  160.4069 H   0  0  0  0  0  0  0  0  0  0  0  0
  155.1075  140.7548  159.1152 H   0  0  0  0  0  0  0  0  0  0  0  0
  153.5249  139.8100  160.8354 H   0  0  0  0  0  0  0  0  0  0  0  0
  154.5683  140.3797  162.1184 H   0  0  0  0  0  0  0  0  0  0  0  0
  150.8521  144.6682  159.1896 H   0  0  0  0  0  0  0  0  0  0  0  0
  152.3505  145.5545  159.1590 H   0  0  0  0  0  0  0  0  0  0  0  0
  152.8795  144.6246  157.1569 H   0  0  0  0  0  0  0  0  0  0  0  0
  152.8533  143.0198  157.8773 H   0  0  0  0  0  0  0  0  0  0  0  0
  150.5913  144.3984  156.5479 H   0  0  0  0  0  0  0  0  0  0  0  0
  149.0322  143.2981  155.7409 H   0  0  0  0  0  0  0  0  0  0  0  0
  148.0712  140.8757  156.7244 H   0  0  0  0  0  0  0  0  0  0  0  0
  150.4627  140.2956  155.2325 H   0  0  0  0  0  0  0  0  0  0  0  0
  149.2110  139.1844  155.7534 H   0  0  0  0  0  0  0  0  0  0  0  0
  149.4690  140.5807  153.0934 H   0  0  0  0  0  0  0  0  0  0  0  0
  149.0064  138.9073  153.3982 H   0  0  0  0  0  0  0  0  0  0  0  0
  147.0614  140.6541  152.8124 H   0  0  0  0  0  0  0  0  0  0  0  0
  146.8198  139.5883  154.1957 H   0  0  0  0  0  0  0  0  0  0  0  0
  147.7832  142.4490  154.1878 H   0  0  0  0  0  0  0  0  0  0  0  0
  145.7002  141.0500  155.9443 H   0  0  0  0  0  0  0  0  0  0  0  0
  145.3583  142.1307  154.5950 H   0  0  0  0  0  0  0  0  0  0  0  0
  146.1452  142.7521  156.0433 H   0  0  0  0  0  0  0  0  0  0  0  0
  151.8466  144.8440  162.0442 H   0  0  0  0  0  0  0  0  0  0  0  0
  1  2  1  0  0  0  0
  1 20  1  0  0  0  0
  1 21  1  0  0  0  0
  1 22  1  0  0  0  0
  2  3  1  0  0  0  0
  2 23  1  0  0  0  0
  2 24  1  0  0  0  0
  3 19  1  0  0  0  0
  3  4  2  0  0  0  0
  4  5  1  0  0  0  0
  5  6  1  0  0  0  0
  5 18  2  0  0  0  0
  6  7  1  0  0  0  0
  6 25  1  0  0  0  0
  6 26  1  0  0  0  0
  7  8  1  0  0  0  0
  7 27  1  0  0  0  0
  7 28  1  0  0  0  0
  8  9  1  0  0  0  0
  8 29  1  0  0  0  0
  9 10  2  0  0  0  0
  9 11  1  0  0  0  0
 11 12  1  0  0  0  0
 11 30  1  0  0  0  0
 12 16  1  0  0  0  0
 12 13  1  0  0  0  0
 12 31  1  0  0  0  0
 13 14  1  0  0  0  0
 13 32  1  0  0  0  0
 13 33  1  0  0  0  0
 14 15  1  0  0  0  0
 14 34  1  0  0  0  0
 14 35  1  0  0  0  0
 15 16  1  0  0  0  0
 15 36  1  0  0  0  0
 15 37  1  0  0  0  0
 16 17  1  0  0  0  0
 16 38  1  0  0  0  0
 17 39  1  0  0  0  0
 17 40  1  0  0  0  0
 17 41  1  0  0  0  0
 18 19  1  0  0  0  0
 18 42  1  0  0  0  0
M  END
> <s_m_source_file>
AV-unprocessed.smi

> <i_m_source_file_index>
933

> <i_lp_mmshare_version>
43012

> <i_f3d_flags>
0

> <s_epik_input>
W0NIM11bQ0gyXWMxbmMoW2NIXXMxKVtDSDJdW0NIMl1bTkhdQyg9TylbTkhdW0NAQEhdMltDSDJdW0NIMl1bQ0gyXVtDQEhdMltDSDNd

> <s_epik_cmdline>
J2VwaWtfcHl0aG9uJywgJy1waCcsICc3LjAnLCAnLXRuJywgJzgnLCAnLW1hJywgJzIwMCcsICctbWV0YWxfYmluZGluZycsICctaW1hZScsICc8aW5maWxlLm1hZT4nLCAnLW9tYWUnLCAnPG91dGZpbGUubWFlPic=

> <r_epik_Ionization_Penalty>
0.00203408

> <r_epik_Ionization_Penalty_Charging>
0

> <r_epik_Ionization_Penalty_Neutral>
0.00203408

> <r_epik_State_Penalty>
0.0013452

> <r_epik_Charging_Adjusted_Penalty>
0.0013452

> <i_epik_Tot_Q>
0

> <i_epik_Tot_abs_Q>
0

> <r_epik_Metal_State_Penalty>
-0

> <b_epik_Metal_Only>
0

> <s_lp_Force_Field>
OPLS_2005

> <r_lp_Energy>
18.2024

> <b_lp_Chiralities_Consistent>
1

> <s_lp_Variant>
AV-unprocessed.smi:933-1

> <Gold.Version>
5.8.1

> <Gold.Id.Protein>
6NUR|6NUR_protein|mol2

> <Gold.PLP.Fitness>
47.8067

> <Gold.PLP.PLP>
-43.7053

> <Gold.PLP.part.hbond>
-1.8558

> <Gold.PLP.part.metal>
0.0000

> <Gold.PLP.part.buried>
-1.2850

> <Gold.PLP.part.nonpolar>
-41.7201

> <Gold.PLP.part.repulsive>
0.1583

> <Gold.PLP.ligand.clash>
0.0000

> <Gold.PLP.ligand.torsion>
0.6816

> <Gold.PLP.Chemscore.Hbond>
1.8073

> <Gold.PLP.Chemscore.CHOScore>
0.0000

> <Gold.PLP.Chemscore.Metal>
0.0000

> <Gold.Chemscore.Hbonds>
donor molecule, donor type, donor heavy atom, donor atom, acceptor molecule, acceptor atom, score
      L1  H     8    29       P1  8028  0.77
      L1  H    11    30       P1  8028  0.75

> <Gold.PLP.Chemscore.Internal.Correction>
0.0427

> <Gold.Rescore>
     Score         DG    S(hbond)    S(metal)    S(lipo)     H(rot)  DE(clash)    DE(int)     intcor
     20.16     -22.62       1.89        0.00     126.42       1.55       1.90       0.56       ----

> <Gold.Chemscore.Fitness>
20.1610

> <Gold.Chemscore.DG>
-22.6180

> <Gold.Chemscore.ZeroCoef>
-5.4800

> <Gold.Chemscore.Hbond>
1.8894

> <Gold.Chemscore.Metal>
0.0000

> <Gold.Chemscore.Lipo>
126.4169

> <Gold.Chemscore.Internal_Hbond>
0.0000

> <Gold.Chemscore.DEClash>
1.8961

> <Gold.Chemscore.DEInternal>
0.5609

> <Gold.Chemscore.Rot>
1.5482

> <Gold.Chemscore.Internal.Correction>
   9.000000E+99

> <Gold.Chemscore.Hbonds>
donor molecule, donor type, donor heavy atom, donor atom, acceptor molecule, acceptor atom, score
      L1  H     8    29       P1  8028  0.75
      L1  H    11    30       P1  8028  0.74

> <Gold.Chemscore.Hbond.Weighted>
-6.3107

> <Gold.Chemscore.Metal.Weighted>
-0.0000

> <Gold.Chemscore.Lipo.Weighted>
-14.7908

> <Gold.Chemscore.Internal_Hbond.Weighted>
0.0000

> <Gold.Chemscore.DEClash.Weighted>
1.8961

> <Gold.Chemscore.DEInternal.Weighted>
0.5609

> <Gold.Chemscore.Rot.Weighted>
3.9635

> <Gold.Chemscore.Internal.Correction.Weighted>
   9.000000E+99

> <Gold.Protein.RotatedTorsions>
[ 6907 6896 6895 6894 ] final -159.51 input  -60.11 | X-H torsion
[ 7974 7965 7964 7962 ] final  -80.41 input  175.53 | X-H torsion
[ 8008 7997 7996 7995 ] final -144.32 input   59.86 | X-H torsion
[ 10167 10162 10161 10158 ] final  141.65 input  -65.29 | X-H torsion
[ 10718 10713 10712 10709 ] final  -58.40 input   66.30 | X-H torsion
[ 10763 10752 10751 10750 ] final   72.75 input  -60.55 | X-H torsion
[ 11005 11000 10999 10996 ] final   93.71 input  -57.11 | X-H torsion

> <Gold.Protein.ActiveResidues>
 VAL166  LYS551  ARG553  GLY616  TRP617  ASP618  TYR619  PRO620  LYS621  CYS622 
 ASP623  PHE694  ASN695  SER759  ASP760  ASP761  ALA762  ILE779  LEU786  VAL792 
 PHE793  MET794  SER795  GLU796  ALA797  LYS798  CYS799  TRP800  GLU811  SER814 

> <Gold.Protein.RotatedAtoms>
  151.3347  133.3986  159.2665 H   0  0  0  0  0  0  0  0  0  0  0  0  # atno 6907 bound_to 6896
  150.9927  134.9259  159.7919 H   0  0  0  0  0  0  0  0  0  0  0  0  # atno 6908 bound_to 6896
  152.5252  134.3312  159.9236 H   0  0  0  0  0  0  0  0  0  0  0  0  # atno 6909 bound_to 6896
  145.5603  140.9483  143.1451 H   0  0  0  0  0  0  0  0  0  0  0  0  # atno 7974 bound_to 7965
  155.5250  140.0595  157.2899 H   0  0  0  0  0  0  0  0  0  0  0  0  # atno 8008 bound_to 7997
  154.4504  140.1946  156.0482 H   0  0  0  0  0  0  0  0  0  0  0  0  # atno 8009 bound_to 7997
  156.0692  140.3262  155.7559 H   0  0  0  0  0  0  0  0  0  0  0  0  # atno 8010 bound_to 7997
  139.5015  144.6158  151.6167 H   0  0  0  0  0  0  0  0  0  0  0  0  # atno 10167 bound_to 10162
  156.1138  130.4172  150.0572 H   0  0  0  0  0  0  0  0  0  0  0  0  # atno 10718 bound_to 10713
  153.0478  135.5088  154.7791 H   0  0  0  0  0  0  0  0  0  0  0  0  # atno 10763 bound_to 10752
  154.6677  135.2948  154.9785 H   0  0  0  0  0  0  0  0  0  0  0  0  # atno 10764 bound_to 10752
  154.0614  135.6690  153.4865 H   0  0  0  0  0  0  0  0  0  0  0  0  # atno 10765 bound_to 10752
  139.8807  134.8805  156.3757 H   0  0  0  0  0  0  0  0  0  0  0  0  # atno 11005 bound_to 11000
  144.7486  139.7254  143.7282 LP  0  0  0  0  0  0  0  0  0  0  0  0  # atno 17320 bound_to 7965
  146.1855  139.5069  142.9839 LP  0  0  0  0  0  0  0  0  0  0  0  0  # atno 17321 bound_to 7965
  140.5845  143.9887  150.6288 LP  0  0  0  0  0  0  0  0  0  0  0  0  # atno 17342 bound_to 10162
  140.3047  143.3237  152.0937 LP  0  0  0  0  0  0  0  0  0  0  0  0  # atno 17343 bound_to 10162
  156.8528  130.9465  151.3624 LP  0  0  0  0  0  0  0  0  0  0  0  0  # atno 17370 bound_to 10713
  157.6320  130.8737  149.9292 LP  0  0  0  0  0  0  0  0  0  0  0  0  # atno 17371 bound_to 10713
  140.9433  133.7499  156.0175 LP  0  0  0  0  0  0  0  0  0  0  0  0  # atno 17394 bound_to 11000
  140.8193  134.3308  157.5387 LP  0  0  0  0  0  0  0  0  0  0  0  0  # atno 17395 bound_to 11000

$$$$
