AV-unprocessed.smi:294|AV-procd|sdf|2252|dock2
  -GOLD-   2262022133D 1   1.00000     0.00000
 Structure written by MMmdl.
 29 30  0  0  0  0  0  0  0  0  1 V2000
  150.5044  129.4106  156.3790 N   0  0  0  0  0  0  0  0  0  0  0  0
  149.8085  130.1413  155.8126 C   0  0  0  0  0  0  0  0  0  0  0  0
  148.9353  131.0588  155.1011 C   0  0  0  0  0  0  0  0  0  0  0  0
  147.9757  130.6083  154.2415 N   0  0  0  0  0  0  0  0  0  0  0  0
  147.4657  131.7765  153.8712 C   0  0  0  0  0  0  0  0  0  0  0  0
  148.0550  132.8321  154.4430 N   0  0  0  0  0  0  0  0  0  0  0  0
  147.7795  134.2503  154.3114 C   0  0  0  0  0  0  0  0  0  0  0  0
  148.6879  135.0646  155.2321 C   0  0  0  0  0  0  0  0  0  0  0  0
  148.7114  134.8273  156.4395 O   0  0  0  0  0  0  0  0  0  0  0  0
  149.4404  136.0089  154.6470 N   0  0  0  0  0  0  0  0  0  0  0  0
  150.4033  136.8596  155.3380 C   0  0  2  0  0  0  0  0  0  0  0  0
  149.7344  137.6448  156.4811 C   0  0  0  0  0  0  0  0  0  0  0  0
  150.6810  138.7671  156.9251 C   0  0  0  0  0  0  0  0  0  0  0  0
  151.6253  139.2563  155.4314 S   0  0  0  0  0  0  0  0  0  0  0  0
  151.0907  140.5198  154.9016 O   0  0  0  0  0  0  0  0  0  0  0  0
  153.0619  139.0958  155.7020 O   0  0  0  0  0  0  0  0  0  0  0  0
  151.0454  137.8739  154.3787 C   0  0  0  0  0  0  0  0  0  0  0  0
  149.0333  132.3768  155.2637 N   0  0  0  0  0  0  0  0  0  0  0  0
  146.6448  131.8657  153.1746 H   0  0  0  0  0  0  0  0  0  0  0  0
  147.9131  134.5521  153.2709 H   0  0  0  0  0  0  0  0  0  0  0  0
  146.7350  134.4318  154.5677 H   0  0  0  0  0  0  0  0  0  0  0  0
  149.3569  136.1305  153.6478 H   0  0  0  0  0  0  0  0  0  0  0  0
  151.1924  136.2450  155.7759 H   0  0  0  0  0  0  0  0  0  0  0  0
  148.8099  138.0944  156.1156 H   0  0  0  0  0  0  0  0  0  0  0  0
  149.4645  136.9965  157.3155 H   0  0  0  0  0  0  0  0  0  0  0  0
  150.1572  139.6282  157.3403 H   0  0  0  0  0  0  0  0  0  0  0  0
  151.3924  138.4019  157.6665 H   0  0  0  0  0  0  0  0  0  0  0  0
  151.8777  137.4572  153.8112 H   0  0  0  0  0  0  0  0  0  0  0  0
  150.3124  138.2752  153.6778 H   0  0  0  0  0  0  0  0  0  0  0  0
  1  2  3  0  0  0  0
  2  3  1  0  0  0  0
  3 18  2  0  0  0  0
  3  4  1  0  0  0  0
  4  5  2  0  0  0  0
  5  6  1  0  0  0  0
  5 19  1  0  0  0  0
  6  7  1  0  0  0  0
  6 18  1  0  0  0  0
  7  8  1  0  0  0  0
  7 20  1  0  0  0  0
  7 21  1  0  0  0  0
  8  9  2  0  0  0  0
  8 10  1  0  0  0  0
 10 11  1  0  0  0  0
 10 22  1  0  0  0  0
 11 17  1  0  0  0  0
 11 12  1  0  0  0  0
 11 23  1  0  0  0  0
 12 13  1  0  0  0  0
 12 24  1  0  0  0  0
 12 25  1  0  0  0  0
 13 14  1  0  0  0  0
 13 26  1  0  0  0  0
 13 27  1  0  0  0  0
 14 15  2  0  0  0  0
 14 16  2  0  0  0  0
 14 17  1  0  0  0  0
 17 28  1  0  0  0  0
 17 29  1  0  0  0  0
M  END
> <s_m_source_file>
AV-unprocessed.smi

> <i_m_source_file_index>
294

> <i_lp_mmshare_version>
43012

> <i_f3d_flags>
0

> <s_epik_input>
TiNDYzFuW2NIXW4objEpW0NIMl1DKD1PKVtOSF1bQ0BASF0oW0NIMl0yKVtDSDJdW0NIMl1TMig9Tyk9Tw==

> <s_epik_cmdline>
J2VwaWtfcHl0aG9uJywgJy1waCcsICc3LjAnLCAnLXRuJywgJzgnLCAnLW1hJywgJzIwMCcsICctbWV0YWxfYmluZGluZycsICctaW1hZScsICc8aW5maWxlLm1hZT4nLCAnLW9tYWUnLCAnPG91dGZpbGUubWFlPic=

> <r_lp_tautomer_probability>
1

> <r_epik_Ionization_Penalty>
6.08231e-07

> <r_epik_Ionization_Penalty_Charging>
0

> <r_epik_Ionization_Penalty_Neutral>
6.08231e-07

> <r_epik_State_Penalty>
-0

> <r_epik_Charging_Adjusted_Penalty>
0

> <i_epik_Tot_Q>
0

> <i_epik_Tot_abs_Q>
0

> <r_epik_Metal_State_Penalty>
-0

> <b_epik_Metal_Only>
0

> <s_lp_Force_Field>
OPLS_2005

> <r_lp_Energy>
6.42809

> <b_lp_Chiralities_Consistent>
1

> <s_lp_Variant>
AV-unprocessed.smi:294-1

> <Gold.Version>
5.8.1

> <Gold.Id.Protein>
6NUR|6NUR_protein|mol2

> <Gold.PLP.Fitness>
36.5354

> <Gold.PLP.PLP>
-27.5914

> <Gold.PLP.part.hbond>
-3.3614

> <Gold.PLP.part.metal>
0.0000

> <Gold.PLP.part.buried>
-3.5080

> <Gold.PLP.part.nonpolar>
-19.9211

> <Gold.PLP.part.repulsive>
0.3145

> <Gold.PLP.ligand.clash>
0.0000

> <Gold.PLP.ligand.torsion>
0.0308

> <Gold.PLP.Chemscore.Hbond>
3.0000

> <Gold.PLP.Chemscore.CHOScore>
0.0000

> <Gold.PLP.Chemscore.Metal>
0.0000

> <Gold.Chemscore.Hbonds>
donor molecule, donor type, donor heavy atom, donor atom, acceptor molecule, acceptor atom, score
      L1  H    10    22       P1  7948  1.00
      P1  H  7989  7998       L1    15  1.00
      P1  H  7997  8008       L1    16  1.00

> <Gold.PLP.Chemscore.Internal.Correction>
0.0056

> <Gold.Rescore>
     Score         DG    S(hbond)    S(metal)    S(lipo)     H(rot)  DE(clash)    DE(int)     intcor
     10.73     -12.14       2.84        0.00      23.06       2.15       0.03       1.37       ----

> <Gold.Chemscore.Fitness>
10.7315

> <Gold.Chemscore.DG>
-12.1357

> <Gold.Chemscore.ZeroCoef>
-5.4800

> <Gold.Chemscore.Hbond>
2.8365

> <Gold.Chemscore.Metal>
0.0000

> <Gold.Chemscore.Lipo>
23.0572

> <Gold.Chemscore.Internal_Hbond>
0.0000

> <Gold.Chemscore.DEClash>
0.0310

> <Gold.Chemscore.DEInternal>
1.3733

> <Gold.Chemscore.Rot>
2.1546

> <Gold.Chemscore.Internal.Correction>
   9.000000E+99

> <Gold.Chemscore.Hbonds>
donor molecule, donor type, donor heavy atom, donor atom, acceptor molecule, acceptor atom, score
      L1  H    10    22       P1  7948  0.74
      P1  H  7989  7998       L1    15  0.79
      P1  H  7997  8008       L1    16  1.00

> <Gold.Chemscore.Hbond.Weighted>
-9.4738

> <Gold.Chemscore.Metal.Weighted>
-0.0000

> <Gold.Chemscore.Lipo.Weighted>
-2.6977

> <Gold.Chemscore.Internal_Hbond.Weighted>
0.0000

> <Gold.Chemscore.DEClash.Weighted>
0.0310

> <Gold.Chemscore.DEInternal.Weighted>
1.3733

> <Gold.Chemscore.Rot.Weighted>
5.5158

> <Gold.Chemscore.Internal.Correction.Weighted>
   9.000000E+99

> <Gold.Protein.RotatedTorsions>
[ 6907 6896 6895 6894 ] final   15.59 input  -60.11 | X-H torsion
[ 7974 7965 7964 7962 ] final  -78.31 input  175.53 | X-H torsion
[ 8008 7997 7996 7995 ] final  -33.72 input   59.86 | X-H torsion
[ 10167 10162 10161 10158 ] final   23.28 input  -65.29 | X-H torsion
[ 10718 10713 10712 10709 ] final -150.23 input   66.30 | X-H torsion
[ 10763 10752 10751 10750 ] final   34.93 input  -60.55 | X-H torsion
[ 11005 11000 10999 10996 ] final  -87.76 input  -57.11 | X-H torsion

> <Gold.Protein.ActiveResidues>
 VAL166  LYS551  ARG553  GLY616  TRP617  ASP618  TYR619  PRO620  LYS621  CYS622 
 ASP623  PHE694  ASN695  SER759  ASP760  ASP761  ALA762  ILE779  LEU786  VAL792 
 PHE793  MET794  SER795  GLU796  ALA797  LYS798  CYS799  TRP800  GLU811  SER814 

> <Gold.Protein.RotatedAtoms>
  151.8205  135.0653  160.0424 H   0  0  0  0  0  0  0  0  0  0  0  0  # atno 6907 bound_to 6896
  152.2954  133.5598  159.5593 H   0  0  0  0  0  0  0  0  0  0  0  0  # atno 6908 bound_to 6896
  150.7249  134.0284  159.3767 H   0  0  0  0  0  0  0  0  0  0  0  0  # atno 6909 bound_to 6896
  145.5882  140.9435  143.1307 H   0  0  0  0  0  0  0  0  0  0  0  0  # atno 7974 bound_to 7965
  154.4141  140.1703  156.1933 H   0  0  0  0  0  0  0  0  0  0  0  0  # atno 8008 bound_to 7997
  155.9585  140.3395  155.6446 H   0  0  0  0  0  0  0  0  0  0  0  0  # atno 8009 bound_to 7997
  155.6779  140.0719  157.2486 H   0  0  0  0  0  0  0  0  0  0  0  0  # atno 8010 bound_to 7997
  140.5281  143.9888  150.6451 H   0  0  0  0  0  0  0  0  0  0  0  0  # atno 10167 bound_to 10162
  156.4435  130.8133  151.2363 H   0  0  0  0  0  0  0  0  0  0  0  0  # atno 10718 bound_to 10713
  153.0142  135.6347  154.1746 H   0  0  0  0  0  0  0  0  0  0  0  0  # atno 10763 bound_to 10752
  154.1486  135.2830  155.3143 H   0  0  0  0  0  0  0  0  0  0  0  0  # atno 10764 bound_to 10752
  154.6071  135.5568  153.7495 H   0  0  0  0  0  0  0  0  0  0  0  0  # atno 10765 bound_to 10752
  141.1612  133.7530  156.9353 H   0  0  0  0  0  0  0  0  0  0  0  0  # atno 11005 bound_to 11000
  144.7363  139.7576  143.7328 LP  0  0  0  0  0  0  0  0  0  0  0  0  # atno 17320 bound_to 7965
  146.1667  139.4801  142.9954 LP  0  0  0  0  0  0  0  0  0  0  0  0  # atno 17321 bound_to 7965
  140.3255  143.3110  152.0740 LP  0  0  0  0  0  0  0  0  0  0  0  0  # atno 17342 bound_to 10162
  139.4945  144.6544  151.6604 LP  0  0  0  0  0  0  0  0  0  0  0  0  # atno 17343 bound_to 10162
  157.7505  131.0161  150.3530 LP  0  0  0  0  0  0  0  0  0  0  0  0  # atno 17370 bound_to 10713
  156.3892  130.3895  149.7042 LP  0  0  0  0  0  0  0  0  0  0  0  0  # atno 17371 bound_to 10713
  140.1358  134.9326  157.2400 LP  0  0  0  0  0  0  0  0  0  0  0  0  # atno 17394 bound_to 11000
  140.2897  134.3255  155.7319 LP  0  0  0  0  0  0  0  0  0  0  0  0  # atno 17395 bound_to 11000

$$$$
