AV-unprocessed.smi:311|AV-procd|sdf|2302|dock6
  -GOLD-   2262022203D 1   1.00000     0.00000
 Structure written by MMmdl.
 44 46  0  0  0  0  0  0  0  0  2 V2000
  149.7084  138.7833  154.1045 C   0  0  0  0  0  0  0  0  0  0  0  0
  150.3633  137.6563  154.8499 C   0  0  0  0  0  0  0  0  0  0  0  0
  151.6527  137.7232  155.1360 N   0  0  0  0  0  0  0  0  0  0  0  0
  151.9555  136.5404  155.8175 O   0  0  0  0  0  0  0  0  0  0  0  0
  150.8224  135.7998  155.9170 C   0  0  0  0  0  0  0  0  0  0  0  0
  150.9418  134.4872  156.6142 C   0  0  0  0  0  0  0  0  0  0  0  0
  149.7734  136.4513  155.3285 C   0  0  0  0  0  0  0  0  0  0  0  0
  148.3354  136.0095  155.2083 C   0  0  0  0  0  0  0  0  0  0  0  0
  148.2229  134.5400  154.7837 C   0  0  0  0  0  0  0  0  0  0  0  0
  147.8719  133.6674  155.5795 O   0  0  0  0  0  0  0  0  0  0  0  0
  148.5242  134.2795  153.5032 N   0  0  0  0  0  0  0  0  0  0  0  0
  148.4916  132.9544  152.8935 C   0  0  1  0  0  0  0  0  0  0  0  0
  148.9375  131.8165  153.8329 C   0  0  0  0  0  0  0  0  0  0  0  0
  148.0082  130.6297  153.5076 C   0  0  0  0  0  0  0  0  0  0  0  0
  147.1756  131.0840  152.3773 N   0  3  1  0  0  0  0  0  0  0  0  0
  145.8617  130.4285  152.1982 C   0  0  0  0  0  0  0  0  0  0  0  0
  145.1871  130.9822  150.9264 C   0  0  0  0  0  0  0  0  0  0  0  0
  145.1123  132.5233  150.9404 C   0  0  0  0  0  0  0  0  0  0  0  0
  146.4934  133.1454  151.2244 C   0  0  0  0  0  0  0  0  0  0  0  0
  147.0694  132.5441  152.5163 C   0  0  2  0  0  0  0  0  0  0  0  0
  149.0293  138.4037  153.3410 H   0  0  0  0  0  0  0  0  0  0  0  0
  150.4421  139.4178  153.6056 H   0  0  0  0  0  0  0  0  0  0  0  0
  149.1297  139.4122  154.7810 H   0  0  0  0  0  0  0  0  0  0  0  0
  150.1629  133.7989  156.2855 H   0  0  0  0  0  0  0  0  0  0  0  0
  150.8497  134.6141  157.6928 H   0  0  0  0  0  0  0  0  0  0  0  0
  151.9067  134.0237  156.4082 H   0  0  0  0  0  0  0  0  0  0  0  0
  147.8073  136.1336  156.1544 H   0  0  0  0  0  0  0  0  0  0  0  0
  147.8022  136.6245  154.4821 H   0  0  0  0  0  0  0  0  0  0  0  0
  148.8022  135.0515  152.9143 H   0  0  0  0  0  0  0  0  0  0  0  0
  149.1141  132.9454  151.9961 H   0  0  0  0  0  0  0  0  0  0  0  0
  149.9871  131.5664  153.6741 H   0  0  0  0  0  0  0  0  0  0  0  0
  148.8233  132.0973  154.8811 H   0  0  0  0  0  0  0  0  0  0  0  0
  148.5612  129.7285  153.2415 H   0  0  0  0  0  0  0  0  0  0  0  0
  147.3796  130.3998  154.3694 H   0  0  0  0  0  0  0  0  0  0  0  0
  145.9987  129.3499  152.1128 H   0  0  0  0  0  0  0  0  0  0  0  0
  145.2342  130.6069  153.0728 H   0  0  0  0  0  0  0  0  0  0  0  0
  145.7510  130.6593  150.0502 H   0  0  0  0  0  0  0  0  0  0  0  0
  144.1871  130.5606  150.8194 H   0  0  0  0  0  0  0  0  0  0  0  0
  144.7241  132.8892  149.9893 H   0  0  0  0  0  0  0  0  0  0  0  0
  144.4054  132.8445  151.7064 H   0  0  0  0  0  0  0  0  0  0  0  0
  147.1660  132.9540  150.3871 H   0  0  0  0  0  0  0  0  0  0  0  0
  146.4061  134.2286  151.3159 H   0  0  0  0  0  0  0  0  0  0  0  0
  146.3989  132.7647  153.3506 H   0  0  0  0  0  0  0  0  0  0  0  0
  147.7135  130.9151  151.5392 H   0  0  0  0  0  0  0  0  0  0  0  0
  1  2  1  0  0  0  0
  1 21  1  0  0  0  0
  1 22  1  0  0  0  0
  1 23  1  0  0  0  0
  2  7  1  0  0  0  0
  2  3  2  0  0  0  0
  3  4  1  0  0  0  0
  4  5  1  0  0  0  0
  5  6  1  0  0  0  0
  5  7  2  0  0  0  0
  6 24  1  0  0  0  0
  6 25  1  0  0  0  0
  6 26  1  0  0  0  0
  7  8  1  0  0  0  0
  8  9  1  0  0  0  0
  8 27  1  0  0  0  0
  8 28  1  0  0  0  0
  9 10  2  0  0  0  0
  9 11  1  0  0  0  0
 11 12  1  0  0  0  0
 11 29  1  0  0  0  0
 12 20  1  0  0  0  0
 12 13  1  0  0  0  0
 12 30  1  0  0  0  0
 13 14  1  0  0  0  0
 13 31  1  0  0  0  0
 13 32  1  0  0  0  0
 14 15  1  0  0  0  0
 14 33  1  0  0  0  0
 14 34  1  0  0  0  0
 15 20  1  0  0  0  0
 15 16  1  0  0  0  0
 15 44  1  0  0  0  0
 16 17  1  0  0  0  0
 16 35  1  0  0  0  0
 16 36  1  0  0  0  0
 17 18  1  0  0  0  0
 17 37  1  0  0  0  0
 17 38  1  0  0  0  0
 18 19  1  0  0  0  0
 18 39  1  0  0  0  0
 18 40  1  0  0  0  0
 19 20  1  0  0  0  0
 19 41  1  0  0  0  0
 19 42  1  0  0  0  0
 20 43  1  0  0  0  0
M  CHG  1  15   1
M  END
> <s_m_source_file>
AV-unprocessed.smi

> <i_m_source_file_index>
311

> <i_lp_mmshare_version>
43012

> <i_f3d_flags>
0

> <s_epik_input>
W0NIM11jMW5vYyhbQ0gzXSljMVtDSDJdQyg9TylbTkhdW0NASF0oW0NIMl1bQ0gyXTIpW0NAQEhdKE4yMylbQ0gyXVtDSDJdW0NIMl1bQ0gyXTM=

> <s_epik_cmdline>
J2VwaWtfcHl0aG9uJywgJy1waCcsICc3LjAnLCAnLXRuJywgJzgnLCAnLW1hJywgJzIwMCcsICctbWV0YWxfYmluZGluZycsICctaW1hZScsICc8aW5maWxlLm1hZT4nLCAnLW9tYWUnLCAnPG91dGZpbGUubWFlPic=

> <r_epik_Ionization_Penalty>
0.00173669

> <r_epik_Ionization_Penalty_Charging>
0.0017366

> <r_epik_Ionization_Penalty_Neutral>
9.2145e-08

> <r_epik_State_Penalty>
0.00117499

> <r_epik_Charging_Adjusted_Penalty>
0.00291159

> <i_epik_Tot_Q>
1

> <i_epik_Tot_abs_Q>
1

> <r_epik_Metal_State_Penalty>
-0

> <b_epik_Metal_Only>
0

> <s_lp_Force_Field>
OPLS_2005

> <r_lp_Energy>
29.9852

> <b_lp_Chiralities_Consistent>
1

> <s_lp_Variant>
AV-unprocessed.smi:311-6

> <Gold.Version>
5.8.1

> <Gold.Id.Protein>
6NUR|6NUR_protein|mol2

> <Gold.PLP.Fitness>
41.0274

> <Gold.PLP.PLP>
-33.3190

> <Gold.PLP.part.hbond>
-3.0732

> <Gold.PLP.part.metal>
0.0000

> <Gold.PLP.part.buried>
-3.4096

> <Gold.PLP.part.nonpolar>
-26.4441

> <Gold.PLP.part.repulsive>
0.1337

> <Gold.PLP.ligand.clash>
0.0000

> <Gold.PLP.ligand.torsion>
0.6523

> <Gold.PLP.Chemscore.Hbond>
3.0000

> <Gold.PLP.Chemscore.CHOScore>
0.0000

> <Gold.PLP.Chemscore.Metal>
0.0000

> <Gold.Chemscore.Hbonds>
donor molecule, donor type, donor heavy atom, donor atom, acceptor molecule, acceptor atom, score
      L1  H    11    29       P1  7948  1.00
      L1  H    15    44       P1 10747  1.00
      P1  H 10752 10764       L1     4  1.00

> <Gold.PLP.Chemscore.Internal.Correction>
0.0130

> <Gold.Rescore>
     Score         DG    S(hbond)    S(metal)    S(lipo)     H(rot)  DE(clash)    DE(int)     intcor
     17.75     -20.34       2.50        0.00      85.22       1.36       0.04       2.54       ----

> <Gold.Chemscore.Fitness>
17.7545

> <Gold.Chemscore.DG>
-20.3375

> <Gold.Chemscore.ZeroCoef>
-5.4800

> <Gold.Chemscore.Hbond>
2.5029

> <Gold.Chemscore.Metal>
0.0000

> <Gold.Chemscore.Lipo>
85.2225

> <Gold.Chemscore.Internal_Hbond>
0.0000

> <Gold.Chemscore.DEClash>
0.0428

> <Gold.Chemscore.DEInternal>
2.5403

> <Gold.Chemscore.Rot>
1.3567

> <Gold.Chemscore.Internal.Correction>
   9.000000E+99

> <Gold.Chemscore.Hbonds>
donor molecule, donor type, donor heavy atom, donor atom, acceptor molecule, acceptor atom, score
      L1  H    11    29       P1  7948  0.29
      L1  H    15    44       P1 10747  1.00
      P1  H 10752 10764       L1     4  0.44

> <Gold.Chemscore.Hbond.Weighted>
-8.3595

> <Gold.Chemscore.Metal.Weighted>
-0.0000

> <Gold.Chemscore.Lipo.Weighted>
-9.9710

> <Gold.Chemscore.Internal_Hbond.Weighted>
0.0000

> <Gold.Chemscore.DEClash.Weighted>
0.0428

> <Gold.Chemscore.DEInternal.Weighted>
2.5403

> <Gold.Chemscore.Rot.Weighted>
3.4731

> <Gold.Chemscore.Internal.Correction.Weighted>
   9.000000E+99

> <Gold.Protein.RotatedTorsions>
[ 6907 6896 6895 6894 ] final  -97.02 input  -60.11 | X-H torsion
[ 7974 7965 7964 7962 ] final  105.01 input  175.53 | X-H torsion
[ 8008 7997 7996 7995 ] final  -61.33 input   59.86 | X-H torsion
[ 10167 10162 10161 10158 ] final    8.74 input  -65.29 | X-H torsion
[ 10718 10713 10712 10709 ] final   92.12 input   66.30 | X-H torsion
[ 10763 10752 10751 10750 ] final  -33.60 input  -60.55 | X-H torsion
[ 11005 11000 10999 10996 ] final   12.21 input  -57.11 | X-H torsion

> <Gold.Protein.ActiveResidues>
 VAL166  LYS551  ARG553  GLY616  TRP617  ASP618  TYR619  PRO620  LYS621  CYS622 
 ASP623  PHE694  ASN695  SER759  ASP760  ASP761  ALA762  ILE779  LEU786  VAL792 
 PHE793  MET794  SER795  GLU796  ALA797  LYS798  CYS799  TRP800  GLU811  SER814 

> <Gold.Protein.RotatedAtoms>
  150.7004  134.1413  159.4105 H   0  0  0  0  0  0  0  0  0  0  0  0  # atno 6907 bound_to 6896
  151.9397  135.0217  160.0544 H   0  0  0  0  0  0  0  0  0  0  0  0  # atno 6908 bound_to 6896
  152.2104  133.4872  159.5144 H   0  0  0  0  0  0  0  0  0  0  0  0  # atno 6909 bound_to 6896
  145.3252  139.2501  143.3690 H   0  0  0  0  0  0  0  0  0  0  0  0  # atno 7974 bound_to 7965
  154.4443  140.1020  156.6414 H   0  0  0  0  0  0  0  0  0  0  0  0  # atno 8008 bound_to 7997
  155.5497  140.3485  155.4447 H   0  0  0  0  0  0  0  0  0  0  0  0  # atno 8009 bound_to 7997
  156.0538  140.1310  157.0009 H   0  0  0  0  0  0  0  0  0  0  0  0  # atno 8010 bound_to 7997
  140.6296  143.8023  150.7278 H   0  0  0  0  0  0  0  0  0  0  0  0  # atno 10167 bound_to 10162
  157.6959  131.0432  150.3834 H   0  0  0  0  0  0  0  0  0  0  0  0  # atno 10718 bound_to 10713
  153.8329  135.6864  153.4812 H   0  0  0  0  0  0  0  0  0  0  0  0  # atno 10763 bound_to 10752
  153.1500  135.4622  154.9620 H   0  0  0  0  0  0  0  0  0  0  0  0  # atno 10764 bound_to 10752
  154.7879  135.3291  154.7790 H   0  0  0  0  0  0  0  0  0  0  0  0  # atno 10765 bound_to 10752
  140.4946  134.0806  155.7779 H   0  0  0  0  0  0  0  0  0  0  0  0  # atno 11005 bound_to 11000
  146.3067  140.3818  142.8685 LP  0  0  0  0  0  0  0  0  0  0  0  0  # atno 17320 bound_to 7965
  144.8907  140.7520  143.5928 LP  0  0  0  0  0  0  0  0  0  0  0  0  # atno 17321 bound_to 7965
  140.1631  143.4258  152.2053 LP  0  0  0  0  0  0  0  0  0  0  0  0  # atno 17342 bound_to 10162
  139.5512  144.7339  151.4429 LP  0  0  0  0  0  0  0  0  0  0  0  0  # atno 17343 bound_to 10162
  156.4245  130.3959  149.6802 LP  0  0  0  0  0  0  0  0  0  0  0  0  # atno 17370 bound_to 10713
  156.4041  130.7689  151.2699 LP  0  0  0  0  0  0  0  0  0  0  0  0  # atno 17371 bound_to 10713
  141.1467  133.9043  157.2199 LP  0  0  0  0  0  0  0  0  0  0  0  0  # atno 17394 bound_to 11000
  139.9749  135.0117  156.9606 LP  0  0  0  0  0  0  0  0  0  0  0  0  # atno 17395 bound_to 11000

$$$$
