AV-unprocessed.smi:21|AV-procd|sdf|156|dock7
  -GOLD-   2262015383D 1   1.00000     0.00000
 Structure written by MMmdl.
 61 64  0  0  0  0  0  0  0  0  1 V2000
  152.8731  144.7854  157.8793 C   0  0  0  0  0  0  0  0  0  0  0  0
  151.9563  145.1365  158.9033 O   0  0  0  0  0  0  0  0  0  0  0  0
  151.5755  144.0348  159.7161 C   0  0  2  0  0  0  0  0  0  0  0  0
  152.7861  143.4227  160.4404 C   0  0  0  0  0  0  0  0  0  0  0  0
  152.7135  141.9249  160.1097 C   0  0  2  0  0  0  0  0  0  0  0  0
  154.0749  141.1981  160.2077 C   0  0  0  0  0  0  0  0  0  0  0  0
  154.1530  140.2492  161.3197 N   0  0  0  0  0  0  0  0  0  0  0  0
  154.8935  140.6669  162.5070 C   0  0  0  0  0  0  0  0  0  0  0  0
  154.0850  138.9184  161.0408 C   0  0  0  0  0  0  0  0  0  0  0  0
  153.7363  138.5255  159.7853 N   0  0  0  0  0  0  0  0  0  0  0  0
  153.6128  137.2297  159.4862 C   0  0  0  0  0  0  0  0  0  0  0  0
  153.7897  136.1715  160.2774 N   0  0  0  0  0  0  0  0  0  0  0  0
  154.1591  136.5530  161.5329 C   0  0  0  0  0  0  0  0  0  0  0  0
  154.3383  137.8886  161.9949 C   0  0  0  0  0  0  0  0  0  0  0  0
  154.7419  137.8686  163.3262 N   0  0  0  0  0  0  0  0  0  0  0  0
  154.7742  136.6023  163.6380 C   0  0  0  0  0  0  0  0  0  0  0  0
  154.4252  135.7435  162.6220 N   0  0  0  0  0  0  0  0  0  0  0  0
  154.3592  134.2951  162.6861 C   0  0  0  0  0  0  0  0  0  0  0  0
  154.2497  133.7387  164.1312 C   0  0  2  0  0  0  0  0  0  0  0  0
  155.6122  133.2350  164.6736 C   0  0  0  0  0  0  0  0  0  0  0  0
  156.6046  134.2396  164.6306 O   0  0  0  0  0  0  0  0  0  0  0  0
  153.1744  132.6231  164.2022 C   0  0  2  0  0  0  0  0  0  0  0  0
  152.8011  132.1825  165.6085 C   0  0  0  0  0  0  0  0  0  0  0  0
  152.1436  130.8316  165.3593 C   0  0  0  0  0  0  0  0  0  0  0  0
  152.8589  130.2652  164.2697 O   0  0  0  0  0  0  0  0  0  0  0  0
  153.5988  131.2784  163.5945 C   0  0  0  0  0  0  0  0  0  0  0  0
  152.1130  141.8896  158.7857 N   0  0  0  0  0  0  0  0  0  0  0  0
  151.6069  140.5792  158.3988 C   0  0  0  0  0  0  0  0  0  0  0  0
  151.0606  142.8882  158.8375 C   0  0  0  0  0  0  0  0  0  0  0  0
  150.7925  144.3272  160.4183 H   0  0  0  0  0  0  0  0  0  0  0  0
  152.0177  141.4627  160.8124 H   0  0  0  0  0  0  0  0  0  0  0  0
  153.0955  145.6626  157.2721 H   0  0  0  0  0  0  0  0  0  0  0  0
  152.4684  144.0159  157.2211 H   0  0  0  0  0  0  0  0  0  0  0  0
  153.8111  144.4222  158.3010 H   0  0  0  0  0  0  0  0  0  0  0  0
  153.7116  143.8468  160.0472 H   0  0  0  0  0  0  0  0  0  0  0  0
  152.7616  143.6142  161.5135 H   0  0  0  0  0  0  0  0  0  0  0  0
  154.2477  140.6259  159.2968 H   0  0  0  0  0  0  0  0  0  0  0  0
  154.8806  141.9274  160.2367 H   0  0  0  0  0  0  0  0  0  0  0  0
  154.5675  140.1064  163.3841 H   0  0  0  0  0  0  0  0  0  0  0  0
  154.7287  141.7252  162.7101 H   0  0  0  0  0  0  0  0  0  0  0  0
  155.9647  140.5112  162.3726 H   0  0  0  0  0  0  0  0  0  0  0  0
  153.3255  137.0102  158.4685 H   0  0  0  0  0  0  0  0  0  0  0  0
  155.0438  136.2595  164.6263 H   0  0  0  0  0  0  0  0  0  0  0  0
  153.5013  133.9903  162.0873 H   0  0  0  0  0  0  0  0  0  0  0  0
  155.2409  133.8854  162.1917 H   0  0  0  0  0  0  0  0  0  0  0  0
  153.9113  134.5478  164.7806 H   0  0  0  0  0  0  0  0  0  0  0  0
  155.5360  132.9301  165.7161 H   0  0  0  0  0  0  0  0  0  0  0  0
  155.9519  132.3615  164.1166 H   0  0  0  0  0  0  0  0  0  0  0  0
  157.2344  134.0717  165.3152 H   0  0  0  0  0  0  0  0  0  0  0  0
  152.2675  132.9611  163.6976 H   0  0  0  0  0  0  0  0  0  0  0  0
  153.6960  132.0564  166.2200 H   0  0  0  0  0  0  0  0  0  0  0  0
  152.1324  132.8764  166.1183 H   0  0  0  0  0  0  0  0  0  0  0  0
  152.1688  130.1838  166.2357 H   0  0  0  0  0  0  0  0  0  0  0  0
  151.1025  130.9648  165.0631 H   0  0  0  0  0  0  0  0  0  0  0  0
  153.4169  131.2330  162.5203 H   0  0  0  0  0  0  0  0  0  0  0  0
  154.6600  131.0915  163.7641 H   0  0  0  0  0  0  0  0  0  0  0  0
  151.1171  140.6307  157.4260 H   0  0  0  0  0  0  0  0  0  0  0  0
  150.8825  140.2044  159.1232 H   0  0  0  0  0  0  0  0  0  0  0  0
  152.4156  139.8532  158.3189 H   0  0  0  0  0  0  0  0  0  0  0  0
  150.1710  142.4632  159.3055 H   0  0  0  0  0  0  0  0  0  0  0  0
  150.7756  143.2194  157.8383 H   0  0  0  0  0  0  0  0  0  0  0  0
  1  2  1  0  0  0  0
  1 32  1  0  0  0  0
  1 33  1  0  0  0  0
  1 34  1  0  0  0  0
  2  3  1  0  0  0  0
  3 30  1  0  0  0  0
  3 29  1  0  0  0  0
  3  4  1  0  0  0  0
  4  5  1  0  0  0  0
  4 35  1  0  0  0  0
  4 36  1  0  0  0  0
  5 31  1  0  0  0  0
  5  6  1  0  0  0  0
  5 27  1  0  0  0  0
  6  7  1  0  0  0  0
  6 37  1  0  0  0  0
  6 38  1  0  0  0  0
  7  8  1  0  0  0  0
  7  9  1  0  0  0  0
  8 39  1  0  0  0  0
  8 40  1  0  0  0  0
  8 41  1  0  0  0  0
  9 14  1  0  0  0  0
  9 10  2  0  0  0  0
 10 11  1  0  0  0  0
 11 12  2  0  0  0  0
 11 42  1  0  0  0  0
 12 13  1  0  0  0  0
 13 17  1  0  0  0  0
 13 14  2  0  0  0  0
 14 15  1  0  0  0  0
 15 16  2  0  0  0  0
 16 17  1  0  0  0  0
 16 43  1  0  0  0  0
 17 18  1  0  0  0  0
 18 19  1  0  0  0  0
 18 44  1  0  0  0  0
 18 45  1  0  0  0  0
 19 20  1  0  0  0  0
 19 22  1  0  0  0  0
 19 46  1  0  0  0  0
 20 21  1  0  0  0  0
 20 47  1  0  0  0  0
 20 48  1  0  0  0  0
 21 49  1  0  0  0  0
 22 26  1  0  0  0  0
 22 23  1  0  0  0  0
 22 50  1  0  0  0  0
 23 24  1  0  0  0  0
 23 51  1  0  0  0  0
 23 52  1  0  0  0  0
 24 25  1  0  0  0  0
 24 53  1  0  0  0  0
 24 54  1  0  0  0  0
 25 26  1  0  0  0  0
 26 55  1  0  0  0  0
 26 56  1  0  0  0  0
 27 28  1  0  0  0  0
 27 29  1  0  0  0  0
 28 57  1  0  0  0  0
 28 58  1  0  0  0  0
 28 59  1  0  0  0  0
 29 60  1  0  0  0  0
 29 61  1  0  0  0  0
M  END
> <s_m_source_file>
AV-unprocessed.smi

> <i_m_source_file_index>
21

> <i_lp_mmshare_version>
43012

> <i_f3d_flags>
0

> <s_epik_input>
W0NIM11PW0NASF0xW0NIMl1bQ0BIXShOKFtDSDNdKVtDSDJdMSlbQ0gyXU4oW0NIM10pYyhuW2NIXW4yKWMoYzIzKW5bY0hdbjNbQ0gyXVtDQEhdKFtDSDJdW09IXSlbQ0BASF00W0NIMl1bQ0gyXU9bQ0gyXTQ=

> <s_epik_cmdline>
J2VwaWtfcHl0aG9uJywgJy1waCcsICc3LjAnLCAnLXRuJywgJzgnLCAnLW1hJywgJzIwMCcsICctbWV0YWxfYmluZGluZycsICctaW1hZScsICc8aW5maWxlLm1hZT4nLCAnLW9tYWUnLCAnPG91dGZpbGUubWFlPic=

> <r_lp_tautomer_probability>
1

> <r_epik_Ionization_Penalty>
2.17574

> <r_epik_Ionization_Penalty_Charging>
0

> <r_epik_Ionization_Penalty_Neutral>
2.17574

> <r_epik_State_Penalty>
2.31336

> <r_epik_Charging_Adjusted_Penalty>
2.31336

> <i_epik_Tot_Q>
0

> <i_epik_Tot_abs_Q>
0

> <r_epik_Metal_State_Penalty>
2.31025

> <b_epik_Metal_Only>
0

> <s_lp_Force_Field>
OPLS_2005

> <r_lp_Energy>
68.7045

> <b_lp_Chiralities_Consistent>
1

> <s_lp_Variant>
AV-unprocessed.smi:21-36

> <Gold.Version>
5.8.1

> <Gold.Id.Protein>
6NUR|6NUR_protein|mol2

> <Gold.PLP.Fitness>
50.7371

> <Gold.PLP.PLP>
-51.0765

> <Gold.PLP.part.hbond>
-0.9518

> <Gold.PLP.part.metal>
0.0000

> <Gold.PLP.part.buried>
-6.3420

> <Gold.PLP.part.nonpolar>
-43.4340

> <Gold.PLP.part.repulsive>
0.0712

> <Gold.PLP.ligand.clash>
0.0000

> <Gold.PLP.ligand.torsion>
2.0114

> <Gold.PLP.Chemscore.Hbond>
0.9913

> <Gold.PLP.Chemscore.CHOScore>
0.0000

> <Gold.PLP.Chemscore.Metal>
0.0000

> <Gold.Chemscore.Hbonds>
donor molecule, donor type, donor heavy atom, donor atom, acceptor molecule, acceptor atom, score
      P1  H  6896  6909       L1    12  1.00

> <Gold.PLP.Chemscore.Internal.Correction>
0.7096

> <Gold.Rescore>
     Score         DG    S(hbond)    S(metal)    S(lipo)     H(rot)  DE(clash)    DE(int)     intcor
     12.89     -16.00       0.86        0.00     131.17       3.00       0.03       3.08       ----

> <Gold.Chemscore.Fitness>
12.8940

> <Gold.Chemscore.DG>
-16.0030

> <Gold.Chemscore.ZeroCoef>
-5.4800

> <Gold.Chemscore.Hbond>
0.8574

> <Gold.Chemscore.Metal>
0.0000

> <Gold.Chemscore.Lipo>
131.1718

> <Gold.Chemscore.Internal_Hbond>
0.0000

> <Gold.Chemscore.DEClash>
0.0315

> <Gold.Chemscore.DEInternal>
3.0775

> <Gold.Chemscore.Rot>
3.0031

> <Gold.Chemscore.Internal.Correction>
   9.000000E+99

> <Gold.Chemscore.Hbonds>
donor molecule, donor type, donor heavy atom, donor atom, acceptor molecule, acceptor atom, score
      P1  H  6896  6909       L1    12  0.83

> <Gold.Chemscore.Hbond.Weighted>
-2.8638

> <Gold.Chemscore.Metal.Weighted>
-0.0000

> <Gold.Chemscore.Lipo.Weighted>
-15.3471

> <Gold.Chemscore.Internal_Hbond.Weighted>
0.0000

> <Gold.Chemscore.DEClash.Weighted>
0.0315

> <Gold.Chemscore.DEInternal.Weighted>
3.0775

> <Gold.Chemscore.Rot.Weighted>
7.6880

> <Gold.Chemscore.Internal.Correction.Weighted>
   9.000000E+99

> <Gold.Protein.RotatedTorsions>
[ 6907 6896 6895 6894 ] final  174.69 input  -60.11 | X-H torsion
[ 7974 7965 7964 7962 ] final  -64.65 input  175.53 | X-H torsion
[ 8008 7997 7996 7995 ] final -113.57 input   59.86 | X-H torsion
[ 10167 10162 10161 10158 ] final -173.62 input  -65.29 | X-H torsion
[ 10718 10713 10712 10709 ] final   16.06 input   66.30 | X-H torsion
[ 10763 10752 10751 10750 ] final   52.86 input  -60.55 | X-H torsion
[ 11005 11000 10999 10996 ] final -164.02 input  -57.11 | X-H torsion

> <Gold.Protein.ActiveResidues>
 VAL166  LYS551  ARG553  GLY616  TRP617  ASP618  TYR619  PRO620  LYS621  CYS622 
 ASP623  PHE694  ASN695  SER759  ASP760  ASP761  ALA762  ILE779  LEU786  VAL792 
 PHE793  MET794  SER795  GLU796  ALA797  LYS798  CYS799  TRP800  GLU811  SER814 

> <Gold.Protein.RotatedAtoms>
  151.7482  133.3326  159.3383 H   0  0  0  0  0  0  0  0  0  0  0  0  # atno 6907 bound_to 6896
  150.7546  134.6217  159.6148 H   0  0  0  0  0  0  0  0  0  0  0  0  # atno 6908 bound_to 6896
  152.3486  134.7039  160.0294 H   0  0  0  0  0  0  0  0  0  0  0  0  # atno 6909 bound_to 6896
  145.7640  140.8847  143.0415 H   0  0  0  0  0  0  0  0  0  0  0  0  # atno 7974 bound_to 7965
  155.0228  140.0393  157.2444 H   0  0  0  0  0  0  0  0  0  0  0  0  # atno 8008 bound_to 7997
  154.7363  140.2740  155.6388 H   0  0  0  0  0  0  0  0  0  0  0  0  # atno 8009 bound_to 7997
  156.2854  140.2674  156.2078 H   0  0  0  0  0  0  0  0  0  0  0  0  # atno 8010 bound_to 7997
  139.5678  144.1713  152.1339 H   0  0  0  0  0  0  0  0  0  0  0  0  # atno 10167 bound_to 10162
  157.0625  130.6314  149.5789 H   0  0  0  0  0  0  0  0  0  0  0  0  # atno 10718 bound_to 10713
  152.9791  135.5798  154.4647 H   0  0  0  0  0  0  0  0  0  0  0  0  # atno 10763 bound_to 10752
  154.4218  135.2772  155.1972 H   0  0  0  0  0  0  0  0  0  0  0  0  # atno 10764 bound_to 10752
  154.3718  135.6166  153.5798 H   0  0  0  0  0  0  0  0  0  0  0  0  # atno 10765 bound_to 10752
  140.5916  134.5039  157.5193 H   0  0  0  0  0  0  0  0  0  0  0  0  # atno 11005 bound_to 11000
  144.6825  139.9763  143.7483 LP  0  0  0  0  0  0  0  0  0  0  0  0  # atno 17320 bound_to 7965
  146.0236  139.3272  143.0798 LP  0  0  0  0  0  0  0  0  0  0  0  0  # atno 17321 bound_to 7965
  140.1240  144.5348  150.6844 LP  0  0  0  0  0  0  0  0  0  0  0  0  # atno 17342 bound_to 10162
  140.6962  143.2405  151.4994 LP  0  0  0  0  0  0  0  0  0  0  0  0  # atno 17343 bound_to 10162
  155.9974  130.5046  150.7534 LP  0  0  0  0  0  0  0  0  0  0  0  0  # atno 17370 bound_to 10713
  157.4943  131.0913  151.0389 LP  0  0  0  0  0  0  0  0  0  0  0  0  # atno 17371 bound_to 10713
  139.9272  134.8034  156.1035 LP  0  0  0  0  0  0  0  0  0  0  0  0  # atno 17394 bound_to 11000
  141.0931  133.6706  156.2585 LP  0  0  0  0  0  0  0  0  0  0  0  0  # atno 17395 bound_to 11000

$$$$
