AV-unprocessed.smi:1269|AV-procd|sdf|5327|dock3
  -GOLD-   22720 4453D 1   1.00000     0.00000
 Structure written by MMmdl.
 43 44  0  0  0  0  0  0  0  0  1 V2000
  151.1214  141.7411  157.8614 C   0  0  0  0  0  0  0  0  0  0  0  0
  151.2424  141.4625  156.4709 O   0  0  0  0  0  0  0  0  0  0  0  0
  150.8354  140.2262  156.0125 C   0  0  0  0  0  0  0  0  0  0  0  0
  150.6262  139.1950  156.9490 C   0  0  0  0  0  0  0  0  0  0  0  0
  150.2066  137.9312  156.4910 C   0  0  0  0  0  0  0  0  0  0  0  0
  150.0093  137.7366  155.1022 C   0  0  0  0  0  0  0  0  0  0  0  0
  149.5852  136.5204  154.4974 N   0  0  0  0  0  0  0  0  0  0  0  0
  149.3992  135.3072  155.0460 C   0  0  0  0  0  0  0  0  0  0  0  0
  149.6041  135.0132  156.2228 O   0  0  0  0  0  0  0  0  0  0  0  0
  148.9470  134.4353  154.1324 N   0  0  0  0  0  0  0  0  0  0  0  0
  148.5909  133.0392  154.3816 C   0  0  2  0  0  0  0  0  0  0  0  0
  149.8539  132.2687  154.7898 C   0  0  0  0  0  0  0  0  0  0  0  0
  147.9461  132.4192  153.1226 C   0  0  0  0  0  0  0  0  0  0  0  0
  146.5231  132.7036  152.9319 N   0  0  0  0  0  0  0  0  0  0  0  0
  145.9378  131.9418  151.8302 C   0  0  0  0  0  0  0  0  0  0  0  0
  144.4459  132.2658  151.6405 C   0  0  0  0  0  0  0  0  0  0  0  0
  144.2831  133.6648  151.4321 O   0  0  0  0  0  0  0  0  0  0  0  0
  144.8038  134.4438  152.5043 C   0  0  0  0  0  0  0  0  0  0  0  0
  146.2968  134.1249  152.6957 C   0  0  0  0  0  0  0  0  0  0  0  0
  150.2497  138.8340  154.2494 C   0  0  0  0  0  0  0  0  0  0  0  0
  150.6506  140.0479  154.6815 N   0  0  0  0  0  0  0  0  0  0  0  0
  151.4817  142.7505  158.0595 H   0  0  0  0  0  0  0  0  0  0  0  0
  151.7206  141.0530  158.4598 H   0  0  0  0  0  0  0  0  0  0  0  0
  150.0825  141.6905  158.1905 H   0  0  0  0  0  0  0  0  0  0  0  0
  150.7833  139.3702  158.0031 H   0  0  0  0  0  0  0  0  0  0  0  0
  150.0493  137.1515  157.2182 H   0  0  0  0  0  0  0  0  0  0  0  0
  149.3722  136.5890  153.5130 H   0  0  0  0  0  0  0  0  0  0  0  0
  148.8123  134.7704  153.1900 H   0  0  0  0  0  0  0  0  0  0  0  0
  147.8998  132.9712  155.2224 H   0  0  0  0  0  0  0  0  0  0  0  0
  149.6234  131.2244  155.0029 H   0  0  0  0  0  0  0  0  0  0  0  0
  150.3016  132.6957  155.6879 H   0  0  0  0  0  0  0  0  0  0  0  0
  150.6060  132.2886  154.0002 H   0  0  0  0  0  0  0  0  0  0  0  0
  148.4980  132.7850  152.2553 H   0  0  0  0  0  0  0  0  0  0  0  0
  148.0983  131.3387  153.1333 H   0  0  0  0  0  0  0  0  0  0  0  0
  146.4742  132.1572  150.9049 H   0  0  0  0  0  0  0  0  0  0  0  0
  146.0399  130.8722  152.0079 H   0  0  0  0  0  0  0  0  0  0  0  0
  144.0471  131.7285  150.7798 H   0  0  0  0  0  0  0  0  0  0  0  0
  143.8692  131.9503  152.5115 H   0  0  0  0  0  0  0  0  0  0  0  0
  144.6679  135.5011  152.2764 H   0  0  0  0  0  0  0  0  0  0  0  0
  144.2443  134.2372  153.4181 H   0  0  0  0  0  0  0  0  0  0  0  0
  146.6818  134.7057  153.5346 H   0  0  0  0  0  0  0  0  0  0  0  0
  146.8512  134.4469  151.8127 H   0  0  0  0  0  0  0  0  0  0  0  0
  150.1153  138.7372  153.1818 H   0  0  0  0  0  0  0  0  0  0  0  0
  1  2  1  0  0  0  0
  1 22  1  0  0  0  0
  1 23  1  0  0  0  0
  1 24  1  0  0  0  0
  2  3  1  0  0  0  0
  3 21  1  0  0  0  0
  3  4  2  0  0  0  0
  4  5  1  0  0  0  0
  4 25  1  0  0  0  0
  5  6  2  0  0  0  0
  5 26  1  0  0  0  0
  6  7  1  0  0  0  0
  6 20  1  0  0  0  0
  7  8  1  0  0  0  0
  7 27  1  0  0  0  0
  8  9  2  0  0  0  0
  8 10  1  0  0  0  0
 10 11  1  0  0  0  0
 10 28  1  0  0  0  0
 11 12  1  0  0  0  0
 11 13  1  0  0  0  0
 11 29  1  0  0  0  0
 12 30  1  0  0  0  0
 12 31  1  0  0  0  0
 12 32  1  0  0  0  0
 13 14  1  0  0  0  0
 13 33  1  0  0  0  0
 13 34  1  0  0  0  0
 14 19  1  0  0  0  0
 14 15  1  0  0  0  0
 15 16  1  0  0  0  0
 15 35  1  0  0  0  0
 15 36  1  0  0  0  0
 16 17  1  0  0  0  0
 16 37  1  0  0  0  0
 16 38  1  0  0  0  0
 17 18  1  0  0  0  0
 18 19  1  0  0  0  0
 18 39  1  0  0  0  0
 18 40  1  0  0  0  0
 19 41  1  0  0  0  0
 19 42  1  0  0  0  0
 20 21  2  0  0  0  0
 20 43  1  0  0  0  0
M  END
> <s_m_source_file>
AV-unprocessed.smi

> <i_m_source_file_index>
1269

> <i_lp_mmshare_version>
43012

> <i_f3d_flags>
0

> <s_epik_input>
W0NIM11PYzFbY0hdW2NIXWMoW2NIXW4xKVtOSF1DKD1PKVtOSF1bQ0BIXShbQ0gzXSlbQ0gyXU4yW0NIMl1bQ0gyXU9bQ0gyXVtDSDJdMg==

> <s_epik_cmdline>
J2VwaWtfcHl0aG9uJywgJy1waCcsICc3LjAnLCAnLXRuJywgJzgnLCAnLW1hJywgJzIwMCcsICctbWV0YWxfYmluZGluZycsICctaW1hZScsICc8aW5maWxlLm1hZT4nLCAnLW9tYWUnLCAnPG91dGZpbGUubWFlPic=

> <r_lp_tautomer_probability>
1

> <r_epik_Ionization_Penalty>
0.266086

> <r_epik_Ionization_Penalty_Charging>
0

> <r_epik_Ionization_Penalty_Neutral>
0.266086

> <r_epik_State_Penalty>
0.257924

> <r_epik_Charging_Adjusted_Penalty>
0.257924

> <i_epik_Tot_Q>
0

> <i_epik_Tot_abs_Q>
0

> <r_epik_Metal_State_Penalty>
0.25792

> <b_epik_Metal_Only>
0

> <s_lp_Force_Field>
OPLS_2005

> <r_lp_Energy>
28.3998

> <b_lp_Chiralities_Consistent>
1

> <s_lp_Variant>
AV-unprocessed.smi:1269-1

> <Gold.Version>
5.8.1

> <Gold.Id.Protein>
6NUR|6NUR_protein|mol2

> <Gold.PLP.Fitness>
40.9167

> <Gold.PLP.PLP>
-29.8046

> <Gold.PLP.part.hbond>
-3.0000

> <Gold.PLP.part.metal>
0.0000

> <Gold.PLP.part.buried>
-5.2036

> <Gold.PLP.part.nonpolar>
-22.2966

> <Gold.PLP.part.repulsive>
0.4253

> <Gold.PLP.ligand.clash>
0.0134

> <Gold.PLP.ligand.torsion>
0.4827

> <Gold.PLP.Chemscore.Hbond>
3.0000

> <Gold.PLP.Chemscore.CHOScore>
1.0000

> <Gold.PLP.Chemscore.Metal>
0.0000

> <Gold.Chemscore.Hbonds>
donor molecule, donor type, donor heavy atom, donor atom, acceptor molecule, acceptor atom, score
      L1  H     7    27       P1  7948  1.00
      L1  H    10    28       P1  7948  1.00
      P1  H  7989  7998       L1    21  1.00
      L1  C    20    43       P1  7957  1.00

> <Gold.PLP.Chemscore.Internal.Correction>
0.0909

> <Gold.Rescore>
     Score         DG    S(hbond)    S(metal)    S(lipo)     H(rot)  DE(clash)    DE(int)     intcor
     14.43     -15.95       2.36        0.00      59.84       1.72       0.05       1.48       ----

> <Gold.Chemscore.Fitness>
14.4285

> <Gold.Chemscore.DG>
-15.9542

> <Gold.Chemscore.ZeroCoef>
-5.4800

> <Gold.Chemscore.Hbond>
2.3573

> <Gold.Chemscore.Metal>
0.0000

> <Gold.Chemscore.Lipo>
59.8407

> <Gold.Chemscore.Internal_Hbond>
0.0000

> <Gold.Chemscore.DEClash>
0.0489

> <Gold.Chemscore.DEInternal>
1.4768

> <Gold.Chemscore.Rot>
1.7189

> <Gold.Chemscore.Internal.Correction>
   9.000000E+99

> <Gold.Chemscore.Hbonds>
donor molecule, donor type, donor heavy atom, donor atom, acceptor molecule, acceptor atom, score
      L1  H     7    27       P1  7948  0.88
      L1  H    10    28       P1  7948  0.24
      P1  H  7989  7998       L1    21  0.81

> <Gold.Chemscore.Hbond.Weighted>
-7.8733

> <Gold.Chemscore.Metal.Weighted>
-0.0000

> <Gold.Chemscore.Lipo.Weighted>
-7.0014

> <Gold.Chemscore.Internal_Hbond.Weighted>
0.0000

> <Gold.Chemscore.DEClash.Weighted>
0.0489

> <Gold.Chemscore.DEInternal.Weighted>
1.4768

> <Gold.Chemscore.Rot.Weighted>
4.4004

> <Gold.Chemscore.Internal.Correction.Weighted>
   9.000000E+99

> <Gold.Protein.RotatedTorsions>
[ 6907 6896 6895 6894 ] final    2.22 input  -60.11 | X-H torsion
[ 7974 7965 7964 7962 ] final -175.47 input  175.53 | X-H torsion
[ 8008 7997 7996 7995 ] final   28.02 input   59.86 | X-H torsion
[ 10167 10162 10161 10158 ] final -113.15 input  -65.29 | X-H torsion
[ 10718 10713 10712 10709 ] final   97.61 input   66.30 | X-H torsion
[ 10763 10752 10751 10750 ] final  -96.05 input  -60.55 | X-H torsion
[ 11005 11000 10999 10996 ] final   43.11 input  -57.11 | X-H torsion

> <Gold.Protein.ActiveResidues>
 VAL166  LYS551  ARG553  GLY616  TRP617  ASP618  TYR619  PRO620  LYS621  CYS622 
 ASP623  PHE694  ASN695  SER759  ASP760  ASP761  ALA762  ILE779  LEU786  VAL792 
 PHE793  MET794  SER795  GLU796  ALA797  LYS798  CYS799  TRP800  GLU811  SER814 

> <Gold.Protein.RotatedAtoms>
  151.6053  135.1044  160.0068 H   0  0  0  0  0  0  0  0  0  0  0  0  # atno 6907 bound_to 6896
  152.4237  133.7154  159.6513 H   0  0  0  0  0  0  0  0  0  0  0  0  # atno 6908 bound_to 6896
  150.8125  133.8324  159.3198 H   0  0  0  0  0  0  0  0  0  0  0  0  # atno 6909 bound_to 6896
  144.7128  140.1316  143.6398 H   0  0  0  0  0  0  0  0  0  0  0  0  # atno 7974 bound_to 7965
  155.0520  140.3181  155.4689 H   0  0  0  0  0  0  0  0  0  0  0  0  # atno 8008 bound_to 7997
  156.2832  140.2144  156.5590 H   0  0  0  0  0  0  0  0  0  0  0  0  # atno 8009 bound_to 7997
  154.7202  140.0490  157.0620 H   0  0  0  0  0  0  0  0  0  0  0  0  # atno 8010 bound_to 7997
  140.1149  143.4494  152.1728 H   0  0  0  0  0  0  0  0  0  0  0  0  # atno 10167 bound_to 10162
  157.6909  131.0615  150.4670 H   0  0  0  0  0  0  0  0  0  0  0  0  # atno 10718 bound_to 10713
  154.7204  135.5098  153.8803 H   0  0  0  0  0  0  0  0  0  0  0  0  # atno 10763 bound_to 10752
  153.0857  135.6644  153.9962 H   0  0  0  0  0  0  0  0  0  0  0  0  # atno 10764 bound_to 10752
  153.9786  135.3031  155.3401 H   0  0  0  0  0  0  0  0  0  0  0  0  # atno 10765 bound_to 10752
  140.1676  134.4263  155.8278 H   0  0  0  0  0  0  0  0  0  0  0  0  # atno 11005 bound_to 11000
  145.9282  139.2589  143.1341 LP  0  0  0  0  0  0  0  0  0  0  0  0  # atno 17320 bound_to 7965
  145.9550  140.8879  143.0239 LP  0  0  0  0  0  0  0  0  0  0  0  0  # atno 17321 bound_to 7965
  139.5599  144.7398  151.4185 LP  0  0  0  0  0  0  0  0  0  0  0  0  # atno 17342 bound_to 10162
  140.6905  143.7874  150.7248 LP  0  0  0  0  0  0  0  0  0  0  0  0  # atno 17343 bound_to 10162
  156.5010  130.4117  149.6353 LP  0  0  0  0  0  0  0  0  0  0  0  0  # atno 17370 bound_to 10713
  156.3328  130.7340  151.2273 LP  0  0  0  0  0  0  0  0  0  0  0  0  # atno 17371 bound_to 10713
  141.2215  133.6941  156.7705 LP  0  0  0  0  0  0  0  0  0  0  0  0  # atno 17394 bound_to 11000
  140.2416  134.8609  157.3579 LP  0  0  0  0  0  0  0  0  0  0  0  0  # atno 17395 bound_to 11000

$$$$
