AV-unprocessed.smi:1819|AV-procd|sdf|7382|dock10
  -GOLD-   22720 9 53D 1   1.00000     0.00000
 Structure written by MMmdl.
 29 29  0  0  0  0  0  0  0  0  1 V2000
  148.0325  140.1318  155.1097 O   0  0  0  0  0  0  0  0  0  0  0  0
  148.2662  141.3375  155.0133 C   0  0  0  0  0  0  0  0  0  0  0  0
  149.7099  141.8541  154.9317 C   0  0  0  0  0  0  0  0  0  0  0  0
  150.5067  141.5195  156.1210 N   0  0  0  0  0  0  0  0  0  0  0  0
  150.3036  142.1979  157.3146 C   0  0  0  0  0  0  0  0  0  0  0  0
  150.9937  141.9336  158.4493 C   0  0  0  0  0  0  0  0  0  0  0  0
  152.0137  140.8906  158.4677 C   0  0  0  0  0  0  0  0  0  0  0  0
  152.6923  140.5791  159.4438 O   0  0  0  0  0  0  0  0  0  0  0  0
  152.1867  140.2292  157.2489 N   0  0  0  0  0  0  0  0  0  0  0  0
  151.4776  140.4952  156.0764 C   0  0  0  0  0  0  0  0  0  0  0  0
  151.7062  139.8479  155.0551 O   0  0  0  0  0  0  0  0  0  0  0  0
  147.3028  142.2694  154.9951 N   0  0  0  0  0  0  0  0  0  0  0  0
  145.8777  141.9799  155.0669 C   0  0  0  0  0  0  0  0  0  0  0  0
  145.0602  143.1533  154.5163 C   0  0  0  0  0  0  0  0  0  0  0  0
  144.6762  144.3600  155.8147 S   0  0  0  0  0  0  0  0  0  0  0  0
  143.5982  145.4915  154.8953 C   0  0  0  0  0  0  0  0  0  0  0  0
  143.5949  146.6870  155.4825 F   0  0  0  0  0  0  0  0  0  0  0  0
  144.0353  145.6313  153.6446 F   0  0  0  0  0  0  0  0  0  0  0  0
  142.3509  145.0240  154.8721 F   0  0  0  0  0  0  0  0  0  0  0  0
  152.8807  139.4966  157.2141 H   0  0  0  0  0  0  0  0  0  0  0  0
  150.1944  141.4639  154.0341 H   0  0  0  0  0  0  0  0  0  0  0  0
  149.6746  142.9356  154.7919 H   0  0  0  0  0  0  0  0  0  0  0  0
  149.5544  142.9761  157.3488 H   0  0  0  0  0  0  0  0  0  0  0  0
  150.7891  142.4963  159.3487 H   0  0  0  0  0  0  0  0  0  0  0  0
  147.5745  143.2391  154.9197 H   0  0  0  0  0  0  0  0  0  0  0  0
  145.6616  141.0746  154.4971 H   0  0  0  0  0  0  0  0  0  0  0  0
  145.6009  141.7837  156.1039 H   0  0  0  0  0  0  0  0  0  0  0  0
  145.6108  143.6563  153.7208 H   0  0  0  0  0  0  0  0  0  0  0  0
  144.1263  142.7920  154.0849 H   0  0  0  0  0  0  0  0  0  0  0  0
  1  2  2  0  0  0  0
  2  3  1  0  0  0  0
  2 12  1  0  0  0  0
  3  4  1  0  0  0  0
  3 21  1  0  0  0  0
  3 22  1  0  0  0  0
  4 10  1  0  0  0  0
  4  5  1  0  0  0  0
  5  6  2  0  0  0  0
  5 23  1  0  0  0  0
  6  7  1  0  0  0  0
  6 24  1  0  0  0  0
  7  8  2  0  0  0  0
  7  9  1  0  0  0  0
  9 20  1  0  0  0  0
  9 10  1  0  0  0  0
 10 11  2  0  0  0  0
 12 13  1  0  0  0  0
 12 25  1  0  0  0  0
 13 14  1  0  0  0  0
 13 26  1  0  0  0  0
 13 27  1  0  0  0  0
 14 15  1  0  0  0  0
 14 28  1  0  0  0  0
 14 29  1  0  0  0  0
 15 16  1  0  0  0  0
 16 17  1  0  0  0  0
 16 18  1  0  0  0  0
 16 19  1  0  0  0  0
M  END
> <s_m_source_file>
AV-unprocessed.smi

> <i_m_source_file_index>
1819

> <i_lp_mmshare_version>
43012

> <i_f3d_flags>
0

> <s_epik_input>
RkMoRikoRilTW0NIMl1bQ0gyXVtOSF1DKD1PKVtDSDJdbjFbY0hdW2NIXWMoPU8pW25IXWMxPU8=

> <s_epik_cmdline>
J2VwaWtfcHl0aG9uJywgJy1waCcsICc3LjAnLCAnLXRuJywgJzgnLCAnLW1hJywgJzIwMCcsICctbWV0YWxfYmluZGluZycsICctaW1hZScsICc8aW5maWxlLm1hZT4nLCAnLW9tYWUnLCAnPG91dGZpbGUubWFlPic=

> <r_lp_tautomer_probability>
0.999537

> <r_epik_Ionization_Penalty>
0.00347617

> <r_epik_Ionization_Penalty_Charging>
0.00347613

> <r_epik_Ionization_Penalty_Neutral>
4.33222e-08

> <r_epik_State_Penalty>
0.00246522

> <r_epik_Charging_Adjusted_Penalty>
0.00594136

> <i_epik_Tot_Q>
0

> <i_epik_Tot_abs_Q>
0

> <r_epik_Metal_State_Penalty>
0.367629

> <b_epik_Metal_Only>
0

> <s_lp_Force_Field>
OPLS_2005

> <r_lp_Energy>
-0.213216

> <b_lp_Chiralities_Consistent>
1

> <s_lp_Variant>
AV-unprocessed.smi:1819-1

> <Gold.Version>
5.8.1

> <Gold.Id.Protein>
6NUR|6NUR_protein|mol2

> <Gold.PLP.Fitness>
39.8073

> <Gold.PLP.PLP>
-32.6560

> <Gold.PLP.part.hbond>
-2.0000

> <Gold.PLP.part.metal>
0.0000

> <Gold.PLP.part.buried>
-3.7142

> <Gold.PLP.part.nonpolar>
-26.9296

> <Gold.PLP.part.repulsive>
0.2872

> <Gold.PLP.ligand.clash>
0.0000

> <Gold.PLP.ligand.torsion>
0.8704

> <Gold.PLP.Chemscore.Hbond>
1.9440

> <Gold.PLP.Chemscore.CHOScore>
0.9941

> <Gold.PLP.Chemscore.Metal>
0.0000

> <Gold.Chemscore.Hbonds>
donor molecule, donor type, donor heavy atom, donor atom, acceptor molecule, acceptor atom, score
      L1  H    12    25       P1  8028  0.84
      P1  H  7989  7998       L1    11  1.00
      L1  C     5    23       P1  8028  1.00

> <Gold.PLP.Chemscore.Internal.Correction>
0.0778

> <Gold.Rescore>
     Score         DG    S(hbond)    S(metal)    S(lipo)     H(rot)  DE(clash)    DE(int)     intcor
      6.05      -6.78       1.29        0.00      38.41       2.93       0.21       0.52       ----

> <Gold.Chemscore.Fitness>
6.0520

> <Gold.Chemscore.DG>
-6.7760

> <Gold.Chemscore.ZeroCoef>
-5.4800

> <Gold.Chemscore.Hbond>
1.2908

> <Gold.Chemscore.Metal>
0.0000

> <Gold.Chemscore.Lipo>
38.4073

> <Gold.Chemscore.Internal_Hbond>
0.0000

> <Gold.Chemscore.DEClash>
0.2083

> <Gold.Chemscore.DEInternal>
0.5157

> <Gold.Chemscore.Rot>
2.9332

> <Gold.Chemscore.Internal.Correction>
   9.000000E+99

> <Gold.Chemscore.Hbonds>
donor molecule, donor type, donor heavy atom, donor atom, acceptor molecule, acceptor atom, score
      L1  H    12    25       P1  8028  0.31
      P1  H  7989  7998       L1    11  0.85

> <Gold.Chemscore.Hbond.Weighted>
-4.3112

> <Gold.Chemscore.Metal.Weighted>
-0.0000

> <Gold.Chemscore.Lipo.Weighted>
-4.4936

> <Gold.Chemscore.Internal_Hbond.Weighted>
0.0000

> <Gold.Chemscore.DEClash.Weighted>
0.2083

> <Gold.Chemscore.DEInternal.Weighted>
0.5157

> <Gold.Chemscore.Rot.Weighted>
7.5089

> <Gold.Chemscore.Internal.Correction.Weighted>
   9.000000E+99

> <Gold.Protein.RotatedTorsions>
[ 6907 6896 6895 6894 ] final  -57.81 input  -60.11 | X-H torsion
[ 7974 7965 7964 7962 ] final  -51.47 input  175.53 | X-H torsion
[ 8008 7997 7996 7995 ] final   72.24 input   59.86 | X-H torsion
[ 10167 10162 10161 10158 ] final  -73.71 input  -65.29 | X-H torsion
[ 10718 10713 10712 10709 ] final  178.57 input   66.30 | X-H torsion
[ 10763 10752 10751 10750 ] final -153.95 input  -60.55 | X-H torsion
[ 11005 11000 10999 10996 ] final -117.90 input  -57.11 | X-H torsion

> <Gold.Protein.ActiveResidues>
 VAL166  LYS551  ARG553  GLY616  TRP617  ASP618  TYR619  PRO620  LYS621  CYS622 
 ASP623  PHE694  ASN695  SER759  ASP760  ASP761  ALA762  ILE779  LEU786  VAL792 
 PHE793  MET794  SER795  GLU796  ALA797  LYS798  CYS799  TRP800  GLU811  SER814 

> <Gold.Protein.RotatedAtoms>
  150.8057  134.7180  159.6641 H   0  0  0  0  0  0  0  0  0  0  0  0  # atno 6907 bound_to 6896
  152.4176  134.6011  160.0010 H   0  0  0  0  0  0  0  0  0  0  0  0  # atno 6908 bound_to 6896
  151.6235  133.3300  159.3129 H   0  0  0  0  0  0  0  0  0  0  0  0  # atno 6909 bound_to 6896
  145.9186  140.7853  142.9659 H   0  0  0  0  0  0  0  0  0  0  0  0  # atno 7974 bound_to 7965
  155.7658  140.3485  155.5221 H   0  0  0  0  0  0  0  0  0  0  0  0  # atno 8008 bound_to 7997
  155.8869  140.1011  157.1466 H   0  0  0  0  0  0  0  0  0  0  0  0  # atno 8009 bound_to 7997
  154.4030  140.1311  156.4254 H   0  0  0  0  0  0  0  0  0  0  0  0  # atno 8010 bound_to 7997
  140.5088  143.2348  151.7629 H   0  0  0  0  0  0  0  0  0  0  0  0  # atno 10167 bound_to 10162
  156.8886  130.9839  151.3052 H   0  0  0  0  0  0  0  0  0  0  0  0  # atno 10718 bound_to 10713
  154.7892  135.3201  154.7816 H   0  0  0  0  0  0  0  0  0  0  0  0  # atno 10763 bound_to 10752
  153.8509  135.6862  153.4797 H   0  0  0  0  0  0  0  0  0  0  0  0  # atno 10764 bound_to 10752
  153.1556  135.4681  154.9639 H   0  0  0  0  0  0  0  0  0  0  0  0  # atno 10765 bound_to 10752
  141.0323  133.9962  157.3124 H   0  0  0  0  0  0  0  0  0  0  0  0  # atno 11005 bound_to 11000
  144.6750  140.1939  143.7394 LP  0  0  0  0  0  0  0  0  0  0  0  0  # atno 17320 bound_to 7965
  145.8579  139.2208  143.1734 LP  0  0  0  0  0  0  0  0  0  0  0  0  # atno 17321 bound_to 7965
  139.4890  144.4420  151.9754 LP  0  0  0  0  0  0  0  0  0  0  0  0  # atno 17342 bound_to 10162
  140.3511  144.3087  150.5949 LP  0  0  0  0  0  0  0  0  0  0  0  0  # atno 17343 bound_to 10162
  157.6097  130.8574  149.8932 LP  0  0  0  0  0  0  0  0  0  0  0  0  # atno 17370 bound_to 10713
  156.0641  130.3695  150.0918 LP  0  0  0  0  0  0  0  0  0  0  0  0  # atno 17371 bound_to 10713
  139.9216  135.0200  156.8086 LP  0  0  0  0  0  0  0  0  0  0  0  0  # atno 17394 bound_to 11000
  140.6384  133.9841  155.7695 LP  0  0  0  0  0  0  0  0  0  0  0  0  # atno 17395 bound_to 11000

$$$$
