AV-unprocessed.smi:3046|AV-procd|sdf|11613|dock5
  -GOLD-   2272016593D 1   1.00000     0.00000
 Structure written by MMmdl.
 38 38  0  0  0  0  0  0  0  0  2 V2000
  152.0090  139.0091  155.0937 C   0  0  0  0  0  0  0  0  0  0  0  0
  150.9256  138.6259  154.4017 C   0  0  0  0  0  0  0  0  0  0  0  0
  149.5984  139.3531  154.4149 C   0  0  0  0  0  0  0  0  0  0  0  0
  148.6641  138.7261  153.4918 N   0  0  0  0  0  0  0  0  0  0  0  0
  147.4035  139.1384  153.2931 C   0  0  0  0  0  0  0  0  0  0  0  0
  146.9118  140.1049  153.8775 O   0  0  0  0  0  0  0  0  0  0  0  0
  146.5788  138.3449  152.2726 C   0  0  2  0  0  0  0  0  0  0  0  0
  146.4979  139.1172  150.9436 C   0  0  0  0  0  0  0  0  0  0  0  0
  145.2242  138.0682  152.8074 N   0  3  0  0  0  0  0  0  0  0  0  0
  144.5087  136.9161  152.2134 C   0  0  2  0  0  0  0  0  0  0  0  0
  143.1513  136.7464  152.9157 C   0  0  0  0  0  0  0  0  0  0  0  0
  145.3747  135.6369  152.2895 C   0  0  0  0  0  0  0  0  0  0  0  0
  144.8384  134.5373  151.5076 N   0  0  0  0  0  0  0  0  0  0  0  0
  144.7669  134.4136  150.1358 C   0  0  0  0  0  0  0  0  0  0  0  0
  144.1697  133.2154  149.8671 C   0  0  0  0  0  0  0  0  0  0  0  0
  143.9010  132.6747  151.1555 C   0  0  0  0  0  0  0  0  0  0  0  0
  144.2982  133.4706  152.1355 N   0  0  0  0  0  0  0  0  0  0  0  0
  151.9951  139.8907  155.7180 H   0  0  0  0  0  0  0  0  0  0  0  0
  152.9274  138.4427  155.0440 H   0  0  0  0  0  0  0  0  0  0  0  0
  150.9792  137.7356  153.7921 H   0  0  0  0  0  0  0  0  0  0  0  0
  149.1931  139.3216  155.4271 H   0  0  0  0  0  0  0  0  0  0  0  0
  149.7384  140.4021  154.1486 H   0  0  0  0  0  0  0  0  0  0  0  0
  149.0002  137.9302  152.9687 H   0  0  0  0  0  0  0  0  0  0  0  0
  147.0945  137.3996  152.1015 H   0  0  0  0  0  0  0  0  0  0  0  0
  147.4920  139.3411  150.5542 H   0  0  0  0  0  0  0  0  0  0  0  0
  145.9689  140.0638  151.0631 H   0  0  0  0  0  0  0  0  0  0  0  0
  145.9778  138.5437  150.1765 H   0  0  0  0  0  0  0  0  0  0  0  0
  145.3020  137.9042  153.8011 H   0  0  0  0  0  0  0  0  0  0  0  0
  144.3021  137.1418  151.1669 H   0  0  0  0  0  0  0  0  0  0  0  0
  142.5548  135.9593  152.4537 H   0  0  0  0  0  0  0  0  0  0  0  0
  142.5660  137.6649  152.8622 H   0  0  0  0  0  0  0  0  0  0  0  0
  143.2779  136.4931  153.9689 H   0  0  0  0  0  0  0  0  0  0  0  0
  146.3891  135.8273  151.9390 H   0  0  0  0  0  0  0  0  0  0  0  0
  145.4636  135.3078  153.3257 H   0  0  0  0  0  0  0  0  0  0  0  0
  145.1435  135.1781  149.4721 H   0  0  0  0  0  0  0  0  0  0  0  0
  143.9543  132.7911  148.8975 H   0  0  0  0  0  0  0  0  0  0  0  0
  143.4305  131.7352  151.4060 H   0  0  0  0  0  0  0  0  0  0  0  0
  144.6702  138.9016  152.6706 H   0  0  0  0  0  0  0  0  0  0  0  0
  1  2  2  0  0  0  0
  1 18  1  0  0  0  0
  1 19  1  0  0  0  0
  2  3  1  0  0  0  0
  2 20  1  0  0  0  0
  3  4  1  0  0  0  0
  3 21  1  0  0  0  0
  3 22  1  0  0  0  0
  4  5  1  0  0  0  0
  4 23  1  0  0  0  0
  5  6  2  0  0  0  0
  5  7  1  0  0  0  0
  7  8  1  0  0  0  0
  7  9  1  0  0  0  0
  7 24  1  0  0  0  0
  8 25  1  0  0  0  0
  8 26  1  0  0  0  0
  8 27  1  0  0  0  0
  9 10  1  0  0  0  0
  9 28  1  0  0  0  0
  9 38  1  0  0  0  0
 10 11  1  0  0  0  0
 10 12  1  0  0  0  0
 10 29  1  0  0  0  0
 11 30  1  0  0  0  0
 11 31  1  0  0  0  0
 11 32  1  0  0  0  0
 12 13  1  0  0  0  0
 12 33  1  0  0  0  0
 12 34  1  0  0  0  0
 13 17  1  0  0  0  0
 13 14  1  0  0  0  0
 14 15  2  0  0  0  0
 14 35  1  0  0  0  0
 15 16  1  0  0  0  0
 15 36  1  0  0  0  0
 16 17  2  0  0  0  0
 16 37  1  0  0  0  0
M  CHG  1   9   1
M  END
> <s_m_source_file>
AV-unprocessed.smi

> <i_m_source_file_index>
3046

> <i_lp_mmshare_version>
43012

> <i_f3d_flags>
0

> <s_epik_input>
W0NIMl09W0NIXVtDSDJdW05IXUMoPU8pW0NASF0oW0NIM10pW05IXVtDQEhdKFtDSDNdKVtDSDJdbjFbY0hdW2NIXVtjSF1uMQ==

> <s_epik_cmdline>
J2VwaWtfcHl0aG9uJywgJy1waCcsICc3LjAnLCAnLXRuJywgJzgnLCAnLW1hJywgJzIwMCcsICctbWV0YWxfYmluZGluZycsICctaW1hZScsICc8aW5maWxlLm1hZT4nLCAnLW9tYWUnLCAnPG91dGZpbGUubWFlPic=

> <r_lp_tautomer_probability>
1

> <r_epik_Ionization_Penalty>
0.132961

> <r_epik_Ionization_Penalty_Charging>
0.132956

> <r_epik_Ionization_Penalty_Neutral>
5.00268e-06

> <r_epik_State_Penalty>
0.122332

> <r_epik_Charging_Adjusted_Penalty>
0.255288

> <i_epik_Tot_Q>
1

> <i_epik_Tot_abs_Q>
1

> <r_epik_Metal_State_Penalty>
0.122338

> <b_epik_Metal_Only>
0

> <s_lp_Force_Field>
OPLS_2005

> <r_lp_Energy>
6.28532

> <b_lp_Chiralities_Consistent>
1

> <s_lp_Variant>
AV-unprocessed.smi:3046-1

> <Gold.Version>
5.8.1

> <Gold.Id.Protein>
6NUR|6NUR_protein|mol2

> <Gold.PLP.Fitness>
43.7703

> <Gold.PLP.PLP>
-33.3225

> <Gold.PLP.part.hbond>
-3.0000

> <Gold.PLP.part.metal>
0.0000

> <Gold.PLP.part.buried>
2.3103

> <Gold.PLP.part.nonpolar>
-31.6043

> <Gold.PLP.part.repulsive>
0.3347

> <Gold.PLP.ligand.clash>
0.0000

> <Gold.PLP.ligand.torsion>
0.8014

> <Gold.PLP.Chemscore.Hbond>
3.0000

> <Gold.PLP.Chemscore.CHOScore>
1.0000

> <Gold.PLP.Chemscore.Metal>
0.0000

> <Gold.Chemscore.Hbonds>
donor molecule, donor type, donor heavy atom, donor atom, acceptor molecule, acceptor atom, score
      L1  H     4    23       P1  7948  1.00
      L1  H     9    38       P1 10175  2.00
      L1  C    14    35       P1  7921  0.91

> <Gold.PLP.Chemscore.Internal.Correction>
0.0507

> <Gold.Rescore>
     Score         DG    S(hbond)    S(metal)    S(lipo)     H(rot)  DE(clash)    DE(int)     intcor
     13.46     -15.44       1.99        0.00      77.68       2.26       1.28       0.70       ----

> <Gold.Chemscore.Fitness>
13.4591

> <Gold.Chemscore.DG>
-15.4388

> <Gold.Chemscore.ZeroCoef>
-5.4800

> <Gold.Chemscore.Hbond>
1.9946

> <Gold.Chemscore.Metal>
0.0000

> <Gold.Chemscore.Lipo>
77.6840

> <Gold.Chemscore.Internal_Hbond>
0.0000

> <Gold.Chemscore.DEClash>
1.2760

> <Gold.Chemscore.DEInternal>
0.7037

> <Gold.Chemscore.Rot>
2.2626

> <Gold.Chemscore.Internal.Correction>
   9.000000E+99

> <Gold.Chemscore.Hbonds>
donor molecule, donor type, donor heavy atom, donor atom, acceptor molecule, acceptor atom, score
      L1  H     4    23       P1  7948  0.95
      L1  H     9    38       P1 10175  1.00

> <Gold.Chemscore.Hbond.Weighted>
-6.6619

> <Gold.Chemscore.Metal.Weighted>
-0.0000

> <Gold.Chemscore.Lipo.Weighted>
-9.0890

> <Gold.Chemscore.Internal_Hbond.Weighted>
0.0000

> <Gold.Chemscore.DEClash.Weighted>
1.2760

> <Gold.Chemscore.DEInternal.Weighted>
0.7037

> <Gold.Chemscore.Rot.Weighted>
5.7922

> <Gold.Chemscore.Internal.Correction.Weighted>
   9.000000E+99

> <Gold.Protein.RotatedTorsions>
[ 6907 6896 6895 6894 ] final  159.23 input  -60.11 | X-H torsion
[ 7974 7965 7964 7962 ] final  -69.32 input  175.53 | X-H torsion
[ 8008 7997 7996 7995 ] final  106.41 input   59.86 | X-H torsion
[ 10167 10162 10161 10158 ] final  -80.77 input  -65.29 | X-H torsion
[ 10718 10713 10712 10709 ] final   32.48 input   66.30 | X-H torsion
[ 10763 10752 10751 10750 ] final -171.85 input  -60.55 | X-H torsion
[ 11005 11000 10999 10996 ] final  120.96 input  -57.11 | X-H torsion

> <Gold.Protein.ActiveResidues>
 VAL166  LYS551  ARG553  GLY616  TRP617  ASP618  TYR619  PRO620  LYS621  CYS622 
 ASP623  PHE694  ASN695  SER759  ASP760  ASP761  ALA762  ILE779  LEU786  VAL792 
 PHE793  MET794  SER795  GLU796  ALA797  LYS798  CYS799  TRP800  GLU811  SER814 

> <Gold.Protein.RotatedAtoms>
  151.9887  133.3783  159.4135 H   0  0  0  0  0  0  0  0  0  0  0  0  # atno 6907 bound_to 6896
  150.6925  134.3961  159.5107 H   0  0  0  0  0  0  0  0  0  0  0  0  # atno 6908 bound_to 6896
  152.1690  134.8849  160.0586 H   0  0  0  0  0  0  0  0  0  0  0  0  # atno 6909 bound_to 6896
  145.7052  140.9100  143.0710 H   0  0  0  0  0  0  0  0  0  0  0  0  # atno 7974 bound_to 7965
  156.1740  140.3113  155.9026 H   0  0  0  0  0  0  0  0  0  0  0  0  # atno 8008 bound_to 7997
  155.3526  140.0472  157.3063 H   0  0  0  0  0  0  0  0  0  0  0  0  # atno 8009 bound_to 7997
  154.5271  140.2218  155.8881 H   0  0  0  0  0  0  0  0  0  0  0  0  # atno 8010 bound_to 7997
  140.4473  143.2494  151.8540 H   0  0  0  0  0  0  0  0  0  0  0  0  # atno 10167 bound_to 10162
  157.2858  130.7277  149.6582 H   0  0  0  0  0  0  0  0  0  0  0  0  # atno 10718 bound_to 10713
  154.6259  135.2881  155.0272 H   0  0  0  0  0  0  0  0  0  0  0  0  # atno 10763 bound_to 10752
  154.1450  135.6512  153.4954 H   0  0  0  0  0  0  0  0  0  0  0  0  # atno 10764 bound_to 10752
  153.0257  135.5342  154.7067 H   0  0  0  0  0  0  0  0  0  0  0  0  # atno 10765 bound_to 10752
  139.9206  134.9637  156.7886 H   0  0  0  0  0  0  0  0  0  0  0  0  # atno 11005 bound_to 11000
  144.6957  139.9001  143.7458 LP  0  0  0  0  0  0  0  0  0  0  0  0  # atno 17320 bound_to 7965
  146.0762  139.3750  143.0493 LP  0  0  0  0  0  0  0  0  0  0  0  0  # atno 17321 bound_to 7965
  139.4794  144.5161  151.8866 LP  0  0  0  0  0  0  0  0  0  0  0  0  # atno 17342 bound_to 10162
  140.4249  144.2194  150.5887 LP  0  0  0  0  0  0  0  0  0  0  0  0  # atno 17343 bound_to 10162
  155.9665  130.4324  150.4962 LP  0  0  0  0  0  0  0  0  0  0  0  0  # atno 17370 bound_to 10713
  157.2915  131.0627  151.2131 LP  0  0  0  0  0  0  0  0  0  0  0  0  # atno 17371 bound_to 10713
  140.6485  133.9753  155.7743 LP  0  0  0  0  0  0  0  0  0  0  0  0  # atno 17394 bound_to 11000
  141.0724  134.0186  157.3507 LP  0  0  0  0  0  0  0  0  0  0  0  0  # atno 17395 bound_to 11000

$$$$
