AV-unprocessed.smi:1615|AV-procd|sdf|6481|dock6
  -GOLD-   22720 7143D 1   1.00000     0.00000
 Structure written by MMmdl.
 32 33  0  0  0  0  0  0  0  0  1 V2000
  154.7167  141.3938  161.6276 O   0  0  0  0  0  0  0  0  0  0  0  0
  154.1326  140.9228  160.6524 C   0  0  0  0  0  0  0  0  0  0  0  0
  154.2035  139.4212  160.3734 C   0  0  0  0  0  0  0  0  0  0  0  0
  154.6184  138.6903  161.5578 N   0  0  0  0  0  0  0  0  0  0  0  0
  154.0705  137.5360  162.0852 C   0  0  0  0  0  0  0  0  0  0  0  0
  154.8076  137.2591  163.1957 C   0  0  0  0  0  0  0  0  0  0  0  0
  154.5683  135.7929  164.3838 Br  0  0  0  0  0  0  0  0  0  0  0  0
  155.7872  138.2797  163.2919 C   0  0  0  0  0  0  0  0  0  0  0  0
  155.6662  139.1432  162.2942 N   0  0  0  0  0  0  0  0  0  0  0  0
  153.4091  141.6545  159.7899 N   0  0  0  0  0  0  0  0  0  0  0  0
  153.1695  143.0921  159.8750 C   0  0  0  0  0  0  0  0  0  0  0  0
  152.4399  143.4148  161.1928 C   0  0  0  0  0  0  0  0  0  0  0  0
  152.0803  144.9063  161.2875 C   0  0  0  0  0  0  0  0  0  0  0  0
  151.2531  145.3581  160.0738 C   0  0  0  0  0  0  0  0  0  0  0  0
  151.9865  145.0488  158.7593 C   0  0  0  0  0  0  0  0  0  0  0  0
  152.3462  143.5574  158.6585 C   0  0  0  0  0  0  0  0  0  0  0  0
  153.2291  139.0505  160.0521 H   0  0  0  0  0  0  0  0  0  0  0  0
  154.9048  139.2250  159.5607 H   0  0  0  0  0  0  0  0  0  0  0  0
  153.2279  137.0296  161.6380 H   0  0  0  0  0  0  0  0  0  0  0  0
  156.5617  138.4203  164.0313 H   0  0  0  0  0  0  0  0  0  0  0  0
  152.9742  141.1725  159.0167 H   0  0  0  0  0  0  0  0  0  0  0  0
  154.1156  143.6364  159.8714 H   0  0  0  0  0  0  0  0  0  0  0  0
  151.5285  142.8198  161.2668 H   0  0  0  0  0  0  0  0  0  0  0  0
  153.0626  143.1323  162.0427 H   0  0  0  0  0  0  0  0  0  0  0  0
  151.5267  145.0975  162.2070 H   0  0  0  0  0  0  0  0  0  0  0  0
  152.9939  145.4991  161.3476 H   0  0  0  0  0  0  0  0  0  0  0  0
  150.2859  144.8539  160.0813 H   0  0  0  0  0  0  0  0  0  0  0  0
  151.0455  146.4264  160.1417 H   0  0  0  0  0  0  0  0  0  0  0  0
  151.3676  145.3401  157.9104 H   0  0  0  0  0  0  0  0  0  0  0  0
  152.8958  145.6483  158.6991 H   0  0  0  0  0  0  0  0  0  0  0  0
  152.9038  143.3754  157.7388 H   0  0  0  0  0  0  0  0  0  0  0  0
  151.4294  142.9707  158.5855 H   0  0  0  0  0  0  0  0  0  0  0  0
  1  2  2  0  0  0  0
  2  3  1  0  0  0  0
  2 10  1  0  0  0  0
  3  4  1  0  0  0  0
  3 17  1  0  0  0  0
  3 18  1  0  0  0  0
  4  9  1  0  0  0  0
  4  5  1  0  0  0  0
  5  6  2  0  0  0  0
  5 19  1  0  0  0  0
  6  7  1  0  0  0  0
  6  8  1  0  0  0  0
  8  9  2  0  0  0  0
  8 20  1  0  0  0  0
 10 11  1  0  0  0  0
 10 21  1  0  0  0  0
 11 16  1  0  0  0  0
 11 12  1  0  0  0  0
 11 22  1  0  0  0  0
 12 13  1  0  0  0  0
 12 23  1  0  0  0  0
 12 24  1  0  0  0  0
 13 14  1  0  0  0  0
 13 25  1  0  0  0  0
 13 26  1  0  0  0  0
 14 15  1  0  0  0  0
 14 27  1  0  0  0  0
 14 28  1  0  0  0  0
 15 16  1  0  0  0  0
 15 29  1  0  0  0  0
 15 30  1  0  0  0  0
 16 31  1  0  0  0  0
 16 32  1  0  0  0  0
M  END
> <s_m_source_file>
AV-unprocessed.smi

> <i_m_source_file_index>
1615

> <i_lp_mmshare_version>
43012

> <i_f3d_flags>
0

> <s_epik_input>
bjFbY0hdYyhCcilbY0hdbjFbQ0gyXUMoPU8pW05IXVtDSF0yW0NIMl1bQ0gyXVtDSDJdW0NIMl1bQ0gyXTI=

> <s_epik_cmdline>
J2VwaWtfcHl0aG9uJywgJy1waCcsICc3LjAnLCAnLXRuJywgJzgnLCAnLW1hJywgJzIwMCcsICctbWV0YWxfYmluZGluZycsICctaW1hZScsICc8aW5maWxlLm1hZT4nLCAnLW9tYWUnLCAnPG91dGZpbGUubWFlPic=

> <r_lp_tautomer_probability>
1

> <r_epik_Ionization_Penalty>
2.45271e-07

> <r_epik_Ionization_Penalty_Charging>
0

> <r_epik_Ionization_Penalty_Neutral>
2.45271e-07

> <r_epik_State_Penalty>
-0

> <r_epik_Charging_Adjusted_Penalty>
0

> <i_epik_Tot_Q>
0

> <i_epik_Tot_abs_Q>
0

> <r_epik_Metal_State_Penalty>
-0

> <b_epik_Metal_Only>
0

> <s_lp_Force_Field>
OPLS_2005

> <r_lp_Energy>
11.9835

> <b_lp_Chiralities_Consistent>
1

> <s_lp_Variant>
AV-unprocessed.smi:1615-1

> <Gold.Version>
5.8.1

> <Gold.Id.Protein>
6NUR|6NUR_protein|mol2

> <Gold.PLP.Fitness>
42.0456

> <Gold.PLP.PLP>
-42.9005

> <Gold.PLP.part.hbond>
-1.0000

> <Gold.PLP.part.metal>
0.0000

> <Gold.PLP.part.buried>
-3.7148

> <Gold.PLP.part.nonpolar>
-38.2837

> <Gold.PLP.part.repulsive>
0.0661

> <Gold.PLP.ligand.clash>
0.0000

> <Gold.PLP.ligand.torsion>
0.4289

> <Gold.PLP.Chemscore.Hbond>
0.0000

> <Gold.PLP.Chemscore.CHOScore>
0.0000

> <Gold.PLP.Chemscore.Metal>
0.0000

> <Gold.PLP.Chemscore.Internal.Correction>
0.0030

> <Gold.Rescore>
     Score         DG    S(hbond)    S(metal)    S(lipo)     H(rot)  DE(clash)    DE(int)     intcor
     13.30     -15.12       0.00        0.00     112.92       1.40       0.07       1.74       ----

> <Gold.Chemscore.Fitness>
13.3023

> <Gold.Chemscore.DG>
-15.1166

> <Gold.Chemscore.ZeroCoef>
-5.4800

> <Gold.Chemscore.Hbond>
0.0000

> <Gold.Chemscore.Metal>
0.0000

> <Gold.Chemscore.Lipo>
112.9158

> <Gold.Chemscore.Internal_Hbond>
0.0000

> <Gold.Chemscore.DEClash>
0.0718

> <Gold.Chemscore.DEInternal>
1.7425

> <Gold.Chemscore.Rot>
1.3963

> <Gold.Chemscore.Internal.Correction>
   9.000000E+99

> <Gold.Chemscore.Hbond.Weighted>
-0.0000

> <Gold.Chemscore.Metal.Weighted>
-0.0000

> <Gold.Chemscore.Lipo.Weighted>
-13.2112

> <Gold.Chemscore.Internal_Hbond.Weighted>
0.0000

> <Gold.Chemscore.DEClash.Weighted>
0.0718

> <Gold.Chemscore.DEInternal.Weighted>
1.7425

> <Gold.Chemscore.Rot.Weighted>
3.5746

> <Gold.Chemscore.Internal.Correction.Weighted>
   9.000000E+99

> <Gold.Protein.RotatedTorsions>
[ 6907 6896 6895 6894 ] final   61.78 input  -60.11 | X-H torsion
[ 7974 7965 7964 7962 ] final   48.97 input  175.53 | X-H torsion
[ 8008 7997 7996 7995 ] final  116.12 input   59.86 | X-H torsion
[ 10167 10162 10161 10158 ] final  -37.47 input  -65.29 | X-H torsion
[ 10718 10713 10712 10709 ] final  174.36 input   66.30 | X-H torsion
[ 10763 10752 10751 10750 ] final -160.97 input  -60.55 | X-H torsion
[ 11005 11000 10999 10996 ] final -117.66 input  -57.11 | X-H torsion

> <Gold.Protein.ActiveResidues>
 VAL166  LYS551  ARG553  GLY616  TRP617  ASP618  TYR619  PRO620  LYS621  CYS622 
 ASP623  PHE694  ASN695  SER759  ASP760  ASP761  ALA762  ILE779  LEU786  VAL792 
 PHE793  MET794  SER795  GLU796  ALA797  LYS798  CYS799  TRP800  GLU811  SER814 

> <Gold.Protein.RotatedAtoms>
  152.4117  134.6113  160.0026 H   0  0  0  0  0  0  0  0  0  0  0  0  # atno 6907 bound_to 6896
  151.6288  133.3328  159.3112 H   0  0  0  0  0  0  0  0  0  0  0  0  # atno 6908 bound_to 6896
  150.8008  134.7140  159.6664 H   0  0  0  0  0  0  0  0  0  0  0  0  # atno 6909 bound_to 6896
  146.0154  139.4590  142.9930 H   0  0  0  0  0  0  0  0  0  0  0  0  # atno 7974 bound_to 7965
  156.2421  140.2924  156.0474 H   0  0  0  0  0  0  0  0  0  0  0  0  # atno 8008 bound_to 7997
  155.1919  140.0407  157.2919 H   0  0  0  0  0  0  0  0  0  0  0  0  # atno 8009 bound_to 7997
  154.6188  140.2470  155.7582 H   0  0  0  0  0  0  0  0  0  0  0  0  # atno 8010 bound_to 7997
  140.7117  143.3339  151.2506 H   0  0  0  0  0  0  0  0  0  0  0  0  # atno 10167 bound_to 10162
  156.9507  131.0030  151.2949 H   0  0  0  0  0  0  0  0  0  0  0  0  # atno 10718 bound_to 10713
  154.7344  135.3054  154.8837 H   0  0  0  0  0  0  0  0  0  0  0  0  # atno 10763 bound_to 10752
  153.9670  135.6746  153.4750 H   0  0  0  0  0  0  0  0  0  0  0  0  # atno 10764 bound_to 10752
  153.0948  135.4941  154.8681 H   0  0  0  0  0  0  0  0  0  0  0  0  # atno 10765 bound_to 10752
  141.0340  133.9938  157.3100 H   0  0  0  0  0  0  0  0  0  0  0  0  # atno 11005 bound_to 11000
  145.7277  141.0053  143.1368 LP  0  0  0  0  0  0  0  0  0  0  0  0  # atno 17320 bound_to 7965
  144.6969  139.8947  143.7455 LP  0  0  0  0  0  0  0  0  0  0  0  0  # atno 17321 bound_to 7965
  139.6829  143.9823  152.2818 LP  0  0  0  0  0  0  0  0  0  0  0  0  # atno 17342 bound_to 10162
  139.9459  144.6652  150.8220 LP  0  0  0  0  0  0  0  0  0  0  0  0  # atno 17343 bound_to 10162
  157.5724  130.8319  149.8409 LP  0  0  0  0  0  0  0  0  0  0  0  0  # atno 17370 bound_to 10713
  156.0364  130.3750  150.1549 LP  0  0  0  0  0  0  0  0  0  0  0  0  # atno 17371 bound_to 10713
  139.9227  135.0201  156.8124 LP  0  0  0  0  0  0  0  0  0  0  0  0  # atno 17394 bound_to 11000
  140.6356  133.9865  155.7683 LP  0  0  0  0  0  0  0  0  0  0  0  0  # atno 17395 bound_to 11000

$$$$
