AV-unprocessed.smi:1405|AV-procd|sdf|5707|dock3
  -GOLD-   22720 5343D 1   1.00000     0.00000
 Structure written by MMmdl.
 49 52  0  0  0  0  0  0  0  0  1 V2000
  148.5958  133.6433  155.8789 O   0  0  0  0  0  0  0  0  0  0  0  0
  148.8788  133.9741  154.7279 C   0  0  0  0  0  0  0  0  0  0  0  0
  148.9540  132.8919  153.6366 C   0  0  0  0  0  0  0  0  0  0  0  0
  147.6870  132.6340  152.9317 N   0  0  0  0  0  0  0  0  0  0  0  0
  147.1104  133.6226  152.1466 C   0  0  0  0  0  0  0  0  0  0  0  0
  145.9513  133.4536  151.4670 C   0  0  0  0  0  0  0  0  0  0  0  0
  145.2350  132.1844  151.5321 C   0  0  0  0  0  0  0  0  0  0  0  0
  144.1801  131.9347  150.9531 O   0  0  0  0  0  0  0  0  0  0  0  0
  145.8471  131.2147  152.3307 N   0  0  0  0  0  0  0  0  0  0  0  0
  147.0416  131.3816  153.0330 C   0  0  0  0  0  0  0  0  0  0  0  0
  147.4994  130.4568  153.7029 O   0  0  0  0  0  0  0  0  0  0  0  0
  149.1310  135.2476  154.3799 N   0  0  0  0  0  0  0  0  0  0  0  0
  149.1310  136.3862  155.2893 C   0  0  0  0  0  0  0  0  0  0  0  0
  150.2805  137.3607  154.9579 C   0  0  0  0  0  0  0  0  0  0  0  0
  150.2636  138.7214  155.7003 C   0  0  0  0  0  0  0  0  0  0  0  0
  149.1567  139.6616  155.1499 C   0  0  0  0  0  0  0  0  0  0  0  0
  149.1296  140.9853  155.9450 C   0  0  2  0  0  0  0  0  0  0  0  0
  150.4964  141.6911  155.8193 C   0  0  0  0  0  0  0  0  0  0  0  0
  151.5978  140.7738  156.3921 C   0  0  1  0  0  0  0  0  0  0  0  0
  151.3066  140.4813  157.8781 C   0  0  0  0  0  0  0  0  0  0  0  0
  149.9385  139.7791  157.9963 C   0  0  1  0  0  0  0  0  0  0  0  0
  148.8327  140.6932  157.4300 C   0  0  0  0  0  0  0  0  0  0  0  0
  149.9691  138.4567  157.2019 C   0  0  0  0  0  0  0  0  0  0  0  0
  151.6316  139.4494  155.5983 C   0  0  0  0  0  0  0  0  0  0  0  0
  145.3877  130.3186  152.4051 H   0  0  0  0  0  0  0  0  0  0  0  0
  149.7330  133.1692  152.9238 H   0  0  0  0  0  0  0  0  0  0  0  0
  149.3133  131.9726  154.1012 H   0  0  0  0  0  0  0  0  0  0  0  0
  147.6084  134.5786  152.0664 H   0  0  0  0  0  0  0  0  0  0  0  0
  145.5524  134.2618  150.8711 H   0  0  0  0  0  0  0  0  0  0  0  0
  149.3564  135.4359  153.4139 H   0  0  0  0  0  0  0  0  0  0  0  0
  148.1662  136.8811  155.1859 H   0  0  0  0  0  0  0  0  0  0  0  0
  149.1928  136.0307  156.3180 H   0  0  0  0  0  0  0  0  0  0  0  0
  151.2299  136.8640  155.1641 H   0  0  0  0  0  0  0  0  0  0  0  0
  150.2748  137.5454  153.8825 H   0  0  0  0  0  0  0  0  0  0  0  0
  149.3274  139.8862  154.0972 H   0  0  0  0  0  0  0  0  0  0  0  0
  148.1826  139.1735  155.2048 H   0  0  0  0  0  0  0  0  0  0  0  0
  148.3505  141.6328  155.5415 H   0  0  0  0  0  0  0  0  0  0  0  0
  150.7057  141.9273  154.7752 H   0  0  0  0  0  0  0  0  0  0  0  0
  150.4811  142.6423  156.3530 H   0  0  0  0  0  0  0  0  0  0  0  0
  152.5642  141.2713  156.3051 H   0  0  0  0  0  0  0  0  0  0  0  0
  152.0924  139.8538  158.3009 H   0  0  0  0  0  0  0  0  0  0  0  0
  151.3076  141.4076  158.4541 H   0  0  0  0  0  0  0  0  0  0  0  0
  149.7305  139.5667  159.0455 H   0  0  0  0  0  0  0  0  0  0  0  0
  148.7835  141.6238  157.9969 H   0  0  0  0  0  0  0  0  0  0  0  0
  147.8573  140.2163  157.5340 H   0  0  0  0  0  0  0  0  0  0  0  0
  149.0155  137.9389  157.3154 H   0  0  0  0  0  0  0  0  0  0  0  0
  150.7254  137.7932  157.6241 H   0  0  0  0  0  0  0  0  0  0  0  0
  152.4304  138.8093  155.9750 H   0  0  0  0  0  0  0  0  0  0  0  0
  151.8774  139.6676  154.5589 H   0  0  0  0  0  0  0  0  0  0  0  0
  1  2  2  0  0  0  0
  2  3  1  0  0  0  0
  2 12  1  0  0  0  0
  3  4  1  0  0  0  0
  3 26  1  0  0  0  0
  3 27  1  0  0  0  0
  4 10  1  0  0  0  0
  4  5  1  0  0  0  0
  5  6  2  0  0  0  0
  5 28  1  0  0  0  0
  6  7  1  0  0  0  0
  6 29  1  0  0  0  0
  7  8  2  0  0  0  0
  7  9  1  0  0  0  0
  9 25  1  0  0  0  0
  9 10  1  0  0  0  0
 10 11  2  0  0  0  0
 12 13  1  0  0  0  0
 12 30  1  0  0  0  0
 13 14  1  0  0  0  0
 13 31  1  0  0  0  0
 13 32  1  0  0  0  0
 14 15  1  0  0  0  0
 14 33  1  0  0  0  0
 14 34  1  0  0  0  0
 15 23  1  0  0  0  0
 15 24  1  0  0  0  0
 15 16  1  0  0  0  0
 16 17  1  0  0  0  0
 16 35  1  0  0  0  0
 16 36  1  0  0  0  0
 17 22  1  0  0  0  0
 17 18  1  0  0  0  0
 17 37  1  0  0  0  0
 18 19  1  0  0  0  0
 18 38  1  0  0  0  0
 18 39  1  0  0  0  0
 19 20  1  0  0  0  0
 19 24  1  0  0  0  0
 19 40  1  0  0  0  0
 20 21  1  0  0  0  0
 20 41  1  0  0  0  0
 20 42  1  0  0  0  0
 21 22  1  0  0  0  0
 21 23  1  0  0  0  0
 21 43  1  0  0  0  0
 22 44  1  0  0  0  0
 22 45  1  0  0  0  0
 23 46  1  0  0  0  0
 23 47  1  0  0  0  0
 24 48  1  0  0  0  0
 24 49  1  0  0  0  0
M  END
> <s_m_source_file>
AV-unprocessed.smi

> <i_m_source_file_index>
1405

> <i_lp_mmshare_version>
43012

> <i_f3d_flags>
0

> <s_epik_input>
Tz1jMVtuSF1jKD1PKVtjSF1bY0hdbjFbQ0gyXUMoPU8pW05IXVtDSDJdW0NIMl1DMjNbQ0gyXVtDQEBIXTRbQ0gyXVtDQEhdKFtDSDJdMylbQ0gyXVtDQEBIXShbQ0gyXTQpW0NIMl0y

> <s_epik_cmdline>
J2VwaWtfcHl0aG9uJywgJy1waCcsICc3LjAnLCAnLXRuJywgJzgnLCAnLW1hJywgJzIwMCcsICctbWV0YWxfYmluZGluZycsICctaW1hZScsICc8aW5maWxlLm1hZT4nLCAnLW9tYWUnLCAnPG91dGZpbGUubWFlPic=

> <r_lp_tautomer_probability>
0.999537

> <r_epik_Ionization_Penalty>
0.00301971

> <r_epik_Ionization_Penalty_Charging>
0.00301969

> <r_epik_Ionization_Penalty_Neutral>
2.18059e-08

> <r_epik_State_Penalty>
0.00212114

> <r_epik_Charging_Adjusted_Penalty>
0.00514083

> <i_epik_Tot_Q>
0

> <i_epik_Tot_abs_Q>
0

> <r_epik_Metal_State_Penalty>
0.361473

> <b_epik_Metal_Only>
0

> <s_lp_Force_Field>
OPLS_2005

> <r_lp_Energy>
33.2851

> <b_lp_Chiralities_Consistent>
1

> <s_lp_Variant>
AV-unprocessed.smi:1405-1

> <Gold.Version>
5.8.1

> <Gold.Id.Protein>
6NUR|6NUR_protein|mol2

> <Gold.PLP.Fitness>
38.9829

> <Gold.PLP.PLP>
-34.5476

> <Gold.PLP.part.hbond>
-1.0000

> <Gold.PLP.part.metal>
0.0000

> <Gold.PLP.part.buried>
-6.4962

> <Gold.PLP.part.nonpolar>
-27.7560

> <Gold.PLP.part.repulsive>
0.2843

> <Gold.PLP.ligand.clash>
0.0000

> <Gold.PLP.ligand.torsion>
0.7182

> <Gold.PLP.Chemscore.Hbond>
0.9500

> <Gold.PLP.Chemscore.CHOScore>
1.0000

> <Gold.PLP.Chemscore.Metal>
0.0000

> <Gold.Chemscore.Hbonds>
donor molecule, donor type, donor heavy atom, donor atom, acceptor molecule, acceptor atom, score
      L1  H    12    30       P1  7948  0.95
      L1  C     5    28       P1  7948  1.00

> <Gold.PLP.Chemscore.Internal.Correction>
0.0217

> <Gold.Rescore>
     Score         DG    S(hbond)    S(metal)    S(lipo)     H(rot)  DE(clash)    DE(int)     intcor
     10.37     -11.17       0.86        0.00      71.64       2.18       0.07       0.73       ----

> <Gold.Chemscore.Fitness>
10.3680

> <Gold.Chemscore.DG>
-11.1668

> <Gold.Chemscore.ZeroCoef>
-5.4800

> <Gold.Chemscore.Hbond>
0.8637

> <Gold.Chemscore.Metal>
0.0000

> <Gold.Chemscore.Lipo>
71.6423

> <Gold.Chemscore.Internal_Hbond>
0.0000

> <Gold.Chemscore.DEClash>
0.0699

> <Gold.Chemscore.DEInternal>
0.7289

> <Gold.Chemscore.Rot>
2.1797

> <Gold.Chemscore.Internal.Correction>
   9.000000E+99

> <Gold.Chemscore.Hbonds>
donor molecule, donor type, donor heavy atom, donor atom, acceptor molecule, acceptor atom, score
      L1  H    12    30       P1  7948  0.21

> <Gold.Chemscore.Hbond.Weighted>
-2.8846

> <Gold.Chemscore.Metal.Weighted>
-0.0000

> <Gold.Chemscore.Lipo.Weighted>
-8.3821

> <Gold.Chemscore.Internal_Hbond.Weighted>
0.0000

> <Gold.Chemscore.DEClash.Weighted>
0.0699

> <Gold.Chemscore.DEInternal.Weighted>
0.7289

> <Gold.Chemscore.Rot.Weighted>
5.5799

> <Gold.Chemscore.Internal.Correction.Weighted>
   9.000000E+99

> <Gold.Protein.RotatedTorsions>
[ 6907 6896 6895 6894 ] final    7.57 input  -60.11 | X-H torsion
[ 7974 7965 7964 7962 ] final -165.55 input  175.53 | X-H torsion
[ 8008 7997 7996 7995 ] final  -91.54 input   59.86 | X-H torsion
[ 10167 10162 10161 10158 ] final  -45.41 input  -65.29 | X-H torsion
[ 10718 10713 10712 10709 ] final  -92.89 input   66.30 | X-H torsion
[ 10763 10752 10751 10750 ] final  -40.56 input  -60.55 | X-H torsion
[ 11005 11000 10999 10996 ] final   10.98 input  -57.11 | X-H torsion

> <Gold.Protein.ActiveResidues>
 VAL166  LYS551  ARG553  GLY616  TRP617  ASP618  TYR619  PRO620  LYS621  CYS622 
 ASP623  PHE694  ASN695  SER759  ASP760  ASP761  ALA762  ILE779  LEU786  VAL792 
 PHE793  MET794  SER795  GLU796  ALA797  LYS798  CYS799  TRP800  GLU811  SER814 

> <Gold.Protein.RotatedAtoms>
  151.6921  135.0944  160.0235 H   0  0  0  0  0  0  0  0  0  0  0  0  # atno 6907 bound_to 6896
  152.3772  133.6493  159.6141 H   0  0  0  0  0  0  0  0  0  0  0  0  # atno 6908 bound_to 6896
  150.7718  133.9090  159.3405 H   0  0  0  0  0  0  0  0  0  0  0  0  # atno 6909 bound_to 6896
  144.7267  140.2798  143.6237 H   0  0  0  0  0  0  0  0  0  0  0  0  # atno 7974 bound_to 7965
  154.7119  140.0518  157.0558 H   0  0  0  0  0  0  0  0  0  0  0  0  # atno 8008 bound_to 7997
  155.0543  140.3182  155.4662 H   0  0  0  0  0  0  0  0  0  0  0  0  # atno 8009 bound_to 7997
  156.2792  140.2110  156.5669 H   0  0  0  0  0  0  0  0  0  0  0  0  # atno 8010 bound_to 7997
  140.6859  143.2881  151.3635 H   0  0  0  0  0  0  0  0  0  0  0  0  # atno 10167 bound_to 10162
  156.0007  130.5005  150.5694 H   0  0  0  0  0  0  0  0  0  0  0  0  # atno 10718 bound_to 10713
  153.9480  135.6754  153.4744 H   0  0  0  0  0  0  0  0  0  0  0  0  # atno 10763 bound_to 10752
  153.0898  135.4880  154.8665 H   0  0  0  0  0  0  0  0  0  0  0  0  # atno 10764 bound_to 10752
  154.7341  135.3145  154.8801 H   0  0  0  0  0  0  0  0  0  0  0  0  # atno 10765 bound_to 10752
  140.5084  134.0677  155.7811 H   0  0  0  0  0  0  0  0  0  0  0  0  # atno 11005 bound_to 11000
  145.7961  139.1946  143.2075 LP  0  0  0  0  0  0  0  0  0  0  0  0  # atno 17320 bound_to 7965
  146.0716  140.7863  142.9685 LP  0  0  0  0  0  0  0  0  0  0  0  0  # atno 17321 bound_to 7965
  139.6217  144.0893  152.2397 LP  0  0  0  0  0  0  0  0  0  0  0  0  # atno 17342 bound_to 10162
  140.0340  144.6059  150.7465 LP  0  0  0  0  0  0  0  0  0  0  0  0  # atno 17343 bound_to 10162
  157.3591  131.0747  151.1651 LP  0  0  0  0  0  0  0  0  0  0  0  0  # atno 17370 bound_to 10713
  157.2441  130.6583  149.5902 LP  0  0  0  0  0  0  0  0  0  0  0  0  # atno 17371 bound_to 10713
  141.1399  133.9157  157.2350 LP  0  0  0  0  0  0  0  0  0  0  0  0  # atno 17394 bound_to 11000
  139.9673  135.0138  156.9420 LP  0  0  0  0  0  0  0  0  0  0  0  0  # atno 17395 bound_to 11000

$$$$
