AV-unprocessed.smi:2970|AV-procd|sdf|11331|dock4
  -GOLD-   2272016243D 1   1.00000     0.00000
 Structure written by MMmdl.
 38 39  0  0  0  0  0  0  0  0  1 V2000
  148.3715  137.2578  156.2555 C   0  0  0  0  0  0  0  0  0  0  0  0
  148.1296  138.6067  155.6004 C   0  0  0  0  0  0  0  0  0  0  0  0
  146.9398  139.1993  155.4554 C   0  0  0  0  0  0  0  0  0  0  0  0
  147.0444  140.7291  154.6190 S   0  0  0  0  0  0  0  0  0  0  0  0
  148.8264  140.5300  154.4594 C   0  0  0  0  0  0  0  0  0  0  0  0
  149.5431  141.3601  153.9025 O   0  0  0  0  0  0  0  0  0  0  0  0
  149.2027  139.3278  155.0579 N   0  0  0  0  0  0  0  0  0  0  0  0
  150.5974  138.8693  155.1120 C   0  0  0  0  0  0  0  0  0  0  0  0
  151.5638  139.9244  155.6668 C   0  0  0  0  0  0  0  0  0  0  0  0
  152.6191  140.1880  155.0882 O   0  0  0  0  0  0  0  0  0  0  0  0
  151.1855  140.5159  156.8105 N   0  0  0  0  0  0  0  0  0  0  0  0
  151.9391  141.5436  157.5255 C   0  0  0  0  0  0  0  0  0  0  0  0
  152.4243  140.9754  158.8759 C   0  0  0  0  0  0  0  0  0  0  0  0
  153.2046  141.9623  159.7613 C   0  0  0  0  0  0  0  0  0  0  0  0
  152.2985  143.0108  160.4259 C   0  0  0  0  0  0  0  0  0  0  0  0
  152.0129  144.2664  159.5835 C   0  0  0  0  0  0  0  0  0  0  0  0
  151.8488  144.0570  158.0681 C   0  0  0  0  0  0  0  0  0  0  0  0
  151.0589  142.8046  157.6514 C   0  0  0  0  0  0  0  0  0  0  0  0
  147.4375  136.7003  156.3298 H   0  0  0  0  0  0  0  0  0  0  0  0
  148.7676  137.3909  157.2622 H   0  0  0  0  0  0  0  0  0  0  0  0
  149.0691  136.6488  155.6804 H   0  0  0  0  0  0  0  0  0  0  0  0
  145.9877  138.8136  155.7888 H   0  0  0  0  0  0  0  0  0  0  0  0
  150.6628  137.9815  155.7431 H   0  0  0  0  0  0  0  0  0  0  0  0
  150.9369  138.5473  154.1275 H   0  0  0  0  0  0  0  0  0  0  0  0
  150.3044  140.2361  157.2168 H   0  0  0  0  0  0  0  0  0  0  0  0
  152.8119  141.8041  156.9236 H   0  0  0  0  0  0  0  0  0  0  0  0
  151.5784  140.5749  159.4363 H   0  0  0  0  0  0  0  0  0  0  0  0
  153.0727  140.1208  158.6780 H   0  0  0  0  0  0  0  0  0  0  0  0
  153.6828  141.3846  160.5531 H   0  0  0  0  0  0  0  0  0  0  0  0
  154.0167  142.4345  159.2072 H   0  0  0  0  0  0  0  0  0  0  0  0
  151.3566  142.5429  160.7151 H   0  0  0  0  0  0  0  0  0  0  0  0
  152.7559  143.3327  161.3621 H   0  0  0  0  0  0  0  0  0  0  0  0
  151.1152  144.7434  159.9786 H   0  0  0  0  0  0  0  0  0  0  0  0
  152.8166  144.9874  159.7372 H   0  0  0  0  0  0  0  0  0  0  0  0
  151.3501  144.9385  157.6638 H   0  0  0  0  0  0  0  0  0  0  0  0
  152.8298  144.0427  157.5918 H   0  0  0  0  0  0  0  0  0  0  0  0
  150.6188  143.0091  156.6742 H   0  0  0  0  0  0  0  0  0  0  0  0
  150.2183  142.6340  158.3256 H   0  0  0  0  0  0  0  0  0  0  0  0
  1  2  1  0  0  0  0
  1 19  1  0  0  0  0
  1 20  1  0  0  0  0
  1 21  1  0  0  0  0
  2  7  1  0  0  0  0
  2  3  2  0  0  0  0
  3  4  1  0  0  0  0
  3 22  1  0  0  0  0
  4  5  1  0  0  0  0
  5  6  2  0  0  0  0
  5  7  1  0  0  0  0
  7  8  1  0  0  0  0
  8  9  1  0  0  0  0
  8 23  1  0  0  0  0
  8 24  1  0  0  0  0
  9 10  2  0  0  0  0
  9 11  1  0  0  0  0
 11 12  1  0  0  0  0
 11 25  1  0  0  0  0
 12 18  1  0  0  0  0
 12 13  1  0  0  0  0
 12 26  1  0  0  0  0
 13 14  1  0  0  0  0
 13 27  1  0  0  0  0
 13 28  1  0  0  0  0
 14 15  1  0  0  0  0
 14 29  1  0  0  0  0
 14 30  1  0  0  0  0
 15 16  1  0  0  0  0
 15 31  1  0  0  0  0
 15 32  1  0  0  0  0
 16 17  1  0  0  0  0
 16 33  1  0  0  0  0
 16 34  1  0  0  0  0
 17 18  1  0  0  0  0
 17 35  1  0  0  0  0
 17 36  1  0  0  0  0
 18 37  1  0  0  0  0
 18 38  1  0  0  0  0
M  END
> <s_m_source_file>
AV-unprocessed.smi

> <i_m_source_file_index>
2970

> <i_lp_mmshare_version>
43012

> <i_f3d_flags>
0

> <s_epik_input>
W0NIM11jMVtjSF1zYyg9TyluMVtDSDJdQyg9TylbTkhdW0NIXTJbQ0gyXVtDSDJdW0NIMl1bQ0gyXVtDSDJdW0NIMl0y

> <s_epik_cmdline>
J2VwaWtfcHl0aG9uJywgJy1waCcsICc3LjAnLCAnLXRuJywgJzgnLCAnLW1hJywgJzIwMCcsICctbWV0YWxfYmluZGluZycsICctaW1hZScsICc8aW5maWxlLm1hZT4nLCAnLW9tYWUnLCAnPG91dGZpbGUubWFlPic=

> <r_lp_tautomer_probability>
1

> <r_epik_Ionization_Penalty>
1.32564e-06

> <r_epik_Ionization_Penalty_Charging>
1.22505e-06

> <r_epik_Ionization_Penalty_Neutral>
1.00582e-07

> <r_epik_State_Penalty>
-0

> <r_epik_Charging_Adjusted_Penalty>
1.22505e-06

> <i_epik_Tot_Q>
0

> <i_epik_Tot_abs_Q>
0

> <r_epik_Metal_State_Penalty>
-0

> <b_epik_Metal_Only>
0

> <s_lp_Force_Field>
OPLS_2005

> <r_lp_Energy>
18.3304

> <b_lp_Chiralities_Consistent>
1

> <s_lp_Variant>
AV-unprocessed.smi:2970-1

> <Gold.Version>
5.8.1

> <Gold.Id.Protein>
6NUR|6NUR_protein|mol2

> <Gold.PLP.Fitness>
40.6332

> <Gold.PLP.PLP>
-34.6740

> <Gold.PLP.part.hbond>
-3.9305

> <Gold.PLP.part.metal>
0.0000

> <Gold.PLP.part.buried>
-3.3092

> <Gold.PLP.part.nonpolar>
-28.3523

> <Gold.PLP.part.repulsive>
1.1658

> <Gold.PLP.ligand.clash>
0.0000

> <Gold.PLP.ligand.torsion>
0.2131

> <Gold.PLP.Chemscore.Hbond>
2.1231

> <Gold.PLP.Chemscore.CHOScore>
0.0000

> <Gold.PLP.Chemscore.Metal>
0.0000

> <Gold.Chemscore.Hbonds>
donor molecule, donor type, donor heavy atom, donor atom, acceptor molecule, acceptor atom, score
      P1  H  7989  7998       L1    10  0.30
      P1  H  7997  8010       L1    10  1.00
      P1  H  8011  8017       L1     6  0.77

> <Gold.PLP.Chemscore.Internal.Correction>
0.0161

> <Gold.Rescore>
     Score         DG    S(hbond)    S(metal)    S(lipo)     H(rot)  DE(clash)    DE(int)     intcor
     17.77     -19.06       2.12        0.00      85.97       1.40       0.46       0.83       ----

> <Gold.Chemscore.Fitness>
17.7706

> <Gold.Chemscore.DG>
-19.0580

> <Gold.Chemscore.ZeroCoef>
-5.4800

> <Gold.Chemscore.Hbond>
2.1246

> <Gold.Chemscore.Metal>
0.0000

> <Gold.Chemscore.Lipo>
85.9653

> <Gold.Chemscore.Internal_Hbond>
0.0000

> <Gold.Chemscore.DEClash>
0.4568

> <Gold.Chemscore.DEInternal>
0.8306

> <Gold.Chemscore.Rot>
1.3969

> <Gold.Chemscore.Internal.Correction>
   9.000000E+99

> <Gold.Chemscore.Hbonds>
donor molecule, donor type, donor heavy atom, donor atom, acceptor molecule, acceptor atom, score
      P1  H  7989  7998       L1     6  0.18
      P1  H  7997  8010       L1    10  0.96
      P1  H  8011  8017       L1     6  0.76

> <Gold.Chemscore.Hbond.Weighted>
-7.0961

> <Gold.Chemscore.Metal.Weighted>
-0.0000

> <Gold.Chemscore.Lipo.Weighted>
-10.0579

> <Gold.Chemscore.Internal_Hbond.Weighted>
0.0000

> <Gold.Chemscore.DEClash.Weighted>
0.4568

> <Gold.Chemscore.DEInternal.Weighted>
0.8306

> <Gold.Chemscore.Rot.Weighted>
3.5761

> <Gold.Chemscore.Internal.Correction.Weighted>
   9.000000E+99

> <Gold.Protein.RotatedTorsions>
[ 6907 6896 6895 6894 ] final   70.05 input  -60.11 | X-H torsion
[ 7974 7965 7964 7962 ] final   29.53 input  175.53 | X-H torsion
[ 8008 7997 7996 7995 ] final   97.72 input   59.86 | X-H torsion
[ 10167 10162 10161 10158 ] final  114.81 input  -65.29 | X-H torsion
[ 10718 10713 10712 10709 ] final   25.43 input   66.30 | X-H torsion
[ 10763 10752 10751 10750 ] final  -92.54 input  -60.55 | X-H torsion
[ 11005 11000 10999 10996 ] final  -52.45 input  -57.11 | X-H torsion

> <Gold.Protein.ActiveResidues>
 VAL166  LYS551  ARG553  GLY616  TRP617  ASP618  TYR619  PRO620  LYS621  CYS622 
 ASP623  PHE694  ASN695  SER759  ASP760  ASP761  ALA762  ILE779  LEU786  VAL792 
 PHE793  MET794  SER795  GLU796  ALA797  LYS798  CYS799  TRP800  GLU811  SER814 

> <Gold.Protein.RotatedAtoms>
  152.4725  134.4926  159.9699 H   0  0  0  0  0  0  0  0  0  0  0  0  # atno 6907 bound_to 6896
  151.4949  133.3511  159.2867 H   0  0  0  0  0  0  0  0  0  0  0  0  # atno 6908 bound_to 6896
  150.8743  134.8150  159.7240 H   0  0  0  0  0  0  0  0  0  0  0  0  # atno 6909 bound_to 6896
  146.1666  139.6910  142.8997 H   0  0  0  0  0  0  0  0  0  0  0  0  # atno 7974 bound_to 7965
  156.0931  140.3254  155.7842 H   0  0  0  0  0  0  0  0  0  0  0  0  # atno 8008 bound_to 7997
  155.4963  140.0565  157.2963 H   0  0  0  0  0  0  0  0  0  0  0  0  # atno 8009 bound_to 7997
  154.4650  140.1984  156.0159 H   0  0  0  0  0  0  0  0  0  0  0  0  # atno 8010 bound_to 7997
  139.6362  144.7120  151.2330 H   0  0  0  0  0  0  0  0  0  0  0  0  # atno 10167 bound_to 10162
  157.1932  130.6856  149.6158 H   0  0  0  0  0  0  0  0  0  0  0  0  # atno 10718 bound_to 10713
  154.6871  135.5227  153.8341 H   0  0  0  0  0  0  0  0  0  0  0  0  # atno 10763 bound_to 10752
  153.0605  135.6566  154.0483 H   0  0  0  0  0  0  0  0  0  0  0  0  # atno 10764 bound_to 10752
  154.0362  135.2981  155.3341 H   0  0  0  0  0  0  0  0  0  0  0  0  # atno 10765 bound_to 10752
  141.0925  133.6630  156.4026 H   0  0  0  0  0  0  0  0  0  0  0  0  # atno 11005 bound_to 11000
  145.4451  141.0425  143.2836 LP  0  0  0  0  0  0  0  0  0  0  0  0  # atno 17320 bound_to 7965
  144.8101  139.5977  143.7033 LP  0  0  0  0  0  0  0  0  0  0  0  0  # atno 17321 bound_to 7965
  140.7466  143.6392  150.8350 LP  0  0  0  0  0  0  0  0  0  0  0  0  # atno 17342 bound_to 10162
  140.0024  143.5730  152.2870 LP  0  0  0  0  0  0  0  0  0  0  0  0  # atno 17343 bound_to 10162
  155.9709  130.4607  150.6084 LP  0  0  0  0  0  0  0  0  0  0  0  0  # atno 17370 bound_to 10713
  157.3840  131.0785  151.1452 LP  0  0  0  0  0  0  0  0  0  0  0  0  # atno 17371 bound_to 10713
  140.5218  134.6296  157.5321 LP  0  0  0  0  0  0  0  0  0  0  0  0  # atno 17394 bound_to 11000
  139.9754  134.7224  155.9960 LP  0  0  0  0  0  0  0  0  0  0  0  0  # atno 17395 bound_to 11000

$$$$
