AV-unprocessed.smi:1880|AV-procd|sdf|7637|dock9
  -GOLD-   22720 9363D 1   1.00000     0.00000
 Structure written by MMmdl.
 37 39  0  0  0  0  0  0  0  0  2 V2000
  149.3041  138.4942  155.8563 O   0  0  0  0  0  0  0  0  0  0  0  0
  150.1765  138.3172  156.9546 C   0  0  2  0  0  0  0  0  0  0  0  0
  149.3878  138.5003  158.2614 C   0  0  0  0  0  0  0  0  0  0  0  0
  148.8502  137.2569  158.6822 O   0  0  0  0  0  0  0  0  0  0  0  0
  149.4761  136.7547  159.8494 C   0  0  0  0  0  0  0  0  0  0  0  0
  148.3842  136.2449  160.7268 C   0  0  0  0  0  0  0  0  0  0  0  0
  147.8631  135.0015  160.9561 C   0  0  0  0  0  0  0  0  0  0  0  0
  146.8304  135.1717  161.9195 C   0  0  0  0  0  0  0  0  0  0  0  0
  146.7994  136.5067  162.2065 C   0  0  0  0  0  0  0  0  0  0  0  0
  147.7419  137.1753  161.4880 O   0  0  0  0  0  0  0  0  0  0  0  0
  151.4190  139.2244  156.8526 C   0  0  0  0  0  0  0  0  0  0  0  0
  151.0817  140.6547  156.8753 N   0  0  0  0  0  0  0  0  0  0  0  0
  150.3235  141.3815  156.0102 C   0  0  0  0  0  0  0  0  0  0  0  0
  150.3135  142.6689  156.4537 N   0  3  0  0  0  0  0  0  0  0  0  0
  151.0766  142.7671  157.6195 C   0  0  0  0  0  0  0  0  0  0  0  0
  151.3636  143.8595  158.4314 C   0  0  0  0  0  0  0  0  0  0  0  0
  152.1788  143.6180  159.5567 C   0  0  0  0  0  0  0  0  0  0  0  0
  152.4911  144.6474  160.3789 F   0  0  0  0  0  0  0  0  0  0  0  0
  152.6730  142.3273  159.8416 C   0  0  0  0  0  0  0  0  0  0  0  0
  153.4505  142.1391  160.9340 F   0  0  0  0  0  0  0  0  0  0  0  0
  152.3742  141.2270  159.0113 C   0  0  0  0  0  0  0  0  0  0  0  0
  151.5717  141.4757  157.8981 C   0  0  0  0  0  0  0  0  0  0  0  0
  149.5935  139.2444  155.3608 H   0  0  0  0  0  0  0  0  0  0  0  0
  150.5053  137.2783  156.9103 H   0  0  0  0  0  0  0  0  0  0  0  0
  150.0223  138.9321  159.0375 H   0  0  0  0  0  0  0  0  0  0  0  0
  148.5682  139.2000  158.0906 H   0  0  0  0  0  0  0  0  0  0  0  0
  150.1726  135.9521  159.6020 H   0  0  0  0  0  0  0  0  0  0  0  0
  150.0347  137.5434  160.3553 H   0  0  0  0  0  0  0  0  0  0  0  0
  148.1866  134.0829  160.4892 H   0  0  0  0  0  0  0  0  0  0  0  0
  146.1918  134.4137  162.3486 H   0  0  0  0  0  0  0  0  0  0  0  0
  146.2011  137.1194  162.8648 H   0  0  0  0  0  0  0  0  0  0  0  0
  152.1364  139.0147  157.6460 H   0  0  0  0  0  0  0  0  0  0  0  0
  151.9403  139.0308  155.9143 H   0  0  0  0  0  0  0  0  0  0  0  0
  149.8220  141.0051  155.1300 H   0  0  0  0  0  0  0  0  0  0  0  0
  150.9860  144.8488  158.2188 H   0  0  0  0  0  0  0  0  0  0  0  0
  152.7549  140.2431  159.2432 H   0  0  0  0  0  0  0  0  0  0  0  0
  149.8219  143.4234  155.9913 H   0  0  0  0  0  0  0  0  0  0  0  0
  1  2  1  0  0  0  0
  1 23  1  0  0  0  0
  2  3  1  0  0  0  0
  2 11  1  0  0  0  0
  2 24  1  0  0  0  0
  3  4  1  0  0  0  0
  3 25  1  0  0  0  0
  3 26  1  0  0  0  0
  4  5  1  0  0  0  0
  5  6  1  0  0  0  0
  5 27  1  0  0  0  0
  5 28  1  0  0  0  0
  6 10  1  0  0  0  0
  6  7  2  0  0  0  0
  7  8  1  0  0  0  0
  7 29  1  0  0  0  0
  8  9  2  0  0  0  0
  8 30  1  0  0  0  0
  9 10  1  0  0  0  0
  9 31  1  0  0  0  0
 11 12  1  0  0  0  0
 11 32  1  0  0  0  0
 11 33  1  0  0  0  0
 12 22  1  0  0  0  0
 12 13  1  0  0  0  0
 13 14  2  0  0  0  0
 13 34  1  0  0  0  0
 14 15  1  0  0  0  0
 14 37  1  0  0  0  0
 15 22  2  0  0  0  0
 15 16  1  0  0  0  0
 16 17  2  0  0  0  0
 16 35  1  0  0  0  0
 17 18  1  0  0  0  0
 17 19  1  0  0  0  0
 19 20  1  0  0  0  0
 19 21  2  0  0  0  0
 21 22  1  0  0  0  0
 21 36  1  0  0  0  0
M  CHG  1  14   1
M  END
> <s_m_source_file>
AV-unprocessed.smi

> <i_m_source_file_index>
1880

> <i_lp_mmshare_version>
43012

> <i_f3d_flags>
0

> <s_epik_input>
W2NIXTFjKEYpYyhGKVtjSF1jKGMxMiluKFtjSF1uMilbQ0gyXVtDQEhdKFtPSF0pW0NIMl1PW0NIMl1jM1tjSF1bY0hdW2NIXW8z

> <s_epik_cmdline>
J2VwaWtfcHl0aG9uJywgJy1waCcsICc3LjAnLCAnLXRuJywgJzgnLCAnLW1hJywgJzIwMCcsICctbWV0YWxfYmluZGluZycsICctaW1hZScsICc8aW5maWxlLm1hZT4nLCAnLW9tYWUnLCAnPG91dGZpbGUubWFlPic=

> <r_epik_Ionization_Penalty>
2.17656

> <r_epik_Ionization_Penalty_Charging>
2.17656

> <r_epik_Ionization_Penalty_Neutral>
9.34185e-07

> <r_epik_State_Penalty>
2.31826

> <r_epik_Charging_Adjusted_Penalty>
4.49482

> <i_epik_Tot_Q>
1

> <i_epik_Tot_abs_Q>
1

> <r_epik_Metal_State_Penalty>
6.39906

> <b_epik_Metal_Only>
0

> <s_lp_Force_Field>
OPLS_2005

> <r_lp_Energy>
13.1736

> <b_lp_Chiralities_Consistent>
1

> <s_lp_Variant>
AV-unprocessed.smi:1880-3

> <Gold.Version>
5.8.1

> <Gold.Id.Protein>
6NUR|6NUR_protein|mol2

> <Gold.PLP.Fitness>
54.8287

> <Gold.PLP.PLP>
-46.1246

> <Gold.PLP.part.hbond>
-3.0000

> <Gold.PLP.part.metal>
0.0000

> <Gold.PLP.part.buried>
-5.3664

> <Gold.PLP.part.nonpolar>
-38.6630

> <Gold.PLP.part.repulsive>
0.1150

> <Gold.PLP.ligand.clash>
0.0000

> <Gold.PLP.ligand.torsion>
1.3992

> <Gold.PLP.Chemscore.Hbond>
3.8080

> <Gold.PLP.Chemscore.CHOScore>
0.0000

> <Gold.PLP.Chemscore.Metal>
0.0000

> <Gold.Chemscore.Hbonds>
donor molecule, donor type, donor heavy atom, donor atom, acceptor molecule, acceptor atom, score
      L1  H    14    37       P1  8028  2.00
      P1  H  6931  6943       L1    10  1.00
      P1  H  6934  6947       L1    10  0.75

> <Gold.PLP.Chemscore.Internal.Correction>
0.0784

> <Gold.Rescore>
     Score         DG    S(hbond)    S(metal)    S(lipo)     H(rot)  DE(clash)    DE(int)     intcor
     15.57     -17.20       2.21        0.00     101.28       2.94       0.10       1.53       ----

> <Gold.Chemscore.Fitness>
15.5671

> <Gold.Chemscore.DG>
-17.2041

> <Gold.Chemscore.ZeroCoef>
-5.4800

> <Gold.Chemscore.Hbond>
2.2135

> <Gold.Chemscore.Metal>
0.0000

> <Gold.Chemscore.Lipo>
101.2784

> <Gold.Chemscore.Internal_Hbond>
0.0000

> <Gold.Chemscore.DEClash>
0.1024

> <Gold.Chemscore.DEInternal>
1.5346

> <Gold.Chemscore.Rot>
2.9369

> <Gold.Chemscore.Internal.Correction>
   9.000000E+99

> <Gold.Chemscore.Hbonds>
donor molecule, donor type, donor heavy atom, donor atom, acceptor molecule, acceptor atom, score
      L1  H    14    37       P1  8028  0.99
      P1  H  6931  6943       L1    10  0.33
      P1  H  6934  6947       L1    10  0.64

> <Gold.Chemscore.Hbond.Weighted>
-7.3931

> <Gold.Chemscore.Metal.Weighted>
-0.0000

> <Gold.Chemscore.Lipo.Weighted>
-11.8496

> <Gold.Chemscore.Internal_Hbond.Weighted>
0.0000

> <Gold.Chemscore.DEClash.Weighted>
0.1024

> <Gold.Chemscore.DEInternal.Weighted>
1.5346

> <Gold.Chemscore.Rot.Weighted>
7.5185

> <Gold.Chemscore.Internal.Correction.Weighted>
   9.000000E+99

> <Gold.Protein.RotatedTorsions>
[ 6907 6896 6895 6894 ] final   60.19 input  -60.11 | X-H torsion
[ 7974 7965 7964 7962 ] final   -6.53 input  175.53 | X-H torsion
[ 8008 7997 7996 7995 ] final -111.22 input   59.86 | X-H torsion
[ 10167 10162 10161 10158 ] final   74.66 input  -65.29 | X-H torsion
[ 10718 10713 10712 10709 ] final  134.51 input   66.30 | X-H torsion
[ 10763 10752 10751 10750 ] final  106.73 input  -60.55 | X-H torsion
[ 11005 11000 10999 10996 ] final   22.08 input  -57.11 | X-H torsion

> <Gold.Protein.ActiveResidues>
 VAL166  LYS551  ARG553  GLY616  TRP617  ASP618  TYR619  PRO620  LYS621  CYS622 
 ASP623  PHE694  ASN695  SER759  ASP760  ASP761  ALA762  ILE779  LEU786  VAL792 
 PHE793  MET794  SER795  GLU796  ALA797  LYS798  CYS799  TRP800  GLU811  SER814 

> <Gold.Protein.RotatedAtoms>
  152.3981  134.6332  160.0080 H   0  0  0  0  0  0  0  0  0  0  0  0  # atno 6907 bound_to 6896
  151.6545  133.3314  159.3167 H   0  0  0  0  0  0  0  0  0  0  0  0  # atno 6908 bound_to 6896
  150.7885  134.6933  159.6554 H   0  0  0  0  0  0  0  0  0  0  0  0  # atno 6909 bound_to 6896
  146.2329  140.2184  142.8337 H   0  0  0  0  0  0  0  0  0  0  0  0  # atno 7974 bound_to 7965
  154.9865  140.0395  157.2301 H   0  0  0  0  0  0  0  0  0  0  0  0  # atno 8008 bound_to 7997
  154.7667  140.2794  155.6148 H   0  0  0  0  0  0  0  0  0  0  0  0  # atno 8009 bound_to 7997
  156.2914  140.2618  156.2459 H   0  0  0  0  0  0  0  0  0  0  0  0  # atno 8010 bound_to 7997
  140.0113  144.5612  150.7656 H   0  0  0  0  0  0  0  0  0  0  0  0  # atno 10167 bound_to 10162
  157.4665  131.1077  150.9856 H   0  0  0  0  0  0  0  0  0  0  0  0  # atno 10718 bound_to 10713
  153.3970  135.3867  155.1962 H   0  0  0  0  0  0  0  0  0  0  0  0  # atno 10763 bound_to 10752
  154.8725  135.3762  154.4666 H   0  0  0  0  0  0  0  0  0  0  0  0  # atno 10764 bound_to 10752
  153.5159  135.7087  153.5818 H   0  0  0  0  0  0  0  0  0  0  0  0  # atno 10765 bound_to 10752
  140.3845  134.1884  155.7663 H   0  0  0  0  0  0  0  0  0  0  0  0  # atno 11005 bound_to 11000
  144.9651  140.8314  143.5489 LP  0  0  0  0  0  0  0  0  0  0  0  0  # atno 17320 bound_to 7965
  145.2159  139.2182  143.5118 LP  0  0  0  0  0  0  0  0  0  0  0  0  # atno 17321 bound_to 7965
  140.7380  143.2773  151.3704 LP  0  0  0  0  0  0  0  0  0  0  0  0  # atno 17342 bound_to 10162
  139.6203  144.0920  152.2385 LP  0  0  0  0  0  0  0  0  0  0  0  0  # atno 17343 bound_to 10162
  157.0635  130.5835  149.5390 LP  0  0  0  0  0  0  0  0  0  0  0  0  # atno 17370 bound_to 10713
  156.0053  130.5138  150.7807 LP  0  0  0  0  0  0  0  0  0  0  0  0  # atno 17371 bound_to 10713
  141.1912  133.8200  157.0889 LP  0  0  0  0  0  0  0  0  0  0  0  0  # atno 17394 bound_to 11000
  140.0453  134.9833  157.1037 LP  0  0  0  0  0  0  0  0  0  0  0  0  # atno 17395 bound_to 11000

$$$$
