AV-unprocessed.smi:3163|AV-procd|sdf|12072|dock8
  -GOLD-   2272017503D 1   1.00000     0.00000
 Structure written by MMmdl.
 36 37  0  0  0  0  0  0  0  0  2 V2000
  144.5951  139.7288  155.7445 C   0  0  0  0  0  0  0  0  0  0  0  0
  145.5598  139.8734  154.6344 N   0  3  2  0  0  0  0  0  0  0  0  0
  146.2365  138.6153  154.2526 C   0  0  0  0  0  0  0  0  0  0  0  0
  147.6073  139.0362  153.7295 C   0  0  0  0  0  0  0  0  0  0  0  0
  147.9579  140.2156  154.6325 C   0  0  1  0  0  0  0  0  0  0  0  0
  149.0628  141.1305  154.0691 C   0  0  0  0  0  0  0  0  0  0  0  0
  149.5266  142.1071  155.0495 N   0  0  0  0  0  0  0  0  0  0  0  0
  150.3324  141.8340  156.0859 C   0  0  0  0  0  0  0  0  0  0  0  0
  150.7680  140.7076  156.3216 O   0  0  0  0  0  0  0  0  0  0  0  0
  150.5926  142.9421  156.8019 N   0  0  0  0  0  0  0  0  0  0  0  0
  151.3835  143.0923  157.9747 C   0  0  0  0  0  0  0  0  0  0  0  0
  152.0274  141.9413  158.4745 C   0  0  0  0  0  0  0  0  0  0  0  0
  152.8283  142.0558  159.6282 C   0  0  0  0  0  0  0  0  0  0  0  0
  153.0218  143.2191  160.2839 N   0  0  0  0  0  0  0  0  0  0  0  0
  152.4142  144.3223  159.7990 C   0  0  0  0  0  0  0  0  0  0  0  0
  151.5922  144.3176  158.6541 C   0  0  0  0  0  0  0  0  0  0  0  0
  146.6022  140.9032  154.8573 C   0  0  0  0  0  0  0  0  0  0  0  0
  145.0962  139.4188  156.6626 H   0  0  0  0  0  0  0  0  0  0  0  0
  143.8388  138.9833  155.4969 H   0  0  0  0  0  0  0  0  0  0  0  0
  144.0865  140.6747  155.9326 H   0  0  0  0  0  0  0  0  0  0  0  0
  146.3643  137.9797  155.1308 H   0  0  0  0  0  0  0  0  0  0  0  0
  145.6588  138.0569  153.5154 H   0  0  0  0  0  0  0  0  0  0  0  0
  148.3422  138.2319  153.7767 H   0  0  0  0  0  0  0  0  0  0  0  0
  147.5256  139.3612  152.6911 H   0  0  0  0  0  0  0  0  0  0  0  0
  148.2882  139.8046  155.5883 H   0  0  0  0  0  0  0  0  0  0  0  0
  149.9055  140.5326  153.7178 H   0  0  0  0  0  0  0  0  0  0  0  0
  148.6914  141.6767  153.2016 H   0  0  0  0  0  0  0  0  0  0  0  0
  149.2224  143.0614  154.9211 H   0  0  0  0  0  0  0  0  0  0  0  0
  150.2025  143.7996  156.4396 H   0  0  0  0  0  0  0  0  0  0  0  0
  151.9098  140.9836  157.9886 H   0  0  0  0  0  0  0  0  0  0  0  0
  153.3281  141.1886  160.0335 H   0  0  0  0  0  0  0  0  0  0  0  0
  152.5931  145.2413  160.3374 H   0  0  0  0  0  0  0  0  0  0  0  0
  151.1556  145.2472  158.3260 H   0  0  0  0  0  0  0  0  0  0  0  0
  146.4443  141.7013  154.1309 H   0  0  0  0  0  0  0  0  0  0  0  0
  146.5471  141.3503  155.8513 H   0  0  0  0  0  0  0  0  0  0  0  0
  145.0381  140.1760  153.8241 H   0  0  0  0  0  0  0  0  0  0  0  0
  1  2  1  0  0  0  0
  1 18  1  0  0  0  0
  1 19  1  0  0  0  0
  1 20  1  0  0  0  0
  2 17  1  0  0  0  0
  2  3  1  0  0  0  0
  2 36  1  0  0  0  0
  3  4  1  0  0  0  0
  3 21  1  0  0  0  0
  3 22  1  0  0  0  0
  4  5  1  0  0  0  0
  4 23  1  0  0  0  0
  4 24  1  0  0  0  0
  5  6  1  0  0  0  0
  5 17  1  0  0  0  0
  5 25  1  0  0  0  0
  6  7  1  0  0  0  0
  6 26  1  0  0  0  0
  6 27  1  0  0  0  0
  7  8  1  0  0  0  0
  7 28  1  0  0  0  0
  8  9  2  0  0  0  0
  8 10  1  0  0  0  0
 10 11  1  0  0  0  0
 10 29  1  0  0  0  0
 11 16  1  0  0  0  0
 11 12  2  0  0  0  0
 12 13  1  0  0  0  0
 12 30  1  0  0  0  0
 13 14  2  0  0  0  0
 13 31  1  0  0  0  0
 14 15  1  0  0  0  0
 15 16  2  0  0  0  0
 15 32  1  0  0  0  0
 16 33  1  0  0  0  0
 17 34  1  0  0  0  0
 17 35  1  0  0  0  0
M  CHG  1   2   1
M  END
> <s_m_source_file>
AV-unprocessed.smi

> <i_m_source_file_index>
3163

> <i_lp_mmshare_version>
43012

> <i_f3d_flags>
0

> <s_epik_input>
W0NIM11OMVtDSDJdW0NIMl1bQ0BIXShbQ0gyXTEpW0NIMl1bTkhdQyg9TylbTkhdYzJbY0hdW2NIXW5bY0hdW2NIXTI=

> <s_epik_cmdline>
J2VwaWtfcHl0aG9uJywgJy1waCcsICc3LjAnLCAnLXRuJywgJzgnLCAnLW1hJywgJzIwMCcsICctbWV0YWxfYmluZGluZycsICctaW1hZScsICc8aW5maWxlLm1hZT4nLCAnLW9tYWUnLCAnPG91dGZpbGUubWFlPic=

> <r_epik_Ionization_Penalty>
0.103936

> <r_epik_Ionization_Penalty_Charging>
0.0012301

> <r_epik_Ionization_Penalty_Neutral>
0.102706

> <r_epik_State_Penalty>
0.0926275

> <r_epik_Charging_Adjusted_Penalty>
0.0938576

> <i_epik_Tot_Q>
1

> <i_epik_Tot_abs_Q>
1

> <r_epik_Metal_State_Penalty>
0.0788376

> <b_epik_Metal_Only>
0

> <s_lp_Force_Field>
OPLS_2005

> <r_lp_Energy>
31.7685

> <b_lp_Chiralities_Consistent>
1

> <s_lp_Variant>
AV-unprocessed.smi:3163-2

> <Gold.Version>
5.8.1

> <Gold.Id.Protein>
6NUR|6NUR_protein|mol2

> <Gold.PLP.Fitness>
42.2783

> <Gold.PLP.PLP>
-30.6005

> <Gold.PLP.part.hbond>
-3.0000

> <Gold.PLP.part.metal>
0.0000

> <Gold.PLP.part.buried>
-3.8144

> <Gold.PLP.part.nonpolar>
-23.8757

> <Gold.PLP.part.repulsive>
0.2868

> <Gold.PLP.ligand.clash>
0.0000

> <Gold.PLP.ligand.torsion>
0.1499

> <Gold.PLP.Chemscore.Hbond>
3.9920

> <Gold.PLP.Chemscore.CHOScore>
0.0000

> <Gold.PLP.Chemscore.Metal>
0.0000

> <Gold.Chemscore.Hbonds>
donor molecule, donor type, donor heavy atom, donor atom, acceptor molecule, acceptor atom, score
      L1  H     2    36       P1 10175  2.00
      L1  H     7    28       P1  8028  0.99
      L1  H    10    29       P1  8028  1.00

> <Gold.PLP.Chemscore.Internal.Correction>
0.0017

> <Gold.Rescore>
     Score         DG    S(hbond)    S(metal)    S(lipo)     H(rot)  DE(clash)    DE(int)     intcor
     19.89     -21.49       2.92        0.00      80.94       1.26       0.01       1.59       ----

> <Gold.Chemscore.Fitness>
19.8944

> <Gold.Chemscore.DG>
-21.4917

> <Gold.Chemscore.ZeroCoef>
-5.4800

> <Gold.Chemscore.Hbond>
2.9212

> <Gold.Chemscore.Metal>
0.0000

> <Gold.Chemscore.Lipo>
80.9400

> <Gold.Chemscore.Internal_Hbond>
0.0000

> <Gold.Chemscore.DEClash>
0.0106

> <Gold.Chemscore.DEInternal>
1.5867

> <Gold.Chemscore.Rot>
1.2559

> <Gold.Chemscore.Internal.Correction>
   9.000000E+99

> <Gold.Chemscore.Hbonds>
donor molecule, donor type, donor heavy atom, donor atom, acceptor molecule, acceptor atom, score
      L1  H     2    36       P1 10175  0.99
      L1  H     7    28       P1  8028  0.94
      L1  H    10    29       P1  8028  0.97

> <Gold.Chemscore.Hbond.Weighted>
-9.7568

> <Gold.Chemscore.Metal.Weighted>
-0.0000

> <Gold.Chemscore.Lipo.Weighted>
-9.4700

> <Gold.Chemscore.Internal_Hbond.Weighted>
0.0000

> <Gold.Chemscore.DEClash.Weighted>
0.0106

> <Gold.Chemscore.DEInternal.Weighted>
1.5867

> <Gold.Chemscore.Rot.Weighted>
3.2151

> <Gold.Chemscore.Internal.Correction.Weighted>
   9.000000E+99

> <Gold.Protein.RotatedTorsions>
[ 6907 6896 6895 6894 ] final  -25.10 input  -60.11 | X-H torsion
[ 7974 7965 7964 7962 ] final   20.38 input  175.53 | X-H torsion
[ 8008 7997 7996 7995 ] final -166.59 input   59.86 | X-H torsion
[ 10167 10162 10161 10158 ] final  -86.47 input  -65.29 | X-H torsion
[ 10718 10713 10712 10709 ] final   17.45 input   66.30 | X-H torsion
[ 10763 10752 10751 10750 ] final  -38.17 input  -60.55 | X-H torsion
[ 11005 11000 10999 10996 ] final   22.64 input  -57.11 | X-H torsion

> <Gold.Protein.ActiveResidues>
 VAL166  LYS551  ARG553  GLY616  TRP617  ASP618  TYR619  PRO620  LYS621  CYS622 
 ASP623  PHE694  ASN695  SER759  ASP760  ASP761  ALA762  ILE779  LEU786  VAL792 
 PHE793  MET794  SER795  GLU796  ALA797  LYS798  CYS799  TRP800  GLU811  SER814 

> <Gold.Protein.RotatedAtoms>
  151.1800  135.0356  159.8788 H   0  0  0  0  0  0  0  0  0  0  0  0  # atno 6907 bound_to 6896
  152.5445  134.1074  159.8354 H   0  0  0  0  0  0  0  0  0  0  0  0  # atno 6908 bound_to 6896
  151.1189  133.5071  159.2635 H   0  0  0  0  0  0  0  0  0  0  0  0  # atno 6909 bound_to 6896
  146.2113  139.8178  142.8686 H   0  0  0  0  0  0  0  0  0  0  0  0  # atno 7974 bound_to 7965
  155.8660  140.0985  157.1582 H   0  0  0  0  0  0  0  0  0  0  0  0  # atno 8008 bound_to 7997
  154.3993  140.1356  156.4081 H   0  0  0  0  0  0  0  0  0  0  0  0  # atno 8009 bound_to 7997
  155.7804  140.3458  155.5297 H   0  0  0  0  0  0  0  0  0  0  0  0  # atno 8010 bound_to 7997
  140.3938  143.2692  151.9230 H   0  0  0  0  0  0  0  0  0  0  0  0  # atno 10167 bound_to 10162
  157.0823  130.6393  149.5829 H   0  0  0  0  0  0  0  0  0  0  0  0  # atno 10718 bound_to 10713
  153.9085  135.6795  153.4752 H   0  0  0  0  0  0  0  0  0  0  0  0  # atno 10763 bound_to 10752
  153.1091  135.4791  154.9001 H   0  0  0  0  0  0  0  0  0  0  0  0  # atno 10764 bound_to 10752
  154.7539  135.3192  154.8461 H   0  0  0  0  0  0  0  0  0  0  0  0  # atno 10765 bound_to 10752
  140.3784  134.1947  155.7664 H   0  0  0  0  0  0  0  0  0  0  0  0  # atno 11005 bound_to 11000
  145.3128  141.0224  143.3545 LP  0  0  0  0  0  0  0  0  0  0  0  0  # atno 17320 bound_to 7965
  144.8923  139.4758  143.6672 LP  0  0  0  0  0  0  0  0  0  0  0  0  # atno 17321 bound_to 7965
  139.4787  144.5701  151.8102 LP  0  0  0  0  0  0  0  0  0  0  0  0  # atno 17342 bound_to 10162
  140.4811  144.1448  150.5933 LP  0  0  0  0  0  0  0  0  0  0  0  0  # atno 17343 bound_to 10162
  155.9920  130.4977  150.7323 LP  0  0  0  0  0  0  0  0  0  0  0  0  # atno 17370 bound_to 10713
  157.4790  131.0900  151.0558 LP  0  0  0  0  0  0  0  0  0  0  0  0  # atno 17371 bound_to 10713
  141.1932  133.8157  157.0810 LP  0  0  0  0  0  0  0  0  0  0  0  0  # atno 17394 bound_to 11000
  140.0497  134.9812  157.1114 LP  0  0  0  0  0  0  0  0  0  0  0  0  # atno 17395 bound_to 11000

$$$$
