AV-unprocessed.smi:99|AV-procd|sdf|887|dock9
  -GOLD-   2262017373D 1   1.00000     0.00000
 Structure written by MMmdl.
 52 55  0  0  0  0  0  0  0  0  2 V2000
  147.3059  137.6190  161.9412 O   0  0  0  0  0  0  0  0  0  0  0  0
  147.1947  136.5398  161.3554 C   0  0  0  0  0  0  0  0  0  0  0  0
  147.7894  136.2665  160.1784 O   0  0  0  0  0  0  0  0  0  0  0  0
  149.0219  136.8839  159.8469 C   0  0  0  0  0  0  0  0  0  0  0  0
  149.0966  137.0809  158.3299 C   0  0  2  0  0  0  0  0  0  0  0  0
  148.5582  135.9527  157.6619 O   0  0  0  0  0  0  0  0  0  0  0  0
  149.0532  135.9281  156.3603 C   0  0  2  0  0  0  0  0  0  0  0  0
  149.1718  134.4852  155.9200 N   0  0  0  0  0  0  0  0  0  0  0  0
  148.6201  134.0727  154.7190 C   0  0  0  0  0  0  0  0  0  0  0  0
  148.7091  132.7903  154.3100 C   0  0  0  0  0  0  0  0  0  0  0  0
  149.3986  131.8161  155.1515 C   0  0  0  0  0  0  0  0  0  0  0  0
  149.4862  130.6518  154.7655 O   0  0  0  0  0  0  0  0  0  0  0  0
  149.9176  132.2454  156.3385 N   0  5  0  0  0  0  0  0  0  0  0  0
  149.8218  133.5407  156.7594 C   0  0  0  0  0  0  0  0  0  0  0  0
  150.2665  133.9325  157.8390 O   0  0  0  0  0  0  0  0  0  0  0  0
  150.3996  136.6876  156.3557 C   0  0  2  0  0  0  0  0  0  0  0  0
  151.5223  135.9062  155.9880 O   0  0  0  0  0  0  0  0  0  0  0  0
  150.5302  137.1523  157.8039 C   0  0  1  0  0  0  0  0  0  0  0  0
  150.9887  138.4970  157.8794 O   0  0  0  0  0  0  0  0  0  0  0  0
  151.9218  138.8584  158.7855 C   0  0  0  0  0  0  0  0  0  0  0  0
  152.4682  138.0677  159.5571 O   0  0  0  0  0  0  0  0  0  0  0  0
  152.2257  140.3180  158.7539 C   0  0  0  0  0  0  0  0  0  0  0  0
  151.5052  141.1567  157.8717 C   0  0  0  0  0  0  0  0  0  0  0  0
  151.7711  142.5387  157.8178 C   0  0  0  0  0  0  0  0  0  0  0  0
  152.7620  143.0990  158.6447 C   0  0  0  0  0  0  0  0  0  0  0  0
  153.4863  142.2755  159.5262 C   0  0  0  0  0  0  0  0  0  0  0  0
  153.2209  140.8932  159.5825 C   0  0  0  0  0  0  0  0  0  0  0  0
  146.3848  135.4005  161.8754 C   0  0  0  0  0  0  0  0  0  0  0  0
  146.7218  134.0803  161.4949 C   0  0  0  0  0  0  0  0  0  0  0  0
  145.9764  132.9841  161.9708 C   0  0  0  0  0  0  0  0  0  0  0  0
  144.8841  133.1949  162.8323 C   0  0  0  0  0  0  0  0  0  0  0  0
  144.5378  134.5032  163.2169 C   0  0  0  0  0  0  0  0  0  0  0  0
  145.2826  135.6007  162.7429 C   0  0  0  0  0  0  0  0  0  0  0  0
  149.0751  137.8516  160.3479 H   0  0  0  0  0  0  0  0  0  0  0  0
  149.8640  136.2845  160.1965 H   0  0  0  0  0  0  0  0  0  0  0  0
  148.5417  137.9697  158.0225 H   0  0  0  0  0  0  0  0  0  0  0  0
  148.3039  136.3959  155.7197 H   0  0  0  0  0  0  0  0  0  0  0  0
  148.0995  134.7841  154.0952 H   0  0  0  0  0  0  0  0  0  0  0  0
  148.2707  132.4848  153.3713 H   0  0  0  0  0  0  0  0  0  0  0  0
  150.3026  137.5326  155.6724 H   0  0  0  0  0  0  0  0  0  0  0  0
  151.8849  135.5144  156.7679 H   0  0  0  0  0  0  0  0  0  0  0  0
  151.1557  136.4651  158.3769 H   0  0  0  0  0  0  0  0  0  0  0  0
  150.7400  140.7495  157.2264 H   0  0  0  0  0  0  0  0  0  0  0  0
  151.2141  143.1691  157.1403 H   0  0  0  0  0  0  0  0  0  0  0  0
  152.9665  144.1588  158.6027 H   0  0  0  0  0  0  0  0  0  0  0  0
  154.2479  142.7044  160.1606 H   0  0  0  0  0  0  0  0  0  0  0  0
  153.7961  140.2897  160.2694 H   0  0  0  0  0  0  0  0  0  0  0  0
  147.5565  133.8938  160.8343 H   0  0  0  0  0  0  0  0  0  0  0  0
  146.2436  131.9807  161.6740 H   0  0  0  0  0  0  0  0  0  0  0  0
  144.3127  132.3544  163.1974 H   0  0  0  0  0  0  0  0  0  0  0  0
  143.6988  134.6667  163.8771 H   0  0  0  0  0  0  0  0  0  0  0  0
  144.9892  136.5915  163.0576 H   0  0  0  0  0  0  0  0  0  0  0  0
  1  2  2  0  0  0  0
  2  3  1  0  0  0  0
  2 28  1  0  0  0  0
  3  4  1  0  0  0  0
  4  5  1  0  0  0  0
  4 34  1  0  0  0  0
  4 35  1  0  0  0  0
  5 18  1  0  0  0  0
  5  6  1  0  0  0  0
  5 36  1  0  0  0  0
  6  7  1  0  0  0  0
  7  8  1  0  0  0  0
  7 16  1  0  0  0  0
  7 37  1  0  0  0  0
  8 14  1  0  0  0  0
  8  9  1  0  0  0  0
  9 10  2  0  0  0  0
  9 38  1  0  0  0  0
 10 11  1  0  0  0  0
 10 39  1  0  0  0  0
 11 12  2  0  0  0  0
 11 13  1  0  0  0  0
 13 14  1  0  0  0  0
 14 15  2  0  0  0  0
 16 17  1  0  0  0  0
 16 18  1  0  0  0  0
 16 40  1  0  0  0  0
 17 41  1  0  0  0  0
 18 19  1  0  0  0  0
 18 42  1  0  0  0  0
 19 20  1  0  0  0  0
 20 21  2  0  0  0  0
 20 22  1  0  0  0  0
 22 27  1  0  0  0  0
 22 23  2  0  0  0  0
 23 24  1  0  0  0  0
 23 43  1  0  0  0  0
 24 25  2  0  0  0  0
 24 44  1  0  0  0  0
 25 26  1  0  0  0  0
 25 45  1  0  0  0  0
 26 27  2  0  0  0  0
 26 46  1  0  0  0  0
 27 47  1  0  0  0  0
 28 33  1  0  0  0  0
 28 29  2  0  0  0  0
 29 30  1  0  0  0  0
 29 48  1  0  0  0  0
 30 31  2  0  0  0  0
 30 49  1  0  0  0  0
 31 32  1  0  0  0  0
 31 50  1  0  0  0  0
 32 33  2  0  0  0  0
 32 51  1  0  0  0  0
 33 52  1  0  0  0  0
M  CHG  1  13  -1
M  END
> <s_m_source_file>
AV-unprocessed.smi

> <i_m_source_file_index>
99

> <i_lp_mmshare_version>
43012

> <i_f3d_flags>
0

> <s_epik_input>
W2NIXTFbY0hdW2NIXVtjSF1bY0hdYzFDKD1PKU9bQ0gyXVtDQEBIXTJPW0NAQEhdKG4zW2NIXVtjSF1jKD1PKVtuSF1jMz1PKVtDQEBIXShbT0hdKVtDQEhdMk9DKD1PKWM0W2NIXVtjSF1bY0hdW2NIXVtjSF00

> <s_epik_cmdline>
J2VwaWtfcHl0aG9uJywgJy1waCcsICc3LjAnLCAnLXRuJywgJzgnLCAnLW1hJywgJzIwMCcsICctbWV0YWxfYmluZGluZycsICctaW1hZScsICc8aW5maWxlLm1hZT4nLCAnLW9tYWUnLCAnPG91dGZpbGUubWFlPic=

> <r_lp_tautomer_probability>
1

> <r_epik_Ionization_Penalty>
2.89159

> <r_epik_Ionization_Penalty_Charging>
2.1077e-08

> <r_epik_Ionization_Penalty_Neutral>
2.89159

> <r_epik_State_Penalty>
2.88671

> <r_epik_Charging_Adjusted_Penalty>
2.88671

> <i_epik_Tot_Q>
-1

> <i_epik_Tot_abs_Q>
1

> <r_epik_Metal_State_Penalty>
0.0727308

> <b_epik_Metal_Only>
1

> <s_epik_Chemistry_Notes>
This compound has an ester and may undergo hydrolysis at high or low pH. This compound contains an acetal/aminal-like group ( X-CH(R)-Y where X, Y are N, S, or O) that may be acid/base labile, releasing an aldehyde.

> <s_lp_Force_Field>
OPLS_2005

> <r_lp_Energy>
47.3257

> <b_lp_Chiralities_Consistent>
1

> <s_lp_Variant>
AV-unprocessed.smi:99-23

> <Gold.Version>
5.8.1

> <Gold.Id.Protein>
6NUR|6NUR_protein|mol2

> <Gold.PLP.Fitness>
62.9933

> <Gold.PLP.PLP>
-53.2606

> <Gold.PLP.part.hbond>
-3.4282

> <Gold.PLP.part.metal>
0.0000

> <Gold.PLP.part.buried>
-7.2683

> <Gold.PLP.part.nonpolar>
-43.5137

> <Gold.PLP.part.repulsive>
0.0607

> <Gold.PLP.ligand.clash>
0.0000

> <Gold.PLP.ligand.torsion>
1.9312

> <Gold.PLP.Chemscore.Hbond>
3.3680

> <Gold.PLP.Chemscore.CHOScore>
1.0000

> <Gold.PLP.Chemscore.Metal>
0.0000

> <Gold.Chemscore.Hbonds>
donor molecule, donor type, donor heavy atom, donor atom, acceptor molecule, acceptor atom, score
      P1  H  6896  6909       L1    15  0.89
      P1  H  6931  6943       L1     1  0.66
      P1  H  6934  6947       L1     1  0.64
      P1  H 10752 10764       L1    17  0.75
      L1  C     9    38       P1  7948  0.39

> <Gold.PLP.Chemscore.Internal.Correction>
0.4910

> <Gold.Rescore>
     Score         DG    S(hbond)    S(metal)    S(lipo)     H(rot)  DE(clash)    DE(int)     intcor
     16.84     -20.92       3.05        0.00     113.56       3.13       0.13       3.96       ----

> <Gold.Chemscore.Fitness>
16.8410

> <Gold.Chemscore.DG>
-20.9224

> <Gold.Chemscore.ZeroCoef>
-5.4800

> <Gold.Chemscore.Hbond>
3.0479

> <Gold.Chemscore.Metal>
0.0000

> <Gold.Chemscore.Lipo>
113.5650

> <Gold.Chemscore.Internal_Hbond>
0.0000

> <Gold.Chemscore.DEClash>
0.1252

> <Gold.Chemscore.DEInternal>
3.9561

> <Gold.Chemscore.Rot>
3.1346

> <Gold.Chemscore.Internal.Correction>
   9.000000E+99

> <Gold.Chemscore.Hbonds>
donor molecule, donor type, donor heavy atom, donor atom, acceptor molecule, acceptor atom, score
      P1  H  6896  6909       L1    15  0.80
      P1  H  6931  6943       L1     1  0.56
      P1  H  6934  6947       L1     1  0.60
      P1  H 10752 10764       L1    17  0.09

> <Gold.Chemscore.Hbond.Weighted>
-10.1798

> <Gold.Chemscore.Metal.Weighted>
-0.0000

> <Gold.Chemscore.Lipo.Weighted>
-13.2871

> <Gold.Chemscore.Internal_Hbond.Weighted>
0.0000

> <Gold.Chemscore.DEClash.Weighted>
0.1252

> <Gold.Chemscore.DEInternal.Weighted>
3.9561

> <Gold.Chemscore.Rot.Weighted>
8.0246

> <Gold.Chemscore.Internal.Correction.Weighted>
   9.000000E+99

> <Gold.Protein.RotatedTorsions>
[ 6907 6896 6895 6894 ] final   -2.73 input  -60.11 | X-H torsion
[ 7974 7965 7964 7962 ] final  117.14 input  175.53 | X-H torsion
[ 8008 7997 7996 7995 ] final -152.42 input   59.86 | X-H torsion
[ 10167 10162 10161 10158 ] final -178.83 input  -65.29 | X-H torsion
[ 10718 10713 10712 10709 ] final  -11.47 input   66.30 | X-H torsion
[ 10763 10752 10751 10750 ] final  -42.65 input  -60.55 | X-H torsion
[ 11005 11000 10999 10996 ] final -101.59 input  -57.11 | X-H torsion

> <Gold.Protein.ActiveResidues>
 VAL166  LYS551  ARG553  GLY616  TRP617  ASP618  TYR619  PRO620  LYS621  CYS622 
 ASP623  PHE694  ASN695  SER759  ASP760  ASP761  ALA762  ILE779  LEU786  VAL792 
 PHE793  MET794  SER795  GLU796  ALA797  LYS798  CYS799  TRP800  GLU811  SER814 

> <Gold.Protein.RotatedAtoms>
  151.5251  135.1067  159.9888 H   0  0  0  0  0  0  0  0  0  0  0  0  # atno 6907 bound_to 6896
  152.4603  133.7804  159.6858 H   0  0  0  0  0  0  0  0  0  0  0  0  # atno 6908 bound_to 6896
  150.8563  133.7646  159.3033 H   0  0  0  0  0  0  0  0  0  0  0  0  # atno 6909 bound_to 6896
  145.1710  139.3101  143.4467 H   0  0  0  0  0  0  0  0  0  0  0  0  # atno 7974 bound_to 7965
  155.6548  140.0716  157.2574 H   0  0  0  0  0  0  0  0  0  0  0  0  # atno 8008 bound_to 7997
  154.4154  140.1727  156.1764 H   0  0  0  0  0  0  0  0  0  0  0  0  # atno 8009 bound_to 7997
  155.9746  140.3359  155.6610 H   0  0  0  0  0  0  0  0  0  0  0  0  # atno 8010 bound_to 7997
  139.5414  144.2353  152.0902 H   0  0  0  0  0  0  0  0  0  0  0  0  # atno 10167 bound_to 10162
  156.6586  130.4975  149.6038 H   0  0  0  0  0  0  0  0  0  0  0  0  # atno 10718 bound_to 10713
  153.9826  135.6715  153.4750 H   0  0  0  0  0  0  0  0  0  0  0  0  # atno 10763 bound_to 10752
  153.0741  135.4958  154.8365 H   0  0  0  0  0  0  0  0  0  0  0  0  # atno 10764 bound_to 10752
  154.7156  135.3106  154.9091 H   0  0  0  0  0  0  0  0  0  0  0  0  # atno 10765 bound_to 10752
  141.1225  133.8490  157.1251 H   0  0  0  0  0  0  0  0  0  0  0  0  # atno 11005 bound_to 11000
  146.3468  140.1856  142.8589 LP  0  0  0  0  0  0  0  0  0  0  0  0  # atno 17320 bound_to 7965
  145.0232  140.8811  143.5154 LP  0  0  0  0  0  0  0  0  0  0  0  0  # atno 17321 bound_to 7965
  140.1832  144.4824  150.6517 LP  0  0  0  0  0  0  0  0  0  0  0  0  # atno 17342 bound_to 10162
  140.6645  143.2263  151.5776 LP  0  0  0  0  0  0  0  0  0  0  0  0  # atno 17343 bound_to 10162
  156.2029  130.6631  151.1186 LP  0  0  0  0  0  0  0  0  0  0  0  0  # atno 17370 bound_to 10713
  157.7117  131.0730  150.6476 LP  0  0  0  0  0  0  0  0  0  0  0  0  # atno 17371 bound_to 10713
  140.0193  134.9953  157.0559 LP  0  0  0  0  0  0  0  0  0  0  0  0  # atno 17394 bound_to 11000
  140.4466  134.1626  155.7178 LP  0  0  0  0  0  0  0  0  0  0  0  0  # atno 17395 bound_to 11000

$$$$
