AV-unprocessed.smi:1885|AV-procd|sdf|7650|dock1
  -GOLD-   22720 9383D 1   1.00000     0.00000
 Structure written by MMmdl.
 43 45  0  0  0  0  0  0  0  0  1 V2000
  144.9005  134.1497  151.0403 C   0  0  0  0  0  0  0  0  0  0  0  0
  145.4822  135.3335  150.5138 O   0  0  0  0  0  0  0  0  0  0  0  0
  145.8447  136.3267  151.3982 C   0  0  0  0  0  0  0  0  0  0  0  0
  145.6953  136.2343  152.8049 C   0  0  0  0  0  0  0  0  0  0  0  0
  146.0918  137.2999  153.6362 C   0  0  0  0  0  0  0  0  0  0  0  0
  146.6492  138.4689  153.0804 C   0  0  0  0  0  0  0  0  0  0  0  0
  147.0547  139.6188  153.9837 C   0  0  0  0  0  0  0  0  0  0  0  0
  148.1737  140.3280  153.4771 O   0  0  0  0  0  0  0  0  0  0  0  0
  148.5647  141.4112  154.3042 C   0  0  0  0  0  0  0  0  0  0  0  0
  149.3548  140.8611  155.5004 C   0  0  2  0  0  0  0  0  0  0  0  0
  148.4634  140.6617  156.5798 O   0  0  0  0  0  0  0  0  0  0  0  0
  150.4973  141.7999  155.9341 C   0  0  0  0  0  0  0  0  0  0  0  0
  151.3413  141.2052  156.9544 N   0  0  0  0  0  0  0  0  0  0  0  0
  151.9704  140.0151  156.9038 C   0  0  0  0  0  0  0  0  0  0  0  0
  152.6985  139.6661  157.9610 N   0  0  0  0  0  0  0  0  0  0  0  0
  152.5219  140.7570  158.7950 C   0  0  0  0  0  0  0  0  0  0  0  0
  153.0336  141.0182  160.0861 C   0  0  0  0  0  0  0  0  0  0  0  0
  152.7120  142.2187  160.7535 C   0  0  0  0  0  0  0  0  0  0  0  0
  153.2112  142.4530  161.9904 F   0  0  0  0  0  0  0  0  0  0  0  0
  151.8745  143.1745  160.1408 C   0  0  0  0  0  0  0  0  0  0  0  0
  151.5708  144.3241  160.7887 F   0  0  0  0  0  0  0  0  0  0  0  0
  151.3523  142.9361  158.8552 C   0  0  0  0  0  0  0  0  0  0  0  0
  151.6765  141.7375  158.1939 C   0  0  0  0  0  0  0  0  0  0  0  0
  146.7918  138.5694  151.6813 C   0  0  0  0  0  0  0  0  0  0  0  0
  146.3946  137.5039  150.8509 C   0  0  0  0  0  0  0  0  0  0  0  0
  144.6744  133.4655  150.2226 H   0  0  0  0  0  0  0  0  0  0  0  0
  143.9653  134.3620  151.5601 H   0  0  0  0  0  0  0  0  0  0  0  0
  145.5838  133.6375  151.7189 H   0  0  0  0  0  0  0  0  0  0  0  0
  145.2764  135.3559  153.2719 H   0  0  0  0  0  0  0  0  0  0  0  0
  145.9667  137.2155  154.7057 H   0  0  0  0  0  0  0  0  0  0  0  0
  146.2015  140.2913  154.0848 H   0  0  0  0  0  0  0  0  0  0  0  0
  147.2870  139.2328  154.9776 H   0  0  0  0  0  0  0  0  0  0  0  0
  149.1692  142.1252  153.7421 H   0  0  0  0  0  0  0  0  0  0  0  0
  147.6733  141.9360  154.6524 H   0  0  0  0  0  0  0  0  0  0  0  0
  149.7649  139.8866  155.2316 H   0  0  0  0  0  0  0  0  0  0  0  0
  148.9651  140.4220  157.3438 H   0  0  0  0  0  0  0  0  0  0  0  0
  151.1282  142.0479  155.0796 H   0  0  0  0  0  0  0  0  0  0  0  0
  150.0997  142.7438  156.3104 H   0  0  0  0  0  0  0  0  0  0  0  0
  151.8910  139.3699  156.0409 H   0  0  0  0  0  0  0  0  0  0  0  0
  153.6760  140.2942  160.5647 H   0  0  0  0  0  0  0  0  0  0  0  0
  150.7113  143.6653  158.3823 H   0  0  0  0  0  0  0  0  0  0  0  0
  147.2058  139.4625  151.2367 H   0  0  0  0  0  0  0  0  0  0  0  0
  146.5114  137.5921  149.7807 H   0  0  0  0  0  0  0  0  0  0  0  0
  1  2  1  0  0  0  0
  1 26  1  0  0  0  0
  1 27  1  0  0  0  0
  1 28  1  0  0  0  0
  2  3  1  0  0  0  0
  3 25  1  0  0  0  0
  3  4  2  0  0  0  0
  4  5  1  0  0  0  0
  4 29  1  0  0  0  0
  5  6  2  0  0  0  0
  5 30  1  0  0  0  0
  6  7  1  0  0  0  0
  6 24  1  0  0  0  0
  7  8  1  0  0  0  0
  7 31  1  0  0  0  0
  7 32  1  0  0  0  0
  8  9  1  0  0  0  0
  9 10  1  0  0  0  0
  9 33  1  0  0  0  0
  9 34  1  0  0  0  0
 10 11  1  0  0  0  0
 10 12  1  0  0  0  0
 10 35  1  0  0  0  0
 11 36  1  0  0  0  0
 12 13  1  0  0  0  0
 12 37  1  0  0  0  0
 12 38  1  0  0  0  0
 13 23  1  0  0  0  0
 13 14  1  0  0  0  0
 14 15  2  0  0  0  0
 14 39  1  0  0  0  0
 15 16  1  0  0  0  0
 16 23  2  0  0  0  0
 16 17  1  0  0  0  0
 17 18  2  0  0  0  0
 17 40  1  0  0  0  0
 18 19  1  0  0  0  0
 18 20  1  0  0  0  0
 20 21  1  0  0  0  0
 20 22  2  0  0  0  0
 22 23  1  0  0  0  0
 22 41  1  0  0  0  0
 24 25  2  0  0  0  0
 24 42  1  0  0  0  0
 25 43  1  0  0  0  0
M  END
> <s_m_source_file>
AV-unprocessed.smi

> <i_m_source_file_index>
1885

> <i_lp_mmshare_version>
43012

> <i_f3d_flags>
0

> <s_epik_input>
W0NIM11PYzFbY0hdW2NIXWMoW2NIXVtjSF0xKVtDSDJdT1tDSDJdW0NASF0oW09IXSlbQ0gyXW4oW2NIXW4yKWMoYzIzKVtjSF1jKEYpYyhGKVtjSF0z

> <s_epik_cmdline>
J2VwaWtfcHl0aG9uJywgJy1waCcsICc3LjAnLCAnLXRuJywgJzgnLCAnLW1hJywgJzIwMCcsICctbWV0YWxfYmluZGluZycsICctaW1hZScsICc8aW5maWxlLm1hZT4nLCAnLW9tYWUnLCAnPG91dGZpbGUubWFlPic=

> <r_lp_tautomer_probability>
1

> <r_epik_Ionization_Penalty>
0.0160256

> <r_epik_Ionization_Penalty_Charging>
0

> <r_epik_Ionization_Penalty_Neutral>
0.0160256

> <r_epik_State_Penalty>
0.0126263

> <r_epik_Charging_Adjusted_Penalty>
0.0126263

> <i_epik_Tot_Q>
0

> <i_epik_Tot_abs_Q>
0

> <r_epik_Metal_State_Penalty>
1.27616e-05

> <b_epik_Metal_Only>
0

> <s_lp_Force_Field>
OPLS_2005

> <r_lp_Energy>
16.1682

> <b_lp_Chiralities_Consistent>
1

> <s_lp_Variant>
AV-unprocessed.smi:1885-1

> <Gold.Version>
5.8.1

> <Gold.Id.Protein>
6NUR|6NUR_protein|mol2

> <Gold.PLP.Fitness>
50.0672

> <Gold.PLP.PLP>
-48.5047

> <Gold.PLP.part.hbond>
-1.0000

> <Gold.PLP.part.metal>
0.0000

> <Gold.PLP.part.buried>
-2.9930

> <Gold.PLP.part.nonpolar>
-47.7432

> <Gold.PLP.part.repulsive>
2.4745

> <Gold.PLP.ligand.clash>
0.0000

> <Gold.PLP.ligand.torsion>
0.9734

> <Gold.PLP.Chemscore.Hbond>
1.0000

> <Gold.PLP.Chemscore.CHOScore>
0.0000

> <Gold.PLP.Chemscore.Metal>
0.0000

> <Gold.Chemscore.Hbonds>
donor molecule, donor type, donor heavy atom, donor atom, acceptor molecule, acceptor atom, score
      P1  H  7997  8010       L1    15  0.34

> <Gold.PLP.Chemscore.Internal.Correction>
0.5092

> <Gold.Rescore>
     Score         DG    S(hbond)    S(metal)    S(lipo)     H(rot)  DE(clash)    DE(int)     intcor
     10.27     -12.76       0.08        0.00     124.08       2.93       1.57       0.93       ----

> <Gold.Chemscore.Fitness>
10.2658

> <Gold.Chemscore.DG>
-12.7631

> <Gold.Chemscore.ZeroCoef>
-5.4800

> <Gold.Chemscore.Hbond>
0.0824

> <Gold.Chemscore.Metal>
0.0000

> <Gold.Chemscore.Lipo>
124.0827

> <Gold.Chemscore.Internal_Hbond>
0.0000

> <Gold.Chemscore.DEClash>
1.5659

> <Gold.Chemscore.DEInternal>
0.9314

> <Gold.Chemscore.Rot>
2.9335

> <Gold.Chemscore.Internal.Correction>
   9.000000E+99

> <Gold.Chemscore.Hbonds>
donor molecule, donor type, donor heavy atom, donor atom, acceptor molecule, acceptor atom, score
      P1  H  7997  8010       L1    15  0.01

> <Gold.Chemscore.Hbond.Weighted>
-0.2751

> <Gold.Chemscore.Metal.Weighted>
-0.0000

> <Gold.Chemscore.Lipo.Weighted>
-14.5177

> <Gold.Chemscore.Internal_Hbond.Weighted>
0.0000

> <Gold.Chemscore.DEClash.Weighted>
1.5659

> <Gold.Chemscore.DEInternal.Weighted>
0.9314

> <Gold.Chemscore.Rot.Weighted>
7.5097

> <Gold.Chemscore.Internal.Correction.Weighted>
   9.000000E+99

> <Gold.Protein.RotatedTorsions>
[ 6907 6896 6895 6894 ] final -111.00 input  -60.11 | X-H torsion
[ 7974 7965 7964 7962 ] final  130.09 input  175.53 | X-H torsion
[ 8008 7997 7996 7995 ] final   48.24 input   59.86 | X-H torsion
[ 10167 10162 10161 10158 ] final -162.70 input  -65.29 | X-H torsion
[ 10718 10713 10712 10709 ] final  151.38 input   66.30 | X-H torsion
[ 10763 10752 10751 10750 ] final -119.34 input  -60.55 | X-H torsion
[ 11005 11000 10999 10996 ] final  165.00 input  -57.11 | X-H torsion

> <Gold.Protein.ActiveResidues>
 VAL166  LYS551  ARG553  GLY616  TRP617  ASP618  TYR619  PRO620  LYS621  CYS622 
 ASP623  PHE694  ASN695  SER759  ASP760  ASP761  ALA762  ILE779  LEU786  VAL792 
 PHE793  MET794  SER795  GLU796  ALA797  LYS798  CYS799  TRP800  GLU811  SER814 

> <Gold.Protein.RotatedAtoms>
  150.7662  133.9299  159.3423 H   0  0  0  0  0  0  0  0  0  0  0  0  # atno 6907 bound_to 6896
  151.7196  135.0895  160.0291 H   0  0  0  0  0  0  0  0  0  0  0  0  # atno 6908 bound_to 6896
  152.3658  133.6317  159.6085 H   0  0  0  0  0  0  0  0  0  0  0  0  # atno 6909 bound_to 6896
  145.0216  139.4127  143.5194 H   0  0  0  0  0  0  0  0  0  0  0  0  # atno 7974 bound_to 7965
  155.3823  140.3429  155.4247 H   0  0  0  0  0  0  0  0  0  0  0  0  # atno 8008 bound_to 7997
  156.1603  140.1599  156.8656 H   0  0  0  0  0  0  0  0  0  0  0  0  # atno 8009 bound_to 7997
  154.5133  140.0784  156.8015 H   0  0  0  0  0  0  0  0  0  0  0  0  # atno 8010 bound_to 7997
  139.6373  144.0326  152.2064 H   0  0  0  0  0  0  0  0  0  0  0  0  # atno 10167 bound_to 10162
  157.2714  131.0818  151.1596 H   0  0  0  0  0  0  0  0  0  0  0  0  # atno 10718 bound_to 10713
  154.8614  135.4242  154.2283 H   0  0  0  0  0  0  0  0  0  0  0  0  # atno 10763 bound_to 10752
  153.3273  135.6986  153.6984 H   0  0  0  0  0  0  0  0  0  0  0  0  # atno 10764 bound_to 10752
  153.6014  135.3536  155.2920 H   0  0  0  0  0  0  0  0  0  0  0  0  # atno 10765 bound_to 10752
  140.2517  134.7972  157.3507 H   0  0  0  0  0  0  0  0  0  0  0  0  # atno 11005 bound_to 11000
  146.3486  139.9717  142.8705 LP  0  0  0  0  0  0  0  0  0  0  0  0  # atno 17320 bound_to 7965
  145.1888  140.9802  143.4223 LP  0  0  0  0  0  0  0  0  0  0  0  0  # atno 17321 bound_to 7965
  140.0006  144.6296  150.7733 LP  0  0  0  0  0  0  0  0  0  0  0  0  # atno 17342 bound_to 10162
  140.7472  143.2903  151.3350 LP  0  0  0  0  0  0  0  0  0  0  0  0  # atno 17343 bound_to 10162
  157.3067  130.6869  149.6193 LP  0  0  0  0  0  0  0  0  0  0  0  0  # atno 17370 bound_to 10713
  155.9663  130.4376  150.5181 LP  0  0  0  0  0  0  0  0  0  0  0  0  # atno 17371 bound_to 10713
  140.1552  134.4799  155.7933 LP  0  0  0  0  0  0  0  0  0  0  0  0  # atno 17394 bound_to 11000
  141.2200  133.6878  156.7448 LP  0  0  0  0  0  0  0  0  0  0  0  0  # atno 17395 bound_to 11000

$$$$
