AV-unprocessed.smi:861|AV-procd|sdf|3969|dock8
  -GOLD-   22720 1443D 1   1.00000     0.00000
 Structure written by MMmdl.
 44 45  0  0  0  0  0  0  0  0  2 V2000
  152.0794  145.3632  158.9120 C   0  0  0  0  0  0  0  0  0  0  0  0
  151.8090  143.8852  159.2433 C   0  0  0  0  0  0  0  0  0  0  0  0
  153.0520  143.2499  159.8859 C   0  0  0  0  0  0  0  0  0  0  0  0
  151.3566  143.0756  158.0096 C   0  0  0  0  0  0  0  0  0  0  0  0
  150.6857  141.7310  158.3549 C   0  0  0  0  0  0  0  0  0  0  0  0
  150.4619  140.8787  157.1596 N   0  3  2  0  0  0  0  0  0  0  0  0
  151.7259  140.5600  156.4538 C   0  0  0  0  0  0  0  0  0  0  0  0
  151.4568  139.6337  155.2573 C   0  0  0  0  0  0  0  0  0  0  0  0
  150.5129  140.2456  154.3882 O   0  0  0  0  0  0  0  0  0  0  0  0
  149.2570  140.4627  155.0233 C   0  0  2  0  0  0  0  0  0  0  0  0
  148.2837  141.0363  153.9841 C   0  0  0  0  0  0  0  0  0  0  0  0
  147.9463  140.0529  152.9642 N   0  0  0  0  0  0  0  0  0  0  0  0
  146.9338  139.1099  153.1862 C   0  0  0  0  0  0  0  0  0  0  0  0
  146.5331  138.2766  152.1229 C   0  0  0  0  0  0  0  0  0  0  0  0
  145.5194  137.3365  152.3771 C   0  0  0  0  0  0  0  0  0  0  0  0
  144.9829  137.3017  153.6772 C   0  0  0  0  0  0  0  0  0  0  0  0
  145.4055  138.1271  154.6614 N   0  0  0  0  0  0  0  0  0  0  0  0
  146.3706  139.0212  154.4177 N   0  0  0  0  0  0  0  0  0  0  0  0
  149.4661  141.4292  156.2060 C   0  0  0  0  0  0  0  0  0  0  0  0
  152.8465  145.4631  158.1433 H   0  0  0  0  0  0  0  0  0  0  0  0
  152.4245  145.9040  159.7937 H   0  0  0  0  0  0  0  0  0  0  0  0
  151.1839  145.8727  158.5580 H   0  0  0  0  0  0  0  0  0  0  0  0
  151.0103  143.8480  159.9853 H   0  0  0  0  0  0  0  0  0  0  0  0
  153.8961  143.2437  159.1954 H   0  0  0  0  0  0  0  0  0  0  0  0
  152.8592  142.2194  160.1860 H   0  0  0  0  0  0  0  0  0  0  0  0
  153.3567  143.7971  160.7786 H   0  0  0  0  0  0  0  0  0  0  0  0
  150.6819  143.6816  157.4034 H   0  0  0  0  0  0  0  0  0  0  0  0
  152.2316  142.8863  157.3885 H   0  0  0  0  0  0  0  0  0  0  0  0
  151.2713  141.1854  159.0965 H   0  0  0  0  0  0  0  0  0  0  0  0
  149.7175  141.9311  158.8131 H   0  0  0  0  0  0  0  0  0  0  0  0
  152.1966  141.4836  156.1124 H   0  0  0  0  0  0  0  0  0  0  0  0
  152.4244  140.0776  157.1387 H   0  0  0  0  0  0  0  0  0  0  0  0
  152.3801  139.4531  154.7063 H   0  0  0  0  0  0  0  0  0  0  0  0
  151.0886  138.6619  155.5898 H   0  0  0  0  0  0  0  0  0  0  0  0
  148.8627  139.5154  155.3967 H   0  0  0  0  0  0  0  0  0  0  0  0
  147.3634  141.3460  154.4814 H   0  0  0  0  0  0  0  0  0  0  0  0
  148.7106  141.9235  153.5144 H   0  0  0  0  0  0  0  0  0  0  0  0
  148.3938  140.1069  152.0607 H   0  0  0  0  0  0  0  0  0  0  0  0
  146.9863  138.3522  151.1454 H   0  0  0  0  0  0  0  0  0  0  0  0
  145.1669  136.6676  151.6062 H   0  0  0  0  0  0  0  0  0  0  0  0
  144.2022  136.6007  153.9334 H   0  0  0  0  0  0  0  0  0  0  0  0
  148.5115  141.5899  156.7055 H   0  0  0  0  0  0  0  0  0  0  0  0
  149.8050  142.4015  155.8437 H   0  0  0  0  0  0  0  0  0  0  0  0
  150.0956  139.9994  157.4957 H   0  0  0  0  0  0  0  0  0  0  0  0
  1  2  1  0  0  0  0
  1 20  1  0  0  0  0
  1 21  1  0  0  0  0
  1 22  1  0  0  0  0
  2  3  1  0  0  0  0
  2  4  1  0  0  0  0
  2 23  1  0  0  0  0
  3 24  1  0  0  0  0
  3 25  1  0  0  0  0
  3 26  1  0  0  0  0
  4  5  1  0  0  0  0
  4 27  1  0  0  0  0
  4 28  1  0  0  0  0
  5  6  1  0  0  0  0
  5 29  1  0  0  0  0
  5 30  1  0  0  0  0
  6 19  1  0  0  0  0
  6  7  1  0  0  0  0
  6 44  1  0  0  0  0
  7  8  1  0  0  0  0
  7 31  1  0  0  0  0
  7 32  1  0  0  0  0
  8  9  1  0  0  0  0
  8 33  1  0  0  0  0
  8 34  1  0  0  0  0
  9 10  1  0  0  0  0
 10 11  1  0  0  0  0
 10 19  1  0  0  0  0
 10 35  1  0  0  0  0
 11 12  1  0  0  0  0
 11 36  1  0  0  0  0
 11 37  1  0  0  0  0
 12 13  1  0  0  0  0
 12 38  1  0  0  0  0
 13 18  1  0  0  0  0
 13 14  2  0  0  0  0
 14 15  1  0  0  0  0
 14 39  1  0  0  0  0
 15 16  2  0  0  0  0
 15 40  1  0  0  0  0
 16 17  1  0  0  0  0
 16 41  1  0  0  0  0
 17 18  2  0  0  0  0
 19 42  1  0  0  0  0
 19 43  1  0  0  0  0
M  CHG  1   6   1
M  END
> <s_m_source_file>
AV-unprocessed.smi

> <i_m_source_file_index>
861

> <i_lp_mmshare_version>
43012

> <i_f3d_flags>
0

> <s_epik_input>
W0NIM11bQ0hdKFtDSDNdKVtDSDJdW0NIMl1OMVtDSDJdW0NIMl1PW0NASF0oW0NIMl0xKVtDSDJdW05IXWMyW2NIXVtjSF1bY0hdbm4y

> <s_epik_cmdline>
J2VwaWtfcHl0aG9uJywgJy1waCcsICc3LjAnLCAnLXRuJywgJzgnLCAnLW1hJywgJzIwMCcsICctbWV0YWxfYmluZGluZycsICctaW1hZScsICc8aW5maWxlLm1hZT4nLCAnLW9tYWUnLCAnPG91dGZpbGUubWFlPic=

> <r_lp_tautomer_probability>
0.999978

> <r_epik_Ionization_Penalty>
0.114704

> <r_epik_Ionization_Penalty_Charging>
0.0953451

> <r_epik_Ionization_Penalty_Neutral>
0.0193593

> <r_epik_State_Penalty>
0.104983

> <r_epik_Charging_Adjusted_Penalty>
0.200328

> <i_epik_Tot_Q>
1

> <i_epik_Tot_abs_Q>
1

> <r_epik_Metal_State_Penalty>
0.100113

> <b_epik_Metal_Only>
0

> <s_lp_Force_Field>
OPLS_2005

> <r_lp_Energy>
25.0457

> <b_lp_Chiralities_Consistent>
1

> <s_lp_Variant>
AV-unprocessed.smi:861-4

> <Gold.Version>
5.8.1

> <Gold.Id.Protein>
6NUR|6NUR_protein|mol2

> <Gold.PLP.Fitness>
43.9898

> <Gold.PLP.PLP>
-39.6229

> <Gold.PLP.part.hbond>
-1.5907

> <Gold.PLP.part.metal>
0.0000

> <Gold.PLP.part.buried>
-4.3083

> <Gold.PLP.part.nonpolar>
-34.5116

> <Gold.PLP.part.repulsive>
0.4416

> <Gold.PLP.ligand.clash>
0.0000

> <Gold.PLP.ligand.torsion>
0.3603

> <Gold.PLP.Chemscore.Hbond>
1.6625

> <Gold.PLP.Chemscore.CHOScore>
0.0000

> <Gold.PLP.Chemscore.Metal>
0.0000

> <Gold.Chemscore.Hbonds>
donor molecule, donor type, donor heavy atom, donor atom, acceptor molecule, acceptor atom, score
      L1  H    12    38       P1  7957  0.91
      P1  H  7989  7998       L1     9  0.65

> <Gold.PLP.Chemscore.Internal.Correction>
0.1001

> <Gold.Rescore>
     Score         DG    S(hbond)    S(metal)    S(lipo)     H(rot)  DE(clash)    DE(int)     intcor
     18.85     -19.35       1.89        0.00     102.22       1.71       0.16       0.34       ----

> <Gold.Chemscore.Fitness>
18.8461

> <Gold.Chemscore.DG>
-19.3523

> <Gold.Chemscore.ZeroCoef>
-5.4800

> <Gold.Chemscore.Hbond>
1.8853

> <Gold.Chemscore.Metal>
0.0000

> <Gold.Chemscore.Lipo>
102.2224

> <Gold.Chemscore.Internal_Hbond>
0.0000

> <Gold.Chemscore.DEClash>
0.1636

> <Gold.Chemscore.DEInternal>
0.3426

> <Gold.Chemscore.Rot>
1.7127

> <Gold.Chemscore.Internal.Correction>
   9.000000E+99

> <Gold.Chemscore.Hbonds>
donor molecule, donor type, donor heavy atom, donor atom, acceptor molecule, acceptor atom, score
      L1  H    12    38       P1  7957  0.86
      P1  H  7989  7998       L1     9  0.05

> <Gold.Chemscore.Hbond.Weighted>
-6.2968

> <Gold.Chemscore.Metal.Weighted>
-0.0000

> <Gold.Chemscore.Lipo.Weighted>
-11.9600

> <Gold.Chemscore.Internal_Hbond.Weighted>
0.0000

> <Gold.Chemscore.DEClash.Weighted>
0.1636

> <Gold.Chemscore.DEInternal.Weighted>
0.3426

> <Gold.Chemscore.Rot.Weighted>
4.3844

> <Gold.Chemscore.Internal.Correction.Weighted>
   9.000000E+99

> <Gold.Protein.RotatedTorsions>
[ 6907 6896 6895 6894 ] final  179.46 input  -60.11 | X-H torsion
[ 7974 7965 7964 7962 ] final -144.79 input  175.53 | X-H torsion
[ 8008 7997 7996 7995 ] final -108.21 input   59.86 | X-H torsion
[ 10167 10162 10161 10158 ] final   35.73 input  -65.29 | X-H torsion
[ 10718 10713 10712 10709 ] final -128.17 input   66.30 | X-H torsion
[ 10763 10752 10751 10750 ] final   68.33 input  -60.55 | X-H torsion
[ 11005 11000 10999 10996 ] final -104.20 input  -57.11 | X-H torsion

> <Gold.Protein.ActiveResidues>
 VAL166  LYS551  ARG553  GLY616  TRP617  ASP618  TYR619  PRO620  LYS621  CYS622 
 ASP623  PHE694  ASN695  SER759  ASP760  ASP761  ALA762  ILE779  LEU786  VAL792 
 PHE793  MET794  SER795  GLU796  ALA797  LYS798  CYS799  TRP800  GLU811  SER814 

> <Gold.Protein.RotatedAtoms>
  151.6714  133.3314  159.3197 H   0  0  0  0  0  0  0  0  0  0  0  0  # atno 6907 bound_to 6896
  150.7866  134.6859  159.6479 H   0  0  0  0  0  0  0  0  0  0  0  0  # atno 6908 bound_to 6896
  152.3937  134.6404  160.0150 H   0  0  0  0  0  0  0  0  0  0  0  0  # atno 6909 bound_to 6896
  144.8272  140.5665  143.5539 H   0  0  0  0  0  0  0  0  0  0  0  0  # atno 7974 bound_to 7965
  154.9408  140.0403  157.2096 H   0  0  0  0  0  0  0  0  0  0  0  0  # atno 8008 bound_to 7997
  154.8070  140.2861  155.5858 H   0  0  0  0  0  0  0  0  0  0  0  0  # atno 8009 bound_to 7997
  156.2967  140.2544  156.2951 H   0  0  0  0  0  0  0  0  0  0  0  0  # atno 8010 bound_to 7997
  140.4194  144.1481  150.6146 H   0  0  0  0  0  0  0  0  0  0  0  0  # atno 10167 bound_to 10162
  156.1926  130.6805  151.0442 H   0  0  0  0  0  0  0  0  0  0  0  0  # atno 10718 bound_to 10713
  153.0230  135.5251  154.7117 H   0  0  0  0  0  0  0  0  0  0  0  0  # atno 10763 bound_to 10752
  154.6198  135.2887  155.0341 H   0  0  0  0  0  0  0  0  0  0  0  0  # atno 10764 bound_to 10752
  154.1332  135.6589  153.4979 H   0  0  0  0  0  0  0  0  0  0  0  0  # atno 10765 bound_to 10752
  141.1111  133.8703  157.1581 H   0  0  0  0  0  0  0  0  0  0  0  0  # atno 11005 bound_to 11000
  145.4974  139.1485  143.3676 LP  0  0  0  0  0  0  0  0  0  0  0  0  # atno 17320 bound_to 7965
  146.2577  140.5113  142.8866 LP  0  0  0  0  0  0  0  0  0  0  0  0  # atno 17321 bound_to 7965
  140.4550  143.2471  151.9296 LP  0  0  0  0  0  0  0  0  0  0  0  0  # atno 17342 bound_to 10162
  139.4782  144.5524  151.8365 LP  0  0  0  0  0  0  0  0  0  0  0  0  # atno 17343 bound_to 10162
  157.6938  131.0801  150.7030 LP  0  0  0  0  0  0  0  0  0  0  0  0  # atno 17370 bound_to 10713
  156.7086  130.4645  149.5553 LP  0  0  0  0  0  0  0  0  0  0  0  0  # atno 17371 bound_to 10713
  140.0006  135.0029  157.0181 LP  0  0  0  0  0  0  0  0  0  0  0  0  # atno 17394 bound_to 11000
  140.4771  134.1327  155.7211 LP  0  0  0  0  0  0  0  0  0  0  0  0  # atno 17395 bound_to 11000

$$$$
