AV-unprocessed.smi:1871|AV-procd|sdf|7599|dock2
  -GOLD-   22720 9313D 1   1.00000     0.00000
 Structure written by MMmdl.
 40 42  0  0  0  0  0  0  0  0  1 V2000
  151.8493  139.3432  154.3976 O   0  0  0  0  0  0  0  0  0  0  0  0
  151.6086  138.9863  155.7415 C   0  0  0  0  0  0  0  0  0  0  0  0
  151.7430  140.1477  156.6780 C   0  0  0  0  0  0  0  0  0  0  0  0
  152.4798  140.0760  157.7872 N   0  0  0  0  0  0  0  0  0  0  0  0
  152.3330  141.3364  158.3326 C   0  0  0  0  0  0  0  0  0  0  0  0
  152.8674  141.8937  159.5163 C   0  0  0  0  0  0  0  0  0  0  0  0
  152.5737  143.2262  159.8738 C   0  0  0  0  0  0  0  0  0  0  0  0
  151.7438  144.0188  159.0547 C   0  0  0  0  0  0  0  0  0  0  0  0
  151.2006  143.4826  157.8713 C   0  0  0  0  0  0  0  0  0  0  0  0
  151.4963  142.1521  157.5196 C   0  0  0  0  0  0  0  0  0  0  0  0
  151.1309  141.3382  156.4525 N   0  0  0  0  0  0  0  0  0  0  0  0
  150.2676  141.7231  155.3438 C   0  0  0  0  0  0  0  0  0  0  0  0
  149.0916  140.7457  155.1453 C   0  0  2  0  0  0  0  0  0  0  0  0
  149.3316  139.9197  154.0224 O   0  0  0  0  0  0  0  0  0  0  0  0
  147.7678  141.4863  155.0404 C   0  0  0  0  0  0  0  0  0  0  0  0
  146.8082  141.3934  156.0711 C   0  0  0  0  0  0  0  0  0  0  0  0
  145.5828  142.0785  155.9636 C   0  0  0  0  0  0  0  0  0  0  0  0
  145.2922  142.8562  154.8248 C   0  0  0  0  0  0  0  0  0  0  0  0
  144.0823  143.5117  154.7863 O   0  0  0  0  0  0  0  0  0  0  0  0
  144.0601  144.8708  154.7526 C   0  0  0  0  0  0  0  0  0  0  0  0
  144.3811  145.3035  153.5095 F   0  0  0  0  0  0  0  0  0  0  0  0
  142.8174  145.3314  155.0374 F   0  0  0  0  0  0  0  0  0  0  0  0
  146.2593  142.9544  153.7955 C   0  0  0  0  0  0  0  0  0  0  0  0
  147.4854  142.2697  153.9021 C   0  0  0  0  0  0  0  0  0  0  0  0
  152.3030  138.6299  153.9758 H   0  0  0  0  0  0  0  0  0  0  0  0
  150.6156  138.5460  155.8301 H   0  0  0  0  0  0  0  0  0  0  0  0
  152.3197  138.2104  156.0272 H   0  0  0  0  0  0  0  0  0  0  0  0
  153.5039  141.2947  160.1505 H   0  0  0  0  0  0  0  0  0  0  0  0
  152.9875  143.6424  160.7806 H   0  0  0  0  0  0  0  0  0  0  0  0
  151.5237  145.0382  159.3360 H   0  0  0  0  0  0  0  0  0  0  0  0
  150.5640  144.0864  157.2417 H   0  0  0  0  0  0  0  0  0  0  0  0
  149.8852  142.7235  155.5505 H   0  0  0  0  0  0  0  0  0  0  0  0
  150.8563  141.8101  154.4306 H   0  0  0  0  0  0  0  0  0  0  0  0
  149.0404  140.0814  156.0092 H   0  0  0  0  0  0  0  0  0  0  0  0
  149.3552  140.4642  153.2502 H   0  0  0  0  0  0  0  0  0  0  0  0
  147.0085  140.7955  156.9482 H   0  0  0  0  0  0  0  0  0  0  0  0
  144.8575  142.0026  156.7605 H   0  0  0  0  0  0  0  0  0  0  0  0
  144.7771  145.3034  155.4508 H   0  0  0  0  0  0  0  0  0  0  0  0
  146.0761  143.5576  152.9188 H   0  0  0  0  0  0  0  0  0  0  0  0
  148.2099  142.3515  153.1051 H   0  0  0  0  0  0  0  0  0  0  0  0
  1  2  1  0  0  0  0
  1 25  1  0  0  0  0
  2  3  1  0  0  0  0
  2 26  1  0  0  0  0
  2 27  1  0  0  0  0
  3 11  1  0  0  0  0
  3  4  2  0  0  0  0
  4  5  1  0  0  0  0
  5 10  2  0  0  0  0
  5  6  1  0  0  0  0
  6  7  2  0  0  0  0
  6 28  1  0  0  0  0
  7  8  1  0  0  0  0
  7 29  1  0  0  0  0
  8  9  2  0  0  0  0
  8 30  1  0  0  0  0
  9 10  1  0  0  0  0
  9 31  1  0  0  0  0
 10 11  1  0  0  0  0
 11 12  1  0  0  0  0
 12 13  1  0  0  0  0
 12 32  1  0  0  0  0
 12 33  1  0  0  0  0
 13 14  1  0  0  0  0
 13 15  1  0  0  0  0
 13 34  1  0  0  0  0
 14 35  1  0  0  0  0
 15 24  1  0  0  0  0
 15 16  2  0  0  0  0
 16 17  1  0  0  0  0
 16 36  1  0  0  0  0
 17 18  2  0  0  0  0
 17 37  1  0  0  0  0
 18 19  1  0  0  0  0
 18 23  1  0  0  0  0
 19 20  1  0  0  0  0
 20 21  1  0  0  0  0
 20 22  1  0  0  0  0
 20 38  1  0  0  0  0
 23 24  2  0  0  0  0
 23 39  1  0  0  0  0
 24 40  1  0  0  0  0
M  END
> <s_m_source_file>
AV-unprocessed.smi

> <i_m_source_file_index>
1871

> <i_lp_mmshare_version>
43012

> <i_f3d_flags>
0

> <s_epik_input>
W2NIXTFbY0hdW2NIXVtjSF1jKGMxMiluKGMobjIpW0NIMl1bT0hdKVtDSDJdW0NASF0oW09IXSljM1tjSF1bY0hdYyhPW0NIXShGKUYpW2NIXVtjSF0z

> <s_epik_cmdline>
J2VwaWtfcHl0aG9uJywgJy1waCcsICc3LjAnLCAnLXRuJywgJzgnLCAnLW1hJywgJzIwMCcsICctbWV0YWxfYmluZGluZycsICctaW1hZScsICc8aW5maWxlLm1hZT4nLCAnLW9tYWUnLCAnPG91dGZpbGUubWFlPic=

> <r_lp_tautomer_probability>
1

> <r_epik_Ionization_Penalty>
0.0634717

> <r_epik_Ionization_Penalty_Charging>
0

> <r_epik_Ionization_Penalty_Neutral>
0.0634717

> <r_epik_State_Penalty>
0.0551572

> <r_epik_Charging_Adjusted_Penalty>
0.0551572

> <i_epik_Tot_Q>
0

> <i_epik_Tot_abs_Q>
0

> <r_epik_Metal_State_Penalty>
5.78034e-05

> <b_epik_Metal_Only>
0

> <s_lp_Force_Field>
OPLS_2005

> <r_lp_Energy>
12.8946

> <b_lp_Chiralities_Consistent>
1

> <s_lp_Variant>
AV-unprocessed.smi:1871-1

> <Gold.Version>
5.8.1

> <Gold.Id.Protein>
6NUR|6NUR_protein|mol2

> <Gold.PLP.Fitness>
53.6811

> <Gold.PLP.PLP>
-49.3382

> <Gold.PLP.part.hbond>
-2.7687

> <Gold.PLP.part.metal>
0.0000

> <Gold.PLP.part.buried>
-5.9043

> <Gold.PLP.part.nonpolar>
-39.6355

> <Gold.PLP.part.repulsive>
0.1572

> <Gold.PLP.ligand.clash>
0.0000

> <Gold.PLP.ligand.torsion>
1.0519

> <Gold.PLP.Chemscore.Hbond>
2.1044

> <Gold.PLP.Chemscore.CHOScore>
0.0000

> <Gold.PLP.Chemscore.Metal>
0.0000

> <Gold.Chemscore.Hbonds>
donor molecule, donor type, donor heavy atom, donor atom, acceptor molecule, acceptor atom, score
      L1  H    14    35       P1  7957  0.48
      P1  H  7989  7998       L1     1  0.96
      P1  H  7997  8010       L1     4  0.59

> <Gold.PLP.Chemscore.Internal.Correction>
0.1334

> <Gold.Rescore>
     Score         DG    S(hbond)    S(metal)    S(lipo)     H(rot)  DE(clash)    DE(int)     intcor
     13.15     -14.59       1.25        0.00     114.05       3.29       0.22       1.22       ----

> <Gold.Chemscore.Fitness>
13.1469

> <Gold.Chemscore.DG>
-14.5855

> <Gold.Chemscore.ZeroCoef>
-5.4800

> <Gold.Chemscore.Hbond>
1.2503

> <Gold.Chemscore.Metal>
0.0000

> <Gold.Chemscore.Lipo>
114.0502

> <Gold.Chemscore.Internal_Hbond>
0.0000

> <Gold.Chemscore.DEClash>
0.2232

> <Gold.Chemscore.DEInternal>
1.2154

> <Gold.Chemscore.Rot>
3.2868

> <Gold.Chemscore.Internal.Correction>
   9.000000E+99

> <Gold.Chemscore.Hbonds>
donor molecule, donor type, donor heavy atom, donor atom, acceptor molecule, acceptor atom, score
      L1  H    14    35       P1  7957  0.48
      P1  H  7989  7998       L1     1  0.87
      P1  H  7997  8010       L1     4  0.07

> <Gold.Chemscore.Hbond.Weighted>
-4.1759

> <Gold.Chemscore.Metal.Weighted>
-0.0000

> <Gold.Chemscore.Lipo.Weighted>
-13.3439

> <Gold.Chemscore.Internal_Hbond.Weighted>
0.0000

> <Gold.Chemscore.DEClash.Weighted>
0.2232

> <Gold.Chemscore.DEInternal.Weighted>
1.2154

> <Gold.Chemscore.Rot.Weighted>
8.4143

> <Gold.Chemscore.Internal.Correction.Weighted>
   9.000000E+99

> <Gold.Protein.RotatedTorsions>
[ 6907 6896 6895 6894 ] final -179.22 input  -60.11 | X-H torsion
[ 7974 7965 7964 7962 ] final -159.94 input  175.53 | X-H torsion
[ 8008 7997 7996 7995 ] final   43.03 input   59.86 | X-H torsion
[ 10167 10162 10161 10158 ] final  129.74 input  -65.29 | X-H torsion
[ 10718 10713 10712 10709 ] final -105.98 input   66.30 | X-H torsion
[ 10763 10752 10751 10750 ] final  160.10 input  -60.55 | X-H torsion
[ 11005 11000 10999 10996 ] final -139.33 input  -57.11 | X-H torsion

> <Gold.Protein.ActiveResidues>
 VAL166  LYS551  ARG553  GLY616  TRP617  ASP618  TYR619  PRO620  LYS621  CYS622 
 ASP623  PHE694  ASN695  SER759  ASP760  ASP761  ALA762  ILE779  LEU786  VAL792 
 PHE793  MET794  SER795  GLU796  ALA797  LYS798  CYS799  TRP800  GLU811  SER814 

> <Gold.Protein.RotatedAtoms>
  151.6499  133.3321  159.3149 H   0  0  0  0  0  0  0  0  0  0  0  0  # atno 6907 bound_to 6896
  150.7965  134.7033  159.6572 H   0  0  0  0  0  0  0  0  0  0  0  0  # atno 6908 bound_to 6896
  152.4053  134.6222  160.0105 H   0  0  0  0  0  0  0  0  0  0  0  0  # atno 6909 bound_to 6896
  144.7446  140.3613  143.6095 H   0  0  0  0  0  0  0  0  0  0  0  0  # atno 7974 bound_to 7965
  155.2960  140.3382  155.4250 H   0  0  0  0  0  0  0  0  0  0  0  0  # atno 8008 bound_to 7997
  156.2024  140.1738  156.7912 H   0  0  0  0  0  0  0  0  0  0  0  0  # atno 8009 bound_to 7997
  154.5576  140.0693  156.8752 H   0  0  0  0  0  0  0  0  0  0  0  0  # atno 8010 bound_to 7997
  139.5463  144.6776  151.4463 H   0  0  0  0  0  0  0  0  0  0  0  0  # atno 10167 bound_to 10162
  156.0370  130.5590  150.7616 H   0  0  0  0  0  0  0  0  0  0  0  0  # atno 10718 bound_to 10713
  154.2421  135.2774  155.2850 H   0  0  0  0  0  0  0  0  0  0  0  0  # atno 10763 bound_to 10752
  154.5536  135.5668  153.6947 H   0  0  0  0  0  0  0  0  0  0  0  0  # atno 10764 bound_to 10752
  152.9997  135.6280  154.2565 H   0  0  0  0  0  0  0  0  0  0  0  0  # atno 10765 bound_to 10752
  140.8530  134.2263  157.4750 H   0  0  0  0  0  0  0  0  0  0  0  0  # atno 11005 bound_to 11000
  145.7174  139.1700  143.2504 LP  0  0  0  0  0  0  0  0  0  0  0  0  # atno 17320 bound_to 7965
  146.1302  140.7195  142.9416 LP  0  0  0  0  0  0  0  0  0  0  0  0  # atno 17321 bound_to 7965
  140.6712  143.8290  150.7002 LP  0  0  0  0  0  0  0  0  0  0  0  0  # atno 17342 bound_to 10162
  140.1714  143.4191  152.1998 LP  0  0  0  0  0  0  0  0  0  0  0  0  # atno 17343 bound_to 10162
  157.5134  131.0927  151.0170 LP  0  0  0  0  0  0  0  0  0  0  0  0  # atno 17370 bound_to 10713
  157.0520  130.5791  149.5372 LP  0  0  0  0  0  0  0  0  0  0  0  0  # atno 17371 bound_to 10713
  139.8704  134.9692  156.4659 LP  0  0  0  0  0  0  0  0  0  0  0  0  # atno 17394 bound_to 11000
  140.8769  133.7947  155.9424 LP  0  0  0  0  0  0  0  0  0  0  0  0  # atno 17395 bound_to 11000

$$$$
