AV-unprocessed.smi:249|AV-procd|sdf|1925|dock6
  -GOLD-   2262021 33D 1   1.00000     0.00000
 Structure written by MMmdl.
 64 67  0  0  0  0  0  0  0  0  2 V2000
  149.5422  129.6963  154.6752 C   0  0  0  0  0  0  0  0  0  0  0  0
  150.6942  130.7100  154.5505 C   0  0  0  0  0  0  0  0  0  0  0  0
  150.3154  132.1138  154.8778 N   0  3  1  0  0  0  0  0  0  0  0  0
  151.4515  132.8844  155.4522 C   0  0  0  0  0  0  0  0  0  0  0  0
  150.9832  134.2263  156.0310 C   0  0  0  0  0  0  0  0  0  0  0  0
  150.2588  135.0503  154.9498 C   0  0  2  0  0  0  0  0  0  0  0  0
  149.8677  136.3975  155.3898 N   0  0  0  0  0  0  0  0  0  0  0  0
  148.4873  136.8108  155.1604 C   0  0  0  0  0  0  0  0  0  0  0  0
  150.7460  137.4347  155.4368 C   0  0  0  0  0  0  0  0  0  0  0  0
  151.7451  137.5313  154.5207 N   0  0  0  0  0  0  0  0  0  0  0  0
  152.5960  138.5609  154.5502 C   0  0  0  0  0  0  0  0  0  0  0  0
  152.6254  139.5939  155.3931 N   0  0  0  0  0  0  0  0  0  0  0  0
  151.6222  139.5094  156.3124 C   0  0  0  0  0  0  0  0  0  0  0  0
  150.6507  138.4729  156.4071 C   0  0  0  0  0  0  0  0  0  0  0  0
  149.8024  138.7191  157.4803 N   0  0  0  0  0  0  0  0  0  0  0  0
  150.2419  139.8388  157.9860 C   0  0  0  0  0  0  0  0  0  0  0  0
  151.3188  140.3942  157.3324 N   0  0  0  0  0  0  0  0  0  0  0  0
  152.0075  141.6237  157.6836 C   0  0  0  0  0  0  0  0  0  0  0  0
  151.6351  142.2103  159.0744 C   0  0  2  0  0  0  0  0  0  0  0  0
  150.8625  143.5366  158.8733 C   0  0  0  0  0  0  0  0  0  0  0  0
  149.5432  143.3016  158.4253 O   0  0  0  0  0  0  0  0  0  0  0  0
  152.8681  142.4050  160.0076 C   0  0  1  0  0  0  0  0  0  0  0  0
  152.5374  142.7717  161.4474 C   0  0  0  0  0  0  0  0  0  0  0  0
  153.8309  142.4370  162.1747 C   0  0  0  0  0  0  0  0  0  0  0  0
  154.2903  141.2511  161.5469 O   0  0  0  0  0  0  0  0  0  0  0  0
  153.7381  141.1562  160.2368 C   0  0  0  0  0  0  0  0  0  0  0  0
  149.1072  134.2266  154.3381 C   0  0  0  0  0  0  0  0  0  0  0  0
  149.6033  132.8683  153.7984 C   0  0  2  0  0  0  0  0  0  0  0  0
  148.4121  132.0877  153.2082 C   0  0  0  0  0  0  0  0  0  0  0  0
  149.8871  128.6975  154.4073 H   0  0  0  0  0  0  0  0  0  0  0  0
  148.7131  129.9384  154.0110 H   0  0  0  0  0  0  0  0  0  0  0  0
  149.1553  129.6395  155.6923 H   0  0  0  0  0  0  0  0  0  0  0  0
  151.5288  130.3991  155.1781 H   0  0  0  0  0  0  0  0  0  0  0  0
  151.0845  130.6827  153.5325 H   0  0  0  0  0  0  0  0  0  0  0  0
  151.9304  132.3045  156.2420 H   0  0  0  0  0  0  0  0  0  0  0  0
  152.2073  133.0605  154.6862 H   0  0  0  0  0  0  0  0  0  0  0  0
  150.3338  134.0361  156.8846 H   0  0  0  0  0  0  0  0  0  0  0  0
  151.8433  134.7757  156.4144 H   0  0  0  0  0  0  0  0  0  0  0  0
  150.9755  135.2136  154.1433 H   0  0  0  0  0  0  0  0  0  0  0  0
  148.0257  137.1411  156.0910 H   0  0  0  0  0  0  0  0  0  0  0  0
  147.8873  135.9875  154.7713 H   0  0  0  0  0  0  0  0  0  0  0  0
  148.4361  137.6286  154.4400 H   0  0  0  0  0  0  0  0  0  0  0  0
  153.3601  138.5592  153.7871 H   0  0  0  0  0  0  0  0  0  0  0  0
  149.7815  140.2987  158.8484 H   0  0  0  0  0  0  0  0  0  0  0  0
  153.0824  141.4449  157.6339 H   0  0  0  0  0  0  0  0  0  0  0  0
  151.7847  142.3412  156.8935 H   0  0  0  0  0  0  0  0  0  0  0  0
  150.9527  141.5200  159.5718 H   0  0  0  0  0  0  0  0  0  0  0  0
  150.7739  144.0940  159.8046 H   0  0  0  0  0  0  0  0  0  0  0  0
  151.3776  144.1819  158.1610 H   0  0  0  0  0  0  0  0  0  0  0  0
  149.3207  143.9606  157.7855 H   0  0  0  0  0  0  0  0  0  0  0  0
  153.4994  143.1972  159.6017 H   0  0  0  0  0  0  0  0  0  0  0  0
  152.2579  143.8179  161.5740 H   0  0  0  0  0  0  0  0  0  0  0  0
  151.7250  142.1488  161.8250 H   0  0  0  0  0  0  0  0  0  0  0  0
  154.5691  143.2264  162.0256 H   0  0  0  0  0  0  0  0  0  0  0  0
  153.6900  142.2972  163.2468 H   0  0  0  0  0  0  0  0  0  0  0  0
  153.1429  140.2436  160.1912 H   0  0  0  0  0  0  0  0  0  0  0  0
  154.5402  141.0743  159.5045 H   0  0  0  0  0  0  0  0  0  0  0  0
  148.3221  134.0430  155.0708 H   0  0  0  0  0  0  0  0  0  0  0  0
  148.6451  134.7968  153.5310 H   0  0  0  0  0  0  0  0  0  0  0  0
  150.3126  133.0656  152.9932 H   0  0  0  0  0  0  0  0  0  0  0  0
  147.8648  132.7000  152.4909 H   0  0  0  0  0  0  0  0  0  0  0  0
  147.7092  131.7860  153.9856 H   0  0  0  0  0  0  0  0  0  0  0  0
  148.7295  131.1934  152.6727 H   0  0  0  0  0  0  0  0  0  0  0  0
  149.6461  132.0311  155.6298 H   0  0  0  0  0  0  0  0  0  0  0  0
  1  2  1  0  0  0  0
  1 30  1  0  0  0  0
  1 31  1  0  0  0  0
  1 32  1  0  0  0  0
  2  3  1  0  0  0  0
  2 33  1  0  0  0  0
  2 34  1  0  0  0  0
  3 28  1  0  0  0  0
  3  4  1  0  0  0  0
  3 64  1  0  0  0  0
  4  5  1  0  0  0  0
  4 35  1  0  0  0  0
  4 36  1  0  0  0  0
  5  6  1  0  0  0  0
  5 37  1  0  0  0  0
  5 38  1  0  0  0  0
  6  7  1  0  0  0  0
  6 27  1  0  0  0  0
  6 39  1  0  0  0  0
  7  8  1  0  0  0  0
  7  9  1  0  0  0  0
  8 40  1  0  0  0  0
  8 41  1  0  0  0  0
  8 42  1  0  0  0  0
  9 14  1  0  0  0  0
  9 10  2  0  0  0  0
 10 11  1  0  0  0  0
 11 12  2  0  0  0  0
 11 43  1  0  0  0  0
 12 13  1  0  0  0  0
 13 17  1  0  0  0  0
 13 14  2  0  0  0  0
 14 15  1  0  0  0  0
 15 16  2  0  0  0  0
 16 17  1  0  0  0  0
 16 44  1  0  0  0  0
 17 18  1  0  0  0  0
 18 19  1  0  0  0  0
 18 45  1  0  0  0  0
 18 46  1  0  0  0  0
 19 20  1  0  0  0  0
 19 22  1  0  0  0  0
 19 47  1  0  0  0  0
 20 21  1  0  0  0  0
 20 48  1  0  0  0  0
 20 49  1  0  0  0  0
 21 50  1  0  0  0  0
 22 26  1  0  0  0  0
 22 23  1  0  0  0  0
 22 51  1  0  0  0  0
 23 24  1  0  0  0  0
 23 52  1  0  0  0  0
 23 53  1  0  0  0  0
 24 25  1  0  0  0  0
 24 54  1  0  0  0  0
 24 55  1  0  0  0  0
 25 26  1  0  0  0  0
 26 56  1  0  0  0  0
 26 57  1  0  0  0  0
 27 28  1  0  0  0  0
 27 58  1  0  0  0  0
 27 59  1  0  0  0  0
 28 29  1  0  0  0  0
 28 60  1  0  0  0  0
 29 61  1  0  0  0  0
 29 62  1  0  0  0  0
 29 63  1  0  0  0  0
M  CHG  1   3   1
M  END
> <s_m_source_file>
AV-unprocessed.smi

> <i_m_source_file_index>
249

> <i_lp_mmshare_version>
43012

> <i_f3d_flags>
0

> <s_epik_input>
W0NIM11bQ0gyXU4xW0NIMl1bQ0gyXVtDQEhdKFtDSDJdW0NASF0xW0NIM10pTihbQ0gzXSljKG5bY0hdbjIpYyhjMjMpbltjSF1uM1tDSDJdW0NASF0oW0NIMl1bT0hdKVtDQEBIXTRbQ0gyXVtDSDJdT1tDSDJdNA==

> <s_epik_cmdline>
J2VwaWtfcHl0aG9uJywgJy1waCcsICc3LjAnLCAnLXRuJywgJzgnLCAnLW1hJywgJzIwMCcsICctbWV0YWxfYmluZGluZycsICctaW1hZScsICc8aW5maWxlLm1hZT4nLCAnLW9tYWUnLCAnPG91dGZpbGUubWFlPic=

> <r_lp_tautomer_probability>
1

> <r_epik_Ionization_Penalty>
0.00294688

> <r_epik_Ionization_Penalty_Charging>
0.00169971

> <r_epik_Ionization_Penalty_Neutral>
0.00124717

> <r_epik_State_Penalty>
-0

> <r_epik_Charging_Adjusted_Penalty>
0.00169971

> <i_epik_Tot_Q>
1

> <i_epik_Tot_abs_Q>
1

> <r_epik_Metal_State_Penalty>
-0

> <b_epik_Metal_Only>
0

> <s_lp_Force_Field>
OPLS_2005

> <r_lp_Energy>
53.7488

> <b_lp_Chiralities_Consistent>
1

> <s_lp_Variant>
AV-unprocessed.smi:249-28

> <Gold.Version>
5.8.1

> <Gold.Id.Protein>
6NUR|6NUR_protein|mol2

> <Gold.PLP.Fitness>
57.0224

> <Gold.PLP.PLP>
-52.0442

> <Gold.PLP.part.hbond>
-3.8162

> <Gold.PLP.part.metal>
0.0000

> <Gold.PLP.part.buried>
-7.6559

> <Gold.PLP.part.nonpolar>
-39.1423

> <Gold.PLP.part.repulsive>
0.1158

> <Gold.PLP.ligand.clash>
0.0000

> <Gold.PLP.ligand.torsion>
2.5076

> <Gold.PLP.Chemscore.Hbond>
2.9440

> <Gold.PLP.Chemscore.CHOScore>
0.0000

> <Gold.PLP.Chemscore.Metal>
0.0000

> <Gold.Chemscore.Hbonds>
donor molecule, donor type, donor heavy atom, donor atom, acceptor molecule, acceptor atom, score
      L1  H    21    50       P1  8028  0.30
      P1  H  7997  8008       L1    12  1.00
      P1  H 10752 10765       L1    10  0.51

> <Gold.PLP.Chemscore.Internal.Correction>
1.1615

> <Gold.Rescore>
     Score         DG    S(hbond)    S(metal)    S(lipo)     H(rot)  DE(clash)    DE(int)     intcor
     14.45     -18.51       1.75        0.00     119.48       2.65       0.97       3.10       ----

> <Gold.Chemscore.Fitness>
14.4480

> <Gold.Chemscore.DG>
-18.5089

> <Gold.Chemscore.ZeroCoef>
-5.4800

> <Gold.Chemscore.Hbond>
1.7478

> <Gold.Chemscore.Metal>
0.0000

> <Gold.Chemscore.Lipo>
119.4801

> <Gold.Chemscore.Internal_Hbond>
0.0000

> <Gold.Chemscore.DEClash>
0.9654

> <Gold.Chemscore.DEInternal>
3.0955

> <Gold.Chemscore.Rot>
2.6515

> <Gold.Chemscore.Internal.Correction>
   9.000000E+99

> <Gold.Chemscore.Hbonds>
donor molecule, donor type, donor heavy atom, donor atom, acceptor molecule, acceptor atom, score
      L1  H    21    50       P1  8028  0.04
      P1  H  7997  8008       L1    12  0.88
      P1  H 10752 10765       L1    10  0.27

> <Gold.Chemscore.Hbond.Weighted>
-5.8376

> <Gold.Chemscore.Metal.Weighted>
-0.0000

> <Gold.Chemscore.Lipo.Weighted>
-13.9792

> <Gold.Chemscore.Internal_Hbond.Weighted>
0.0000

> <Gold.Chemscore.DEClash.Weighted>
0.9654

> <Gold.Chemscore.DEInternal.Weighted>
3.0955

> <Gold.Chemscore.Rot.Weighted>
6.7880

> <Gold.Chemscore.Internal.Correction.Weighted>
   9.000000E+99

> <Gold.Protein.RotatedTorsions>
[ 6907 6896 6895 6894 ] final -119.24 input  -60.11 | X-H torsion
[ 7974 7965 7964 7962 ] final   51.68 input  175.53 | X-H torsion
[ 8008 7997 7996 7995 ] final  -27.92 input   59.86 | X-H torsion
[ 10167 10162 10161 10158 ] final  141.93 input  -65.29 | X-H torsion
[ 10718 10713 10712 10709 ] final  -50.62 input   66.30 | X-H torsion
[ 10763 10752 10751 10750 ] final  166.25 input  -60.55 | X-H torsion
[ 11005 11000 10999 10996 ] final   -6.23 input  -57.11 | X-H torsion

> <Gold.Protein.ActiveResidues>
 VAL166  LYS551  ARG553  GLY616  TRP617  ASP618  TYR619  PRO620  LYS621  CYS622 
 ASP623  PHE694  ASN695  SER759  ASP760  ASP761  ALA762  ILE779  LEU786  VAL792 
 PHE793  MET794  SER795  GLU796  ALA797  LYS798  CYS799  TRP800  GLU811  SER814 

> <Gold.Protein.RotatedAtoms>
  150.8288  133.8126  159.3107 H   0  0  0  0  0  0  0  0  0  0  0  0  # atno 6907 bound_to 6896
  151.5862  135.1054  160.0038 H   0  0  0  0  0  0  0  0  0  0  0  0  # atno 6908 bound_to 6896
  152.4370  133.7337  159.6658 H   0  0  0  0  0  0  0  0  0  0  0  0  # atno 6909 bound_to 6896
  145.9889  139.4318  143.0086 H   0  0  0  0  0  0  0  0  0  0  0  0  # atno 7974 bound_to 7965
  154.4355  140.1859  156.1008 H   0  0  0  0  0  0  0  0  0  0  0  0  # atno 8008 bound_to 7997
  156.0294  140.3332  155.7097 H   0  0  0  0  0  0  0  0  0  0  0  0  # atno 8009 bound_to 7997
  155.5862  140.0626  157.2761 H   0  0  0  0  0  0  0  0  0  0  0  0  # atno 8010 bound_to 7997
  139.5007  144.6139  151.6208 H   0  0  0  0  0  0  0  0  0  0  0  0  # atno 10167 bound_to 10162
  156.1784  130.4150  149.9543 H   0  0  0  0  0  0  0  0  0  0  0  0  # atno 10718 bound_to 10713
  154.3362  135.2754  155.2446 H   0  0  0  0  0  0  0  0  0  0  0  0  # atno 10763 bound_to 10752
  154.4737  135.5876  153.6343 H   0  0  0  0  0  0  0  0  0  0  0  0  # atno 10764 bound_to 10752
  152.9862  135.6094  154.3559 H   0  0  0  0  0  0  0  0  0  0  0  0  # atno 10765 bound_to 10752
  140.6997  133.9000  155.8675 H   0  0  0  0  0  0  0  0  0  0  0  0  # atno 11005 bound_to 11000
  145.7659  140.9916  143.1175 LP  0  0  0  0  0  0  0  0  0  0  0  0  # atno 17320 bound_to 7965
  144.6883  139.9388  143.7474 LP  0  0  0  0  0  0  0  0  0  0  0  0  # atno 17321 bound_to 7965
  140.5822  143.9926  150.6275 LP  0  0  0  0  0  0  0  0  0  0  0  0  # atno 17342 bound_to 10162
  140.3079  143.3217  152.0908 LP  0  0  0  0  0  0  0  0  0  0  0  0  # atno 17343 bound_to 10162
  156.7321  130.9047  151.3626 LP  0  0  0  0  0  0  0  0  0  0  0  0  # atno 17370 bound_to 10713
  157.6851  130.9178  150.0366 LP  0  0  0  0  0  0  0  0  0  0  0  0  # atno 17371 bound_to 10713
  141.0174  134.0937  157.4157 LP  0  0  0  0  0  0  0  0  0  0  0  0  # atno 17394 bound_to 11000
  139.8900  135.0109  156.6712 LP  0  0  0  0  0  0  0  0  0  0  0  0  # atno 17395 bound_to 11000

$$$$
