AV-unprocessed.smi:1075|AV-procd|sdf|4693|dock3
  -GOLD-   22720 3213D 1   1.00000     0.00000
 Structure written by MMmdl.
 50 51  0  0  0  0  0  0  0  0  1 V2000
  151.7472  139.6730  156.2387 C   0  0  0  0  0  0  0  0  0  0  0  0
  152.3604  140.3672  157.4213 C   0  0  0  0  0  0  0  0  0  0  0  0
  153.4060  139.8232  158.0195 N   0  0  0  0  0  0  0  0  0  0  0  0
  153.7031  140.6672  159.0266 N   0  0  0  0  0  0  0  0  0  0  0  0
  154.8195  140.3632  159.9009 C   0  0  0  0  0  0  0  0  0  0  0  0
  152.8409  141.7458  159.0685 C   0  0  0  0  0  0  0  0  0  0  0  0
  152.9647  142.8112  160.1118 C   0  0  0  0  0  0  0  0  0  0  0  0
  151.9533  141.5900  158.0329 C   0  0  0  0  0  0  0  0  0  0  0  0
  150.7900  142.4671  157.6079 C   0  0  2  0  0  0  0  0  0  0  0  0
  150.8976  143.8781  158.2169 C   0  0  0  0  0  0  0  0  0  0  0  0
  149.4472  141.7767  157.9146 C   0  0  0  0  0  0  0  0  0  0  0  0
  149.3772  140.9041  158.7802 O   0  0  0  0  0  0  0  0  0  0  0  0
  148.3878  142.1959  157.1979 N   0  0  0  0  0  0  0  0  0  0  0  0
  146.9938  141.7369  157.2491 C   0  0  1  0  0  0  0  0  0  0  0  0
  146.4049  141.9928  158.6534 C   0  0  0  0  0  0  0  0  0  0  0  0
  146.1316  142.4282  156.1612 C   0  0  0  0  0  0  0  0  0  0  0  0
  146.5913  142.0871  154.7317 C   0  0  0  0  0  0  0  0  0  0  0  0
  146.6001  140.5667  154.4888 C   0  0  1  0  0  0  0  0  0  0  0  0
  147.0733  140.2269  153.0687 C   0  0  0  0  0  0  0  0  0  0  0  0
  147.4561  139.8564  155.5532 C   0  0  0  0  0  0  0  0  0  0  0  0
  146.9978  140.2130  156.9801 C   0  0  0  0  0  0  0  0  0  0  0  0
  150.6987  139.4403  156.4267 H   0  0  0  0  0  0  0  0  0  0  0  0
  152.2573  138.7370  156.0079 H   0  0  0  0  0  0  0  0  0  0  0  0
  151.7944  140.3034  155.3505 H   0  0  0  0  0  0  0  0  0  0  0  0
  155.4861  141.2238  159.9571 H   0  0  0  0  0  0  0  0  0  0  0  0
  155.3826  139.5078  159.5249 H   0  0  0  0  0  0  0  0  0  0  0  0
  154.4493  140.1325  160.8999 H   0  0  0  0  0  0  0  0  0  0  0  0
  152.0702  143.4308  160.1598 H   0  0  0  0  0  0  0  0  0  0  0  0
  153.8129  143.4618  159.8988 H   0  0  0  0  0  0  0  0  0  0  0  0
  153.1111  142.3752  161.1002 H   0  0  0  0  0  0  0  0  0  0  0  0
  150.8046  142.5950  156.5251 H   0  0  0  0  0  0  0  0  0  0  0  0
  150.8566  143.8578  159.3059 H   0  0  0  0  0  0  0  0  0  0  0  0
  150.0936  144.5262  157.8666 H   0  0  0  0  0  0  0  0  0  0  0  0
  151.8384  144.3500  157.9319 H   0  0  0  0  0  0  0  0  0  0  0  0
  148.5738  142.9209  156.5199 H   0  0  0  0  0  0  0  0  0  0  0  0
  145.4085  141.5598  158.7471 H   0  0  0  0  0  0  0  0  0  0  0  0
  146.3097  143.0561  158.8720 H   0  0  0  0  0  0  0  0  0  0  0  0
  147.0281  141.5502  159.4315 H   0  0  0  0  0  0  0  0  0  0  0  0
  145.0923  142.1170  156.2757 H   0  0  0  0  0  0  0  0  0  0  0  0
  146.1277  143.5098  156.2949 H   0  0  0  0  0  0  0  0  0  0  0  0
  145.9296  142.5726  154.0136 H   0  0  0  0  0  0  0  0  0  0  0  0
  147.5859  142.4984  154.5544 H   0  0  0  0  0  0  0  0  0  0  0  0
  145.5752  140.2060  154.5886 H   0  0  0  0  0  0  0  0  0  0  0  0
  148.0983  140.5597  152.9018 H   0  0  0  0  0  0  0  0  0  0  0  0
  146.4417  140.7055  152.3198 H   0  0  0  0  0  0  0  0  0  0  0  0
  147.0386  139.1518  152.8901 H   0  0  0  0  0  0  0  0  0  0  0  0
  147.3981  138.7763  155.4144 H   0  0  0  0  0  0  0  0  0  0  0  0
  148.5062  140.1220  155.4231 H   0  0  0  0  0  0  0  0  0  0  0  0
  147.6366  139.7050  157.7042 H   0  0  0  0  0  0  0  0  0  0  0  0
  145.9947  139.8123  157.1335 H   0  0  0  0  0  0  0  0  0  0  0  0
  1  2  1  0  0  0  0
  1 22  1  0  0  0  0
  1 23  1  0  0  0  0
  1 24  1  0  0  0  0
  2  8  1  0  0  0  0
  2  3  2  0  0  0  0
  3  4  1  0  0  0  0
  4  5  1  0  0  0  0
  4  6  1  0  0  0  0
  5 25  1  0  0  0  0
  5 26  1  0  0  0  0
  5 27  1  0  0  0  0
  6  7  1  0  0  0  0
  6  8  2  0  0  0  0
  7 28  1  0  0  0  0
  7 29  1  0  0  0  0
  7 30  1  0  0  0  0
  8  9  1  0  0  0  0
  9 10  1  0  0  0  0
  9 11  1  0  0  0  0
  9 31  1  0  0  0  0
 10 32  1  0  0  0  0
 10 33  1  0  0  0  0
 10 34  1  0  0  0  0
 11 12  2  0  0  0  0
 11 13  1  0  0  0  0
 13 14  1  0  0  0  0
 13 35  1  0  0  0  0
 14 21  1  0  0  0  0
 14 15  1  0  0  0  0
 14 16  1  0  0  0  0
 15 36  1  0  0  0  0
 15 37  1  0  0  0  0
 15 38  1  0  0  0  0
 16 17  1  0  0  0  0
 16 39  1  0  0  0  0
 16 40  1  0  0  0  0
 17 18  1  0  0  0  0
 17 41  1  0  0  0  0
 17 42  1  0  0  0  0
 18 19  1  0  0  0  0
 18 20  1  0  0  0  0
 18 43  1  0  0  0  0
 19 44  1  0  0  0  0
 19 45  1  0  0  0  0
 19 46  1  0  0  0  0
 20 21  1  0  0  0  0
 20 47  1  0  0  0  0
 20 48  1  0  0  0  0
 21 49  1  0  0  0  0
 21 50  1  0  0  0  0
M  END
> <s_m_source_file>
AV-unprocessed.smi

> <i_m_source_file_index>
1075

> <i_lp_mmshare_version>
43012

> <i_f3d_flags>
0

> <s_epik_input>
W0NIM11jMW5uKFtDSDNdKWMoW0NIM10pYzFbQ0BIXShbQ0gzXSlDKD1PKVtOSF1bQ0BAXTIoW0NIM10pW0NIMl1bQ0gyXVtDQEBIXShbQ0gzXSlbQ0gyXVtDSDJdMg==

> <s_epik_cmdline>
J2VwaWtfcHl0aG9uJywgJy1waCcsICc3LjAnLCAnLXRuJywgJzgnLCAnLW1hJywgJzIwMCcsICctbWV0YWxfYmluZGluZycsICctaW1hZScsICc8aW5maWxlLm1hZT4nLCAnLW9tYWUnLCAnPG91dGZpbGUubWFlPic=

> <r_lp_tautomer_probability>
1

> <r_epik_Ionization_Penalty>
0.00502928

> <r_epik_Ionization_Penalty_Charging>
0

> <r_epik_Ionization_Penalty_Neutral>
0.00502928

> <r_epik_State_Penalty>
0.0036576

> <r_epik_Charging_Adjusted_Penalty>
0.0036576

> <i_epik_Tot_Q>
0

> <i_epik_Tot_abs_Q>
0

> <r_epik_Metal_State_Penalty>
-0

> <b_epik_Metal_Only>
0

> <s_lp_Force_Field>
OPLS_2005

> <r_lp_Energy>
4.57547

> <b_lp_Chiralities_Consistent>
1

> <s_lp_Variant>
AV-unprocessed.smi:1075-1

> <Gold.Version>
5.8.1

> <Gold.Id.Protein>
6NUR|6NUR_protein|mol2

> <Gold.PLP.Fitness>
39.1197

> <Gold.PLP.PLP>
-34.8088

> <Gold.PLP.part.hbond>
-4.0000

> <Gold.PLP.part.metal>
0.0000

> <Gold.PLP.part.buried>
-0.0903

> <Gold.PLP.part.nonpolar>
-30.3973

> <Gold.PLP.part.repulsive>
0.0399

> <Gold.PLP.ligand.clash>
0.0000

> <Gold.PLP.ligand.torsion>
0.8892

> <Gold.PLP.Chemscore.Hbond>
2.0000

> <Gold.PLP.Chemscore.CHOScore>
0.0000

> <Gold.PLP.Chemscore.Metal>
0.0000

> <Gold.Chemscore.Hbonds>
donor molecule, donor type, donor heavy atom, donor atom, acceptor molecule, acceptor atom, score
      L1  H    13    35       P1  8028  1.00
      P1  H  7997  8009       L1     3  1.00

> <Gold.PLP.Chemscore.Internal.Correction>
0.0894

> <Gold.Rescore>
     Score         DG    S(hbond)    S(metal)    S(lipo)     H(rot)  DE(clash)    DE(int)     intcor
     13.61     -19.40       1.59        0.00     100.40       1.23       2.31       3.48       ----

> <Gold.Chemscore.Fitness>
13.6059

> <Gold.Chemscore.DG>
-19.3985

> <Gold.Chemscore.ZeroCoef>
-5.4800

> <Gold.Chemscore.Hbond>
1.5946

> <Gold.Chemscore.Metal>
0.0000

> <Gold.Chemscore.Lipo>
100.3998

> <Gold.Chemscore.Internal_Hbond>
0.0000

> <Gold.Chemscore.DEClash>
2.3083

> <Gold.Chemscore.DEInternal>
3.4843

> <Gold.Chemscore.Rot>
1.2321

> <Gold.Chemscore.Internal.Correction>
   9.000000E+99

> <Gold.Chemscore.Hbonds>
donor molecule, donor type, donor heavy atom, donor atom, acceptor molecule, acceptor atom, score
      L1  H    13    35       P1  8028  0.84
      P1  H  7997  8009       L1     3  0.17

> <Gold.Chemscore.Hbond.Weighted>
-5.3259

> <Gold.Chemscore.Metal.Weighted>
-0.0000

> <Gold.Chemscore.Lipo.Weighted>
-11.7468

> <Gold.Chemscore.Internal_Hbond.Weighted>
0.0000

> <Gold.Chemscore.DEClash.Weighted>
2.3083

> <Gold.Chemscore.DEInternal.Weighted>
3.4843

> <Gold.Chemscore.Rot.Weighted>
3.1541

> <Gold.Chemscore.Internal.Correction.Weighted>
   9.000000E+99

> <Gold.Protein.RotatedTorsions>
[ 6907 6896 6895 6894 ] final  135.09 input  -60.11 | X-H torsion
[ 7974 7965 7964 7962 ] final -110.31 input  175.53 | X-H torsion
[ 8008 7997 7996 7995 ] final  158.62 input   59.86 | X-H torsion
[ 10167 10162 10161 10158 ] final -174.16 input  -65.29 | X-H torsion
[ 10718 10713 10712 10709 ] final   94.25 input   66.30 | X-H torsion
[ 10763 10752 10751 10750 ] final -178.28 input  -60.55 | X-H torsion
[ 11005 11000 10999 10996 ] final -124.78 input  -57.11 | X-H torsion

> <Gold.Protein.ActiveResidues>
 VAL166  LYS551  ARG553  GLY616  TRP617  ASP618  TYR619  PRO620  LYS621  CYS622 
 ASP623  PHE694  ASN695  SER759  ASP760  ASP761  ALA762  ILE779  LEU786  VAL792 
 PHE793  MET794  SER795  GLU796  ALA797  LYS798  CYS799  TRP800  GLU811  SER814 

> <Gold.Protein.RotatedAtoms>
  152.3042  133.5686  159.5637 H   0  0  0  0  0  0  0  0  0  0  0  0  # atno 6907 bound_to 6896
  150.7292  134.0247  159.3722 H   0  0  0  0  0  0  0  0  0  0  0  0  # atno 6908 bound_to 6896
  151.8145  135.0671  160.0468 H   0  0  0  0  0  0  0  0  0  0  0  0  # atno 6909 bound_to 6896
  145.1698  140.8920  143.3542 H   0  0  0  0  0  0  0  0  0  0  0  0  # atno 7974 bound_to 7965
  156.2291  140.1853  156.7287 H   0  0  0  0  0  0  0  0  0  0  0  0  # atno 8008 bound_to 7997
  154.5992  140.0638  156.9373 H   0  0  0  0  0  0  0  0  0  0  0  0  # atno 8009 bound_to 7997
  155.2204  140.3307  155.4319 H   0  0  0  0  0  0  0  0  0  0  0  0  # atno 8010 bound_to 7997
  139.5649  144.1780  152.1296 H   0  0  0  0  0  0  0  0  0  0  0  0  # atno 10167 bound_to 10162
  157.6949  131.0506  150.4158 H   0  0  0  0  0  0  0  0  0  0  0  0  # atno 10718 bound_to 10713
  154.5497  135.2812  155.1020 H   0  0  0  0  0  0  0  0  0  0  0  0  # atno 10763 bound_to 10752
  154.2471  135.6346  153.5231 H   0  0  0  0  0  0  0  0  0  0  0  0  # atno 10764 bound_to 10752
  152.9999  135.5574  154.6059 H   0  0  0  0  0  0  0  0  0  0  0  0  # atno 10765 bound_to 10752
  140.9814  134.0668  157.3761 H   0  0  0  0  0  0  0  0  0  0  0  0  # atno 11005 bound_to 11000
  145.0244  139.3395  143.6056 LP  0  0  0  0  0  0  0  0  0  0  0  0  # atno 17320 bound_to 7965
  146.3470  139.9558  142.8723 LP  0  0  0  0  0  0  0  0  0  0  0  0  # atno 17321 bound_to 7965
  140.1301  144.5296  150.6808 LP  0  0  0  0  0  0  0  0  0  0  0  0  # atno 17342 bound_to 10162
  140.6931  143.2388  151.5075 LP  0  0  0  0  0  0  0  0  0  0  0  0  # atno 17343 bound_to 10162
  156.4538  130.4017  149.6619 LP  0  0  0  0  0  0  0  0  0  0  0  0  # atno 17370 bound_to 10713
  156.3759  130.7554  151.2542 LP  0  0  0  0  0  0  0  0  0  0  0  0  # atno 17371 bound_to 10713
  139.8952  135.0139  156.6988 LP  0  0  0  0  0  0  0  0  0  0  0  0  # atno 17394 bound_to 11000
  140.7181  133.9164  155.8128 LP  0  0  0  0  0  0  0  0  0  0  0  0  # atno 17395 bound_to 11000

$$$$
