AV-unprocessed.smi:1867|AV-procd|sdf|7579|dock4
  -GOLD-   22720 9293D 1   1.00000     0.00000
 Structure written by MMmdl.
 52 55  0  0  0  0  0  0  0  0  4 V2000
  145.8058  138.6223  155.5653 O   0  0  0  0  0  0  0  0  0  0  0  0
  145.0535  139.4530  155.0596 C   0  0  0  0  0  0  0  0  0  0  0  0
  144.5517  139.2204  153.8216 N   0  0  0  0  0  0  0  0  0  0  0  0
  144.6962  138.0737  152.9953 C   0  0  0  0  0  0  0  0  0  0  0  0
  143.5626  137.6257  152.2860 C   0  0  0  0  0  0  0  0  0  0  0  0
  143.6547  136.4789  151.4709 C   0  0  0  0  0  0  0  0  0  0  0  0
  144.8824  135.7817  151.3783 C   0  0  0  0  0  0  0  0  0  0  0  0
  145.0478  134.6294  150.5865 N   0  0  0  0  0  0  0  0  0  0  0  0
  143.9022  133.9014  150.0633 C   0  0  0  0  0  0  0  0  0  0  0  0
  144.4956  132.6317  149.4555 C   0  0  0  0  0  0  0  0  0  0  0  0
  145.7001  132.3492  150.3530 C   0  0  0  0  0  0  0  0  0  0  0  0
  146.1859  133.7406  150.7759 C   0  0  0  0  0  0  0  0  0  0  0  0
  145.9379  136.2340  152.0962 N   0  3  0  0  0  0  0  0  0  0  0  0
  145.8937  137.3278  152.8872 C   0  0  0  0  0  0  0  0  0  0  0  0
  144.7358  140.6098  155.7153 N   0  5  0  0  0  0  0  0  0  0  0  0
  145.5399  141.3917  156.6705 C   0  0  1  0  0  0  0  0  0  0  0  0
  146.9805  140.8648  156.7007 C   0  0  0  0  0  0  0  0  0  0  0  0
  147.7105  141.5819  155.5488 C   0  0  0  0  0  0  0  0  0  0  0  0
  146.8900  142.7617  155.1722 N   0  3  1  0  0  0  0  0  0  0  0  0
  146.4942  142.7494  153.7340 C   0  0  0  0  0  0  0  0  0  0  0  0
  145.4599  143.8318  153.4037 C   0  0  0  0  0  0  0  0  0  0  0  0
  144.2022  143.6250  154.2501 C   0  0  0  0  0  0  0  0  0  0  0  0
  144.5644  143.7133  155.7388 C   0  0  0  0  0  0  0  0  0  0  0  0
  145.7727  142.8283  156.1561 C   0  0  1  0  0  0  0  0  0  0  0  0
  144.0371  139.9869  153.4134 H   0  0  0  0  0  0  0  0  0  0  0  0
  142.6261  138.1588  152.3609 H   0  0  0  0  0  0  0  0  0  0  0  0
  142.7799  136.1448  150.9332 H   0  0  0  0  0  0  0  0  0  0  0  0
  143.2217  133.6547  150.8796 H   0  0  0  0  0  0  0  0  0  0  0  0
  143.3570  134.4865  149.3217 H   0  0  0  0  0  0  0  0  0  0  0  0
  143.7849  131.8056  149.4199 H   0  0  0  0  0  0  0  0  0  0  0  0
  144.8338  132.8312  148.4376 H   0  0  0  0  0  0  0  0  0  0  0  0
  145.3740  131.7931  151.2331 H   0  0  0  0  0  0  0  0  0  0  0  0
  146.4741  131.7638  149.8559 H   0  0  0  0  0  0  0  0  0  0  0  0
  147.0033  134.0747  150.1360 H   0  0  0  0  0  0  0  0  0  0  0  0
  146.5399  133.7313  151.8070 H   0  0  0  0  0  0  0  0  0  0  0  0
  146.8124  137.5509  153.4088 H   0  0  0  0  0  0  0  0  0  0  0  0
  145.1038  141.4037  157.6704 H   0  0  0  0  0  0  0  0  0  0  0  0
  147.4426  141.1488  157.6472 H   0  0  0  0  0  0  0  0  0  0  0  0
  147.0479  139.7782  156.6285 H   0  0  0  0  0  0  0  0  0  0  0  0
  148.7058  141.9025  155.8574 H   0  0  0  0  0  0  0  0  0  0  0  0
  147.8442  140.9036  154.7036 H   0  0  0  0  0  0  0  0  0  0  0  0
  147.3864  142.8870  153.1225 H   0  0  0  0  0  0  0  0  0  0  0  0
  146.0821  141.7748  153.4671 H   0  0  0  0  0  0  0  0  0  0  0  0
  145.8792  144.8227  153.5836 H   0  0  0  0  0  0  0  0  0  0  0  0
  145.2042  143.7876  152.3447 H   0  0  0  0  0  0  0  0  0  0  0  0
  143.4537  144.3782  154.0031 H   0  0  0  0  0  0  0  0  0  0  0  0
  143.7534  142.6572  154.0239 H   0  0  0  0  0  0  0  0  0  0  0  0
  144.8255  144.7521  155.9456 H   0  0  0  0  0  0  0  0  0  0  0  0
  143.6859  143.5134  156.3551 H   0  0  0  0  0  0  0  0  0  0  0  0
  146.2083  143.3480  157.0119 H   0  0  0  0  0  0  0  0  0  0  0  0
  147.4462  143.5929  155.3082 H   0  0  0  0  0  0  0  0  0  0  0  0
  146.8172  135.7204  152.0390 H   0  0  0  0  0  0  0  0  0  0  0  0
  1  2  2  0  0  0  0
  2  3  1  0  0  0  0
  2 15  1  0  0  0  0
  3  4  1  0  0  0  0
  3 25  1  0  0  0  0
  4 14  1  0  0  0  0
  4  5  2  0  0  0  0
  5  6  1  0  0  0  0
  5 26  1  0  0  0  0
  6  7  2  0  0  0  0
  6 27  1  0  0  0  0
  7  8  1  0  0  0  0
  7 13  1  0  0  0  0
  8 12  1  0  0  0  0
  8  9  1  0  0  0  0
  9 10  1  0  0  0  0
  9 28  1  0  0  0  0
  9 29  1  0  0  0  0
 10 11  1  0  0  0  0
 10 30  1  0  0  0  0
 10 31  1  0  0  0  0
 11 12  1  0  0  0  0
 11 32  1  0  0  0  0
 11 33  1  0  0  0  0
 12 34  1  0  0  0  0
 12 35  1  0  0  0  0
 13 14  2  0  0  0  0
 13 52  1  0  0  0  0
 14 36  1  0  0  0  0
 15 16  1  0  0  0  0
 16 24  1  0  0  0  0
 16 17  1  0  0  0  0
 16 37  1  0  0  0  0
 17 18  1  0  0  0  0
 17 38  1  0  0  0  0
 17 39  1  0  0  0  0
 18 19  1  0  0  0  0
 18 40  1  0  0  0  0
 18 41  1  0  0  0  0
 19 24  1  0  0  0  0
 19 20  1  0  0  0  0
 19 51  1  0  0  0  0
 20 21  1  0  0  0  0
 20 42  1  0  0  0  0
 20 43  1  0  0  0  0
 21 22  1  0  0  0  0
 21 44  1  0  0  0  0
 21 45  1  0  0  0  0
 22 23  1  0  0  0  0
 22 46  1  0  0  0  0
 22 47  1  0  0  0  0
 23 24  1  0  0  0  0
 23 48  1  0  0  0  0
 23 49  1  0  0  0  0
 24 50  1  0  0  0  0
M  CHG  1  13   1
M  CHG  1  15  -1
M  CHG  1  19   1
M  END
> <s_m_source_file>
AV-unprocessed.smi

> <i_m_source_file_index>
1867

> <i_lp_mmshare_version>
43012

> <i_f3d_flags>
0

> <s_epik_input>
W0NIMl0xW0NIMl1bQ0gyXVtDSDJdW0NASF0oTjEyKVtDQEBIXShbQ0gyXVtDSDJdMilbTkhdQyg9TylbTkhdYzNbY0hdW2NIXWMobltjSF0zKU40W0NIMl1bQ0gyXVtDSDJdW0NIMl00

> <s_epik_cmdline>
J2VwaWtfcHl0aG9uJywgJy1waCcsICc3LjAnLCAnLXRuJywgJzgnLCAnLW1hJywgJzIwMCcsICctbWV0YWxfYmluZGluZycsICctaW1hZScsICc8aW5maWxlLm1hZT4nLCAnLW9tYWUnLCAnPG91dGZpbGUubWFlPic=

> <r_lp_tautomer_probability>
0.999994

> <r_epik_Ionization_Penalty>
8.56137

> <r_epik_Ionization_Penalty_Charging>
8.56136

> <r_epik_Ionization_Penalty_Neutral>
3.91889e-06

> <r_epik_State_Penalty>
8.16255

> <r_epik_Charging_Adjusted_Penalty>
16.7239

> <i_epik_Tot_Q>
1

> <i_epik_Tot_abs_Q>
3

> <r_epik_Metal_State_Penalty>
4.14279

> <b_epik_Metal_Only>
1

> <s_lp_Force_Field>
OPLS_2005

> <r_lp_Energy>
73.5992

> <b_lp_Chiralities_Consistent>
1

> <s_lp_Variant>
AV-unprocessed.smi:1867-20

> <Gold.Version>
5.8.1

> <Gold.Id.Protein>
6NUR|6NUR_protein|mol2

> <Gold.PLP.Fitness>
49.1097

> <Gold.PLP.PLP>
-37.8741

> <Gold.PLP.part.hbond>
-3.0000

> <Gold.PLP.part.metal>
0.0000

> <Gold.PLP.part.buried>
-5.1258

> <Gold.PLP.part.nonpolar>
-31.0201

> <Gold.PLP.part.repulsive>
0.1820

> <Gold.PLP.ligand.clash>
0.0000

> <Gold.PLP.ligand.torsion>
0.6635

> <Gold.PLP.Chemscore.Hbond>
4.0960

> <Gold.PLP.Chemscore.CHOScore>
0.0000

> <Gold.PLP.Chemscore.Metal>
0.0000

> <Gold.Chemscore.Hbonds>
donor molecule, donor type, donor heavy atom, donor atom, acceptor molecule, acceptor atom, score
      L1  H    13    52       P1  7948  0.93
      L1  H    19    51       P1  8028  1.10

> <Gold.PLP.Chemscore.Internal.Correction>
0.2747

> <Gold.Rescore>
     Score         DG    S(hbond)    S(metal)    S(lipo)     H(rot)  DE(clash)    DE(int)     intcor
     15.30     -18.85       1.87        0.00      82.82       1.00       0.32       3.23       ----

> <Gold.Chemscore.Fitness>
15.3032

> <Gold.Chemscore.DG>
-18.8533

> <Gold.Chemscore.ZeroCoef>
-5.4800

> <Gold.Chemscore.Hbond>
1.8694

> <Gold.Chemscore.Metal>
0.0000

> <Gold.Chemscore.Lipo>
82.8167

> <Gold.Chemscore.Internal_Hbond>
0.0000

> <Gold.Chemscore.DEClash>
0.3163

> <Gold.Chemscore.DEInternal>
3.2338

> <Gold.Chemscore.Rot>
1.0000

> <Gold.Chemscore.Internal.Correction>
   9.000000E+99

> <Gold.Chemscore.Hbonds>
donor molecule, donor type, donor heavy atom, donor atom, acceptor molecule, acceptor atom, score
      L1  H     3    25       P1 10175  0.04
      L1  H    13    52       P1  7948  0.46
      L1  H    19    51       P1  8028  0.03

> <Gold.Chemscore.Hbond.Weighted>
-6.2437

> <Gold.Chemscore.Metal.Weighted>
-0.0000

> <Gold.Chemscore.Lipo.Weighted>
-9.6896

> <Gold.Chemscore.Internal_Hbond.Weighted>
0.0000

> <Gold.Chemscore.DEClash.Weighted>
0.3163

> <Gold.Chemscore.DEInternal.Weighted>
3.2338

> <Gold.Chemscore.Rot.Weighted>
2.5600

> <Gold.Chemscore.Internal.Correction.Weighted>
   9.000000E+99

> <Gold.Protein.RotatedTorsions>
[ 6907 6896 6895 6894 ] final   46.79 input  -60.11 | X-H torsion
[ 7974 7965 7964 7962 ] final  -11.42 input  175.53 | X-H torsion
[ 8008 7997 7996 7995 ] final  -52.76 input   59.86 | X-H torsion
[ 10167 10162 10161 10158 ] final   73.22 input  -65.29 | X-H torsion
[ 10718 10713 10712 10709 ] final -162.85 input   66.30 | X-H torsion
[ 10763 10752 10751 10750 ] final   34.43 input  -60.55 | X-H torsion
[ 11005 11000 10999 10996 ] final  127.64 input  -57.11 | X-H torsion

> <Gold.Protein.ActiveResidues>
 VAL166  LYS551  ARG553  GLY616  TRP617  ASP618  TYR619  PRO620  LYS621  CYS622 
 ASP623  PHE694  ASN695  SER759  ASP760  ASP761  ALA762  ILE779  LEU786  VAL792 
 PHE793  MET794  SER795  GLU796  ALA797  LYS798  CYS799  TRP800  GLU811  SER814 

> <Gold.Protein.RotatedAtoms>
  152.2605  134.8039  160.0431 H   0  0  0  0  0  0  0  0  0  0  0  0  # atno 6907 bound_to 6896
  151.8687  133.3466  159.3735 H   0  0  0  0  0  0  0  0  0  0  0  0  # atno 6908 bound_to 6896
  150.7115  134.5062  159.5629 H   0  0  0  0  0  0  0  0  0  0  0  0  # atno 6909 bound_to 6896
  146.2188  140.2908  142.8368 H   0  0  0  0  0  0  0  0  0  0  0  0  # atno 7974 bound_to 7965
  154.4115  140.1216  156.5044 H   0  0  0  0  0  0  0  0  0  0  0  0  # atno 8008 bound_to 7997
  155.6862  140.3495  155.4856 H   0  0  0  0  0  0  0  0  0  0  0  0  # atno 8009 bound_to 7997
  155.9508  140.1104  157.0968 H   0  0  0  0  0  0  0  0  0  0  0  0  # atno 8010 bound_to 7997
  140.0268  144.5497  150.7538 H   0  0  0  0  0  0  0  0  0  0  0  0  # atno 10167 bound_to 10162
  156.6164  130.8872  151.2948 H   0  0  0  0  0  0  0  0  0  0  0  0  # atno 10718 bound_to 10713
  153.0164  135.6360  154.1668 H   0  0  0  0  0  0  0  0  0  0  0  0  # atno 10763 bound_to 10752
  154.1407  135.2835  155.3163 H   0  0  0  0  0  0  0  0  0  0  0  0  # atno 10764 bound_to 10752
  154.6127  135.5551  153.7551 H   0  0  0  0  0  0  0  0  0  0  0  0  # atno 10765 bound_to 10752
  139.9518  134.9620  156.8885 H   0  0  0  0  0  0  0  0  0  0  0  0  # atno 11005 bound_to 11000
  144.9128  140.7777  143.5797 LP  0  0  0  0  0  0  0  0  0  0  0  0  # atno 17320 bound_to 7965
  145.2840  139.1908  143.4776 LP  0  0  0  0  0  0  0  0  0  0  0  0  # atno 17321 bound_to 7965
  140.7319  143.2700  151.3920 LP  0  0  0  0  0  0  0  0  0  0  0  0  # atno 17342 bound_to 10162
  139.6103  144.1113  152.2291 LP  0  0  0  0  0  0  0  0  0  0  0  0  # atno 17343 bound_to 10162
  157.7240  130.9597  150.1556 LP  0  0  0  0  0  0  0  0  0  0  0  0  # atno 17370 bound_to 10713
  156.2348  130.3685  149.8404 LP  0  0  0  0  0  0  0  0  0  0  0  0  # atno 17371 bound_to 10713
  140.5701  134.0452  155.7427 LP  0  0  0  0  0  0  0  0  0  0  0  0  # atno 17394 bound_to 11000
  141.1182  133.9504  157.2780 LP  0  0  0  0  0  0  0  0  0  0  0  0  # atno 17395 bound_to 11000

$$$$
