AV-unprocessed.smi:2649|AV-procd|sdf|10289|dock10
  -GOLD-   2272014303D 1   1.00000     0.00000
 Structure written by MMmdl.
 34 35  0  0  0  0  0  0  0  0  1 V2000
  152.4232  145.0810  158.7610 C   0  0  0  0  0  0  0  0  0  0  0  0
  151.0339  145.0628  159.9269 S   0  0  0  0  0  0  0  0  0  0  0  0
  151.8001  144.2655  161.3707 C   0  0  0  0  0  0  0  0  0  0  0  0
  152.4840  142.9658  160.9770 C   0  0  0  0  0  0  0  0  0  0  0  0
  152.2013  142.5160  159.7341 N   0  0  0  0  0  0  0  0  0  0  0  0
  152.7559  141.3595  159.2964 C   0  0  0  0  0  0  0  0  0  0  0  0
  152.5151  140.8106  158.0092 N   0  0  0  0  0  0  0  0  0  0  0  0
  151.7315  141.2964  157.0269 C   0  0  0  0  0  0  0  0  0  0  0  0
  151.0789  142.3378  157.1115 O   0  0  0  0  0  0  0  0  0  0  0  0
  151.7018  140.4721  155.7310 C   0  0  2  0  0  0  0  0  0  0  0  0
  150.2880  139.9595  155.3701 C   0  0  0  0  0  0  0  0  0  0  0  0
  150.3595  139.1839  154.1807 O   0  0  0  0  0  0  0  0  0  0  0  0
  151.2223  138.0667  154.3417 C   0  0  0  0  0  0  0  0  0  0  0  0
  152.6318  138.5709  154.6925 C   0  0  0  0  0  0  0  0  0  0  0  0
  152.5647  139.3470  155.8817 O   0  0  0  0  0  0  0  0  0  0  0  0
  153.6339  140.6146  160.1137 C   0  0  0  0  0  0  0  0  0  0  0  0
  153.9380  141.0813  161.4067 C   0  0  0  0  0  0  0  0  0  0  0  0
  153.3555  142.2810  161.8543 C   0  0  0  0  0  0  0  0  0  0  0  0
  153.7183  142.8741  163.4366 Cl  0  0  0  0  0  0  0  0  0  0  0  0
  152.1436  145.6202  157.8559 H   0  0  0  0  0  0  0  0  0  0  0  0
  152.7056  144.0669  158.4793 H   0  0  0  0  0  0  0  0  0  0  0  0
  153.2878  145.5745  159.2048 H   0  0  0  0  0  0  0  0  0  0  0  0
  152.5158  144.9546  161.8210 H   0  0  0  0  0  0  0  0  0  0  0  0
  151.0363  144.0704  162.1235 H   0  0  0  0  0  0  0  0  0  0  0  0
  152.9875  139.9407  157.8099 H   0  0  0  0  0  0  0  0  0  0  0  0
  152.0775  141.1090  154.9282 H   0  0  0  0  0  0  0  0  0  0  0  0
  149.8634  139.3625  156.1795 H   0  0  0  0  0  0  0  0  0  0  0  0
  149.6078  140.7936  155.1938 H   0  0  0  0  0  0  0  0  0  0  0  0
  150.8403  137.4031  155.1191 H   0  0  0  0  0  0  0  0  0  0  0  0
  151.2437  137.4961  153.4132 H   0  0  0  0  0  0  0  0  0  0  0  0
  153.3062  137.7298  154.8533 H   0  0  0  0  0  0  0  0  0  0  0  0
  153.0472  139.1651  153.8770 H   0  0  0  0  0  0  0  0  0  0  0  0
  154.0734  139.6941  159.7576 H   0  0  0  0  0  0  0  0  0  0  0  0
  154.6091  140.5249  162.0443 H   0  0  0  0  0  0  0  0  0  0  0  0
  1  2  1  0  0  0  0
  1 20  1  0  0  0  0
  1 21  1  0  0  0  0
  1 22  1  0  0  0  0
  2  3  1  0  0  0  0
  3  4  1  0  0  0  0
  3 23  1  0  0  0  0
  3 24  1  0  0  0  0
  4 18  1  0  0  0  0
  4  5  2  0  0  0  0
  5  6  1  0  0  0  0
  6  7  1  0  0  0  0
  6 16  2  0  0  0  0
  7  8  1  0  0  0  0
  7 25  1  0  0  0  0
  8  9  2  0  0  0  0
  8 10  1  0  0  0  0
 10 15  1  0  0  0  0
 10 11  1  0  0  0  0
 10 26  1  0  0  0  0
 11 12  1  0  0  0  0
 11 27  1  0  0  0  0
 11 28  1  0  0  0  0
 12 13  1  0  0  0  0
 13 14  1  0  0  0  0
 13 29  1  0  0  0  0
 13 30  1  0  0  0  0
 14 15  1  0  0  0  0
 14 31  1  0  0  0  0
 14 32  1  0  0  0  0
 16 17  1  0  0  0  0
 16 33  1  0  0  0  0
 17 18  2  0  0  0  0
 17 34  1  0  0  0  0
 18 19  1  0  0  0  0
M  END
> <s_m_source_file>
AV-unprocessed.smi

> <i_m_source_file_index>
2649

> <i_lp_mmshare_version>
43012

> <i_f3d_flags>
0

> <s_epik_input>
W0NIM11TW0NIMl1jMW5jKFtjSF1bY0hdYzFDbClbTkhdQyg9TylbQ0BASF0yW0NIMl1PW0NIMl1bQ0gyXU8y

> <s_epik_cmdline>
J2VwaWtfcHl0aG9uJywgJy1waCcsICc3LjAnLCAnLXRuJywgJzgnLCAnLW1hJywgJzIwMCcsICctbWV0YWxfYmluZGluZycsICctaW1hZScsICc8aW5maWxlLm1hZT4nLCAnLW9tYWUnLCAnPG91dGZpbGUubWFlPic=

> <r_lp_tautomer_probability>
1

> <r_epik_Ionization_Penalty>
9.71596e-06

> <r_epik_Ionization_Penalty_Charging>
0

> <r_epik_Ionization_Penalty_Neutral>
9.71596e-06

> <r_epik_State_Penalty>
-0

> <r_epik_Charging_Adjusted_Penalty>
0

> <i_epik_Tot_Q>
0

> <i_epik_Tot_abs_Q>
0

> <r_epik_Metal_State_Penalty>
-0

> <b_epik_Metal_Only>
0

> <s_lp_Force_Field>
OPLS_2005

> <r_lp_Energy>
11.5794

> <b_lp_Chiralities_Consistent>
1

> <s_lp_Variant>
AV-unprocessed.smi:2649-1

> <Gold.Version>
5.8.1

> <Gold.Id.Protein>
6NUR|6NUR_protein|mol2

> <Gold.PLP.Fitness>
50.3149

> <Gold.PLP.PLP>
-47.4321

> <Gold.PLP.part.hbond>
-1.2810

> <Gold.PLP.part.metal>
0.0000

> <Gold.PLP.part.buried>
-5.7844

> <Gold.PLP.part.nonpolar>
-39.3437

> <Gold.PLP.part.repulsive>
0.3715

> <Gold.PLP.ligand.clash>
0.0000

> <Gold.PLP.ligand.torsion>
0.1442

> <Gold.PLP.Chemscore.Hbond>
1.0561

> <Gold.PLP.Chemscore.CHOScore>
0.0000

> <Gold.PLP.Chemscore.Metal>
0.0000

> <Gold.Chemscore.Hbonds>
donor molecule, donor type, donor heavy atom, donor atom, acceptor molecule, acceptor atom, score
      P1  H  7989  7998       L1    12  0.08
      P1  H  7997  8010       L1    15  1.00

> <Gold.PLP.Chemscore.Internal.Correction>
0.0031

> <Gold.Rescore>
     Score         DG    S(hbond)    S(metal)    S(lipo)     H(rot)  DE(clash)    DE(int)     intcor
     14.73     -17.62       0.45        0.00     120.16       1.34       0.14       2.75       ----

> <Gold.Chemscore.Fitness>
14.7345

> <Gold.Chemscore.DG>
-17.6186

> <Gold.Chemscore.ZeroCoef>
-5.4800

> <Gold.Chemscore.Hbond>
0.4531

> <Gold.Chemscore.Metal>
0.0000

> <Gold.Chemscore.Lipo>
120.1578

> <Gold.Chemscore.Internal_Hbond>
0.0000

> <Gold.Chemscore.DEClash>
0.1361

> <Gold.Chemscore.DEInternal>
2.7480

> <Gold.Chemscore.Rot>
1.3410

> <Gold.Chemscore.Internal.Correction>
   9.000000E+99

> <Gold.Chemscore.Hbonds>
donor molecule, donor type, donor heavy atom, donor atom, acceptor molecule, acceptor atom, score
      P1  H  7997  8010       L1    15  0.26

> <Gold.Chemscore.Hbond.Weighted>
-1.5132

> <Gold.Chemscore.Metal.Weighted>
-0.0000

> <Gold.Chemscore.Lipo.Weighted>
-14.0585

> <Gold.Chemscore.Internal_Hbond.Weighted>
0.0000

> <Gold.Chemscore.DEClash.Weighted>
0.1361

> <Gold.Chemscore.DEInternal.Weighted>
2.7480

> <Gold.Chemscore.Rot.Weighted>
3.4331

> <Gold.Chemscore.Internal.Correction.Weighted>
   9.000000E+99

> <Gold.Protein.RotatedTorsions>
[ 6907 6896 6895 6894 ] final  -26.74 input  -60.11 | X-H torsion
[ 7974 7965 7964 7962 ] final   -8.92 input  175.53 | X-H torsion
[ 8008 7997 7996 7995 ] final   88.74 input   59.86 | X-H torsion
[ 10167 10162 10161 10158 ] final -166.48 input  -65.29 | X-H torsion
[ 10718 10713 10712 10709 ] final  116.50 input   66.30 | X-H torsion
[ 10763 10752 10751 10750 ] final  157.19 input  -60.55 | X-H torsion
[ 11005 11000 10999 10996 ] final   88.41 input  -57.11 | X-H torsion

> <Gold.Protein.ActiveResidues>
 VAL166  LYS551  ARG553  GLY616  TRP617  ASP618  TYR619  PRO620  LYS621  CYS622 
 ASP623  PHE694  ASN695  SER759  ASP760  ASP761  ALA762  ILE779  LEU786  VAL792 
 PHE793  MET794  SER795  GLU796  ALA797  LYS798  CYS799  TRP800  GLU811  SER814 

> <Gold.Protein.RotatedAtoms>
  151.1568  135.0254  159.8692 H   0  0  0  0  0  0  0  0  0  0  0  0  # atno 6907 bound_to 6896
  152.5452  134.1325  159.8455 H   0  0  0  0  0  0  0  0  0  0  0  0  # atno 6908 bound_to 6896
  151.1416  133.4921  159.2629 H   0  0  0  0  0  0  0  0  0  0  0  0  # atno 6909 bound_to 6896
  146.2267  140.2540  142.8348 H   0  0  0  0  0  0  0  0  0  0  0  0  # atno 7974 bound_to 7965
  155.9914  140.3368  155.6757 H   0  0  0  0  0  0  0  0  0  0  0  0  # atno 8008 bound_to 7997
  155.6415  140.0696  157.2635 H   0  0  0  0  0  0  0  0  0  0  0  0  # atno 8009 bound_to 7997
  154.4220  140.1742  156.1566 H   0  0  0  0  0  0  0  0  0  0  0  0  # atno 8010 bound_to 7997
  139.6112  144.0811  152.1843 H   0  0  0  0  0  0  0  0  0  0  0  0  # atno 10167 bound_to 10162
  157.6156  131.1026  150.7482 H   0  0  0  0  0  0  0  0  0  0  0  0  # atno 10718 bound_to 10713
  154.1963  135.2792  155.3005 H   0  0  0  0  0  0  0  0  0  0  0  0  # atno 10763 bound_to 10752
  154.5889  135.5566  153.7262 H   0  0  0  0  0  0  0  0  0  0  0  0  # atno 10764 bound_to 10752
  153.0099  135.6363  154.2101 H   0  0  0  0  0  0  0  0  0  0  0  0  # atno 10765 bound_to 10752
  139.8897  134.8486  156.2996 H   0  0  0  0  0  0  0  0  0  0  0  0  # atno 11005 bound_to 11000
  144.9390  140.8058  143.5642 LP  0  0  0  0  0  0  0  0  0  0  0  0  # atno 17320 bound_to 7965
  145.2490  139.2040  143.4952 LP  0  0  0  0  0  0  0  0  0  0  0  0  # atno 17321 bound_to 7965
  140.0430  144.5992  150.7396 LP  0  0  0  0  0  0  0  0  0  0  0  0  # atno 17342 bound_to 10162
  140.7320  143.2701  151.3917 LP  0  0  0  0  0  0  0  0  0  0  0  0  # atno 17343 bound_to 10162
  156.7850  130.4871  149.5394 LP  0  0  0  0  0  0  0  0  0  0  0  0  # atno 17370 bound_to 10713
  156.1277  130.6156  151.0288 LP  0  0  0  0  0  0  0  0  0  0  0  0  # atno 17371 bound_to 10713
  140.9922  133.7202  156.0831 LP  0  0  0  0  0  0  0  0  0  0  0  0  # atno 17394 bound_to 11000
  140.7610  134.3939  157.5525 LP  0  0  0  0  0  0  0  0  0  0  0  0  # atno 17395 bound_to 11000

$$$$
