AV-unprocessed.smi:560|AV-procd|sdf|2926|dock1
  -GOLD-   2262023413D 1   1.00000     0.00000
 Structure written by MMmdl.
 41 42  0  0  0  0  0  0  0  0  1 V2000
  151.4162  144.9621  159.0254 C   0  0  0  0  0  0  0  0  0  0  0  0
  152.2249  143.6520  158.9266 C   0  0  2  0  0  0  0  0  0  0  0  0
  151.3954  142.4978  158.3450 C   0  0  0  0  0  0  0  0  0  0  0  0
  151.2921  141.4311  158.9520 O   0  0  0  0  0  0  0  0  0  0  0  0
  150.8183  142.7239  157.1542 N   0  0  0  0  0  0  0  0  0  0  0  0
  150.0310  141.7538  156.4001 C   0  0  0  0  0  0  0  0  0  0  0  0
  148.8348  141.2654  157.2328 C   0  0  0  0  0  0  0  0  0  0  0  0
  148.0817  140.1266  156.5226 C   0  0  0  0  0  0  0  0  0  0  0  0
  148.9894  139.0057  156.2363 N   0  0  0  0  0  0  0  0  0  0  0  0
  148.2938  137.8517  155.6225 C   0  0  0  0  0  0  0  0  0  0  0  0
  148.9476  136.4934  155.9044 C   0  0  0  0  0  0  0  0  0  0  0  0
  149.3372  135.7726  154.8502 N   0  0  0  0  0  0  0  0  0  0  0  0
  149.0934  136.0990  157.0596 O   0  0  0  0  0  0  0  0  0  0  0  0
  150.0728  139.4460  155.3515 C   0  0  0  0  0  0  0  0  0  0  0  0
  150.9060  140.5494  156.0265 C   0  0  0  0  0  0  0  0  0  0  0  0
  152.8100  143.2510  160.2019 N   0  0  0  0  0  0  0  0  0  0  0  0
  153.6161  142.1593  160.4561 C   0  0  0  0  0  0  0  0  0  0  0  0
  153.8869  142.1488  161.7942 C   0  0  0  0  0  0  0  0  0  0  0  0
  153.1808  143.2794  162.2898 C   0  0  0  0  0  0  0  0  0  0  0  0
  152.5293  143.9289  161.3397 N   0  0  0  0  0  0  0  0  0  0  0  0
  151.0460  145.2677  158.0462 H   0  0  0  0  0  0  0  0  0  0  0  0
  152.0366  145.7734  159.4068 H   0  0  0  0  0  0  0  0  0  0  0  0
  150.5541  144.8671  159.6869 H   0  0  0  0  0  0  0  0  0  0  0  0
  153.0550  143.8416  158.2438 H   0  0  0  0  0  0  0  0  0  0  0  0
  150.9537  143.6288  156.7270 H   0  0  0  0  0  0  0  0  0  0  0  0
  149.6651  142.2125  155.4793 H   0  0  0  0  0  0  0  0  0  0  0  0
  149.1782  140.9162  158.2080 H   0  0  0  0  0  0  0  0  0  0  0  0
  148.1502  142.0922  157.4260 H   0  0  0  0  0  0  0  0  0  0  0  0
  147.2636  139.8112  157.1699 H   0  0  0  0  0  0  0  0  0  0  0  0
  147.6297  140.4903  155.5980 H   0  0  0  0  0  0  0  0  0  0  0  0
  147.2513  137.8361  155.9472 H   0  0  0  0  0  0  0  0  0  0  0  0
  148.2777  137.9744  154.5384 H   0  0  0  0  0  0  0  0  0  0  0  0
  149.7739  134.8729  154.9870 H   0  0  0  0  0  0  0  0  0  0  0  0
  149.1939  136.1330  153.9179 H   0  0  0  0  0  0  0  0  0  0  0  0
  150.7272  138.6044  155.1206 H   0  0  0  0  0  0  0  0  0  0  0  0
  149.6690  139.8031  154.4021 H   0  0  0  0  0  0  0  0  0  0  0  0
  151.7095  140.8648  155.3600 H   0  0  0  0  0  0  0  0  0  0  0  0
  151.3858  140.1434  156.9186 H   0  0  0  0  0  0  0  0  0  0  0  0
  153.9262  141.4862  159.6703 H   0  0  0  0  0  0  0  0  0  0  0  0
  154.4916  141.4382  162.3376 H   0  0  0  0  0  0  0  0  0  0  0  0
  153.1176  143.6415  163.3052 H   0  0  0  0  0  0  0  0  0  0  0  0
  1  2  1  0  0  0  0
  1 21  1  0  0  0  0
  1 22  1  0  0  0  0
  1 23  1  0  0  0  0
  2  3  1  0  0  0  0
  2 16  1  0  0  0  0
  2 24  1  0  0  0  0
  3  4  2  0  0  0  0
  3  5  1  0  0  0  0
  5  6  1  0  0  0  0
  5 25  1  0  0  0  0
  6 15  1  0  0  0  0
  6  7  1  0  0  0  0
  6 26  1  0  0  0  0
  7  8  1  0  0  0  0
  7 27  1  0  0  0  0
  7 28  1  0  0  0  0
  8  9  1  0  0  0  0
  8 29  1  0  0  0  0
  8 30  1  0  0  0  0
  9 10  1  0  0  0  0
  9 14  1  0  0  0  0
 10 11  1  0  0  0  0
 10 31  1  0  0  0  0
 10 32  1  0  0  0  0
 11 12  1  0  0  0  0
 11 13  2  0  0  0  0
 12 33  1  0  0  0  0
 12 34  1  0  0  0  0
 14 15  1  0  0  0  0
 14 35  1  0  0  0  0
 14 36  1  0  0  0  0
 15 37  1  0  0  0  0
 15 38  1  0  0  0  0
 16 20  1  0  0  0  0
 16 17  1  0  0  0  0
 17 18  2  0  0  0  0
 17 39  1  0  0  0  0
 18 19  1  0  0  0  0
 18 40  1  0  0  0  0
 19 20  2  0  0  0  0
 19 41  1  0  0  0  0
M  END
> <s_m_source_file>
AV-unprocessed.smi

> <i_m_source_file_index>
560

> <i_lp_mmshare_version>
43012

> <i_f3d_flags>
0

> <s_epik_input>
bjFbY0hdW2NIXVtjSF1uMVtDQEhdKFtDSDNdKUMoPU8pW05IXVtDSF0yW0NIMl1bQ0gyXU4oW0NIMl1bQ0gyXTIpW0NIMl1DKD1PKVtOSDJd

> <s_epik_cmdline>
J2VwaWtfcHl0aG9uJywgJy1waCcsICc3LjAnLCAnLXRuJywgJzgnLCAnLW1hJywgJzIwMCcsICctbWV0YWxfYmluZGluZycsICctaW1hZScsICc8aW5maWxlLm1hZT4nLCAnLW9tYWUnLCAnPG91dGZpbGUubWFlPic=

> <r_lp_tautomer_probability>
1

> <r_epik_Ionization_Penalty>
0.114724

> <r_epik_Ionization_Penalty_Charging>
0

> <r_epik_Ionization_Penalty_Neutral>
0.114724

> <r_epik_State_Penalty>
0.104339

> <r_epik_Charging_Adjusted_Penalty>
0.104339

> <i_epik_Tot_Q>
0

> <i_epik_Tot_abs_Q>
0

> <r_epik_Metal_State_Penalty>
0.117437

> <b_epik_Metal_Only>
0

> <s_lp_Force_Field>
OPLS_2005

> <r_lp_Energy>
15.4208

> <b_lp_Chiralities_Consistent>
1

> <s_lp_Variant>
AV-unprocessed.smi:560-1

> <Gold.Version>
5.8.1

> <Gold.Id.Protein>
6NUR|6NUR_protein|mol2

> <Gold.PLP.Fitness>
42.9798

> <Gold.PLP.PLP>
-40.5645

> <Gold.PLP.part.hbond>
-1.5900

> <Gold.PLP.part.metal>
0.0000

> <Gold.PLP.part.buried>
-4.7078

> <Gold.PLP.part.nonpolar>
-33.5175

> <Gold.PLP.part.repulsive>
0.2433

> <Gold.PLP.ligand.clash>
0.0000

> <Gold.PLP.ligand.torsion>
0.3685

> <Gold.PLP.Chemscore.Hbond>
1.0000

> <Gold.PLP.Chemscore.CHOScore>
0.0000

> <Gold.PLP.Chemscore.Metal>
0.0000

> <Gold.Chemscore.Hbonds>
donor molecule, donor type, donor heavy atom, donor atom, acceptor molecule, acceptor atom, score
      L1  H    12    34       P1  7948  0.94

> <Gold.PLP.Chemscore.Internal.Correction>
0.1522

> <Gold.Rescore>
     Score         DG    S(hbond)    S(metal)    S(lipo)     H(rot)  DE(clash)    DE(int)     intcor
     11.09     -13.01       0.99        0.00      90.38       2.48       0.00       1.92       ----

> <Gold.Chemscore.Fitness>
11.0901

> <Gold.Chemscore.DG>
-13.0137

> <Gold.Chemscore.ZeroCoef>
-5.4800

> <Gold.Chemscore.Hbond>
0.9880

> <Gold.Chemscore.Metal>
0.0000

> <Gold.Chemscore.Lipo>
90.3806

> <Gold.Chemscore.Internal_Hbond>
0.0000

> <Gold.Chemscore.DEClash>
0.0024

> <Gold.Chemscore.DEInternal>
1.9212

> <Gold.Chemscore.Rot>
2.4768

> <Gold.Chemscore.Internal.Correction>
   9.000000E+99

> <Gold.Chemscore.Hbonds>
donor molecule, donor type, donor heavy atom, donor atom, acceptor molecule, acceptor atom, score
      L1  H    12    34       P1  7948  0.81

> <Gold.Chemscore.Hbond.Weighted>
-3.2998

> <Gold.Chemscore.Metal.Weighted>
-0.0000

> <Gold.Chemscore.Lipo.Weighted>
-10.5745

> <Gold.Chemscore.Internal_Hbond.Weighted>
0.0000

> <Gold.Chemscore.DEClash.Weighted>
0.0024

> <Gold.Chemscore.DEInternal.Weighted>
1.9212

> <Gold.Chemscore.Rot.Weighted>
6.3406

> <Gold.Chemscore.Internal.Correction.Weighted>
   9.000000E+99

> <Gold.Protein.RotatedTorsions>
[ 6907 6896 6895 6894 ] final -169.05 input  -60.11 | X-H torsion
[ 7974 7965 7964 7962 ] final  108.46 input  175.53 | X-H torsion
[ 8008 7997 7996 7995 ] final -121.65 input   59.86 | X-H torsion
[ 10167 10162 10161 10158 ] final   13.39 input  -65.29 | X-H torsion
[ 10718 10713 10712 10709 ] final  -32.72 input   66.30 | X-H torsion
[ 10763 10752 10751 10750 ] final -107.32 input  -60.55 | X-H torsion
[ 11005 11000 10999 10996 ] final  -74.96 input  -57.11 | X-H torsion

> <Gold.Protein.ActiveResidues>
 VAL166  LYS551  ARG553  GLY616  TRP617  ASP618  TYR619  PRO620  LYS621  CYS622 
 ASP623  PHE694  ASN695  SER759  ASP760  ASP761  ALA762  ILE779  LEU786  VAL792 
 PHE793  MET794  SER795  GLU796  ALA797  LYS798  CYS799  TRP800  GLU811  SER814 

> <Gold.Protein.RotatedAtoms>
  151.4854  133.3537  159.2844 H   0  0  0  0  0  0  0  0  0  0  0  0  # atno 6907 bound_to 6896
  150.8870  134.8271  159.7277 H   0  0  0  0  0  0  0  0  0  0  0  0  # atno 6908 bound_to 6896
  152.4799  134.4758  159.9702 H   0  0  0  0  0  0  0  0  0  0  0  0  # atno 6909 bound_to 6896
  145.2804  139.2635  143.3919 H   0  0  0  0  0  0  0  0  0  0  0  0  # atno 7974 bound_to 7965
  155.1514  140.0404  157.2822 H   0  0  0  0  0  0  0  0  0  0  0  0  # atno 8008 bound_to 7997
  154.6401  140.2545  155.7305 H   0  0  0  0  0  0  0  0  0  0  0  0  # atno 8009 bound_to 7997
  156.2528  140.2857  156.0791 H   0  0  0  0  0  0  0  0  0  0  0  0  # atno 8010 bound_to 7997
  140.6006  143.8613  150.6961 H   0  0  0  0  0  0  0  0  0  0  0  0  # atno 10167 bound_to 10162
  156.3715  130.4340  149.7542 H   0  0  0  0  0  0  0  0  0  0  0  0  # atno 10718 bound_to 10713
  154.8068  135.4679  154.0413 H   0  0  0  0  0  0  0  0  0  0  0  0  # atno 10763 bound_to 10752
  153.1875  135.6850  153.8402 H   0  0  0  0  0  0  0  0  0  0  0  0  # atno 10764 bound_to 10752
  153.7932  135.3240  155.3358 H   0  0  0  0  0  0  0  0  0  0  0  0  # atno 10765 bound_to 10752
  141.1640  133.6930  156.7444 H   0  0  0  0  0  0  0  0  0  0  0  0  # atno 11005 bound_to 11000
  146.3218  140.3269  142.8637 LP  0  0  0  0  0  0  0  0  0  0  0  0  # atno 17320 bound_to 7965
  144.9258  140.7920  143.5720 LP  0  0  0  0  0  0  0  0  0  0  0  0  # atno 17321 bound_to 7965
  140.2157  143.3848  152.1682 LP  0  0  0  0  0  0  0  0  0  0  0  0  # atno 17342 bound_to 10162
  139.5288  144.7135  151.5130 LP  0  0  0  0  0  0  0  0  0  0  0  0  # atno 17343 bound_to 10162
  156.4667  130.7977  151.2996 LP  0  0  0  0  0  0  0  0  0  0  0  0  # atno 17370 bound_to 10713
  157.7484  131.0048  150.3092 LP  0  0  0  0  0  0  0  0  0  0  0  0  # atno 17371 bound_to 10713
  140.2650  134.8437  157.3794 LP  0  0  0  0  0  0  0  0  0  0  0  0  # atno 17394 bound_to 11000
  140.1575  134.4771  155.7918 LP  0  0  0  0  0  0  0  0  0  0  0  0  # atno 17395 bound_to 11000

$$$$
