AV-unprocessed.smi:2739|AV-procd|sdf|10551|dock7
  -GOLD-   2272015 03D 1   1.00000     0.00000
 Structure written by MMmdl.
 35 35  0  0  0  0  0  0  0  0  1 V2000
  152.2542  143.5814  160.9957 C   0  0  0  0  0  0  0  0  0  0  0  0
  152.3408  142.7898  159.6827 C   0  0  0  0  0  0  0  0  0  0  0  0
  151.3689  143.2845  158.5885 C   0  0  1  0  0  0  0  0  0  0  0  0
  151.6520  144.7367  158.1647 C   0  0  0  0  0  0  0  0  0  0  0  0
  151.3075  142.3898  157.4299 N   0  0  0  0  0  0  0  0  0  0  0  0
  150.2624  141.6481  157.0232 C   0  0  0  0  0  0  0  0  0  0  0  0
  149.1663  141.6395  157.5823 O   0  0  0  0  0  0  0  0  0  0  0  0
  150.4937  140.7734  155.7911 C   0  0  0  0  0  0  0  0  0  0  0  0
  149.3203  140.7600  154.9364 N   0  0  0  0  0  0  0  0  0  0  0  0
  148.6353  141.8317  154.4054 C   0  0  0  0  0  0  0  0  0  0  0  0
  147.5970  141.3275  153.6766 C   0  0  0  0  0  0  0  0  0  0  0  0
  147.7242  139.9152  153.8224 C   0  0  0  0  0  0  0  0  0  0  0  0
  146.8609  138.8280  153.2371 C   0  0  2  0  0  0  0  0  0  0  0  0
  146.7356  138.9687  151.7139 C   0  0  0  0  0  0  0  0  0  0  0  0
  145.5609  138.8241  153.7900 O   0  0  0  0  0  0  0  0  0  0  0  0
  148.7616  139.5838  154.5779 N   0  0  0  0  0  0  0  0  0  0  0  0
  152.9965  143.2241  161.7099 H   0  0  0  0  0  0  0  0  0  0  0  0
  151.2743  143.4788  161.4624 H   0  0  0  0  0  0  0  0  0  0  0  0
  152.4379  144.6430  160.8283 H   0  0  0  0  0  0  0  0  0  0  0  0
  153.3613  142.8600  159.3047 H   0  0  0  0  0  0  0  0  0  0  0  0
  152.1747  141.7319  159.8878 H   0  0  0  0  0  0  0  0  0  0  0  0
  150.3657  143.2700  159.0162 H   0  0  0  0  0  0  0  0  0  0  0  0
  151.5641  145.4139  159.0145 H   0  0  0  0  0  0  0  0  0  0  0  0
  150.9432  145.0696  157.4059 H   0  0  0  0  0  0  0  0  0  0  0  0
  152.6564  144.8529  157.7570 H   0  0  0  0  0  0  0  0  0  0  0  0
  152.1572  142.3118  156.8895 H   0  0  0  0  0  0  0  0  0  0  0  0
  151.3403  141.1524  155.2171 H   0  0  0  0  0  0  0  0  0  0  0  0
  150.7406  139.7541  156.0931 H   0  0  0  0  0  0  0  0  0  0  0  0
  148.9399  142.8514  154.5903 H   0  0  0  0  0  0  0  0  0  0  0  0
  146.8562  141.8842  153.1219 H   0  0  0  0  0  0  0  0  0  0  0  0
  147.3017  137.8555  153.4606 H   0  0  0  0  0  0  0  0  0  0  0  0
  147.7136  138.9207  151.2339 H   0  0  0  0  0  0  0  0  0  0  0  0
  146.2773  139.9199  151.4398 H   0  0  0  0  0  0  0  0  0  0  0  0
  146.1241  138.1699  151.2932 H   0  0  0  0  0  0  0  0  0  0  0  0
  144.9747  139.2387  153.1754 H   0  0  0  0  0  0  0  0  0  0  0  0
  1  2  1  0  0  0  0
  1 17  1  0  0  0  0
  1 18  1  0  0  0  0
  1 19  1  0  0  0  0
  2  3  1  0  0  0  0
  2 20  1  0  0  0  0
  2 21  1  0  0  0  0
  3  4  1  0  0  0  0
  3  5  1  0  0  0  0
  3 22  1  0  0  0  0
  4 23  1  0  0  0  0
  4 24  1  0  0  0  0
  4 25  1  0  0  0  0
  5  6  1  0  0  0  0
  5 26  1  0  0  0  0
  6  7  2  0  0  0  0
  6  8  1  0  0  0  0
  8  9  1  0  0  0  0
  8 27  1  0  0  0  0
  8 28  1  0  0  0  0
  9 16  1  0  0  0  0
  9 10  1  0  0  0  0
 10 11  2  0  0  0  0
 10 29  1  0  0  0  0
 11 12  1  0  0  0  0
 11 30  1  0  0  0  0
 12 13  1  0  0  0  0
 12 16  2  0  0  0  0
 13 14  1  0  0  0  0
 13 15  1  0  0  0  0
 13 31  1  0  0  0  0
 14 32  1  0  0  0  0
 14 33  1  0  0  0  0
 14 34  1  0  0  0  0
 15 35  1  0  0  0  0
M  END
> <s_m_source_file>
AV-unprocessed.smi

> <i_m_source_file_index>
2739

> <i_lp_mmshare_version>
43012

> <i_f3d_flags>
0

> <s_epik_input>
W0NIM11bQ0gyXVtDQEhdKFtDSDNdKVtOSF1DKD1PKVtDSDJdbjFbY0hdW2NIXWMobjEpW0NASF0oW0NIM10pW09IXQ==

> <s_epik_cmdline>
J2VwaWtfcHl0aG9uJywgJy1waCcsICc3LjAnLCAnLXRuJywgJzgnLCAnLW1hJywgJzIwMCcsICctbWV0YWxfYmluZGluZycsICctaW1hZScsICc8aW5maWxlLm1hZT4nLCAnLW9tYWUnLCAnPG91dGZpbGUubWFlPic=

> <r_lp_tautomer_probability>
1

> <r_epik_Ionization_Penalty>
5.22246e-06

> <r_epik_Ionization_Penalty_Charging>
0

> <r_epik_Ionization_Penalty_Neutral>
5.22246e-06

> <r_epik_State_Penalty>
-0

> <r_epik_Charging_Adjusted_Penalty>
0

> <i_epik_Tot_Q>
0

> <i_epik_Tot_abs_Q>
0

> <r_epik_Metal_State_Penalty>
-0

> <b_epik_Metal_Only>
0

> <s_lp_Force_Field>
OPLS_2005

> <r_lp_Energy>
1.58762

> <b_lp_Chiralities_Consistent>
1

> <s_lp_Variant>
AV-unprocessed.smi:2739-2

> <Gold.Version>
5.8.1

> <Gold.Id.Protein>
6NUR|6NUR_protein|mol2

> <Gold.PLP.Fitness>
40.6049

> <Gold.PLP.PLP>
-35.4575

> <Gold.PLP.part.hbond>
-1.0000

> <Gold.PLP.part.metal>
0.0000

> <Gold.PLP.part.buried>
-0.5101

> <Gold.PLP.part.nonpolar>
-34.0881

> <Gold.PLP.part.repulsive>
0.2507

> <Gold.PLP.ligand.clash>
0.0000

> <Gold.PLP.ligand.torsion>
0.4710

> <Gold.PLP.Chemscore.Hbond>
1.0000

> <Gold.PLP.Chemscore.CHOScore>
1.0000

> <Gold.PLP.Chemscore.Metal>
0.0000

> <Gold.Chemscore.Hbonds>
donor molecule, donor type, donor heavy atom, donor atom, acceptor molecule, acceptor atom, score
      L1  H    15    35       P1 10175  1.00
      L1  C    10    29       P1  8028  1.00

> <Gold.PLP.Chemscore.Internal.Correction>
0.0894

> <Gold.Rescore>
     Score         DG    S(hbond)    S(metal)    S(lipo)     H(rot)  DE(clash)    DE(int)     intcor
     13.20     -13.74       1.00        0.00      93.39       2.34       0.15       0.39       ----

> <Gold.Chemscore.Fitness>
13.1980

> <Gold.Chemscore.DG>
-13.7427

> <Gold.Chemscore.ZeroCoef>
-5.4800

> <Gold.Chemscore.Hbond>
0.9998

> <Gold.Chemscore.Metal>
0.0000

> <Gold.Chemscore.Lipo>
93.3859

> <Gold.Chemscore.Internal_Hbond>
0.0000

> <Gold.Chemscore.DEClash>
0.1525

> <Gold.Chemscore.DEInternal>
0.3922

> <Gold.Chemscore.Rot>
2.3448

> <Gold.Chemscore.Internal.Correction>
   9.000000E+99

> <Gold.Chemscore.Hbonds>
donor molecule, donor type, donor heavy atom, donor atom, acceptor molecule, acceptor atom, score
      L1  H    15    35       P1 10175  0.99

> <Gold.Chemscore.Hbond.Weighted>
-3.3393

> <Gold.Chemscore.Metal.Weighted>
-0.0000

> <Gold.Chemscore.Lipo.Weighted>
-10.9261

> <Gold.Chemscore.Internal_Hbond.Weighted>
0.0000

> <Gold.Chemscore.DEClash.Weighted>
0.1525

> <Gold.Chemscore.DEInternal.Weighted>
0.3922

> <Gold.Chemscore.Rot.Weighted>
6.0027

> <Gold.Chemscore.Internal.Correction.Weighted>
   9.000000E+99

> <Gold.Protein.RotatedTorsions>
[ 6907 6896 6895 6894 ] final -160.14 input  -60.11 | X-H torsion
[ 7974 7965 7964 7962 ] final   52.10 input  175.53 | X-H torsion
[ 8008 7997 7996 7995 ] final  -80.93 input   59.86 | X-H torsion
[ 10167 10162 10161 10158 ] final -175.85 input  -65.29 | X-H torsion
[ 10718 10713 10712 10709 ] final   68.96 input   66.30 | X-H torsion
[ 10763 10752 10751 10750 ] final -174.24 input  -60.55 | X-H torsion
[ 11005 11000 10999 10996 ] final  -57.42 input  -57.11 | X-H torsion

> <Gold.Protein.ActiveResidues>
 VAL166  LYS551  ARG553  GLY616  TRP617  ASP618  TYR619  PRO620  LYS621  CYS622 
 ASP623  PHE694  ASN695  SER759  ASP760  ASP761  ALA762  ILE779  LEU786  VAL792 
 PHE793  MET794  SER795  GLU796  ALA797  LYS798  CYS799  TRP800  GLU811  SER814 

> <Gold.Protein.RotatedAtoms>
  151.3445  133.3949  159.2674 H   0  0  0  0  0  0  0  0  0  0  0  0  # atno 6907 bound_to 6896
  150.9851  134.9199  159.7877 H   0  0  0  0  0  0  0  0  0  0  0  0  # atno 6908 bound_to 6896
  152.5229  134.3409  159.9269 H   0  0  0  0  0  0  0  0  0  0  0  0  # atno 6909 bound_to 6896
  145.9847  139.4278  143.0110 H   0  0  0  0  0  0  0  0  0  0  0  0  # atno 7974 bound_to 7965
  154.5933  140.0655  156.9268 H   0  0  0  0  0  0  0  0  0  0  0  0  # atno 8008 bound_to 7997
  155.2258  140.3333  155.4291 H   0  0  0  0  0  0  0  0  0  0  0  0  # atno 8009 bound_to 7997
  156.2270  140.1824  156.7322 H   0  0  0  0  0  0  0  0  0  0  0  0  # atno 8010 bound_to 7997
  139.5559  144.1990  152.1159 H   0  0  0  0  0  0  0  0  0  0  0  0  # atno 10167 bound_to 10162
  157.6319  130.9400  150.0448 H   0  0  0  0  0  0  0  0  0  0  0  0  # atno 10718 bound_to 10713
  154.5986  135.2852  155.0560 H   0  0  0  0  0  0  0  0  0  0  0  0  # atno 10763 bound_to 10752
  154.1833  135.6453  153.5044 H   0  0  0  0  0  0  0  0  0  0  0  0  # atno 10764 bound_to 10752
  153.0148  135.5429  154.6696 H   0  0  0  0  0  0  0  0  0  0  0  0  # atno 10765 bound_to 10752
  141.1164  133.6610  156.4767 H   0  0  0  0  0  0  0  0  0  0  0  0  # atno 11005 bound_to 11000
  145.7718  140.9893  143.1145 LP  0  0  0  0  0  0  0  0  0  0  0  0  # atno 17320 bound_to 7965
  144.6871  139.9456  143.7476 LP  0  0  0  0  0  0  0  0  0  0  0  0  # atno 17321 bound_to 7965
  140.1494  144.5129  150.6696 LP  0  0  0  0  0  0  0  0  0  0  0  0  # atno 17342 bound_to 10162
  140.6832  143.2337  151.5329 LP  0  0  0  0  0  0  0  0  0  0  0  0  # atno 17343 bound_to 10162
  156.1528  130.3642  149.9413 LP  0  0  0  0  0  0  0  0  0  0  0  0  # atno 17370 bound_to 10713
  156.7429  130.9086  151.3633 LP  0  0  0  0  0  0  0  0  0  0  0  0  # atno 17371 bound_to 10713
  140.4634  134.6820  157.5096 LP  0  0  0  0  0  0  0  0  0  0  0  0  # atno 17394 bound_to 11000
  140.0089  134.6721  155.9411 LP  0  0  0  0  0  0  0  0  0  0  0  0  # atno 17395 bound_to 11000

$$$$
