AV-unprocessed.smi:37|AV-procd|sdf|321|dock2
  -GOLD-   2262016143D 1   1.00000     0.00000
 Structure written by MMmdl.
 43 44  0  0  0  0  0  0  0  0  2 V2000
  148.1217  134.6011  161.4578 C   0  0  0  0  0  0  0  0  0  0  0  0
  148.5563  135.0357  160.0514 C   0  0  0  0  0  0  0  0  0  0  0  0
  148.7235  136.5493  159.9324 C   0  0  0  0  0  0  0  0  0  0  0  0
  148.4068  137.3046  160.8514 O   0  0  0  0  0  0  0  0  0  0  0  0
  149.2160  136.9221  158.7419 O   0  0  0  0  0  0  0  0  0  0  0  0
  149.5165  138.2848  158.4950 C   0  0  0  0  0  0  0  0  0  0  0  0
  150.6410  138.3730  157.4548 C   0  0  2  0  0  0  0  0  0  0  0  0
  151.9019  138.0448  158.0421 O   0  0  0  0  0  0  0  0  0  0  0  0
  152.8976  138.9284  157.6061 C   0  0  2  0  0  0  0  0  0  0  0  0
  153.2909  139.8600  158.7379 N   0  0  0  0  0  0  0  0  0  0  0  0
  152.9719  141.2085  158.7162 C   0  0  0  0  0  0  0  0  0  0  0  0
  153.3307  142.0301  159.7236 C   0  0  0  0  0  0  0  0  0  0  0  0
  153.0068  143.3335  159.6710 F   0  0  0  0  0  0  0  0  0  0  0  0
  154.0675  141.4950  160.8663 C   0  0  0  0  0  0  0  0  0  0  0  0
  154.3997  142.2508  161.7781 O   0  0  0  0  0  0  0  0  0  0  0  0
  154.3566  140.1618  160.8700 N   0  5  0  0  0  0  0  0  0  0  0  0
  153.9941  139.3260  159.8533 C   0  0  0  0  0  0  0  0  0  0  0  0
  154.2507  138.1220  159.8498 O   0  0  0  0  0  0  0  0  0  0  0  0
  152.2970  139.7269  156.4448 C   0  0  1  0  0  0  0  0  0  0  0  0
  152.5740  138.7086  154.7501 Br  0  0  0  0  0  0  0  0  0  0  0  0
  150.8291  139.7591  156.8285 C   0  0  1  0  0  0  0  0  0  0  0  0
  150.0081  139.9807  155.6874 O   0  0  0  0  0  0  0  0  0  0  0  0
  148.7042  140.2766  155.8278 C   0  0  0  0  0  0  0  0  0  0  0  0
  148.1043  140.4022  156.8969 O   0  0  0  0  0  0  0  0  0  0  0  0
  148.0075  140.4378  154.4756 C   0  0  0  0  0  0  0  0  0  0  0  0
  147.4182  141.8384  154.2520 C   0  0  0  0  0  0  0  0  0  0  0  0
  147.9570  133.5241  161.4916 H   0  0  0  0  0  0  0  0  0  0  0  0
  147.1919  135.0873  161.7545 H   0  0  0  0  0  0  0  0  0  0  0  0
  148.8811  134.8398  162.2032 H   0  0  0  0  0  0  0  0  0  0  0  0
  149.4991  134.5564  159.7869 H   0  0  0  0  0  0  0  0  0  0  0  0
  147.8183  134.7059  159.3197 H   0  0  0  0  0  0  0  0  0  0  0  0
  148.6294  138.8175  158.1504 H   0  0  0  0  0  0  0  0  0  0  0  0
  149.8378  138.7476  159.4289 H   0  0  0  0  0  0  0  0  0  0  0  0
  150.4724  137.6338  156.6700 H   0  0  0  0  0  0  0  0  0  0  0  0
  153.8098  138.3843  157.3554 H   0  0  0  0  0  0  0  0  0  0  0  0
  152.4242  141.6292  157.8885 H   0  0  0  0  0  0  0  0  0  0  0  0
  152.7443  140.7140  156.3274 H   0  0  0  0  0  0  0  0  0  0  0  0
  150.6919  140.5294  157.5894 H   0  0  0  0  0  0  0  0  0  0  0  0
  148.7268  140.2113  153.6884 H   0  0  0  0  0  0  0  0  0  0  0  0
  147.2155  139.6920  154.4035 H   0  0  0  0  0  0  0  0  0  0  0  0
  146.9416  141.9023  153.2740 H   0  0  0  0  0  0  0  0  0  0  0  0
  148.1898  142.6079  154.2928 H   0  0  0  0  0  0  0  0  0  0  0  0
  146.6631  142.0751  155.0025 H   0  0  0  0  0  0  0  0  0  0  0  0
  1  2  1  0  0  0  0
  1 27  1  0  0  0  0
  1 28  1  0  0  0  0
  1 29  1  0  0  0  0
  2  3  1  0  0  0  0
  2 30  1  0  0  0  0
  2 31  1  0  0  0  0
  3  4  2  0  0  0  0
  3  5  1  0  0  0  0
  5  6  1  0  0  0  0
  6  7  1  0  0  0  0
  6 32  1  0  0  0  0
  6 33  1  0  0  0  0
  7 21  1  0  0  0  0
  7  8  1  0  0  0  0
  7 34  1  0  0  0  0
  8  9  1  0  0  0  0
  9 10  1  0  0  0  0
  9 19  1  0  0  0  0
  9 35  1  0  0  0  0
 10 17  1  0  0  0  0
 10 11  1  0  0  0  0
 11 12  2  0  0  0  0
 11 36  1  0  0  0  0
 12 13  1  0  0  0  0
 12 14  1  0  0  0  0
 14 15  2  0  0  0  0
 14 16  1  0  0  0  0
 16 17  1  0  0  0  0
 17 18  2  0  0  0  0
 19 20  1  0  0  0  0
 19 21  1  0  0  0  0
 19 37  1  0  0  0  0
 21 22  1  0  0  0  0
 21 38  1  0  0  0  0
 22 23  1  0  0  0  0
 23 24  2  0  0  0  0
 23 25  1  0  0  0  0
 25 26  1  0  0  0  0
 25 39  1  0  0  0  0
 25 40  1  0  0  0  0
 26 41  1  0  0  0  0
 26 42  1  0  0  0  0
 26 43  1  0  0  0  0
M  CHG  1  16  -1
M  END
> <s_m_source_file>
AV-unprocessed.smi

> <i_m_source_file_index>
37

> <i_lp_mmshare_version>
43012

> <i_f3d_flags>
0

> <s_epik_input>
W0NIM11bQ0gyXUMoPU8pT1tDSDJdW0NAQEhdMU9bQ0BASF0objJbY0hdYyhGKWMoPU8pW25IXWMyPU8pW0NAQEhdKEJyKVtDQEhdMU9DKD1PKVtDSDJdW0NIM10=

> <s_epik_cmdline>
J2VwaWtfcHl0aG9uJywgJy1waCcsICc3LjAnLCAnLXRuJywgJzgnLCAnLW1hJywgJzIwMCcsICctbWV0YWxfYmluZGluZycsICctaW1hZScsICc8aW5maWxlLm1hZT4nLCAnLW9tYWUnLCAnPG91dGZpbGUubWFlPic=

> <r_epik_Ionization_Penalty>
1.08158

> <r_epik_Ionization_Penalty_Charging>
9.05154e-09

> <r_epik_Ionization_Penalty_Neutral>
1.08158

> <r_epik_State_Penalty>
1.13706

> <r_epik_Charging_Adjusted_Penalty>
1.13706

> <i_epik_Tot_Q>
-1

> <i_epik_Tot_abs_Q>
1

> <r_epik_Metal_State_Penalty>
0.00343535

> <b_epik_Metal_Only>
0

> <s_epik_Chemistry_Notes>
This compound has an ester and may undergo hydrolysis at high or low pH. This compound contains an acetal/aminal-like group ( X-CH(R)-Y where X, Y are N, S, or O) that may be acid/base labile, releasing an aldehyde.

> <s_lp_Force_Field>
OPLS_2005

> <r_lp_Energy>
31.9514

> <b_lp_Chiralities_Consistent>
1

> <s_lp_Variant>
AV-unprocessed.smi:37-19

> <Gold.Version>
5.8.1

> <Gold.Id.Protein>
6NUR|6NUR_protein|mol2

> <Gold.PLP.Fitness>
44.7766

> <Gold.PLP.PLP>
-40.9112

> <Gold.PLP.part.hbond>
-3.0000

> <Gold.PLP.part.metal>
0.0000

> <Gold.PLP.part.buried>
-4.7566

> <Gold.PLP.part.nonpolar>
-32.5936

> <Gold.PLP.part.repulsive>
0.0631

> <Gold.PLP.ligand.clash>
0.0000

> <Gold.PLP.ligand.torsion>
0.5777

> <Gold.PLP.Chemscore.Hbond>
1.5840

> <Gold.PLP.Chemscore.CHOScore>
0.0000

> <Gold.PLP.Chemscore.Metal>
0.0000

> <Gold.Chemscore.Hbonds>
donor molecule, donor type, donor heavy atom, donor atom, acceptor molecule, acceptor atom, score
      P1  H  6931  6943       L1     4  0.85
      P1  H  6934  6947       L1     4  0.44

> <Gold.PLP.Chemscore.Internal.Correction>
0.2688

> <Gold.Rescore>
     Score         DG    S(hbond)    S(metal)    S(lipo)     H(rot)  DE(clash)    DE(int)     intcor
      9.22     -10.39       1.60        0.00      67.69       3.27       0.01       1.15       ----

> <Gold.Chemscore.Fitness>
9.2243

> <Gold.Chemscore.DG>
-10.3867

> <Gold.Chemscore.ZeroCoef>
-5.4800

> <Gold.Chemscore.Hbond>
1.6018

> <Gold.Chemscore.Metal>
0.0000

> <Gold.Chemscore.Lipo>
67.6927

> <Gold.Chemscore.Internal_Hbond>
0.0000

> <Gold.Chemscore.DEClash>
0.0089

> <Gold.Chemscore.DEInternal>
1.1535

> <Gold.Chemscore.Rot>
3.2669

> <Gold.Chemscore.Internal.Correction>
   9.000000E+99

> <Gold.Chemscore.Hbonds>
donor molecule, donor type, donor heavy atom, donor atom, acceptor molecule, acceptor atom, score
      P1  H  6931  6943       L1     4  0.79
      P1  H  6934  6947       L1     4  0.43

> <Gold.Chemscore.Hbond.Weighted>
-5.3500

> <Gold.Chemscore.Metal.Weighted>
-0.0000

> <Gold.Chemscore.Lipo.Weighted>
-7.9200

> <Gold.Chemscore.Internal_Hbond.Weighted>
0.0000

> <Gold.Chemscore.DEClash.Weighted>
0.0089

> <Gold.Chemscore.DEInternal.Weighted>
1.1535

> <Gold.Chemscore.Rot.Weighted>
8.3634

> <Gold.Chemscore.Internal.Correction.Weighted>
   9.000000E+99

> <Gold.Protein.RotatedTorsions>
[ 6907 6896 6895 6894 ] final  -20.64 input  -60.11 | X-H torsion
[ 7974 7965 7964 7962 ] final  -82.85 input  175.53 | X-H torsion
[ 8008 7997 7996 7995 ] final  119.03 input   59.86 | X-H torsion
[ 10167 10162 10161 10158 ] final -158.13 input  -65.29 | X-H torsion
[ 10718 10713 10712 10709 ] final   -8.30 input   66.30 | X-H torsion
[ 10763 10752 10751 10750 ] final  176.58 input  -60.55 | X-H torsion
[ 11005 11000 10999 10996 ] final  125.68 input  -57.11 | X-H torsion

> <Gold.Protein.ActiveResidues>
 VAL166  LYS551  ARG553  GLY616  TRP617  ASP618  TYR619  PRO620  LYS621  CYS622 
 ASP623  PHE694  ASN695  SER759  ASP760  ASP761  ALA762  ILE779  LEU786  VAL792 
 PHE793  MET794  SER795  GLU796  ALA797  LYS798  CYS799  TRP800  GLU811  SER814 

> <Gold.Protein.RotatedAtoms>
  151.2452  135.0603  159.9040 H   0  0  0  0  0  0  0  0  0  0  0  0  # atno 6907 bound_to 6896
  152.5388  134.0391  159.8069 H   0  0  0  0  0  0  0  0  0  0  0  0  # atno 6908 bound_to 6896
  151.0591  133.5510  159.2667 H   0  0  0  0  0  0  0  0  0  0  0  0  # atno 6909 bound_to 6896
  145.5278  140.9524  143.1620 H   0  0  0  0  0  0  0  0  0  0  0  0  # atno 7974 bound_to 7965
  156.2576  140.2862  156.0928 H   0  0  0  0  0  0  0  0  0  0  0  0  # atno 8008 bound_to 7997
  155.1444  140.0396  157.2824 H   0  0  0  0  0  0  0  0  0  0  0  0  # atno 8009 bound_to 7997
  154.6506  140.2543  155.7225 H   0  0  0  0  0  0  0  0  0  0  0  0  # atno 8010 bound_to 7997
  139.6716  143.9735  152.2287 H   0  0  0  0  0  0  0  0  0  0  0  0  # atno 10167 bound_to 10162
  156.7046  130.5103  149.5908 H   0  0  0  0  0  0  0  0  0  0  0  0  # atno 10718 bound_to 10713
  154.4831  135.2775  155.1555 H   0  0  0  0  0  0  0  0  0  0  0  0  # atno 10763 bound_to 10752
  154.3258  135.6200  153.5532 H   0  0  0  0  0  0  0  0  0  0  0  0  # atno 10764 bound_to 10752
  152.9878  135.5753  154.5235 H   0  0  0  0  0  0  0  0  0  0  0  0  # atno 10765 bound_to 10752
  139.9418  134.9634  156.8594 H   0  0  0  0  0  0  0  0  0  0  0  0  # atno 11005 bound_to 11000
  144.7642  139.6885  143.7222 LP  0  0  0  0  0  0  0  0  0  0  0  0  # atno 17320 bound_to 7965
  146.2064  139.5391  142.9710 LP  0  0  0  0  0  0  0  0  0  0  0  0  # atno 17321 bound_to 7965
  139.9501  144.6626  150.8180 LP  0  0  0  0  0  0  0  0  0  0  0  0  # atno 17342 bound_to 10162
  140.7620  143.3188  151.2671 LP  0  0  0  0  0  0  0  0  0  0  0  0  # atno 17343 bound_to 10162
  156.1704  130.6433  151.0830 LP  0  0  0  0  0  0  0  0  0  0  0  0  # atno 17370 bound_to 10713
  157.6960  131.0794  150.6968 LP  0  0  0  0  0  0  0  0  0  0  0  0  # atno 17371 bound_to 10713
  140.5933  134.0241  155.7508 LP  0  0  0  0  0  0  0  0  0  0  0  0  # atno 17394 bound_to 11000
  141.1055  133.9700  157.3004 LP  0  0  0  0  0  0  0  0  0  0  0  0  # atno 17395 bound_to 11000

$$$$
