AV-unprocessed.smi:54|AV-procd|sdf|548|dock4
  -GOLD-   2262016443D 1   1.00000     0.00000
 Structure written by MMmdl.
 43 45  0  0  0  0  0  0  0  0  2 V2000
  152.8831  143.5641  159.1001 C   0  0  0  0  0  0  0  0  0  0  0  0
  152.6896  142.2970  159.9496 C   0  0  0  0  0  0  0  0  0  0  0  0
  153.6438  142.2823  161.1553 C   0  0  0  0  0  0  0  0  0  0  0  0
  152.8740  141.0360  159.0933 C   0  0  0  0  0  0  0  0  0  0  0  0
  153.8103  140.2725  159.3421 O   0  0  0  0  0  0  0  0  0  0  0  0
  151.9641  140.8683  158.1074 N   0  0  0  0  0  0  0  0  0  0  0  0
  151.8621  139.8390  157.1643 C   0  0  0  0  0  0  0  0  0  0  0  0
  150.6844  139.4448  156.7334 N   0  0  0  0  0  0  0  0  0  0  0  0
  150.7765  138.4181  155.8141 C   0  0  0  0  0  0  0  0  0  0  0  0
  151.9094  137.8169  155.3397 C   0  0  0  0  0  0  0  0  0  0  0  0
  151.6083  136.8164  154.4243 N   0  0  0  0  0  0  0  0  0  0  0  0
  150.2775  136.8635  154.3895 C   0  0  0  0  0  0  0  0  0  0  0  0
  149.7060  137.7839  155.1944 N   0  0  0  0  0  0  0  0  0  0  0  0
  148.2473  138.0828  155.3787 C   0  0  1  0  0  0  0  0  0  0  0  0
  148.1267  138.9582  156.4620 O   0  0  0  0  0  0  0  0  0  0  0  0
  147.5871  140.2165  156.0531 C   0  0  1  0  0  0  0  0  0  0  0  0
  148.2217  141.3751  156.8429 C   0  0  0  0  0  0  0  0  0  0  0  0
  147.9955  141.2011  158.2250 O   0  0  0  0  0  0  0  0  0  0  0  0
  147.7797  140.2660  154.5296 C   0  0  1  0  0  0  0  0  0  0  0  0
  149.0430  140.8039  154.1751 O   0  0  0  0  0  0  0  0  0  0  0  0
  147.6439  138.7974  154.1567 C   0  0  1  0  0  0  0  0  0  0  0  0
  148.2244  138.4788  152.9042 O   0  0  0  0  0  0  0  0  0  0  0  0
  153.2015  138.3179  155.8646 C   0  0  0  0  0  0  0  0  0  0  0  0
  154.2474  137.8097  155.4652 O   0  0  0  0  0  0  0  0  0  0  0  0
  153.1124  139.3327  156.7767 N   0  5  0  0  0  0  0  0  0  0  0  0
  147.7945  137.1139  155.5922 H   0  0  0  0  0  0  0  0  0  0  0  0
  146.5126  140.1850  156.2431 H   0  0  0  0  0  0  0  0  0  0  0  0
  147.0114  140.8732  154.0499 H   0  0  0  0  0  0  0  0  0  0  0  0
  146.5845  138.5397  154.1242 H   0  0  0  0  0  0  0  0  0  0  0  0
  152.2161  143.5680  158.2371 H   0  0  0  0  0  0  0  0  0  0  0  0
  153.9064  143.6489  158.7316 H   0  0  0  0  0  0  0  0  0  0  0  0
  152.6675  144.4600  159.6828 H   0  0  0  0  0  0  0  0  0  0  0  0
  151.6680  142.3064  160.3337 H   0  0  0  0  0  0  0  0  0  0  0  0
  153.5104  141.3813  161.7559 H   0  0  0  0  0  0  0  0  0  0  0  0
  153.4611  143.1378  161.8059 H   0  0  0  0  0  0  0  0  0  0  0  0
  154.6881  142.3232  160.8424 H   0  0  0  0  0  0  0  0  0  0  0  0
  151.2684  141.5965  158.0407 H   0  0  0  0  0  0  0  0  0  0  0  0
  149.7026  136.2029  153.7584 H   0  0  0  0  0  0  0  0  0  0  0  0
  149.2902  141.4567  156.6435 H   0  0  0  0  0  0  0  0  0  0  0  0
  147.7630  142.3218  156.5558 H   0  0  0  0  0  0  0  0  0  0  0  0
  148.2592  140.3258  158.4641 H   0  0  0  0  0  0  0  0  0  0  0  0
  149.1525  140.7126  153.2408 H   0  0  0  0  0  0  0  0  0  0  0  0
  148.5623  139.2736  152.5202 H   0  0  0  0  0  0  0  0  0  0  0  0
  1  2  1  0  0  0  0
  1 30  1  0  0  0  0
  1 31  1  0  0  0  0
  1 32  1  0  0  0  0
  2  3  1  0  0  0  0
  2  4  1  0  0  0  0
  2 33  1  0  0  0  0
  3 34  1  0  0  0  0
  3 35  1  0  0  0  0
  3 36  1  0  0  0  0
  4  5  2  0  0  0  0
  4  6  1  0  0  0  0
  6 37  1  0  0  0  0
  6  7  1  0  0  0  0
  7 25  1  0  0  0  0
  7  8  2  0  0  0  0
  8  9  1  0  0  0  0
  9 13  1  0  0  0  0
  9 10  2  0  0  0  0
 10 11  1  0  0  0  0
 10 23  1  0  0  0  0
 11 12  2  0  0  0  0
 12 13  1  0  0  0  0
 12 38  1  0  0  0  0
 13 14  1  0  0  0  0
 14 26  1  0  0  0  0
 14 21  1  0  0  0  0
 14 15  1  0  0  0  0
 15 16  1  0  0  0  0
 16 27  1  0  0  0  0
 16 17  1  0  0  0  0
 16 19  1  0  0  0  0
 17 18  1  0  0  0  0
 17 39  1  0  0  0  0
 17 40  1  0  0  0  0
 18 41  1  0  0  0  0
 19 28  1  0  0  0  0
 19 20  1  0  0  0  0
 19 21  1  0  0  0  0
 20 42  1  0  0  0  0
 21 29  1  0  0  0  0
 21 22  1  0  0  0  0
 22 43  1  0  0  0  0
 23 24  2  0  0  0  0
 23 25  1  0  0  0  0
M  CHG  1  25  -1
M  END
> <s_m_source_file>
AV-unprocessed.smi

> <i_m_source_file_index>
54

> <i_lp_mmshare_version>
43012

> <i_f3d_flags>
0

> <s_epik_input>
W0NIM11bQ0hdKFtDSDNdKUMoPU8pW05IXWMobjEpW25IXWMoPU8pYyhjMTIpbltjSF1uMltDQEBIXTNPW0NASF0oW0NIMl1bT0hdKVtDQEBIXShbT0hdKVtDQEhdM1tPSF0=

> <s_epik_cmdline>
J2VwaWtfcHl0aG9uJywgJy1waCcsICc3LjAnLCAnLXRuJywgJzgnLCAnLW1hJywgJzIwMCcsICctbWV0YWxfYmluZGluZycsICctaW1hZScsICc8aW5maWxlLm1hZT4nLCAnLW9tYWUnLCAnPG91dGZpbGUubWFlPic=

> <r_lp_tautomer_probability>
0.85571

> <r_epik_Ionization_Penalty>
1.75936

> <r_epik_Ionization_Penalty_Charging>
4.55893e-11

> <r_epik_Ionization_Penalty_Neutral>
1.75936

> <r_epik_State_Penalty>
1.72072

> <r_epik_Charging_Adjusted_Penalty>
1.72072

> <i_epik_Tot_Q>
-1

> <i_epik_Tot_abs_Q>
1

> <r_epik_Metal_State_Penalty>
0.400338

> <b_epik_Metal_Only>
1

> <s_epik_Chemistry_Notes>
This compound contains an acetal/aminal-like group ( X-CH(R)-Y where X, Y are N, S, or O) that may be acid/base labile, releasing an aldehyde.

> <s_lp_Force_Field>
OPLS_2005

> <r_lp_Energy>
61.5499

> <b_lp_Chiralities_Consistent>
1

> <s_lp_Variant>
AV-unprocessed.smi:54-20

> <Gold.Version>
5.8.1

> <Gold.Id.Protein>
6NUR|6NUR_protein|mol2

> <Gold.PLP.Fitness>
51.5315

> <Gold.PLP.PLP>
-33.1883

> <Gold.PLP.part.hbond>
-6.5978

> <Gold.PLP.part.metal>
0.0000

> <Gold.PLP.part.buried>
-4.9871

> <Gold.PLP.part.nonpolar>
-22.7646

> <Gold.PLP.part.repulsive>
0.2323

> <Gold.PLP.ligand.clash>
0.0000

> <Gold.PLP.ligand.torsion>
0.5386

> <Gold.PLP.Chemscore.Hbond>
5.3110

> <Gold.PLP.Chemscore.CHOScore>
1.0000

> <Gold.PLP.Chemscore.Metal>
0.0000

> <Gold.Chemscore.Hbonds>
donor molecule, donor type, donor heavy atom, donor atom, acceptor molecule, acceptor atom, score
      L1  H    20    42       P1  7957  0.50
      L1  H    22    43       P1  7957  0.91
      P1  H  7997  8010       L1    25  1.70
      P1  H 10752 10763       L1    11  1.00
      L1  C    12    38       P1  7948  0.93

> <Gold.PLP.Chemscore.Internal.Correction>
0.4875

> <Gold.Rescore>
     Score         DG    S(hbond)    S(metal)    S(lipo)     H(rot)  DE(clash)    DE(int)     intcor
      9.65     -14.25       3.62        0.00      59.61       4.02       0.07       4.53       ----

> <Gold.Chemscore.Fitness>
9.6504

> <Gold.Chemscore.DG>
-14.2516

> <Gold.Chemscore.ZeroCoef>
-5.4800

> <Gold.Chemscore.Hbond>
3.6188

> <Gold.Chemscore.Metal>
0.0000

> <Gold.Chemscore.Lipo>
59.6061

> <Gold.Chemscore.Internal_Hbond>
0.0000

> <Gold.Chemscore.DEClash>
0.0720

> <Gold.Chemscore.DEInternal>
4.5292

> <Gold.Chemscore.Rot>
4.0192

> <Gold.Chemscore.Internal.Correction>
   9.000000E+99

> <Gold.Chemscore.Hbonds>
donor molecule, donor type, donor heavy atom, donor atom, acceptor molecule, acceptor atom, score
      L1  H    20    42       P1  7957  0.50
      L1  H    22    43       P1  7957  0.90
      P1  H  7997  8010       L1    25  0.57
      P1  H 10752 10763       L1    11  0.78

> <Gold.Chemscore.Hbond.Weighted>
-12.0869

> <Gold.Chemscore.Metal.Weighted>
-0.0000

> <Gold.Chemscore.Lipo.Weighted>
-6.9739

> <Gold.Chemscore.Internal_Hbond.Weighted>
0.0000

> <Gold.Chemscore.DEClash.Weighted>
0.0720

> <Gold.Chemscore.DEInternal.Weighted>
4.5292

> <Gold.Chemscore.Rot.Weighted>
10.2893

> <Gold.Chemscore.Internal.Correction.Weighted>
   9.000000E+99

> <Gold.Protein.RotatedTorsions>
[ 6907 6896 6895 6894 ] final  173.97 input  -60.11 | X-H torsion
[ 7974 7965 7964 7962 ] final   45.94 input  175.53 | X-H torsion
[ 8008 7997 7996 7995 ] final   37.80 input   59.86 | X-H torsion
[ 10167 10162 10161 10158 ] final  173.48 input  -65.29 | X-H torsion
[ 10718 10713 10712 10709 ] final  -10.35 input   66.30 | X-H torsion
[ 10763 10752 10751 10750 ] final   39.75 input  -60.55 | X-H torsion
[ 11005 11000 10999 10996 ] final   74.62 input  -57.11 | X-H torsion

> <Gold.Protein.ActiveResidues>
 VAL166  LYS551  ARG553  GLY616  TRP617  ASP618  TYR619  PRO620  LYS621  CYS622 
 ASP623  PHE694  ASN695  SER759  ASP760  ASP761  ALA762  ILE779  LEU786  VAL792 
 PHE793  MET794  SER795  GLU796  ALA797  LYS798  CYS799  TRP800  GLU811  SER814 

> <Gold.Protein.RotatedAtoms>
  151.7598  133.3333  159.3414 H   0  0  0  0  0  0  0  0  0  0  0  0  # atno 6907 bound_to 6896
  150.7502  134.6116  159.6098 H   0  0  0  0  0  0  0  0  0  0  0  0  # atno 6908 bound_to 6896
  152.3413  134.7133  160.0314 H   0  0  0  0  0  0  0  0  0  0  0  0  # atno 6909 bound_to 6896
  146.0435  139.4909  142.9763 H   0  0  0  0  0  0  0  0  0  0  0  0  # atno 7974 bound_to 7965
  155.2098  140.3322  155.4330 H   0  0  0  0  0  0  0  0  0  0  0  0  # atno 8008 bound_to 7997
  156.2375  140.1879  156.7129 H   0  0  0  0  0  0  0  0  0  0  0  0  # atno 8009 bound_to 7997
  154.6085  140.0612  156.9449 H   0  0  0  0  0  0  0  0  0  0  0  0  # atno 8010 bound_to 7997
  139.5110  144.3255  152.0161 H   0  0  0  0  0  0  0  0  0  0  0  0  # atno 10167 bound_to 10162
  156.6748  130.5019  149.5989 H   0  0  0  0  0  0  0  0  0  0  0  0  # atno 10718 bound_to 10713
  152.9957  135.6211  154.2516 H   0  0  0  0  0  0  0  0  0  0  0  0  # atno 10763 bound_to 10752
  154.2254  135.2794  155.2911 H   0  0  0  0  0  0  0  0  0  0  0  0  # atno 10764 bound_to 10752
  154.5494  135.5738  153.6967 H   0  0  0  0  0  0  0  0  0  0  0  0  # atno 10765 bound_to 10752
  139.9382  134.7448  156.1170 H   0  0  0  0  0  0  0  0  0  0  0  0  # atno 11005 bound_to 11000
  145.6845  141.0181  143.1588 LP  0  0  0  0  0  0  0  0  0  0  0  0  # atno 17320 bound_to 7965
  144.7086  139.8461  143.7422 LP  0  0  0  0  0  0  0  0  0  0  0  0  # atno 17321 bound_to 7965
  140.2696  144.3978  150.6156 LP  0  0  0  0  0  0  0  0  0  0  0  0  # atno 17342 bound_to 10162
  140.6098  143.2169  151.6909 LP  0  0  0  0  0  0  0  0  0  0  0  0  # atno 17343 bound_to 10162
  156.1912  130.6561  151.1063 LP  0  0  0  0  0  0  0  0  0  0  0  0  # atno 17370 bound_to 10713
  157.7064  131.0754  150.6650 LP  0  0  0  0  0  0  0  0  0  0  0  0  # atno 17371 bound_to 10713
  141.1005  133.6679  156.2744 LP  0  0  0  0  0  0  0  0  0  0  0  0  # atno 17394 bound_to 11000
  140.6020  134.5545  157.5519 LP  0  0  0  0  0  0  0  0  0  0  0  0  # atno 17395 bound_to 11000

$$$$
