AV-unprocessed.smi:188|AV-procd|sdf|1474|dock6
  -GOLD-   2262019293D 1   1.00000     0.00000
 Structure written by MMmdl.
 48 52  0  0  0  0  0  0  0  0  2 V2000
  142.8814  133.4684  157.7984 O   0  0  0  0  0  0  0  0  0  0  0  0
  143.7552  134.1923  157.3265 C   0  0  0  0  0  0  0  0  0  0  0  0
  144.1760  134.0508  156.0664 N   0  0  0  0  0  0  0  0  0  0  0  0
  145.1234  134.9311  155.7600 C   0  0  0  0  0  0  0  0  0  0  0  0
  145.7005  135.0474  154.6795 O   0  0  0  0  0  0  0  0  0  0  0  0
  145.3681  135.7811  157.0042 C   0  0  0  0  0  0  0  0  0  0  0  0
  146.8078  135.6397  157.5556 C   0  0  0  0  0  0  0  0  0  0  0  0
  147.8445  136.3907  156.6997 C   0  0  0  0  0  0  0  0  0  0  0  0
  147.4579  137.7905  156.5131 N   0  0  0  0  0  0  0  0  0  0  0  0
  148.4060  138.6458  156.0520 C   0  0  0  0  0  0  0  0  0  0  0  0
  148.9207  138.4806  154.8035 N   0  0  0  0  0  0  0  0  0  0  0  0
  149.8448  139.3242  154.3357 C   0  0  0  0  0  0  0  0  0  0  0  0
  150.3914  140.3810  154.9392 N   0  0  0  0  0  0  0  0  0  0  0  0
  149.8908  140.5468  156.1962 C   0  0  0  0  0  0  0  0  0  0  0  0
  148.9026  139.7349  156.8234 C   0  0  0  0  0  0  0  0  0  0  0  0
  148.6482  140.2084  158.1052 N   0  0  0  0  0  0  0  0  0  0  0  0
  149.4317  141.2446  158.2249 C   0  0  0  0  0  0  0  0  0  0  0  0
  150.2216  141.5144  157.1297 N   0  0  0  0  0  0  0  0  0  0  0  0
  151.1818  142.6009  157.0015 C   0  0  0  0  0  0  0  0  0  0  0  0
  151.5769  143.2679  158.3349 C   0  0  0  0  0  0  0  0  0  0  0  0
  150.3554  144.0159  158.9093 C   0  0  0  0  0  0  0  0  0  0  0  0
  150.1713  145.2873  158.3190 O   0  0  0  0  0  0  0  0  0  0  0  0
  152.3571  142.3938  159.3284 C   0  0  0  0  0  0  0  0  0  0  0  0
  153.4212  143.3648  159.4358 O   0  0  0  0  0  0  0  0  0  0  0  0
  152.8922  144.0595  158.2854 C   0  0  0  0  0  0  0  0  0  0  0  0
  146.1257  137.9984  155.9462 C   0  0  0  0  0  0  0  0  0  0  0  0
  145.0487  137.2797  156.7812 C   0  0  0  0  0  0  0  0  0  0  0  0
  144.4169  135.2011  157.9405 N   0  5  0  0  0  0  0  0  0  0  0  0
  143.8168  133.3594  155.4256 H   0  0  0  0  0  0  0  0  0  0  0  0
  146.8465  136.0327  158.5730 H   0  0  0  0  0  0  0  0  0  0  0  0
  147.0910  134.5885  157.6297 H   0  0  0  0  0  0  0  0  0  0  0  0
  148.8174  136.3375  157.1902 H   0  0  0  0  0  0  0  0  0  0  0  0
  147.9532  135.9109  155.7267 H   0  0  0  0  0  0  0  0  0  0  0  0
  150.1969  139.1219  153.3351 H   0  0  0  0  0  0  0  0  0  0  0  0
  149.4619  141.8394  159.1262 H   0  0  0  0  0  0  0  0  0  0  0  0
  152.0624  142.2078  156.4921 H   0  0  0  0  0  0  0  0  0  0  0  0
  150.7602  143.3444  156.3237 H   0  0  0  0  0  0  0  0  0  0  0  0
  149.4421  143.4387  158.7611 H   0  0  0  0  0  0  0  0  0  0  0  0
  150.4597  144.1758  159.9827 H   0  0  0  0  0  0  0  0  0  0  0  0
  149.2884  145.3408  157.9864 H   0  0  0  0  0  0  0  0  0  0  0  0
  151.8432  142.2242  160.2752 H   0  0  0  0  0  0  0  0  0  0  0  0
  152.7199  141.4543  158.9103 H   0  0  0  0  0  0  0  0  0  0  0  0
  153.4891  143.8696  157.3917 H   0  0  0  0  0  0  0  0  0  0  0  0
  152.7821  145.1314  158.4532 H   0  0  0  0  0  0  0  0  0  0  0  0
  145.8800  139.0583  155.8916 H   0  0  0  0  0  0  0  0  0  0  0  0
  146.1196  137.6310  154.9198 H   0  0  0  0  0  0  0  0  0  0  0  0
  144.0772  137.3983  156.2988 H   0  0  0  0  0  0  0  0  0  0  0  0
  144.9664  137.7809  157.7471 H   0  0  0  0  0  0  0  0  0  0  0  0
  1  2  2  0  0  0  0
  2 28  1  0  0  0  0
  2  3  1  0  0  0  0
  3  4  1  0  0  0  0
  3 29  1  0  0  0  0
  4  5  2  0  0  0  0
  4  6  1  0  0  0  0
  6 27  1  0  0  0  0
  6  7  1  0  0  0  0
  6 28  1  0  0  0  0
  7  8  1  0  0  0  0
  7 30  1  0  0  0  0
  7 31  1  0  0  0  0
  8  9  1  0  0  0  0
  8 32  1  0  0  0  0
  8 33  1  0  0  0  0
  9 10  1  0  0  0  0
  9 26  1  0  0  0  0
 10 15  1  0  0  0  0
 10 11  2  0  0  0  0
 11 12  1  0  0  0  0
 12 13  2  0  0  0  0
 12 34  1  0  0  0  0
 13 14  1  0  0  0  0
 14 18  1  0  0  0  0
 14 15  2  0  0  0  0
 15 16  1  0  0  0  0
 16 17  2  0  0  0  0
 17 18  1  0  0  0  0
 17 35  1  0  0  0  0
 18 19  1  0  0  0  0
 19 20  1  0  0  0  0
 19 36  1  0  0  0  0
 19 37  1  0  0  0  0
 20 25  1  0  0  0  0
 20 21  1  0  0  0  0
 20 23  1  0  0  0  0
 21 22  1  0  0  0  0
 21 38  1  0  0  0  0
 21 39  1  0  0  0  0
 22 40  1  0  0  0  0
 23 24  1  0  0  0  0
 23 41  1  0  0  0  0
 23 42  1  0  0  0  0
 24 25  1  0  0  0  0
 25 43  1  0  0  0  0
 25 44  1  0  0  0  0
 26 27  1  0  0  0  0
 26 45  1  0  0  0  0
 26 46  1  0  0  0  0
 27 47  1  0  0  0  0
 27 48  1  0  0  0  0
M  CHG  1  28  -1
M  END
> <s_m_source_file>
AV-unprocessed.smi

> <i_m_source_file_index>
188

> <i_lp_mmshare_version>
43012

> <i_f3d_flags>
0

> <s_epik_input>
Tz1DKFtOSF0xKVtOSF1DKD1PKUMxMltDSDJdW0NIMl1OKFtDSDJdW0NIMl0yKWMobltjSF1uMyljKGMzNCluW2NIXW40W0NIMl1DNShbQ0gyXVtPSF0pW0NIMl1PW0NIMl01

> <s_epik_cmdline>
J2VwaWtfcHl0aG9uJywgJy1waCcsICc3LjAnLCAnLXRuJywgJzgnLCAnLW1hJywgJzIwMCcsICctbWV0YWxfYmluZGluZycsICctaW1hZScsICc8aW5maWxlLm1hZT4nLCAnLW9tYWUnLCAnPG91dGZpbGUubWFlPic=

> <r_lp_tautomer_probability>
1

> <r_epik_Ionization_Penalty>
5.87904

> <r_epik_Ionization_Penalty_Charging>
5.87677

> <r_epik_Ionization_Penalty_Neutral>
0.00227107

> <r_epik_State_Penalty>
5.88193

> <r_epik_Charging_Adjusted_Penalty>
11.7587

> <i_epik_Tot_Q>
-1

> <i_epik_Tot_abs_Q>
1

> <r_epik_Metal_State_Penalty>
2.21794

> <b_epik_Metal_Only>
1

> <s_lp_Force_Field>
OPLS_2005

> <r_lp_Energy>
46.2215

> <b_lp_Chiralities_Consistent>
1

> <s_lp_Variant>
AV-unprocessed.smi:188-3

> <Gold.Version>
5.8.1

> <Gold.Id.Protein>
6NUR|6NUR_protein|mol2

> <Gold.PLP.Fitness>
41.1537

> <Gold.PLP.PLP>
-27.7058

> <Gold.PLP.part.hbond>
-5.6372

> <Gold.PLP.part.metal>
0.0000

> <Gold.PLP.part.buried>
-4.2072

> <Gold.PLP.part.nonpolar>
-19.3075

> <Gold.PLP.part.repulsive>
0.3756

> <Gold.PLP.ligand.clash>
0.0000

> <Gold.PLP.ligand.torsion>
0.8924

> <Gold.PLP.Chemscore.Hbond>
3.8413

> <Gold.PLP.Chemscore.CHOScore>
1.0000

> <Gold.PLP.Chemscore.Metal>
0.0000

> <Gold.Chemscore.Hbonds>
donor molecule, donor type, donor heavy atom, donor atom, acceptor molecule, acceptor atom, score
      L1  H     3    29       P1 10957  0.93
      L1  H    22    40       P1  8029  1.00
      P1  H  7989  7998       L1    13  0.85
      P1  H 11000 11005       L1     1  1.00
      L1  C    12    34       P1  7957  1.00

> <Gold.PLP.Chemscore.Internal.Correction>
0.7089

> <Gold.Rescore>
     Score         DG    S(hbond)    S(metal)    S(lipo)     H(rot)  DE(clash)    DE(int)     intcor
     11.34     -13.24       2.61        0.00      54.11       2.84       0.00       1.90       ----

> <Gold.Chemscore.Fitness>
11.3395

> <Gold.Chemscore.DG>
-13.2435

> <Gold.Chemscore.ZeroCoef>
-5.4800

> <Gold.Chemscore.Hbond>
2.6094

> <Gold.Chemscore.Metal>
0.0000

> <Gold.Chemscore.Lipo>
54.1129

> <Gold.Chemscore.Internal_Hbond>
0.0000

> <Gold.Chemscore.DEClash>
0.0024

> <Gold.Chemscore.DEInternal>
1.9016

> <Gold.Chemscore.Rot>
2.8450

> <Gold.Chemscore.Internal.Correction>
   9.000000E+99

> <Gold.Chemscore.Hbonds>
donor molecule, donor type, donor heavy atom, donor atom, acceptor molecule, acceptor atom, score
      L1  H     3    29       P1 10957  0.88
      L1  H    22    40       P1  8029  0.34
      P1  H  7989  7998       L1    13  0.14
      P1  H 11000 11005       L1     1  0.85

> <Gold.Chemscore.Hbond.Weighted>
-8.7154

> <Gold.Chemscore.Metal.Weighted>
-0.0000

> <Gold.Chemscore.Lipo.Weighted>
-6.3312

> <Gold.Chemscore.Internal_Hbond.Weighted>
0.0000

> <Gold.Chemscore.DEClash.Weighted>
0.0024

> <Gold.Chemscore.DEInternal.Weighted>
1.9016

> <Gold.Chemscore.Rot.Weighted>
7.2831

> <Gold.Chemscore.Internal.Correction.Weighted>
   9.000000E+99

> <Gold.Protein.RotatedTorsions>
[ 6907 6896 6895 6894 ] final  111.35 input  -60.11 | X-H torsion
[ 7974 7965 7964 7962 ] final  -55.74 input  175.53 | X-H torsion
[ 8008 7997 7996 7995 ] final -135.15 input   59.86 | X-H torsion
[ 10167 10162 10161 10158 ] final   -7.72 input  -65.29 | X-H torsion
[ 10718 10713 10712 10709 ] final  132.77 input   66.30 | X-H torsion
[ 10763 10752 10751 10750 ] final   15.67 input  -60.55 | X-H torsion
[ 11005 11000 10999 10996 ] final  -99.24 input  -57.11 | X-H torsion

> <Gold.Protein.ActiveResidues>
 VAL166  LYS551  ARG553  GLY616  TRP617  ASP618  TYR619  PRO620  LYS621  CYS622 
 ASP623  PHE694  ASN695  SER759  ASP760  ASP761  ALA762  ILE779  LEU786  VAL792 
 PHE793  MET794  SER795  GLU796  ALA797  LYS798  CYS799  TRP800  GLU811  SER814 

> <Gold.Protein.RotatedAtoms>
  152.4973  133.8670  159.7278 H   0  0  0  0  0  0  0  0  0  0  0  0  # atno 6907 bound_to 6896
  150.9166  133.6922  159.2848 H   0  0  0  0  0  0  0  0  0  0  0  0  # atno 6908 bound_to 6896
  151.4313  135.1014  159.9695 H   0  0  0  0  0  0  0  0  0  0  0  0  # atno 6909 bound_to 6896
  145.8707  140.8218  142.9890 H   0  0  0  0  0  0  0  0  0  0  0  0  # atno 7974 bound_to 7965
  155.3739  140.0490  157.3045 H   0  0  0  0  0  0  0  0  0  0  0  0  # atno 8008 bound_to 7997
  154.5116  140.2193  155.9108 H   0  0  0  0  0  0  0  0  0  0  0  0  # atno 8009 bound_to 7997
  156.1589  140.3120  155.8779 H   0  0  0  0  0  0  0  0  0  0  0  0  # atno 8010 bound_to 7997
  140.7037  143.6049  150.8761 H   0  0  0  0  0  0  0  0  0  0  0  0  # atno 10167 bound_to 10162
  157.4839  131.1087  150.9646 H   0  0  0  0  0  0  0  0  0  0  0  0  # atno 10718 bound_to 10713
  153.1503  135.6777  153.8892 H   0  0  0  0  0  0  0  0  0  0  0  0  # atno 10763 bound_to 10752
  153.8321  135.3116  155.3420 H   0  0  0  0  0  0  0  0  0  0  0  0  # atno 10764 bound_to 10752
  154.7857  135.4863  154.0027 H   0  0  0  0  0  0  0  0  0  0  0  0  # atno 10765 bound_to 10752
  141.1316  133.8306  157.0946 H   0  0  0  0  0  0  0  0  0  0  0  0  # atno 11005 bound_to 11000
  144.6726  140.1235  143.7448 LP  0  0  0  0  0  0  0  0  0  0  0  0  # atno 17320 bound_to 7965
  145.9140  139.2504  143.1421 LP  0  0  0  0  0  0  0  0  0  0  0  0  # atno 17321 bound_to 7965
  139.9773  143.5990  152.2954 LP  0  0  0  0  0  0  0  0  0  0  0  0  # atno 17342 bound_to 10162
  139.6598  144.7662  151.1984 LP  0  0  0  0  0  0  0  0  0  0  0  0  # atno 17343 bound_to 10162
  157.0370  130.5734  149.5351 LP  0  0  0  0  0  0  0  0  0  0  0  0  # atno 17370 bound_to 10713
  156.0136  130.5229  150.8066 LP  0  0  0  0  0  0  0  0  0  0  0  0  # atno 17371 bound_to 10713
  140.0371  134.9873  157.0892 LP  0  0  0  0  0  0  0  0  0  0  0  0  # atno 17394 bound_to 11000
  140.4193  134.1897  155.7164 LP  0  0  0  0  0  0  0  0  0  0  0  0  # atno 17395 bound_to 11000

$$$$
