AV-unprocessed.smi:1502|AV-procd|sdf|6067|dock6
  -GOLD-   22720 6183D 1   1.00000     0.00000
 Structure written by MMmdl.
 40 41  0  0  0  0  0  0  0  0  1 V2000
  148.1565  141.0386  158.2968 O   0  0  0  0  0  0  0  0  0  0  0  0
  148.2428  141.9396  157.4633 C   0  0  0  0  0  0  0  0  0  0  0  0
  147.0578  142.1962  156.5150 C   0  0  0  0  0  0  0  0  0  0  0  0
  146.9407  141.2471  155.3949 N   0  0  0  0  0  0  0  0  0  0  0  0
  147.6072  141.6440  154.2487 N   0  0  0  0  0  0  0  0  0  0  0  0
  147.5625  140.8990  153.1984 C   0  0  0  0  0  0  0  0  0  0  0  0
  146.8362  139.6488  153.1714 C   0  0  0  0  0  0  0  0  0  0  0  0
  146.8113  138.6917  151.7325 Cl  0  0  0  0  0  0  0  0  0  0  0  0
  146.1890  139.2668  154.3010 C   0  0  0  0  0  0  0  0  0  0  0  0
  145.2974  137.7846  154.3447 Cl  0  0  0  0  0  0  0  0  0  0  0  0
  146.2171  140.0913  155.5170 C   0  0  0  0  0  0  0  0  0  0  0  0
  145.6357  139.7844  156.5581 O   0  0  0  0  0  0  0  0  0  0  0  0
  149.3330  142.7167  157.3396 N   0  0  0  0  0  0  0  0  0  0  0  0
  150.5432  142.6400  158.1543 C   0  0  0  0  0  0  0  0  0  0  0  0
  151.5471  143.7194  157.6871 C   0  0  0  0  0  0  0  0  0  0  0  0
  152.0093  144.6931  158.7880 C   0  0  0  0  0  0  0  0  0  0  0  0
  152.3862  144.0939  160.1593 C   0  0  0  0  0  0  0  0  0  0  0  0
  153.3986  142.9352  160.1459 C   0  0  0  0  0  0  0  0  0  0  0  0
  152.7835  141.5198  160.0811 C   0  0  0  0  0  0  0  0  0  0  0  0
  152.5270  140.9811  158.6626 C   0  0  0  0  0  0  0  0  0  0  0  0
  151.1117  141.2042  158.0906 C   0  0  0  0  0  0  0  0  0  0  0  0
  146.1445  142.1763  157.1123 H   0  0  0  0  0  0  0  0  0  0  0  0
  147.1291  143.2178  156.1374 H   0  0  0  0  0  0  0  0  0  0  0  0
  148.0701  141.1717  152.2732 H   0  0  0  0  0  0  0  0  0  0  0  0
  149.3168  143.4301  156.6255 H   0  0  0  0  0  0  0  0  0  0  0  0
  150.2457  142.8456  159.1817 H   0  0  0  0  0  0  0  0  0  0  0  0
  152.4196  143.2599  157.2252 H   0  0  0  0  0  0  0  0  0  0  0  0
  151.1132  144.3173  156.8838 H   0  0  0  0  0  0  0  0  0  0  0  0
  152.8573  145.2621  158.4056 H   0  0  0  0  0  0  0  0  0  0  0  0
  151.2188  145.4262  158.9525 H   0  0  0  0  0  0  0  0  0  0  0  0
  152.8191  144.9062  160.7445 H   0  0  0  0  0  0  0  0  0  0  0  0
  151.4959  143.8052  160.7174 H   0  0  0  0  0  0  0  0  0  0  0  0
  154.1481  143.0798  159.3673 H   0  0  0  0  0  0  0  0  0  0  0  0
  153.9505  142.9920  161.0851 H   0  0  0  0  0  0  0  0  0  0  0  0
  153.5033  140.8457  160.5469 H   0  0  0  0  0  0  0  0  0  0  0  0
  151.8865  141.4463  160.6970 H   0  0  0  0  0  0  0  0  0  0  0  0
  153.2866  141.3577  157.9781 H   0  0  0  0  0  0  0  0  0  0  0  0
  152.6897  139.9028  158.6803 H   0  0  0  0  0  0  0  0  0  0  0  0
  150.4212  140.5367  158.6079 H   0  0  0  0  0  0  0  0  0  0  0  0
  151.1195  140.8680  157.0528 H   0  0  0  0  0  0  0  0  0  0  0  0
  1  2  2  0  0  0  0
  2  3  1  0  0  0  0
  2 13  1  0  0  0  0
  3  4  1  0  0  0  0
  3 22  1  0  0  0  0
  3 23  1  0  0  0  0
  4 11  1  0  0  0  0
  4  5  1  0  0  0  0
  5  6  2  0  0  0  0
  6  7  1  0  0  0  0
  6 24  1  0  0  0  0
  7  8  1  0  0  0  0
  7  9  2  0  0  0  0
  9 10  1  0  0  0  0
  9 11  1  0  0  0  0
 11 12  2  0  0  0  0
 13 14  1  0  0  0  0
 13 25  1  0  0  0  0
 14 21  1  0  0  0  0
 14 15  1  0  0  0  0
 14 26  1  0  0  0  0
 15 16  1  0  0  0  0
 15 27  1  0  0  0  0
 15 28  1  0  0  0  0
 16 17  1  0  0  0  0
 16 29  1  0  0  0  0
 16 30  1  0  0  0  0
 17 18  1  0  0  0  0
 17 31  1  0  0  0  0
 17 32  1  0  0  0  0
 18 19  1  0  0  0  0
 18 33  1  0  0  0  0
 18 34  1  0  0  0  0
 19 20  1  0  0  0  0
 19 35  1  0  0  0  0
 19 36  1  0  0  0  0
 20 21  1  0  0  0  0
 20 37  1  0  0  0  0
 20 38  1  0  0  0  0
 21 39  1  0  0  0  0
 21 40  1  0  0  0  0
M  END
> <s_m_source_file>
AV-unprocessed.smi

> <i_m_source_file_index>
1502

> <i_lp_mmshare_version>
43012

> <i_f3d_flags>
0

> <s_epik_input>
Tz1jMWMoQ2wpYyhDbClbY0hdbm4xW0NIMl1DKD1PKVtOSF1bQ0hdMltDSDJdW0NIMl1bQ0gyXVtDSDJdW0NIMl1bQ0gyXVtDSDJdMg==

> <s_epik_cmdline>
J2VwaWtfcHl0aG9uJywgJy1waCcsICc3LjAnLCAnLXRuJywgJzgnLCAnLW1hJywgJzIwMCcsICctbWV0YWxfYmluZGluZycsICctaW1hZScsICc8aW5maWxlLm1hZT4nLCAnLW9tYWUnLCAnPG91dGZpbGUubWFlPic=

> <r_lp_tautomer_probability>
1

> <r_epik_Ionization_Penalty>
2.0245e-08

> <r_epik_Ionization_Penalty_Charging>
3.01779e-11

> <r_epik_Ionization_Penalty_Neutral>
2.02148e-08

> <r_epik_State_Penalty>
-0

> <r_epik_Charging_Adjusted_Penalty>
3.01779e-11

> <i_epik_Tot_Q>
0

> <i_epik_Tot_abs_Q>
0

> <r_epik_Metal_State_Penalty>
-0

> <b_epik_Metal_Only>
0

> <s_lp_Force_Field>
OPLS_2005

> <r_lp_Energy>
35.729

> <b_lp_Chiralities_Consistent>
1

> <s_lp_Variant>
AV-unprocessed.smi:1502-1

> <Gold.Version>
5.8.1

> <Gold.Id.Protein>
6NUR|6NUR_protein|mol2

> <Gold.PLP.Fitness>
43.5178

> <Gold.PLP.PLP>
-38.7900

> <Gold.PLP.part.hbond>
-2.0000

> <Gold.PLP.part.metal>
0.0000

> <Gold.PLP.part.buried>
-2.0158

> <Gold.PLP.part.nonpolar>
-34.8962

> <Gold.PLP.part.repulsive>
0.2176

> <Gold.PLP.ligand.clash>
0.0000

> <Gold.PLP.ligand.torsion>
0.6268

> <Gold.PLP.Chemscore.Hbond>
1.0000

> <Gold.PLP.Chemscore.CHOScore>
0.9898

> <Gold.PLP.Chemscore.Metal>
0.0000

> <Gold.Chemscore.Hbonds>
donor molecule, donor type, donor heavy atom, donor atom, acceptor molecule, acceptor atom, score
      L1  H    13    25       P1  8028  1.00
      L1  C     6    24       P1  7957  1.00

> <Gold.PLP.Chemscore.Internal.Correction>
0.0119

> <Gold.Rescore>
     Score         DG    S(hbond)    S(metal)    S(lipo)     H(rot)  DE(clash)    DE(int)     intcor
     16.30     -18.17       1.00        0.00     112.59       1.49       0.20       1.67       ----

> <Gold.Chemscore.Fitness>
16.2984

> <Gold.Chemscore.DG>
-18.1716

> <Gold.Chemscore.ZeroCoef>
-5.4800

> <Gold.Chemscore.Hbond>
0.9954

> <Gold.Chemscore.Metal>
0.0000

> <Gold.Chemscore.Lipo>
112.5876

> <Gold.Chemscore.Internal_Hbond>
0.0000

> <Gold.Chemscore.DEClash>
0.2025

> <Gold.Chemscore.DEInternal>
1.6707

> <Gold.Chemscore.Rot>
1.4866

> <Gold.Chemscore.Internal.Correction>
   9.000000E+99

> <Gold.Chemscore.Hbonds>
donor molecule, donor type, donor heavy atom, donor atom, acceptor molecule, acceptor atom, score
      L1  H    13    25       P1  8028  0.99

> <Gold.Chemscore.Hbond.Weighted>
-3.3245

> <Gold.Chemscore.Metal.Weighted>
-0.0000

> <Gold.Chemscore.Lipo.Weighted>
-13.1727

> <Gold.Chemscore.Internal_Hbond.Weighted>
0.0000

> <Gold.Chemscore.DEClash.Weighted>
0.2025

> <Gold.Chemscore.DEInternal.Weighted>
1.6707

> <Gold.Chemscore.Rot.Weighted>
3.8057

> <Gold.Chemscore.Internal.Correction.Weighted>
   9.000000E+99

> <Gold.Protein.RotatedTorsions>
[ 6907 6896 6895 6894 ] final -140.19 input  -60.11 | X-H torsion
[ 7974 7965 7964 7962 ] final  -27.57 input  175.53 | X-H torsion
[ 8008 7997 7996 7995 ] final  103.40 input   59.86 | X-H torsion
[ 10167 10162 10161 10158 ] final  -92.44 input  -65.29 | X-H torsion
[ 10718 10713 10712 10709 ] final  -46.54 input   66.30 | X-H torsion
[ 10763 10752 10751 10750 ] final  144.74 input  -60.55 | X-H torsion
[ 11005 11000 10999 10996 ] final  171.61 input  -57.11 | X-H torsion

> <Gold.Protein.ActiveResidues>
 VAL166  LYS551  ARG553  GLY616  TRP617  ASP618  TYR619  PRO620  LYS621  CYS622 
 ASP623  PHE694  ASN695  SER759  ASP760  ASP761  ALA762  ILE779  LEU786  VAL792 
 PHE793  MET794  SER795  GLU796  ALA797  LYS798  CYS799  TRP800  GLU811  SER814 

> <Gold.Protein.RotatedAtoms>
  151.0575  133.5572  159.2636 H   0  0  0  0  0  0  0  0  0  0  0  0  # atno 6907 bound_to 6896
  151.2560  135.0637  159.9090 H   0  0  0  0  0  0  0  0  0  0  0  0  # atno 6908 bound_to 6896
  152.5392  134.0328  159.8086 H   0  0  0  0  0  0  0  0  0  0  0  0  # atno 6909 bound_to 6896
  146.1349  140.5169  142.8677 H   0  0  0  0  0  0  0  0  0  0  0  0  # atno 7974 bound_to 7965
  156.1480  140.3165  155.8602 H   0  0  0  0  0  0  0  0  0  0  0  0  # atno 8008 bound_to 7997
  155.4026  140.0500  157.3053 H   0  0  0  0  0  0  0  0  0  0  0  0  # atno 8009 bound_to 7997
  154.5034  140.2137  155.9313 H   0  0  0  0  0  0  0  0  0  0  0  0  # atno 8010 bound_to 7997
  140.3348  143.2975  151.9902 H   0  0  0  0  0  0  0  0  0  0  0  0  # atno 10167 bound_to 10162
  156.2173  130.4164  149.9037 H   0  0  0  0  0  0  0  0  0  0  0  0  # atno 10718 bound_to 10713
  153.9938  135.2929  155.3409 H   0  0  0  0  0  0  0  0  0  0  0  0  # atno 10763 bound_to 10752
  154.7199  135.5113  153.8799 H   0  0  0  0  0  0  0  0  0  0  0  0  # atno 10764 bound_to 10752
  153.0797  135.6675  154.0187 H   0  0  0  0  0  0  0  0  0  0  0  0  # atno 10765 bound_to 10752
  140.3208  134.7439  157.4063 H   0  0  0  0  0  0  0  0  0  0  0  0  # atno 11005 bound_to 11000
  144.7729  140.5676  143.6658 LP  0  0  0  0  0  0  0  0  0  0  0  0  # atno 17320 bound_to 7965
  145.5179  139.1477  143.3568 LP  0  0  0  0  0  0  0  0  0  0  0  0  # atno 17321 bound_to 7965
  139.4850  144.6206  151.7263 LP  0  0  0  0  0  0  0  0  0  0  0  0  # atno 17342 bound_to 10162
  140.5364  144.0649  150.6072 LP  0  0  0  0  0  0  0  0  0  0  0  0  # atno 17343 bound_to 10162
  156.6696  130.8815  151.3560 LP  0  0  0  0  0  0  0  0  0  0  0  0  # atno 17370 bound_to 10713
  157.7070  130.9396  150.0962 LP  0  0  0  0  0  0  0  0  0  0  0  0  # atno 17371 bound_to 10713
  140.0943  134.5558  155.8413 LP  0  0  0  0  0  0  0  0  0  0  0  0  # atno 17394 bound_to 11000
  141.2087  133.6676  156.6388 LP  0  0  0  0  0  0  0  0  0  0  0  0  # atno 17395 bound_to 11000

$$$$
