AV-unprocessed.smi:1200|AV-procd|sdf|5025|dock4
  -GOLD-   22720 4 43D 1   1.00000     0.00000
 Structure written by MMmdl.
 42 43  0  0  0  0  0  0  0  0  3 V2000
  151.4446  139.0560  157.9613 C   0  0  0  0  0  0  0  0  0  0  0  0
  151.0796  138.3598  156.7333 N   0  5  0  0  0  0  0  0  0  0  0  0
  151.0625  138.9547  155.5105 C   0  0  0  0  0  0  0  0  0  0  0  0
  151.3387  140.1105  155.1722 O   0  0  0  0  0  0  0  0  0  0  0  0
  150.6477  137.9623  154.4182 C   0  0  0  0  0  0  0  0  0  0  0  0
  149.2023  138.1124  154.1179 N   0  3  2  0  0  0  0  0  0  0  0  0
  148.7732  139.5336  154.0996 C   0  0  0  0  0  0  0  0  0  0  0  0
  147.3132  139.6656  153.6345 C   0  0  0  0  0  0  0  0  0  0  0  0
  146.3699  138.8309  154.5158 C   0  0  1  0  0  0  0  0  0  0  0  0
  145.0088  138.9015  153.9918 N   0  0  0  0  0  0  0  0  0  0  0  0
  144.0132  138.0619  154.3109 C   0  0  0  0  0  0  0  0  0  0  0  0
  144.1407  137.1360  155.1109 O   0  0  0  0  0  0  0  0  0  0  0  0
  142.8846  138.3788  153.6525 N   0  0  0  0  0  0  0  0  0  0  0  0
  141.6150  137.7378  153.6801 C   0  0  0  0  0  0  0  0  0  0  0  0
  140.4138  138.2979  153.1790 C   0  0  0  0  0  0  0  0  0  0  0  0
  139.2217  137.5553  153.2823 C   0  0  0  0  0  0  0  0  0  0  0  0
  139.2700  136.2842  153.8862 C   0  0  0  0  0  0  0  0  0  0  0  0
  140.4039  135.7413  154.3763 N   0  0  0  0  0  0  0  0  0  0  0  0
  141.5429  136.4589  154.2731 C   0  0  0  0  0  0  0  0  0  0  0  0
  146.8604  137.3722  154.5590 C   0  0  0  0  0  0  0  0  0  0  0  0
  148.3309  137.2900  154.9998 C   0  0  0  0  0  0  0  0  0  0  0  0
  151.3775  138.4042  158.8320 H   0  0  0  0  0  0  0  0  0  0  0  0
  150.7982  139.9104  158.1641 H   0  0  0  0  0  0  0  0  0  0  0  0
  152.4675  139.4326  157.9363 H   0  0  0  0  0  0  0  0  0  0  0  0
  151.2408  138.0583  153.5059 H   0  0  0  0  0  0  0  0  0  0  0  0
  150.8465  136.9636  154.8096 H   0  0  0  0  0  0  0  0  0  0  0  0
  148.8946  139.9647  155.0948 H   0  0  0  0  0  0  0  0  0  0  0  0
  149.4144  140.1036  153.4260 H   0  0  0  0  0  0  0  0  0  0  0  0
  147.0142  140.7144  153.6545 H   0  0  0  0  0  0  0  0  0  0  0  0
  147.2358  139.3414  152.5953 H   0  0  0  0  0  0  0  0  0  0  0  0
  146.3907  139.2447  155.5260 H   0  0  0  0  0  0  0  0  0  0  0  0
  144.8137  139.6377  153.3292 H   0  0  0  0  0  0  0  0  0  0  0  0
  142.9322  139.2025  153.0708 H   0  0  0  0  0  0  0  0  0  0  0  0
  140.3723  139.2768  152.7292 H   0  0  0  0  0  0  0  0  0  0  0  0
  138.2897  137.9536  152.9096 H   0  0  0  0  0  0  0  0  0  0  0  0
  138.3734  135.6900  153.9818 H   0  0  0  0  0  0  0  0  0  0  0  0
  142.4293  135.9931  154.6788 H   0  0  0  0  0  0  0  0  0  0  0  0
  146.2420  136.7862  155.2402 H   0  0  0  0  0  0  0  0  0  0  0  0
  146.7530  136.9147  153.5741 H   0  0  0  0  0  0  0  0  0  0  0  0
  148.6471  136.2468  154.9789 H   0  0  0  0  0  0  0  0  0  0  0  0
  148.4327  137.6282  156.0321 H   0  0  0  0  0  0  0  0  0  0  0  0
  149.0820  137.7653  153.1769 H   0  0  0  0  0  0  0  0  0  0  0  0
  1  2  1  0  0  0  0
  1 22  1  0  0  0  0
  1 23  1  0  0  0  0
  1 24  1  0  0  0  0
  2  3  1  0  0  0  0
  3  4  2  0  0  0  0
  3  5  1  0  0  0  0
  5  6  1  0  0  0  0
  5 25  1  0  0  0  0
  5 26  1  0  0  0  0
  6 21  1  0  0  0  0
  6  7  1  0  0  0  0
  6 42  1  0  0  0  0
  7  8  1  0  0  0  0
  7 27  1  0  0  0  0
  7 28  1  0  0  0  0
  8  9  1  0  0  0  0
  8 29  1  0  0  0  0
  8 30  1  0  0  0  0
  9 10  1  0  0  0  0
  9 20  1  0  0  0  0
  9 31  1  0  0  0  0
 10 11  1  0  0  0  0
 10 32  1  0  0  0  0
 11 12  2  0  0  0  0
 11 13  1  0  0  0  0
 13 14  1  0  0  0  0
 13 33  1  0  0  0  0
 14 19  1  0  0  0  0
 14 15  2  0  0  0  0
 15 16  1  0  0  0  0
 15 34  1  0  0  0  0
 16 17  2  0  0  0  0
 16 35  1  0  0  0  0
 17 18  1  0  0  0  0
 17 36  1  0  0  0  0
 18 19  2  0  0  0  0
 19 37  1  0  0  0  0
 20 21  1  0  0  0  0
 20 38  1  0  0  0  0
 20 39  1  0  0  0  0
 21 40  1  0  0  0  0
 21 41  1  0  0  0  0
M  CHG  1   2  -1
M  CHG  1   6   1
M  END
> <s_m_source_file>
AV-unprocessed.smi

> <i_m_source_file_index>
1200

> <i_lp_mmshare_version>
43012

> <i_f3d_flags>
0

> <s_epik_input>
W0NIM11bTkhdQyg9TylbQ0gyXU4xW0NIMl1bQ0gyXVtDSF0oW0NIMl1bQ0gyXTEpW05IXUMoPU8pW05IXWMyW2NIXVtjSF1bY0hdbltjSF0y

> <s_epik_cmdline>
J2VwaWtfcHl0aG9uJywgJy1waCcsICc3LjAnLCAnLXRuJywgJzgnLCAnLW1hJywgJzIwMCcsICctbWV0YWxfYmluZGluZycsICctaW1hZScsICc8aW5maWxlLm1hZT4nLCAnLW9tYWUnLCAnPG91dGZpbGUubWFlPic=

> <r_epik_Ionization_Penalty>
6.14345

> <r_epik_Ionization_Penalty_Charging>
6.13946

> <r_epik_Ionization_Penalty_Neutral>
0.00398477

> <r_epik_State_Penalty>
6.94483

> <r_epik_Charging_Adjusted_Penalty>
13.0843

> <i_epik_Tot_Q>
0

> <i_epik_Tot_abs_Q>
2

> <r_epik_Metal_State_Penalty>
2.87819

> <b_epik_Metal_Only>
1

> <s_lp_Force_Field>
OPLS_2005

> <r_lp_Energy>
13.1486

> <b_lp_Chiralities_Consistent>
1

> <s_lp_Variant>
AV-unprocessed.smi:1200-4

> <Gold.Version>
5.8.1

> <Gold.Id.Protein>
6NUR|6NUR_protein|mol2

> <Gold.PLP.Fitness>
45.1450

> <Gold.PLP.PLP>
-29.0023

> <Gold.PLP.part.hbond>
-4.8295

> <Gold.PLP.part.metal>
0.0000

> <Gold.PLP.part.buried>
-3.5183

> <Gold.PLP.part.nonpolar>
-21.8577

> <Gold.PLP.part.repulsive>
0.1920

> <Gold.PLP.ligand.clash>
0.0000

> <Gold.PLP.ligand.torsion>
0.8504

> <Gold.PLP.Chemscore.Hbond>
5.9353

> <Gold.PLP.Chemscore.CHOScore>
0.0000

> <Gold.PLP.Chemscore.Metal>
0.0000

> <Gold.Chemscore.Hbonds>
donor molecule, donor type, donor heavy atom, donor atom, acceptor molecule, acceptor atom, score
      L1  H     6    42       P1  7948  2.00
      L1  H    10    32       P1 10175  0.94
      L1  H    13    33       P1 10175  1.00
      P1  H  7989  7998       L1     4  1.00
      P1  H 11000 11005       L1    18  1.00

> <Gold.PLP.Chemscore.Internal.Correction>
0.0379

> <Gold.Rescore>
     Score         DG    S(hbond)    S(metal)    S(lipo)     H(rot)  DE(clash)    DE(int)     intcor
     20.93     -24.57       4.80        0.00      61.83       1.63       0.08       3.56       ----

> <Gold.Chemscore.Fitness>
20.9312

> <Gold.Chemscore.DG>
-24.5730

> <Gold.Chemscore.ZeroCoef>
-5.4800

> <Gold.Chemscore.Hbond>
4.8015

> <Gold.Chemscore.Metal>
0.0000

> <Gold.Chemscore.Lipo>
61.8348

> <Gold.Chemscore.Internal_Hbond>
0.0000

> <Gold.Chemscore.DEClash>
0.0770

> <Gold.Chemscore.DEInternal>
3.5648

> <Gold.Chemscore.Rot>
1.6323

> <Gold.Chemscore.Internal.Correction>
   9.000000E+99

> <Gold.Chemscore.Hbonds>
donor molecule, donor type, donor heavy atom, donor atom, acceptor molecule, acceptor atom, score
      L1  H     6    42       P1  7948  0.91
      L1  H    10    32       P1 10175  0.91
      L1  H    13    33       P1 10175  0.92
      P1  H  7989  7998       L1     4  0.98
      P1  H 11000 11005       L1    18  0.87

> <Gold.Chemscore.Hbond.Weighted>
-16.0369

> <Gold.Chemscore.Metal.Weighted>
-0.0000

> <Gold.Chemscore.Lipo.Weighted>
-7.2347

> <Gold.Chemscore.Internal_Hbond.Weighted>
0.0000

> <Gold.Chemscore.DEClash.Weighted>
0.0770

> <Gold.Chemscore.DEInternal.Weighted>
3.5648

> <Gold.Chemscore.Rot.Weighted>
4.1786

> <Gold.Chemscore.Internal.Correction.Weighted>
   9.000000E+99

> <Gold.Protein.RotatedTorsions>
[ 6907 6896 6895 6894 ] final  -88.24 input  -60.11 | X-H torsion
[ 7974 7965 7964 7962 ] final  123.49 input  175.53 | X-H torsion
[ 8008 7997 7996 7995 ] final   49.40 input   59.86 | X-H torsion
[ 10167 10162 10161 10158 ] final -153.67 input  -65.29 | X-H torsion
[ 10718 10713 10712 10709 ] final   57.63 input   66.30 | X-H torsion
[ 10763 10752 10751 10750 ] final   96.35 input  -60.55 | X-H torsion
[ 11005 11000 10999 10996 ] final   45.10 input  -57.11 | X-H torsion

> <Gold.Protein.ActiveResidues>
 VAL166  LYS551  ARG553  GLY616  TRP617  ASP618  TYR619  PRO620  LYS621  CYS622 
 ASP623  PHE694  ASN695  SER759  ASP760  ASP761  ALA762  ILE779  LEU786  VAL792 
 PHE793  MET794  SER795  GLU796  ALA797  LYS798  CYS799  TRP800  GLU811  SER814 

> <Gold.Protein.RotatedAtoms>
  150.6868  134.2773  159.4612 H   0  0  0  0  0  0  0  0  0  0  0  0  # atno 6907 bound_to 6896
  152.0690  134.9543  160.0584 H   0  0  0  0  0  0  0  0  0  0  0  0  # atno 6908 bound_to 6896
  152.0941  133.4180  159.4594 H   0  0  0  0  0  0  0  0  0  0  0  0  # atno 6909 bound_to 6896
  145.0953  139.3557  143.4840 H   0  0  0  0  0  0  0  0  0  0  0  0  # atno 7974 bound_to 7965
  155.4015  140.3438  155.4257 H   0  0  0  0  0  0  0  0  0  0  0  0  # atno 8008 bound_to 7997
  156.1501  140.1568  156.8816 H   0  0  0  0  0  0  0  0  0  0  0  0  # atno 8009 bound_to 7997
  154.5044  140.0806  156.7846 H   0  0  0  0  0  0  0  0  0  0  0  0  # atno 8010 bound_to 7997
  139.7077  143.9159  152.2455 H   0  0  0  0  0  0  0  0  0  0  0  0  # atno 10167 bound_to 10162
  157.5530  130.8779  149.8992 H   0  0  0  0  0  0  0  0  0  0  0  0  # atno 10718 bound_to 10713
  153.2640  135.4221  155.0922 H   0  0  0  0  0  0  0  0  0  0  0  0  # atno 10763 bound_to 10752
  154.8431  135.3456  154.6338 H   0  0  0  0  0  0  0  0  0  0  0  0  # atno 10764 bound_to 10752
  153.6758  135.7041  153.5190 H   0  0  0  0  0  0  0  0  0  0  0  0  # atno 10765 bound_to 10752
  140.1490  134.4485  155.8395 H   0  0  0  0  0  0  0  0  0  0  0  0  # atno 11005 bound_to 11000
  146.3531  140.0806  142.8618 LP  0  0  0  0  0  0  0  0  0  0  0  0  # atno 17320 bound_to 7965
  145.1018  140.9350  143.4708 LP  0  0  0  0  0  0  0  0  0  0  0  0  # atno 17321 bound_to 7965
  139.9019  144.6906  150.8656 LP  0  0  0  0  0  0  0  0  0  0  0  0  # atno 17342 bound_to 10162
  140.7726  143.3507  151.2020 LP  0  0  0  0  0  0  0  0  0  0  0  0  # atno 17343 bound_to 10162
  156.0593  130.3702  150.1018 LP  0  0  0  0  0  0  0  0  0  0  0  0  # atno 17370 bound_to 10713
  156.9189  130.9676  151.3551 LP  0  0  0  0  0  0  0  0  0  0  0  0  # atno 17371 bound_to 10713
  141.2196  133.6864  156.7387 LP  0  0  0  0  0  0  0  0  0  0  0  0  # atno 17394 bound_to 11000
  140.2627  134.8454  157.3774 LP  0  0  0  0  0  0  0  0  0  0  0  0  # atno 17395 bound_to 11000

$$$$
