AV-unprocessed.smi:2948|AV-procd|sdf|11283|dock7
  -GOLD-   2272016173D 1   1.00000     0.00000
 Structure written by MMmdl.
 32 33  0  0  0  0  0  0  0  0  1 V2000
  147.0744  142.0499  153.9674 C   0  0  0  0  0  0  0  0  0  0  0  0
  148.2940  141.4679  154.6853 C   0  0  0  0  0  0  0  0  0  0  0  0
  147.9905  141.3407  156.0629 O   0  0  0  0  0  0  0  0  0  0  0  0
  149.0393  140.7486  156.8112 C   0  0  0  0  0  0  0  0  0  0  0  0
  150.2541  141.6879  156.8387 C   0  0  0  0  0  0  0  0  0  0  0  0
  151.3937  141.0887  157.5201 N   0  0  0  0  0  0  0  0  0  0  0  0
  152.0748  139.9538  157.2099 C   0  0  0  0  0  0  0  0  0  0  0  0
  151.7275  139.0871  156.0324 C   0  0  0  0  0  0  0  0  0  0  0  0
  152.0995  139.6604  154.7964 O   0  0  0  0  0  0  0  0  0  0  0  0
  153.0798  139.6437  158.0317 N   0  0  0  0  0  0  0  0  0  0  0  0
  153.0613  140.6776  158.9455 C   0  0  0  0  0  0  0  0  0  0  0  0
  153.8871  140.9291  160.0646 C   0  0  0  0  0  0  0  0  0  0  0  0
  153.6763  142.0710  160.8648 C   0  0  0  0  0  0  0  0  0  0  0  0
  152.6390  142.9754  160.5583 C   0  0  0  0  0  0  0  0  0  0  0  0
  151.8048  142.7430  159.4479 C   0  0  0  0  0  0  0  0  0  0  0  0
  152.0190  141.6009  158.6528 C   0  0  0  0  0  0  0  0  0  0  0  0
  147.2665  142.1617  152.9001 H   0  0  0  0  0  0  0  0  0  0  0  0
  146.8168  143.0313  154.3664 H   0  0  0  0  0  0  0  0  0  0  0  0
  146.2056  141.4018  154.0857 H   0  0  0  0  0  0  0  0  0  0  0  0
  148.5452  140.4944  154.2618 H   0  0  0  0  0  0  0  0  0  0  0  0
  149.1559  142.1225  154.5489 H   0  0  0  0  0  0  0  0  0  0  0  0
  148.7024  140.5503  157.8301 H   0  0  0  0  0  0  0  0  0  0  0  0
  149.3212  139.7921  156.3692 H   0  0  0  0  0  0  0  0  0  0  0  0
  150.5510  141.9342  155.8188 H   0  0  0  0  0  0  0  0  0  0  0  0
  150.0019  142.6375  157.3093 H   0  0  0  0  0  0  0  0  0  0  0  0
  152.2318  138.1270  156.1444 H   0  0  0  0  0  0  0  0  0  0  0  0
  150.6596  138.8848  155.9881 H   0  0  0  0  0  0  0  0  0  0  0  0
  152.8503  139.1936  154.4633 H   0  0  0  0  0  0  0  0  0  0  0  0
  154.6850  140.2428  160.3067 H   0  0  0  0  0  0  0  0  0  0  0  0
  154.3142  142.2539  161.7170 H   0  0  0  0  0  0  0  0  0  0  0  0
  152.4849  143.8481  161.1758 H   0  0  0  0  0  0  0  0  0  0  0  0
  151.0107  143.4349  159.2098 H   0  0  0  0  0  0  0  0  0  0  0  0
  1  2  1  0  0  0  0
  1 17  1  0  0  0  0
  1 18  1  0  0  0  0
  1 19  1  0  0  0  0
  2  3  1  0  0  0  0
  2 20  1  0  0  0  0
  2 21  1  0  0  0  0
  3  4  1  0  0  0  0
  4  5  1  0  0  0  0
  4 22  1  0  0  0  0
  4 23  1  0  0  0  0
  5  6  1  0  0  0  0
  5 24  1  0  0  0  0
  5 25  1  0  0  0  0
  6 16  1  0  0  0  0
  6  7  1  0  0  0  0
  7  8  1  0  0  0  0
  7 10  2  0  0  0  0
  8  9  1  0  0  0  0
  8 26  1  0  0  0  0
  8 27  1  0  0  0  0
  9 28  1  0  0  0  0
 10 11  1  0  0  0  0
 11 16  2  0  0  0  0
 11 12  1  0  0  0  0
 12 13  2  0  0  0  0
 12 29  1  0  0  0  0
 13 14  1  0  0  0  0
 13 30  1  0  0  0  0
 14 15  2  0  0  0  0
 14 31  1  0  0  0  0
 15 16  1  0  0  0  0
 15 32  1  0  0  0  0
M  END
> <s_m_source_file>
AV-unprocessed.smi

> <i_m_source_file_index>
2948

> <i_lp_mmshare_version>
43012

> <i_f3d_flags>
0

> <s_epik_input>
W0NIM11bQ0gyXU9bQ0gyXVtDSDJdbihjKG4xKVtDSDJdW09IXSljKGMxMilbY0hdW2NIXVtjSF1bY0hdMg==

> <s_epik_cmdline>
J2VwaWtfcHl0aG9uJywgJy1waCcsICc3LjAnLCAnLXRuJywgJzgnLCAnLW1hJywgJzIwMCcsICctbWV0YWxfYmluZGluZycsICctaW1hZScsICc8aW5maWxlLm1hZT4nLCAnLW9tYWUnLCAnPG91dGZpbGUubWFlPic=

> <r_epik_Ionization_Penalty>
0.0599051

> <r_epik_Ionization_Penalty_Charging>
0

> <r_epik_Ionization_Penalty_Neutral>
0.0599051

> <r_epik_State_Penalty>
0.0518308

> <r_epik_Charging_Adjusted_Penalty>
0.0518308

> <i_epik_Tot_Q>
0

> <i_epik_Tot_abs_Q>
0

> <r_epik_Metal_State_Penalty>
5.4163e-05

> <b_epik_Metal_Only>
0

> <s_lp_Force_Field>
OPLS_2005

> <r_lp_Energy>
7.3767

> <b_lp_Chiralities_Consistent>
1

> <s_lp_Variant>
AV-unprocessed.smi:2948-1

> <Gold.Version>
5.8.1

> <Gold.Id.Protein>
6NUR|6NUR_protein|mol2

> <Gold.PLP.Fitness>
40.4131

> <Gold.PLP.PLP>
-34.9856

> <Gold.PLP.part.hbond>
-2.0000

> <Gold.PLP.part.metal>
0.0000

> <Gold.PLP.part.buried>
-4.4871

> <Gold.PLP.part.nonpolar>
-28.9214

> <Gold.PLP.part.repulsive>
0.1098

> <Gold.PLP.ligand.clash>
0.0000

> <Gold.PLP.ligand.torsion>
0.1686

> <Gold.PLP.Chemscore.Hbond>
1.9120

> <Gold.PLP.Chemscore.CHOScore>
0.0000

> <Gold.PLP.Chemscore.Metal>
0.0000

> <Gold.Chemscore.Hbonds>
donor molecule, donor type, donor heavy atom, donor atom, acceptor molecule, acceptor atom, score
      P1  H  7989  7998       L1     9  0.85
      P1  H  7997  8009       L1    10  0.95

> <Gold.PLP.Chemscore.Internal.Correction>
0.0287

> <Gold.Rescore>
     Score         DG    S(hbond)    S(metal)    S(lipo)     H(rot)  DE(clash)    DE(int)     intcor
     14.52     -14.90       1.27        0.00      92.81       2.22       0.05       0.33       ----

> <Gold.Chemscore.Fitness>
14.5198

> <Gold.Chemscore.DG>
-14.8951

> <Gold.Chemscore.ZeroCoef>
-5.4800

> <Gold.Chemscore.Hbond>
1.2708

> <Gold.Chemscore.Metal>
0.0000

> <Gold.Chemscore.Lipo>
92.8138

> <Gold.Chemscore.Internal_Hbond>
0.0000

> <Gold.Chemscore.DEClash>
0.0465

> <Gold.Chemscore.DEInternal>
0.3288

> <Gold.Chemscore.Rot>
2.2221

> <Gold.Chemscore.Internal.Correction>
   9.000000E+99

> <Gold.Chemscore.Hbonds>
donor molecule, donor type, donor heavy atom, donor atom, acceptor molecule, acceptor atom, score
      P1  H  7989  7998       L1     9  0.42
      P1  H  7997  8009       L1    10  0.10

> <Gold.Chemscore.Hbond.Weighted>
-4.2444

> <Gold.Chemscore.Metal.Weighted>
-0.0000

> <Gold.Chemscore.Lipo.Weighted>
-10.8592

> <Gold.Chemscore.Internal_Hbond.Weighted>
0.0000

> <Gold.Chemscore.DEClash.Weighted>
0.0465

> <Gold.Chemscore.DEInternal.Weighted>
0.3288

> <Gold.Chemscore.Rot.Weighted>
5.6886

> <Gold.Chemscore.Internal.Correction.Weighted>
   9.000000E+99

> <Gold.Protein.RotatedTorsions>
[ 6907 6896 6895 6894 ] final -102.98 input  -60.11 | X-H torsion
[ 7974 7965 7964 7962 ] final   28.07 input  175.53 | X-H torsion
[ 8008 7997 7996 7995 ] final  162.74 input   59.86 | X-H torsion
[ 10167 10162 10161 10158 ] final -178.92 input  -65.29 | X-H torsion
[ 10718 10713 10712 10709 ] final  157.90 input   66.30 | X-H torsion
[ 10763 10752 10751 10750 ] final -110.57 input  -60.55 | X-H torsion
[ 11005 11000 10999 10996 ] final -124.02 input  -57.11 | X-H torsion

> <Gold.Protein.ActiveResidues>
 VAL166  LYS551  ARG553  GLY616  TRP617  ASP618  TYR619  PRO620  LYS621  CYS622 
 ASP623  PHE694  ASN695  SER759  ASP760  ASP761  ALA762  ILE779  LEU786  VAL792 
 PHE793  MET794  SER795  GLU796  ALA797  LYS798  CYS799  TRP800  GLU811  SER814 

> <Gold.Protein.RotatedAtoms>
  150.7220  134.0499  159.3794 H   0  0  0  0  0  0  0  0  0  0  0  0  # atno 6907 bound_to 6896
  151.8476  135.0567  160.0464 H   0  0  0  0  0  0  0  0  0  0  0  0  # atno 6908 bound_to 6896
  152.2815  133.5439  159.5537 H   0  0  0  0  0  0  0  0  0  0  0  0  # atno 6909 bound_to 6896
  146.1749  139.7106  142.8941 H   0  0  0  0  0  0  0  0  0  0  0  0  # atno 7974 bound_to 7965
  156.2009  140.1742  156.7901 H   0  0  0  0  0  0  0  0  0  0  0  0  # atno 8008 bound_to 7997
  154.5591  140.0703  156.8821 H   0  0  0  0  0  0  0  0  0  0  0  0  # atno 8009 bound_to 7997
  155.2883  140.3353  155.4256 H   0  0  0  0  0  0  0  0  0  0  0  0  # atno 8010 bound_to 7997
  139.5410  144.2364  152.0894 H   0  0  0  0  0  0  0  0  0  0  0  0  # atno 10167 bound_to 10162
  157.1853  131.0642  151.2109 H   0  0  0  0  0  0  0  0  0  0  0  0  # atno 10718 bound_to 10713
  154.8255  135.4559  154.0906 H   0  0  0  0  0  0  0  0  0  0  0  0  # atno 10763 bound_to 10752
  153.2223  135.6895  153.7992 H   0  0  0  0  0  0  0  0  0  0  0  0  # atno 10764 bound_to 10752
  153.7404  135.3313  155.3279 H   0  0  0  0  0  0  0  0  0  0  0  0  # atno 10765 bound_to 10752
  140.9873  134.0588  157.3695 H   0  0  0  0  0  0  0  0  0  0  0  0  # atno 11005 bound_to 11000
  145.4238  141.0409  143.2949 LP  0  0  0  0  0  0  0  0  0  0  0  0  # atno 17320 bound_to 7965
  144.8221  139.5774  143.6982 LP  0  0  0  0  0  0  0  0  0  0  0  0  # atno 17321 bound_to 7965
  140.1842  144.4815  150.6512 LP  0  0  0  0  0  0  0  0  0  0  0  0  # atno 17342 bound_to 10162
  140.6639  143.2261  151.5789 LP  0  0  0  0  0  0  0  0  0  0  0  0  # atno 17343 bound_to 10162
  157.3913  130.7284  149.6700 LP  0  0  0  0  0  0  0  0  0  0  0  0  # atno 17370 bound_to 10713
  155.9719  130.4145  150.4138 LP  0  0  0  0  0  0  0  0  0  0  0  0  # atno 17371 bound_to 10713
  139.8976  135.0151  156.7110 LP  0  0  0  0  0  0  0  0  0  0  0  0  # atno 17394 bound_to 11000
  140.7094  133.9236  155.8075 LP  0  0  0  0  0  0  0  0  0  0  0  0  # atno 17395 bound_to 11000

$$$$
