AV-unprocessed.smi:3201|AV-procd|sdf|12239|dock9
  -GOLD-   2272018 73D 1   1.00000     0.00000
 Structure written by MMmdl.
 41 43  0  0  0  0  0  0  0  0  2 V2000
  151.8862  139.3095  157.7422 C   0  0  0  0  0  0  0  0  0  0  0  0
  151.1479  139.6925  156.5002 C   0  0  0  0  0  0  0  0  0  0  0  0
  149.8889  140.2031  156.3293 C   0  0  0  0  0  0  0  0  0  0  0  0
  148.8527  140.5368  157.3672 C   0  0  0  0  0  0  0  0  0  0  0  0
  148.6654  142.0531  157.5073 C   0  0  0  0  0  0  0  0  0  0  0  0
  149.9594  142.7581  157.4068 N   0  3  0  0  0  0  0  0  0  0  0  0
  150.6279  143.0161  158.7016 C   0  0  2  0  0  0  0  0  0  0  0  0
  149.9553  144.1823  159.4599 C   0  0  0  0  0  0  0  0  0  0  0  0
  151.1182  145.1655  159.6866 C   0  0  1  0  0  0  0  0  0  0  0  0
  152.1067  144.5707  160.7063 C   0  0  0  0  0  0  0  0  0  0  0  0
  152.7899  143.4491  159.9012 C   0  0  0  0  0  0  0  0  0  0  0  0
  152.0792  143.5273  158.5367 C   0  0  2  0  0  0  0  0  0  0  0  0
  151.8913  145.0336  158.3809 C   0  0  0  0  0  0  0  0  0  0  0  0
  149.7735  140.3497  154.9181 C   0  0  0  0  0  0  0  0  0  0  0  0
  150.8591  139.9647  154.2717 N   0  0  0  0  0  0  0  0  0  0  0  0
  151.7057  139.5630  155.2419 N   0  0  0  0  0  0  0  0  0  0  0  0
  153.0201  139.0688  154.8798 C   0  0  0  0  0  0  0  0  0  0  0  0
  151.2464  139.3819  158.6212 H   0  0  0  0  0  0  0  0  0  0  0  0
  152.7447  139.9629  157.8983 H   0  0  0  0  0  0  0  0  0  0  0  0
  152.2490  138.2834  157.6779 H   0  0  0  0  0  0  0  0  0  0  0  0
  147.8974  140.0753  157.1140 H   0  0  0  0  0  0  0  0  0  0  0  0
  149.1348  140.1183  158.3342 H   0  0  0  0  0  0  0  0  0  0  0  0
  147.9966  142.4187  156.7268 H   0  0  0  0  0  0  0  0  0  0  0  0
  148.1961  142.2801  158.4645 H   0  0  0  0  0  0  0  0  0  0  0  0
  150.5848  142.2251  156.8196 H   0  0  0  0  0  0  0  0  0  0  0  0
  150.5945  142.1057  159.3025 H   0  0  0  0  0  0  0  0  0  0  0  0
  149.1734  144.6537  158.8623 H   0  0  0  0  0  0  0  0  0  0  0  0
  149.5016  143.8585  160.3974 H   0  0  0  0  0  0  0  0  0  0  0  0
  150.7938  146.1777  159.9303 H   0  0  0  0  0  0  0  0  0  0  0  0
  152.8383  145.3162  161.0208 H   0  0  0  0  0  0  0  0  0  0  0  0
  151.6049  144.1967  161.5994 H   0  0  0  0  0  0  0  0  0  0  0  0
  153.8563  143.6518  159.7943 H   0  0  0  0  0  0  0  0  0  0  0  0
  152.6831  142.4714  160.3727 H   0  0  0  0  0  0  0  0  0  0  0  0
  152.6442  143.0506  157.7357 H   0  0  0  0  0  0  0  0  0  0  0  0
  151.3082  145.3119  157.5013 H   0  0  0  0  0  0  0  0  0  0  0  0
  152.8309  145.5893  158.3769 H   0  0  0  0  0  0  0  0  0  0  0  0
  148.9353  140.7216  154.3476 H   0  0  0  0  0  0  0  0  0  0  0  0
  153.7836  139.6108  155.4383 H   0  0  0  0  0  0  0  0  0  0  0  0
  153.2030  139.2048  153.8128 H   0  0  0  0  0  0  0  0  0  0  0  0
  153.0901  138.0073  155.1179 H   0  0  0  0  0  0  0  0  0  0  0  0
  149.7854  143.6494  156.9648 H   0  0  0  0  0  0  0  0  0  0  0  0
  1  2  1  0  0  0  0
  1 18  1  0  0  0  0
  1 19  1  0  0  0  0
  1 20  1  0  0  0  0
  2 16  1  0  0  0  0
  2  3  2  0  0  0  0
  3  4  1  0  0  0  0
  3 14  1  0  0  0  0
  4  5  1  0  0  0  0
  4 21  1  0  0  0  0
  4 22  1  0  0  0  0
  5  6  1  0  0  0  0
  5 23  1  0  0  0  0
  5 24  1  0  0  0  0
  6  7  1  0  0  0  0
  6 25  1  0  0  0  0
  6 41  1  0  0  0  0
  7 12  1  0  0  0  0
  7  8  1  0  0  0  0
  7 26  1  0  0  0  0
  8  9  1  0  0  0  0
  8 27  1  0  0  0  0
  8 28  1  0  0  0  0
  9 13  1  0  0  0  0
  9 10  1  0  0  0  0
  9 29  1  0  0  0  0
 10 11  1  0  0  0  0
 10 30  1  0  0  0  0
 10 31  1  0  0  0  0
 11 12  1  0  0  0  0
 11 32  1  0  0  0  0
 11 33  1  0  0  0  0
 12 13  1  0  0  0  0
 12 34  1  0  0  0  0
 13 35  1  0  0  0  0
 13 36  1  0  0  0  0
 14 15  2  0  0  0  0
 14 37  1  0  0  0  0
 15 16  1  0  0  0  0
 16 17  1  0  0  0  0
 17 38  1  0  0  0  0
 17 39  1  0  0  0  0
 17 40  1  0  0  0  0
M  CHG  1   6   1
M  END
> <s_m_source_file>
AV-unprocessed.smi

> <i_m_source_file_index>
3201

> <i_lp_mmshare_version>
43012

> <i_f3d_flags>
0

> <s_epik_input>
W0NIM11uMW5bY0hdYyhjMVtDSDNdKVtDSDJdW0NIMl1bTkhdW0NASF0oW0NIMl1bQ0BIXTIzKVtDQEhdKFtDSDJdMylbQ0gyXVtDSDJdMg==

> <s_epik_cmdline>
J2VwaWtfcHl0aG9uJywgJy1waCcsICc3LjAnLCAnLXRuJywgJzgnLCAnLW1hJywgJzIwMCcsICctbWV0YWxfYmluZGluZycsICctaW1hZScsICc8aW5maWxlLm1hZT4nLCAnLW9tYWUnLCAnPG91dGZpbGUubWFlPic=

> <r_lp_tautomer_probability>
1

> <r_epik_Ionization_Penalty>
0.000331174

> <r_epik_Ionization_Penalty_Charging>
0.000242709

> <r_epik_Ionization_Penalty_Neutral>
8.84659e-05

> <r_epik_State_Penalty>
-0

> <r_epik_Charging_Adjusted_Penalty>
0.000242709

> <i_epik_Tot_Q>
1

> <i_epik_Tot_abs_Q>
1

> <r_epik_Metal_State_Penalty>
-0

> <b_epik_Metal_Only>
0

> <s_lp_Force_Field>
OPLS_2005

> <r_lp_Energy>
49.8246

> <b_lp_Chiralities_Consistent>
1

> <s_lp_Variant>
AV-unprocessed.smi:3201-3

> <Gold.Version>
5.8.1

> <Gold.Id.Protein>
6NUR|6NUR_protein|mol2

> <Gold.PLP.Fitness>
47.3381

> <Gold.PLP.PLP>
-39.3963

> <Gold.PLP.part.hbond>
-2.0000

> <Gold.PLP.part.metal>
0.0000

> <Gold.PLP.part.buried>
-5.3170

> <Gold.PLP.part.nonpolar>
-32.5518

> <Gold.PLP.part.repulsive>
0.1477

> <Gold.PLP.ligand.clash>
0.0000

> <Gold.PLP.ligand.torsion>
0.5159

> <Gold.PLP.Chemscore.Hbond>
2.9840

> <Gold.PLP.Chemscore.CHOScore>
0.0000

> <Gold.PLP.Chemscore.Metal>
0.0000

> <Gold.Chemscore.Hbonds>
donor molecule, donor type, donor heavy atom, donor atom, acceptor molecule, acceptor atom, score
      L1  H     6    41       P1  8028  2.00
      P1  H  7989  7998       L1    15  0.71

> <Gold.PLP.Chemscore.Internal.Correction>
0.0215

> <Gold.Rescore>
     Score         DG    S(hbond)    S(metal)    S(lipo)     H(rot)  DE(clash)    DE(int)     intcor
     20.12     -20.62       1.71        0.00     110.44       1.36       0.10       0.41       ----

> <Gold.Chemscore.Fitness>
20.1218

> <Gold.Chemscore.DG>
-20.6229

> <Gold.Chemscore.ZeroCoef>
-5.4800

> <Gold.Chemscore.Hbond>
1.7065

> <Gold.Chemscore.Metal>
0.0000

> <Gold.Chemscore.Lipo>
110.4440

> <Gold.Chemscore.Internal_Hbond>
0.0000

> <Gold.Chemscore.DEClash>
0.0960

> <Gold.Chemscore.DEInternal>
0.4051

> <Gold.Chemscore.Rot>
1.3588

> <Gold.Chemscore.Internal.Correction>
   9.000000E+99

> <Gold.Chemscore.Hbonds>
donor molecule, donor type, donor heavy atom, donor atom, acceptor molecule, acceptor atom, score
      L1  H     6    41       P1  8028  0.94
      P1  H  7989  7998       L1    15  0.31

> <Gold.Chemscore.Hbond.Weighted>
-5.6996

> <Gold.Chemscore.Metal.Weighted>
-0.0000

> <Gold.Chemscore.Lipo.Weighted>
-12.9219

> <Gold.Chemscore.Internal_Hbond.Weighted>
0.0000

> <Gold.Chemscore.DEClash.Weighted>
0.0960

> <Gold.Chemscore.DEInternal.Weighted>
0.4051

> <Gold.Chemscore.Rot.Weighted>
3.4786

> <Gold.Chemscore.Internal.Correction.Weighted>
   9.000000E+99

> <Gold.Protein.RotatedTorsions>
[ 6907 6896 6895 6894 ] final  121.26 input  -60.11 | X-H torsion
[ 7974 7965 7964 7962 ] final  143.96 input  175.53 | X-H torsion
[ 8008 7997 7996 7995 ] final -145.64 input   59.86 | X-H torsion
[ 10167 10162 10161 10158 ] final   38.48 input  -65.29 | X-H torsion
[ 10718 10713 10712 10709 ] final   36.95 input   66.30 | X-H torsion
[ 10763 10752 10751 10750 ] final   23.59 input  -60.55 | X-H torsion
[ 11005 11000 10999 10996 ] final  -23.74 input  -57.11 | X-H torsion

> <Gold.Protein.ActiveResidues>
 VAL166  LYS551  ARG553  GLY616  TRP617  ASP618  TYR619  PRO620  LYS621  CYS622 
 ASP623  PHE694  ASN695  SER759  ASP760  ASP761  ALA762  ILE779  LEU786  VAL792 
 PHE793  MET794  SER795  GLU796  ALA797  LYS798  CYS799  TRP800  GLU811  SER814 

> <Gold.Protein.RotatedAtoms>
  152.4335  133.7319  159.6592 H   0  0  0  0  0  0  0  0  0  0  0  0  # atno 6907 bound_to 6896
  150.8216  133.8232  159.3142 H   0  0  0  0  0  0  0  0  0  0  0  0  # atno 6908 bound_to 6896
  151.5912  135.1055  160.0091 H   0  0  0  0  0  0  0  0  0  0  0  0  # atno 6909 bound_to 6896
  144.8876  139.5605  143.5813 H   0  0  0  0  0  0  0  0  0  0  0  0  # atno 7974 bound_to 7965
  155.5465  140.0613  157.2859 H   0  0  0  0  0  0  0  0  0  0  0  0  # atno 8008 bound_to 7997
  154.4435  140.1910  156.0687 H   0  0  0  0  0  0  0  0  0  0  0  0  # atno 8009 bound_to 7997
  156.0547  140.3280  155.7395 H   0  0  0  0  0  0  0  0  0  0  0  0  # atno 8010 bound_to 7997
  140.3932  144.1824  150.6131 H   0  0  0  0  0  0  0  0  0  0  0  0  # atno 10167 bound_to 10162
  157.3411  130.7548  149.6912 H   0  0  0  0  0  0  0  0  0  0  0  0  # atno 10718 bound_to 10713
  153.0827  135.6623  154.0012 H   0  0  0  0  0  0  0  0  0  0  0  0  # atno 10763 bound_to 10752
  153.9630  135.2972  155.3434 H   0  0  0  0  0  0  0  0  0  0  0  0  # atno 10764 bound_to 10752
  154.7229  135.5157  153.8912 H   0  0  0  0  0  0  0  0  0  0  0  0  # atno 10765 bound_to 10752
  140.8780  133.7673  156.0267 H   0  0  0  0  0  0  0  0  0  0  0  0  # atno 11005 bound_to 11000
  146.3034  139.7500  142.9074 LP  0  0  0  0  0  0  0  0  0  0  0  0  # atno 17320 bound_to 7965
  145.3840  141.0362  143.3161 LP  0  0  0  0  0  0  0  0  0  0  0  0  # atno 17321 bound_to 7965
  140.4818  143.2376  151.8945 LP  0  0  0  0  0  0  0  0  0  0  0  0  # atno 17342 bound_to 10162
  139.4788  144.5261  151.8733 LP  0  0  0  0  0  0  0  0  0  0  0  0  # atno 17343 bound_to 10162
  155.9708  130.4167  150.4246 LP  0  0  0  0  0  0  0  0  0  0  0  0  # atno 17370 bound_to 10713
  157.2293  131.0500  151.2501 LP  0  0  0  0  0  0  0  0  0  0  0  0  # atno 17371 bound_to 10713
  140.8495  134.2971  157.5281 LP  0  0  0  0  0  0  0  0  0  0  0  0  # atno 17394 bound_to 11000
  139.8717  134.9460  156.3925 LP  0  0  0  0  0  0  0  0  0  0  0  0  # atno 17395 bound_to 11000

$$$$
