AV-unprocessed.smi:2751|AV-procd|sdf|10600|dock6
  -GOLD-   2272015 53D 1   1.00000     0.00000
 Structure written by MMmdl.
 34 35  0  0  0  0  0  0  0  0  1 V2000
  152.4918  140.3822  154.6632 O   0  0  0  0  0  0  0  0  0  0  0  0
  151.3616  139.9082  154.8164 C   0  0  0  0  0  0  0  0  0  0  0  0
  150.4999  140.4264  155.7047 N   0  0  0  0  0  0  0  0  0  0  0  0
  150.7633  141.5683  156.5738 C   0  0  0  0  0  0  0  0  0  0  0  0
  151.7736  141.2166  157.6793 C   0  0  0  0  0  0  0  0  0  0  0  0
  152.2143  142.4409  158.4973 C   0  0  1  0  0  0  0  0  0  0  0  0
  151.1147  143.5195  158.5562 C   0  0  0  0  0  0  0  0  0  0  0  0
  151.5526  144.6905  159.4434 C   0  0  0  0  0  0  0  0  0  0  0  0
  151.9926  144.1649  160.8139 C   0  0  0  0  0  0  0  0  0  0  0  0
  153.0410  143.0537  160.6472 C   0  0  0  0  0  0  0  0  0  0  0  0
  152.5191  142.0149  159.8242 O   0  0  0  0  0  0  0  0  0  0  0  0
  150.7801  138.8286  154.1669 N   0  0  0  0  0  0  0  0  0  0  0  0
  151.3174  137.6520  154.2659 C   0  0  0  0  0  0  0  0  0  0  0  0
  150.8754  136.4705  153.6921 N   0  0  0  0  0  0  0  0  0  0  0  0
  151.7356  135.4720  154.0569 C   0  0  0  0  0  0  0  0  0  0  0  0
  152.6815  136.0014  154.8275 C   0  0  0  0  0  0  0  0  0  0  0  0
  152.4539  137.3363  154.9748 O   0  0  0  0  0  0  0  0  0  0  0  0
  149.5909  139.9941  155.7848 H   0  0  0  0  0  0  0  0  0  0  0  0
  151.1155  142.4155  155.9830 H   0  0  0  0  0  0  0  0  0  0  0  0
  149.8175  141.8755  157.0206 H   0  0  0  0  0  0  0  0  0  0  0  0
  151.3225  140.4829  158.3487 H   0  0  0  0  0  0  0  0  0  0  0  0
  152.6507  140.7360  157.2443 H   0  0  0  0  0  0  0  0  0  0  0  0
  153.1109  142.8642  158.0409 H   0  0  0  0  0  0  0  0  0  0  0  0
  150.8834  143.8797  157.5535 H   0  0  0  0  0  0  0  0  0  0  0  0
  150.1951  143.0871  158.9530 H   0  0  0  0  0  0  0  0  0  0  0  0
  152.3803  145.2201  158.9702 H   0  0  0  0  0  0  0  0  0  0  0  0
  150.7406  145.4097  159.5537 H   0  0  0  0  0  0  0  0  0  0  0  0
  152.3947  144.9776  161.4194 H   0  0  0  0  0  0  0  0  0  0  0  0
  151.1284  143.7721  161.3509 H   0  0  0  0  0  0  0  0  0  0  0  0
  153.9614  143.4479  160.2138 H   0  0  0  0  0  0  0  0  0  0  0  0
  153.3015  142.6352  161.6195 H   0  0  0  0  0  0  0  0  0  0  0  0
  150.0670  136.3240  153.1049 H   0  0  0  0  0  0  0  0  0  0  0  0
  151.5734  134.4600  153.7166 H   0  0  0  0  0  0  0  0  0  0  0  0
  153.5429  135.5816  155.3258 H   0  0  0  0  0  0  0  0  0  0  0  0
  1  2  2  0  0  0  0
  2 12  1  0  0  0  0
  2  3  1  0  0  0  0
  3  4  1  0  0  0  0
  3 18  1  0  0  0  0
  4  5  1  0  0  0  0
  4 19  1  0  0  0  0
  4 20  1  0  0  0  0
  5  6  1  0  0  0  0
  5 21  1  0  0  0  0
  5 22  1  0  0  0  0
  6 11  1  0  0  0  0
  6  7  1  0  0  0  0
  6 23  1  0  0  0  0
  7  8  1  0  0  0  0
  7 24  1  0  0  0  0
  7 25  1  0  0  0  0
  8  9  1  0  0  0  0
  8 26  1  0  0  0  0
  8 27  1  0  0  0  0
  9 10  1  0  0  0  0
  9 28  1  0  0  0  0
  9 29  1  0  0  0  0
 10 11  1  0  0  0  0
 10 30  1  0  0  0  0
 10 31  1  0  0  0  0
 12 13  2  0  0  0  0
 13 17  1  0  0  0  0
 13 14  1  0  0  0  0
 14 32  1  0  0  0  0
 14 15  1  0  0  0  0
 15 33  1  0  0  0  0
 15 16  2  0  0  0  0
 16 34  1  0  0  0  0
 16 17  1  0  0  0  0
M  END
> <s_m_source_file>
AV-unprocessed.smi

> <i_m_source_file_index>
2751

> <i_lp_mmshare_version>
43012

> <i_f3d_flags>
0

> <s_epik_input>
bzFbY0hdW2NIXW5jMVtOSF1DKD1PKVtOSF1bQ0gyXVtDSDJdW0NAQEhdMltDSDJdW0NIMl1bQ0gyXVtDSDJdTzI=

> <s_epik_cmdline>
J2VwaWtfcHl0aG9uJywgJy1waCcsICc3LjAnLCAnLXRuJywgJzgnLCAnLW1hJywgJzIwMCcsICctbWV0YWxfYmluZGluZycsICctaW1hZScsICc8aW5maWxlLm1hZT4nLCAnLW9tYWUnLCAnPG91dGZpbGUubWFlPic=

> <r_lp_tautomer_probability>
0.107061

> <r_epik_Ionization_Penalty>
1.421

> <r_epik_Ionization_Penalty_Charging>
1.42064

> <r_epik_Ionization_Penalty_Neutral>
0.0003614

> <r_epik_State_Penalty>
2.61489

> <r_epik_Charging_Adjusted_Penalty>
4.03553

> <i_epik_Tot_Q>
0

> <i_epik_Tot_abs_Q>
0

> <r_epik_Metal_State_Penalty>
3.57288

> <b_epik_Metal_Only>
0

> <s_lp_Force_Field>
OPLS_2005

> <r_lp_Energy>
32.4841

> <b_lp_Chiralities_Consistent>
1

> <s_lp_Variant>
AV-unprocessed.smi:2751-6

> <Gold.Version>
5.8.1

> <Gold.Id.Protein>
6NUR|6NUR_protein|mol2

> <Gold.PLP.Fitness>
40.5161

> <Gold.PLP.PLP>
-36.5553

> <Gold.PLP.part.hbond>
-2.9917

> <Gold.PLP.part.metal>
0.0000

> <Gold.PLP.part.buried>
-5.3092

> <Gold.PLP.part.nonpolar>
-28.1455

> <Gold.PLP.part.repulsive>
0.3950

> <Gold.PLP.ligand.clash>
0.0000

> <Gold.PLP.ligand.torsion>
1.0290

> <Gold.PLP.Chemscore.Hbond>
2.0000

> <Gold.PLP.Chemscore.CHOScore>
0.0000

> <Gold.PLP.Chemscore.Metal>
0.0000

> <Gold.Chemscore.Hbonds>
donor molecule, donor type, donor heavy atom, donor atom, acceptor molecule, acceptor atom, score
      L1  H    14    32       P1  7948  0.30

> <Gold.PLP.Chemscore.Internal.Correction>
0.0189

> <Gold.Rescore>
     Score         DG    S(hbond)    S(metal)    S(lipo)     H(rot)  DE(clash)    DE(int)     intcor
     16.34     -17.04       1.92        0.00      79.62       1.63       0.03       0.66       ----

> <Gold.Chemscore.Fitness>
16.3409

> <Gold.Chemscore.DG>
-17.0373

> <Gold.Chemscore.ZeroCoef>
-5.4800

> <Gold.Chemscore.Hbond>
1.9228

> <Gold.Chemscore.Metal>
0.0000

> <Gold.Chemscore.Lipo>
79.6163

> <Gold.Chemscore.Internal_Hbond>
0.0000

> <Gold.Chemscore.DEClash>
0.0329

> <Gold.Chemscore.DEInternal>
0.6635

> <Gold.Chemscore.Rot>
1.6328

> <Gold.Chemscore.Internal.Correction>
   9.000000E+99

> <Gold.Chemscore.Hbonds>
donor molecule, donor type, donor heavy atom, donor atom, acceptor molecule, acceptor atom, score
      P1  H  7997  8010       L1     1  0.03

> <Gold.Chemscore.Hbond.Weighted>
-6.4221

> <Gold.Chemscore.Metal.Weighted>
-0.0000

> <Gold.Chemscore.Lipo.Weighted>
-9.3151

> <Gold.Chemscore.Internal_Hbond.Weighted>
0.0000

> <Gold.Chemscore.DEClash.Weighted>
0.0329

> <Gold.Chemscore.DEInternal.Weighted>
0.6635

> <Gold.Chemscore.Rot.Weighted>
4.1799

> <Gold.Chemscore.Internal.Correction.Weighted>
   9.000000E+99

> <Gold.Protein.RotatedTorsions>
[ 6907 6896 6895 6894 ] final -145.29 input  -60.11 | X-H torsion
[ 7974 7965 7964 7962 ] final   -7.21 input  175.53 | X-H torsion
[ 8008 7997 7996 7995 ] final   79.70 input   59.86 | X-H torsion
[ 10167 10162 10161 10158 ] final   -4.56 input  -65.29 | X-H torsion
[ 10718 10713 10712 10709 ] final  151.17 input   66.30 | X-H torsion
[ 10763 10752 10751 10750 ] final   36.12 input  -60.55 | X-H torsion
[ 11005 11000 10999 10996 ] final -142.17 input  -57.11 | X-H torsion

> <Gold.Protein.ActiveResidues>
 VAL166  LYS551  ARG553  GLY616  TRP617  ASP618  TYR619  PRO620  LYS621  CYS622 
 ASP623  PHE694  ASN695  SER759  ASP760  ASP761  ALA762  ILE779  LEU786  VAL792 
 PHE793  MET794  SER795  GLU796  ALA797  LYS798  CYS799  TRP800  GLU811  SER814 

> <Gold.Protein.RotatedAtoms>
  151.1257  133.5072  159.2600 H   0  0  0  0  0  0  0  0  0  0  0  0  # atno 6907 bound_to 6896
  151.1812  135.0361  159.8803 H   0  0  0  0  0  0  0  0  0  0  0  0  # atno 6908 bound_to 6896
  152.5458  134.1109  159.8411 H   0  0  0  0  0  0  0  0  0  0  0  0  # atno 6909 bound_to 6896
  146.2312  140.2285  142.8339 H   0  0  0  0  0  0  0  0  0  0  0  0  # atno 7974 bound_to 7965
  155.8733  140.3448  155.5836 H   0  0  0  0  0  0  0  0  0  0  0  0  # atno 8008 bound_to 7997
  155.7802  140.0857  157.2082 H   0  0  0  0  0  0  0  0  0  0  0  0  # atno 8009 bound_to 7997
  154.4019  140.1502  156.3031 H   0  0  0  0  0  0  0  0  0  0  0  0  # atno 8010 bound_to 7997
  140.6932  143.6410  150.8436 H   0  0  0  0  0  0  0  0  0  0  0  0  # atno 10167 bound_to 10162
  157.2741  131.0822  151.1579 H   0  0  0  0  0  0  0  0  0  0  0  0  # atno 10718 bound_to 10713
  153.0090  135.6314  154.1936 H   0  0  0  0  0  0  0  0  0  0  0  0  # atno 10763 bound_to 10752
  154.1678  135.2820  155.3091 H   0  0  0  0  0  0  0  0  0  0  0  0  # atno 10764 bound_to 10752
  154.5932  135.5611  153.7359 H   0  0  0  0  0  0  0  0  0  0  0  0  # atno 10765 bound_to 10752
  140.8252  134.2583  157.4882 H   0  0  0  0  0  0  0  0  0  0  0  0  # atno 11005 bound_to 11000
  144.9576  140.8243  143.5533 LP  0  0  0  0  0  0  0  0  0  0  0  0  # atno 17320 bound_to 7965
  145.2252  139.2140  143.5072 LP  0  0  0  0  0  0  0  0  0  0  0  0  # atno 17321 bound_to 7965
  140.0125  143.5627  152.2833 LP  0  0  0  0  0  0  0  0  0  0  0  0  # atno 17342 bound_to 10162
  139.6356  144.7649  151.2444 LP  0  0  0  0  0  0  0  0  0  0  0  0  # atno 17343 bound_to 10162
  157.3039  130.6856  149.6179 LP  0  0  0  0  0  0  0  0  0  0  0  0  # atno 17370 bound_to 10713
  155.9663  130.4384  150.5214 LP  0  0  0  0  0  0  0  0  0  0  0  0  # atno 17371 bound_to 10713
  139.8707  134.9557  156.4213 LP  0  0  0  0  0  0  0  0  0  0  0  0  # atno 17394 bound_to 11000
  140.9057  133.7748  155.9732 LP  0  0  0  0  0  0  0  0  0  0  0  0  # atno 17395 bound_to 11000

$$$$
