AV-unprocessed.smi:3247|AV-procd|sdf|12412|dock1
  -GOLD-   2272018293D 1   1.00000     0.00000
 Structure written by MMmdl.
 35 36  0  0  0  0  0  0  0  0  1 V2000
  150.2450  140.2909  156.9356 O   0  0  0  0  0  0  0  0  0  0  0  0
  150.0404  141.4798  156.6912 C   0  0  0  0  0  0  0  0  0  0  0  0
  150.2647  142.5339  157.7728 C   0  0  0  0  0  0  0  0  0  0  0  0
  151.3633  143.3507  157.3942 O   0  0  0  0  0  0  0  0  0  0  0  0
  152.1502  143.7949  158.4897 C   0  0  0  0  0  0  0  0  0  0  0  0
  152.5499  142.6140  159.3721 C   0  0  0  0  0  0  0  0  0  0  0  0
  152.9008  143.2436  160.7234 C   0  0  0  0  0  0  0  0  0  0  0  0
  152.1045  144.5561  160.8021 C   0  0  0  0  0  0  0  0  0  0  0  0
  151.3889  144.7100  159.4540 C   0  0  0  0  0  0  0  0  0  0  0  0
  149.6069  141.9274  155.5028 N   0  0  0  0  0  0  0  0  0  0  0  0
  149.3260  141.0924  154.3406 C   0  0  0  0  0  0  0  0  0  0  0  0
  147.8605  141.2153  153.8907 C   0  0  0  0  0  0  0  0  0  0  0  0
  147.1291  139.9103  153.9819 C   0  0  0  0  0  0  0  0  0  0  0  0
  147.4356  138.7471  153.3170 C   0  0  0  0  0  0  0  0  0  0  0  0
  146.3239  137.4600  153.7020 S   0  0  0  0  0  0  0  0  0  0  0  0
  145.4776  138.5732  154.7633 C   0  0  0  0  0  0  0  0  0  0  0  0
  146.0037  139.7978  154.8059 N   0  0  0  0  0  0  0  0  0  0  0  0
  149.3593  143.1329  157.8812 H   0  0  0  0  0  0  0  0  0  0  0  0
  150.4568  142.0422  158.7274 H   0  0  0  0  0  0  0  0  0  0  0  0
  153.0550  144.2927  158.1358 H   0  0  0  0  0  0  0  0  0  0  0  0
  151.6987  141.9427  159.4958 H   0  0  0  0  0  0  0  0  0  0  0  0
  153.3710  142.0332  158.9515 H   0  0  0  0  0  0  0  0  0  0  0  0
  152.6713  142.5728  161.5519 H   0  0  0  0  0  0  0  0  0  0  0  0
  153.9689  143.4605  160.7655 H   0  0  0  0  0  0  0  0  0  0  0  0
  151.3889  144.5460  161.6249 H   0  0  0  0  0  0  0  0  0  0  0  0
  152.7837  145.3928  160.9714 H   0  0  0  0  0  0  0  0  0  0  0  0
  151.3580  145.7461  159.1158 H   0  0  0  0  0  0  0  0  0  0  0  0
  150.3590  144.3635  159.5507 H   0  0  0  0  0  0  0  0  0  0  0  0
  149.4701  142.9221  155.3950 H   0  0  0  0  0  0  0  0  0  0  0  0
  149.9900  141.4071  153.5350 H   0  0  0  0  0  0  0  0  0  0  0  0
  149.5731  140.0521  154.5591 H   0  0  0  0  0  0  0  0  0  0  0  0
  147.3511  141.9645  154.4978 H   0  0  0  0  0  0  0  0  0  0  0  0
  147.8244  141.5886  152.8663 H   0  0  0  0  0  0  0  0  0  0  0  0
  148.2453  138.5710  152.6243 H   0  0  0  0  0  0  0  0  0  0  0  0
  144.6031  138.3285  155.3480 H   0  0  0  0  0  0  0  0  0  0  0  0
  1  2  2  0  0  0  0
  2  3  1  0  0  0  0
  2 10  1  0  0  0  0
  3  4  1  0  0  0  0
  3 18  1  0  0  0  0
  3 19  1  0  0  0  0
  4  5  1  0  0  0  0
  5  9  1  0  0  0  0
  5  6  1  0  0  0  0
  5 20  1  0  0  0  0
  6  7  1  0  0  0  0
  6 21  1  0  0  0  0
  6 22  1  0  0  0  0
  7  8  1  0  0  0  0
  7 23  1  0  0  0  0
  7 24  1  0  0  0  0
  8  9  1  0  0  0  0
  8 25  1  0  0  0  0
  8 26  1  0  0  0  0
  9 27  1  0  0  0  0
  9 28  1  0  0  0  0
 10 11  1  0  0  0  0
 10 29  1  0  0  0  0
 11 12  1  0  0  0  0
 11 30  1  0  0  0  0
 11 31  1  0  0  0  0
 12 13  1  0  0  0  0
 12 32  1  0  0  0  0
 12 33  1  0  0  0  0
 13 17  1  0  0  0  0
 13 14  2  0  0  0  0
 14 15  1  0  0  0  0
 14 34  1  0  0  0  0
 15 16  1  0  0  0  0
 16 17  2  0  0  0  0
 16 35  1  0  0  0  0
M  END
> <s_m_source_file>
AV-unprocessed.smi

> <i_m_source_file_index>
3247

> <i_lp_mmshare_version>
43012

> <i_f3d_flags>
0

> <s_epik_input>
W0NIMl0xW0NIMl1bQ0gyXVtDSDJdW0NIXTFPW0NIMl1DKD1PKVtOSF1bQ0gyXVtDSDJdYzJbY0hdc1tjSF1uMg==

> <s_epik_cmdline>
J2VwaWtfcHl0aG9uJywgJy1waCcsICc3LjAnLCAnLXRuJywgJzgnLCAnLW1hJywgJzIwMCcsICctbWV0YWxfYmluZGluZycsICctaW1hZScsICc8aW5maWxlLm1hZT4nLCAnLW9tYWUnLCAnPG91dGZpbGUubWFlPic=

> <r_lp_tautomer_probability>
1

> <r_epik_Ionization_Penalty>
0.00018119

> <r_epik_Ionization_Penalty_Charging>
0

> <r_epik_Ionization_Penalty_Neutral>
0.00018119

> <r_epik_State_Penalty>
-0

> <r_epik_Charging_Adjusted_Penalty>
0

> <i_epik_Tot_Q>
0

> <i_epik_Tot_abs_Q>
0

> <r_epik_Metal_State_Penalty>
-0

> <b_epik_Metal_Only>
0

> <s_lp_Force_Field>
OPLS_2005

> <r_lp_Energy>
17.1434

> <b_lp_Chiralities_Consistent>
1

> <s_lp_Variant>
AV-unprocessed.smi:3247-1

> <Gold.Version>
5.8.1

> <Gold.Id.Protein>
6NUR|6NUR_protein|mol2

> <Gold.PLP.Fitness>
41.5151

> <Gold.PLP.PLP>
-33.7464

> <Gold.PLP.part.hbond>
-1.0000

> <Gold.PLP.part.metal>
0.0000

> <Gold.PLP.part.buried>
-4.0770

> <Gold.PLP.part.nonpolar>
-30.3940

> <Gold.PLP.part.repulsive>
0.3833

> <Gold.PLP.ligand.clash>
0.0000

> <Gold.PLP.ligand.torsion>
0.6833

> <Gold.PLP.Chemscore.Hbond>
1.0000

> <Gold.PLP.Chemscore.CHOScore>
1.9705

> <Gold.PLP.Chemscore.Metal>
0.0000

> <Gold.Chemscore.Hbonds>
donor molecule, donor type, donor heavy atom, donor atom, acceptor molecule, acceptor atom, score
      L1  H    10    29       P1  8028  1.00
      L1  C    14    34       P1  7948  0.88
      L1  C    14    34       P1  7957  1.00

> <Gold.PLP.Chemscore.Internal.Correction>
0.2238

> <Gold.Rescore>
     Score         DG    S(hbond)    S(metal)    S(lipo)     H(rot)  DE(clash)    DE(int)     intcor
     15.16     -16.00       0.99        0.00     100.75       1.78       0.24       0.61       ----

> <Gold.Chemscore.Fitness>
15.1569

> <Gold.Chemscore.DG>
-16.0012

> <Gold.Chemscore.ZeroCoef>
-5.4800

> <Gold.Chemscore.Hbond>
0.9868

> <Gold.Chemscore.Metal>
0.0000

> <Gold.Chemscore.Lipo>
100.7529

> <Gold.Chemscore.Internal_Hbond>
0.0000

> <Gold.Chemscore.DEClash>
0.2371

> <Gold.Chemscore.DEInternal>
0.6072

> <Gold.Chemscore.Rot>
1.7824

> <Gold.Chemscore.Internal.Correction>
   9.000000E+99

> <Gold.Chemscore.Hbonds>
donor molecule, donor type, donor heavy atom, donor atom, acceptor molecule, acceptor atom, score
      L1  H    10    29       P1  8028  1.00

> <Gold.Chemscore.Hbond.Weighted>
-3.2960

> <Gold.Chemscore.Metal.Weighted>
-0.0000

> <Gold.Chemscore.Lipo.Weighted>
-11.7881

> <Gold.Chemscore.Internal_Hbond.Weighted>
0.0000

> <Gold.Chemscore.DEClash.Weighted>
0.2371

> <Gold.Chemscore.DEInternal.Weighted>
0.6072

> <Gold.Chemscore.Rot.Weighted>
4.5629

> <Gold.Chemscore.Internal.Correction.Weighted>
   9.000000E+99

> <Gold.Protein.RotatedTorsions>
[ 6907 6896 6895 6894 ] final  -97.59 input  -60.11 | X-H torsion
[ 7974 7965 7964 7962 ] final  127.31 input  175.53 | X-H torsion
[ 8008 7997 7996 7995 ] final   93.49 input   59.86 | X-H torsion
[ 10167 10162 10161 10158 ] final  -51.19 input  -65.29 | X-H torsion
[ 10718 10713 10712 10709 ] final -155.65 input   66.30 | X-H torsion
[ 10763 10752 10751 10750 ] final   24.79 input  -60.55 | X-H torsion
[ 11005 11000 10999 10996 ] final    7.05 input  -57.11 | X-H torsion

> <Gold.Protein.ActiveResidues>
 VAL166  LYS551  ARG553  GLY616  TRP617  ASP618  TYR619  PRO620  LYS621  CYS622 
 ASP623  PHE694  ASN695  SER759  ASP760  ASP761  ALA762  ILE779  LEU786  VAL792 
 PHE793  MET794  SER795  GLU796  ALA797  LYS798  CYS799  TRP800  GLU811  SER814 

> <Gold.Protein.RotatedAtoms>
  150.7021  134.1326  159.4074 H   0  0  0  0  0  0  0  0  0  0  0  0  # atno 6907 bound_to 6896
  151.9311  135.0253  160.0538 H   0  0  0  0  0  0  0  0  0  0  0  0  # atno 6908 bound_to 6896
  152.2174  133.4922  159.5180 H   0  0  0  0  0  0  0  0  0  0  0  0  # atno 6909 bound_to 6896
  145.0520  139.3875  143.5049 H   0  0  0  0  0  0  0  0  0  0  0  0  # atno 7974 bound_to 7965
  156.0473  140.3312  155.7311 H   0  0  0  0  0  0  0  0  0  0  0  0  # atno 8008 bound_to 7997
  155.5654  140.0623  157.2837 H   0  0  0  0  0  0  0  0  0  0  0  0  # atno 8009 bound_to 7997
  154.4420  140.1870  156.0813 H   0  0  0  0  0  0  0  0  0  0  0  0  # atno 8010 bound_to 7997
  140.6601  143.2629  151.4468 H   0  0  0  0  0  0  0  0  0  0  0  0  # atno 10167 bound_to 10162
  156.5157  130.8455  151.2663 H   0  0  0  0  0  0  0  0  0  0  0  0  # atno 10718 bound_to 10713
  153.0738  135.6597  154.0189 H   0  0  0  0  0  0  0  0  0  0  0  0  # atno 10763 bound_to 10752
  153.9828  135.2953  155.3420 H   0  0  0  0  0  0  0  0  0  0  0  0  # atno 10764 bound_to 10752
  154.7121  135.5201  153.8752 H   0  0  0  0  0  0  0  0  0  0  0  0  # atno 10765 bound_to 10752
  140.5526  134.0268  155.7942 H   0  0  0  0  0  0  0  0  0  0  0  0  # atno 11005 bound_to 11000
  146.3518  140.0175  142.8661 LP  0  0  0  0  0  0  0  0  0  0  0  0  # atno 17320 bound_to 7965
  145.1515  140.9625  143.4430 LP  0  0  0  0  0  0  0  0  0  0  0  0  # atno 17321 bound_to 7965
  139.5832  144.1662  152.1995 LP  0  0  0  0  0  0  0  0  0  0  0  0  # atno 17342 bound_to 10162
  140.0994  144.5552  150.6999 LP  0  0  0  0  0  0  0  0  0  0  0  0  # atno 17343 bound_to 10162
  157.7444  130.9934  150.2672 LP  0  0  0  0  0  0  0  0  0  0  0  0  # atno 17370 bound_to 10713
  156.3197  130.3784  149.7586 LP  0  0  0  0  0  0  0  0  0  0  0  0  # atno 17371 bound_to 10713
  141.1162  133.9536  157.2817 LP  0  0  0  0  0  0  0  0  0  0  0  0  # atno 17394 bound_to 11000
  139.9447  135.0186  156.8817 LP  0  0  0  0  0  0  0  0  0  0  0  0  # atno 17395 bound_to 11000

$$$$
