AV-unprocessed.smi:283|AV-procd|sdf|2155|dock6
  -GOLD-   2262021503D 1   1.00000     0.00000
 Structure written by MMmdl.
 48 51  0  0  0  0  0  0  0  0  1 V2000
  150.5407  141.0175  156.2005 C   0  0  0  0  0  0  0  0  0  0  0  0
  150.9254  140.2572  157.4765 C   0  0  2  0  0  0  0  0  0  0  0  0
  149.7673  139.5203  157.9798 N   0  0  0  0  0  0  0  0  0  0  0  0
  149.7491  138.1689  157.9788 C   0  0  0  0  0  0  0  0  0  0  0  0
  150.7480  137.5688  157.2889 N   0  0  0  0  0  0  0  0  0  0  0  0
  150.7958  136.2368  157.2009 C   0  0  0  0  0  0  0  0  0  0  0  0
  149.9553  135.3368  157.7137 N   0  0  0  0  0  0  0  0  0  0  0  0
  148.9506  135.9325  158.4190 C   0  0  0  0  0  0  0  0  0  0  0  0
  148.7865  137.3328  158.6171 C   0  0  0  0  0  0  0  0  0  0  0  0
  147.6798  137.5528  159.4276 N   0  0  0  0  0  0  0  0  0  0  0  0
  147.2112  136.3601  159.6691 C   0  0  0  0  0  0  0  0  0  0  0  0
  147.8896  135.3262  159.0604 N   0  0  0  0  0  0  0  0  0  0  0  0
  147.6150  133.8528  159.1309 C   0  0  1  0  0  0  0  0  0  0  0  0
  148.2406  133.3543  160.2786 O   0  0  0  0  0  0  0  0  0  0  0  0
  147.2970  133.1366  161.3259 C   0  0  1  0  0  0  0  0  0  0  0  0
  147.1447  134.4029  162.1930 C   0  0  0  0  0  0  0  0  0  0  0  0
  148.4008  135.0146  162.3936 O   0  0  0  0  0  0  0  0  0  0  0  0
  146.0249  132.7480  160.5687 C   0  0  2  0  0  0  0  0  0  0  0  0
  146.0465  131.3500  160.3355 O   0  0  0  0  0  0  0  0  0  0  0  0
  146.1051  133.5745  159.2856 C   0  0  2  0  0  0  0  0  0  0  0  0
  145.5457  132.8954  158.1770 O   0  0  0  0  0  0  0  0  0  0  0  0
  151.5734  141.2086  158.4878 C   0  0  0  0  0  0  0  0  0  0  0  0
  151.0630  142.5176  158.6524 C   0  0  0  0  0  0  0  0  0  0  0  0
  151.6352  143.4003  159.5873 C   0  0  0  0  0  0  0  0  0  0  0  0
  152.7327  142.9870  160.3634 C   0  0  0  0  0  0  0  0  0  0  0  0
  153.2607  141.6937  160.1964 C   0  0  0  0  0  0  0  0  0  0  0  0
  152.6922  140.8061  159.2610 C   0  0  0  0  0  0  0  0  0  0  0  0
  153.3935  139.2349  159.0895 Cl  0  0  0  0  0  0  0  0  0  0  0  0
  148.0658  133.4460  158.2249 H   0  0  0  0  0  0  0  0  0  0  0  0
  147.6567  132.3229  161.9583 H   0  0  0  0  0  0  0  0  0  0  0  0
  145.1208  132.9732  161.1358 H   0  0  0  0  0  0  0  0  0  0  0  0
  145.5704  134.5131  159.4379 H   0  0  0  0  0  0  0  0  0  0  0  0
  151.4104  141.5016  155.7555 H   0  0  0  0  0  0  0  0  0  0  0  0
  149.7995  141.7902  156.4067 H   0  0  0  0  0  0  0  0  0  0  0  0
  150.1218  140.3444  155.4518 H   0  0  0  0  0  0  0  0  0  0  0  0
  151.6523  139.5015  157.1842 H   0  0  0  0  0  0  0  0  0  0  0  0
  149.1529  140.0586  158.5731 H   0  0  0  0  0  0  0  0  0  0  0  0
  151.6200  135.8350  156.6304 H   0  0  0  0  0  0  0  0  0  0  0  0
  146.3424  136.2099  160.2930 H   0  0  0  0  0  0  0  0  0  0  0  0
  146.4961  135.1229  161.6937 H   0  0  0  0  0  0  0  0  0  0  0  0
  146.6965  134.1798  163.1613 H   0  0  0  0  0  0  0  0  0  0  0  0
  148.8818  134.9873  161.5804 H   0  0  0  0  0  0  0  0  0  0  0  0
  145.2692  130.9731  160.7187 H   0  0  0  0  0  0  0  0  0  0  0  0
  146.2497  132.6384  157.6011 H   0  0  0  0  0  0  0  0  0  0  0  0
  150.2208  142.8519  158.0644 H   0  0  0  0  0  0  0  0  0  0  0  0
  151.2311  144.3944  159.7089 H   0  0  0  0  0  0  0  0  0  0  0  0
  153.1726  143.6627  161.0821 H   0  0  0  0  0  0  0  0  0  0  0  0
  154.1084  141.3821  160.7888 H   0  0  0  0  0  0  0  0  0  0  0  0
  1  2  1  0  0  0  0
  1 33  1  0  0  0  0
  1 34  1  0  0  0  0
  1 35  1  0  0  0  0
  2  3  1  0  0  0  0
  2 22  1  0  0  0  0
  2 36  1  0  0  0  0
  3  4  1  0  0  0  0
  3 37  1  0  0  0  0
  4  9  1  0  0  0  0
  4  5  2  0  0  0  0
  5  6  1  0  0  0  0
  6  7  2  0  0  0  0
  6 38  1  0  0  0  0
  7  8  1  0  0  0  0
  8 12  1  0  0  0  0
  8  9  2  0  0  0  0
  9 10  1  0  0  0  0
 10 11  2  0  0  0  0
 11 12  1  0  0  0  0
 11 39  1  0  0  0  0
 12 13  1  0  0  0  0
 13 29  1  0  0  0  0
 13 20  1  0  0  0  0
 13 14  1  0  0  0  0
 14 15  1  0  0  0  0
 15 30  1  0  0  0  0
 15 16  1  0  0  0  0
 15 18  1  0  0  0  0
 16 17  1  0  0  0  0
 16 40  1  0  0  0  0
 16 41  1  0  0  0  0
 17 42  1  0  0  0  0
 18 31  1  0  0  0  0
 18 19  1  0  0  0  0
 18 20  1  0  0  0  0
 19 43  1  0  0  0  0
 20 32  1  0  0  0  0
 20 21  1  0  0  0  0
 21 44  1  0  0  0  0
 22 27  1  0  0  0  0
 22 23  2  0  0  0  0
 23 24  1  0  0  0  0
 23 45  1  0  0  0  0
 24 25  2  0  0  0  0
 24 46  1  0  0  0  0
 25 26  1  0  0  0  0
 25 47  1  0  0  0  0
 26 27  2  0  0  0  0
 26 48  1  0  0  0  0
 27 28  1  0  0  0  0
M  END
> <s_m_source_file>
AV-unprocessed.smi

> <i_m_source_file_index>
283

> <i_lp_mmshare_version>
43012

> <i_f3d_flags>
0

> <s_epik_input>
Q2xjMVtjSF1bY0hdW2NIXVtjSF1jMVtDQEhdKFtDSDNdKVtOSF1jKG5bY0hdbjIpYyhjMjMpbltjSF1uM1tDQEBIXTRPW0NASF0oW0NIMl1bT0hdKVtDQEBIXShbT0hdKVtDQEhdNFtPSF0=

> <s_epik_cmdline>
J2VwaWtfcHl0aG9uJywgJy1waCcsICc3LjAnLCAnLXRuJywgJzgnLCAnLW1hJywgJzIwMCcsICctbWV0YWxfYmluZGluZycsICctaW1hZScsICc8aW5maWxlLm1hZT4nLCAnLW9tYWUnLCAnPG91dGZpbGUubWFlPic=

> <r_lp_tautomer_probability>
1

> <r_epik_Ionization_Penalty>
0.000266407

> <r_epik_Ionization_Penalty_Charging>
0

> <r_epik_Ionization_Penalty_Neutral>
0.000266407

> <r_epik_State_Penalty>
-0

> <r_epik_Charging_Adjusted_Penalty>
0

> <i_epik_Tot_Q>
0

> <i_epik_Tot_abs_Q>
0

> <r_epik_Metal_State_Penalty>
-0

> <b_epik_Metal_Only>
0

> <s_epik_Chemistry_Notes>
This compound contains an acetal/aminal-like group ( X-CH(R)-Y where X, Y are N, S, or O) that may be acid/base labile, releasing an aldehyde.

> <s_lp_Force_Field>
OPLS_2005

> <r_lp_Energy>
45.281

> <b_lp_Chiralities_Consistent>
1

> <s_lp_Variant>
AV-unprocessed.smi:283-31

> <Gold.Version>
5.8.1

> <Gold.Id.Protein>
6NUR|6NUR_protein|mol2

> <Gold.PLP.Fitness>
40.5673

> <Gold.PLP.PLP>
-38.9586

> <Gold.PLP.part.hbond>
-2.0000

> <Gold.PLP.part.metal>
0.0000

> <Gold.PLP.part.buried>
-6.1053

> <Gold.PLP.part.nonpolar>
-32.7106

> <Gold.PLP.part.repulsive>
0.1506

> <Gold.PLP.ligand.clash>
0.0000

> <Gold.PLP.ligand.torsion>
1.6366

> <Gold.PLP.Chemscore.Hbond>
1.5920

> <Gold.PLP.Chemscore.CHOScore>
0.0000

> <Gold.PLP.Chemscore.Metal>
0.0000

> <Gold.Chemscore.Hbonds>
donor molecule, donor type, donor heavy atom, donor atom, acceptor molecule, acceptor atom, score
      P1  H  6896  6908       L1     7  0.39
      P1  H  6934  6947       L1    10  0.47

> <Gold.PLP.Chemscore.Internal.Correction>
0.1060

> <Gold.Rescore>
     Score         DG    S(hbond)    S(metal)    S(lipo)     H(rot)  DE(clash)    DE(int)     intcor
      9.51     -10.69       1.33        0.00      96.13       4.10       0.01       1.17       ----

> <Gold.Chemscore.Fitness>
9.5068

> <Gold.Chemscore.DG>
-10.6871

> <Gold.Chemscore.ZeroCoef>
-5.4800

> <Gold.Chemscore.Hbond>
1.3315

> <Gold.Chemscore.Metal>
0.0000

> <Gold.Chemscore.Lipo>
96.1340

> <Gold.Chemscore.Internal_Hbond>
0.0000

> <Gold.Chemscore.DEClash>
0.0077

> <Gold.Chemscore.DEInternal>
1.1726

> <Gold.Chemscore.Rot>
4.0968

> <Gold.Chemscore.Internal.Correction>
   9.000000E+99

> <Gold.Chemscore.Hbonds>
donor molecule, donor type, donor heavy atom, donor atom, acceptor molecule, acceptor atom, score
      P1  H  6896  6908       L1     7  0.02
      P1  H  6934  6947       L1    10  0.42

> <Gold.Chemscore.Hbond.Weighted>
-4.4474

> <Gold.Chemscore.Metal.Weighted>
-0.0000

> <Gold.Chemscore.Lipo.Weighted>
-11.2477

> <Gold.Chemscore.Internal_Hbond.Weighted>
0.0000

> <Gold.Chemscore.DEClash.Weighted>
0.0077

> <Gold.Chemscore.DEInternal.Weighted>
1.1726

> <Gold.Chemscore.Rot.Weighted>
10.4879

> <Gold.Chemscore.Internal.Correction.Weighted>
   9.000000E+99

> <Gold.Protein.RotatedTorsions>
[ 6907 6896 6895 6894 ] final  156.96 input  -60.11 | X-H torsion
[ 7974 7965 7964 7962 ] final -168.84 input  175.53 | X-H torsion
[ 8008 7997 7996 7995 ] final   60.93 input   59.86 | X-H torsion
[ 10167 10162 10161 10158 ] final  -70.70 input  -65.29 | X-H torsion
[ 10718 10713 10712 10709 ] final -151.01 input   66.30 | X-H torsion
[ 10763 10752 10751 10750 ] final -151.25 input  -60.55 | X-H torsion
[ 11005 11000 10999 10996 ] final  -59.13 input  -57.11 | X-H torsion

> <Gold.Protein.ActiveResidues>
 VAL166  LYS551  ARG553  GLY616  TRP617  ASP618  TYR619  PRO620  LYS621  CYS622 
 ASP623  PHE694  ASN695  SER759  ASP760  ASP761  ALA762  ILE779  LEU786  VAL792 
 PHE793  MET794  SER795  GLU796  ALA797  LYS798  CYS799  TRP800  GLU811  SER814 

> <Gold.Protein.RotatedAtoms>
  152.0220  133.3902  159.4261 H   0  0  0  0  0  0  0  0  0  0  0  0  # atno 6907 bound_to 6896
  150.6889  134.3615  159.4962 H   0  0  0  0  0  0  0  0  0  0  0  0  # atno 6908 bound_to 6896
  152.1390  134.9076  160.0605 H   0  0  0  0  0  0  0  0  0  0  0  0  # atno 6909 bound_to 6896
  144.7196  140.2310  143.6304 H   0  0  0  0  0  0  0  0  0  0  0  0  # atno 7974 bound_to 7965
  155.5902  140.3492  155.4564 H   0  0  0  0  0  0  0  0  0  0  0  0  # atno 8008 bound_to 7997
  156.0307  140.1274  157.0286 H   0  0  0  0  0  0  0  0  0  0  0  0  # atno 8009 bound_to 7997
  154.4351  140.1044  156.6081 H   0  0  0  0  0  0  0  0  0  0  0  0  # atno 8010 bound_to 7997
  140.5332  143.2320  151.7225 H   0  0  0  0  0  0  0  0  0  0  0  0  # atno 10167 bound_to 10162
  156.4537  130.8180  151.2411 H   0  0  0  0  0  0  0  0  0  0  0  0  # atno 10718 bound_to 10713
  154.8069  135.3264  154.7408 H   0  0  0  0  0  0  0  0  0  0  0  0  # atno 10763 bound_to 10752
  153.8064  135.6899  153.4852 H   0  0  0  0  0  0  0  0  0  0  0  0  # atno 10764 bound_to 10752
  153.1820  135.4583  154.9986 H   0  0  0  0  0  0  0  0  0  0  0  0  # atno 10765 bound_to 10752
  141.1235  133.6615  156.5024 H   0  0  0  0  0  0  0  0  0  0  0  0  # atno 11005 bound_to 11000
  145.8411  139.2130  143.1827 LP  0  0  0  0  0  0  0  0  0  0  0  0  # atno 17320 bound_to 7965
  146.0345  140.8225  142.9859 LP  0  0  0  0  0  0  0  0  0  0  0  0  # atno 17321 bound_to 7965
  139.4961  144.4083  152.0108 LP  0  0  0  0  0  0  0  0  0  0  0  0  # atno 17342 bound_to 10162
  140.3186  144.3454  150.6015 LP  0  0  0  0  0  0  0  0  0  0  0  0  # atno 17343 bound_to 10162
  157.7501  131.0130  150.3405 LP  0  0  0  0  0  0  0  0  0  0  0  0  # atno 17370 bound_to 10713
  156.3790  130.3877  149.7117 LP  0  0  0  0  0  0  0  0  0  0  0  0  # atno 17371 bound_to 10713
  140.4435  134.6994  157.5004 LP  0  0  0  0  0  0  0  0  0  0  0  0  # atno 17394 bound_to 11000
  140.0213  134.6543  155.9235 LP  0  0  0  0  0  0  0  0  0  0  0  0  # atno 17395 bound_to 11000

$$$$
