AV-unprocessed.smi:473|AV-procd|sdf|2662|dock1
  -GOLD-   2262023 73D 1   1.00000     0.00000
 Structure written by MMmdl.
 42 44  0  0  0  0  0  0  0  0  1 V2000
  152.3491  145.3919  159.7281 C   0  0  0  0  0  0  0  0  0  0  0  0
  152.0932  143.9709  159.2571 C   0  0  0  0  0  0  0  0  0  0  0  0
  151.6279  143.7563  157.9399 C   0  0  0  0  0  0  0  0  0  0  0  0
  151.3833  142.4502  157.4620 C   0  0  0  0  0  0  0  0  0  0  0  0
  150.9386  142.0127  156.2260 N   0  0  0  0  0  0  0  0  0  0  0  0
  150.9167  140.6943  156.3997 C   0  0  0  0  0  0  0  0  0  0  0  0
  151.2958  140.2251  157.6039 N   0  0  0  0  0  0  0  0  0  0  0  0
  151.3556  138.8368  158.0242 C   0  0  0  0  0  0  0  0  0  0  0  0
  150.3246  137.9553  157.2910 C   0  0  1  0  0  0  0  0  0  0  0  0
  150.7328  137.6673  155.9682 O   0  0  0  0  0  0  0  0  0  0  0  0
  150.0132  136.6371  158.0189 C   0  0  0  0  0  0  0  0  0  0  0  0
  149.3909  136.9074  159.2646 O   0  0  0  0  0  0  0  0  0  0  0  0
  148.0229  136.5349  159.2938 C   0  0  0  0  0  0  0  0  0  0  0  0
  147.6573  136.2444  160.7151 C   0  0  0  0  0  0  0  0  0  0  0  0
  147.4306  135.0803  161.3963 C   0  0  0  0  0  0  0  0  0  0  0  0
  147.1261  135.4484  162.7360 C   0  0  0  0  0  0  0  0  0  0  0  0
  147.1946  136.8116  162.7766 C   0  0  0  0  0  0  0  0  0  0  0  0
  147.5188  137.3129  161.5539 O   0  0  0  0  0  0  0  0  0  0  0  0
  151.6156  141.3566  158.3463 C   0  0  0  0  0  0  0  0  0  0  0  0
  152.0764  141.5571  159.6592 C   0  0  0  0  0  0  0  0  0  0  0  0
  152.3182  142.8681  160.1197 C   0  0  0  0  0  0  0  0  0  0  0  0
  152.8208  143.0730  161.5377 C   0  0  0  0  0  0  0  0  0  0  0  0
  152.1218  146.1178  158.9470 H   0  0  0  0  0  0  0  0  0  0  0  0
  153.3955  145.5181  160.0072 H   0  0  0  0  0  0  0  0  0  0  0  0
  151.7290  145.6264  160.5934 H   0  0  0  0  0  0  0  0  0  0  0  0
  151.4568  144.5958  157.2823 H   0  0  0  0  0  0  0  0  0  0  0  0
  150.6101  140.0299  155.6052 H   0  0  0  0  0  0  0  0  0  0  0  0
  152.3691  138.4712  157.8545 H   0  0  0  0  0  0  0  0  0  0  0  0
  151.1873  138.7955  159.1010 H   0  0  0  0  0  0  0  0  0  0  0  0
  149.3924  138.5145  157.2029 H   0  0  0  0  0  0  0  0  0  0  0  0
  151.5417  137.1799  156.0039 H   0  0  0  0  0  0  0  0  0  0  0  0
  149.3328  136.0419  157.4083 H   0  0  0  0  0  0  0  0  0  0  0  0
  150.9215  136.0477  158.1564 H   0  0  0  0  0  0  0  0  0  0  0  0
  147.3997  137.3413  158.9046 H   0  0  0  0  0  0  0  0  0  0  0  0
  147.8550  135.6513  158.6767 H   0  0  0  0  0  0  0  0  0  0  0  0
  147.4768  134.0850  160.9798 H   0  0  0  0  0  0  0  0  0  0  0  0
  146.8884  134.7983  163.5651 H   0  0  0  0  0  0  0  0  0  0  0  0
  147.0496  137.5478  163.5535 H   0  0  0  0  0  0  0  0  0  0  0  0
  152.2462  140.7073  160.3041 H   0  0  0  0  0  0  0  0  0  0  0  0
  152.9274  142.1232  162.0627 H   0  0  0  0  0  0  0  0  0  0  0  0
  152.1251  143.6916  162.1052 H   0  0  0  0  0  0  0  0  0  0  0  0
  153.7951  143.5621  161.5300 H   0  0  0  0  0  0  0  0  0  0  0  0
  1  2  1  0  0  0  0
  1 23  1  0  0  0  0
  1 24  1  0  0  0  0
  1 25  1  0  0  0  0
  2 21  1  0  0  0  0
  2  3  2  0  0  0  0
  3  4  1  0  0  0  0
  3 26  1  0  0  0  0
  4 19  2  0  0  0  0
  4  5  1  0  0  0  0
  5  6  2  0  0  0  0
  6  7  1  0  0  0  0
  6 27  1  0  0  0  0
  7  8  1  0  0  0  0
  7 19  1  0  0  0  0
  8  9  1  0  0  0  0
  8 28  1  0  0  0  0
  8 29  1  0  0  0  0
  9 10  1  0  0  0  0
  9 11  1  0  0  0  0
  9 30  1  0  0  0  0
 10 31  1  0  0  0  0
 11 12  1  0  0  0  0
 11 32  1  0  0  0  0
 11 33  1  0  0  0  0
 12 13  1  0  0  0  0
 13 14  1  0  0  0  0
 13 34  1  0  0  0  0
 13 35  1  0  0  0  0
 14 18  1  0  0  0  0
 14 15  2  0  0  0  0
 15 16  1  0  0  0  0
 15 36  1  0  0  0  0
 16 17  2  0  0  0  0
 16 37  1  0  0  0  0
 17 18  1  0  0  0  0
 17 38  1  0  0  0  0
 19 20  1  0  0  0  0
 20 21  2  0  0  0  0
 20 39  1  0  0  0  0
 21 22  1  0  0  0  0
 22 40  1  0  0  0  0
 22 41  1  0  0  0  0
 22 42  1  0  0  0  0
M  END
> <s_m_source_file>
AV-unprocessed.smi

> <i_m_source_file_index>
473

> <i_lp_mmshare_version>
43012

> <i_f3d_flags>
0

> <s_epik_input>
W0NIM11jKFtjSF0xKWMoW0NIM10pW2NIXWMoYzEyKW4oW2NIXW4yKVtDSDJdW0NASF0oW09IXSlbQ0gyXU9bQ0gyXWMzW2NIXVtjSF1bY0hdbzM=

> <s_epik_cmdline>
J2VwaWtfcHl0aG9uJywgJy1waCcsICc3LjAnLCAnLXRuJywgJzgnLCAnLW1hJywgJzIwMCcsICctbWV0YWxfYmluZGluZycsICctaW1hZScsICc8aW5maWxlLm1hZT4nLCAnLW9tYWUnLCAnPG91dGZpbGUubWFlPic=

> <r_epik_Ionization_Penalty>
0.112477

> <r_epik_Ionization_Penalty_Charging>
0

> <r_epik_Ionization_Penalty_Neutral>
0.112477

> <r_epik_State_Penalty>
0.102177

> <r_epik_Charging_Adjusted_Penalty>
0.102177

> <i_epik_Tot_Q>
0

> <i_epik_Tot_abs_Q>
0

> <r_epik_Metal_State_Penalty>
0.000111506

> <b_epik_Metal_Only>
0

> <s_lp_Force_Field>
OPLS_2005

> <r_lp_Energy>
9.30743

> <b_lp_Chiralities_Consistent>
1

> <s_lp_Variant>
AV-unprocessed.smi:473-2

> <Gold.Version>
5.8.1

> <Gold.Id.Protein>
6NUR|6NUR_protein|mol2

> <Gold.PLP.Fitness>
53.8620

> <Gold.PLP.PLP>
-50.8714

> <Gold.PLP.part.hbond>
-2.0000

> <Gold.PLP.part.metal>
0.0000

> <Gold.PLP.part.buried>
-6.2480

> <Gold.PLP.part.nonpolar>
-42.2013

> <Gold.PLP.part.repulsive>
0.0871

> <Gold.PLP.ligand.clash>
0.0000

> <Gold.PLP.ligand.torsion>
1.2354

> <Gold.PLP.Chemscore.Hbond>
1.7680

> <Gold.PLP.Chemscore.CHOScore>
0.0000

> <Gold.PLP.Chemscore.Metal>
0.0000

> <Gold.Chemscore.Hbonds>
donor molecule, donor type, donor heavy atom, donor atom, acceptor molecule, acceptor atom, score
      P1  H  6931  6943       L1    18  0.90
      P1  H  6934  6947       L1    18  0.80

> <Gold.PLP.Chemscore.Internal.Correction>
0.1574

> <Gold.Rescore>
     Score         DG    S(hbond)    S(metal)    S(lipo)     H(rot)  DE(clash)    DE(int)     intcor
     17.99     -19.06       1.26        0.00     132.89       2.41       0.01       1.06       ----

> <Gold.Chemscore.Fitness>
17.9870

> <Gold.Chemscore.DG>
-19.0621

> <Gold.Chemscore.ZeroCoef>
-5.4800

> <Gold.Chemscore.Hbond>
1.2573

> <Gold.Chemscore.Metal>
0.0000

> <Gold.Chemscore.Lipo>
132.8878

> <Gold.Chemscore.Internal_Hbond>
0.0000

> <Gold.Chemscore.DEClash>
0.0139

> <Gold.Chemscore.DEInternal>
1.0612

> <Gold.Chemscore.Rot>
2.4083

> <Gold.Chemscore.Internal.Correction>
   9.000000E+99

> <Gold.Chemscore.Hbonds>
donor molecule, donor type, donor heavy atom, donor atom, acceptor molecule, acceptor atom, score
      P1  H  6931  6943       L1    18  0.28
      P1  H  6934  6947       L1    18  0.79

> <Gold.Chemscore.Hbond.Weighted>
-4.1995

> <Gold.Chemscore.Metal.Weighted>
-0.0000

> <Gold.Chemscore.Lipo.Weighted>
-15.5479

> <Gold.Chemscore.Internal_Hbond.Weighted>
0.0000

> <Gold.Chemscore.DEClash.Weighted>
0.0139

> <Gold.Chemscore.DEInternal.Weighted>
1.0612

> <Gold.Chemscore.Rot.Weighted>
6.1653

> <Gold.Chemscore.Internal.Correction.Weighted>
   9.000000E+99

> <Gold.Protein.RotatedTorsions>
[ 6907 6896 6895 6894 ] final -169.81 input  -60.11 | X-H torsion
[ 7974 7965 7964 7962 ] final -132.85 input  175.53 | X-H torsion
[ 8008 7997 7996 7995 ] final  138.16 input   59.86 | X-H torsion
[ 10167 10162 10161 10158 ] final    9.96 input  -65.29 | X-H torsion
[ 10718 10713 10712 10709 ] final  -46.31 input   66.30 | X-H torsion
[ 10763 10752 10751 10750 ] final   36.21 input  -60.55 | X-H torsion
[ 11005 11000 10999 10996 ] final  -63.22 input  -57.11 | X-H torsion

> <Gold.Protein.ActiveResidues>
 VAL166  LYS551  ARG553  GLY616  TRP617  ASP618  TYR619  PRO620  LYS621  CYS622 
 ASP623  PHE694  ASN695  SER759  ASP760  ASP761  ALA762  ILE779  LEU786  VAL792 
 PHE793  MET794  SER795  GLU796  ALA797  LYS798  CYS799  TRP800  GLU811  SER814 

> <Gold.Protein.RotatedAtoms>
  151.4976  133.3511  159.2863 H   0  0  0  0  0  0  0  0  0  0  0  0  # atno 6907 bound_to 6896
  150.8794  134.8184  159.7224 H   0  0  0  0  0  0  0  0  0  0  0  0  # atno 6908 bound_to 6896
  152.4752  134.4872  159.9736 H   0  0  0  0  0  0  0  0  0  0  0  0  # atno 6909 bound_to 6896
  144.9247  140.7057  143.4943 H   0  0  0  0  0  0  0  0  0  0  0  0  # atno 7974 bound_to 7965
  156.2999  140.2401  156.4027 H   0  0  0  0  0  0  0  0  0  0  0  0  # atno 8008 bound_to 7997
  154.8512  140.0424  157.1625 H   0  0  0  0  0  0  0  0  0  0  0  0  # atno 8009 bound_to 7997
  154.8996  140.2975  155.5328 H   0  0  0  0  0  0  0  0  0  0  0  0  # atno 8010 bound_to 7997
  140.6223  143.8177  150.7190 H   0  0  0  0  0  0  0  0  0  0  0  0  # atno 10167 bound_to 10162
  156.2196  130.4165  149.9010 H   0  0  0  0  0  0  0  0  0  0  0  0  # atno 10718 bound_to 10713
  153.0086  135.6312  154.1949 H   0  0  0  0  0  0  0  0  0  0  0  0  # atno 10763 bound_to 10752
  154.1692  135.2819  155.3088 H   0  0  0  0  0  0  0  0  0  0  0  0  # atno 10764 bound_to 10752
  154.5922  135.5614  153.7350 H   0  0  0  0  0  0  0  0  0  0  0  0  # atno 10765 bound_to 10752
  141.1386  133.6649  156.5648 H   0  0  0  0  0  0  0  0  0  0  0  0  # atno 11005 bound_to 11000
  145.3239  139.1780  143.4573 LP  0  0  0  0  0  0  0  0  0  0  0  0  # atno 17320 bound_to 7965
  146.3221  140.3259  142.8637 LP  0  0  0  0  0  0  0  0  0  0  0  0  # atno 17321 bound_to 7965
  140.1770  143.4147  152.1960 LP  0  0  0  0  0  0  0  0  0  0  0  0  # atno 17342 bound_to 10162
  139.5449  144.7290  151.4614 LP  0  0  0  0  0  0  0  0  0  0  0  0  # atno 17343 bound_to 10162
  156.6661  130.8801  151.3555 LP  0  0  0  0  0  0  0  0  0  0  0  0  # atno 17370 bound_to 10713
  157.7080  130.9408  150.0996 LP  0  0  0  0  0  0  0  0  0  0  0  0  # atno 17371 bound_to 10713
  140.3960  134.7399  157.4751 LP  0  0  0  0  0  0  0  0  0  0  0  0  # atno 17394 bound_to 11000
  140.0531  134.6102  155.8837 LP  0  0  0  0  0  0  0  0  0  0  0  0  # atno 17395 bound_to 11000

$$$$
