AV-unprocessed.smi:33|AV-procd|sdf|200|dock5
  -GOLD-   2262015473D 1   1.00000     0.00000
 Structure written by MMmdl.
 67 72  0  0  0  0  0  0  0  0  1 V2000
  149.1055  142.0898  157.1686 O   0  0  0  0  0  0  0  0  0  0  0  0
  150.0795  141.7904  157.8622 C   0  0  0  0  0  0  0  0  0  0  0  0
  150.6406  140.5654  157.8708 O   0  0  0  0  0  0  0  0  0  0  0  0
  150.0112  139.4902  157.1936 C   0  0  0  0  0  0  0  0  0  0  0  0
  151.0011  138.3202  157.0707 C   0  0  1  0  0  0  0  0  0  0  0  0
  150.3132  137.0768  157.1907 O   0  0  0  0  0  0  0  0  0  0  0  0
  149.9391  136.5845  155.9353 C   0  0  1  0  0  0  0  0  0  0  0  0
  148.4436  136.6216  155.8273 N   0  0  0  0  0  0  0  0  0  0  0  0
  147.5839  137.6959  155.9286 C   0  0  0  0  0  0  0  0  0  0  0  0
  146.3147  137.4087  155.8144 N   0  0  0  0  0  0  0  0  0  0  0  0
  146.2954  136.0309  155.6401 C   0  0  0  0  0  0  0  0  0  0  0  0
  145.2657  135.0671  155.4587 C   0  0  0  0  0  0  0  0  0  0  0  0
  143.9500  135.3888  155.4128 N   0  0  0  0  0  0  0  0  0  0  0  0
  143.4078  135.8113  154.1128 C   0  0  0  0  0  0  0  0  0  0  0  0
  142.4123  136.5371  154.0759 O   0  0  0  0  0  0  0  0  0  0  0  0
  144.0877  135.4052  152.8358 C   0  0  0  0  0  0  0  0  0  0  0  0
  144.1424  136.3029  151.7470 C   0  0  0  0  0  0  0  0  0  0  0  0
  144.7679  135.9227  150.5437 C   0  0  0  0  0  0  0  0  0  0  0  0
  145.3253  134.6363  150.4148 C   0  0  0  0  0  0  0  0  0  0  0  0
  145.2485  133.7263  151.4860 C   0  0  0  0  0  0  0  0  0  0  0  0
  144.6241  134.1060  152.6898 C   0  0  0  0  0  0  0  0  0  0  0  0
  143.1800  135.2744  156.6617 C   0  0  0  0  0  0  0  0  0  0  0  0
  141.9628  135.0893  156.6095 O   0  0  0  0  0  0  0  0  0  0  0  0
  143.8729  135.3231  157.9947 C   0  0  0  0  0  0  0  0  0  0  0  0
  143.4986  134.4245  159.0180 C   0  0  0  0  0  0  0  0  0  0  0  0
  144.1341  134.4735  160.2741 C   0  0  0  0  0  0  0  0  0  0  0  0
  145.1347  135.4324  160.5210 C   0  0  0  0  0  0  0  0  0  0  0  0
  145.4926  136.3498  159.5150 C   0  0  0  0  0  0  0  0  0  0  0  0
  144.8572  136.3022  158.2592 C   0  0  0  0  0  0  0  0  0  0  0  0
  145.6318  133.7649  155.3267 N   0  0  0  0  0  0  0  0  0  0  0  0
  146.9240  133.4277  155.3737 C   0  0  0  0  0  0  0  0  0  0  0  0
  147.9883  134.2175  155.5356 N   0  0  0  0  0  0  0  0  0  0  0  0
  147.6239  135.5263  155.6631 C   0  0  0  0  0  0  0  0  0  0  0  0
  150.6482  137.4477  154.8653 C   0  0  1  0  0  0  0  0  0  0  0  0
  149.8002  138.3301  154.1502 O   0  0  0  0  0  0  0  0  0  0  0  0
  151.6526  138.2334  155.6909 C   0  0  2  0  0  0  0  0  0  0  0  0
  152.7908  137.5435  155.7824 F   0  0  0  0  0  0  0  0  0  0  0  0
  150.7609  142.7472  158.7811 C   0  0  0  0  0  0  0  0  0  0  0  0
  151.8103  142.2847  159.6092 C   0  0  0  0  0  0  0  0  0  0  0  0
  152.4689  143.1635  160.4911 C   0  0  0  0  0  0  0  0  0  0  0  0
  152.0858  144.5157  160.5562 C   0  0  0  0  0  0  0  0  0  0  0  0
  151.0439  144.9884  159.7374 C   0  0  0  0  0  0  0  0  0  0  0  0
  150.3846  144.1112  158.8540 C   0  0  0  0  0  0  0  0  0  0  0  0
  149.1029  139.1799  157.7106 H   0  0  0  0  0  0  0  0  0  0  0  0
  149.7166  139.8347  156.2016 H   0  0  0  0  0  0  0  0  0  0  0  0
  151.7612  138.4084  157.8481 H   0  0  0  0  0  0  0  0  0  0  0  0
  150.1872  135.5245  155.8681 H   0  0  0  0  0  0  0  0  0  0  0  0
  147.9222  138.7085  156.0921 H   0  0  0  0  0  0  0  0  0  0  0  0
  143.7182  137.2929  151.8349 H   0  0  0  0  0  0  0  0  0  0  0  0
  144.8194  136.6184  149.7194 H   0  0  0  0  0  0  0  0  0  0  0  0
  145.8054  134.3456  149.4920 H   0  0  0  0  0  0  0  0  0  0  0  0
  145.6673  132.7361  151.3847 H   0  0  0  0  0  0  0  0  0  0  0  0
  144.5667  133.3974  153.5037 H   0  0  0  0  0  0  0  0  0  0  0  0
  142.7322  133.6840  158.8397 H   0  0  0  0  0  0  0  0  0  0  0  0
  143.8530  133.7751  161.0485 H   0  0  0  0  0  0  0  0  0  0  0  0
  145.6223  135.4688  161.4841 H   0  0  0  0  0  0  0  0  0  0  0  0
  146.2541  137.0914  159.7067 H   0  0  0  0  0  0  0  0  0  0  0  0
  145.1368  137.0153  157.4969 H   0  0  0  0  0  0  0  0  0  0  0  0
  147.1357  132.3744  155.2643 H   0  0  0  0  0  0  0  0  0  0  0  0
  151.1418  136.7960  154.1434 H   0  0  0  0  0  0  0  0  0  0  0  0
  150.0306  138.2863  153.2342 H   0  0  0  0  0  0  0  0  0  0  0  0
  151.9092  139.2054  155.2671 H   0  0  0  0  0  0  0  0  0  0  0  0
  152.1210  141.2504  159.5780 H   0  0  0  0  0  0  0  0  0  0  0  0
  153.2683  142.7986  161.1191 H   0  0  0  0  0  0  0  0  0  0  0  0
  152.5902  145.1893  161.2333 H   0  0  0  0  0  0  0  0  0  0  0  0
  150.7482  146.0260  159.7871 H   0  0  0  0  0  0  0  0  0  0  0  0
  149.5883  144.5068  158.2407 H   0  0  0  0  0  0  0  0  0  0  0  0
  1  2  2  0  0  0  0
  2  3  1  0  0  0  0
  2 38  1  0  0  0  0
  3  4  1  0  0  0  0
  4  5  1  0  0  0  0
  4 44  1  0  0  0  0
  4 45  1  0  0  0  0
  5 36  1  0  0  0  0
  5  6  1  0  0  0  0
  5 46  1  0  0  0  0
  6  7  1  0  0  0  0
  7  8  1  0  0  0  0
  7 34  1  0  0  0  0
  7 47  1  0  0  0  0
  8 33  1  0  0  0  0
  8  9  1  0  0  0  0
  9 10  2  0  0  0  0
  9 48  1  0  0  0  0
 10 11  1  0  0  0  0
 11 33  2  0  0  0  0
 11 12  1  0  0  0  0
 12 13  1  0  0  0  0
 12 30  2  0  0  0  0
 13 14  1  0  0  0  0
 13 22  1  0  0  0  0
 14 15  2  0  0  0  0
 14 16  1  0  0  0  0
 16 21  1  0  0  0  0
 16 17  2  0  0  0  0
 17 18  1  0  0  0  0
 17 49  1  0  0  0  0
 18 19  2  0  0  0  0
 18 50  1  0  0  0  0
 19 20  1  0  0  0  0
 19 51  1  0  0  0  0
 20 21  2  0  0  0  0
 20 52  1  0  0  0  0
 21 53  1  0  0  0  0
 22 23  2  0  0  0  0
 22 24  1  0  0  0  0
 24 29  1  0  0  0  0
 24 25  2  0  0  0  0
 25 26  1  0  0  0  0
 25 54  1  0  0  0  0
 26 27  2  0  0  0  0
 26 55  1  0  0  0  0
 27 28  1  0  0  0  0
 27 56  1  0  0  0  0
 28 29  2  0  0  0  0
 28 57  1  0  0  0  0
 29 58  1  0  0  0  0
 30 31  1  0  0  0  0
 31 32  2  0  0  0  0
 31 59  1  0  0  0  0
 32 33  1  0  0  0  0
 34 35  1  0  0  0  0
 34 36  1  0  0  0  0
 34 60  1  0  0  0  0
 35 61  1  0  0  0  0
 36 37  1  0  0  0  0
 36 62  1  0  0  0  0
 38 43  1  0  0  0  0
 38 39  2  0  0  0  0
 39 40  1  0  0  0  0
 39 63  1  0  0  0  0
 40 41  2  0  0  0  0
 40 64  1  0  0  0  0
 41 42  1  0  0  0  0
 41 65  1  0  0  0  0
 42 43  2  0  0  0  0
 42 66  1  0  0  0  0
 43 67  1  0  0  0  0
M  END
> <s_m_source_file>
AV-unprocessed.smi

> <i_m_source_file_index>
33

> <i_lp_mmshare_version>
43012

> <i_f3d_flags>
0

> <s_epik_input>
W2NIXTFbY0hdW2NIXVtjSF1bY0hdYzFDKD1PKU9bQ0gyXVtDQEBIXTJPW0NASF0oW0NAQEhdKFtPSF0pW0NAQEhdMkYpbihbY0hdbjMpYyhjMzQpbltjSF1uYzROKEMoPU8pYzVbY0hdW2NIXVtjSF1bY0hdW2NIXTUpQyg9TyljNltjSF1bY0hdW2NIXVtjSF1bY0hdNg==

> <s_epik_cmdline>
J2VwaWtfcHl0aG9uJywgJy1waCcsICc3LjAnLCAnLXRuJywgJzgnLCAnLW1hJywgJzIwMCcsICctbWV0YWxfYmluZGluZycsICctaW1hZScsICc8aW5maWxlLm1hZT4nLCAnLW9tYWUnLCAnPG91dGZpbGUubWFlPic=

> <r_lp_tautomer_probability>
1

> <r_epik_Ionization_Penalty>
0.00067664

> <r_epik_Ionization_Penalty_Charging>
0

> <r_epik_Ionization_Penalty_Neutral>
0.00067664

> <r_epik_State_Penalty>
0.000428095

> <r_epik_Charging_Adjusted_Penalty>
0.000428095

> <i_epik_Tot_Q>
0

> <i_epik_Tot_abs_Q>
0

> <r_epik_Metal_State_Penalty>
-0

> <b_epik_Metal_Only>
0

> <s_epik_Chemistry_Notes>
This compound has an ester and may undergo hydrolysis at high or low pH. This compound contains an acetal/aminal-like group ( X-CH(R)-Y where X, Y are N, S, or O) that may be acid/base labile, releasing an aldehyde.

> <s_lp_Force_Field>
OPLS_2005

> <r_lp_Energy>
73.7321

> <b_lp_Chiralities_Consistent>
1

> <s_lp_Variant>
AV-unprocessed.smi:33-2

> <Gold.Version>
5.8.1

> <Gold.Id.Protein>
6NUR|6NUR_protein|mol2

> <Gold.PLP.Fitness>
51.0439

> <Gold.PLP.PLP>
-51.9717

> <Gold.PLP.part.hbond>
-2.7138

> <Gold.PLP.part.metal>
0.0000

> <Gold.PLP.part.buried>
-9.0162

> <Gold.PLP.part.nonpolar>
-41.5945

> <Gold.PLP.part.repulsive>
0.4964

> <Gold.PLP.ligand.clash>
2.9059

> <Gold.PLP.ligand.torsion>
3.8828

> <Gold.PLP.Chemscore.Hbond>
2.0000

> <Gold.PLP.Chemscore.CHOScore>
0.0000

> <Gold.PLP.Chemscore.Metal>
0.0000

> <Gold.PLP.Chemscore.Internal.Correction>
3.7436

> <Gold.Rescore>
     Score         DG    S(hbond)    S(metal)    S(lipo)     H(rot)  DE(clash)    DE(int)     intcor
     12.14     -20.83       1.91        0.00     131.97       2.52       1.79       6.91       ----

> <Gold.Chemscore.Fitness>
12.1354

> <Gold.Chemscore.DG>
-20.8317

> <Gold.Chemscore.ZeroCoef>
-5.4800

> <Gold.Chemscore.Hbond>
1.9084

> <Gold.Chemscore.Metal>
0.0000

> <Gold.Chemscore.Lipo>
131.9734

> <Gold.Chemscore.Internal_Hbond>
0.0000

> <Gold.Chemscore.DEClash>
1.7859

> <Gold.Chemscore.DEInternal>
6.9105

> <Gold.Chemscore.Rot>
2.5247

> <Gold.Chemscore.Internal.Correction>
   9.000000E+99

> <Gold.Chemscore.Hbonds>
donor molecule, donor type, donor heavy atom, donor atom, acceptor molecule, acceptor atom, score
      P1  H 11000 11005       L1    23  0.02

> <Gold.Chemscore.Hbond.Weighted>
-6.3741

> <Gold.Chemscore.Metal.Weighted>
-0.0000

> <Gold.Chemscore.Lipo.Weighted>
-15.4409

> <Gold.Chemscore.Internal_Hbond.Weighted>
0.0000

> <Gold.Chemscore.DEClash.Weighted>
1.7859

> <Gold.Chemscore.DEInternal.Weighted>
6.9105

> <Gold.Chemscore.Rot.Weighted>
6.4633

> <Gold.Chemscore.Internal.Correction.Weighted>
   9.000000E+99

> <Gold.Protein.RotatedTorsions>
[ 6907 6896 6895 6894 ] final  -97.39 input  -60.11 | X-H torsion
[ 7974 7965 7964 7962 ] final  159.35 input  175.53 | X-H torsion
[ 8008 7997 7996 7995 ] final   88.34 input   59.86 | X-H torsion
[ 10167 10162 10161 10158 ] final  125.69 input  -65.29 | X-H torsion
[ 10718 10713 10712 10709 ] final -122.06 input   66.30 | X-H torsion
[ 10763 10752 10751 10750 ] final -134.56 input  -60.55 | X-H torsion
[ 11005 11000 10999 10996 ] final  -92.15 input  -57.11 | X-H torsion

> <Gold.Protein.ActiveResidues>
 VAL166  LYS551  ARG553  GLY616  TRP617  ASP618  TYR619  PRO620  LYS621  CYS622 
 ASP623  PHE694  ASN695  SER759  ASP760  ASP761  ALA762  ILE779  LEU786  VAL792 
 PHE793  MET794  SER795  GLU796  ALA797  LYS798  CYS799  TRP800  GLU811  SER814 

> <Gold.Protein.RotatedAtoms>
  150.7015  134.1356  159.4085 H   0  0  0  0  0  0  0  0  0  0  0  0  # atno 6907 bound_to 6896
  151.9341  135.0241  160.0540 H   0  0  0  0  0  0  0  0  0  0  0  0  # atno 6908 bound_to 6896
  152.2150  133.4905  159.5168 H   0  0  0  0  0  0  0  0  0  0  0  0  # atno 6909 bound_to 6896
  144.7795  139.7605  143.6265 H   0  0  0  0  0  0  0  0  0  0  0  0  # atno 7974 bound_to 7965
  155.9865  140.3372  155.6712 H   0  0  0  0  0  0  0  0  0  0  0  0  # atno 8008 bound_to 7997
  155.6478  140.0702  157.2615 H   0  0  0  0  0  0  0  0  0  0  0  0  # atno 8009 bound_to 7997
  154.4207  140.1731  156.1630 H   0  0  0  0  0  0  0  0  0  0  0  0  # atno 8010 bound_to 7997
  139.5672  144.6918  151.3878 H   0  0  0  0  0  0  0  0  0  0  0  0  # atno 10167 bound_to 10162
  156.1388  130.6450  150.9738 H   0  0  0  0  0  0  0  0  0  0  0  0  # atno 10718 bound_to 10713
  154.8717  135.3731  154.4755 H   0  0  0  0  0  0  0  0  0  0  0  0  # atno 10763 bound_to 10752
  153.5412  135.7026  153.5640 H   0  0  0  0  0  0  0  0  0  0  0  0  # atno 10764 bound_to 10752
  153.3801  135.3999  155.1815 H   0  0  0  0  0  0  0  0  0  0  0  0  # atno 10765 bound_to 10752
  141.1528  133.7802  156.9980 H   0  0  0  0  0  0  0  0  0  0  0  0  # atno 11005 bound_to 11000
  146.1995  139.5281  142.9753 LP  0  0  0  0  0  0  0  0  0  0  0  0  # atno 17320 bound_to 7965
  145.6091  141.0342  143.1976 LP  0  0  0  0  0  0  0  0  0  0  0  0  # atno 17321 bound_to 7965
  140.6956  143.7758  150.7321 LP  0  0  0  0  0  0  0  0  0  0  0  0  # atno 17342 bound_to 10162
  140.1253  143.4575  152.2288 LP  0  0  0  0  0  0  0  0  0  0  0  0  # atno 17343 bound_to 10162
  157.6556  131.0890  150.7954 LP  0  0  0  0  0  0  0  0  0  0  0  0  # atno 17370 bound_to 10713
  156.8031  130.4927  149.5367 LP  0  0  0  0  0  0  0  0  0  0  0  0  # atno 17371 bound_to 10713
  140.0959  134.9565  157.1848 LP  0  0  0  0  0  0  0  0  0  0  0  0  # atno 17394 bound_to 11000
  140.3383  134.2732  155.7216 LP  0  0  0  0  0  0  0  0  0  0  0  0  # atno 17395 bound_to 11000

$$$$
