AV-unprocessed.smi:1946|AV-procd|sdf|7861|dock4
  -GOLD-   2272010 13D 1   1.00000     0.00000
 Structure written by MMmdl.
 38 40  0  0  0  0  0  0  0  0  1 V2000
  152.2722  142.4451  160.0816 C   0  0  0  0  0  0  0  0  0  0  0  0
  150.9769  143.5191  159.3409 S   0  0  0  0  0  0  0  0  0  0  0  0
  149.8612  143.6132  160.2951 O   0  0  0  0  0  0  0  0  0  0  0  0
  151.6256  144.7474  158.8558 O   0  0  0  0  0  0  0  0  0  0  0  0
  150.4173  142.5847  157.9223 C   0  0  0  0  0  0  0  0  0  0  0  0
  149.0373  142.4163  157.6932 C   0  0  0  0  0  0  0  0  0  0  0  0
  148.6019  141.7066  156.5573 C   0  0  0  0  0  0  0  0  0  0  0  0
  149.5411  141.1779  155.6432 C   0  0  0  0  0  0  0  0  0  0  0  0
  149.0806  140.4027  154.4187 C   0  0  2  0  0  0  0  0  0  0  0  0
  149.5663  140.9628  153.2135 O   0  0  0  0  0  0  0  0  0  0  0  0
  147.5442  140.3028  154.3645 C   0  0  0  0  0  0  0  0  0  0  0  0
  147.0856  139.4177  153.3094 N   0  0  0  0  0  0  0  0  0  0  0  0
  147.1934  139.6067  151.9801 C   0  0  0  0  0  0  0  0  0  0  0  0
  146.7016  138.6576  151.1882 N   0  0  0  0  0  0  0  0  0  0  0  0
  146.2181  137.7462  152.1115 C   0  0  0  0  0  0  0  0  0  0  0  0
  145.5704  136.5041  151.9232 C   0  0  0  0  0  0  0  0  0  0  0  0
  145.1605  135.7367  153.0335 C   0  0  0  0  0  0  0  0  0  0  0  0
  145.3913  136.1971  154.3463 C   0  0  0  0  0  0  0  0  0  0  0  0
  146.0355  137.4311  154.5592 C   0  0  0  0  0  0  0  0  0  0  0  0
  146.4423  138.1935  153.4485 C   0  0  0  0  0  0  0  0  0  0  0  0
  150.9212  141.3624  155.8776 C   0  0  0  0  0  0  0  0  0  0  0  0
  151.3616  142.0700  157.0126 C   0  0  0  0  0  0  0  0  0  0  0  0
  152.6809  142.9292  160.9682 H   0  0  0  0  0  0  0  0  0  0  0  0
  153.0696  142.2834  159.3566 H   0  0  0  0  0  0  0  0  0  0  0  0
  151.8350  141.4867  160.3609 H   0  0  0  0  0  0  0  0  0  0  0  0
  148.3122  142.8248  158.3816 H   0  0  0  0  0  0  0  0  0  0  0  0
  147.5435  141.5693  156.3898 H   0  0  0  0  0  0  0  0  0  0  0  0
  149.4949  139.3954  154.4810 H   0  0  0  0  0  0  0  0  0  0  0  0
  149.4257  140.3409  152.5160 H   0  0  0  0  0  0  0  0  0  0  0  0
  147.1594  139.9231  155.3119 H   0  0  0  0  0  0  0  0  0  0  0  0
  147.0978  141.2876  154.2182 H   0  0  0  0  0  0  0  0  0  0  0  0
  147.6626  140.4894  151.5704 H   0  0  0  0  0  0  0  0  0  0  0  0
  145.3885  136.1410  150.9225 H   0  0  0  0  0  0  0  0  0  0  0  0
  144.6659  134.7893  152.8766 H   0  0  0  0  0  0  0  0  0  0  0  0
  145.0732  135.6021  155.1898 H   0  0  0  0  0  0  0  0  0  0  0  0
  146.2149  137.7876  155.5626 H   0  0  0  0  0  0  0  0  0  0  0  0
  151.6484  140.9624  155.1861 H   0  0  0  0  0  0  0  0  0  0  0  0
  152.4190  142.2140  157.1798 H   0  0  0  0  0  0  0  0  0  0  0  0
  1  2  1  0  0  0  0
  1 23  1  0  0  0  0
  1 24  1  0  0  0  0
  1 25  1  0  0  0  0
  2  3  2  0  0  0  0
  2  4  2  0  0  0  0
  2  5  1  0  0  0  0
  5 22  1  0  0  0  0
  5  6  2  0  0  0  0
  6  7  1  0  0  0  0
  6 26  1  0  0  0  0
  7  8  2  0  0  0  0
  7 27  1  0  0  0  0
  8  9  1  0  0  0  0
  8 21  1  0  0  0  0
  9 10  1  0  0  0  0
  9 11  1  0  0  0  0
  9 28  1  0  0  0  0
 10 29  1  0  0  0  0
 11 12  1  0  0  0  0
 11 30  1  0  0  0  0
 11 31  1  0  0  0  0
 12 20  1  0  0  0  0
 12 13  1  0  0  0  0
 13 14  2  0  0  0  0
 13 32  1  0  0  0  0
 14 15  1  0  0  0  0
 15 20  2  0  0  0  0
 15 16  1  0  0  0  0
 16 17  2  0  0  0  0
 16 33  1  0  0  0  0
 17 18  1  0  0  0  0
 17 34  1  0  0  0  0
 18 19  2  0  0  0  0
 18 35  1  0  0  0  0
 19 20  1  0  0  0  0
 19 36  1  0  0  0  0
 21 22  2  0  0  0  0
 21 37  1  0  0  0  0
 22 38  1  0  0  0  0
M  END
> <s_m_source_file>
AV-unprocessed.smi

> <i_m_source_file_index>
1946

> <i_lp_mmshare_version>
43012

> <i_f3d_flags>
0

> <s_epik_input>
W0NIM11TKD1PKSg9TyljMVtjSF1bY0hdYyhbY0hdW2NIXTEpW0NASF0oW09IXSlbQ0gyXW4oW2NIXW4yKWMoYzIzKVtjSF1bY0hdW2NIXVtjSF0z

> <s_epik_cmdline>
J2VwaWtfcHl0aG9uJywgJy1waCcsICc3LjAnLCAnLXRuJywgJzgnLCAnLW1hJywgJzIwMCcsICctbWV0YWxfYmluZGluZycsICctaW1hZScsICc8aW5maWxlLm1hZT4nLCAnLW9tYWUnLCAnPG91dGZpbGUubWFlPic=

> <r_epik_Ionization_Penalty>
0.0696512

> <r_epik_Ionization_Penalty_Charging>
0

> <r_epik_Ionization_Penalty_Neutral>
0.0696512

> <r_epik_State_Penalty>
0.0610247

> <r_epik_Charging_Adjusted_Penalty>
0.0610247

> <i_epik_Tot_Q>
0

> <i_epik_Tot_abs_Q>
0

> <r_epik_Metal_State_Penalty>
6.42746e-05

> <b_epik_Metal_Only>
0

> <s_lp_Force_Field>
OPLS_2005

> <r_lp_Energy>
7.3467

> <b_lp_Chiralities_Consistent>
1

> <s_lp_Variant>
AV-unprocessed.smi:1946-1

> <Gold.Version>
5.8.1

> <Gold.Id.Protein>
6NUR|6NUR_protein|mol2

> <Gold.PLP.Fitness>
43.1694

> <Gold.PLP.PLP>
-33.4401

> <Gold.PLP.part.hbond>
-4.0407

> <Gold.PLP.part.metal>
0.0000

> <Gold.PLP.part.buried>
0.1707

> <Gold.PLP.part.nonpolar>
-29.6569

> <Gold.PLP.part.repulsive>
0.5906

> <Gold.PLP.ligand.clash>
0.0475

> <Gold.PLP.ligand.torsion>
1.1883

> <Gold.PLP.Chemscore.Hbond>
2.8877

> <Gold.PLP.Chemscore.CHOScore>
0.4829

> <Gold.PLP.Chemscore.Metal>
0.0000

> <Gold.Chemscore.Hbonds>
donor molecule, donor type, donor heavy atom, donor atom, acceptor molecule, acceptor atom, score
      L1  H    10    29       P1  7957  0.62
      P1  H  6933  6944       L1     3  0.10
      P1  H  7954  7966       L1    14  0.83
      P1  H  7989  7998       L1    10  0.17
      P1  H  8011  8017       L1    10  1.00
      L1  C    13    32       P1  7957  0.53

> <Gold.PLP.Chemscore.Internal.Correction>
2.0414

> <Gold.Rescore>
     Score         DG    S(hbond)    S(metal)    S(lipo)     H(rot)  DE(clash)    DE(int)     intcor
     12.17     -16.50       2.06        0.00      78.72       1.98       2.05       2.28       ----

> <Gold.Chemscore.Fitness>
12.1673

> <Gold.Chemscore.DG>
-16.4964

> <Gold.Chemscore.ZeroCoef>
-5.4800

> <Gold.Chemscore.Hbond>
2.0615

> <Gold.Chemscore.Metal>
0.0000

> <Gold.Chemscore.Lipo>
78.7191

> <Gold.Chemscore.Internal_Hbond>
0.0000

> <Gold.Chemscore.DEClash>
2.0530

> <Gold.Chemscore.DEInternal>
2.2761

> <Gold.Chemscore.Rot>
1.9840

> <Gold.Chemscore.Internal.Correction>
   9.000000E+99

> <Gold.Chemscore.Hbonds>
donor molecule, donor type, donor heavy atom, donor atom, acceptor molecule, acceptor atom, score
      L1  H    10    29       P1  7957  0.60
      P1  H  6933  6944       L1     3  0.10
      P1  H  7954  7966       L1    14  0.57
      P1  H  7989  7998       L1    10  0.02
      P1  H  8011  8017       L1    10  0.30

> <Gold.Chemscore.Hbond.Weighted>
-6.8854

> <Gold.Chemscore.Metal.Weighted>
-0.0000

> <Gold.Chemscore.Lipo.Weighted>
-9.2101

> <Gold.Chemscore.Internal_Hbond.Weighted>
0.0000

> <Gold.Chemscore.DEClash.Weighted>
2.0530

> <Gold.Chemscore.DEInternal.Weighted>
2.2761

> <Gold.Chemscore.Rot.Weighted>
5.0791

> <Gold.Chemscore.Internal.Correction.Weighted>
   9.000000E+99

> <Gold.Protein.RotatedTorsions>
[ 6907 6896 6895 6894 ] final  156.53 input  -60.11 | X-H torsion
[ 7974 7965 7964 7962 ] final -121.46 input  175.53 | X-H torsion
[ 8008 7997 7996 7995 ] final -102.42 input   59.86 | X-H torsion
[ 10167 10162 10161 10158 ] final  -89.69 input  -65.29 | X-H torsion
[ 10718 10713 10712 10709 ] final -135.89 input   66.30 | X-H torsion
[ 10763 10752 10751 10750 ] final   15.11 input  -60.55 | X-H torsion
[ 11005 11000 10999 10996 ] final -167.89 input  -57.11 | X-H torsion

> <Gold.Protein.ActiveResidues>
 VAL166  LYS551  ARG553  GLY616  TRP617  ASP618  TYR619  PRO620  LYS621  CYS622 
 ASP623  PHE694  ASN695  SER759  ASP760  ASP761  ALA762  ILE779  LEU786  VAL792 
 PHE793  MET794  SER795  GLU796  ALA797  LYS798  CYS799  TRP800  GLU811  SER814 

> <Gold.Protein.RotatedAtoms>
  152.0283  133.3926  159.4286 H   0  0  0  0  0  0  0  0  0  0  0  0  # atno 6907 bound_to 6896
  150.6884  134.3549  159.4934 H   0  0  0  0  0  0  0  0  0  0  0  0  # atno 6908 bound_to 6896
  152.1332  134.9118  160.0608 H   0  0  0  0  0  0  0  0  0  0  0  0  # atno 6909 bound_to 6896
  145.0401  140.8137  143.4271 H   0  0  0  0  0  0  0  0  0  0  0  0  # atno 7974 bound_to 7965
  154.8564  140.0428  157.1637 H   0  0  0  0  0  0  0  0  0  0  0  0  # atno 8008 bound_to 7997
  154.8887  140.2983  155.5363 H   0  0  0  0  0  0  0  0  0  0  0  0  # atno 8009 bound_to 7997
  156.2997  140.2397  156.3899 H   0  0  0  0  0  0  0  0  0  0  0  0  # atno 8010 bound_to 7997
  140.3623  143.2835  151.9599 H   0  0  0  0  0  0  0  0  0  0  0  0  # atno 10167 bound_to 10162
  156.2711  130.7266  151.1233 H   0  0  0  0  0  0  0  0  0  0  0  0  # atno 10718 bound_to 10713
  153.1557  135.6786  153.8816 H   0  0  0  0  0  0  0  0  0  0  0  0  # atno 10763 bound_to 10752
  153.8228  135.3128  155.3413 H   0  0  0  0  0  0  0  0  0  0  0  0  # atno 10764 bound_to 10752
  154.7895  135.4843  154.0109 H   0  0  0  0  0  0  0  0  0  0  0  0  # atno 10765 bound_to 10752
  140.5482  134.5455  157.5116 H   0  0  0  0  0  0  0  0  0  0  0  0  # atno 11005 bound_to 11000
  145.1659  139.2432  143.5367 LP  0  0  0  0  0  0  0  0  0  0  0  0  # atno 17320 bound_to 7965
  146.3508  140.1397  142.8595 LP  0  0  0  0  0  0  0  0  0  0  0  0  # atno 17321 bound_to 7965
  139.4812  144.5981  151.7654 LP  0  0  0  0  0  0  0  0  0  0  0  0  # atno 17342 bound_to 10162
  140.5115  144.1018  150.5996 LP  0  0  0  0  0  0  0  0  0  0  0  0  # atno 17343 bound_to 10162
  157.7284  131.0632  150.5822 LP  0  0  0  0  0  0  0  0  0  0  0  0  # atno 17370 bound_to 10713
  156.5919  130.4331  149.5933 LP  0  0  0  0  0  0  0  0  0  0  0  0  # atno 17371 bound_to 10713
  139.9469  134.7686  156.0541 LP  0  0  0  0  0  0  0  0  0  0  0  0  # atno 17394 bound_to 11000
  141.1187  133.6619  156.3160 LP  0  0  0  0  0  0  0  0  0  0  0  0  # atno 17395 bound_to 11000

$$$$
