AV-unprocessed.smi:2923|AV-procd|sdf|11217|dock8
  -GOLD-   2272016103D 1   1.00000     0.00000
 Structure written by MMmdl.
 46 48  0  0  0  0  0  0  0  0  1 V2000
  147.4156  128.7281  152.4052 C   0  0  0  0  0  0  0  0  0  0  0  0
  148.3579  129.0562  153.4639 N   0  0  0  0  0  0  0  0  0  0  0  0
  148.1743  128.3608  154.7283 C   0  0  0  0  0  0  0  0  0  0  0  0
  148.5449  130.4355  153.6227 C   0  0  0  0  0  0  0  0  0  0  0  0
  149.5521  130.9479  154.4717 C   0  0  0  0  0  0  0  0  0  0  0  0
  149.6912  132.3437  154.5933 C   0  0  0  0  0  0  0  0  0  0  0  0
  148.8233  133.1840  153.8562 C   0  0  0  0  0  0  0  0  0  0  0  0
  148.8453  134.6033  153.9119 N   0  0  0  0  0  0  0  0  0  0  0  0
  149.0502  135.3964  154.9770 C   0  0  0  0  0  0  0  0  0  0  0  0
  149.2970  135.0096  156.1191 O   0  0  0  0  0  0  0  0  0  0  0  0
  148.9676  136.6892  154.6372 N   0  0  0  0  0  0  0  0  0  0  0  0
  149.1641  137.8102  155.5625 C   0  0  1  0  0  0  0  0  0  0  0  0
  150.6378  138.1992  155.7053 C   0  0  1  0  0  0  0  0  0  0  0  0
  151.9427  137.5538  155.4070 C   0  0  0  0  0  0  0  0  0  0  0  0
  152.6470  138.8047  154.8144 C   0  0  0  0  0  0  0  0  0  0  0  0
  151.6106  139.8067  154.6507 O   0  0  0  0  0  0  0  0  0  0  0  0
  150.4311  139.0488  154.4678 C   0  0  2  0  0  0  0  0  0  0  0  0
  148.9748  139.2523  154.9422 C   0  0  0  0  0  0  0  0  0  0  0  0
  147.9348  139.4050  153.8268 C   0  0  0  0  0  0  0  0  0  0  0  0
  148.7117  140.4122  155.9202 C   0  0  0  0  0  0  0  0  0  0  0  0
  147.8454  132.5693  153.0472 C   0  0  0  0  0  0  0  0  0  0  0  0
  147.7072  131.2324  152.9249 N   0  0  0  0  0  0  0  0  0  0  0  0
  147.6445  129.2848  151.4955 H   0  0  0  0  0  0  0  0  0  0  0  0
  146.3930  128.9606  152.7038 H   0  0  0  0  0  0  0  0  0  0  0  0
  147.4688  127.6647  152.1706 H   0  0  0  0  0  0  0  0  0  0  0  0
  148.9236  128.6738  155.4567 H   0  0  0  0  0  0  0  0  0  0  0  0
  148.2754  127.2850  154.5834 H   0  0  0  0  0  0  0  0  0  0  0  0
  147.1857  128.5584  155.1438 H   0  0  0  0  0  0  0  0  0  0  0  0
  150.2042  130.2877  155.0247 H   0  0  0  0  0  0  0  0  0  0  0  0
  150.4454  132.7372  155.2568 H   0  0  0  0  0  0  0  0  0  0  0  0
  148.7396  135.0717  153.0240 H   0  0  0  0  0  0  0  0  0  0  0  0
  148.7645  136.9197  153.6757 H   0  0  0  0  0  0  0  0  0  0  0  0
  148.6651  137.6824  156.5246 H   0  0  0  0  0  0  0  0  0  0  0  0
  150.7472  138.7954  156.6145 H   0  0  0  0  0  0  0  0  0  0  0  0
  152.4427  137.1726  156.2978 H   0  0  0  0  0  0  0  0  0  0  0  0
  151.8497  136.7502  154.6754 H   0  0  0  0  0  0  0  0  0  0  0  0
  153.4240  139.1873  155.4769 H   0  0  0  0  0  0  0  0  0  0  0  0
  153.1060  138.5721  153.8527 H   0  0  0  0  0  0  0  0  0  0  0  0
  150.4813  138.4896  153.5278 H   0  0  0  0  0  0  0  0  0  0  0  0
  147.9577  140.4041  153.3906 H   0  0  0  0  0  0  0  0  0  0  0  0
  146.9247  139.2305  154.1987 H   0  0  0  0  0  0  0  0  0  0  0  0
  148.1040  138.7032  153.0101 H   0  0  0  0  0  0  0  0  0  0  0  0
  148.8987  141.3762  155.4461 H   0  0  0  0  0  0  0  0  0  0  0  0
  149.3314  140.3780  156.8144 H   0  0  0  0  0  0  0  0  0  0  0  0
  147.6764  140.4138  156.2627 H   0  0  0  0  0  0  0  0  0  0  0  0
  147.1519  133.1683  152.4752 H   0  0  0  0  0  0  0  0  0  0  0  0
  1  2  1  0  0  0  0
  1 23  1  0  0  0  0
  1 24  1  0  0  0  0
  1 25  1  0  0  0  0
  2  3  1  0  0  0  0
  2  4  1  0  0  0  0
  3 26  1  0  0  0  0
  3 27  1  0  0  0  0
  3 28  1  0  0  0  0
  4 22  1  0  0  0  0
  4  5  2  0  0  0  0
  5  6  1  0  0  0  0
  5 29  1  0  0  0  0
  6  7  2  0  0  0  0
  6 30  1  0  0  0  0
  7  8  1  0  0  0  0
  7 21  1  0  0  0  0
  8  9  1  0  0  0  0
  8 31  1  0  0  0  0
  9 10  2  0  0  0  0
  9 11  1  0  0  0  0
 11 12  1  0  0  0  0
 11 32  1  0  0  0  0
 12 18  1  0  0  0  0
 12 13  1  0  0  0  0
 12 33  1  0  0  0  0
 13 17  1  0  0  0  0
 13 14  1  0  0  0  0
 13 34  1  0  0  0  0
 14 15  1  0  0  0  0
 14 35  1  0  0  0  0
 14 36  1  0  0  0  0
 15 16  1  0  0  0  0
 15 37  1  0  0  0  0
 15 38  1  0  0  0  0
 16 17  1  0  0  0  0
 17 18  1  0  0  0  0
 17 39  1  0  0  0  0
 18 19  1  0  0  0  0
 18 20  1  0  0  0  0
 19 40  1  0  0  0  0
 19 41  1  0  0  0  0
 19 42  1  0  0  0  0
 20 43  1  0  0  0  0
 20 44  1  0  0  0  0
 20 45  1  0  0  0  0
 21 22  2  0  0  0  0
 21 46  1  0  0  0  0
M  END
> <s_m_source_file>
AV-unprocessed.smi

> <i_m_source_file_index>
2923

> <i_lp_mmshare_version>
43012

> <i_f3d_flags>
0

> <s_epik_input>
W0NIM11OKFtDSDNdKWMxW2NIXVtjSF1jKFtjSF1uMSlbTkhdQyg9TylbTkhdW0NASF0yQyhbQ0gzXSkoW0NIM10pW0NAQEhdKFtDQEhdMjMpT1tDSDJdW0NIMl0z

> <s_epik_cmdline>
J2VwaWtfcHl0aG9uJywgJy1waCcsICc3LjAnLCAnLXRuJywgJzgnLCAnLW1hJywgJzIwMCcsICctbWV0YWxfYmluZGluZycsICctaW1hZScsICc8aW5maWxlLm1hZT4nLCAnLW9tYWUnLCAnPG91dGZpbGUubWFlPic=

> <r_lp_tautomer_probability>
1

> <r_epik_Ionization_Penalty>
0.628785

> <r_epik_Ionization_Penalty_Charging>
0

> <r_epik_Ionization_Penalty_Neutral>
0.628785

> <r_epik_State_Penalty>
0.644286

> <r_epik_Charging_Adjusted_Penalty>
0.644286

> <i_epik_Tot_Q>
0

> <i_epik_Tot_abs_Q>
0

> <r_epik_Metal_State_Penalty>
0.308404

> <b_epik_Metal_Only>
0

> <s_lp_Force_Field>
OPLS_2005

> <r_lp_Energy>
70.0187

> <b_lp_Chiralities_Consistent>
1

> <s_lp_Variant>
AV-unprocessed.smi:2923-16

> <Gold.Version>
5.8.1

> <Gold.Id.Protein>
6NUR|6NUR_protein|mol2

> <Gold.PLP.Fitness>
38.7242

> <Gold.PLP.PLP>
-30.8391

> <Gold.PLP.part.hbond>
-3.0000

> <Gold.PLP.part.metal>
0.0000

> <Gold.PLP.part.buried>
-2.7411

> <Gold.PLP.part.nonpolar>
-26.2795

> <Gold.PLP.part.repulsive>
1.4202

> <Gold.PLP.ligand.clash>
0.0000

> <Gold.PLP.ligand.torsion>
0.5886

> <Gold.PLP.Chemscore.Hbond>
2.8640

> <Gold.PLP.Chemscore.CHOScore>
0.0000

> <Gold.PLP.Chemscore.Metal>
0.0000

> <Gold.Chemscore.Hbonds>
donor molecule, donor type, donor heavy atom, donor atom, acceptor molecule, acceptor atom, score
      L1  H     8    31       P1  7948  1.00
      L1  H    11    32       P1  7948  0.83
      P1  H  7989  7998       L1    16  1.00

> <Gold.PLP.Chemscore.Internal.Correction>
0.4703

> <Gold.Rescore>
     Score         DG    S(hbond)    S(metal)    S(lipo)     H(rot)  DE(clash)    DE(int)     intcor
     17.93     -18.58       2.30        0.00      72.53       1.19       0.03       0.62       ----

> <Gold.Chemscore.Fitness>
17.9294

> <Gold.Chemscore.DG>
-18.5838

> <Gold.Chemscore.ZeroCoef>
-5.4800

> <Gold.Chemscore.Hbond>
2.2974

> <Gold.Chemscore.Metal>
0.0000

> <Gold.Chemscore.Lipo>
72.5318

> <Gold.Chemscore.Internal_Hbond>
0.0000

> <Gold.Chemscore.DEClash>
0.0339

> <Gold.Chemscore.DEInternal>
0.6205

> <Gold.Chemscore.Rot>
1.1937

> <Gold.Chemscore.Internal.Correction>
   9.000000E+99

> <Gold.Chemscore.Hbonds>
donor molecule, donor type, donor heavy atom, donor atom, acceptor molecule, acceptor atom, score
      L1  H     8    31       P1  7948  0.44
      L1  H    11    32       P1  7948  0.81
      P1  H  7989  7998       L1    16  0.57

> <Gold.Chemscore.Hbond.Weighted>
-7.6734

> <Gold.Chemscore.Metal.Weighted>
-0.0000

> <Gold.Chemscore.Lipo.Weighted>
-8.4862

> <Gold.Chemscore.Internal_Hbond.Weighted>
0.0000

> <Gold.Chemscore.DEClash.Weighted>
0.0339

> <Gold.Chemscore.DEInternal.Weighted>
0.6205

> <Gold.Chemscore.Rot.Weighted>
3.0559

> <Gold.Chemscore.Internal.Correction.Weighted>
   9.000000E+99

> <Gold.Protein.RotatedTorsions>
[ 6907 6896 6895 6894 ] final  -38.55 input  -60.11 | X-H torsion
[ 7974 7965 7964 7962 ] final -177.86 input  175.53 | X-H torsion
[ 8008 7997 7996 7995 ] final   16.88 input   59.86 | X-H torsion
[ 10167 10162 10161 10158 ] final   92.97 input  -65.29 | X-H torsion
[ 10718 10713 10712 10709 ] final -120.23 input   66.30 | X-H torsion
[ 10763 10752 10751 10750 ] final  100.56 input  -60.55 | X-H torsion
[ 11005 11000 10999 10996 ] final  -59.64 input  -57.11 | X-H torsion

> <Gold.Protein.ActiveResidues>
 VAL166  LYS551  ARG553  GLY616  TRP617  ASP618  TYR619  PRO620  LYS621  CYS622 
 ASP623  PHE694  ASN695  SER759  ASP760  ASP761  ALA762  ILE779  LEU786  VAL792 
 PHE793  MET794  SER795  GLU796  ALA797  LYS798  CYS799  TRP800  GLU811  SER814 

> <Gold.Protein.RotatedAtoms>
  151.0011  134.9323  159.7953 H   0  0  0  0  0  0  0  0  0  0  0  0  # atno 6907 bound_to 6896
  152.5278  134.3153  159.9138 H   0  0  0  0  0  0  0  0  0  0  0  0  # atno 6908 bound_to 6896
  151.3159  133.4019  159.2685 H   0  0  0  0  0  0  0  0  0  0  0  0  # atno 6909 bound_to 6896
  144.7129  140.0956  143.6419 H   0  0  0  0  0  0  0  0  0  0  0  0  # atno 7974 bound_to 7965
  154.8833  140.2976  155.5412 H   0  0  0  0  0  0  0  0  0  0  0  0  # atno 8008 bound_to 7997
  156.3022  140.2438  156.3772 H   0  0  0  0  0  0  0  0  0  0  0  0  # atno 8009 bound_to 7997
  154.8694  140.0402  157.1704 H   0  0  0  0  0  0  0  0  0  0  0  0  # atno 8010 bound_to 7997
  139.8225  144.6725  150.9501 H   0  0  0  0  0  0  0  0  0  0  0  0  # atno 10167 bound_to 10162
  156.1242  130.6346  150.9514 H   0  0  0  0  0  0  0  0  0  0  0  0  # atno 10718 bound_to 10713
  153.3155  135.4074  155.1373 H   0  0  0  0  0  0  0  0  0  0  0  0  # atno 10763 bound_to 10752
  154.8587  135.3575  154.5666 H   0  0  0  0  0  0  0  0  0  0  0  0  # atno 10764 bound_to 10752
  153.6096  135.7068  153.5410 H   0  0  0  0  0  0  0  0  0  0  0  0  # atno 10765 bound_to 10752
  141.1256  133.6617  156.5102 H   0  0  0  0  0  0  0  0  0  0  0  0  # atno 11005 bound_to 11000
  145.9582  139.2782  143.1171 LP  0  0  0  0  0  0  0  0  0  0  0  0  # atno 17320 bound_to 7965
  145.9249  140.9089  143.0386 LP  0  0  0  0  0  0  0  0  0  0  0  0  # atno 17321 bound_to 7965
  140.7812  143.4078  151.1042 LP  0  0  0  0  0  0  0  0  0  0  0  0  # atno 17342 bound_to 10162
  139.7738  143.8456  152.3125 LP  0  0  0  0  0  0  0  0  0  0  0  0  # atno 17343 bound_to 10162
  157.6424  131.0908  150.8224 LP  0  0  0  0  0  0  0  0  0  0  0  0  # atno 17370 bound_to 10713
  156.8316  130.5018  149.5331 LP  0  0  0  0  0  0  0  0  0  0  0  0  # atno 17371 bound_to 10713
  140.4375  134.7046  157.4974 LP  0  0  0  0  0  0  0  0  0  0  0  0  # atno 17394 bound_to 11000
  140.0251  134.6488  155.9184 LP  0  0  0  0  0  0  0  0  0  0  0  0  # atno 17395 bound_to 11000

$$$$
