AV-unprocessed.smi:2083|AV-procd|sdf|8499|dock4
  -GOLD-   2272011213D 1   1.00000     0.00000
 Structure written by MMmdl.
 44 45  0  0  0  0  0  0  0  0  3 V2000
  150.8178  139.9595  154.3878 C   0  0  0  0  0  0  0  0  0  0  0  0
  150.9261  138.5084  154.7099 C   0  0  0  0  0  0  0  0  0  0  0  0
  151.3454  137.4266  153.9888 C   0  0  0  0  0  0  0  0  0  0  0  0
  151.1812  136.3465  154.8986 C   0  0  0  0  0  0  0  0  0  0  0  0
  151.4704  135.0589  154.6561 N   0  5  0  0  0  0  0  0  0  0  0  0
  150.5055  134.1160  154.7475 C   0  0  0  0  0  0  0  0  0  0  0  0
  150.4555  133.1955  155.5668 O   0  0  0  0  0  0  0  0  0  0  0  0
  149.5322  134.2517  153.8356 N   0  0  0  0  0  0  0  0  0  0  0  0
  148.3577  133.3940  153.7092 C   0  0  0  0  0  0  0  0  0  0  0  0
  148.5296  132.2907  152.6273 C   0  0  1  0  0  0  0  0  0  0  0  0
  149.1147  131.0080  153.2607 C   0  0  0  0  0  0  0  0  0  0  0  0
  147.2731  131.9595  151.8773 N   0  3  1  0  0  0  0  0  0  0  0  0
  146.3699  130.9624  152.5229 C   0  0  0  0  0  0  0  0  0  0  0  0
  145.1800  130.6042  151.6169 C   0  0  0  0  0  0  0  0  0  0  0  0
  144.3954  131.8529  151.2053 C   0  0  0  0  0  0  0  0  0  0  0  0
  145.3403  132.8688  150.5478 C   0  0  1  0  0  0  0  0  0  0  0  0
  144.5912  134.1436  150.1345 C   0  0  0  0  0  0  0  0  0  0  0  0
  146.5139  133.1855  151.4948 C   0  0  0  0  0  0  0  0  0  0  0  0
  150.7202  136.7408  156.0737 N   0  0  0  0  0  0  0  0  0  0  0  0
  150.5487  138.1255  155.9591 O   0  0  0  0  0  0  0  0  0  0  0  0
  151.8067  140.4020  154.2695 H   0  0  0  0  0  0  0  0  0  0  0  0
  150.2978  140.5005  155.1788 H   0  0  0  0  0  0  0  0  0  0  0  0
  150.2662  140.1079  153.4595 H   0  0  0  0  0  0  0  0  0  0  0  0
  151.7075  137.4088  152.9720 H   0  0  0  0  0  0  0  0  0  0  0  0
  149.6159  135.0152  153.1802 H   0  0  0  0  0  0  0  0  0  0  0  0
  148.1716  132.9409  154.6835 H   0  0  0  0  0  0  0  0  0  0  0  0
  147.5057  134.0399  153.4930 H   0  0  0  0  0  0  0  0  0  0  0  0
  149.2489  132.6691  151.8993 H   0  0  0  0  0  0  0  0  0  0  0  0
  150.0695  131.1992  153.7509 H   0  0  0  0  0  0  0  0  0  0  0  0
  149.3043  130.2257  152.5280 H   0  0  0  0  0  0  0  0  0  0  0  0
  148.4374  130.5978  154.0103 H   0  0  0  0  0  0  0  0  0  0  0  0
  146.8992  130.0322  152.7251 H   0  0  0  0  0  0  0  0  0  0  0  0
  146.0160  131.3525  153.4787 H   0  0  0  0  0  0  0  0  0  0  0  0
  145.5414  130.0893  150.7257 H   0  0  0  0  0  0  0  0  0  0  0  0
  144.5199  129.9042  152.1301 H   0  0  0  0  0  0  0  0  0  0  0  0
  143.5934  131.5783  150.5190 H   0  0  0  0  0  0  0  0  0  0  0  0
  143.9206  132.2952  152.0824 H   0  0  0  0  0  0  0  0  0  0  0  0
  145.7477  132.4192  149.6409 H   0  0  0  0  0  0  0  0  0  0  0  0
  144.1590  134.6484  150.9991 H   0  0  0  0  0  0  0  0  0  0  0  0
  143.7798  133.9155  149.4428 H   0  0  0  0  0  0  0  0  0  0  0  0
  145.2582  134.8481  149.6369 H   0  0  0  0  0  0  0  0  0  0  0  0
  146.1437  133.6747  152.3977 H   0  0  0  0  0  0  0  0  0  0  0  0
  147.1691  133.9034  151.0042 H   0  0  0  0  0  0  0  0  0  0  0  0
  147.5770  131.5255  151.0176 H   0  0  0  0  0  0  0  0  0  0  0  0
  1  2  1  0  0  0  0
  1 21  1  0  0  0  0
  1 22  1  0  0  0  0
  1 23  1  0  0  0  0
  2 20  1  0  0  0  0
  2  3  2  0  0  0  0
  3  4  1  0  0  0  0
  3 24  1  0  0  0  0
  4  5  1  0  0  0  0
  4 19  2  0  0  0  0
  5  6  1  0  0  0  0
  6  7  2  0  0  0  0
  6  8  1  0  0  0  0
  8  9  1  0  0  0  0
  8 25  1  0  0  0  0
  9 10  1  0  0  0  0
  9 26  1  0  0  0  0
  9 27  1  0  0  0  0
 10 11  1  0  0  0  0
 10 12  1  0  0  0  0
 10 28  1  0  0  0  0
 11 29  1  0  0  0  0
 11 30  1  0  0  0  0
 11 31  1  0  0  0  0
 12 18  1  0  0  0  0
 12 13  1  0  0  0  0
 12 44  1  0  0  0  0
 13 14  1  0  0  0  0
 13 32  1  0  0  0  0
 13 33  1  0  0  0  0
 14 15  1  0  0  0  0
 14 34  1  0  0  0  0
 14 35  1  0  0  0  0
 15 16  1  0  0  0  0
 15 36  1  0  0  0  0
 15 37  1  0  0  0  0
 16 17  1  0  0  0  0
 16 18  1  0  0  0  0
 16 38  1  0  0  0  0
 17 39  1  0  0  0  0
 17 40  1  0  0  0  0
 17 41  1  0  0  0  0
 18 42  1  0  0  0  0
 18 43  1  0  0  0  0
 19 20  1  0  0  0  0
M  CHG  1   5  -1
M  CHG  1  12   1
M  END
> <s_m_source_file>
AV-unprocessed.smi

> <i_m_source_file_index>
2083

> <i_lp_mmshare_version>
43012

> <i_f3d_flags>
0

> <s_epik_input>
W0NIM11jMVtjSF1jKG5vMSlbTkhdQyg9TylbTkhdW0NIMl1bQ0BIXShbQ0gzXSlOMltDSDJdW0NIMl1bQ0gyXVtDQEBIXShbQ0gzXSlbQ0gyXTI=

> <s_epik_cmdline>
J2VwaWtfcHl0aG9uJywgJy1waCcsICc3LjAnLCAnLXRuJywgJzgnLCAnLW1hJywgJzIwMCcsICctbWV0YWxfYmluZGluZycsICctaW1hZScsICc8aW5maWxlLm1hZT4nLCAnLW9tYWUnLCAnPG91dGZpbGUubWFlPic=

> <r_epik_Ionization_Penalty>
6.22434

> <r_epik_Ionization_Penalty_Charging>
6.22425

> <r_epik_Ionization_Penalty_Neutral>
9.62407e-05

> <r_epik_State_Penalty>
6.22423

> <r_epik_Charging_Adjusted_Penalty>
12.4485

> <i_epik_Tot_Q>
0

> <i_epik_Tot_abs_Q>
2

> <r_epik_Metal_State_Penalty>
2.16764

> <b_epik_Metal_Only>
1

> <s_lp_Force_Field>
OPLS_2005

> <r_lp_Energy>
9.18004

> <b_lp_Chiralities_Consistent>
1

> <s_lp_Variant>
AV-unprocessed.smi:2083-10

> <Gold.Version>
5.8.1

> <Gold.Id.Protein>
6NUR|6NUR_protein|mol2

> <Gold.PLP.Fitness>
43.5437

> <Gold.PLP.PLP>
-35.6210

> <Gold.PLP.part.hbond>
-3.0000

> <Gold.PLP.part.metal>
0.0000

> <Gold.PLP.part.buried>
-2.2656

> <Gold.PLP.part.nonpolar>
-28.6639

> <Gold.PLP.part.repulsive>
0.1814

> <Gold.PLP.ligand.clash>
0.0000

> <Gold.PLP.ligand.torsion>
2.1139

> <Gold.PLP.Chemscore.Hbond>
4.0000

> <Gold.PLP.Chemscore.CHOScore>
0.0000

> <Gold.PLP.Chemscore.Metal>
0.0000

> <Gold.Chemscore.Hbonds>
donor molecule, donor type, donor heavy atom, donor atom, acceptor molecule, acceptor atom, score
      L1  H     8    25       P1  7948  0.20
      L1  H    12    44       P1 10747  0.83
      P1  H 10752 10764       L1     5  0.37

> <Gold.PLP.Chemscore.Internal.Correction>
0.1504

> <Gold.Rescore>
     Score         DG    S(hbond)    S(metal)    S(lipo)     H(rot)  DE(clash)    DE(int)     intcor
     16.74     -18.81       2.31        0.00      81.22       1.52       0.02       2.05       ----

> <Gold.Chemscore.Fitness>
16.7390

> <Gold.Chemscore.DG>
-18.8060

> <Gold.Chemscore.ZeroCoef>
-5.4800

> <Gold.Chemscore.Hbond>
2.3089

> <Gold.Chemscore.Metal>
0.0000

> <Gold.Chemscore.Lipo>
81.2226

> <Gold.Chemscore.Internal_Hbond>
0.0000

> <Gold.Chemscore.DEClash>
0.0189

> <Gold.Chemscore.DEInternal>
2.0480

> <Gold.Chemscore.Rot>
1.5190

> <Gold.Chemscore.Internal.Correction>
   9.000000E+99

> <Gold.Chemscore.Hbonds>
donor molecule, donor type, donor heavy atom, donor atom, acceptor molecule, acceptor atom, score
      L1  H    12    44       P1 10747  0.81

> <Gold.Chemscore.Hbond.Weighted>
-7.7116

> <Gold.Chemscore.Metal.Weighted>
-0.0000

> <Gold.Chemscore.Lipo.Weighted>
-9.5030

> <Gold.Chemscore.Internal_Hbond.Weighted>
0.0000

> <Gold.Chemscore.DEClash.Weighted>
0.0189

> <Gold.Chemscore.DEInternal.Weighted>
2.0480

> <Gold.Chemscore.Rot.Weighted>
3.8886

> <Gold.Chemscore.Internal.Correction.Weighted>
   9.000000E+99

> <Gold.Protein.RotatedTorsions>
[ 6907 6896 6895 6894 ] final   89.47 input  -60.11 | X-H torsion
[ 7974 7965 7964 7962 ] final -176.75 input  175.53 | X-H torsion
[ 8008 7997 7996 7995 ] final -121.33 input   59.86 | X-H torsion
[ 10167 10162 10161 10158 ] final  113.39 input  -65.29 | X-H torsion
[ 10718 10713 10712 10709 ] final   86.85 input   66.30 | X-H torsion
[ 10763 10752 10751 10750 ] final  -56.27 input  -60.55 | X-H torsion
[ 11005 11000 10999 10996 ] final  123.94 input  -57.11 | X-H torsion

> <Gold.Protein.ActiveResidues>
 VAL166  LYS551  ARG553  GLY616  TRP617  ASP618  TYR619  PRO620  LYS621  CYS622 
 ASP623  PHE694  ASN695  SER759  ASP760  ASP761  ALA762  ILE779  LEU786  VAL792 
 PHE793  MET794  SER795  GLU796  ALA797  LYS798  CYS799  TRP800  GLU811  SER814 

> <Gold.Protein.RotatedAtoms>
  152.5436  134.1962  159.8693 H   0  0  0  0  0  0  0  0  0  0  0  0  # atno 6907 bound_to 6896
  151.1954  133.4635  159.2603 H   0  0  0  0  0  0  0  0  0  0  0  0  # atno 6908 bound_to 6896
  151.1042  135.0002  159.8518 H   0  0  0  0  0  0  0  0  0  0  0  0  # atno 6909 bound_to 6896
  144.7127  140.1123  143.6410 H   0  0  0  0  0  0  0  0  0  0  0  0  # atno 7974 bound_to 7965
  155.1462  140.0403  157.2810 H   0  0  0  0  0  0  0  0  0  0  0  0  # atno 8008 bound_to 7997
  154.6437  140.2553  155.7266 H   0  0  0  0  0  0  0  0  0  0  0  0  # atno 8009 bound_to 7997
  156.2545  140.2850  156.0841 H   0  0  0  0  0  0  0  0  0  0  0  0  # atno 8010 bound_to 7997
  139.6465  144.7127  151.2132 H   0  0  0  0  0  0  0  0  0  0  0  0  # atno 10167 bound_to 10162
  157.6933  131.0232  150.3035 H   0  0  0  0  0  0  0  0  0  0  0  0  # atno 10718 bound_to 10713
  154.2040  135.6406  153.5095 H   0  0  0  0  0  0  0  0  0  0  0  0  # atno 10763 bound_to 10752
  153.0005  135.5458  154.6285 H   0  0  0  0  0  0  0  0  0  0  0  0  # atno 10764 bound_to 10752
  154.5705  135.2916  155.0805 H   0  0  0  0  0  0  0  0  0  0  0  0  # atno 10765 bound_to 10752
  139.9335  134.9640  156.8334 H   0  0  0  0  0  0  0  0  0  0  0  0  # atno 11005 bound_to 11000
  145.9443  139.2690  143.1250 LP  0  0  0  0  0  0  0  0  0  0  0  0  # atno 17320 bound_to 7965
  145.9390  140.8993  143.0317 LP  0  0  0  0  0  0  0  0  0  0  0  0  # atno 17321 bound_to 7965
  140.7517  143.6222  150.8502 LP  0  0  0  0  0  0  0  0  0  0  0  0  # atno 17342 bound_to 10162
  139.9865  143.5893  152.2925 LP  0  0  0  0  0  0  0  0  0  0  0  0  # atno 17343 bound_to 10162
  156.3547  130.3837  149.7300 LP  0  0  0  0  0  0  0  0  0  0  0  0  # atno 17370 bound_to 10713
  156.4766  130.8021  151.3037 LP  0  0  0  0  0  0  0  0  0  0  0  0  # atno 17371 bound_to 10713
  140.6137  134.0058  155.7588 LP  0  0  0  0  0  0  0  0  0  0  0  0  # atno 17394 bound_to 11000
  141.0937  133.9877  157.3195 LP  0  0  0  0  0  0  0  0  0  0  0  0  # atno 17395 bound_to 11000

$$$$
