AV-unprocessed.smi:2192|AV-procd|sdf|8897|dock2
  -GOLD-   2272012103D 1   1.00000     0.00000
 Structure written by MMmdl.
 42 44  0  0  0  0  0  0  0  0  1 V2000
  153.7981  141.3689  160.9047 C   0  0  0  0  0  0  0  0  0  0  0  0
  152.9152  141.6507  159.7569 N   0  0  0  0  0  0  0  0  0  0  0  0
  152.7992  140.6976  158.7792 C   0  0  0  0  0  0  0  0  0  0  0  0
  153.3901  139.6168  158.7756 O   0  0  0  0  0  0  0  0  0  0  0  0
  151.8870  141.0696  157.6930 C   0  0  0  0  0  0  0  0  0  0  0  0
  151.2345  142.2564  157.6535 C   0  0  0  0  0  0  0  0  0  0  0  0
  150.4407  142.3617  156.5172 N   0  0  0  0  0  0  0  0  0  0  0  0
  150.6651  141.1940  155.9134 C   0  0  0  0  0  0  0  0  0  0  0  0
  151.5159  140.3628  156.5493 N   0  0  0  0  0  0  0  0  0  0  0  0
  151.9205  139.0404  156.0961 C   0  0  0  0  0  0  0  0  0  0  0  0
  150.7220  138.1742  155.6576 C   0  0  1  0  0  0  0  0  0  0  0  0
  150.1901  138.5929  154.4167 O   0  0  0  0  0  0  0  0  0  0  0  0
  151.0395  136.6723  155.5831 C   0  0  0  0  0  0  0  0  0  0  0  0
  149.8748  135.9526  155.1975 O   0  0  0  0  0  0  0  0  0  0  0  0
  149.9670  134.5844  155.0622 C   0  0  0  0  0  0  0  0  0  0  0  0
  149.1073  133.9759  154.1244 C   0  0  0  0  0  0  0  0  0  0  0  0
  149.1304  132.5825  153.9226 C   0  0  0  0  0  0  0  0  0  0  0  0
  150.0209  131.7805  154.6596 C   0  0  0  0  0  0  0  0  0  0  0  0
  150.0445  130.4403  154.4682 F   0  0  0  0  0  0  0  0  0  0  0  0
  150.8872  132.3744  155.5961 C   0  0  0  0  0  0  0  0  0  0  0  0
  150.8630  133.7682  155.7988 C   0  0  0  0  0  0  0  0  0  0  0  0
  151.4350  143.1786  158.7104 N   0  0  0  0  0  0  0  0  0  0  0  0
  150.7181  144.4548  158.6296 C   0  0  0  0  0  0  0  0  0  0  0  0
  152.2688  142.8755  159.7597 C   0  0  0  0  0  0  0  0  0  0  0  0
  152.4371  143.6779  160.6822 O   0  0  0  0  0  0  0  0  0  0  0  0
  154.2746  140.3884  160.8882 H   0  0  0  0  0  0  0  0  0  0  0  0
  153.2368  141.4211  161.8392 H   0  0  0  0  0  0  0  0  0  0  0  0
  154.6025  142.1047  160.9549 H   0  0  0  0  0  0  0  0  0  0  0  0
  150.1948  140.9342  154.9763 H   0  0  0  0  0  0  0  0  0  0  0  0
  152.6532  139.1424  155.2967 H   0  0  0  0  0  0  0  0  0  0  0  0
  152.4440  138.5480  156.9166 H   0  0  0  0  0  0  0  0  0  0  0  0
  149.9210  138.3065  156.3859 H   0  0  0  0  0  0  0  0  0  0  0  0
  149.8900  139.4851  154.5072 H   0  0  0  0  0  0  0  0  0  0  0  0
  151.8202  136.5131  154.8377 H   0  0  0  0  0  0  0  0  0  0  0  0
  151.4200  136.3197  156.5434 H   0  0  0  0  0  0  0  0  0  0  0  0
  148.4197  134.5845  153.5554 H   0  0  0  0  0  0  0  0  0  0  0  0
  148.4644  132.1301  153.2026 H   0  0  0  0  0  0  0  0  0  0  0  0
  151.5722  131.7595  156.1610 H   0  0  0  0  0  0  0  0  0  0  0  0
  151.5432  134.1866  156.5248 H   0  0  0  0  0  0  0  0  0  0  0  0
  150.8873  145.1228  159.4745 H   0  0  0  0  0  0  0  0  0  0  0  0
  149.6441  144.2755  158.5706 H   0  0  0  0  0  0  0  0  0  0  0  0
  151.0163  144.9907  157.7280 H   0  0  0  0  0  0  0  0  0  0  0  0
  1  2  1  0  0  0  0
  1 26  1  0  0  0  0
  1 27  1  0  0  0  0
  1 28  1  0  0  0  0
  2 24  1  0  0  0  0
  2  3  1  0  0  0  0
  3  4  2  0  0  0  0
  3  5  1  0  0  0  0
  5  9  1  0  0  0  0
  5  6  2  0  0  0  0
  6  7  1  0  0  0  0
  6 22  1  0  0  0  0
  7  8  2  0  0  0  0
  8  9  1  0  0  0  0
  8 29  1  0  0  0  0
  9 10  1  0  0  0  0
 10 11  1  0  0  0  0
 10 30  1  0  0  0  0
 10 31  1  0  0  0  0
 11 12  1  0  0  0  0
 11 13  1  0  0  0  0
 11 32  1  0  0  0  0
 12 33  1  0  0  0  0
 13 14  1  0  0  0  0
 13 34  1  0  0  0  0
 13 35  1  0  0  0  0
 14 15  1  0  0  0  0
 15 21  1  0  0  0  0
 15 16  2  0  0  0  0
 16 17  1  0  0  0  0
 16 36  1  0  0  0  0
 17 18  2  0  0  0  0
 17 37  1  0  0  0  0
 18 19  1  0  0  0  0
 18 20  1  0  0  0  0
 20 21  2  0  0  0  0
 20 38  1  0  0  0  0
 21 39  1  0  0  0  0
 22 23  1  0  0  0  0
 22 24  1  0  0  0  0
 23 40  1  0  0  0  0
 23 41  1  0  0  0  0
 23 42  1  0  0  0  0
 24 25  2  0  0  0  0
M  END
> <s_m_source_file>
AV-unprocessed.smi

> <i_m_source_file_index>
2192

> <i_lp_mmshare_version>
43012

> <i_f3d_flags>
0

> <s_epik_input>
Tz1jMW4oW0NIM10pYyg9TyluKFtDSDNdKWMoYzEyKW5bY0hdbjJbQ0gyXVtDQEhdKFtPSF0pW0NIMl1PYzNbY0hdW2NIXWMoRilbY0hdW2NIXTM=

> <s_epik_cmdline>
J2VwaWtfcHl0aG9uJywgJy1waCcsICc3LjAnLCAnLXRuJywgJzgnLCAnLW1hJywgJzIwMCcsICctbWV0YWxfYmluZGluZycsICctaW1hZScsICc8aW5maWxlLm1hZT4nLCAnLW9tYWUnLCAnPG91dGZpbGUubWFlPic=

> <r_lp_tautomer_probability>
1

> <r_epik_Ionization_Penalty>
1.0344e-06

> <r_epik_Ionization_Penalty_Charging>
3.2247e-09

> <r_epik_Ionization_Penalty_Neutral>
1.03118e-06

> <r_epik_State_Penalty>
-0

> <r_epik_Charging_Adjusted_Penalty>
3.2247e-09

> <i_epik_Tot_Q>
0

> <i_epik_Tot_abs_Q>
0

> <r_epik_Metal_State_Penalty>
-0

> <b_epik_Metal_Only>
0

> <s_lp_Force_Field>
OPLS_2005

> <r_lp_Energy>
39.8918

> <b_lp_Chiralities_Consistent>
1

> <s_lp_Variant>
AV-unprocessed.smi:2192-2

> <Gold.Version>
5.8.1

> <Gold.Id.Protein>
6NUR|6NUR_protein|mol2

> <Gold.PLP.Fitness>
49.3062

> <Gold.PLP.PLP>
-47.4917

> <Gold.PLP.part.hbond>
-1.0000

> <Gold.PLP.part.metal>
0.0000

> <Gold.PLP.part.buried>
-7.3589

> <Gold.PLP.part.nonpolar>
-40.8977

> <Gold.PLP.part.repulsive>
1.6493

> <Gold.PLP.ligand.clash>
0.0000

> <Gold.PLP.ligand.torsion>
0.6373

> <Gold.PLP.Chemscore.Hbond>
1.0000

> <Gold.PLP.Chemscore.CHOScore>
0.0000

> <Gold.PLP.Chemscore.Metal>
0.0000

> <Gold.Chemscore.Hbonds>
donor molecule, donor type, donor heavy atom, donor atom, acceptor molecule, acceptor atom, score
      P1  H  7997  8008       L1     4  0.62

> <Gold.PLP.Chemscore.Internal.Correction>
0.0890

> <Gold.Rescore>
     Score         DG    S(hbond)    S(metal)    S(lipo)     H(rot)  DE(clash)    DE(int)     intcor
      6.46      -7.16       0.01        0.00      77.04       2.88       0.04       0.66       ----

> <Gold.Chemscore.Fitness>
6.4589

> <Gold.Chemscore.DG>
-7.1572

> <Gold.Chemscore.ZeroCoef>
-5.4800

> <Gold.Chemscore.Hbond>
0.0079

> <Gold.Chemscore.Metal>
0.0000

> <Gold.Chemscore.Lipo>
77.0419

> <Gold.Chemscore.Internal_Hbond>
0.0000

> <Gold.Chemscore.DEClash>
0.0398

> <Gold.Chemscore.DEInternal>
0.6584

> <Gold.Chemscore.Rot>
2.8762

> <Gold.Chemscore.Internal.Correction>
   9.000000E+99

> <Gold.Chemscore.Hbonds>
donor molecule, donor type, donor heavy atom, donor atom, acceptor molecule, acceptor atom, score
      P1  H  7997  8008       L1     4  0.11

> <Gold.Chemscore.Hbond.Weighted>
-0.0264

> <Gold.Chemscore.Metal.Weighted>
-0.0000

> <Gold.Chemscore.Lipo.Weighted>
-9.0139

> <Gold.Chemscore.Internal_Hbond.Weighted>
0.0000

> <Gold.Chemscore.DEClash.Weighted>
0.0398

> <Gold.Chemscore.DEInternal.Weighted>
0.6584

> <Gold.Chemscore.Rot.Weighted>
7.3631

> <Gold.Chemscore.Internal.Correction.Weighted>
   9.000000E+99

> <Gold.Protein.RotatedTorsions>
[ 6907 6896 6895 6894 ] final  159.08 input  -60.11 | X-H torsion
[ 7974 7965 7964 7962 ] final -159.34 input  175.53 | X-H torsion
[ 8008 7997 7996 7995 ] final  -95.88 input   59.86 | X-H torsion
[ 10167 10162 10161 10158 ] final  -78.04 input  -65.29 | X-H torsion
[ 10718 10713 10712 10709 ] final   58.56 input   66.30 | X-H torsion
[ 10763 10752 10751 10750 ] final   86.39 input  -60.55 | X-H torsion
[ 11005 11000 10999 10996 ] final  127.55 input  -57.11 | X-H torsion

> <Gold.Protein.ActiveResidues>
 VAL166  LYS551  ARG553  GLY616  TRP617  ASP618  TYR619  PRO620  LYS621  CYS622 
 ASP623  PHE694  ASN695  SER759  ASP760  ASP761  ALA762  ILE779  LEU786  VAL792 
 PHE793  MET794  SER795  GLU796  ALA797  LYS798  CYS799  TRP800  GLU811  SER814 

> <Gold.Protein.RotatedAtoms>
  151.9909  133.3791  159.4143 H   0  0  0  0  0  0  0  0  0  0  0  0  # atno 6907 bound_to 6896
  150.6922  134.3937  159.5097 H   0  0  0  0  0  0  0  0  0  0  0  0  # atno 6908 bound_to 6896
  152.1670  134.8865  160.0588 H   0  0  0  0  0  0  0  0  0  0  0  0  # atno 6909 bound_to 6896
  144.7469  140.3699  143.6078 H   0  0  0  0  0  0  0  0  0  0  0  0  # atno 7974 bound_to 7965
  154.7671  140.0476  157.1021 H   0  0  0  0  0  0  0  0  0  0  0  0  # atno 8008 bound_to 7997
  154.9866  140.3108  155.4904 H   0  0  0  0  0  0  0  0  0  0  0  0  # atno 8009 bound_to 7997
  156.2915  140.2226  156.4968 H   0  0  0  0  0  0  0  0  0  0  0  0  # atno 8010 bound_to 7997
  140.4717  143.2425  151.8194 H   0  0  0  0  0  0  0  0  0  0  0  0  # atno 10167 bound_to 10162
  157.5606  130.8833  149.9105 H   0  0  0  0  0  0  0  0  0  0  0  0  # atno 10718 bound_to 10713
  153.1566  135.4582  154.9713 H   0  0  0  0  0  0  0  0  0  0  0  0  # atno 10763 bound_to 10752
  154.7866  135.3206  154.7875 H   0  0  0  0  0  0  0  0  0  0  0  0  # atno 10764 bound_to 10752
  153.8371  135.6933  153.4862 H   0  0  0  0  0  0  0  0  0  0  0  0  # atno 10765 bound_to 10752
  139.9514  134.9621  156.8872 H   0  0  0  0  0  0  0  0  0  0  0  0  # atno 11005 bound_to 11000
  145.7088  139.1679  143.2550 LP  0  0  0  0  0  0  0  0  0  0  0  0  # atno 17320 bound_to 7965
  146.1362  140.7120  142.9389 LP  0  0  0  0  0  0  0  0  0  0  0  0  # atno 17321 bound_to 7965
  139.4819  144.4883  151.9218 LP  0  0  0  0  0  0  0  0  0  0  0  0  # atno 17342 bound_to 10162
  140.3968  144.2544  150.5895 LP  0  0  0  0  0  0  0  0  0  0  0  0  # atno 17343 bound_to 10162
  156.0659  130.3692  150.0879 LP  0  0  0  0  0  0  0  0  0  0  0  0  # atno 17370 bound_to 10713
  156.9043  130.9631  151.3572 LP  0  0  0  0  0  0  0  0  0  0  0  0  # atno 17371 bound_to 10713
  140.5711  134.0442  155.7431 LP  0  0  0  0  0  0  0  0  0  0  0  0  # atno 17394 bound_to 11000
  141.1177  133.9513  157.2791 LP  0  0  0  0  0  0  0  0  0  0  0  0  # atno 17395 bound_to 11000

$$$$
