AV-unprocessed.smi:211|AV-procd|sdf|1615|dock2
  -GOLD-   2262019543D 1   1.00000     0.00000
 Structure written by MMmdl.
 59 62  0  0  0  0  0  0  0  0  1 V2000
  153.3416  143.0249  163.1313 C   0  0  0  0  0  0  0  0  0  0  0  0
  152.4083  143.2651  161.9496 C   0  0  0  0  0  0  0  0  0  0  0  0
  151.2047  143.0323  162.0560 O   0  0  0  0  0  0  0  0  0  0  0  0
  152.9813  143.7320  160.8298 N   0  0  0  0  0  0  0  0  0  0  0  0
  152.2864  144.0449  159.5816 C   0  0  2  0  0  0  0  0  0  0  0  0
  151.2370  145.1367  159.8643 C   0  0  0  0  0  0  0  0  0  0  0  0
  151.6835  142.7525  158.9692 C   0  0  0  0  0  0  0  0  0  0  0  0
  152.7403  141.6344  158.8014 C   0  0  0  0  0  0  0  0  0  0  0  0
  152.1383  140.3660  158.1768 C   0  0  0  0  0  0  0  0  0  0  0  0
  151.4790  140.6700  156.9094 N   0  0  0  0  0  0  0  0  0  0  0  0
  151.2156  139.5821  156.1409 C   0  0  0  0  0  0  0  0  0  0  0  0
  151.1828  139.6990  154.7860 N   0  0  0  0  0  0  0  0  0  0  0  0
  150.9029  138.6386  154.0228 C   0  0  0  0  0  0  0  0  0  0  0  0
  150.6340  137.3875  154.3997 N   0  0  0  0  0  0  0  0  0  0  0  0
  150.6784  137.2590  155.7565 C   0  0  0  0  0  0  0  0  0  0  0  0
  150.9548  138.2956  156.6925 C   0  0  0  0  0  0  0  0  0  0  0  0
  150.9060  137.7886  157.9859 N   0  0  0  0  0  0  0  0  0  0  0  0
  150.6012  136.5299  157.8243 C   0  0  0  0  0  0  0  0  0  0  0  0
  150.4731  136.1204  156.5162 N   0  0  0  0  0  0  0  0  0  0  0  0
  150.1064  134.8131  156.0566 C   0  0  0  0  0  0  0  0  0  0  0  0
  150.0994  134.4654  154.5654 C   0  0  0  0  0  0  0  0  0  0  0  0
  148.9265  133.4883  154.8084 C   0  0  0  0  0  0  0  0  0  0  0  0
  147.8467  133.5052  153.7122 C   0  0  0  0  0  0  0  0  0  0  0  0
  147.4623  134.8204  153.3678 O   0  0  0  0  0  0  0  0  0  0  0  0
  149.3693  132.0320  155.0657 C   0  0  0  0  0  0  0  0  0  0  0  0
  148.3152  131.2306  155.5580 O   0  0  0  0  0  0  0  0  0  0  0  0
  148.6470  134.3543  156.0585 C   0  0  0  0  0  0  0  0  0  0  0  0
  150.4491  141.7050  156.9941 C   0  0  0  0  0  0  0  0  0  0  0  0
  151.0161  143.0005  157.5975 C   0  0  0  0  0  0  0  0  0  0  0  0
  154.1832  142.3983  162.8338 H   0  0  0  0  0  0  0  0  0  0  0  0
  152.8160  142.5251  163.9455 H   0  0  0  0  0  0  0  0  0  0  0  0
  153.7302  143.9724  163.5055 H   0  0  0  0  0  0  0  0  0  0  0  0
  153.9787  143.8897  160.8429 H   0  0  0  0  0  0  0  0  0  0  0  0
  153.0085  144.4452  158.8672 H   0  0  0  0  0  0  0  0  0  0  0  0
  150.7730  145.5014  158.9488 H   0  0  0  0  0  0  0  0  0  0  0  0
  151.6907  146.0015  160.3495 H   0  0  0  0  0  0  0  0  0  0  0  0
  150.4470  144.7677  160.5192 H   0  0  0  0  0  0  0  0  0  0  0  0
  150.9157  142.3839  159.6516 H   0  0  0  0  0  0  0  0  0  0  0  0
  153.5577  141.9929  158.1741 H   0  0  0  0  0  0  0  0  0  0  0  0
  153.1836  141.3690  159.7612 H   0  0  0  0  0  0  0  0  0  0  0  0
  152.9248  139.6231  158.0490 H   0  0  0  0  0  0  0  0  0  0  0  0
  151.4056  139.9293  158.8567 H   0  0  0  0  0  0  0  0  0  0  0  0
  150.8924  138.8182  152.9577 H   0  0  0  0  0  0  0  0  0  0  0  0
  150.4667  135.8614  158.6621 H   0  0  0  0  0  0  0  0  0  0  0  0
  150.7298  134.1129  156.6153 H   0  0  0  0  0  0  0  0  0  0  0  0
  149.8255  135.3190  153.9422 H   0  0  0  0  0  0  0  0  0  0  0  0
  151.0187  134.0019  154.2059 H   0  0  0  0  0  0  0  0  0  0  0  0
  148.2111  133.0262  152.8030 H   0  0  0  0  0  0  0  0  0  0  0  0
  146.9616  132.9465  154.0179 H   0  0  0  0  0  0  0  0  0  0  0  0
  148.1788  135.2333  152.9111 H   0  0  0  0  0  0  0  0  0  0  0  0
  149.7611  131.5739  154.1571 H   0  0  0  0  0  0  0  0  0  0  0  0
  150.1781  131.9894  155.7956 H   0  0  0  0  0  0  0  0  0  0  0  0
  147.8204  131.7355  156.1848 H   0  0  0  0  0  0  0  0  0  0  0  0
  148.3507  133.8011  156.9503 H   0  0  0  0  0  0  0  0  0  0  0  0
  147.9521  135.1727  155.8605 H   0  0  0  0  0  0  0  0  0  0  0  0
  150.0489  141.9148  156.0011 H   0  0  0  0  0  0  0  0  0  0  0  0
  149.6218  141.3423  157.6059 H   0  0  0  0  0  0  0  0  0  0  0  0
  150.2032  143.7203  157.6856 H   0  0  0  0  0  0  0  0  0  0  0  0
  151.7421  143.4345  156.9087 H   0  0  0  0  0  0  0  0  0  0  0  0
  1  2  1  0  0  0  0
  1 30  1  0  0  0  0
  1 31  1  0  0  0  0
  1 32  1  0  0  0  0
  2  3  2  0  0  0  0
  2  4  1  0  0  0  0
  4  5  1  0  0  0  0
  4 33  1  0  0  0  0
  5  6  1  0  0  0  0
  5  7  1  0  0  0  0
  5 34  1  0  0  0  0
  6 35  1  0  0  0  0
  6 36  1  0  0  0  0
  6 37  1  0  0  0  0
  7 29  1  0  0  0  0
  7  8  1  0  0  0  0
  7 38  1  0  0  0  0
  8  9  1  0  0  0  0
  8 39  1  0  0  0  0
  8 40  1  0  0  0  0
  9 10  1  0  0  0  0
  9 41  1  0  0  0  0
  9 42  1  0  0  0  0
 10 11  1  0  0  0  0
 10 28  1  0  0  0  0
 11 16  1  0  0  0  0
 11 12  2  0  0  0  0
 12 13  1  0  0  0  0
 13 14  2  0  0  0  0
 13 43  1  0  0  0  0
 14 15  1  0  0  0  0
 15 19  1  0  0  0  0
 15 16  2  0  0  0  0
 16 17  1  0  0  0  0
 17 18  2  0  0  0  0
 18 19  1  0  0  0  0
 18 44  1  0  0  0  0
 19 20  1  0  0  0  0
 20 27  1  0  0  0  0
 20 21  1  0  0  0  0
 20 45  1  0  0  0  0
 21 22  1  0  0  0  0
 21 46  1  0  0  0  0
 21 47  1  0  0  0  0
 22 23  1  0  0  0  0
 22 25  1  0  0  0  0
 22 27  1  0  0  0  0
 23 24  1  0  0  0  0
 23 48  1  0  0  0  0
 23 49  1  0  0  0  0
 24 50  1  0  0  0  0
 25 26  1  0  0  0  0
 25 51  1  0  0  0  0
 25 52  1  0  0  0  0
 26 53  1  0  0  0  0
 27 54  1  0  0  0  0
 27 55  1  0  0  0  0
 28 29  1  0  0  0  0
 28 56  1  0  0  0  0
 28 57  1  0  0  0  0
 29 58  1  0  0  0  0
 29 59  1  0  0  0  0
M  END
> <s_m_source_file>
AV-unprocessed.smi

> <i_m_source_file_index>
211

> <i_lp_mmshare_version>
43012

> <i_f3d_flags>
0

> <s_epik_input>
W0NIM11DKD1PKVtOSF1bQ0BIXShbQ0gzXSlbQ0hdMVtDSDJdW0NIMl1OKFtDSDJdW0NIMl0xKWMobltjSF1uMiljKGMyMyluW2NIXW4zW0NIXShbQ0gyXTQpW0NIMl1DNChbQ0gyXVtPSF0pW0NIMl1bT0hd

> <s_epik_cmdline>
J2VwaWtfcHl0aG9uJywgJy1waCcsICc3LjAnLCAnLXRuJywgJzgnLCAnLW1hJywgJzIwMCcsICctbWV0YWxfYmluZGluZycsICctaW1hZScsICc8aW5maWxlLm1hZT4nLCAnLW9tYWUnLCAnPG91dGZpbGUubWFlPic=

> <r_lp_tautomer_probability>
1

> <r_epik_Ionization_Penalty>
0.00335435

> <r_epik_Ionization_Penalty_Charging>
0

> <r_epik_Ionization_Penalty_Neutral>
0.00335435

> <r_epik_State_Penalty>
0.00231338

> <r_epik_Charging_Adjusted_Penalty>
0.00231338

> <i_epik_Tot_Q>
0

> <i_epik_Tot_abs_Q>
0

> <r_epik_Metal_State_Penalty>
-0

> <b_epik_Metal_Only>
0

> <s_lp_Force_Field>
OPLS_2005

> <r_lp_Energy>
41.9303

> <b_lp_Chiralities_Consistent>
1

> <s_lp_Variant>
AV-unprocessed.smi:211-1

> <Gold.Version>
5.8.1

> <Gold.Id.Protein>
6NUR|6NUR_protein|mol2

> <Gold.PLP.Fitness>
52.1422

> <Gold.PLP.PLP>
-42.3502

> <Gold.PLP.part.hbond>
-2.8122

> <Gold.PLP.part.metal>
0.0000

> <Gold.PLP.part.buried>
-5.7312

> <Gold.PLP.part.nonpolar>
-37.0356

> <Gold.PLP.part.repulsive>
3.4805

> <Gold.PLP.ligand.clash>
0.0000

> <Gold.PLP.ligand.torsion>
1.0175

> <Gold.PLP.Chemscore.Hbond>
2.7520

> <Gold.PLP.Chemscore.CHOScore>
0.8783

> <Gold.PLP.Chemscore.Metal>
0.0000

> <Gold.Chemscore.Hbonds>
donor molecule, donor type, donor heavy atom, donor atom, acceptor molecule, acceptor atom, score
      L1  H    24    50       P1  7948  1.00
      P1  H  6933  6945       L1     3  0.67
      P1  H  7989  7998       L1    12  0.95
      L1  C    13    43       P1  7957  0.88

> <Gold.PLP.Chemscore.Internal.Correction>
0.9362

> <Gold.Rescore>
     Score         DG    S(hbond)    S(metal)    S(lipo)     H(rot)  DE(clash)    DE(int)     intcor
      8.22     -15.50       2.28        0.00     106.20       3.92       2.25       5.03       ----

> <Gold.Chemscore.Fitness>
8.2241

> <Gold.Chemscore.DG>
-15.5015

> <Gold.Chemscore.ZeroCoef>
-5.4800

> <Gold.Chemscore.Hbond>
2.2814

> <Gold.Chemscore.Metal>
0.0000

> <Gold.Chemscore.Lipo>
106.1973

> <Gold.Chemscore.Internal_Hbond>
0.0000

> <Gold.Chemscore.DEClash>
2.2477

> <Gold.Chemscore.DEInternal>
5.0297

> <Gold.Chemscore.Rot>
3.9155

> <Gold.Chemscore.Internal.Correction>
   9.000000E+99

> <Gold.Chemscore.Hbonds>
donor molecule, donor type, donor heavy atom, donor atom, acceptor molecule, acceptor atom, score
      L1  H    24    50       P1  7948  0.97
      P1  H  6933  6945       L1     3  0.66
      P1  H  7989  7998       L1    12  0.22

> <Gold.Chemscore.Hbond.Weighted>
-7.6200

> <Gold.Chemscore.Metal.Weighted>
-0.0000

> <Gold.Chemscore.Lipo.Weighted>
-12.4251

> <Gold.Chemscore.Internal_Hbond.Weighted>
0.0000

> <Gold.Chemscore.DEClash.Weighted>
2.2477

> <Gold.Chemscore.DEInternal.Weighted>
5.0297

> <Gold.Chemscore.Rot.Weighted>
10.0236

> <Gold.Chemscore.Internal.Correction.Weighted>
   9.000000E+99

> <Gold.Protein.RotatedTorsions>
[ 6907 6896 6895 6894 ] final  166.72 input  -60.11 | X-H torsion
[ 7974 7965 7964 7962 ] final   12.31 input  175.53 | X-H torsion
[ 8008 7997 7996 7995 ] final    3.56 input   59.86 | X-H torsion
[ 10167 10162 10161 10158 ] final   66.73 input  -65.29 | X-H torsion
[ 10718 10713 10712 10709 ] final -171.08 input   66.30 | X-H torsion
[ 10763 10752 10751 10750 ] final  126.08 input  -60.55 | X-H torsion
[ 11005 11000 10999 10996 ] final -145.68 input  -57.11 | X-H torsion

> <Gold.Protein.ActiveResidues>
 VAL166  LYS551  ARG553  GLY616  TRP617  ASP618  TYR619  PRO620  LYS621  CYS622 
 ASP623  PHE694  ASN695  SER759  ASP760  ASP761  ALA762  ILE779  LEU786  VAL792 
 PHE793  MET794  SER795  GLU796  ALA797  LYS798  CYS799  TRP800  GLU811  SER814 

> <Gold.Protein.RotatedAtoms>
  151.8745  133.3482  159.3745 H   0  0  0  0  0  0  0  0  0  0  0  0  # atno 6907 bound_to 6896
  150.7144  134.5080  159.5603 H   0  0  0  0  0  0  0  0  0  0  0  0  # atno 6908 bound_to 6896
  152.2619  134.8025  160.0480 H   0  0  0  0  0  0  0  0  0  0  0  0  # atno 6909 bound_to 6896
  146.2354  139.9356  142.8490 H   0  0  0  0  0  0  0  0  0  0  0  0  # atno 7974 bound_to 7965
  154.7052  140.2681  155.6681 H   0  0  0  0  0  0  0  0  0  0  0  0  # atno 8008 bound_to 7997
  156.2778  140.2764  156.1600 H   0  0  0  0  0  0  0  0  0  0  0  0  # atno 8009 bound_to 7997
  155.0710  140.0372  157.2598 H   0  0  0  0  0  0  0  0  0  0  0  0  # atno 8010 bound_to 7997
  140.0972  144.4936  150.7061 H   0  0  0  0  0  0  0  0  0  0  0  0  # atno 10167 bound_to 10162
  156.7357  130.9323  151.3107 H   0  0  0  0  0  0  0  0  0  0  0  0  # atno 10718 bound_to 10713
  153.6876  135.3304  155.3194 H   0  0  0  0  0  0  0  0  0  0  0  0  # atno 10763 bound_to 10752
  154.8449  135.4424  154.1542 H   0  0  0  0  0  0  0  0  0  0  0  0  # atno 10764 bound_to 10752
  153.2575  135.6988  153.7691 H   0  0  0  0  0  0  0  0  0  0  0  0  # atno 10765 bound_to 10752
  140.7897  134.2983  157.5017 H   0  0  0  0  0  0  0  0  0  0  0  0  # atno 11005 bound_to 11000
  145.2002  140.9851  143.4160 LP  0  0  0  0  0  0  0  0  0  0  0  0  # atno 17320 bound_to 7965
  144.9780  139.3812  143.6276 LP  0  0  0  0  0  0  0  0  0  0  0  0  # atno 17321 bound_to 7965
  140.6997  143.2427  151.4899 LP  0  0  0  0  0  0  0  0  0  0  0  0  # atno 17342 bound_to 10162
  139.5691  144.1970  152.1810 LP  0  0  0  0  0  0  0  0  0  0  0  0  # atno 17343 bound_to 10162
  157.6840  130.9167  150.0339 LP  0  0  0  0  0  0  0  0  0  0  0  0  # atno 17370 bound_to 10713
  156.1499  130.3642  149.9454 LP  0  0  0  0  0  0  0  0  0  0  0  0  # atno 17371 bound_to 10713
  139.8732  134.9367  156.3668 LP  0  0  0  0  0  0  0  0  0  0  0  0  # atno 17394 bound_to 11000
  140.9401  133.7520  156.0136 LP  0  0  0  0  0  0  0  0  0  0  0  0  # atno 17395 bound_to 11000

$$$$
