AV-unprocessed.smi:3298|AV-procd|sdf|12643|dock7
  -GOLD-   2272018573D 1   1.00000     0.00000
 Structure written by MMmdl.
 35 36  0  0  0  0  0  0  0  0  1 V2000
  153.7364  141.4238  160.6809 C   0  0  0  0  0  0  0  0  0  0  0  0
  152.8226  142.4929  160.1190 C   0  0  0  0  0  0  0  0  0  0  0  0
  152.0488  142.2502  158.9647 C   0  0  0  0  0  0  0  0  0  0  0  0
  151.2210  143.2801  158.4716 C   0  0  0  0  0  0  0  0  0  0  0  0
  150.4378  143.0033  157.3186 N   0  0  0  0  0  0  0  0  0  0  0  0
  150.5097  141.9498  156.4864 C   0  0  0  0  0  0  0  0  0  0  0  0
  151.2625  140.9846  156.6184 O   0  0  0  0  0  0  0  0  0  0  0  0
  149.6320  142.0676  155.4802 N   0  0  0  0  0  0  0  0  0  0  0  0
  149.4654  141.1018  154.4002 C   0  0  1  0  0  0  0  0  0  0  0  0
  149.4992  139.6988  154.9446 C   0  0  0  0  0  0  0  0  0  0  0  0
  148.3841  139.0189  154.6868 C   0  0  0  0  0  0  0  0  0  0  0  0
  147.3706  139.8339  153.9258 C   0  0  1  0  0  0  0  0  0  0  0  0
  146.0083  139.9237  154.6401 C   0  0  0  0  0  0  0  0  0  0  0  0
  145.1591  138.8488  154.2873 O   0  0  0  0  0  0  0  0  0  0  0  0
  148.0737  141.2003  153.7197 C   0  0  0  0  0  0  0  0  0  0  0  0
  151.1902  144.5066  159.1778 C   0  0  0  0  0  0  0  0  0  0  0  0
  152.0020  144.6462  160.3209 C   0  0  0  0  0  0  0  0  0  0  0  0
  152.8060  143.6669  160.7863 N   0  0  0  0  0  0  0  0  0  0  0  0
  150.2669  141.2123  153.6679 H   0  0  0  0  0  0  0  0  0  0  0  0
  147.2272  139.3549  152.9565 H   0  0  0  0  0  0  0  0  0  0  0  0
  153.5652  140.4625  160.1955 H   0  0  0  0  0  0  0  0  0  0  0  0
  153.5657  141.2978  161.7506 H   0  0  0  0  0  0  0  0  0  0  0  0
  154.7797  141.7020  160.5294 H   0  0  0  0  0  0  0  0  0  0  0  0
  152.0941  141.2936  158.4643 H   0  0  0  0  0  0  0  0  0  0  0  0
  149.7073  143.6717  157.1234 H   0  0  0  0  0  0  0  0  0  0  0  0
  149.0494  142.8913  155.4468 H   0  0  0  0  0  0  0  0  0  0  0  0
  150.3549  139.3085  155.4753 H   0  0  0  0  0  0  0  0  0  0  0  0
  148.1980  137.9959  154.9787 H   0  0  0  0  0  0  0  0  0  0  0  0
  146.1488  139.9208  155.7213 H   0  0  0  0  0  0  0  0  0  0  0  0
  145.5099  140.8599  154.3860 H   0  0  0  0  0  0  0  0  0  0  0  0
  144.6446  139.1062  153.5374 H   0  0  0  0  0  0  0  0  0  0  0  0
  147.4796  142.0205  154.1265 H   0  0  0  0  0  0  0  0  0  0  0  0
  148.1914  141.4065  152.6551 H   0  0  0  0  0  0  0  0  0  0  0  0
  150.5592  145.3288  158.8785 H   0  0  0  0  0  0  0  0  0  0  0  0
  152.0003  145.5695  160.8809 H   0  0  0  0  0  0  0  0  0  0  0  0
  1  2  1  0  0  0  0
  1 21  1  0  0  0  0
  1 22  1  0  0  0  0
  1 23  1  0  0  0  0
  2 18  1  0  0  0  0
  2  3  2  0  0  0  0
  3  4  1  0  0  0  0
  3 24  1  0  0  0  0
  4  5  1  0  0  0  0
  4 16  2  0  0  0  0
  5  6  1  0  0  0  0
  5 25  1  0  0  0  0
  6  7  2  0  0  0  0
  6  8  1  0  0  0  0
  8  9  1  0  0  0  0
  8 26  1  0  0  0  0
  9 19  1  0  0  0  0
  9 15  1  0  0  0  0
  9 10  1  0  0  0  0
 10 11  2  0  0  0  0
 10 27  1  0  0  0  0
 11 12  1  0  0  0  0
 11 28  1  0  0  0  0
 12 20  1  0  0  0  0
 12 13  1  0  0  0  0
 12 15  1  0  0  0  0
 13 14  1  0  0  0  0
 13 29  1  0  0  0  0
 13 30  1  0  0  0  0
 14 31  1  0  0  0  0
 15 32  1  0  0  0  0
 15 33  1  0  0  0  0
 16 17  1  0  0  0  0
 16 34  1  0  0  0  0
 17 18  2  0  0  0  0
 17 35  1  0  0  0  0
M  END
> <s_m_source_file>
AV-unprocessed.smi

> <i_m_source_file_index>
3298

> <i_lp_mmshare_version>
43012

> <i_f3d_flags>
0

> <s_epik_input>
W0NIM11jMVtjSF1jKFtjSF1bY0hdbjEpW05IXUMoPU8pW05IXVtDQEBIXTJbQ0hdPVtDSF1bQ0BASF0oW0NIMl0yKVtDSDJdW09IXQ==

> <s_epik_cmdline>
J2VwaWtfcHl0aG9uJywgJy1waCcsICc3LjAnLCAnLXRuJywgJzgnLCAnLW1hJywgJzIwMCcsICctbWV0YWxfYmluZGluZycsICctaW1hZScsICc8aW5maWxlLm1hZT4nLCAnLW9tYWUnLCAnPG91dGZpbGUubWFlPic=

> <r_epik_Ionization_Penalty>
0.379275

> <r_epik_Ionization_Penalty_Charging>
0

> <r_epik_Ionization_Penalty_Neutral>
0.379275

> <r_epik_State_Penalty>
0.377195

> <r_epik_Charging_Adjusted_Penalty>
0.377195

> <i_epik_Tot_Q>
0

> <i_epik_Tot_abs_Q>
0

> <r_epik_Metal_State_Penalty>
0.22815

> <b_epik_Metal_Only>
0

> <s_lp_Force_Field>
OPLS_2005

> <r_lp_Energy>
21.2721

> <b_lp_Chiralities_Consistent>
1

> <s_lp_Variant>
AV-unprocessed.smi:3298-4

> <Gold.Version>
5.8.1

> <Gold.Id.Protein>
6NUR|6NUR_protein|mol2

> <Gold.PLP.Fitness>
43.0020

> <Gold.PLP.PLP>
-35.6216

> <Gold.PLP.part.hbond>
-3.0000

> <Gold.PLP.part.metal>
0.0000

> <Gold.PLP.part.buried>
-1.9961

> <Gold.PLP.part.nonpolar>
-30.8980

> <Gold.PLP.part.repulsive>
0.2565

> <Gold.PLP.ligand.clash>
0.0000

> <Gold.PLP.ligand.torsion>
0.6243

> <Gold.PLP.Chemscore.Hbond>
2.8720

> <Gold.PLP.Chemscore.CHOScore>
0.0000

> <Gold.PLP.Chemscore.Metal>
0.0000

> <Gold.Chemscore.Hbonds>
donor molecule, donor type, donor heavy atom, donor atom, acceptor molecule, acceptor atom, score
      L1  H     5    25       P1  8028  0.86
      L1  H     8    26       P1  8028  0.99
      L1  H    14    31       P1 10175  1.00

> <Gold.PLP.Chemscore.Internal.Correction>
0.0130

> <Gold.Rescore>
     Score         DG    S(hbond)    S(metal)    S(lipo)     H(rot)  DE(clash)    DE(int)     intcor
     18.28     -22.13       2.82        0.00     100.64       1.78       0.52       3.34       ----

> <Gold.Chemscore.Fitness>
18.2762

> <Gold.Chemscore.DG>
-22.1294

> <Gold.Chemscore.ZeroCoef>
-5.4800

> <Gold.Chemscore.Hbond>
2.8233

> <Gold.Chemscore.Metal>
0.0000

> <Gold.Chemscore.Lipo>
100.6443

> <Gold.Chemscore.Internal_Hbond>
0.0000

> <Gold.Chemscore.DEClash>
0.5159

> <Gold.Chemscore.DEInternal>
3.3373

> <Gold.Chemscore.Rot>
1.7796

> <Gold.Chemscore.Internal.Correction>
   9.000000E+99

> <Gold.Chemscore.Hbonds>
donor molecule, donor type, donor heavy atom, donor atom, acceptor molecule, acceptor atom, score
      L1  H     5    25       P1  8028  0.76
      L1  H     8    26       P1  8028  0.93
      L1  H    14    31       P1 10175  0.94

> <Gold.Chemscore.Hbond.Weighted>
-9.4298

> <Gold.Chemscore.Metal.Weighted>
-0.0000

> <Gold.Chemscore.Lipo.Weighted>
-11.7754

> <Gold.Chemscore.Internal_Hbond.Weighted>
0.0000

> <Gold.Chemscore.DEClash.Weighted>
0.5159

> <Gold.Chemscore.DEInternal.Weighted>
3.3373

> <Gold.Chemscore.Rot.Weighted>
4.5558

> <Gold.Chemscore.Internal.Correction.Weighted>
   9.000000E+99

> <Gold.Protein.RotatedTorsions>
[ 6907 6896 6895 6894 ] final  109.91 input  -60.11 | X-H torsion
[ 7974 7965 7964 7962 ] final  -40.92 input  175.53 | X-H torsion
[ 8008 7997 7996 7995 ] final -121.11 input   59.86 | X-H torsion
[ 10167 10162 10161 10158 ] final  -72.90 input  -65.29 | X-H torsion
[ 10718 10713 10712 10709 ] final   95.10 input   66.30 | X-H torsion
[ 10763 10752 10751 10750 ] final    9.33 input  -60.55 | X-H torsion
[ 11005 11000 10999 10996 ] final  127.93 input  -57.11 | X-H torsion

> <Gold.Protein.ActiveResidues>
 VAL166  LYS551  ARG553  GLY616  TRP617  ASP618  TYR619  PRO620  LYS621  CYS622 
 ASP623  PHE694  ASN695  SER759  ASP760  ASP761  ALA762  ILE779  LEU786  VAL792 
 PHE793  MET794  SER795  GLU796  ALA797  LYS798  CYS799  TRP800  GLU811  SER814 

> <Gold.Protein.RotatedAtoms>
  152.5045  133.8876  159.7377 H   0  0  0  0  0  0  0  0  0  0  0  0  # atno 6907 bound_to 6896
  150.9323  133.6744  159.2815 H   0  0  0  0  0  0  0  0  0  0  0  0  # atno 6908 bound_to 6896
  151.4084  135.0986  159.9630 H   0  0  0  0  0  0  0  0  0  0  0  0  # atno 6909 bound_to 6896
  146.0259  140.6792  142.9156 H   0  0  0  0  0  0  0  0  0  0  0  0  # atno 7974 bound_to 7965
  155.1427  140.0402  157.2802 H   0  0  0  0  0  0  0  0  0  0  0  0  # atno 8008 bound_to 7997
  154.6461  140.2558  155.7240 H   0  0  0  0  0  0  0  0  0  0  0  0  # atno 8009 bound_to 7997
  156.2555  140.2846  156.0875 H   0  0  0  0  0  0  0  0  0  0  0  0  # atno 8010 bound_to 7997
  140.5155  143.2338  151.7521 H   0  0  0  0  0  0  0  0  0  0  0  0  # atno 10167 bound_to 10162
  157.6942  131.0534  150.4287 H   0  0  0  0  0  0  0  0  0  0  0  0  # atno 10718 bound_to 10713
  153.2152  135.6874  153.8066 H   0  0  0  0  0  0  0  0  0  0  0  0  # atno 10763 bound_to 10752
  153.7285  135.3256  155.3282 H   0  0  0  0  0  0  0  0  0  0  0  0  # atno 10764 bound_to 10752
  154.8242  135.4630  154.0976 H   0  0  0  0  0  0  0  0  0  0  0  0  # atno 10765 bound_to 10752
  139.9533  134.9618  156.8927 H   0  0  0  0  0  0  0  0  0  0  0  0  # atno 11005 bound_to 11000
  144.7009  140.3650  143.7156 LP  0  0  0  0  0  0  0  0  0  0  0  0  # atno 17320 bound_to 7965
  145.7118  139.1686  143.2534 LP  0  0  0  0  0  0  0  0  0  0  0  0  # atno 17321 bound_to 7965
  139.4908  144.4330  151.9850 LP  0  0  0  0  0  0  0  0  0  0  0  0  # atno 17342 bound_to 10162
  140.3424  144.3187  150.5964 LP  0  0  0  0  0  0  0  0  0  0  0  0  # atno 17343 bound_to 10162
  156.4656  130.4041  149.6549 LP  0  0  0  0  0  0  0  0  0  0  0  0  # atno 17370 bound_to 10713
  156.3649  130.7500  151.2477 LP  0  0  0  0  0  0  0  0  0  0  0  0  # atno 17371 bound_to 10713
  140.5667  134.0483  155.7416 LP  0  0  0  0  0  0  0  0  0  0  0  0  # atno 17394 bound_to 11000
  141.1201  133.9476  157.2747 LP  0  0  0  0  0  0  0  0  0  0  0  0  # atno 17395 bound_to 11000

$$$$
