AV-unprocessed.smi:229|AV-procd|sdf|1759|dock2
  -GOLD-   2262020283D 1   1.00000     0.00000
 Structure written by MMmdl.
 58 62  0  0  0  0  0  0  0  0  1 V2000
  151.2247  130.8907  156.9572 C   0  0  0  0  0  0  0  0  0  0  0  0
  151.3672  132.3928  157.2375 C   0  0  0  0  0  0  0  0  0  0  0  0
  150.9045  133.2847  156.0736 C   0  0  2  0  0  0  0  0  0  0  0  0
  151.2339  134.7728  156.2898 C   0  0  0  0  0  0  0  0  0  0  0  0
  150.6728  135.5690  155.2058 N   0  0  0  0  0  0  0  0  0  0  0  0
  151.1659  136.8290  155.1017 C   0  0  0  0  0  0  0  0  0  0  0  0
  152.1820  137.0923  154.2361 N   0  0  0  0  0  0  0  0  0  0  0  0
  152.6674  138.3320  154.1202 C   0  0  0  0  0  0  0  0  0  0  0  0
  152.2927  139.4387  154.7646 N   0  0  0  0  0  0  0  0  0  0  0  0
  151.2803  139.1798  155.6404 C   0  0  0  0  0  0  0  0  0  0  0  0
  150.6647  137.9170  155.8712 C   0  0  0  0  0  0  0  0  0  0  0  0
  149.6815  138.0428  156.8465 N   0  0  0  0  0  0  0  0  0  0  0  0
  149.7071  139.3081  157.1652 C   0  0  0  0  0  0  0  0  0  0  0  0
  150.6373  140.0631  156.4880 N   0  0  0  0  0  0  0  0  0  0  0  0
  150.8858  141.4854  156.6434 C   0  0  0  0  0  0  0  0  0  0  0  0
  150.2853  142.0492  157.9461 C   0  0  2  0  0  0  0  0  0  0  0  0
  149.0743  142.7194  157.6500 O   0  0  0  0  0  0  0  0  0  0  0  0
  151.2633  142.9988  158.6681 C   0  0  1  0  0  0  0  0  0  0  0  0
  151.6705  144.2800  157.9329 C   0  0  0  0  0  0  0  0  0  0  0  0
  152.1009  145.1534  159.0898 C   0  0  0  0  0  0  0  0  0  0  0  0
  151.0779  144.7801  160.1610 C   0  0  0  0  0  0  0  0  0  0  0  0
  150.7415  143.4145  159.9267 O   0  0  0  0  0  0  0  0  0  0  0  0
  149.2354  135.3749  155.0401 C   0  0  0  0  0  0  0  0  0  0  0  0
  148.8943  133.8761  154.8821 C   0  0  2  0  0  0  0  0  0  0  0  0
  149.2880  133.2971  153.5183 C   0  0  0  0  0  0  0  0  0  0  0  0
  147.9696  133.2204  152.7615 C   0  0  0  0  0  0  0  0  0  0  0  0
  147.0605  132.8558  153.7826 O   0  0  0  0  0  0  0  0  0  0  0  0
  147.3704  133.6490  154.9197 C   0  0  0  0  0  0  0  0  0  0  0  0
  149.4885  133.1373  155.9546 O   0  0  0  0  0  0  0  0  0  0  0  0
  151.5051  130.3065  157.8337 H   0  0  0  0  0  0  0  0  0  0  0  0
  151.8643  130.5726  156.1340 H   0  0  0  0  0  0  0  0  0  0  0  0
  150.1960  130.6338  156.7030 H   0  0  0  0  0  0  0  0  0  0  0  0
  150.7758  132.6342  158.1214 H   0  0  0  0  0  0  0  0  0  0  0  0
  152.4020  132.6233  157.4935 H   0  0  0  0  0  0  0  0  0  0  0  0
  151.3844  132.9345  155.1588 H   0  0  0  0  0  0  0  0  0  0  0  0
  150.8134  135.1179  157.2354 H   0  0  0  0  0  0  0  0  0  0  0  0
  152.3122  134.9059  156.3579 H   0  0  0  0  0  0  0  0  0  0  0  0
  153.4712  138.4541  153.4093 H   0  0  0  0  0  0  0  0  0  0  0  0
  149.0485  139.7277  157.9117 H   0  0  0  0  0  0  0  0  0  0  0  0
  151.9647  141.6450  156.6244 H   0  0  0  0  0  0  0  0  0  0  0  0
  150.4787  142.0064  155.7758 H   0  0  0  0  0  0  0  0  0  0  0  0
  150.0548  141.2158  158.6108 H   0  0  0  0  0  0  0  0  0  0  0  0
  149.2529  143.3803  156.9985 H   0  0  0  0  0  0  0  0  0  0  0  0
  152.1724  142.4434  158.9051 H   0  0  0  0  0  0  0  0  0  0  0  0
  152.4625  144.1177  157.2014 H   0  0  0  0  0  0  0  0  0  0  0  0
  150.8246  144.7422  157.4234 H   0  0  0  0  0  0  0  0  0  0  0  0
  153.1049  144.8768  159.4150 H   0  0  0  0  0  0  0  0  0  0  0  0
  152.1001  146.2171  158.8501 H   0  0  0  0  0  0  0  0  0  0  0  0
  151.4589  144.9296  161.1714 H   0  0  0  0  0  0  0  0  0  0  0  0
  150.1746  145.3810  160.0477 H   0  0  0  0  0  0  0  0  0  0  0  0
  148.7248  135.7788  155.9158 H   0  0  0  0  0  0  0  0  0  0  0  0
  148.8763  135.9308  154.1723 H   0  0  0  0  0  0  0  0  0  0  0  0
  150.0423  133.8841  152.9932 H   0  0  0  0  0  0  0  0  0  0  0  0
  149.6786  132.2853  153.6365 H   0  0  0  0  0  0  0  0  0  0  0  0
  147.6947  134.1919  152.3471 H   0  0  0  0  0  0  0  0  0  0  0  0
  147.9868  132.4885  151.9539 H   0  0  0  0  0  0  0  0  0  0  0  0
  147.0367  133.1596  155.8352 H   0  0  0  0  0  0  0  0  0  0  0  0
  146.8280  134.5921  154.8359 H   0  0  0  0  0  0  0  0  0  0  0  0
  1  2  1  0  0  0  0
  1 30  1  0  0  0  0
  1 31  1  0  0  0  0
  1 32  1  0  0  0  0
  2  3  1  0  0  0  0
  2 33  1  0  0  0  0
  2 34  1  0  0  0  0
  3 29  1  0  0  0  0
  3  4  1  0  0  0  0
  3 35  1  0  0  0  0
  4  5  1  0  0  0  0
  4 36  1  0  0  0  0
  4 37  1  0  0  0  0
  5  6  1  0  0  0  0
  5 23  1  0  0  0  0
  6 11  1  0  0  0  0
  6  7  2  0  0  0  0
  7  8  1  0  0  0  0
  8  9  2  0  0  0  0
  8 38  1  0  0  0  0
  9 10  1  0  0  0  0
 10 14  1  0  0  0  0
 10 11  2  0  0  0  0
 11 12  1  0  0  0  0
 12 13  2  0  0  0  0
 13 14  1  0  0  0  0
 13 39  1  0  0  0  0
 14 15  1  0  0  0  0
 15 16  1  0  0  0  0
 15 40  1  0  0  0  0
 15 41  1  0  0  0  0
 16 17  1  0  0  0  0
 16 18  1  0  0  0  0
 16 42  1  0  0  0  0
 17 43  1  0  0  0  0
 18 22  1  0  0  0  0
 18 19  1  0  0  0  0
 18 44  1  0  0  0  0
 19 20  1  0  0  0  0
 19 45  1  0  0  0  0
 19 46  1  0  0  0  0
 20 21  1  0  0  0  0
 20 47  1  0  0  0  0
 20 48  1  0  0  0  0
 21 22  1  0  0  0  0
 21 49  1  0  0  0  0
 21 50  1  0  0  0  0
 23 24  1  0  0  0  0
 23 51  1  0  0  0  0
 23 52  1  0  0  0  0
 24 28  1  0  0  0  0
 24 25  1  0  0  0  0
 24 29  1  0  0  0  0
 25 26  1  0  0  0  0
 25 53  1  0  0  0  0
 25 54  1  0  0  0  0
 26 27  1  0  0  0  0
 26 55  1  0  0  0  0
 26 56  1  0  0  0  0
 27 28  1  0  0  0  0
 28 57  1  0  0  0  0
 28 58  1  0  0  0  0
M  END
> <s_m_source_file>
AV-unprocessed.smi

> <i_m_source_file_index>
229

> <i_lp_mmshare_version>
43012

> <i_f3d_flags>
0

> <s_epik_input>
W0NIMl0xT1tDSDJdW0NIMl1bQ0BdMTJbQ0gyXU4oW0NIMl1bQ0BIXShPMilbQ0gyXVtDSDNdKWMobltjSF1uMyljKGMzNCluW2NIXW40W0NIMl1bQ0BIXShbT0hdKVtDQEBIXTVbQ0gyXVtDSDJdW0NIMl1PNQ==

> <s_epik_cmdline>
J2VwaWtfcHl0aG9uJywgJy1waCcsICc3LjAnLCAnLXRuJywgJzgnLCAnLW1hJywgJzIwMCcsICctbWV0YWxfYmluZGluZycsICctaW1hZScsICc8aW5maWxlLm1hZT4nLCAnLW9tYWUnLCAnPG91dGZpbGUubWFlPic=

> <r_lp_tautomer_probability>
1

> <r_epik_Ionization_Penalty>
0.00318402

> <r_epik_Ionization_Penalty_Charging>
0

> <r_epik_Ionization_Penalty_Neutral>
0.00318402

> <r_epik_State_Penalty>
0.00215642

> <r_epik_Charging_Adjusted_Penalty>
0.00215642

> <i_epik_Tot_Q>
0

> <i_epik_Tot_abs_Q>
0

> <r_epik_Metal_State_Penalty>
-0

> <b_epik_Metal_Only>
0

> <s_lp_Force_Field>
OPLS_2005

> <r_lp_Energy>
55.431

> <b_lp_Chiralities_Consistent>
1

> <s_lp_Variant>
AV-unprocessed.smi:229-13

> <Gold.Version>
5.8.1

> <Gold.Id.Protein>
6NUR|6NUR_protein|mol2

> <Gold.PLP.Fitness>
51.1014

> <Gold.PLP.PLP>
-44.8202

> <Gold.PLP.part.hbond>
-3.9404

> <Gold.PLP.part.metal>
0.0000

> <Gold.PLP.part.buried>
-5.9959

> <Gold.PLP.part.nonpolar>
-35.9099

> <Gold.PLP.part.repulsive>
1.0798

> <Gold.PLP.ligand.clash>
0.0000

> <Gold.PLP.ligand.torsion>
1.2487

> <Gold.PLP.Chemscore.Hbond>
2.7920

> <Gold.PLP.Chemscore.CHOScore>
0.0000

> <Gold.PLP.Chemscore.Metal>
0.0000

> <Gold.Chemscore.Hbonds>
donor molecule, donor type, donor heavy atom, donor atom, acceptor molecule, acceptor atom, score
      L1  H    17    43       P1  8028  1.00
      P1  H  7989  7998       L1     9  0.77
      P1  H 10752 10763       L1     7  0.91

> <Gold.PLP.Chemscore.Internal.Correction>
0.4025

> <Gold.Rescore>
     Score         DG    S(hbond)    S(metal)    S(lipo)     H(rot)  DE(clash)    DE(int)     intcor
     16.56     -17.90       2.18        0.00      97.82       2.46       0.22       1.12       ----

> <Gold.Chemscore.Fitness>
16.5579

> <Gold.Chemscore.DG>
-17.8972

> <Gold.Chemscore.ZeroCoef>
-5.4800

> <Gold.Chemscore.Hbond>
2.1759

> <Gold.Chemscore.Metal>
0.0000

> <Gold.Chemscore.Lipo>
97.8205

> <Gold.Chemscore.Internal_Hbond>
0.0000

> <Gold.Chemscore.DEClash>
0.2156

> <Gold.Chemscore.DEInternal>
1.1237

> <Gold.Chemscore.Rot>
2.4591

> <Gold.Chemscore.Internal.Correction>
   9.000000E+99

> <Gold.Chemscore.Hbonds>
donor molecule, donor type, donor heavy atom, donor atom, acceptor molecule, acceptor atom, score
      L1  H    17    43       P1  8028  0.87
      P1  H  7989  7998       L1     9  0.40
      P1  H 10752 10763       L1     7  0.35

> <Gold.Chemscore.Hbond.Weighted>
-7.2675

> <Gold.Chemscore.Metal.Weighted>
-0.0000

> <Gold.Chemscore.Lipo.Weighted>
-11.4450

> <Gold.Chemscore.Internal_Hbond.Weighted>
0.0000

> <Gold.Chemscore.DEClash.Weighted>
0.2156

> <Gold.Chemscore.DEInternal.Weighted>
1.1237

> <Gold.Chemscore.Rot.Weighted>
6.2953

> <Gold.Chemscore.Internal.Correction.Weighted>
   9.000000E+99

> <Gold.Protein.RotatedTorsions>
[ 6907 6896 6895 6894 ] final -174.91 input  -60.11 | X-H torsion
[ 7974 7965 7964 7962 ] final  125.27 input  175.53 | X-H torsion
[ 8008 7997 7996 7995 ] final    2.94 input   59.86 | X-H torsion
[ 10167 10162 10161 10158 ] final   12.14 input  -65.29 | X-H torsion
[ 10718 10713 10712 10709 ] final  164.87 input   66.30 | X-H torsion
[ 10763 10752 10751 10750 ] final   35.75 input  -60.55 | X-H torsion
[ 11005 11000 10999 10996 ] final  156.25 input  -57.11 | X-H torsion

> <Gold.Protein.ActiveResidues>
 VAL166  LYS551  ARG553  GLY616  TRP617  ASP618  TYR619  PRO620  LYS621  CYS622 
 ASP623  PHE694  ASN695  SER759  ASP760  ASP761  ALA762  ILE779  LEU786  VAL792 
 PHE793  MET794  SER795  GLU796  ALA797  LYS798  CYS799  TRP800  GLU811  SER814 

> <Gold.Protein.RotatedAtoms>
  151.5799  133.3379  159.3006 H   0  0  0  0  0  0  0  0  0  0  0  0  # atno 6907 bound_to 6896
  150.8319  134.7579  159.6872 H   0  0  0  0  0  0  0  0  0  0  0  0  # atno 6908 bound_to 6896
  152.4401  134.5614  159.9947 H   0  0  0  0  0  0  0  0  0  0  0  0  # atno 6909 bound_to 6896
  145.0749  139.3701  143.4939 H   0  0  0  0  0  0  0  0  0  0  0  0  # atno 7974 bound_to 7965
  154.6976  140.2666  155.6751 H   0  0  0  0  0  0  0  0  0  0  0  0  # atno 8008 bound_to 7997
  156.2754  140.2778  156.1499 H   0  0  0  0  0  0  0  0  0  0  0  0  # atno 8009 bound_to 7997
  155.0809  140.0372  157.2629 H   0  0  0  0  0  0  0  0  0  0  0  0  # atno 8010 bound_to 7997
  140.6087  143.8453  150.7042 H   0  0  0  0  0  0  0  0  0  0  0  0  # atno 10167 bound_to 10162
  157.0882  131.0410  151.2548 H   0  0  0  0  0  0  0  0  0  0  0  0  # atno 10718 bound_to 10713
  153.0106  135.6325  154.1876 H   0  0  0  0  0  0  0  0  0  0  0  0  # atno 10763 bound_to 10752
  154.1618  135.2823  155.3108 H   0  0  0  0  0  0  0  0  0  0  0  0  # atno 10764 bound_to 10752
  154.5975  135.5598  153.7401 H   0  0  0  0  0  0  0  0  0  0  0  0  # atno 10765 bound_to 10752
  140.1657  134.8578  157.2629 H   0  0  0  0  0  0  0  0  0  0  0  0  # atno 11005 bound_to 11000
  146.3530  140.0511  142.8636 LP  0  0  0  0  0  0  0  0  0  0  0  0  # atno 17320 bound_to 7965
  145.1248  140.9483  143.4579 LP  0  0  0  0  0  0  0  0  0  0  0  0  # atno 17321 bound_to 7965
  140.2016  143.3954  152.1787 LP  0  0  0  0  0  0  0  0  0  0  0  0  # atno 17342 bound_to 10162
  139.5344  144.7194  151.4942 LP  0  0  0  0  0  0  0  0  0  0  0  0  # atno 17343 bound_to 10162
  157.4743  130.7727  149.7353 LP  0  0  0  0  0  0  0  0  0  0  0  0  # atno 17370 bound_to 10713
  155.9905  130.3944  150.3026 LP  0  0  0  0  0  0  0  0  0  0  0  0  # atno 17371 bound_to 10713
  140.2436  134.3766  155.7470 LP  0  0  0  0  0  0  0  0  0  0  0  0  # atno 17394 bound_to 11000
  141.2213  133.7278  156.8827 LP  0  0  0  0  0  0  0  0  0  0  0  0  # atno 17395 bound_to 11000

$$$$
