AV-unprocessed.smi:212|AV-procd|sdf|1624|dock4
  -GOLD-   2262019563D 1   1.00000     0.00000
 Structure written by MMmdl.
 65 68  0  0  0  0  0  0  0  0  2 V2000
  150.3727  135.1157  155.9420 C   0  0  0  0  0  0  0  0  0  0  0  0
  149.1433  135.5471  156.7647 C   0  0  1  0  0  0  0  0  0  0  0  0
  149.4212  135.6431  158.2812 C   0  0  0  0  0  0  0  0  0  0  0  0
  148.1890  136.0067  159.0284 N   0  3  1  0  0  0  0  0  0  0  0  0
  148.3857  136.0432  160.5016 C   0  0  0  0  0  0  0  0  0  0  0  0
  147.0499  135.9542  161.2739 C   0  0  0  0  0  0  0  0  0  0  0  0
  146.0544  135.0635  160.5117 C   0  0  0  0  0  0  0  0  0  0  0  0
  147.2308  135.4374  162.7131 C   0  0  0  0  0  0  0  0  0  0  0  0
  146.4784  137.2466  161.3327 O   0  0  0  0  0  0  0  0  0  0  0  0
  147.5321  137.2267  158.4918 C   0  0  0  0  0  0  0  0  0  0  0  0
  147.2550  137.0897  156.9828 C   0  0  0  0  0  0  0  0  0  0  0  0
  148.4776  136.7550  156.2588 N   0  0  0  0  0  0  0  0  0  0  0  0
  149.1926  137.8531  155.9027 C   0  0  0  0  0  0  0  0  0  0  0  0
  149.3501  138.1859  154.5945 N   0  0  0  0  0  0  0  0  0  0  0  0
  150.0787  139.2536  154.2542 C   0  0  0  0  0  0  0  0  0  0  0  0
  150.7317  140.1054  155.0471 N   0  0  0  0  0  0  0  0  0  0  0  0
  150.5844  139.7691  156.3602 C   0  0  0  0  0  0  0  0  0  0  0  0
  149.8418  138.6676  156.8695 C   0  0  0  0  0  0  0  0  0  0  0  0
  149.9219  138.6397  158.2563 N   0  0  0  0  0  0  0  0  0  0  0  0
  150.6690  139.6691  158.5511 C   0  0  0  0  0  0  0  0  0  0  0  0
  151.1047  140.4056  157.4724 N   0  0  0  0  0  0  0  0  0  0  0  0
  151.9410  141.5925  157.5089 C   0  0  0  0  0  0  0  0  0  0  0  0
  152.3333  142.0238  158.9444 C   0  0  1  0  0  0  0  0  0  0  0  0
  153.6122  141.3165  159.4551 C   0  0  0  0  0  0  0  0  0  0  0  0
  153.7328  140.0151  158.9179 O   0  0  0  0  0  0  0  0  0  0  0  0
  152.4227  143.5658  159.0687 C   0  0  2  0  0  0  0  0  0  0  0  0
  152.1683  144.1133  160.4624 C   0  0  0  0  0  0  0  0  0  0  0  0
  151.8601  145.5798  160.1812 C   0  0  0  0  0  0  0  0  0  0  0  0
  151.2303  145.6033  158.9050 O   0  0  0  0  0  0  0  0  0  0  0  0
  151.3607  144.3332  158.2745 C   0  0  0  0  0  0  0  0  0  0  0  0
  150.7203  134.1320  156.2584 H   0  0  0  0  0  0  0  0  0  0  0  0
  151.2121  135.8013  156.0520 H   0  0  0  0  0  0  0  0  0  0  0  0
  150.1304  135.0496  154.8809 H   0  0  0  0  0  0  0  0  0  0  0  0
  148.4107  134.7494  156.6333 H   0  0  0  0  0  0  0  0  0  0  0  0
  149.7874  134.6825  158.6457 H   0  0  0  0  0  0  0  0  0  0  0  0
  150.2028  136.3738  158.4904 H   0  0  0  0  0  0  0  0  0  0  0  0
  149.0421  135.2282  160.8127 H   0  0  0  0  0  0  0  0  0  0  0  0
  148.9102  136.9567  160.7866 H   0  0  0  0  0  0  0  0  0  0  0  0
  146.4277  134.0426  160.4241 H   0  0  0  0  0  0  0  0  0  0  0  0
  145.8767  135.4354  159.5017 H   0  0  0  0  0  0  0  0  0  0  0  0
  145.0898  135.0171  161.0188 H   0  0  0  0  0  0  0  0  0  0  0  0
  147.6862  134.4466  162.7204 H   0  0  0  0  0  0  0  0  0  0  0  0
  146.2732  135.3611  163.2296 H   0  0  0  0  0  0  0  0  0  0  0  0
  147.8648  136.0972  163.3061 H   0  0  0  0  0  0  0  0  0  0  0  0
  145.6090  137.1755  161.6977 H   0  0  0  0  0  0  0  0  0  0  0  0
  146.5943  137.4022  159.0196 H   0  0  0  0  0  0  0  0  0  0  0  0
  148.1685  138.0930  158.6789 H   0  0  0  0  0  0  0  0  0  0  0  0
  146.5239  136.2989  156.8104 H   0  0  0  0  0  0  0  0  0  0  0  0
  146.8071  138.0073  156.5990 H   0  0  0  0  0  0  0  0  0  0  0  0
  150.1500  139.4530  153.1951 H   0  0  0  0  0  0  0  0  0  0  0  0
  150.9189  139.9256  159.5705 H   0  0  0  0  0  0  0  0  0  0  0  0
  152.8360  141.4012  156.9157 H   0  0  0  0  0  0  0  0  0  0  0  0
  151.4010  142.3923  157.0017 H   0  0  0  0  0  0  0  0  0  0  0  0
  151.5259  141.6983  159.6015 H   0  0  0  0  0  0  0  0  0  0  0  0
  154.5028  141.8871  159.1929 H   0  0  0  0  0  0  0  0  0  0  0  0
  153.6141  141.2482  160.5429 H   0  0  0  0  0  0  0  0  0  0  0  0
  153.4023  139.3969  159.5519 H   0  0  0  0  0  0  0  0  0  0  0  0
  153.4076  143.9025  158.7406 H   0  0  0  0  0  0  0  0  0  0  0  0
  151.2994  143.6285  160.9102 H   0  0  0  0  0  0  0  0  0  0  0  0
  153.0159  143.9896  161.1369 H   0  0  0  0  0  0  0  0  0  0  0  0
  151.2278  146.0277  160.9481 H   0  0  0  0  0  0  0  0  0  0  0  0
  152.7834  146.1576  160.1226 H   0  0  0  0  0  0  0  0  0  0  0  0
  151.6249  144.4447  157.2227 H   0  0  0  0  0  0  0  0  0  0  0  0
  150.3964  143.8261  158.3275 H   0  0  0  0  0  0  0  0  0  0  0  0
  147.5411  135.2496  158.8624 H   0  0  0  0  0  0  0  0  0  0  0  0
  1  2  1  0  0  0  0
  1 31  1  0  0  0  0
  1 32  1  0  0  0  0
  1 33  1  0  0  0  0
  2 12  1  0  0  0  0
  2  3  1  0  0  0  0
  2 34  1  0  0  0  0
  3  4  1  0  0  0  0
  3 35  1  0  0  0  0
  3 36  1  0  0  0  0
  4  5  1  0  0  0  0
  4 10  1  0  0  0  0
  4 65  1  0  0  0  0
  5  6  1  0  0  0  0
  5 37  1  0  0  0  0
  5 38  1  0  0  0  0
  6  7  1  0  0  0  0
  6  8  1  0  0  0  0
  6  9  1  0  0  0  0
  7 39  1  0  0  0  0
  7 40  1  0  0  0  0
  7 41  1  0  0  0  0
  8 42  1  0  0  0  0
  8 43  1  0  0  0  0
  8 44  1  0  0  0  0
  9 45  1  0  0  0  0
 10 11  1  0  0  0  0
 10 46  1  0  0  0  0
 10 47  1  0  0  0  0
 11 12  1  0  0  0  0
 11 48  1  0  0  0  0
 11 49  1  0  0  0  0
 12 13  1  0  0  0  0
 13 18  1  0  0  0  0
 13 14  2  0  0  0  0
 14 15  1  0  0  0  0
 15 16  2  0  0  0  0
 15 50  1  0  0  0  0
 16 17  1  0  0  0  0
 17 21  1  0  0  0  0
 17 18  2  0  0  0  0
 18 19  1  0  0  0  0
 19 20  2  0  0  0  0
 20 21  1  0  0  0  0
 20 51  1  0  0  0  0
 21 22  1  0  0  0  0
 22 23  1  0  0  0  0
 22 52  1  0  0  0  0
 22 53  1  0  0  0  0
 23 24  1  0  0  0  0
 23 26  1  0  0  0  0
 23 54  1  0  0  0  0
 24 25  1  0  0  0  0
 24 55  1  0  0  0  0
 24 56  1  0  0  0  0
 25 57  1  0  0  0  0
 26 30  1  0  0  0  0
 26 27  1  0  0  0  0
 26 58  1  0  0  0  0
 27 28  1  0  0  0  0
 27 59  1  0  0  0  0
 27 60  1  0  0  0  0
 28 29  1  0  0  0  0
 28 61  1  0  0  0  0
 28 62  1  0  0  0  0
 29 30  1  0  0  0  0
 30 63  1  0  0  0  0
 30 64  1  0  0  0  0
M  CHG  1   4   1
M  END
> <s_m_source_file>
AV-unprocessed.smi

> <i_m_source_file_index>
212

> <i_lp_mmshare_version>
43012

> <i_f3d_flags>
0

> <s_epik_input>
W0NIM11bQ0BASF0xW0NIMl1OKFtDSDJdQyhbQ0gzXSkoW0NIM10pW09IXSlbQ0gyXVtDSDJdTjFjKG5bY0hdbjIpYyhjMjMpbltjSF1uM1tDSDJdW0NASF0oW0NIMl1bT0hdKVtDQEBIXTRbQ0gyXVtDSDJdT1tDSDJdNA==

> <s_epik_cmdline>
J2VwaWtfcHl0aG9uJywgJy1waCcsICc3LjAnLCAnLXRuJywgJzgnLCAnLW1hJywgJzIwMCcsICctbWV0YWxfYmluZGluZycsICctaW1hZScsICc8aW5maWxlLm1hZT4nLCAnLW9tYWUnLCAnPG91dGZpbGUubWFlPic=

> <r_lp_tautomer_probability>
1

> <r_epik_Ionization_Penalty>
0.00182193

> <r_epik_Ionization_Penalty_Charging>
0.00173996

> <r_epik_Ionization_Penalty_Neutral>
8.19718e-05

> <r_epik_State_Penalty>
-0

> <r_epik_Charging_Adjusted_Penalty>
0.00173996

> <i_epik_Tot_Q>
1

> <i_epik_Tot_abs_Q>
1

> <r_epik_Metal_State_Penalty>
-0

> <b_epik_Metal_Only>
0

> <s_lp_Force_Field>
OPLS_2005

> <r_lp_Energy>
58.8905

> <b_lp_Chiralities_Consistent>
1

> <s_lp_Variant>
AV-unprocessed.smi:212-8

> <Gold.Version>
5.8.1

> <Gold.Id.Protein>
6NUR|6NUR_protein|mol2

> <Gold.PLP.Fitness>
52.5496

> <Gold.PLP.PLP>
-44.0722

> <Gold.PLP.part.hbond>
-4.0000

> <Gold.PLP.part.metal>
0.0000

> <Gold.PLP.part.buried>
-5.0483

> <Gold.PLP.part.nonpolar>
-35.0294

> <Gold.PLP.part.repulsive>
0.5152

> <Gold.PLP.ligand.clash>
0.0000

> <Gold.PLP.ligand.torsion>
1.7406

> <Gold.PLP.Chemscore.Hbond>
2.5500

> <Gold.PLP.Chemscore.CHOScore>
1.0000

> <Gold.PLP.Chemscore.Metal>
0.0000

> <Gold.Chemscore.Hbonds>
donor molecule, donor type, donor heavy atom, donor atom, acceptor molecule, acceptor atom, score
      P1  H  6934  6947       L1     9  1.00
      P1  H  7989  7998       L1    16  0.50
      P1  H  7997  8009       L1    25  1.00
      L1  C    15    50       P1  7957  1.00

> <Gold.PLP.Chemscore.Internal.Correction>
1.3087

> <Gold.Rescore>
     Score         DG    S(hbond)    S(metal)    S(lipo)     H(rot)  DE(clash)    DE(int)     intcor
      9.85     -15.91       1.87        0.00     116.40       3.68       1.08       4.98       ----

> <Gold.Chemscore.Fitness>
9.8493

> <Gold.Chemscore.DG>
-15.9092

> <Gold.Chemscore.ZeroCoef>
-5.4800

> <Gold.Chemscore.Hbond>
1.8664

> <Gold.Chemscore.Metal>
0.0000

> <Gold.Chemscore.Lipo>
116.4047

> <Gold.Chemscore.Internal_Hbond>
0.0000

> <Gold.Chemscore.DEClash>
1.0832

> <Gold.Chemscore.DEInternal>
4.9767

> <Gold.Chemscore.Rot>
3.6812

> <Gold.Chemscore.Internal.Correction>
   9.000000E+99

> <Gold.Chemscore.Hbonds>
donor molecule, donor type, donor heavy atom, donor atom, acceptor molecule, acceptor atom, score
      P1  H  6934  6947       L1     9  0.95
      P1  H  7989  7998       L1    16  0.02
      P1  H  7997  8009       L1    25  0.71

> <Gold.Chemscore.Hbond.Weighted>
-6.2338

> <Gold.Chemscore.Metal.Weighted>
-0.0000

> <Gold.Chemscore.Lipo.Weighted>
-13.6193

> <Gold.Chemscore.Internal_Hbond.Weighted>
0.0000

> <Gold.Chemscore.DEClash.Weighted>
1.0832

> <Gold.Chemscore.DEInternal.Weighted>
4.9767

> <Gold.Chemscore.Rot.Weighted>
9.4239

> <Gold.Chemscore.Internal.Correction.Weighted>
   9.000000E+99

> <Gold.Protein.RotatedTorsions>
[ 6907 6896 6895 6894 ] final -178.05 input  -60.11 | X-H torsion
[ 7974 7965 7964 7962 ] final   61.20 input  175.53 | X-H torsion
[ 8008 7997 7996 7995 ] final  133.98 input   59.86 | X-H torsion
[ 10167 10162 10161 10158 ] final   95.97 input  -65.29 | X-H torsion
[ 10718 10713 10712 10709 ] final -114.69 input   66.30 | X-H torsion
[ 10763 10752 10751 10750 ] final -133.89 input  -60.55 | X-H torsion
[ 11005 11000 10999 10996 ] final   62.28 input  -57.11 | X-H torsion

> <Gold.Protein.ActiveResidues>
 VAL166  LYS551  ARG553  GLY616  TRP617  ASP618  TYR619  PRO620  LYS621  CYS622 
 ASP623  PHE694  ASN695  SER759  ASP760  ASP761  ALA762  ILE779  LEU786  VAL792 
 PHE793  MET794  SER795  GLU796  ALA797  LYS798  CYS799  TRP800  GLU811  SER814 

> <Gold.Protein.RotatedAtoms>
  151.6310  133.3332  159.3108 H   0  0  0  0  0  0  0  0  0  0  0  0  # atno 6907 bound_to 6896
  150.8056  134.7183  159.6653 H   0  0  0  0  0  0  0  0  0  0  0  0  # atno 6908 bound_to 6896
  152.4152  134.6059  160.0064 H   0  0  0  0  0  0  0  0  0  0  0  0  # atno 6909 bound_to 6896
  145.8874  139.3487  143.0669 H   0  0  0  0  0  0  0  0  0  0  0  0  # atno 7974 bound_to 7965
  156.2996  140.2508  156.3342 H   0  0  0  0  0  0  0  0  0  0  0  0  # atno 8008 bound_to 7997
  154.9116  140.0403  157.1968 H   0  0  0  0  0  0  0  0  0  0  0  0  # atno 8009 bound_to 7997
  154.8399  140.2889  155.5670 H   0  0  0  0  0  0  0  0  0  0  0  0  # atno 8010 bound_to 7997
  139.7938  144.6841  150.9856 H   0  0  0  0  0  0  0  0  0  0  0  0  # atno 10167 bound_to 10162
  156.0846  130.6040  150.8808 H   0  0  0  0  0  0  0  0  0  0  0  0  # atno 10718 bound_to 10713
  154.8727  135.3752  154.4646 H   0  0  0  0  0  0  0  0  0  0  0  0  # atno 10763 bound_to 10752
  153.5311  135.7028  153.5688 H   0  0  0  0  0  0  0  0  0  0  0  0  # atno 10764 bound_to 10752
  153.3892  135.3977  155.1876 H   0  0  0  0  0  0  0  0  0  0  0  0  # atno 10765 bound_to 10752
  140.0103  134.6307  155.9791 H   0  0  0  0  0  0  0  0  0  0  0  0  # atno 11005 bound_to 11000
  145.8949  140.9280  143.0533 LP  0  0  0  0  0  0  0  0  0  0  0  0  # atno 17320 bound_to 7965
  144.6729  140.0955  143.7463 LP  0  0  0  0  0  0  0  0  0  0  0  0  # atno 17321 bound_to 7965
  140.7820  143.4353  151.0633 LP  0  0  0  0  0  0  0  0  0  0  0  0  # atno 17342 bound_to 10162
  139.8028  143.8059  152.3164 LP  0  0  0  0  0  0  0  0  0  0  0  0  # atno 17343 bound_to 10162
  157.5976  131.0942  150.9014 LP  0  0  0  0  0  0  0  0  0  0  0  0  # atno 17370 bound_to 10713
  156.9178  130.5304  149.5279 LP  0  0  0  0  0  0  0  0  0  0  0  0  # atno 17371 bound_to 10713
  141.1706  133.6537  156.4638 LP  0  0  0  0  0  0  0  0  0  0  0  0  # atno 17394 bound_to 11000
  140.4567  134.6879  157.5066 LP  0  0  0  0  0  0  0  0  0  0  0  0  # atno 17395 bound_to 11000

$$$$
