AV-unprocessed.smi:2752|AV-procd|sdf|10607|dock5
  -GOLD-   2272015 63D 1   1.00000     0.00000
 Structure written by MMmdl.
 34 35  0  0  0  0  0  0  0  0  1 V2000
  145.8868  142.9089  153.7915 C   0  0  0  0  0  0  0  0  0  0  0  0
  147.0387  142.4306  154.4670 O   0  0  0  0  0  0  0  0  0  0  0  0
  147.9375  141.7080  153.6295 C   0  0  2  0  0  0  0  0  0  0  0  0
  147.2859  140.3801  153.2282 C   0  0  0  0  0  0  0  0  0  0  0  0
  147.5317  139.4673  154.4261 C   0  0  0  0  0  0  0  0  0  0  0  0
  148.9253  139.8521  154.9299 C   0  0  0  0  0  0  0  0  0  0  0  0
  149.1897  141.2873  154.4331 C   0  0  2  0  0  0  0  0  0  0  0  0
  149.4855  142.1876  155.5459 N   0  0  0  0  0  0  0  0  0  0  0  0
  150.2471  141.8717  156.6028 C   0  0  0  0  0  0  0  0  0  0  0  0
  150.7678  140.7664  156.7568 O   0  0  0  0  0  0  0  0  0  0  0  0
  150.3628  142.9117  157.4470 N   0  0  0  0  0  0  0  0  0  0  0  0
  151.0894  142.9769  158.6656 C   0  0  0  0  0  0  0  0  0  0  0  0
  150.9611  144.1935  159.3739 C   0  0  0  0  0  0  0  0  0  0  0  0
  151.6423  144.3595  160.5956 C   0  0  0  0  0  0  0  0  0  0  0  0
  152.4349  143.3021  161.0763 C   0  0  0  0  0  0  0  0  0  0  0  0
  153.1084  143.4150  162.2457 F   0  0  0  0  0  0  0  0  0  0  0  0
  152.5100  142.1240  160.3106 C   0  0  0  0  0  0  0  0  0  0  0  0
  151.8573  141.9637  159.1398 N   0  0  0  0  0  0  0  0  0  0  0  0
  145.2414  143.4304  154.4980 H   0  0  0  0  0  0  0  0  0  0  0  0
  145.3104  142.0974  153.3472 H   0  0  0  0  0  0  0  0  0  0  0  0
  146.1601  143.6140  153.0058 H   0  0  0  0  0  0  0  0  0  0  0  0
  148.2238  142.3067  152.7628 H   0  0  0  0  0  0  0  0  0  0  0  0
  146.2286  140.4683  152.9788 H   0  0  0  0  0  0  0  0  0  0  0  0
  147.7958  139.9748  152.3532 H   0  0  0  0  0  0  0  0  0  0  0  0
  146.7917  139.6755  155.2001 H   0  0  0  0  0  0  0  0  0  0  0  0
  147.4557  138.4102  154.1705 H   0  0  0  0  0  0  0  0  0  0  0  0
  148.9884  139.7572  156.0149 H   0  0  0  0  0  0  0  0  0  0  0  0
  149.6713  139.1780  154.5072 H   0  0  0  0  0  0  0  0  0  0  0  0
  150.0495  141.2552  153.7609 H   0  0  0  0  0  0  0  0  0  0  0  0
  149.1004  143.1190  155.4930 H   0  0  0  0  0  0  0  0  0  0  0  0
  149.8788  143.7573  157.1840 H   0  0  0  0  0  0  0  0  0  0  0  0
  150.3475  144.9950  158.9887 H   0  0  0  0  0  0  0  0  0  0  0  0
  151.5573  145.2812  161.1520 H   0  0  0  0  0  0  0  0  0  0  0  0
  153.1083  141.2895  160.6451 H   0  0  0  0  0  0  0  0  0  0  0  0
  1  2  1  0  0  0  0
  1 19  1  0  0  0  0
  1 20  1  0  0  0  0
  1 21  1  0  0  0  0
  2  3  1  0  0  0  0
  3  7  1  0  0  0  0
  3  4  1  0  0  0  0
  3 22  1  0  0  0  0
  4  5  1  0  0  0  0
  4 23  1  0  0  0  0
  4 24  1  0  0  0  0
  5  6  1  0  0  0  0
  5 25  1  0  0  0  0
  5 26  1  0  0  0  0
  6  7  1  0  0  0  0
  6 27  1  0  0  0  0
  6 28  1  0  0  0  0
  7  8  1  0  0  0  0
  7 29  1  0  0  0  0
  8  9  1  0  0  0  0
  8 30  1  0  0  0  0
  9 10  2  0  0  0  0
  9 11  1  0  0  0  0
 11 12  1  0  0  0  0
 11 31  1  0  0  0  0
 12 18  1  0  0  0  0
 12 13  2  0  0  0  0
 13 14  1  0  0  0  0
 13 32  1  0  0  0  0
 14 15  2  0  0  0  0
 14 33  1  0  0  0  0
 15 16  1  0  0  0  0
 15 17  1  0  0  0  0
 17 18  2  0  0  0  0
 17 34  1  0  0  0  0
M  END
> <s_m_source_file>
AV-unprocessed.smi

> <i_m_source_file_index>
2752

> <i_lp_mmshare_version>
43012

> <i_f3d_flags>
0

> <s_epik_input>
W0NIM11PW0NAQEhdMVtDSDJdW0NIMl1bQ0gyXVtDQEhdMVtOSF1DKD1PKVtOSF1jMltjSF1bY0hdYyhGKVtjSF1uMg==

> <s_epik_cmdline>
J2VwaWtfcHl0aG9uJywgJy1waCcsICc3LjAnLCAnLXRuJywgJzgnLCAnLW1hJywgJzIwMCcsICctbWV0YWxfYmluZGluZycsICctaW1hZScsICc8aW5maWxlLm1hZT4nLCAnLW9tYWUnLCAnPG91dGZpbGUubWFlPic=

> <r_lp_tautomer_probability>
1

> <r_epik_Ionization_Penalty>
3.49853e-05

> <r_epik_Ionization_Penalty_Charging>
0

> <r_epik_Ionization_Penalty_Neutral>
3.49853e-05

> <r_epik_State_Penalty>
-0

> <r_epik_Charging_Adjusted_Penalty>
0

> <i_epik_Tot_Q>
0

> <i_epik_Tot_abs_Q>
0

> <r_epik_Metal_State_Penalty>
-0

> <b_epik_Metal_Only>
0

> <s_lp_Force_Field>
OPLS_2005

> <r_lp_Energy>
23.7965

> <b_lp_Chiralities_Consistent>
1

> <s_lp_Variant>
AV-unprocessed.smi:2752-3

> <Gold.Version>
5.8.1

> <Gold.Id.Protein>
6NUR|6NUR_protein|mol2

> <Gold.PLP.Fitness>
43.0240

> <Gold.PLP.PLP>
-37.9037

> <Gold.PLP.part.hbond>
-2.0000

> <Gold.PLP.part.metal>
0.0000

> <Gold.PLP.part.buried>
-4.5672

> <Gold.PLP.part.nonpolar>
-29.9805

> <Gold.PLP.part.repulsive>
0.3949

> <Gold.PLP.ligand.clash>
0.0000

> <Gold.PLP.ligand.torsion>
0.3028

> <Gold.PLP.Chemscore.Hbond>
1.9048

> <Gold.PLP.Chemscore.CHOScore>
0.0000

> <Gold.PLP.Chemscore.Metal>
0.0000

> <Gold.Chemscore.Hbonds>
donor molecule, donor type, donor heavy atom, donor atom, acceptor molecule, acceptor atom, score
      L1  H     8    30       P1  8028  1.00
      L1  H    11    31       P1  8028  0.89

> <Gold.PLP.Chemscore.Internal.Correction>
0.0115

> <Gold.Rescore>
     Score         DG    S(hbond)    S(metal)    S(lipo)     H(rot)  DE(clash)    DE(int)     intcor
     14.99     -18.28       1.94        0.00      82.00       1.28       0.18       3.11       ----

> <Gold.Chemscore.Fitness>
14.9919

> <Gold.Chemscore.DG>
-18.2808

> <Gold.Chemscore.ZeroCoef>
-5.4800

> <Gold.Chemscore.Hbond>
1.9427

> <Gold.Chemscore.Metal>
0.0000

> <Gold.Chemscore.Lipo>
82.0027

> <Gold.Chemscore.Internal_Hbond>
0.0000

> <Gold.Chemscore.DEClash>
0.1816

> <Gold.Chemscore.DEInternal>
3.1074

> <Gold.Chemscore.Rot>
1.2821

> <Gold.Chemscore.Internal.Correction>
   9.000000E+99

> <Gold.Chemscore.Hbonds>
donor molecule, donor type, donor heavy atom, donor atom, acceptor molecule, acceptor atom, score
      L1  H     8    30       P1  8028  0.99
      L1  H    11    31       P1  8028  0.74

> <Gold.Chemscore.Hbond.Weighted>
-6.4887

> <Gold.Chemscore.Metal.Weighted>
-0.0000

> <Gold.Chemscore.Lipo.Weighted>
-9.5943

> <Gold.Chemscore.Internal_Hbond.Weighted>
0.0000

> <Gold.Chemscore.DEClash.Weighted>
0.1816

> <Gold.Chemscore.DEInternal.Weighted>
3.1074

> <Gold.Chemscore.Rot.Weighted>
3.2822

> <Gold.Chemscore.Internal.Correction.Weighted>
   9.000000E+99

> <Gold.Protein.RotatedTorsions>
[ 6907 6896 6895 6894 ] final   50.40 input  -60.11 | X-H torsion
[ 7974 7965 7964 7962 ] final  144.28 input  175.53 | X-H torsion
[ 8008 7997 7996 7995 ] final   94.86 input   59.86 | X-H torsion
[ 10167 10162 10161 10158 ] final   15.01 input  -65.29 | X-H torsion
[ 10718 10713 10712 10709 ] final -146.01 input   66.30 | X-H torsion
[ 10763 10752 10751 10750 ] final  154.06 input  -60.55 | X-H torsion
[ 11005 11000 10999 10996 ] final   58.77 input  -57.11 | X-H torsion

> <Gold.Protein.ActiveResidues>
 VAL166  LYS551  ARG553  GLY616  TRP617  ASP618  TYR619  PRO620  LYS621  CYS622 
 ASP623  PHE694  ASN695  SER759  ASP760  ASP761  ALA762  ILE779  LEU786  VAL792 
 PHE793  MET794  SER795  GLU796  ALA797  LYS798  CYS799  TRP800  GLU811  SER814 

> <Gold.Protein.RotatedAtoms>
  152.3014  134.7607  160.0356 H   0  0  0  0  0  0  0  0  0  0  0  0  # atno 6907 bound_to 6896
  151.8119  133.3377  159.3566 H   0  0  0  0  0  0  0  0  0  0  0  0  # atno 6908 bound_to 6896
  150.7275  134.5586  159.5875 H   0  0  0  0  0  0  0  0  0  0  0  0  # atno 6909 bound_to 6896
  144.8849  139.5644  143.5825 H   0  0  0  0  0  0  0  0  0  0  0  0  # atno 7974 bound_to 7965
  156.0626  140.3294  155.7479 H   0  0  0  0  0  0  0  0  0  0  0  0  # atno 8008 bound_to 7997
  155.5432  140.0603  157.2883 H   0  0  0  0  0  0  0  0  0  0  0  0  # atno 8009 bound_to 7997
  154.4489  140.1907  156.0600 H   0  0  0  0  0  0  0  0  0  0  0  0  # atno 8010 bound_to 7997
  140.5897  143.8820  150.6862 H   0  0  0  0  0  0  0  0  0  0  0  0  # atno 10167 bound_to 10162
  156.3896  130.7879  151.2080 H   0  0  0  0  0  0  0  0  0  0  0  0  # atno 10718 bound_to 10713
  154.1463  135.2818  155.3147 H   0  0  0  0  0  0  0  0  0  0  0  0  # atno 10763 bound_to 10752
  154.6250  135.5454  153.7620 H   0  0  0  0  0  0  0  0  0  0  0  0  # atno 10764 bound_to 10752
  153.0235  135.6448  154.1608 H   0  0  0  0  0  0  0  0  0  0  0  0  # atno 10765 bound_to 10752
  140.0353  134.5952  155.9452 H   0  0  0  0  0  0  0  0  0  0  0  0  # atno 11005 bound_to 11000
  146.3018  139.7451  142.9086 LP  0  0  0  0  0  0  0  0  0  0  0  0  # atno 17320 bound_to 7965
  145.3887  141.0369  143.3136 LP  0  0  0  0  0  0  0  0  0  0  0  0  # atno 17321 bound_to 7965
  140.2340  143.3714  152.1542 LP  0  0  0  0  0  0  0  0  0  0  0  0  # atno 17342 bound_to 10162
  139.5219  144.7052  151.5374 LP  0  0  0  0  0  0  0  0  0  0  0  0  # atno 17343 bound_to 10162
  157.7498  131.0319  150.4204 LP  0  0  0  0  0  0  0  0  0  0  0  0  # atno 17370 bound_to 10713
  156.4463  130.4002  149.6664 LP  0  0  0  0  0  0  0  0  0  0  0  0  # atno 17371 bound_to 10713
  141.1854  133.6555  156.5196 LP  0  0  0  0  0  0  0  0  0  0  0  0  # atno 17394 bound_to 11000
  140.4158  134.7232  157.4862 LP  0  0  0  0  0  0  0  0  0  0  0  0  # atno 17395 bound_to 11000

$$$$
