AV-unprocessed.smi:2819|AV-procd|sdf|10853|dock4
  -GOLD-   2272015293D 1   1.00000     0.00000
 Structure written by MMmdl.
 50 51  0  0  0  0  0  0  0  0  2 V2000
  146.7793  129.9352  152.8437 C   0  0  0  0  0  0  0  0  0  0  0  0
  145.7427  130.1014  151.8303 N   0  0  0  0  0  0  0  0  0  0  0  0
  145.1136  128.9346  151.2255 C   0  0  0  0  0  0  0  0  0  0  0  0
  145.3524  131.3998  151.4352 C   0  0  0  0  0  0  0  0  0  0  0  0
  144.3225  131.6216  150.4890 C   0  0  0  0  0  0  0  0  0  0  0  0
  144.0255  132.9620  150.1741 C   0  0  0  0  0  0  0  0  0  0  0  0
  144.6866  133.9923  150.7422 N   0  0  0  0  0  0  0  0  0  0  0  0
  145.6414  133.6909  151.6250 C   0  0  0  0  0  0  0  0  0  0  0  0
  146.2832  134.7847  152.1640 N   0  0  0  0  0  0  0  0  0  0  0  0
  145.8809  135.6656  153.0995 C   0  0  0  0  0  0  0  0  0  0  0  0
  144.7820  135.6667  153.6563 O   0  0  0  0  0  0  0  0  0  0  0  0
  146.8413  136.5634  153.3671 N   0  0  0  0  0  0  0  0  0  0  0  0
  146.7334  137.6579  154.3315 C   0  0  0  0  0  0  0  0  0  0  0  0
  147.9532  138.6290  154.3134 C   0  0  0  0  0  0  0  0  0  0  0  0
  147.9617  139.4736  153.0143 C   0  0  0  0  0  0  0  0  0  0  0  0
  147.8296  139.6414  155.4796 C   0  0  0  0  0  0  0  0  0  0  0  0
  149.2544  137.8763  154.4289 N   0  3  0  0  0  0  0  0  0  0  0  0
  150.4905  138.7092  154.4313 C   0  0  0  0  0  0  0  0  0  0  0  0
  151.7431  137.8194  154.3616 C   0  0  0  0  0  0  0  0  0  0  0  0
  151.7469  136.9104  155.4528 O   0  0  0  0  0  0  0  0  0  0  0  0
  150.6208  136.0454  155.4188 C   0  0  0  0  0  0  0  0  0  0  0  0
  149.3295  136.8730  155.5293 C   0  0  0  0  0  0  0  0  0  0  0  0
  145.9991  132.4526  151.9908 N   0  0  0  0  0  0  0  0  0  0  0  0
  147.7106  130.4005  152.5190 H   0  0  0  0  0  0  0  0  0  0  0  0
  146.9825  128.8818  153.0370 H   0  0  0  0  0  0  0  0  0  0  0  0
  146.4728  130.3947  153.7840 H   0  0  0  0  0  0  0  0  0  0  0  0
  145.2821  128.9240  150.1483 H   0  0  0  0  0  0  0  0  0  0  0  0
  144.0393  128.9391  151.4119 H   0  0  0  0  0  0  0  0  0  0  0  0
  145.5184  128.0090  151.6348 H   0  0  0  0  0  0  0  0  0  0  0  0
  143.7762  130.8194  150.0167 H   0  0  0  0  0  0  0  0  0  0  0  0
  143.2534  133.2088  149.4608 H   0  0  0  0  0  0  0  0  0  0  0  0
  147.2100  134.9410  151.7968 H   0  0  0  0  0  0  0  0  0  0  0  0
  147.7124  136.4892  152.8617 H   0  0  0  0  0  0  0  0  0  0  0  0
  145.8188  138.1936  154.0794 H   0  0  0  0  0  0  0  0  0  0  0  0
  146.5710  137.2495  155.3293 H   0  0  0  0  0  0  0  0  0  0  0  0
  147.1460  140.1969  152.9949 H   0  0  0  0  0  0  0  0  0  0  0  0
  147.8435  138.8608  152.1208 H   0  0  0  0  0  0  0  0  0  0  0  0
  148.8884  140.0396  152.9135 H   0  0  0  0  0  0  0  0  0  0  0  0
  147.0023  140.3353  155.3252 H   0  0  0  0  0  0  0  0  0  0  0  0
  148.7341  140.2422  155.5823 H   0  0  0  0  0  0  0  0  0  0  0  0
  147.6389  139.1542  156.4356 H   0  0  0  0  0  0  0  0  0  0  0  0
  150.5186  139.3885  153.5815 H   0  0  0  0  0  0  0  0  0  0  0  0
  150.5334  139.3187  155.3341 H   0  0  0  0  0  0  0  0  0  0  0  0
  151.7833  137.2752  153.4165 H   0  0  0  0  0  0  0  0  0  0  0  0
  152.6428  138.4332  154.4135 H   0  0  0  0  0  0  0  0  0  0  0  0
  150.6274  135.4519  154.5030 H   0  0  0  0  0  0  0  0  0  0  0  0
  150.6897  135.3450  156.2513 H   0  0  0  0  0  0  0  0  0  0  0  0
  149.3042  137.3707  156.4988 H   0  0  0  0  0  0  0  0  0  0  0  0
  148.4907  136.1803  155.5021 H   0  0  0  0  0  0  0  0  0  0  0  0
  149.3060  137.3339  153.5784 H   0  0  0  0  0  0  0  0  0  0  0  0
  1  2  1  0  0  0  0
  1 24  1  0  0  0  0
  1 25  1  0  0  0  0
  1 26  1  0  0  0  0
  2  3  1  0  0  0  0
  2  4  1  0  0  0  0
  3 27  1  0  0  0  0
  3 28  1  0  0  0  0
  3 29  1  0  0  0  0
  4 23  1  0  0  0  0
  4  5  2  0  0  0  0
  5  6  1  0  0  0  0
  5 30  1  0  0  0  0
  6  7  2  0  0  0  0
  6 31  1  0  0  0  0
  7  8  1  0  0  0  0
  8  9  1  0  0  0  0
  8 23  2  0  0  0  0
  9 10  1  0  0  0  0
  9 32  1  0  0  0  0
 10 11  2  0  0  0  0
 10 12  1  0  0  0  0
 12 13  1  0  0  0  0
 12 33  1  0  0  0  0
 13 14  1  0  0  0  0
 13 34  1  0  0  0  0
 13 35  1  0  0  0  0
 14 15  1  0  0  0  0
 14 16  1  0  0  0  0
 14 17  1  0  0  0  0
 15 36  1  0  0  0  0
 15 37  1  0  0  0  0
 15 38  1  0  0  0  0
 16 39  1  0  0  0  0
 16 40  1  0  0  0  0
 16 41  1  0  0  0  0
 17 22  1  0  0  0  0
 17 18  1  0  0  0  0
 17 50  1  0  0  0  0
 18 19  1  0  0  0  0
 18 42  1  0  0  0  0
 18 43  1  0  0  0  0
 19 20  1  0  0  0  0
 19 44  1  0  0  0  0
 19 45  1  0  0  0  0
 20 21  1  0  0  0  0
 21 22  1  0  0  0  0
 21 46  1  0  0  0  0
 21 47  1  0  0  0  0
 22 48  1  0  0  0  0
 22 49  1  0  0  0  0
M  CHG  1  17   1
M  END
> <s_m_source_file>
AV-unprocessed.smi

> <i_m_source_file_index>
2819

> <i_lp_mmshare_version>
43012

> <i_f3d_flags>
0

> <s_epik_input>
W0NIM11OKFtDSDNdKWMxW2NIXVtjSF1uYyhuMSlbTkhdQyg9TylbTkhdW0NIMl1DKFtDSDNdKShbQ0gzXSlOMltDSDJdW0NIMl1PW0NIMl1bQ0gyXTI=

> <s_epik_cmdline>
J2VwaWtfcHl0aG9uJywgJy1waCcsICc3LjAnLCAnLXRuJywgJzgnLCAnLW1hJywgJzIwMCcsICctbWV0YWxfYmluZGluZycsICctaW1hZScsICc8aW5maWxlLm1hZT4nLCAnLW9tYWUnLCAnPG91dGZpbGUubWFlPic=

> <r_epik_Ionization_Penalty>
1.64867

> <r_epik_Ionization_Penalty_Charging>
0.602531

> <r_epik_Ionization_Penalty_Neutral>
1.04614

> <r_epik_State_Penalty>
1.74763

> <r_epik_Charging_Adjusted_Penalty>
2.35016

> <i_epik_Tot_Q>
1

> <i_epik_Tot_abs_Q>
1

> <r_epik_Metal_State_Penalty>
1.04264

> <b_epik_Metal_Only>
0

> <s_lp_Force_Field>
OPLS_2005

> <r_lp_Energy>
22.1801

> <b_lp_Chiralities_Consistent>
1

> <s_lp_Variant>
AV-unprocessed.smi:2819-4

> <Gold.Version>
5.8.1

> <Gold.Id.Protein>
6NUR|6NUR_protein|mol2

> <Gold.PLP.Fitness>
44.4525

> <Gold.PLP.PLP>
-30.5265

> <Gold.PLP.part.hbond>
-4.0000

> <Gold.PLP.part.metal>
0.0000

> <Gold.PLP.part.buried>
-3.0437

> <Gold.PLP.part.nonpolar>
-24.6230

> <Gold.PLP.part.repulsive>
0.3906

> <Gold.PLP.ligand.clash>
0.0000

> <Gold.PLP.ligand.torsion>
0.8658

> <Gold.PLP.Chemscore.Hbond>
4.1765

> <Gold.PLP.Chemscore.CHOScore>
0.9934

> <Gold.PLP.Chemscore.Metal>
0.0000

> <Gold.Chemscore.Hbonds>
donor molecule, donor type, donor heavy atom, donor atom, acceptor molecule, acceptor atom, score
      L1  H     9    32       P1  7948  0.71
      L1  H    12    33       P1  7948  1.00
      L1  H    17    50       P1  7948  1.92
      P1  H 10752 10765       L1    20  0.36
      L1  C     6    31       P1 10186  0.95

> <Gold.PLP.Chemscore.Internal.Correction>
0.1479

> <Gold.Rescore>
     Score         DG    S(hbond)    S(metal)    S(lipo)     H(rot)  DE(clash)    DE(int)     intcor
     16.61     -18.84       2.51        0.00      76.29       1.55       1.37       0.86       ----

> <Gold.Chemscore.Fitness>
16.6110

> <Gold.Chemscore.DG>
-18.8357

> <Gold.Chemscore.ZeroCoef>
-5.4800

> <Gold.Chemscore.Hbond>
2.5149

> <Gold.Chemscore.Metal>
0.0000

> <Gold.Chemscore.Lipo>
76.2860

> <Gold.Chemscore.Internal_Hbond>
0.0000

> <Gold.Chemscore.DEClash>
1.3694

> <Gold.Chemscore.DEInternal>
0.8552

> <Gold.Chemscore.Rot>
1.5506

> <Gold.Chemscore.Internal.Correction>
   9.000000E+99

> <Gold.Chemscore.Hbonds>
donor molecule, donor type, donor heavy atom, donor atom, acceptor molecule, acceptor atom, score
      L1  H     9    32       P1  7948  0.62
      L1  H    12    33       P1  7948  0.99
      L1  H    17    50       P1  7948  0.90

> <Gold.Chemscore.Hbond.Weighted>
-8.3997

> <Gold.Chemscore.Metal.Weighted>
-0.0000

> <Gold.Chemscore.Lipo.Weighted>
-8.9255

> <Gold.Chemscore.Internal_Hbond.Weighted>
0.0000

> <Gold.Chemscore.DEClash.Weighted>
1.3694

> <Gold.Chemscore.DEInternal.Weighted>
0.8552

> <Gold.Chemscore.Rot.Weighted>
3.9695

> <Gold.Chemscore.Internal.Correction.Weighted>
   9.000000E+99

> <Gold.Protein.RotatedTorsions>
[ 6907 6896 6895 6894 ] final  106.60 input  -60.11 | X-H torsion
[ 7974 7965 7964 7962 ] final -173.62 input  175.53 | X-H torsion
[ 8008 7997 7996 7995 ] final   42.45 input   59.86 | X-H torsion
[ 10167 10162 10161 10158 ] final  -73.43 input  -65.29 | X-H torsion
[ 10718 10713 10712 10709 ] final  -59.86 input   66.30 | X-H torsion
[ 10763 10752 10751 10750 ] final  170.04 input  -60.55 | X-H torsion
[ 11005 11000 10999 10996 ] final  -94.13 input  -57.11 | X-H torsion

> <Gold.Protein.ActiveResidues>
 VAL166  LYS551  ARG553  GLY616  TRP617  ASP618  TYR619  PRO620  LYS621  CYS622 
 ASP623  PHE694  ASN695  SER759  ASP760  ASP761  ALA762  ILE779  LEU786  VAL792 
 PHE793  MET794  SER795  GLU796  ALA797  LYS798  CYS799  TRP800  GLU811  SER814 

> <Gold.Protein.RotatedAtoms>
  152.5187  133.9356  159.7601 H   0  0  0  0  0  0  0  0  0  0  0  0  # atno 6907 bound_to 6896
  150.9697  133.6348  159.2747 H   0  0  0  0  0  0  0  0  0  0  0  0  # atno 6908 bound_to 6896
  151.3564  135.0900  159.9473 H   0  0  0  0  0  0  0  0  0  0  0  0  # atno 6909 bound_to 6896
  144.7137  140.1595  143.6377 H   0  0  0  0  0  0  0  0  0  0  0  0  # atno 7974 bound_to 7965
  155.2864  140.3376  155.4255 H   0  0  0  0  0  0  0  0  0  0  0  0  # atno 8008 bound_to 7997
  156.2066  140.1753  156.7826 H   0  0  0  0  0  0  0  0  0  0  0  0  # atno 8009 bound_to 7997
  154.5629  140.0684  156.8832 H   0  0  0  0  0  0  0  0  0  0  0  0  # atno 8010 bound_to 7997
  140.5110  143.2345  151.7592 H   0  0  0  0  0  0  0  0  0  0  0  0  # atno 10167 bound_to 10162
  156.1031  130.4184  150.0774 H   0  0  0  0  0  0  0  0  0  0  0  0  # atno 10718 bound_to 10713
  154.3919  135.2754  155.2149 H   0  0  0  0  0  0  0  0  0  0  0  0  # atno 10763 bound_to 10752
  154.4212  135.5999  153.6014 H   0  0  0  0  0  0  0  0  0  0  0  0  # atno 10764 bound_to 10752
  152.9832  135.5973  154.4175 H   0  0  0  0  0  0  0  0  0  0  0  0  # atno 10765 bound_to 10752
  141.1479  133.7935  157.0255 H   0  0  0  0  0  0  0  0  0  0  0  0  # atno 11005 bound_to 11000
  145.9043  139.2449  143.1475 LP  0  0  0  0  0  0  0  0  0  0  0  0  # atno 17320 bound_to 7965
  145.9779  140.8706  143.0129 LP  0  0  0  0  0  0  0  0  0  0  0  0  # atno 17321 bound_to 7965
  139.4896  144.4390  151.9786 LP  0  0  0  0  0  0  0  0  0  0  0  0  # atno 17342 bound_to 10162
  140.3482  144.3121  150.5954 LP  0  0  0  0  0  0  0  0  0  0  0  0  # atno 17343 bound_to 10162
  156.8756  130.9539  151.3605 LP  0  0  0  0  0  0  0  0  0  0  0  0  # atno 17370 bound_to 10713
  157.6204  130.8651  149.9099 LP  0  0  0  0  0  0  0  0  0  0  0  0  # atno 17371 bound_to 10713
  140.0787  134.9660  157.1589 LP  0  0  0  0  0  0  0  0  0  0  0  0  # atno 17394 bound_to 11000
  140.3607  134.2498  155.7187 LP  0  0  0  0  0  0  0  0  0  0  0  0  # atno 17395 bound_to 11000

$$$$
