AV-unprocessed.smi:1159|AV-procd|sdf|4915|dock2
  -GOLD-   22720 3493D 1   1.00000     0.00000
 Structure written by MMmdl.
 41 42  0  0  0  0  0  0  0  0  1 V2000
  146.4515  136.5126  153.2868 O   0  0  0  0  0  0  0  0  0  0  0  0
  145.8771  137.2294  152.4673 C   0  0  0  0  0  0  0  0  0  0  0  0
  145.9903  138.5665  152.3923 N   0  0  0  0  0  0  0  0  0  0  0  0
  146.7917  139.4267  153.1904 C   0  0  0  0  0  0  0  0  0  0  0  0
  146.9405  140.8143  152.9572 C   0  0  0  0  0  0  0  0  0  0  0  0
  147.7485  141.5678  153.8298 C   0  0  0  0  0  0  0  0  0  0  0  0
  148.3762  140.9176  154.9106 C   0  0  0  0  0  0  0  0  0  0  0  0
  149.1685  141.6637  155.7585 O   0  0  0  0  0  0  0  0  0  0  0  0
  149.9400  140.9827  156.7445 C   0  0  0  0  0  0  0  0  0  0  0  0
  150.5069  142.0051  157.7360 C   0  0  0  0  0  0  0  0  0  0  0  0
  151.2541  141.3912  158.6530 F   0  0  0  0  0  0  0  0  0  0  0  0
  151.2680  142.8800  157.0796 F   0  0  0  0  0  0  0  0  0  0  0  0
  149.5162  142.6657  158.3347 F   0  0  0  0  0  0  0  0  0  0  0  0
  148.2265  139.5910  155.1489 N   0  0  0  0  0  0  0  0  0  0  0  0
  147.4489  138.8747  154.3094 C   0  0  0  0  0  0  0  0  0  0  0  0
  145.0266  136.7625  151.5418 N   0  0  0  0  0  0  0  0  0  0  0  0
  144.6544  135.3592  151.3525 C   0  0  1  0  0  0  0  0  0  0  0  0
  145.8960  134.5347  150.9444 C   0  0  0  0  0  0  0  0  0  0  0  0
  145.5663  133.2242  150.2118 C   0  0  0  0  0  0  0  0  0  0  0  0
  144.7724  132.2045  151.0414 C   0  0  0  0  0  0  0  0  0  0  0  0
  143.3552  132.6775  151.4072 C   0  0  0  0  0  0  0  0  0  0  0  0
  143.3465  133.6031  152.5332 N   0  0  0  0  0  0  0  0  0  0  0  0
  143.9131  134.8182  152.5900 C   0  0  0  0  0  0  0  0  0  0  0  0
  143.8473  135.4897  153.6194 O   0  0  0  0  0  0  0  0  0  0  0  0
  145.3850  139.0284  151.7293 H   0  0  0  0  0  0  0  0  0  0  0  0
  146.4431  141.3150  152.1409 H   0  0  0  0  0  0  0  0  0  0  0  0
  147.8810  142.6284  153.6746 H   0  0  0  0  0  0  0  0  0  0  0  0
  149.3195  140.2608  157.2780 H   0  0  0  0  0  0  0  0  0  0  0  0
  150.7587  140.4365  156.2729 H   0  0  0  0  0  0  0  0  0  0  0  0
  147.3543  137.8229  154.5367 H   0  0  0  0  0  0  0  0  0  0  0  0
  144.6046  137.4250  150.9074 H   0  0  0  0  0  0  0  0  0  0  0  0
  143.9350  135.3288  150.5317 H   0  0  0  0  0  0  0  0  0  0  0  0
  146.5235  135.1269  150.2768 H   0  0  0  0  0  0  0  0  0  0  0  0
  146.5130  134.3284  151.8201 H   0  0  0  0  0  0  0  0  0  0  0  0
  145.0237  133.4481  149.2924 H   0  0  0  0  0  0  0  0  0  0  0  0
  146.5018  132.7608  149.8973 H   0  0  0  0  0  0  0  0  0  0  0  0
  144.6868  131.2894  150.4544 H   0  0  0  0  0  0  0  0  0  0  0  0
  145.3263  131.9311  151.9406 H   0  0  0  0  0  0  0  0  0  0  0  0
  142.8517  133.1194  150.5462 H   0  0  0  0  0  0  0  0  0  0  0  0
  142.7566  131.8148  151.7008 H   0  0  0  0  0  0  0  0  0  0  0  0
  142.8677  133.2842  153.3633 H   0  0  0  0  0  0  0  0  0  0  0  0
  1  2  2  0  0  0  0
  2  3  1  0  0  0  0
  2 16  1  0  0  0  0
  3  4  1  0  0  0  0
  3 25  1  0  0  0  0
  4 15  1  0  0  0  0
  4  5  2  0  0  0  0
  5  6  1  0  0  0  0
  5 26  1  0  0  0  0
  6  7  2  0  0  0  0
  6 27  1  0  0  0  0
  7  8  1  0  0  0  0
  7 14  1  0  0  0  0
  8  9  1  0  0  0  0
  9 10  1  0  0  0  0
  9 28  1  0  0  0  0
  9 29  1  0  0  0  0
 10 11  1  0  0  0  0
 10 12  1  0  0  0  0
 10 13  1  0  0  0  0
 14 15  2  0  0  0  0
 15 30  1  0  0  0  0
 16 17  1  0  0  0  0
 16 31  1  0  0  0  0
 17 23  1  0  0  0  0
 17 18  1  0  0  0  0
 17 32  1  0  0  0  0
 18 19  1  0  0  0  0
 18 33  1  0  0  0  0
 18 34  1  0  0  0  0
 19 20  1  0  0  0  0
 19 35  1  0  0  0  0
 19 36  1  0  0  0  0
 20 21  1  0  0  0  0
 20 37  1  0  0  0  0
 20 38  1  0  0  0  0
 21 22  1  0  0  0  0
 21 39  1  0  0  0  0
 21 40  1  0  0  0  0
 22 23  1  0  0  0  0
 22 41  1  0  0  0  0
 23 24  2  0  0  0  0
M  END
> <s_m_source_file>
AV-unprocessed.smi

> <i_m_source_file_index>
1159

> <i_lp_mmshare_version>
43012

> <i_f3d_flags>
0

> <s_epik_input>
Tz1DMVtOSF1bQ0gyXVtDSDJdW0NIMl1bQ0gyXVtDQEhdMVtOSF1DKD1PKVtOSF1jMltjSF1bY0hdYyhuW2NIXTIpT1tDSDJdQyhGKShGKUY=

> <s_epik_cmdline>
J2VwaWtfcHl0aG9uJywgJy1waCcsICc3LjAnLCAnLXRuJywgJzgnLCAnLW1hJywgJzIwMCcsICctbWV0YWxfYmluZGluZycsICctaW1hZScsICc8aW5maWxlLm1hZT4nLCAnLW9tYWUnLCAnPG91dGZpbGUubWFlPic=

> <r_lp_tautomer_probability>
1

> <r_epik_Ionization_Penalty>
3.53205e-05

> <r_epik_Ionization_Penalty_Charging>
0

> <r_epik_Ionization_Penalty_Neutral>
3.53205e-05

> <r_epik_State_Penalty>
-0

> <r_epik_Charging_Adjusted_Penalty>
0

> <i_epik_Tot_Q>
0

> <i_epik_Tot_abs_Q>
0

> <r_epik_Metal_State_Penalty>
-0

> <b_epik_Metal_Only>
0

> <s_lp_Force_Field>
OPLS_2005

> <r_lp_Energy>
11.134

> <b_lp_Chiralities_Consistent>
1

> <s_lp_Variant>
AV-unprocessed.smi:1159-2

> <Gold.Version>
5.8.1

> <Gold.Id.Protein>
6NUR|6NUR_protein|mol2

> <Gold.PLP.Fitness>
42.9393

> <Gold.PLP.PLP>
-37.3391

> <Gold.PLP.part.hbond>
-3.0154

> <Gold.PLP.part.metal>
0.0000

> <Gold.PLP.part.buried>
-7.3390

> <Gold.PLP.part.nonpolar>
-28.9261

> <Gold.PLP.part.repulsive>
2.3578

> <Gold.PLP.ligand.clash>
0.0000

> <Gold.PLP.ligand.torsion>
0.1208

> <Gold.PLP.Chemscore.Hbond>
1.9337

> <Gold.PLP.Chemscore.CHOScore>
0.0000

> <Gold.PLP.Chemscore.Metal>
0.0000

> <Gold.Chemscore.Hbonds>
donor molecule, donor type, donor heavy atom, donor atom, acceptor molecule, acceptor atom, score
      L1  H     3    25       P1 10175  0.11
      L1  H    16    31       P1 10171  1.00
      L1  H    22    41       P1 10957  0.81

> <Gold.PLP.Chemscore.Internal.Correction>
0.0407

> <Gold.Rescore>
     Score         DG    S(hbond)    S(metal)    S(lipo)     H(rot)  DE(clash)    DE(int)     intcor
     11.55     -17.93       2.48        0.00      75.21       1.81       1.72       4.66       ----

> <Gold.Chemscore.Fitness>
11.5526

> <Gold.Chemscore.DG>
-17.9271

> <Gold.Chemscore.ZeroCoef>
-5.4800

> <Gold.Chemscore.Hbond>
2.4765

> <Gold.Chemscore.Metal>
0.0000

> <Gold.Chemscore.Lipo>
75.2071

> <Gold.Chemscore.Internal_Hbond>
0.0000

> <Gold.Chemscore.DEClash>
1.7176

> <Gold.Chemscore.DEInternal>
4.6569

> <Gold.Chemscore.Rot>
1.8062

> <Gold.Chemscore.Internal.Correction>
   9.000000E+99

> <Gold.Chemscore.Hbonds>
donor molecule, donor type, donor heavy atom, donor atom, acceptor molecule, acceptor atom, score
      L1  H     3    25       P1 10175  0.11
      L1  H    16    31       P1 10171  1.00
      L1  H    22    41       P1 10957  0.72

> <Gold.Chemscore.Hbond.Weighted>
-8.2716

> <Gold.Chemscore.Metal.Weighted>
-0.0000

> <Gold.Chemscore.Lipo.Weighted>
-8.7992

> <Gold.Chemscore.Internal_Hbond.Weighted>
0.0000

> <Gold.Chemscore.DEClash.Weighted>
1.7176

> <Gold.Chemscore.DEInternal.Weighted>
4.6569

> <Gold.Chemscore.Rot.Weighted>
4.6238

> <Gold.Chemscore.Internal.Correction.Weighted>
   9.000000E+99

> <Gold.Protein.RotatedTorsions>
[ 6907 6896 6895 6894 ] final  -21.59 input  -60.11 | X-H torsion
[ 7974 7965 7964 7962 ] final  104.30 input  175.53 | X-H torsion
[ 8008 7997 7996 7995 ] final    5.52 input   59.86 | X-H torsion
[ 10167 10162 10161 10158 ] final -167.73 input  -65.29 | X-H torsion
[ 10718 10713 10712 10709 ] final  178.96 input   66.30 | X-H torsion
[ 10763 10752 10751 10750 ] final -104.25 input  -60.55 | X-H torsion
[ 11005 11000 10999 10996 ] final   98.97 input  -57.11 | X-H torsion

> <Gold.Protein.ActiveResidues>
 VAL166  LYS551  ARG553  GLY616  TRP617  ASP618  TYR619  PRO620  LYS621  CYS622 
 ASP623  PHE694  ASN695  SER759  ASP760  ASP761  ALA762  ILE779  LEU786  VAL792 
 PHE793  MET794  SER795  GLU796  ALA797  LYS798  CYS799  TRP800  GLU811  SER814 

> <Gold.Protein.RotatedAtoms>
  151.2311  135.0554  159.8987 H   0  0  0  0  0  0  0  0  0  0  0  0  # atno 6907 bound_to 6896
  152.5405  134.0536  159.8131 H   0  0  0  0  0  0  0  0  0  0  0  0  # atno 6908 bound_to 6896
  151.0716  133.5413  159.2658 H   0  0  0  0  0  0  0  0  0  0  0  0  # atno 6909 bound_to 6896
  145.3345  139.2478  143.3643 H   0  0  0  0  0  0  0  0  0  0  0  0  # atno 7974 bound_to 7965
  154.7294  140.2727  155.6470 H   0  0  0  0  0  0  0  0  0  0  0  0  # atno 8008 bound_to 7997
  156.2845  140.2719  156.1915 H   0  0  0  0  0  0  0  0  0  0  0  0  # atno 8009 bound_to 7997
  155.0402  140.0371  157.2496 H   0  0  0  0  0  0  0  0  0  0  0  0  # atno 8010 bound_to 7997
  139.6030  144.0970  152.1763 H   0  0  0  0  0  0  0  0  0  0  0  0  # atno 10167 bound_to 10162
  156.8828  130.9821  151.3060 H   0  0  0  0  0  0  0  0  0  0  0  0  # atno 10718 bound_to 10713
  154.7865  135.4793  153.9957 H   0  0  0  0  0  0  0  0  0  0  0  0  # atno 10763 bound_to 10752
  153.1568  135.6801  153.8808 H   0  0  0  0  0  0  0  0  0  0  0  0  # atno 10764 bound_to 10752
  153.8435  135.3176  155.3406 H   0  0  0  0  0  0  0  0  0  0  0  0  # atno 10765 bound_to 10752
  139.8771  134.9074  156.4535 H   0  0  0  0  0  0  0  0  0  0  0  0  # atno 11005 bound_to 11000
  146.3032  140.3930  142.8696 LP  0  0  0  0  0  0  0  0  0  0  0  0  # atno 17320 bound_to 7965
  144.8838  140.7435  143.5970 LP  0  0  0  0  0  0  0  0  0  0  0  0  # atno 17321 bound_to 7965
  140.0571  144.5886  150.7291 LP  0  0  0  0  0  0  0  0  0  0  0  0  # atno 17342 bound_to 10162
  140.7264  143.2641  151.4105 LP  0  0  0  0  0  0  0  0  0  0  0  0  # atno 17343 bound_to 10162
  157.6130  130.8597  149.8983 LP  0  0  0  0  0  0  0  0  0  0  0  0  # atno 17370 bound_to 10713
  156.0668  130.3691  150.0860 LP  0  0  0  0  0  0  0  0  0  0  0  0  # atno 17371 bound_to 10713
  140.8915  133.7845  155.9577 LP  0  0  0  0  0  0  0  0  0  0  0  0  # atno 17394 bound_to 11000
  140.8749  134.2682  157.5173 LP  0  0  0  0  0  0  0  0  0  0  0  0  # atno 17395 bound_to 11000

$$$$
