AV-unprocessed.smi:1120|AV-procd|sdf|4819|dock10
  -GOLD-   22720 3373D 1   1.00000     0.00000
 Structure written by MMmdl.
 48 49  0  0  0  0  0  0  0  0  1 V2000
  146.6079  132.9738  151.7434 C   0  0  0  0  0  0  0  0  0  0  0  0
  147.1923  133.1768  153.1484 C   0  0  2  0  0  0  0  0  0  0  0  0
  146.8541  134.5725  153.7025 C   0  0  0  0  0  0  0  0  0  0  0  0
  147.4167  134.7791  155.1190 C   0  0  0  0  0  0  0  0  0  0  0  0
  148.9270  134.4862  155.2040 C   0  0  2  0  0  0  0  0  0  0  0  0
  149.7056  135.5751  154.6067 N   0  0  0  0  0  0  0  0  0  0  0  0
  150.5995  136.7124  155.5497 S   0  0  0  0  0  0  0  0  0  0  0  0
  149.6395  137.3458  156.4661 O   0  0  0  0  0  0  0  0  0  0  0  0
  151.7914  136.0293  156.0771 O   0  0  0  0  0  0  0  0  0  0  0  0
  151.0974  137.9771  154.2940 C   0  0  0  0  0  0  0  0  0  0  0  0
  151.5827  139.2631  154.9623 C   0  0  0  0  0  0  0  0  0  0  0  0
  152.7883  139.4803  155.0810 O   0  0  0  0  0  0  0  0  0  0  0  0
  150.6339  140.1041  155.4023 N   0  0  0  0  0  0  0  0  0  0  0  0
  150.8864  141.3773  156.0671 C   0  0  0  0  0  0  0  0  0  0  0  0
  150.7839  141.2491  157.5959 C   0  0  0  0  0  0  0  0  0  0  0  0
  151.1373  142.5411  158.3077 C   0  0  0  0  0  0  0  0  0  0  0  0
  152.2316  142.5982  159.1967 C   0  0  0  0  0  0  0  0  0  0  0  0
  152.5159  143.8220  159.8333 C   0  0  0  0  0  0  0  0  0  0  0  0
  151.6985  144.9356  159.5589 C   0  0  0  0  0  0  0  0  0  0  0  0
  150.6284  144.7745  158.6563 C   0  0  0  0  0  0  0  0  0  0  0  0
  150.3472  143.6057  158.0405 N   0  0  0  0  0  0  0  0  0  0  0  0
  149.3069  133.1354  154.5689 C   0  0  0  0  0  0  0  0  0  0  0  0
  148.7158  132.9568  153.1607 C   0  0  0  0  0  0  0  0  0  0  0  0
  147.0253  133.6876  151.0327 H   0  0  0  0  0  0  0  0  0  0  0  0
  145.5252  133.1012  151.7465 H   0  0  0  0  0  0  0  0  0  0  0  0
  146.8196  131.9709  151.3715 H   0  0  0  0  0  0  0  0  0  0  0  0
  146.7373  132.4329  153.8040 H   0  0  0  0  0  0  0  0  0  0  0  0
  147.2535  135.3397  153.0378 H   0  0  0  0  0  0  0  0  0  0  0  0
  145.7731  134.7152  153.7189 H   0  0  0  0  0  0  0  0  0  0  0  0
  147.2016  135.7905  155.4660 H   0  0  0  0  0  0  0  0  0  0  0  0
  146.8924  134.1100  155.8022 H   0  0  0  0  0  0  0  0  0  0  0  0
  149.1959  134.4399  156.2590 H   0  0  0  0  0  0  0  0  0  0  0  0
  149.4772  135.8524  153.6520 H   0  0  0  0  0  0  0  0  0  0  0  0
  151.8538  137.5470  153.6371 H   0  0  0  0  0  0  0  0  0  0  0  0
  150.2223  138.2058  153.6854 H   0  0  0  0  0  0  0  0  0  0  0  0
  149.6673  139.8453  155.2666 H   0  0  0  0  0  0  0  0  0  0  0  0
  151.8867  141.7095  155.7877 H   0  0  0  0  0  0  0  0  0  0  0  0
  150.1937  142.1367  155.7002 H   0  0  0  0  0  0  0  0  0  0  0  0
  149.7759  140.9470  157.8832 H   0  0  0  0  0  0  0  0  0  0  0  0
  151.4512  140.4632  157.9498 H   0  0  0  0  0  0  0  0  0  0  0  0
  152.8394  141.7260  159.3878 H   0  0  0  0  0  0  0  0  0  0  0  0
  153.3456  143.9047  160.5196 H   0  0  0  0  0  0  0  0  0  0  0  0
  151.8868  145.8897  160.0287 H   0  0  0  0  0  0  0  0  0  0  0  0
  149.9810  145.6066  158.4224 H   0  0  0  0  0  0  0  0  0  0  0  0
  150.3908  133.0171  154.5436 H   0  0  0  0  0  0  0  0  0  0  0  0
  148.9317  132.3323  155.2041 H   0  0  0  0  0  0  0  0  0  0  0  0
  148.9511  131.9572  152.7939 H   0  0  0  0  0  0  0  0  0  0  0  0
  149.1943  133.6556  152.4735 H   0  0  0  0  0  0  0  0  0  0  0  0
  1  2  1  0  0  0  0
  1 24  1  0  0  0  0
  1 25  1  0  0  0  0
  1 26  1  0  0  0  0
  2 23  1  0  0  0  0
  2  3  1  0  0  0  0
  2 27  1  0  0  0  0
  3  4  1  0  0  0  0
  3 28  1  0  0  0  0
  3 29  1  0  0  0  0
  4  5  1  0  0  0  0
  4 30  1  0  0  0  0
  4 31  1  0  0  0  0
  5  6  1  0  0  0  0
  5 22  1  0  0  0  0
  5 32  1  0  0  0  0
  6  7  1  0  0  0  0
  6 33  1  0  0  0  0
  7  8  2  0  0  0  0
  7  9  2  0  0  0  0
  7 10  1  0  0  0  0
 10 11  1  0  0  0  0
 10 34  1  0  0  0  0
 10 35  1  0  0  0  0
 11 12  2  0  0  0  0
 11 13  1  0  0  0  0
 13 14  1  0  0  0  0
 13 36  1  0  0  0  0
 14 15  1  0  0  0  0
 14 37  1  0  0  0  0
 14 38  1  0  0  0  0
 15 16  1  0  0  0  0
 15 39  1  0  0  0  0
 15 40  1  0  0  0  0
 16 21  1  0  0  0  0
 16 17  2  0  0  0  0
 17 18  1  0  0  0  0
 17 41  1  0  0  0  0
 18 19  2  0  0  0  0
 18 42  1  0  0  0  0
 19 20  1  0  0  0  0
 19 43  1  0  0  0  0
 20 21  2  0  0  0  0
 20 44  1  0  0  0  0
 22 23  1  0  0  0  0
 22 45  1  0  0  0  0
 22 46  1  0  0  0  0
 23 47  1  0  0  0  0
 23 48  1  0  0  0  0
M  END
> <s_m_source_file>
AV-unprocessed.smi

> <i_m_source_file_index>
1120

> <i_lp_mmshare_version>
43012

> <i_f3d_flags>
0

> <s_epik_input>
W0NIM11bQ0BASF0xW0NIMl1bQ0gyXVtDQEhdKFtDSDJdW0NIMl0xKVtOSF1TKD1PKSg9TylbQ0gyXUMoPU8pW05IXVtDSDJdW0NIMl1jMltjSF1bY0hdW2NIXVtjSF1uMg==

> <s_epik_cmdline>
J2VwaWtfcHl0aG9uJywgJy1waCcsICc3LjAnLCAnLXRuJywgJzgnLCAnLW1hJywgJzIwMCcsICctbWV0YWxfYmluZGluZycsICctaW1hZScsICc8aW5maWxlLm1hZT4nLCAnLW9tYWUnLCAnPG91dGZpbGUubWFlPic=

> <r_epik_Ionization_Penalty>
0.0216068

> <r_epik_Ionization_Penalty_Charging>
0

> <r_epik_Ionization_Penalty_Neutral>
0.0216068

> <r_epik_State_Penalty>
0.01735

> <r_epik_Charging_Adjusted_Penalty>
0.01735

> <i_epik_Tot_Q>
0

> <i_epik_Tot_abs_Q>
0

> <r_epik_Metal_State_Penalty>
0.0535325

> <b_epik_Metal_Only>
0

> <s_lp_Force_Field>
OPLS_2005

> <r_lp_Energy>
6.87343

> <b_lp_Chiralities_Consistent>
1

> <s_lp_Variant>
AV-unprocessed.smi:1120-2

> <Gold.Version>
5.8.1

> <Gold.Id.Protein>
6NUR|6NUR_protein|mol2

> <Gold.PLP.Fitness>
57.0760

> <Gold.PLP.PLP>
-46.7988

> <Gold.PLP.part.hbond>
-4.0000

> <Gold.PLP.part.metal>
0.0000

> <Gold.PLP.part.buried>
-6.0405

> <Gold.PLP.part.nonpolar>
-38.6717

> <Gold.PLP.part.repulsive>
0.5050

> <Gold.PLP.ligand.clash>
0.0000

> <Gold.PLP.ligand.torsion>
1.4398

> <Gold.PLP.Chemscore.Hbond>
3.0000

> <Gold.PLP.Chemscore.CHOScore>
0.9968

> <Gold.PLP.Chemscore.Metal>
0.0000

> <Gold.Chemscore.Hbonds>
donor molecule, donor type, donor heavy atom, donor atom, acceptor molecule, acceptor atom, score
      L1  H     6    33       P1  7948  1.00
      P1  H  7997  8009       L1    12  1.00
      P1  H 10752 10765       L1     9  1.00
      L1  C    20    44       P1  8029  1.00

> <Gold.PLP.Chemscore.Internal.Correction>
1.1664

> <Gold.Rescore>
     Score         DG    S(hbond)    S(metal)    S(lipo)     H(rot)  DE(clash)    DE(int)     intcor
     20.77     -22.23       2.78        0.00     105.82       1.92       0.03       1.43       ----

> <Gold.Chemscore.Fitness>
20.7725

> <Gold.Chemscore.DG>
-22.2315

> <Gold.Chemscore.ZeroCoef>
-5.4800

> <Gold.Chemscore.Hbond>
2.7833

> <Gold.Chemscore.Metal>
0.0000

> <Gold.Chemscore.Lipo>
105.8194

> <Gold.Chemscore.Internal_Hbond>
0.0000

> <Gold.Chemscore.DEClash>
0.0324

> <Gold.Chemscore.DEInternal>
1.4267

> <Gold.Chemscore.Rot>
1.9241

> <Gold.Chemscore.Internal.Correction>
   9.000000E+99

> <Gold.Chemscore.Hbonds>
donor molecule, donor type, donor heavy atom, donor atom, acceptor molecule, acceptor atom, score
      L1  H     6    33       P1  7948  0.40
      P1  H  7997  8009       L1    12  0.94
      P1  H 10752 10765       L1     9  0.84

> <Gold.Chemscore.Hbond.Weighted>
-9.2963

> <Gold.Chemscore.Metal.Weighted>
-0.0000

> <Gold.Chemscore.Lipo.Weighted>
-12.3809

> <Gold.Chemscore.Internal_Hbond.Weighted>
0.0000

> <Gold.Chemscore.DEClash.Weighted>
0.0324

> <Gold.Chemscore.DEInternal.Weighted>
1.4267

> <Gold.Chemscore.Rot.Weighted>
4.9256

> <Gold.Chemscore.Internal.Correction.Weighted>
   9.000000E+99

> <Gold.Protein.RotatedTorsions>
[ 6907 6896 6895 6894 ] final  -51.64 input  -60.11 | X-H torsion
[ 7974 7965 7964 7962 ] final  151.78 input  175.53 | X-H torsion
[ 8008 7997 7996 7995 ] final -153.73 input   59.86 | X-H torsion
[ 10167 10162 10161 10158 ] final  101.58 input  -65.29 | X-H torsion
[ 10718 10713 10712 10709 ] final   72.12 input   66.30 | X-H torsion
[ 10763 10752 10751 10750 ] final -171.40 input  -60.55 | X-H torsion
[ 11005 11000 10999 10996 ] final   27.66 input  -57.11 | X-H torsion

> <Gold.Protein.ActiveResidues>
 VAL166  LYS551  ARG553  GLY616  TRP617  ASP618  TYR619  PRO620  LYS621  CYS622 
 ASP623  PHE694  ASN695  SER759  ASP760  ASP761  ALA762  ILE779  LEU786  VAL792 
 PHE793  MET794  SER795  GLU796  ALA797  LYS798  CYS799  TRP800  GLU811  SER814 

> <Gold.Protein.RotatedAtoms>
  150.8592  134.7940  159.7069 H   0  0  0  0  0  0  0  0  0  0  0  0  # atno 6907 bound_to 6896
  152.4634  134.5127  159.9768 H   0  0  0  0  0  0  0  0  0  0  0  0  # atno 6908 bound_to 6896
  151.5234  133.3424  159.2941 H   0  0  0  0  0  0  0  0  0  0  0  0  # atno 6909 bound_to 6896
  144.8268  139.6582  143.6076 H   0  0  0  0  0  0  0  0  0  0  0  0  # atno 7974 bound_to 7965
  155.6753  140.0738  157.2505 H   0  0  0  0  0  0  0  0  0  0  0  0  # atno 8008 bound_to 7997
  154.4115  140.1691  156.1975 H   0  0  0  0  0  0  0  0  0  0  0  0  # atno 8009 bound_to 7997
  155.9581  140.3372  155.6470 H   0  0  0  0  0  0  0  0  0  0  0  0  # atno 8010 bound_to 7997
  139.7425  144.7007  151.0553 H   0  0  0  0  0  0  0  0  0  0  0  0  # atno 10167 bound_to 10162
  157.6485  130.9562  150.0884 H   0  0  0  0  0  0  0  0  0  0  0  0  # atno 10718 bound_to 10713
  154.6309  135.2886  155.0217 H   0  0  0  0  0  0  0  0  0  0  0  0  # atno 10763 bound_to 10752
  154.1378  135.6523  153.4939 H   0  0  0  0  0  0  0  0  0  0  0  0  # atno 10764 bound_to 10752
  153.0279  135.5325  154.7137 H   0  0  0  0  0  0  0  0  0  0  0  0  # atno 10765 bound_to 10752
  140.3239  134.2513  155.7713 H   0  0  0  0  0  0  0  0  0  0  0  0  # atno 11005 bound_to 11000
  146.2573  139.6331  142.9386 LP  0  0  0  0  0  0  0  0  0  0  0  0  # atno 17320 bound_to 7965
  145.4982  141.0438  143.2555 LP  0  0  0  0  0  0  0  0  0  0  0  0  # atno 17321 bound_to 7965
  140.7788  143.4906  150.9898 LP  0  0  0  0  0  0  0  0  0  0  0  0  # atno 17342 bound_to 10162
  139.8595  143.7333  152.3174 LP  0  0  0  0  0  0  0  0  0  0  0  0  # atno 17343 bound_to 10162
  156.1840  130.3651  149.8998 LP  0  0  0  0  0  0  0  0  0  0  0  0  # atno 17370 bound_to 10713
  156.6943  130.8908  151.3592 LP  0  0  0  0  0  0  0  0  0  0  0  0  # atno 17371 bound_to 10713
  141.2080  133.7790  157.0085 LP  0  0  0  0  0  0  0  0  0  0  0  0  # atno 17394 bound_to 11000
  140.0918  134.9588  157.1788 LP  0  0  0  0  0  0  0  0  0  0  0  0  # atno 17395 bound_to 11000

$$$$
