AV-unprocessed.smi:1549|AV-procd|sdf|6223|dock6
  -GOLD-   22720 6393D 1   1.00000     0.00000
 Structure written by MMmdl.
 41 42  0  0  0  0  0  0  0  0  1 V2000
  150.7331  138.7780  154.4050 C   0  0  0  0  0  0  0  0  0  0  0  0
  151.2822  137.5024  155.0483 C   0  0  0  0  0  0  0  0  0  0  0  0
  150.4284  136.4152  154.7065 O   0  0  0  0  0  0  0  0  0  0  0  0
  150.6385  135.1897  155.3100 C   0  0  0  0  0  0  0  0  0  0  0  0
  151.6277  135.0853  156.2327 N   0  0  0  0  0  0  0  0  0  0  0  0
  151.8363  133.8883  156.8185 C   0  0  0  0  0  0  0  0  0  0  0  0
  151.0824  132.7402  156.5146 C   0  0  0  0  0  0  0  0  0  0  0  0
  150.0556  132.8461  155.5584 C   0  0  0  0  0  0  0  0  0  0  0  0
  149.8140  134.0997  154.9456 C   0  0  0  0  0  0  0  0  0  0  0  0
  148.8173  134.3134  153.9538 N   0  0  0  0  0  0  0  0  0  0  0  0
  147.7496  133.5525  153.6605 C   0  0  0  0  0  0  0  0  0  0  0  0
  147.4288  132.5188  154.2466 O   0  0  0  0  0  0  0  0  0  0  0  0
  147.0503  134.0725  152.6416 N   0  0  0  0  0  0  0  0  0  0  0  0
  145.8357  133.4966  152.0721 C   0  0  2  0  0  0  0  0  0  0  0  0
  146.1121  132.0846  151.5175 C   0  0  0  0  0  0  0  0  0  0  0  0
  144.8613  131.4826  150.8541 C   0  0  0  0  0  0  0  0  0  0  0  0
  144.2754  132.4034  149.7673 C   0  0  2  0  0  0  0  0  0  0  0  0
  145.1376  132.4404  148.6473 O   0  0  0  0  0  0  0  0  0  0  0  0
  144.0392  133.8297  150.2996 C   0  0  0  0  0  0  0  0  0  0  0  0
  145.2957  134.4195  150.9642 C   0  0  0  0  0  0  0  0  0  0  0  0
  151.3656  139.6351  154.6374 H   0  0  0  0  0  0  0  0  0  0  0  0
  149.7277  138.9967  154.7653 H   0  0  0  0  0  0  0  0  0  0  0  0
  150.6874  138.6809  153.3201 H   0  0  0  0  0  0  0  0  0  0  0  0
  152.2952  137.3178  154.6873 H   0  0  0  0  0  0  0  0  0  0  0  0
  151.3249  137.6282  156.1314 H   0  0  0  0  0  0  0  0  0  0  0  0
  152.6324  133.8432  157.5467 H   0  0  0  0  0  0  0  0  0  0  0  0
  151.2899  131.7983  157.0002 H   0  0  0  0  0  0  0  0  0  0  0  0
  149.4878  131.9643  155.3057 H   0  0  0  0  0  0  0  0  0  0  0  0
  148.8982  135.1810  153.4436 H   0  0  0  0  0  0  0  0  0  0  0  0
  147.3857  134.9279  152.2236 H   0  0  0  0  0  0  0  0  0  0  0  0
  145.0773  133.4276  152.8547 H   0  0  0  0  0  0  0  0  0  0  0  0
  146.9257  132.1256  150.7918 H   0  0  0  0  0  0  0  0  0  0  0  0
  146.4491  131.4246  152.3176 H   0  0  0  0  0  0  0  0  0  0  0  0
  145.0937  130.5026  150.4361 H   0  0  0  0  0  0  0  0  0  0  0  0
  144.1046  131.3127  151.6210 H   0  0  0  0  0  0  0  0  0  0  0  0
  143.3268  131.9899  149.4235 H   0  0  0  0  0  0  0  0  0  0  0  0
  145.4221  133.3321  148.5169 H   0  0  0  0  0  0  0  0  0  0  0  0
  143.6990  134.4823  149.4947 H   0  0  0  0  0  0  0  0  0  0  0  0
  143.2313  133.8056  151.0322 H   0  0  0  0  0  0  0  0  0  0  0  0
  145.0624  135.4018  151.3772 H   0  0  0  0  0  0  0  0  0  0  0  0
  146.0652  134.5796  150.2077 H   0  0  0  0  0  0  0  0  0  0  0  0
  1  2  1  0  0  0  0
  1 21  1  0  0  0  0
  1 22  1  0  0  0  0
  1 23  1  0  0  0  0
  2  3  1  0  0  0  0
  2 24  1  0  0  0  0
  2 25  1  0  0  0  0
  3  4  1  0  0  0  0
  4  9  1  0  0  0  0
  4  5  2  0  0  0  0
  5  6  1  0  0  0  0
  6  7  2  0  0  0  0
  6 26  1  0  0  0  0
  7  8  1  0  0  0  0
  7 27  1  0  0  0  0
  8  9  2  0  0  0  0
  8 28  1  0  0  0  0
  9 10  1  0  0  0  0
 10 11  1  0  0  0  0
 10 29  1  0  0  0  0
 11 12  2  0  0  0  0
 11 13  1  0  0  0  0
 13 14  1  0  0  0  0
 13 30  1  0  0  0  0
 14 20  1  0  0  0  0
 14 15  1  0  0  0  0
 14 31  1  0  0  0  0
 15 16  1  0  0  0  0
 15 32  1  0  0  0  0
 15 33  1  0  0  0  0
 16 17  1  0  0  0  0
 16 34  1  0  0  0  0
 16 35  1  0  0  0  0
 17 18  1  0  0  0  0
 17 19  1  0  0  0  0
 17 36  1  0  0  0  0
 18 37  1  0  0  0  0
 19 20  1  0  0  0  0
 19 38  1  0  0  0  0
 19 39  1  0  0  0  0
 20 40  1  0  0  0  0
 20 41  1  0  0  0  0
M  END
> <s_m_source_file>
AV-unprocessed.smi

> <i_m_source_file_index>
1549

> <i_lp_mmshare_version>
43012

> <i_f3d_flags>
0

> <s_epik_input>
W0NIM11bQ0gyXU9jMW5bY0hdW2NIXVtjSF1jMVtOSF1DKD1PKVtOSF1bQ0BASF0yW0NIMl1bQ0gyXVtDQEBIXShbT0hdKVtDSDJdW0NIMl0y

> <s_epik_cmdline>
J2VwaWtfcHl0aG9uJywgJy1waCcsICc3LjAnLCAnLXRuJywgJzgnLCAnLW1hJywgJzIwMCcsICctbWV0YWxfYmluZGluZycsICctaW1hZScsICc8aW5maWxlLm1hZT4nLCAnLW9tYWUnLCAnPG91dGZpbGUubWFlPic=

> <r_lp_tautomer_probability>
1

> <r_epik_Ionization_Penalty>
0.000120387

> <r_epik_Ionization_Penalty_Charging>
0

> <r_epik_Ionization_Penalty_Neutral>
0.000120387

> <r_epik_State_Penalty>
-0

> <r_epik_Charging_Adjusted_Penalty>
0

> <i_epik_Tot_Q>
0

> <i_epik_Tot_abs_Q>
0

> <r_epik_Metal_State_Penalty>
-0

> <b_epik_Metal_Only>
0

> <s_lp_Force_Field>
OPLS_2005

> <r_lp_Energy>
13.0635

> <b_lp_Chiralities_Consistent>
1

> <s_lp_Variant>
AV-unprocessed.smi:1549-2

> <Gold.Version>
5.8.1

> <Gold.Id.Protein>
6NUR|6NUR_protein|mol2

> <Gold.PLP.Fitness>
46.1101

> <Gold.PLP.PLP>
-34.5011

> <Gold.PLP.part.hbond>
-5.0000

> <Gold.PLP.part.metal>
0.0000

> <Gold.PLP.part.buried>
-2.5741

> <Gold.PLP.part.nonpolar>
-27.2821

> <Gold.PLP.part.repulsive>
0.2417

> <Gold.PLP.ligand.clash>
0.0000

> <Gold.PLP.ligand.torsion>
0.0892

> <Gold.PLP.Chemscore.Hbond>
3.9260

> <Gold.PLP.Chemscore.CHOScore>
0.0000

> <Gold.PLP.Chemscore.Metal>
0.0000

> <Gold.Chemscore.Hbonds>
donor molecule, donor type, donor heavy atom, donor atom, acceptor molecule, acceptor atom, score
      L1  H    10    29       P1  7948  1.00
      L1  H    13    30       P1  7948  0.97
      L1  H    18    37       P1  7921  0.90
      P1  H 10752 10763       L1     5  0.95

> <Gold.PLP.Chemscore.Internal.Correction>
0.0094

> <Gold.Rescore>
     Score         DG    S(hbond)    S(metal)    S(lipo)     H(rot)  DE(clash)    DE(int)     intcor
     15.13     -17.31       2.33        0.00      76.93       1.93       0.22       1.96       ----

> <Gold.Chemscore.Fitness>
15.1312

> <Gold.Chemscore.DG>
-17.3109

> <Gold.Chemscore.ZeroCoef>
-5.4800

> <Gold.Chemscore.Hbond>
2.3278

> <Gold.Chemscore.Metal>
0.0000

> <Gold.Chemscore.Lipo>
76.9335

> <Gold.Chemscore.Internal_Hbond>
0.0000

> <Gold.Chemscore.DEClash>
0.2156

> <Gold.Chemscore.DEInternal>
1.9640

> <Gold.Chemscore.Rot>
1.9318

> <Gold.Chemscore.Internal.Correction>
   9.000000E+99

> <Gold.Chemscore.Hbonds>
donor molecule, donor type, donor heavy atom, donor atom, acceptor molecule, acceptor atom, score
      L1  H    10    29       P1  7948  0.54
      L1  H    13    30       P1  7948  0.83
      L1  H    18    37       P1  7921  0.18
      P1  H 10752 10763       L1     5  0.12

> <Gold.Chemscore.Hbond.Weighted>
-7.7750

> <Gold.Chemscore.Metal.Weighted>
-0.0000

> <Gold.Chemscore.Lipo.Weighted>
-9.0012

> <Gold.Chemscore.Internal_Hbond.Weighted>
0.0000

> <Gold.Chemscore.DEClash.Weighted>
0.2156

> <Gold.Chemscore.DEInternal.Weighted>
1.9640

> <Gold.Chemscore.Rot.Weighted>
4.9454

> <Gold.Chemscore.Internal.Correction.Weighted>
   9.000000E+99

> <Gold.Protein.RotatedTorsions>
[ 6907 6896 6895 6894 ] final   96.40 input  -60.11 | X-H torsion
[ 7974 7965 7964 7962 ] final  149.34 input  175.53 | X-H torsion
[ 8008 7997 7996 7995 ] final   70.29 input   59.86 | X-H torsion
[ 10167 10162 10161 10158 ] final  -75.99 input  -65.29 | X-H torsion
[ 10718 10713 10712 10709 ] final  105.96 input   66.30 | X-H torsion
[ 10763 10752 10751 10750 ] final   92.39 input  -60.55 | X-H torsion
[ 11005 11000 10999 10996 ] final  131.73 input  -57.11 | X-H torsion

> <Gold.Protein.ActiveResidues>
 VAL166  LYS551  ARG553  GLY616  TRP617  ASP618  TYR619  PRO620  LYS621  CYS622 
 ASP623  PHE694  ASN695  SER759  ASP760  ASP761  ALA762  ILE779  LEU786  VAL792 
 PHE793  MET794  SER795  GLU796  ALA797  LYS798  CYS799  TRP800  GLU811  SER814 

> <Gold.Protein.RotatedAtoms>
  152.5435  134.0892  159.8269 H   0  0  0  0  0  0  0  0  0  0  0  0  # atno 6907 bound_to 6896
  151.0984  133.5255  159.2618 H   0  0  0  0  0  0  0  0  0  0  0  0  # atno 6908 bound_to 6896
  151.2019  135.0455  159.8930 H   0  0  0  0  0  0  0  0  0  0  0  0  # atno 6909 bound_to 6896
  144.8445  139.6268  143.6001 H   0  0  0  0  0  0  0  0  0  0  0  0  # atno 7974 bound_to 7965
  155.7365  140.3491  155.5084 H   0  0  0  0  0  0  0  0  0  0  0  0  # atno 8008 bound_to 7997
  155.9134  140.1054  157.1284 H   0  0  0  0  0  0  0  0  0  0  0  0  # atno 8009 bound_to 7997
  154.4059  140.1263  156.4573 H   0  0  0  0  0  0  0  0  0  0  0  0  # atno 8010 bound_to 7997
  140.4896  143.2383  151.7929 H   0  0  0  0  0  0  0  0  0  0  0  0  # atno 10167 bound_to 10162
  157.6686  131.0840  150.5936 H   0  0  0  0  0  0  0  0  0  0  0  0  # atno 10718 bound_to 10713
  153.2186  135.4363  155.0463 H   0  0  0  0  0  0  0  0  0  0  0  0  # atno 10763 bound_to 10752
  154.8238  135.3350  154.6961 H   0  0  0  0  0  0  0  0  0  0  0  0  # atno 10764 bound_to 10752
  153.7394  135.7006  153.5026 H   0  0  0  0  0  0  0  0  0  0  0  0  # atno 10765 bound_to 10752
  139.9748  134.9567  156.9481 H   0  0  0  0  0  0  0  0  0  0  0  0  # atno 11005 bound_to 11000
  146.2732  139.6688  142.9281 LP  0  0  0  0  0  0  0  0  0  0  0  0  # atno 17320 bound_to 7965
  145.4624  141.0433  143.2744 LP  0  0  0  0  0  0  0  0  0  0  0  0  # atno 17321 bound_to 7965
  139.4848  144.4667  151.9475 LP  0  0  0  0  0  0  0  0  0  0  0  0  # atno 17342 bound_to 10162
  140.3753  144.2804  150.5915 LP  0  0  0  0  0  0  0  0  0  0  0  0  # atno 17343 bound_to 10162
  156.6236  130.4412  149.5813 LP  0  0  0  0  0  0  0  0  0  0  0  0  # atno 17370 bound_to 10713
  156.2336  130.6809  151.1488 LP  0  0  0  0  0  0  0  0  0  0  0  0  # atno 17371 bound_to 10713
  140.5218  134.0900  155.7294 LP  0  0  0  0  0  0  0  0  0  0  0  0  # atno 17394 bound_to 11000
  141.1425  133.9112  157.2292 LP  0  0  0  0  0  0  0  0  0  0  0  0  # atno 17395 bound_to 11000

$$$$
