AV-unprocessed.smi:1261|AV-procd|sdf|5307|dock6
  -GOLD-   22720 4433D 1   1.00000     0.00000
 Structure written by MMmdl.
 50 51  0  0  0  0  0  0  0  0  2 V2000
  151.5340  145.1217  158.8313 C   0  0  0  0  0  0  0  0  0  0  0  0
  151.7573  143.7677  159.5194 C   0  0  2  0  0  0  0  0  0  0  0  0
  152.4499  143.9402  160.8828 C   0  0  0  0  0  0  0  0  0  0  0  0
  152.7146  142.5764  161.5447 C   0  0  2  0  0  0  0  0  0  0  0  0
  153.4320  142.7394  162.8921 C   0  0  0  0  0  0  0  0  0  0  0  0
  153.5165  141.6700  160.5871 C   0  0  0  0  0  0  0  0  0  0  0  0
  152.8381  141.4996  159.2755 N   0  3  1  0  0  0  0  0  0  0  0  0
  151.6741  140.5741  159.3249 C   0  0  0  0  0  0  0  0  0  0  0  0
  151.0361  140.3577  157.9425 C   0  0  0  0  0  0  0  0  0  0  0  0
  150.9136  138.8679  157.5832 C   0  0  0  0  0  0  0  0  0  0  0  0
  149.6091  138.3339  157.9542 N   0  0  0  0  0  0  0  0  0  0  0  0
  149.3914  137.1241  158.4982 C   0  0  0  0  0  0  0  0  0  0  0  0
  150.3020  136.3331  158.7414 O   0  0  0  0  0  0  0  0  0  0  0  0
  147.9442  136.7224  158.8346 C   0  0  0  0  0  0  0  0  0  0  0  0
  147.7486  136.1651  160.1829 N   0  0  0  0  0  0  0  0  0  0  0  0
  147.8077  137.1083  161.1979 N   0  0  0  0  0  0  0  0  0  0  0  0
  147.6534  136.7448  162.4261 C   0  0  0  0  0  0  0  0  0  0  0  0
  147.7174  137.7112  163.3995 O   0  0  0  0  0  0  0  0  0  0  0  0
  147.4186  135.3603  162.7727 C   0  0  0  0  0  0  0  0  0  0  0  0
  147.3602  134.4491  161.7770 C   0  0  0  0  0  0  0  0  0  0  0  0
  147.5268  134.8279  160.3728 C   0  0  0  0  0  0  0  0  0  0  0  0
  147.4644  134.0217  159.4453 O   0  0  0  0  0  0  0  0  0  0  0  0
  152.5713  142.8102  158.6212 C   0  0  0  0  0  0  0  0  0  0  0  0
  146.8968  138.1763  163.3471 H   0  0  0  0  0  0  0  0  0  0  0  0
  152.4799  145.6235  158.6244 H   0  0  0  0  0  0  0  0  0  0  0  0
  150.9349  145.7855  159.4553 H   0  0  0  0  0  0  0  0  0  0  0  0
  151.0083  144.9988  157.8840 H   0  0  0  0  0  0  0  0  0  0  0  0
  150.7726  143.3336  159.6925 H   0  0  0  0  0  0  0  0  0  0  0  0
  153.3923  144.4744  160.7519 H   0  0  0  0  0  0  0  0  0  0  0  0
  151.8327  144.5572  161.5371 H   0  0  0  0  0  0  0  0  0  0  0  0
  151.7527  142.1028  161.7459 H   0  0  0  0  0  0  0  0  0  0  0  0
  154.4074  143.2115  162.7689 H   0  0  0  0  0  0  0  0  0  0  0  0
  153.5882  141.7734  163.3732 H   0  0  0  0  0  0  0  0  0  0  0  0
  152.8478  143.3560  163.5759 H   0  0  0  0  0  0  0  0  0  0  0  0
  154.4995  142.1080  160.4074 H   0  0  0  0  0  0  0  0  0  0  0  0
  153.7011  140.6957  161.0419 H   0  0  0  0  0  0  0  0  0  0  0  0
  152.0121  139.6036  159.6906 H   0  0  0  0  0  0  0  0  0  0  0  0
  150.9294  140.9230  160.0397 H   0  0  0  0  0  0  0  0  0  0  0  0
  150.0459  140.8111  157.9110 H   0  0  0  0  0  0  0  0  0  0  0  0
  151.6327  140.8650  157.1832 H   0  0  0  0  0  0  0  0  0  0  0  0
  151.0392  138.7315  156.5088 H   0  0  0  0  0  0  0  0  0  0  0  0
  151.7045  138.2900  158.0644 H   0  0  0  0  0  0  0  0  0  0  0  0
  148.8074  138.9241  157.7827 H   0  0  0  0  0  0  0  0  0  0  0  0
  147.2994  137.5901  158.6864 H   0  0  0  0  0  0  0  0  0  0  0  0
  147.6186  135.9961  158.0879 H   0  0  0  0  0  0  0  0  0  0  0  0
  147.2939  135.0703  163.8058 H   0  0  0  0  0  0  0  0  0  0  0  0
  147.1856  133.4116  162.0213 H   0  0  0  0  0  0  0  0  0  0  0  0
  152.0721  142.6691  157.6636 H   0  0  0  0  0  0  0  0  0  0  0  0
  153.5337  143.2676  158.3872 H   0  0  0  0  0  0  0  0  0  0  0  0
  153.5129  141.0293  158.6894 H   0  0  0  0  0  0  0  0  0  0  0  0
  1  2  1  0  0  0  0
  1 25  1  0  0  0  0
  1 26  1  0  0  0  0
  1 27  1  0  0  0  0
  2 23  1  0  0  0  0
  2  3  1  0  0  0  0
  2 28  1  0  0  0  0
  3  4  1  0  0  0  0
  3 29  1  0  0  0  0
  3 30  1  0  0  0  0
  4  5  1  0  0  0  0
  4  6  1  0  0  0  0
  4 31  1  0  0  0  0
  5 32  1  0  0  0  0
  5 33  1  0  0  0  0
  5 34  1  0  0  0  0
  6  7  1  0  0  0  0
  6 35  1  0  0  0  0
  6 36  1  0  0  0  0
  7  8  1  0  0  0  0
  7 23  1  0  0  0  0
  7 50  1  0  0  0  0
  8  9  1  0  0  0  0
  8 37  1  0  0  0  0
  8 38  1  0  0  0  0
  9 10  1  0  0  0  0
  9 39  1  0  0  0  0
  9 40  1  0  0  0  0
 10 11  1  0  0  0  0
 10 41  1  0  0  0  0
 10 42  1  0  0  0  0
 11 12  1  0  0  0  0
 11 43  1  0  0  0  0
 12 13  2  0  0  0  0
 12 14  1  0  0  0  0
 14 44  1  0  0  0  0
 14 45  1  0  0  0  0
 14 15  1  0  0  0  0
 15 16  1  0  0  0  0
 15 21  1  0  0  0  0
 16 17  2  0  0  0  0
 17 18  1  0  0  0  0
 17 19  1  0  0  0  0
 18 24  1  0  0  0  0
 19 46  1  0  0  0  0
 19 20  2  0  0  0  0
 20 47  1  0  0  0  0
 20 21  1  0  0  0  0
 21 22  2  0  0  0  0
 23 48  1  0  0  0  0
 23 49  1  0  0  0  0
M  CHG  1   7   1
M  END
> <s_m_source_file>
AV-unprocessed.smi

> <i_m_source_file_index>
1261

> <i_lp_mmshare_version>
43012

> <i_f3d_flags>
0

> <s_epik_input>
W0NIM11bQ0BASF0xW0NIMl1bQ0BASF0oW0NIM10pW0NIMl1OKFtDSDJdMSlbQ0gyXVtDSDJdW0NIMl1bTkhdQyg9TylbQ0gyXW4yW25IXWMoPU8pW2NIXVtjSF1jMj1P

> <s_epik_cmdline>
J2VwaWtfcHl0aG9uJywgJy1waCcsICc3LjAnLCAnLXRuJywgJzgnLCAnLW1hJywgJzIwMCcsICctbWV0YWxfYmluZGluZycsICctaW1hZScsICc8aW5maWxlLm1hZT4nLCAnLW9tYWUnLCAnPG91dGZpbGUubWFlPic=

> <r_lp_tautomer_probability>
0.9996

> <r_epik_Ionization_Penalty>
2.1425

> <r_epik_Ionization_Penalty_Charging>
0.000312112

> <r_epik_Ionization_Penalty_Neutral>
2.14218

> <r_epik_State_Penalty>
1.71978

> <r_epik_Charging_Adjusted_Penalty>
1.72009

> <i_epik_Tot_Q>
1

> <i_epik_Tot_abs_Q>
1

> <r_epik_Metal_State_Penalty>
1.71978

> <b_epik_Metal_Only>
0

> <s_lp_Force_Field>
OPLS_2005

> <r_lp_Energy>
29.2022

> <b_lp_Chiralities_Consistent>
1

> <s_lp_Variant>
AV-unprocessed.smi:1261-7

> <Gold.Version>
5.8.1

> <Gold.Id.Protein>
6NUR|6NUR_protein|mol2

> <Gold.PLP.Fitness>
58.7243

> <Gold.PLP.PLP>
-54.1979

> <Gold.PLP.part.hbond>
-4.2542

> <Gold.PLP.part.metal>
0.0000

> <Gold.PLP.part.buried>
-6.0203

> <Gold.PLP.part.nonpolar>
-44.1842

> <Gold.PLP.part.repulsive>
0.2023

> <Gold.PLP.ligand.clash>
0.0000

> <Gold.PLP.ligand.torsion>
1.0318

> <Gold.PLP.Chemscore.Hbond>
2.1340

> <Gold.PLP.Chemscore.CHOScore>
0.0000

> <Gold.PLP.Chemscore.Metal>
0.0000

> <Gold.Chemscore.Hbonds>
donor molecule, donor type, donor heavy atom, donor atom, acceptor molecule, acceptor atom, score
      P1  H  6896  6908       L1    13  1.00
      P1  H  6931  6943       L1    16  0.20
      P1  H  6934  6947       L1    16  0.82

> <Gold.PLP.Chemscore.Internal.Correction>
0.1880

> <Gold.Rescore>
     Score         DG    S(hbond)    S(metal)    S(lipo)     H(rot)  DE(clash)    DE(int)     intcor
     16.62     -17.87       1.81        0.00     122.81       3.14       0.07       1.17       ----

> <Gold.Chemscore.Fitness>
16.6227

> <Gold.Chemscore.DG>
-17.8685

> <Gold.Chemscore.ZeroCoef>
-5.4800

> <Gold.Chemscore.Hbond>
1.8101

> <Gold.Chemscore.Metal>
0.0000

> <Gold.Chemscore.Lipo>
122.8090

> <Gold.Chemscore.Internal_Hbond>
0.0000

> <Gold.Chemscore.DEClash>
0.0741

> <Gold.Chemscore.DEInternal>
1.1717

> <Gold.Chemscore.Rot>
3.1352

> <Gold.Chemscore.Internal.Correction>
   9.000000E+99

> <Gold.Chemscore.Hbonds>
donor molecule, donor type, donor heavy atom, donor atom, acceptor molecule, acceptor atom, score
      P1  H  6896  6908       L1    13  0.98
      P1  H  6934  6947       L1    16  0.59

> <Gold.Chemscore.Hbond.Weighted>
-6.0459

> <Gold.Chemscore.Metal.Weighted>
-0.0000

> <Gold.Chemscore.Lipo.Weighted>
-14.3686

> <Gold.Chemscore.Internal_Hbond.Weighted>
0.0000

> <Gold.Chemscore.DEClash.Weighted>
0.0741

> <Gold.Chemscore.DEInternal.Weighted>
1.1717

> <Gold.Chemscore.Rot.Weighted>
8.0260

> <Gold.Chemscore.Internal.Correction.Weighted>
   9.000000E+99

> <Gold.Protein.RotatedTorsions>
[ 6907 6896 6895 6894 ] final -163.34 input  -60.11 | X-H torsion
[ 7974 7965 7964 7962 ] final  125.82 input  175.53 | X-H torsion
[ 8008 7997 7996 7995 ] final    3.56 input   59.86 | X-H torsion
[ 10167 10162 10161 10158 ] final  -89.44 input  -65.29 | X-H torsion
[ 10718 10713 10712 10709 ] final   28.27 input   66.30 | X-H torsion
[ 10763 10752 10751 10750 ] final   95.42 input  -60.55 | X-H torsion
[ 11005 11000 10999 10996 ] final -106.58 input  -57.11 | X-H torsion

> <Gold.Protein.ActiveResidues>
 VAL166  LYS551  ARG553  GLY616  TRP617  ASP618  TYR619  PRO620  LYS621  CYS622 
 ASP623  PHE694  ASN695  SER759  ASP760  ASP761  ALA762  ILE779  LEU786  VAL792 
 PHE793  MET794  SER795  GLU796  ALA797  LYS798  CYS799  TRP800  GLU811  SER814 

> <Gold.Protein.RotatedAtoms>
  151.3945  133.3778  159.2724 H   0  0  0  0  0  0  0  0  0  0  0  0  # atno 6907 bound_to 6896
  150.9480  134.8884  159.7664 H   0  0  0  0  0  0  0  0  0  0  0  0  # atno 6908 bound_to 6896
  152.5100  134.3899  159.9432 H   0  0  0  0  0  0  0  0  0  0  0  0  # atno 6909 bound_to 6896
  145.0686  139.3747  143.4969 H   0  0  0  0  0  0  0  0  0  0  0  0  # atno 7974 bound_to 7965
  154.7052  140.2681  155.6681 H   0  0  0  0  0  0  0  0  0  0  0  0  # atno 8008 bound_to 7997
  156.2778  140.2764  156.1599 H   0  0  0  0  0  0  0  0  0  0  0  0  # atno 8009 bound_to 7997
  155.0710  140.0372  157.2598 H   0  0  0  0  0  0  0  0  0  0  0  0  # atno 8010 bound_to 7997
  140.3648  143.2824  151.9571 H   0  0  0  0  0  0  0  0  0  0  0  0  # atno 10167 bound_to 10162
  157.2313  130.7025  149.6315 H   0  0  0  0  0  0  0  0  0  0  0  0  # atno 10718 bound_to 10713
  153.2530  135.4255  155.0816 H   0  0  0  0  0  0  0  0  0  0  0  0  # atno 10763 bound_to 10752
  154.8389  135.3430  154.6486 H   0  0  0  0  0  0  0  0  0  0  0  0  # atno 10764 bound_to 10752
  153.6907  135.7034  153.5147 H   0  0  0  0  0  0  0  0  0  0  0  0  # atno 10765 bound_to 10752
  141.0997  133.8906  157.1873 H   0  0  0  0  0  0  0  0  0  0  0  0  # atno 11005 bound_to 11000
  146.3528  140.0420  142.8642 LP  0  0  0  0  0  0  0  0  0  0  0  0  # atno 17320 bound_to 7965
  145.1320  140.9523  143.4539 LP  0  0  0  0  0  0  0  0  0  0  0  0  # atno 17321 bound_to 7965
  139.4810  144.5960  151.7689 LP  0  0  0  0  0  0  0  0  0  0  0  0  # atno 17342 bound_to 10162
  140.5092  144.1052  150.5990 LP  0  0  0  0  0  0  0  0  0  0  0  0  # atno 17343 bound_to 10162
  155.9675  130.4488  150.5633 LP  0  0  0  0  0  0  0  0  0  0  0  0  # atno 17370 bound_to 10713
  157.3475  131.0727  151.1739 LP  0  0  0  0  0  0  0  0  0  0  0  0  # atno 17371 bound_to 10713
  139.9845  135.0087  156.9829 LP  0  0  0  0  0  0  0  0  0  0  0  0  # atno 17394 bound_to 11000
  140.5052  134.1057  155.7258 LP  0  0  0  0  0  0  0  0  0  0  0  0  # atno 17395 bound_to 11000

$$$$
