AV-unprocessed.smi:395|AV-procd|sdf|2486|dock10
  -GOLD-   2262022433D 1   1.00000     0.00000
 Structure written by MMmdl.
 34 35  0  0  0  0  0  0  0  0  1 V2000
  148.7639  134.2271  157.0005 C   0  0  0  0  0  0  0  0  0  0  0  0
  149.4700  135.3554  156.8118 C   0  0  0  0  0  0  0  0  0  0  0  0
  149.6634  136.4890  157.8099 C   0  0  0  0  0  0  0  0  0  0  0  0
  150.5748  137.5355  157.3546 N   0  0  0  0  0  0  0  0  0  0  0  0
  151.7690  137.8110  157.9009 C   0  0  0  0  0  0  0  0  0  0  0  0
  152.2437  137.1730  158.8415 O   0  0  0  0  0  0  0  0  0  0  0  0
  152.5366  138.9892  157.2830 C   0  0  0  0  0  0  0  0  0  0  0  0
  152.7161  140.1161  158.2242 N   0  0  0  0  0  0  0  0  0  0  0  0
  153.4573  139.9052  159.4150 C   0  0  0  0  0  0  0  0  0  0  0  0
  153.9754  138.8138  159.6569 O   0  0  0  0  0  0  0  0  0  0  0  0
  153.5397  141.0529  160.3154 C   0  0  0  0  0  0  0  0  0  0  0  0
  154.2480  140.8707  161.5391 C   0  0  0  0  0  0  0  0  0  0  0  0
  154.8031  140.7108  162.5420 N   0  0  0  0  0  0  0  0  0  0  0  0
  152.9599  142.2288  159.9981 C   0  0  0  0  0  0  0  0  0  0  0  0
  152.2769  142.4241  158.8176 N   0  0  0  0  0  0  0  0  0  0  0  0
  151.5324  143.6275  158.5745 C   0  0  0  0  0  0  0  0  0  0  0  0
  151.8304  144.8865  159.3653 C   0  0  0  0  0  0  0  0  0  0  0  0
  150.5605  144.1139  159.6271 C   0  0  0  0  0  0  0  0  0  0  0  0
  152.0937  141.3511  157.9185 C   0  0  0  0  0  0  0  0  0  0  0  0
  151.4035  141.4785  156.9036 O   0  0  0  0  0  0  0  0  0  0  0  0
  148.2480  134.0186  157.9262 H   0  0  0  0  0  0  0  0  0  0  0  0
  148.6939  133.4873  156.2171 H   0  0  0  0  0  0  0  0  0  0  0  0
  149.9588  135.4965  155.8588 H   0  0  0  0  0  0  0  0  0  0  0  0
  148.6895  136.9140  158.0579 H   0  0  0  0  0  0  0  0  0  0  0  0
  150.0613  136.0681  158.7332 H   0  0  0  0  0  0  0  0  0  0  0  0
  150.2633  138.1065  156.5823 H   0  0  0  0  0  0  0  0  0  0  0  0
  153.4911  138.6149  156.9113 H   0  0  0  0  0  0  0  0  0  0  0  0
  152.0172  139.3291  156.3848 H   0  0  0  0  0  0  0  0  0  0  0  0
  153.0355  143.0529  160.6930 H   0  0  0  0  0  0  0  0  0  0  0  0
  151.2251  143.7807  157.5414 H   0  0  0  0  0  0  0  0  0  0  0  0
  152.6039  144.8441  160.1299 H   0  0  0  0  0  0  0  0  0  0  0  0
  151.7435  145.8371  158.8435 H   0  0  0  0  0  0  0  0  0  0  0  0
  149.6258  144.5513  159.2822 H   0  0  0  0  0  0  0  0  0  0  0  0
  150.4983  143.5610  160.5625 H   0  0  0  0  0  0  0  0  0  0  0  0
  1  2  2  0  0  0  0
  1 21  1  0  0  0  0
  1 22  1  0  0  0  0
  2  3  1  0  0  0  0
  2 23  1  0  0  0  0
  3  4  1  0  0  0  0
  3 24  1  0  0  0  0
  3 25  1  0  0  0  0
  4  5  1  0  0  0  0
  4 26  1  0  0  0  0
  5  6  2  0  0  0  0
  5  7  1  0  0  0  0
  7  8  1  0  0  0  0
  7 27  1  0  0  0  0
  7 28  1  0  0  0  0
  8 19  1  0  0  0  0
  8  9  1  0  0  0  0
  9 10  2  0  0  0  0
  9 11  1  0  0  0  0
 11 12  1  0  0  0  0
 11 14  2  0  0  0  0
 12 13  3  0  0  0  0
 14 15  1  0  0  0  0
 14 29  1  0  0  0  0
 15 16  1  0  0  0  0
 15 19  1  0  0  0  0
 16 18  1  0  0  0  0
 16 17  1  0  0  0  0
 16 30  1  0  0  0  0
 17 18  1  0  0  0  0
 17 31  1  0  0  0  0
 17 32  1  0  0  0  0
 18 33  1  0  0  0  0
 18 34  1  0  0  0  0
 19 20  2  0  0  0  0
M  END
> <s_m_source_file>
AV-unprocessed.smi

> <i_m_source_file_index>
395

> <i_lp_mmshare_version>
43012

> <i_f3d_flags>
0

> <s_epik_input>
W0NIMl09W0NIXVtDSDJdW05IXUMoPU8pW0NIMl1uMWMoPU8pYyhDI04pW2NIXW4oYzE9TylbQ0hdMltDSDJdW0NIMl0y

> <s_epik_cmdline>
J2VwaWtfcHl0aG9uJywgJy1waCcsICc3LjAnLCAnLXRuJywgJzgnLCAnLW1hJywgJzIwMCcsICctbWV0YWxfYmluZGluZycsICctaW1hZScsICc8aW5maWxlLm1hZT4nLCAnLW9tYWUnLCAnPG91dGZpbGUubWFlPic=

> <r_lp_tautomer_probability>
1

> <r_epik_Ionization_Penalty>
1.93471e-08

> <r_epik_Ionization_Penalty_Charging>
8.01404e-11

> <r_epik_Ionization_Penalty_Neutral>
1.9267e-08

> <r_epik_State_Penalty>
-0

> <r_epik_Charging_Adjusted_Penalty>
8.01404e-11

> <i_epik_Tot_Q>
0

> <i_epik_Tot_abs_Q>
0

> <r_epik_Metal_State_Penalty>
-0

> <b_epik_Metal_Only>
0

> <s_lp_Force_Field>
OPLS_2005

> <r_lp_Energy>
28.6083

> <b_lp_Chiralities_Consistent>
1

> <s_lp_Variant>
AV-unprocessed.smi:395-1

> <Gold.Version>
5.8.1

> <Gold.Id.Protein>
6NUR|6NUR_protein|mol2

> <Gold.PLP.Fitness>
41.6999

> <Gold.PLP.PLP>
-39.1127

> <Gold.PLP.part.hbond>
-1.9654

> <Gold.PLP.part.metal>
0.0000

> <Gold.PLP.part.buried>
-5.7396

> <Gold.PLP.part.nonpolar>
-31.9589

> <Gold.PLP.part.repulsive>
0.1870

> <Gold.PLP.ligand.clash>
0.0000

> <Gold.PLP.ligand.torsion>
0.3006

> <Gold.PLP.Chemscore.Hbond>
0.9913

> <Gold.PLP.Chemscore.CHOScore>
0.0000

> <Gold.PLP.Chemscore.Metal>
0.0000

> <Gold.Chemscore.Hbonds>
donor molecule, donor type, donor heavy atom, donor atom, acceptor molecule, acceptor atom, score
      P1  H  6896  6909       L1     6  0.07

> <Gold.PLP.Chemscore.Internal.Correction>
0.2146

> <Gold.Rescore>
     Score         DG    S(hbond)    S(metal)    S(lipo)     H(rot)  DE(clash)    DE(int)     intcor
      9.84     -11.65       1.00        0.00      69.96       2.09       0.04       1.77       ----

> <Gold.Chemscore.Fitness>
9.8426

> <Gold.Chemscore.DG>
-11.6505

> <Gold.Chemscore.ZeroCoef>
-5.4800

> <Gold.Chemscore.Hbond>
0.9975

> <Gold.Chemscore.Metal>
0.0000

> <Gold.Chemscore.Lipo>
69.9628

> <Gold.Chemscore.Internal_Hbond>
0.0000

> <Gold.Chemscore.DEClash>
0.0402

> <Gold.Chemscore.DEInternal>
1.7677

> <Gold.Chemscore.Rot>
2.0886

> <Gold.Chemscore.Internal.Correction>
   9.000000E+99

> <Gold.Chemscore.Hbonds>
donor molecule, donor type, donor heavy atom, donor atom, acceptor molecule, acceptor atom, score
      P1  H  6896  6909       L1     6  0.10

> <Gold.Chemscore.Hbond.Weighted>
-3.3318

> <Gold.Chemscore.Metal.Weighted>
-0.0000

> <Gold.Chemscore.Lipo.Weighted>
-8.1856

> <Gold.Chemscore.Internal_Hbond.Weighted>
0.0000

> <Gold.Chemscore.DEClash.Weighted>
0.0402

> <Gold.Chemscore.DEInternal.Weighted>
1.7677

> <Gold.Chemscore.Rot.Weighted>
5.3469

> <Gold.Chemscore.Internal.Correction.Weighted>
   9.000000E+99

> <Gold.Protein.RotatedTorsions>
[ 6907 6896 6895 6894 ] final  118.22 input  -60.11 | X-H torsion
[ 7974 7965 7964 7962 ] final  -26.28 input  175.53 | X-H torsion
[ 8008 7997 7996 7995 ] final   57.72 input   59.86 | X-H torsion
[ 10167 10162 10161 10158 ] final   68.88 input  -65.29 | X-H torsion
[ 10718 10713 10712 10709 ] final  -92.70 input   66.30 | X-H torsion
[ 10763 10752 10751 10750 ] final   89.48 input  -60.55 | X-H torsion
[ 11005 11000 10999 10996 ] final  -28.69 input  -57.11 | X-H torsion

> <Gold.Protein.ActiveResidues>
 VAL166  LYS551  ARG553  GLY616  TRP617  ASP618  TYR619  PRO620  LYS621  CYS622 
 ASP623  PHE694  ASN695  SER759  ASP760  ASP761  ALA762  ILE779  LEU786  VAL792 
 PHE793  MET794  SER795  GLU796  ALA797  LYS798  CYS799  TRP800  GLU811  SER814 

> <Gold.Protein.RotatedAtoms>
  152.4558  133.7720  159.6803 H   0  0  0  0  0  0  0  0  0  0  0  0  # atno 6907 bound_to 6896
  150.8484  133.7816  159.3041 H   0  0  0  0  0  0  0  0  0  0  0  0  # atno 6908 bound_to 6896
  151.5419  135.1071  159.9980 H   0  0  0  0  0  0  0  0  0  0  0  0  # atno 6909 bound_to 6896
  146.1435  140.4999  142.8641 H   0  0  0  0  0  0  0  0  0  0  0  0  # atno 7974 bound_to 7965
  155.5384  140.3484  155.4441 H   0  0  0  0  0  0  0  0  0  0  0  0  # atno 8008 bound_to 7997
  156.0669  140.1353  156.9902 H   0  0  0  0  0  0  0  0  0  0  0  0  # atno 8009 bound_to 7997
  154.4508  140.0974  156.6585 H   0  0  0  0  0  0  0  0  0  0  0  0  # atno 8010 bound_to 7997
  140.0738  144.5129  150.7208 H   0  0  0  0  0  0  0  0  0  0  0  0  # atno 10167 bound_to 10162
  156.0005  130.4998  150.5666 H   0  0  0  0  0  0  0  0  0  0  0  0  # atno 10718 bound_to 10713
  153.1875  135.4469  155.0107 H   0  0  0  0  0  0  0  0  0  0  0  0  # atno 10763 bound_to 10752
  154.8069  135.3278  154.7409 H   0  0  0  0  0  0  0  0  0  0  0  0  # atno 10764 bound_to 10752
  153.7866  135.6973  153.4934 H   0  0  0  0  0  0  0  0  0  0  0  0  # atno 10765 bound_to 10752
  140.9230  133.7386  156.0828 H   0  0  0  0  0  0  0  0  0  0  0  0  # atno 11005 bound_to 11000
  144.7820  140.5859  143.6599 LP  0  0  0  0  0  0  0  0  0  0  0  0  # atno 17320 bound_to 7965
  145.4991  139.1484  143.3667 LP  0  0  0  0  0  0  0  0  0  0  0  0  # atno 17321 bound_to 7965
  140.7112  143.2506  151.4575 LP  0  0  0  0  0  0  0  0  0  0  0  0  # atno 17342 bound_to 10162
  139.5820  144.1689  152.1980 LP  0  0  0  0  0  0  0  0  0  0  0  0  # atno 17343 bound_to 10162
  157.3567  131.0743  151.1670 LP  0  0  0  0  0  0  0  0  0  0  0  0  # atno 17370 bound_to 10713
  157.2468  130.6595  149.5914 LP  0  0  0  0  0  0  0  0  0  0  0  0  # atno 17371 bound_to 10713
  140.7963  134.3560  157.5451 LP  0  0  0  0  0  0  0  0  0  0  0  0  # atno 17394 bound_to 11000
  139.8779  134.9170  156.3169 LP  0  0  0  0  0  0  0  0  0  0  0  0  # atno 17395 bound_to 11000

$$$$
