AV-unprocessed.smi:3274|AV-procd|sdf|12524|dock4
  -GOLD-   2272018433D 1   1.00000     0.00000
 Structure written by MMmdl.
 43 44  0  0  0  0  0  0  0  0  2 V2000
  153.4686  141.7006  161.6504 C   0  0  0  0  0  0  0  0  0  0  0  0
  152.7851  142.8825  160.9825 C   0  0  0  0  0  0  0  0  0  0  0  0
  152.4830  143.9762  161.7080 C   0  0  0  0  0  0  0  0  0  0  0  0
  151.8730  145.2362  161.1382 C   0  0  0  0  0  0  0  0  0  0  0  0
  152.0915  145.3183  159.6257 C   0  0  0  0  0  0  0  0  0  0  0  0
  151.6881  144.0086  158.9296 C   0  0  1  0  0  0  0  0  0  0  0  0
  151.8226  144.1764  157.4031 C   0  0  0  0  0  0  0  0  0  0  0  0
  152.4861  142.7826  159.4725 C   0  0  2  0  0  0  0  0  0  0  0  0
  151.7672  141.4639  159.0850 C   0  0  0  0  0  0  0  0  0  0  0  0
  151.8338  141.1763  157.6354 N   0  3  0  0  0  0  0  0  0  0  0  0
  150.5237  141.1093  156.9494 C   0  0  2  0  0  0  0  0  0  0  0  0
  149.6381  140.0677  157.6459 C   0  0  0  0  0  0  0  0  0  0  0  0
  150.6970  140.7704  155.4540 C   0  0  0  0  0  0  0  0  0  0  0  0
  149.4528  140.8477  154.7100 N   0  0  0  0  0  0  0  0  0  0  0  0
  148.6869  141.8957  154.4030 C   0  0  0  0  0  0  0  0  0  0  0  0
  147.6164  141.5828  153.6866 N   0  0  0  0  0  0  0  0  0  0  0  0
  147.7910  140.2312  153.5899 C   0  0  0  0  0  0  0  0  0  0  0  0
  148.8809  139.7406  154.1804 N   0  0  0  0  0  0  0  0  0  0  0  0
  154.3576  141.4074  161.0915 H   0  0  0  0  0  0  0  0  0  0  0  0
  152.7937  140.8476  161.7197 H   0  0  0  0  0  0  0  0  0  0  0  0
  153.7842  141.9470  162.6647 H   0  0  0  0  0  0  0  0  0  0  0  0
  152.6903  143.9945  162.7684 H   0  0  0  0  0  0  0  0  0  0  0  0
  150.8094  145.2496  161.3784 H   0  0  0  0  0  0  0  0  0  0  0  0
  152.3226  146.1030  161.6232 H   0  0  0  0  0  0  0  0  0  0  0  0
  151.5211  146.1570  159.2247 H   0  0  0  0  0  0  0  0  0  0  0  0
  153.1413  145.5326  159.4195 H   0  0  0  0  0  0  0  0  0  0  0  0
  150.6314  143.8486  159.1505 H   0  0  0  0  0  0  0  0  0  0  0  0
  152.8659  144.2885  157.1063 H   0  0  0  0  0  0  0  0  0  0  0  0
  151.2874  145.0621  157.0597 H   0  0  0  0  0  0  0  0  0  0  0  0
  151.4099  143.3321  156.8543 H   0  0  0  0  0  0  0  0  0  0  0  0
  153.4615  142.7931  158.9831 H   0  0  0  0  0  0  0  0  0  0  0  0
  152.1939  140.6288  159.6421 H   0  0  0  0  0  0  0  0  0  0  0  0
  150.7156  141.5036  159.3601 H   0  0  0  0  0  0  0  0  0  0  0  0
  152.3923  141.8880  157.1857 H   0  0  0  0  0  0  0  0  0  0  0  0
  150.0200  142.0735  157.0374 H   0  0  0  0  0  0  0  0  0  0  0  0
  148.6517  140.0190  157.1835 H   0  0  0  0  0  0  0  0  0  0  0  0
  149.4950  140.3144  158.6985 H   0  0  0  0  0  0  0  0  0  0  0  0
  150.0788  139.0714  157.5942 H   0  0  0  0  0  0  0  0  0  0  0  0
  151.4270  141.4364  154.9909 H   0  0  0  0  0  0  0  0  0  0  0  0
  151.0881  139.7581  155.3440 H   0  0  0  0  0  0  0  0  0  0  0  0
  148.9195  142.9073  154.7028 H   0  0  0  0  0  0  0  0  0  0  0  0
  147.1000  139.5917  153.0608 H   0  0  0  0  0  0  0  0  0  0  0  0
  152.2980  140.2866  157.5217 H   0  0  0  0  0  0  0  0  0  0  0  0
  1  2  1  0  0  0  0
  1 19  1  0  0  0  0
  1 20  1  0  0  0  0
  1 21  1  0  0  0  0
  2  8  1  0  0  0  0
  2  3  2  0  0  0  0
  3  4  1  0  0  0  0
  3 22  1  0  0  0  0
  4  5  1  0  0  0  0
  4 23  1  0  0  0  0
  4 24  1  0  0  0  0
  5  6  1  0  0  0  0
  5 25  1  0  0  0  0
  5 26  1  0  0  0  0
  6  7  1  0  0  0  0
  6  8  1  0  0  0  0
  6 27  1  0  0  0  0
  7 28  1  0  0  0  0
  7 29  1  0  0  0  0
  7 30  1  0  0  0  0
  8  9  1  0  0  0  0
  8 31  1  0  0  0  0
  9 10  1  0  0  0  0
  9 32  1  0  0  0  0
  9 33  1  0  0  0  0
 10 11  1  0  0  0  0
 10 34  1  0  0  0  0
 10 43  1  0  0  0  0
 11 12  1  0  0  0  0
 11 13  1  0  0  0  0
 11 35  1  0  0  0  0
 12 36  1  0  0  0  0
 12 37  1  0  0  0  0
 12 38  1  0  0  0  0
 13 14  1  0  0  0  0
 13 39  1  0  0  0  0
 13 40  1  0  0  0  0
 14 18  1  0  0  0  0
 14 15  1  0  0  0  0
 15 16  2  0  0  0  0
 15 41  1  0  0  0  0
 16 17  1  0  0  0  0
 17 18  2  0  0  0  0
 17 42  1  0  0  0  0
M  CHG  1  10   1
M  END
> <s_m_source_file>
AV-unprocessed.smi

> <i_m_source_file_index>
3274

> <i_lp_mmshare_version>
43012

> <i_f3d_flags>
0

> <s_epik_input>
W0NIM11DMT1bQ0hdW0NIMl1bQ0gyXVtDQEBIXShbQ0gzXSlbQ0BIXTFbQ0gyXVtOSF1bQ0BIXShbQ0gzXSlbQ0gyXW4yW2NIXW5bY0hdbjI=

> <s_epik_cmdline>
J2VwaWtfcHl0aG9uJywgJy1waCcsICc3LjAnLCAnLXRuJywgJzgnLCAnLW1hJywgJzIwMCcsICctbWV0YWxfYmluZGluZycsICctaW1hZScsICc8aW5maWxlLm1hZT4nLCAnLW9tYWUnLCAnPG91dGZpbGUubWFlPic=

> <r_lp_tautomer_probability>
1

> <r_epik_Ionization_Penalty>
0.0017527

> <r_epik_Ionization_Penalty_Charging>
0.00175191

> <r_epik_Ionization_Penalty_Neutral>
7.94565e-07

> <r_epik_State_Penalty>
0.00118605

> <r_epik_Charging_Adjusted_Penalty>
0.00293796

> <i_epik_Tot_Q>
1

> <i_epik_Tot_abs_Q>
1

> <r_epik_Metal_State_Penalty>
-0

> <b_epik_Metal_Only>
0

> <s_lp_Force_Field>
OPLS_2005

> <r_lp_Energy>
18.1094

> <b_lp_Chiralities_Consistent>
1

> <s_lp_Variant>
AV-unprocessed.smi:3274-3

> <Gold.Version>
5.8.1

> <Gold.Id.Protein>
6NUR|6NUR_protein|mol2

> <Gold.PLP.Fitness>
45.3073

> <Gold.PLP.PLP>
-43.2848

> <Gold.PLP.part.hbond>
0.0000

> <Gold.PLP.part.metal>
0.0000

> <Gold.PLP.part.buried>
-0.9725

> <Gold.PLP.part.nonpolar>
-41.9121

> <Gold.PLP.part.repulsive>
0.3850

> <Gold.PLP.ligand.clash>
0.0000

> <Gold.PLP.ligand.torsion>
0.5400

> <Gold.PLP.Chemscore.Hbond>
0.0000

> <Gold.PLP.Chemscore.CHOScore>
1.0000

> <Gold.PLP.Chemscore.Metal>
0.0000

> <Gold.Chemscore.Hbonds>
donor molecule, donor type, donor heavy atom, donor atom, acceptor molecule, acceptor atom, score
      L1  C    15    41       P1  8028  1.00

> <Gold.PLP.Chemscore.Internal.Correction>
0.1026

> <Gold.Rescore>
     Score         DG    S(hbond)    S(metal)    S(lipo)     H(rot)  DE(clash)    DE(int)     intcor
     11.39     -13.49       0.00        0.00     120.11       2.36       0.46       1.63       ----

> <Gold.Chemscore.Fitness>
11.3919

> <Gold.Chemscore.DG>
-13.4871

> <Gold.Chemscore.ZeroCoef>
-5.4800

> <Gold.Chemscore.Hbond>
0.0000

> <Gold.Chemscore.Metal>
0.0000

> <Gold.Chemscore.Lipo>
120.1070

> <Gold.Chemscore.Internal_Hbond>
0.0000

> <Gold.Chemscore.DEClash>
0.4605

> <Gold.Chemscore.DEInternal>
1.6347

> <Gold.Chemscore.Rot>
2.3615

> <Gold.Chemscore.Internal.Correction>
   9.000000E+99

> <Gold.Chemscore.Hbond.Weighted>
-0.0000

> <Gold.Chemscore.Metal.Weighted>
-0.0000

> <Gold.Chemscore.Lipo.Weighted>
-14.0525

> <Gold.Chemscore.Internal_Hbond.Weighted>
0.0000

> <Gold.Chemscore.DEClash.Weighted>
0.4605

> <Gold.Chemscore.DEInternal.Weighted>
1.6347

> <Gold.Chemscore.Rot.Weighted>
6.0454

> <Gold.Chemscore.Internal.Correction.Weighted>
   9.000000E+99

> <Gold.Protein.RotatedTorsions>
[ 6907 6896 6895 6894 ] final  117.06 input  -60.11 | X-H torsion
[ 7974 7965 7964 7962 ] final -112.81 input  175.53 | X-H torsion
[ 8008 7997 7996 7995 ] final  154.00 input   59.86 | X-H torsion
[ 10167 10162 10161 10158 ] final  -10.66 input  -65.29 | X-H torsion
[ 10718 10713 10712 10709 ] final  -65.63 input   66.30 | X-H torsion
[ 10763 10752 10751 10750 ] final  -55.67 input  -60.55 | X-H torsion
[ 11005 11000 10999 10996 ] final    4.89 input  -57.11 | X-H torsion

> <Gold.Protein.ActiveResidues>
 VAL166  LYS551  ARG553  GLY616  TRP617  ASP618  TYR619  PRO620  LYS621  CYS622 
 ASP623  PHE694  ASN695  SER759  ASP760  ASP761  ALA762  ILE779  LEU786  VAL792 
 PHE793  MET794  SER795  GLU796  ALA797  LYS798  CYS799  TRP800  GLU811  SER814 

> <Gold.Protein.RotatedAtoms>
  152.4637  133.7876  159.6884 H   0  0  0  0  0  0  0  0  0  0  0  0  # atno 6907 bound_to 6896
  150.8592  133.7660  159.3004 H   0  0  0  0  0  0  0  0  0  0  0  0  # atno 6908 bound_to 6896
  151.5231  135.1070  159.9935 H   0  0  0  0  0  0  0  0  0  0  0  0  # atno 6909 bound_to 6896
  145.1395  140.8770  143.3710 H   0  0  0  0  0  0  0  0  0  0  0  0  # atno 7974 bound_to 7965
  156.2553  140.1978  156.6578 H   0  0  0  0  0  0  0  0  0  0  0  0  # atno 8008 bound_to 7997
  154.6487  140.0574  156.9956 H   0  0  0  0  0  0  0  0  0  0  0  0  # atno 8009 bound_to 7997
  155.1451  140.3246  155.4446 H   0  0  0  0  0  0  0  0  0  0  0  0  # atno 8010 bound_to 7997
  140.7119  143.5724  150.9079 H   0  0  0  0  0  0  0  0  0  0  0  0  # atno 10167 bound_to 10162
  156.0658  130.4250  150.1591 H   0  0  0  0  0  0  0  0  0  0  0  0  # atno 10718 bound_to 10713
  154.1945  135.6421  153.5069 H   0  0  0  0  0  0  0  0  0  0  0  0  # atno 10763 bound_to 10752
  153.0027  135.5436  154.6380 H   0  0  0  0  0  0  0  0  0  0  0  0  # atno 10764 bound_to 10752
  154.5777  135.2922  155.0737 H   0  0  0  0  0  0  0  0  0  0  0  0  # atno 10765 bound_to 10752
  140.5769  134.0050  155.8031 H   0  0  0  0  0  0  0  0  0  0  0  0  # atno 11005 bound_to 11000
  145.0548  139.3153  143.5910 LP  0  0  0  0  0  0  0  0  0  0  0  0  # atno 17320 bound_to 7965
  146.3506  139.9969  142.8680 LP  0  0  0  0  0  0  0  0  0  0  0  0  # atno 17321 bound_to 7965
  139.9450  143.6338  152.3044 LP  0  0  0  0  0  0  0  0  0  0  0  0  # atno 17342 bound_to 10162
  139.6836  144.7653  151.1563 LP  0  0  0  0  0  0  0  0  0  0  0  0  # atno 17343 bound_to 10162
  156.9652  130.9817  151.3471 LP  0  0  0  0  0  0  0  0  0  0  0  0  # atno 17370 bound_to 10713
  157.5699  130.8303  149.8378 LP  0  0  0  0  0  0  0  0  0  0  0  0  # atno 17371 bound_to 10713
  141.1021  133.9752  157.3061 LP  0  0  0  0  0  0  0  0  0  0  0  0  # atno 17394 bound_to 11000
  139.9335  135.0198  156.8480 LP  0  0  0  0  0  0  0  0  0  0  0  0  # atno 17395 bound_to 11000

$$$$
