AV-unprocessed.smi:2324|AV-procd|sdf|9292|dock4
  -GOLD-   2272012513D 1   1.00000     0.00000
 Structure written by MMmdl.
 37 39  0  0  0  0  0  0  0  0  1 V2000
  149.7319  138.1282  159.4103 O   0  0  0  0  0  0  0  0  0  0  0  0
  149.4058  137.1367  158.7595 C   0  0  0  0  0  0  0  0  0  0  0  0
  148.6078  136.1876  159.2940 N   0  0  0  0  0  0  0  0  0  0  0  0
  147.9965  136.0785  160.5771 C   0  0  0  0  0  0  0  0  0  0  0  0
  147.7100  134.7574  160.9833 C   0  0  0  0  0  0  0  0  0  0  0  0
  147.1071  134.5573  162.2369 C   0  0  0  0  0  0  0  0  0  0  0  0
  146.8308  135.6993  163.0074 C   0  0  0  0  0  0  0  0  0  0  0  0
  147.1230  136.9473  162.5821 N   0  0  0  0  0  0  0  0  0  0  0  0
  147.6958  137.1283  161.3874 N   0  0  0  0  0  0  0  0  0  0  0  0
  149.8180  136.9297  157.4978 N   0  0  0  0  0  0  0  0  0  0  0  0
  150.6895  137.8151  156.7323 C   0  0  1  0  0  0  0  0  0  0  0  0
  150.6415  137.4700  155.2343 C   0  0  0  0  0  0  0  0  0  0  0  0
  151.4252  138.5062  154.4140 C   0  0  0  0  0  0  0  0  0  0  0  0
  150.9190  139.8125  154.6678 O   0  0  0  0  0  0  0  0  0  0  0  0
  151.0664  140.2166  156.0257 C   0  0  1  0  0  0  0  0  0  0  0  0
  150.6003  141.6543  156.1412 C   0  0  0  0  0  0  0  0  0  0  0  0
  150.9812  142.4964  157.3364 C   0  0  0  0  0  0  0  0  0  0  0  0
  149.5512  142.0474  157.1551 C   0  0  0  0  0  0  0  0  0  0  0  0
  150.2530  139.2739  156.9321 C   0  0  0  0  0  0  0  0  0  0  0  0
  148.4065  135.4180  158.6724 H   0  0  0  0  0  0  0  0  0  0  0  0
  147.9443  133.9137  160.3503 H   0  0  0  0  0  0  0  0  0  0  0  0
  146.8665  133.5671  162.5942 H   0  0  0  0  0  0  0  0  0  0  0  0
  146.3697  135.6122  163.9799 H   0  0  0  0  0  0  0  0  0  0  0  0
  149.5035  136.0891  157.0335 H   0  0  0  0  0  0  0  0  0  0  0  0
  151.7155  137.7118  157.0910 H   0  0  0  0  0  0  0  0  0  0  0  0
  151.0473  136.4732  155.0582 H   0  0  0  0  0  0  0  0  0  0  0  0
  149.6061  137.4512  154.8910 H   0  0  0  0  0  0  0  0  0  0  0  0
  152.4896  138.4644  154.6498 H   0  0  0  0  0  0  0  0  0  0  0  0
  151.3273  138.2924  153.3497 H   0  0  0  0  0  0  0  0  0  0  0  0
  152.1220  140.1713  156.3002 H   0  0  0  0  0  0  0  0  0  0  0  0
  150.5566  142.1780  155.1879 H   0  0  0  0  0  0  0  0  0  0  0  0
  151.5599  142.0228  158.1269 H   0  0  0  0  0  0  0  0  0  0  0  0
  151.2059  143.5463  157.1595 H   0  0  0  0  0  0  0  0  0  0  0  0
  148.8215  142.7974  156.8566 H   0  0  0  0  0  0  0  0  0  0  0  0
  149.1789  141.2753  157.8256 H   0  0  0  0  0  0  0  0  0  0  0  0
  149.1910  139.3765  156.7024 H   0  0  0  0  0  0  0  0  0  0  0  0
  150.3747  139.5614  157.9772 H   0  0  0  0  0  0  0  0  0  0  0  0
  1  2  2  0  0  0  0
  2  3  1  0  0  0  0
  2 10  1  0  0  0  0
  3  4  1  0  0  0  0
  3 20  1  0  0  0  0
  4  9  1  0  0  0  0
  4  5  2  0  0  0  0
  5  6  1  0  0  0  0
  5 21  1  0  0  0  0
  6  7  2  0  0  0  0
  6 22  1  0  0  0  0
  7  8  1  0  0  0  0
  7 23  1  0  0  0  0
  8  9  2  0  0  0  0
 10 11  1  0  0  0  0
 10 24  1  0  0  0  0
 11 19  1  0  0  0  0
 11 12  1  0  0  0  0
 11 25  1  0  0  0  0
 12 13  1  0  0  0  0
 12 26  1  0  0  0  0
 12 27  1  0  0  0  0
 13 14  1  0  0  0  0
 13 28  1  0  0  0  0
 13 29  1  0  0  0  0
 14 15  1  0  0  0  0
 15 16  1  0  0  0  0
 15 19  1  0  0  0  0
 15 30  1  0  0  0  0
 16 18  1  0  0  0  0
 16 17  1  0  0  0  0
 16 31  1  0  0  0  0
 17 18  1  0  0  0  0
 17 32  1  0  0  0  0
 17 33  1  0  0  0  0
 18 34  1  0  0  0  0
 18 35  1  0  0  0  0
 19 36  1  0  0  0  0
 19 37  1  0  0  0  0
M  END
> <s_m_source_file>
AV-unprocessed.smi

> <i_m_source_file_index>
2324

> <i_lp_mmshare_version>
43012

> <i_f3d_flags>
0

> <s_epik_input>
bjFuW2NIXVtjSF1bY0hdYzFbTkhdQyg9TylbTkhdW0NAQEhdMltDSDJdW0NIMl1PW0NASF0oW0NIMl0yKVtDSF0zW0NIMl1bQ0gyXTM=

> <s_epik_cmdline>
J2VwaWtfcHl0aG9uJywgJy1waCcsICc3LjAnLCAnLXRuJywgJzgnLCAnLW1hJywgJzIwMCcsICctbWV0YWxfYmluZGluZycsICctaW1hZScsICc8aW5maWxlLm1hZT4nLCAnLW9tYWUnLCAnPG91dGZpbGUubWFlPic=

> <r_lp_tautomer_probability>
1

> <r_epik_Ionization_Penalty>
0.00521499

> <r_epik_Ionization_Penalty_Charging>
0

> <r_epik_Ionization_Penalty_Neutral>
0.00521499

> <r_epik_State_Penalty>
-0

> <r_epik_Charging_Adjusted_Penalty>
0

> <i_epik_Tot_Q>
0

> <i_epik_Tot_abs_Q>
0

> <r_epik_Metal_State_Penalty>
-0

> <b_epik_Metal_Only>
0

> <s_lp_Force_Field>
OPLS_2005

> <r_lp_Energy>
26.0147

> <b_lp_Chiralities_Consistent>
1

> <s_lp_Variant>
AV-unprocessed.smi:2324-2

> <Gold.Version>
5.8.1

> <Gold.Id.Protein>
6NUR|6NUR_protein|mol2

> <Gold.PLP.Fitness>
39.8964

> <Gold.PLP.PLP>
-33.4139

> <Gold.PLP.part.hbond>
-4.6146

> <Gold.PLP.part.metal>
0.0000

> <Gold.PLP.part.buried>
-5.2395

> <Gold.PLP.part.nonpolar>
-24.4867

> <Gold.PLP.part.repulsive>
0.2807

> <Gold.PLP.ligand.clash>
0.0000

> <Gold.PLP.ligand.torsion>
1.2113

> <Gold.PLP.Chemscore.Hbond>
2.6113

> <Gold.PLP.Chemscore.CHOScore>
0.0000

> <Gold.PLP.Chemscore.Metal>
0.0000

> <Gold.Chemscore.Hbonds>
donor molecule, donor type, donor heavy atom, donor atom, acceptor molecule, acceptor atom, score
      P1  H  6931  6943       L1     9  0.90
      P1  H  6934  6947       L1     9  0.82
      P1  H  7989  7998       L1    14  1.00

> <Gold.PLP.Chemscore.Internal.Correction>
1.0712

> <Gold.Rescore>
     Score         DG    S(hbond)    S(metal)    S(lipo)     H(rot)  DE(clash)    DE(int)     intcor
     13.91     -17.07       1.95        0.00      70.55       1.25       0.07       3.09       ----

> <Gold.Chemscore.Fitness>
13.9100

> <Gold.Chemscore.DG>
-17.0688

> <Gold.Chemscore.ZeroCoef>
-5.4800

> <Gold.Chemscore.Hbond>
1.9546

> <Gold.Chemscore.Metal>
0.0000

> <Gold.Chemscore.Lipo>
70.5482

> <Gold.Chemscore.Internal_Hbond>
0.0000

> <Gold.Chemscore.DEClash>
0.0669

> <Gold.Chemscore.DEInternal>
3.0919

> <Gold.Chemscore.Rot>
1.2476

> <Gold.Chemscore.Internal.Correction>
   9.000000E+99

> <Gold.Chemscore.Hbonds>
donor molecule, donor type, donor heavy atom, donor atom, acceptor molecule, acceptor atom, score
      P1  H  6931  6943       L1     9  0.17
      P1  H  6934  6947       L1     9  0.31
      P1  H  7989  7998       L1    14  0.56

> <Gold.Chemscore.Hbond.Weighted>
-6.5284

> <Gold.Chemscore.Metal.Weighted>
-0.0000

> <Gold.Chemscore.Lipo.Weighted>
-8.2541

> <Gold.Chemscore.Internal_Hbond.Weighted>
0.0000

> <Gold.Chemscore.DEClash.Weighted>
0.0669

> <Gold.Chemscore.DEInternal.Weighted>
3.0919

> <Gold.Chemscore.Rot.Weighted>
3.1938

> <Gold.Chemscore.Internal.Correction.Weighted>
   9.000000E+99

> <Gold.Protein.RotatedTorsions>
[ 6907 6896 6895 6894 ] final  -86.33 input  -60.11 | X-H torsion
[ 7974 7965 7964 7962 ] final  115.32 input  175.53 | X-H torsion
[ 8008 7997 7996 7995 ] final  -20.08 input   59.86 | X-H torsion
[ 10167 10162 10161 10158 ] final  -58.66 input  -65.29 | X-H torsion
[ 10718 10713 10712 10709 ] final  135.26 input   66.30 | X-H torsion
[ 10763 10752 10751 10750 ] final  176.75 input  -60.55 | X-H torsion
[ 11005 11000 10999 10996 ] final  117.81 input  -57.11 | X-H torsion

> <Gold.Protein.ActiveResidues>
 VAL166  LYS551  ARG553  GLY616  TRP617  ASP618  TYR619  PRO620  LYS621  CYS622 
 ASP623  PHE694  ASN695  SER759  ASP760  ASP761  ALA762  ILE779  LEU786  VAL792 
 PHE793  MET794  SER795  GLU796  ALA797  LYS798  CYS799  TRP800  GLU811  SER814 

> <Gold.Protein.RotatedAtoms>
  150.6867  134.3068  159.4729 H   0  0  0  0  0  0  0  0  0  0  0  0  # atno 6907 bound_to 6896
  152.0958  134.9373  160.0580 H   0  0  0  0  0  0  0  0  0  0  0  0  # atno 6908 bound_to 6896
  152.0672  133.4055  159.4480 H   0  0  0  0  0  0  0  0  0  0  0  0  # atno 6909 bound_to 6896
  145.1935  139.2988  143.4356 H   0  0  0  0  0  0  0  0  0  0  0  0  # atno 7974 bound_to 7965
  154.4793  140.2071  155.9801 H   0  0  0  0  0  0  0  0  0  0  0  0  # atno 8008 bound_to 7997
  156.1140  140.3224  155.8083 H   0  0  0  0  0  0  0  0  0  0  0  0  # atno 8009 bound_to 7997
  155.4585  140.0522  157.2984 H   0  0  0  0  0  0  0  0  0  0  0  0  # atno 8010 bound_to 7997
  140.6184  143.2410  151.5541 H   0  0  0  0  0  0  0  0  0  0  0  0  # atno 10167 bound_to 10162
  157.4589  131.1072  150.9944 H   0  0  0  0  0  0  0  0  0  0  0  0  # atno 10718 bound_to 10713
  154.4853  135.2776  155.1539 H   0  0  0  0  0  0  0  0  0  0  0  0  # atno 10763 bound_to 10752
  154.3232  135.6205  153.5521 H   0  0  0  0  0  0  0  0  0  0  0  0  # atno 10764 bound_to 10752
  152.9880  135.5747  154.5263 H   0  0  0  0  0  0  0  0  0  0  0  0  # atno 10765 bound_to 10752
  139.9087  134.9614  156.7408 H   0  0  0  0  0  0  0  0  0  0  0  0  # atno 11005 bound_to 11000
  146.3432  140.2155  142.8590 LP  0  0  0  0  0  0  0  0  0  0  0  0  # atno 17320 bound_to 7965
  145.0018  140.8638  143.5277 LP  0  0  0  0  0  0  0  0  0  0  0  0  # atno 17321 bound_to 7965
  139.5417  144.2628  152.1364 LP  0  0  0  0  0  0  0  0  0  0  0  0  # atno 17342 bound_to 10162
  140.1843  144.4814  150.6512 LP  0  0  0  0  0  0  0  0  0  0  0  0  # atno 17343 bound_to 10162
  157.0748  130.5879  149.5409 LP  0  0  0  0  0  0  0  0  0  0  0  0  # atno 17370 bound_to 10713
  156.0019  130.5100  150.7695 LP  0  0  0  0  0  0  0  0  0  0  0  0  # atno 17371 bound_to 10713
  140.6851  133.9440  155.7933 LP  0  0  0  0  0  0  0  0  0  0  0  0  # atno 17394 bound_to 11000
  141.0482  134.0523  157.3817 LP  0  0  0  0  0  0  0  0  0  0  0  0  # atno 17395 bound_to 11000

$$$$
