AV-unprocessed.smi:1008|AV-procd|sdf|4410|dock3
  -GOLD-   22720 2353D 1   1.00000     0.00000
 Structure written by MMmdl.
 23 23  0  0  0  0  0  0  0  0  1 V2000
  146.8935  142.5089  154.3089 C   0  0  0  0  0  0  0  0  0  0  0  0
  147.6195  141.2218  153.9588 C   0  0  0  0  0  0  0  0  0  0  0  0
  146.9070  140.3235  153.1529 N   0  0  0  0  0  0  0  0  0  0  0  0
  147.4509  139.2017  152.8089 C   0  0  0  0  0  0  0  0  0  0  0  0
  146.8673  138.2286  152.0241 N   0  0  0  0  0  0  0  0  0  0  0  0
  148.7397  138.8673  153.2248 N   0  0  0  0  0  0  0  0  0  0  0  0
  149.5077  139.6681  153.9976 C   0  0  0  0  0  0  0  0  0  0  0  0
  150.6409  139.3185  154.3245 O   0  0  0  0  0  0  0  0  0  0  0  0
  148.8836  140.9443  154.3877 C   0  0  0  0  0  0  0  0  0  0  0  0
  149.6891  141.8857  155.2788 C   0  0  0  0  0  0  0  0  0  0  0  0
  149.3339  141.7225  156.7636 C   0  0  0  0  0  0  0  0  0  0  0  0
  149.9028  142.7763  157.5095 O   0  0  0  0  0  0  0  0  0  0  0  0
  149.1295  137.9823  152.9355 H   0  0  0  0  0  0  0  0  0  0  0  0
  147.5059  143.3767  154.0630 H   0  0  0  0  0  0  0  0  0  0  0  0
  146.6626  142.5366  155.3740 H   0  0  0  0  0  0  0  0  0  0  0  0
  145.9555  142.5969  153.7596 H   0  0  0  0  0  0  0  0  0  0  0  0
  145.9371  138.3118  151.6395 H   0  0  0  0  0  0  0  0  0  0  0  0
  147.3210  137.3619  151.7742 H   0  0  0  0  0  0  0  0  0  0  0  0
  150.7560  141.7147  155.1374 H   0  0  0  0  0  0  0  0  0  0  0  0
  149.5221  142.9172  154.9646 H   0  0  0  0  0  0  0  0  0  0  0  0
  148.2530  141.7300  156.9071 H   0  0  0  0  0  0  0  0  0  0  0  0
  149.7086  140.7736  157.1482 H   0  0  0  0  0  0  0  0  0  0  0  0
  149.7438  143.5880  157.0527 H   0  0  0  0  0  0  0  0  0  0  0  0
  1  2  1  0  0  0  0
  1 14  1  0  0  0  0
  1 15  1  0  0  0  0
  1 16  1  0  0  0  0
  2  9  2  0  0  0  0
  2  3  1  0  0  0  0
  3  4  2  0  0  0  0
  4  5  1  0  0  0  0
  4  6  1  0  0  0  0
  5 17  1  0  0  0  0
  5 18  1  0  0  0  0
  6 13  1  0  0  0  0
  6  7  1  0  0  0  0
  7  8  2  0  0  0  0
  7  9  1  0  0  0  0
  9 10  1  0  0  0  0
 10 11  1  0  0  0  0
 10 19  1  0  0  0  0
 10 20  1  0  0  0  0
 11 12  1  0  0  0  0
 11 21  1  0  0  0  0
 11 22  1  0  0  0  0
 12 23  1  0  0  0  0
M  END
> <s_m_source_file>
AV-unprocessed.smi

> <i_m_source_file_index>
1008

> <i_lp_mmshare_version>
43012

> <i_f3d_flags>
0

> <s_epik_input>
W0NIM11jMW5jKFtOSDJdKVtuSF1jKD1PKWMxW0NIMl1bQ0gyXVtPSF0=

> <s_epik_cmdline>
J2VwaWtfcHl0aG9uJywgJy1waCcsICc3LjAnLCAnLXRuJywgJzgnLCAnLW1hJywgJzIwMCcsICctbWV0YWxfYmluZGluZycsICctaW1hZScsICc8aW5maWxlLm1hZT4nLCAnLW9tYWUnLCAnPG91dGZpbGUubWFlPic=

> <r_lp_tautomer_probability>
0.878315

> <r_epik_Ionization_Penalty>
0.000554322

> <r_epik_Ionization_Penalty_Charging>
3.57358e-05

> <r_epik_Ionization_Penalty_Neutral>
0.000518586

> <r_epik_State_Penalty>
0.0663044

> <r_epik_Charging_Adjusted_Penalty>
0.0663402

> <i_epik_Tot_Q>
0

> <i_epik_Tot_abs_Q>
0

> <r_epik_Metal_State_Penalty>
0.196169

> <b_epik_Metal_Only>
0

> <s_lp_Force_Field>
OPLS_2005

> <r_lp_Energy>
7.47934

> <b_lp_Chiralities_Consistent>
1

> <s_lp_Variant>
AV-unprocessed.smi:1008-1

> <Gold.Version>
5.8.1

> <Gold.Id.Protein>
6NUR|6NUR_protein|mol2

> <Gold.PLP.Fitness>
32.3096

> <Gold.PLP.PLP>
-21.1075

> <Gold.PLP.part.hbond>
-4.9973

> <Gold.PLP.part.metal>
0.0000

> <Gold.PLP.part.buried>
1.9307

> <Gold.PLP.part.nonpolar>
-18.7934

> <Gold.PLP.part.repulsive>
0.5234

> <Gold.PLP.ligand.clash>
0.0000

> <Gold.PLP.ligand.torsion>
0.3632

> <Gold.PLP.Chemscore.Hbond>
3.9760

> <Gold.PLP.Chemscore.CHOScore>
0.0000

> <Gold.PLP.Chemscore.Metal>
0.0000

> <Gold.Chemscore.Hbonds>
donor molecule, donor type, donor heavy atom, donor atom, acceptor molecule, acceptor atom, score
      L1  H     5    18       P1  7948  0.96
      L1  H     6    13       P1  7948  1.00
      L1  H    12    23       P1  8028  1.00
      P1  H  7989  7998       L1     8  0.85

> <Gold.PLP.Chemscore.Internal.Correction>
0.0006

> <Gold.Rescore>
     Score         DG    S(hbond)    S(metal)    S(lipo)     H(rot)  DE(clash)    DE(int)     intcor
     11.01     -14.66       3.06        0.00      36.22       2.06       3.45       0.19       ----

> <Gold.Chemscore.Fitness>
11.0135

> <Gold.Chemscore.DG>
-14.6551

> <Gold.Chemscore.ZeroCoef>
-5.4800

> <Gold.Chemscore.Hbond>
3.0570

> <Gold.Chemscore.Metal>
0.0000

> <Gold.Chemscore.Lipo>
36.2151

> <Gold.Chemscore.Internal_Hbond>
0.0000

> <Gold.Chemscore.DEClash>
3.4470

> <Gold.Chemscore.DEInternal>
0.1946

> <Gold.Chemscore.Rot>
2.0595

> <Gold.Chemscore.Internal.Correction>
   9.000000E+99

> <Gold.Chemscore.Hbonds>
donor molecule, donor type, donor heavy atom, donor atom, acceptor molecule, acceptor atom, score
      L1  H     5    18       P1  7948  0.91
      L1  H     6    13       P1  7948  0.87
      L1  H    12    23       P1  8028  0.92
      P1  H  7989  7998       L1     8  0.14

> <Gold.Chemscore.Hbond.Weighted>
-10.2103

> <Gold.Chemscore.Metal.Weighted>
-0.0000

> <Gold.Chemscore.Lipo.Weighted>
-4.2372

> <Gold.Chemscore.Internal_Hbond.Weighted>
0.0000

> <Gold.Chemscore.DEClash.Weighted>
3.4470

> <Gold.Chemscore.DEInternal.Weighted>
0.1946

> <Gold.Chemscore.Rot.Weighted>
5.2724

> <Gold.Chemscore.Internal.Correction.Weighted>
   9.000000E+99

> <Gold.Protein.RotatedTorsions>
[ 6907 6896 6895 6894 ] final  -58.05 input  -60.11 | X-H torsion
[ 7974 7965 7964 7962 ] final   21.81 input  175.53 | X-H torsion
[ 8008 7997 7996 7995 ] final   44.44 input   59.86 | X-H torsion
[ 10167 10162 10161 10158 ] final  -52.23 input  -65.29 | X-H torsion
[ 10718 10713 10712 10709 ] final  -78.09 input   66.30 | X-H torsion
[ 10763 10752 10751 10750 ] final   44.05 input  -60.55 | X-H torsion
[ 11005 11000 10999 10996 ] final -105.52 input  -57.11 | X-H torsion

> <Gold.Protein.ActiveResidues>
 VAL166  LYS551  ARG553  GLY616  TRP617  ASP618  TYR619  PRO620  LYS621  CYS622 
 ASP623  PHE694  ASN695  SER759  ASP760  ASP761  ALA762  ILE779  LEU786  VAL792 
 PHE793  MET794  SER795  GLU796  ALA797  LYS798  CYS799  TRP800  GLU811  SER814 

> <Gold.Protein.RotatedAtoms>
  150.8037  134.7148  159.6624 H   0  0  0  0  0  0  0  0  0  0  0  0  # atno 6907 bound_to 6896
  152.4156  134.6045  160.0019 H   0  0  0  0  0  0  0  0  0  0  0  0  # atno 6908 bound_to 6896
  151.6275  133.3297  159.3137 H   0  0  0  0  0  0  0  0  0  0  0  0  # atno 6909 bound_to 6896
  146.2056  139.7975  142.8728 H   0  0  0  0  0  0  0  0  0  0  0  0  # atno 7974 bound_to 7965
  155.3193  140.3396  155.4241 H   0  0  0  0  0  0  0  0  0  0  0  0  # atno 8008 bound_to 7997
  156.1917  140.1700  156.8116 H   0  0  0  0  0  0  0  0  0  0  0  0  # atno 8009 bound_to 7997
  154.5450  140.0717  156.8557 H   0  0  0  0  0  0  0  0  0  0  0  0  # atno 8010 bound_to 7997
  140.6548  143.2591  151.4618 H   0  0  0  0  0  0  0  0  0  0  0  0  # atno 10167 bound_to 10162
  156.0127  130.4509  150.3444 H   0  0  0  0  0  0  0  0  0  0  0  0  # atno 10718 bound_to 10713
  152.9848  135.6082  154.3211 H   0  0  0  0  0  0  0  0  0  0  0  0  # atno 10763 bound_to 10752
  154.2921  135.2774  155.2652 H   0  0  0  0  0  0  0  0  0  0  0  0  # atno 10764 bound_to 10752
  154.4942  135.5884  153.6539 H   0  0  0  0  0  0  0  0  0  0  0  0  # atno 10765 bound_to 10752
  141.1049  133.8815  157.1745 H   0  0  0  0  0  0  0  0  0  0  0  0  # atno 11005 bound_to 11000
  145.3332  141.0271  143.3434 LP  0  0  0  0  0  0  0  0  0  0  0  0  # atno 17320 bound_to 7965
  144.8784  139.4938  143.6734 LP  0  0  0  0  0  0  0  0  0  0  0  0  # atno 17321 bound_to 7965
  139.5769  144.1799  152.1915 LP  0  0  0  0  0  0  0  0  0  0  0  0  # atno 17342 bound_to 10162
  140.1112  144.5455  150.6923 LP  0  0  0  0  0  0  0  0  0  0  0  0  # atno 17343 bound_to 10162
  157.1539  131.0328  151.2872 LP  0  0  0  0  0  0  0  0  0  0  0  0  # atno 17370 bound_to 10713
  157.4369  130.7522  149.7036 LP  0  0  0  0  0  0  0  0  0  0  0  0  # atno 17371 bound_to 10713
  139.9915  135.0063  156.9986 LP  0  0  0  0  0  0  0  0  0  0  0  0  # atno 17394 bound_to 11000
  140.4927  134.1176  155.7236 LP  0  0  0  0  0  0  0  0  0  0  0  0  # atno 17395 bound_to 11000

$$$$
