AV-unprocessed.smi:232|AV-procd|sdf|1769|dock7
  -GOLD-   2262020303D 1   1.00000     0.00000
 Structure written by MMmdl.
 52 55  0  0  0  0  0  0  0  0  1 V2000
  151.2341  145.0980  158.8259 C   0  0  0  0  0  0  0  0  0  0  0  0
  151.8756  143.8270  158.2562 C   0  0  0  0  0  0  0  0  0  0  0  0
  152.0034  142.6962  159.2973 C   0  0  2  0  0  0  0  0  0  0  0  0
  152.7634  143.1008  160.5670 C   0  0  0  0  0  0  0  0  0  0  0  0
  153.4291  141.8071  161.0502 C   0  0  0  0  0  0  0  0  0  0  0  0
  153.0804  140.7634  159.9807 C   0  0  2  0  0  0  0  0  0  0  0  0
  154.2023  139.7379  159.7445 C   0  0  0  0  0  0  0  0  0  0  0  0
  152.7372  141.5389  158.7942 N   0  0  0  0  0  0  0  0  0  0  0  0
  152.1484  140.8197  157.8084 C   0  0  0  0  0  0  0  0  0  0  0  0
  152.8650  139.9135  157.0910 N   0  0  0  0  0  0  0  0  0  0  0  0
  152.2774  139.2219  156.1099 C   0  0  0  0  0  0  0  0  0  0  0  0
  151.0131  139.2838  155.6854 N   0  0  0  0  0  0  0  0  0  0  0  0
  150.2952  140.1955  156.4026 C   0  0  0  0  0  0  0  0  0  0  0  0
  150.7807  140.9974  157.4723 C   0  0  0  0  0  0  0  0  0  0  0  0
  149.7642  141.8083  157.9613 N   0  0  0  0  0  0  0  0  0  0  0  0
  148.7346  141.5065  157.2172 C   0  0  0  0  0  0  0  0  0  0  0  0
  148.9667  140.5497  156.2547 N   0  0  0  0  0  0  0  0  0  0  0  0
  148.0128  140.0328  155.2899 C   0  0  0  0  0  0  0  0  0  0  0  0
  147.7064  141.0483  154.1721 C   0  0  2  0  0  0  0  0  0  0  0  0
  148.8839  141.3701  153.4554 O   0  0  0  0  0  0  0  0  0  0  0  0
  147.0191  142.3254  154.6959 C   0  0  2  0  0  0  0  0  0  0  0  0
  145.7606  142.1246  155.5447 C   0  0  0  0  0  0  0  0  0  0  0  0
  145.0773  143.4632  155.3766 C   0  0  0  0  0  0  0  0  0  0  0  0
  145.3734  143.7814  153.9128 C   0  0  0  0  0  0  0  0  0  0  0  0
  146.6500  143.2095  153.6399 O   0  0  0  0  0  0  0  0  0  0  0  0
  151.1339  145.8609  158.0536 H   0  0  0  0  0  0  0  0  0  0  0  0
  151.8340  145.5218  159.6316 H   0  0  0  0  0  0  0  0  0  0  0  0
  150.2388  144.8919  159.2203 H   0  0  0  0  0  0  0  0  0  0  0  0
  151.2693  143.4874  157.4159 H   0  0  0  0  0  0  0  0  0  0  0  0
  152.8570  144.0657  157.8447 H   0  0  0  0  0  0  0  0  0  0  0  0
  151.0039  142.3742  159.5948 H   0  0  0  0  0  0  0  0  0  0  0  0
  153.5323  143.8402  160.3389 H   0  0  0  0  0  0  0  0  0  0  0  0
  152.0998  143.5326  161.3168 H   0  0  0  0  0  0  0  0  0  0  0  0
  154.5076  141.9545  161.1233 H   0  0  0  0  0  0  0  0  0  0  0  0
  153.0695  141.5008  162.0329 H   0  0  0  0  0  0  0  0  0  0  0  0
  152.1853  140.2297  160.3059 H   0  0  0  0  0  0  0  0  0  0  0  0
  154.4606  139.2262  160.6717 H   0  0  0  0  0  0  0  0  0  0  0  0
  155.1049  140.2183  159.3659 H   0  0  0  0  0  0  0  0  0  0  0  0
  153.9035  138.9753  159.0250 H   0  0  0  0  0  0  0  0  0  0  0  0
  152.9124  138.5217  155.5875 H   0  0  0  0  0  0  0  0  0  0  0  0
  147.7721  141.9803  157.3465 H   0  0  0  0  0  0  0  0  0  0  0  0
  148.4210  139.1145  154.8663 H   0  0  0  0  0  0  0  0  0  0  0  0
  147.0992  139.7548  155.8172 H   0  0  0  0  0  0  0  0  0  0  0  0
  147.0298  140.5793  153.4567 H   0  0  0  0  0  0  0  0  0  0  0  0
  149.0971  140.6445  152.8890 H   0  0  0  0  0  0  0  0  0  0  0  0
  147.7411  142.8749  155.3022 H   0  0  0  0  0  0  0  0  0  0  0  0
  145.1221  141.3375  155.1423 H   0  0  0  0  0  0  0  0  0  0  0  0
  145.9831  141.8850  156.5848 H   0  0  0  0  0  0  0  0  0  0  0  0
  144.0104  143.4338  155.5998 H   0  0  0  0  0  0  0  0  0  0  0  0
  145.5432  144.2063  156.0253 H   0  0  0  0  0  0  0  0  0  0  0  0
  144.6367  143.3045  153.2653 H   0  0  0  0  0  0  0  0  0  0  0  0
  145.3624  144.8519  153.7073 H   0  0  0  0  0  0  0  0  0  0  0  0
  1  2  1  0  0  0  0
  1 26  1  0  0  0  0
  1 27  1  0  0  0  0
  1 28  1  0  0  0  0
  2  3  1  0  0  0  0
  2 29  1  0  0  0  0
  2 30  1  0  0  0  0
  3  8  1  0  0  0  0
  3  4  1  0  0  0  0
  3 31  1  0  0  0  0
  4  5  1  0  0  0  0
  4 32  1  0  0  0  0
  4 33  1  0  0  0  0
  5  6  1  0  0  0  0
  5 34  1  0  0  0  0
  5 35  1  0  0  0  0
  6  7  1  0  0  0  0
  6  8  1  0  0  0  0
  6 36  1  0  0  0  0
  7 37  1  0  0  0  0
  7 38  1  0  0  0  0
  7 39  1  0  0  0  0
  8  9  1  0  0  0  0
  9 14  1  0  0  0  0
  9 10  2  0  0  0  0
 10 11  1  0  0  0  0
 11 12  2  0  0  0  0
 11 40  1  0  0  0  0
 12 13  1  0  0  0  0
 13 17  1  0  0  0  0
 13 14  2  0  0  0  0
 14 15  1  0  0  0  0
 15 16  2  0  0  0  0
 16 17  1  0  0  0  0
 16 41  1  0  0  0  0
 17 18  1  0  0  0  0
 18 19  1  0  0  0  0
 18 42  1  0  0  0  0
 18 43  1  0  0  0  0
 19 20  1  0  0  0  0
 19 21  1  0  0  0  0
 19 44  1  0  0  0  0
 20 45  1  0  0  0  0
 21 25  1  0  0  0  0
 21 22  1  0  0  0  0
 21 46  1  0  0  0  0
 22 23  1  0  0  0  0
 22 47  1  0  0  0  0
 22 48  1  0  0  0  0
 23 24  1  0  0  0  0
 23 49  1  0  0  0  0
 23 50  1  0  0  0  0
 24 25  1  0  0  0  0
 24 51  1  0  0  0  0
 24 52  1  0  0  0  0
M  END
> <s_m_source_file>
AV-unprocessed.smi

> <i_m_source_file_index>
232

> <i_lp_mmshare_version>
43012

> <i_f3d_flags>
0

> <s_epik_input>
W0NIM11bQ0gyXVtDQEBIXTFbQ0gyXVtDSDJdW0NAQEhdKFtDSDNdKU4xYyhuW2NIXW4yKWMoYzIzKW5bY0hdbjNbQ0gyXVtDQEhdKFtPSF0pW0NAQEhdNFtDSDJdW0NIMl1bQ0gyXU80

> <s_epik_cmdline>
J2VwaWtfcHl0aG9uJywgJy1waCcsICc3LjAnLCAnLXRuJywgJzgnLCAnLW1hJywgJzIwMCcsICctbWV0YWxfYmluZGluZycsICctaW1hZScsICc8aW5maWxlLm1hZT4nLCAnLW9tYWUnLCAnPG91dGZpbGUubWFlPic=

> <r_lp_tautomer_probability>
1

> <r_epik_Ionization_Penalty>
0.00258048

> <r_epik_Ionization_Penalty_Charging>
0

> <r_epik_Ionization_Penalty_Neutral>
0.00258048

> <r_epik_State_Penalty>
0.00168551

> <r_epik_Charging_Adjusted_Penalty>
0.00168551

> <i_epik_Tot_Q>
0

> <i_epik_Tot_abs_Q>
0

> <r_epik_Metal_State_Penalty>
-0

> <b_epik_Metal_Only>
0

> <s_lp_Force_Field>
OPLS_2005

> <r_lp_Energy>
54.2743

> <b_lp_Chiralities_Consistent>
1

> <s_lp_Variant>
AV-unprocessed.smi:232-3

> <Gold.Version>
5.8.1

> <Gold.Id.Protein>
6NUR|6NUR_protein|mol2

> <Gold.PLP.Fitness>
54.3241

> <Gold.PLP.PLP>
-47.2894

> <Gold.PLP.part.hbond>
-5.0000

> <Gold.PLP.part.metal>
0.0000

> <Gold.PLP.part.buried>
-1.8510

> <Gold.PLP.part.nonpolar>
-39.8250

> <Gold.PLP.part.repulsive>
0.2952

> <Gold.PLP.ligand.clash>
0.0000

> <Gold.PLP.ligand.torsion>
0.4501

> <Gold.PLP.Chemscore.Hbond>
2.6102

> <Gold.PLP.Chemscore.CHOScore>
0.0000

> <Gold.PLP.Chemscore.Metal>
0.0000

> <Gold.Chemscore.Hbonds>
donor molecule, donor type, donor heavy atom, donor atom, acceptor molecule, acceptor atom, score
      L1  H    20    45       P1  7957  0.94
      P1  H  7997  8009       L1    10  0.93
      P1  H  8011  8017       L1    20  0.36

> <Gold.PLP.Chemscore.Internal.Correction>
0.1041

> <Gold.Rescore>
     Score         DG    S(hbond)    S(metal)    S(lipo)     H(rot)  DE(clash)    DE(int)     intcor
     15.18     -17.38       1.80        0.00     103.26       2.43       0.00       2.20       ----

> <Gold.Chemscore.Fitness>
15.1756

> <Gold.Chemscore.DG>
-17.3750

> <Gold.Chemscore.ZeroCoef>
-5.4800

> <Gold.Chemscore.Hbond>
1.8035

> <Gold.Chemscore.Metal>
0.0000

> <Gold.Chemscore.Lipo>
103.2638

> <Gold.Chemscore.Internal_Hbond>
0.0000

> <Gold.Chemscore.DEClash>
0.0000

> <Gold.Chemscore.DEInternal>
2.1995

> <Gold.Chemscore.Rot>
2.4260

> <Gold.Chemscore.Internal.Correction>
   9.000000E+99

> <Gold.Chemscore.Hbonds>
donor molecule, donor type, donor heavy atom, donor atom, acceptor molecule, acceptor atom, score
      L1  H    20    45       P1  7957  0.92
      P1  H  7997  8009       L1    10  0.78
      P1  H  8011  8017       L1    20  0.01

> <Gold.Chemscore.Hbond.Weighted>
-6.0239

> <Gold.Chemscore.Metal.Weighted>
-0.0000

> <Gold.Chemscore.Lipo.Weighted>
-12.0819

> <Gold.Chemscore.Internal_Hbond.Weighted>
0.0000

> <Gold.Chemscore.DEClash.Weighted>
0.0000

> <Gold.Chemscore.DEInternal.Weighted>
2.1995

> <Gold.Chemscore.Rot.Weighted>
6.2107

> <Gold.Chemscore.Internal.Correction.Weighted>
   9.000000E+99

> <Gold.Protein.RotatedTorsions>
[ 6907 6896 6895 6894 ] final  -59.38 input  -60.11 | X-H torsion
[ 7974 7965 7964 7962 ] final  -89.27 input  175.53 | X-H torsion
[ 8008 7997 7996 7995 ] final  160.71 input   59.86 | X-H torsion
[ 10167 10162 10161 10158 ] final   36.90 input  -65.29 | X-H torsion
[ 10718 10713 10712 10709 ] final  -20.30 input   66.30 | X-H torsion
[ 10763 10752 10751 10750 ] final -152.07 input  -60.55 | X-H torsion
[ 11005 11000 10999 10996 ] final -126.99 input  -57.11 | X-H torsion

> <Gold.Protein.ActiveResidues>
 VAL166  LYS551  ARG553  GLY616  TRP617  ASP618  TYR619  PRO620  LYS621  CYS622 
 ASP623  PHE694  ASN695  SER759  ASP760  ASP761  ALA762  ILE779  LEU786  VAL792 
 PHE793  MET794  SER795  GLU796  ALA797  LYS798  CYS799  TRP800  GLU811  SER814 

> <Gold.Protein.RotatedAtoms>
  150.7935  134.6976  159.6531 H   0  0  0  0  0  0  0  0  0  0  0  0  # atno 6907 bound_to 6896
  152.4044  134.6229  160.0065 H   0  0  0  0  0  0  0  0  0  0  0  0  # atno 6908 bound_to 6896
  151.6491  133.3285  159.3184 H   0  0  0  0  0  0  0  0  0  0  0  0  # atno 6909 bound_to 6896
  145.4420  140.9559  143.2070 H   0  0  0  0  0  0  0  0  0  0  0  0  # atno 7974 bound_to 7965
  156.2153  140.1797  156.7602 H   0  0  0  0  0  0  0  0  0  0  0  0  # atno 8008 bound_to 7997
  154.5783  140.0670  156.9096 H   0  0  0  0  0  0  0  0  0  0  0  0  # atno 8009 bound_to 7997
  155.2548  140.3331  155.4281 H   0  0  0  0  0  0  0  0  0  0  0  0  # atno 8010 bound_to 7997
  140.4084  144.1627  150.6138 H   0  0  0  0  0  0  0  0  0  0  0  0  # atno 10167 bound_to 10162
  156.5337  130.4661  149.6534 H   0  0  0  0  0  0  0  0  0  0  0  0  # atno 10718 bound_to 10713
  154.8017  135.3245  154.7532 H   0  0  0  0  0  0  0  0  0  0  0  0  # atno 10763 bound_to 10752
  153.8199  135.6888  153.4833 H   0  0  0  0  0  0  0  0  0  0  0  0  # atno 10764 bound_to 10752
  153.1738  135.4613  154.9882 H   0  0  0  0  0  0  0  0  0  0  0  0  # atno 10765 bound_to 10752
  140.9636  134.0902  157.3943 H   0  0  0  0  0  0  0  0  0  0  0  0  # atno 11005 bound_to 11000
  144.8115  139.5953  143.7027 LP  0  0  0  0  0  0  0  0  0  0  0  0  # atno 17320 bound_to 7965
  146.2551  139.6284  142.9400 LP  0  0  0  0  0  0  0  0  0  0  0  0  # atno 17321 bound_to 7965
  140.4664  143.2429  151.9149 LP  0  0  0  0  0  0  0  0  0  0  0  0  # atno 17342 bound_to 10162
  139.4783  144.5415  151.8522 LP  0  0  0  0  0  0  0  0  0  0  0  0  # atno 17343 bound_to 10162
  156.3036  130.7190  151.2067 LP  0  0  0  0  0  0  0  0  0  0  0  0  # atno 17370 bound_to 10713
  157.7417  131.0500  150.5076 LP  0  0  0  0  0  0  0  0  0  0  0  0  # atno 17371 bound_to 10713
  139.8886  135.0099  156.6633 LP  0  0  0  0  0  0  0  0  0  0  0  0  # atno 17394 bound_to 11000
  140.7432  133.8960  155.8293 LP  0  0  0  0  0  0  0  0  0  0  0  0  # atno 17395 bound_to 11000

$$$$
