AV-unprocessed.smi:693|AV-procd|sdf|3372|dock1
  -GOLD-   22720 0353D 1   1.00000     0.00000
 Structure written by MMmdl.
 46 47  0  0  0  0  0  0  0  0  1 V2000
  153.0915  143.5765  163.0394 C   0  0  0  0  0  0  0  0  0  0  0  0
  152.8231  142.9238  161.6995 C   0  0  0  0  0  0  0  0  0  0  0  0
  153.4195  141.6900  161.3634 C   0  0  0  0  0  0  0  0  0  0  0  0
  153.1377  141.1308  160.1022 C   0  0  0  0  0  0  0  0  0  0  0  0
  152.2751  141.8238  159.2282 C   0  0  0  0  0  0  0  0  0  0  0  0
  151.9385  141.2640  157.8605 C   0  0  0  0  0  0  0  0  0  0  0  0
  151.2669  142.3100  156.9563 C   0  0  0  0  0  0  0  0  0  0  0  0
  149.8439  142.0394  156.7922 N   0  0  0  0  0  0  0  0  0  0  0  0
  149.2737  141.4937  155.7045 C   0  0  0  0  0  0  0  0  0  0  0  0
  149.9286  141.1892  154.7065 O   0  0  0  0  0  0  0  0  0  0  0  0
  147.9285  141.3323  155.7896 N   0  0  0  0  0  0  0  0  0  0  0  0
  146.9971  141.1932  154.6586 C   0  0  0  0  0  0  0  0  0  0  0  0
  146.2558  142.5274  154.4768 C   0  0  0  0  0  0  0  0  0  0  0  0
  145.5290  142.9348  155.7727 C   0  0  0  0  0  0  0  0  0  0  0  0
  146.4557  142.8782  157.0145 C   0  0  1  0  0  0  0  0  0  0  0  0
  145.7100  143.1217  158.3467 C   0  0  0  0  0  0  0  0  0  0  0  0
  146.6255  143.5291  159.5061 C   0  0  0  0  0  0  0  0  0  0  0  0
  147.3125  144.6654  159.3670 N   0  0  0  0  0  0  0  0  0  0  0  0
  146.7312  142.8190  160.5035 O   0  0  0  0  0  0  0  0  0  0  0  0
  147.2008  141.5243  157.0506 C   0  0  0  0  0  0  0  0  0  0  0  0
  151.7308  143.0514  159.6609 C   0  0  0  0  0  0  0  0  0  0  0  0
  151.9948  143.5948  160.8689 N   0  0  0  0  0  0  0  0  0  0  0  0
  153.6222  142.8993  163.7094 H   0  0  0  0  0  0  0  0  0  0  0  0
  152.1559  143.8642  163.5200 H   0  0  0  0  0  0  0  0  0  0  0  0
  153.6997  144.4715  162.9070 H   0  0  0  0  0  0  0  0  0  0  0  0
  154.0778  141.1823  162.0529 H   0  0  0  0  0  0  0  0  0  0  0  0
  153.5762  140.1868  159.8134 H   0  0  0  0  0  0  0  0  0  0  0  0
  152.8549  140.8948  157.3981 H   0  0  0  0  0  0  0  0  0  0  0  0
  151.2852  140.3987  157.9810 H   0  0  0  0  0  0  0  0  0  0  0  0
  151.3694  143.3017  157.3975 H   0  0  0  0  0  0  0  0  0  0  0  0
  151.7570  142.3502  155.9820 H   0  0  0  0  0  0  0  0  0  0  0  0
  149.2435  142.2749  157.5690 H   0  0  0  0  0  0  0  0  0  0  0  0
  147.4737  140.9026  153.7227 H   0  0  0  0  0  0  0  0  0  0  0  0
  146.2829  140.3977  154.8759 H   0  0  0  0  0  0  0  0  0  0  0  0
  146.9684  143.3046  154.1968 H   0  0  0  0  0  0  0  0  0  0  0  0
  145.5410  142.4518  153.6570 H   0  0  0  0  0  0  0  0  0  0  0  0
  145.1129  143.9336  155.6442 H   0  0  0  0  0  0  0  0  0  0  0  0
  144.6814  142.2656  155.9266 H   0  0  0  0  0  0  0  0  0  0  0  0
  147.2090  143.6607  156.9046 H   0  0  0  0  0  0  0  0  0  0  0  0
  144.9530  143.8956  158.2129 H   0  0  0  0  0  0  0  0  0  0  0  0
  145.1670  142.2196  158.6332 H   0  0  0  0  0  0  0  0  0  0  0  0
  147.9306  144.9757  160.1026 H   0  0  0  0  0  0  0  0  0  0  0  0
  147.2120  145.2105  158.5231 H   0  0  0  0  0  0  0  0  0  0  0  0
  146.4909  140.7070  157.1857 H   0  0  0  0  0  0  0  0  0  0  0  0
  147.8629  141.4796  157.9166 H   0  0  0  0  0  0  0  0  0  0  0  0
  151.0645  143.6122  159.0219 H   0  0  0  0  0  0  0  0  0  0  0  0
  1  2  1  0  0  0  0
  1 23  1  0  0  0  0
  1 24  1  0  0  0  0
  1 25  1  0  0  0  0
  2 22  1  0  0  0  0
  2  3  2  0  0  0  0
  3  4  1  0  0  0  0
  3 26  1  0  0  0  0
  4  5  2  0  0  0  0
  4 27  1  0  0  0  0
  5  6  1  0  0  0  0
  5 21  1  0  0  0  0
  6  7  1  0  0  0  0
  6 28  1  0  0  0  0
  6 29  1  0  0  0  0
  7  8  1  0  0  0  0
  7 30  1  0  0  0  0
  7 31  1  0  0  0  0
  8  9  1  0  0  0  0
  8 32  1  0  0  0  0
  9 10  2  0  0  0  0
  9 11  1  0  0  0  0
 11 20  1  0  0  0  0
 11 12  1  0  0  0  0
 12 13  1  0  0  0  0
 12 33  1  0  0  0  0
 12 34  1  0  0  0  0
 13 14  1  0  0  0  0
 13 35  1  0  0  0  0
 13 36  1  0  0  0  0
 14 15  1  0  0  0  0
 14 37  1  0  0  0  0
 14 38  1  0  0  0  0
 15 16  1  0  0  0  0
 15 20  1  0  0  0  0
 15 39  1  0  0  0  0
 16 17  1  0  0  0  0
 16 40  1  0  0  0  0
 16 41  1  0  0  0  0
 17 18  1  0  0  0  0
 17 19  2  0  0  0  0
 18 42  1  0  0  0  0
 18 43  1  0  0  0  0
 20 44  1  0  0  0  0
 20 45  1  0  0  0  0
 21 22  2  0  0  0  0
 21 46  1  0  0  0  0
M  END
> <s_m_source_file>
AV-unprocessed.smi

> <i_m_source_file_index>
693

> <i_lp_mmshare_version>
43012

> <i_f3d_flags>
0

> <s_epik_input>
W0NIM11jMVtjSF1bY0hdYyhbY0hdbjEpW0NIMl1bQ0gyXVtOSF1DKD1PKU4yW0NIMl1bQ0gyXVtDSDJdW0NASF0oW0NIMl0yKVtDSDJdQyg9TylbTkgyXQ==

> <s_epik_cmdline>
J2VwaWtfcHl0aG9uJywgJy1waCcsICc3LjAnLCAnLXRuJywgJzgnLCAnLW1hJywgJzIwMCcsICctbWV0YWxfYmluZGluZycsICctaW1hZScsICc8aW5maWxlLm1hZT4nLCAnLW9tYWUnLCAnPG91dGZpbGUubWFlPic=

> <r_epik_Ionization_Penalty>
0.056948

> <r_epik_Ionization_Penalty_Charging>
0

> <r_epik_Ionization_Penalty_Neutral>
0.056948

> <r_epik_State_Penalty>
0.0490937

> <r_epik_Charging_Adjusted_Penalty>
0.0490937

> <i_epik_Tot_Q>
0

> <i_epik_Tot_abs_Q>
0

> <r_epik_Metal_State_Penalty>
0.0447689

> <b_epik_Metal_Only>
0

> <s_lp_Force_Field>
OPLS_2005

> <r_lp_Energy>
25.6146

> <b_lp_Chiralities_Consistent>
1

> <s_lp_Variant>
AV-unprocessed.smi:693-1

> <Gold.Version>
5.8.1

> <Gold.Id.Protein>
6NUR|6NUR_protein|mol2

> <Gold.PLP.Fitness>
48.2025

> <Gold.PLP.PLP>
-41.5864

> <Gold.PLP.part.hbond>
-4.7908

> <Gold.PLP.part.metal>
0.0000

> <Gold.PLP.part.buried>
-6.4617

> <Gold.PLP.part.nonpolar>
-30.5901

> <Gold.PLP.part.repulsive>
0.3722

> <Gold.PLP.ligand.clash>
1.6190

> <Gold.PLP.ligand.torsion>
0.8703

> <Gold.PLP.Chemscore.Hbond>
3.2817

> <Gold.PLP.Chemscore.CHOScore>
0.0000

> <Gold.PLP.Chemscore.Metal>
0.0000

> <Gold.Chemscore.Hbonds>
donor molecule, donor type, donor heavy atom, donor atom, acceptor molecule, acceptor atom, score
      L1  H    18    43       P1  8029  1.00
      P1  H  6933  6944       L1    19  0.86
      P1  H  6934  6946       L1    19  0.96
      P1  H  7989  7998       L1    10  0.46

> <Gold.PLP.Chemscore.Internal.Correction>
0.1305

> <Gold.Rescore>
     Score         DG    S(hbond)    S(metal)    S(lipo)     H(rot)  DE(clash)    DE(int)     intcor
     20.72     -22.49       3.25        0.00     101.69       2.25       0.81       0.96       ----

> <Gold.Chemscore.Fitness>
20.7181

> <Gold.Chemscore.DG>
-22.4864

> <Gold.Chemscore.ZeroCoef>
-5.4800

> <Gold.Chemscore.Hbond>
3.2550

> <Gold.Chemscore.Metal>
0.0000

> <Gold.Chemscore.Lipo>
101.6912

> <Gold.Chemscore.Internal_Hbond>
0.0000

> <Gold.Chemscore.DEClash>
0.8061

> <Gold.Chemscore.DEInternal>
0.9622

> <Gold.Chemscore.Rot>
2.2512

> <Gold.Chemscore.Internal.Correction>
   9.000000E+99

> <Gold.Chemscore.Hbonds>
donor molecule, donor type, donor heavy atom, donor atom, acceptor molecule, acceptor atom, score
      L1  H    18    43       P1  8029  0.93
      P1  H  6933  6944       L1    19  0.79
      P1  H  6934  6946       L1    19  0.91
      P1  H  7989  7998       L1    10  0.46

> <Gold.Chemscore.Hbond.Weighted>
-10.8716

> <Gold.Chemscore.Metal.Weighted>
-0.0000

> <Gold.Chemscore.Lipo.Weighted>
-11.8979

> <Gold.Chemscore.Internal_Hbond.Weighted>
0.0000

> <Gold.Chemscore.DEClash.Weighted>
0.8061

> <Gold.Chemscore.DEInternal.Weighted>
0.9622

> <Gold.Chemscore.Rot.Weighted>
5.7631

> <Gold.Chemscore.Internal.Correction.Weighted>
   9.000000E+99

> <Gold.Protein.RotatedTorsions>
[ 6907 6896 6895 6894 ] final   40.88 input  -60.11 | X-H torsion
[ 7974 7965 7964 7962 ] final -113.02 input  175.53 | X-H torsion
[ 8008 7997 7996 7995 ] final  -61.39 input   59.86 | X-H torsion
[ 10167 10162 10161 10158 ] final  107.92 input  -65.29 | X-H torsion
[ 10718 10713 10712 10709 ] final  116.83 input   66.30 | X-H torsion
[ 10763 10752 10751 10750 ] final  -71.35 input  -60.55 | X-H torsion
[ 11005 11000 10999 10996 ] final  123.23 input  -57.11 | X-H torsion

> <Gold.Protein.ActiveResidues>
 VAL166  LYS551  ARG553  GLY616  TRP617  ASP618  TYR619  PRO620  LYS621  CYS622 
 ASP623  PHE694  ASN695  SER759  ASP760  ASP761  ALA762  ILE779  LEU786  VAL792 
 PHE793  MET794  SER795  GLU796  ALA797  LYS798  CYS799  TRP800  GLU811  SER814 

> <Gold.Protein.RotatedAtoms>
  152.1881  134.8696  160.0519 H   0  0  0  0  0  0  0  0  0  0  0  0  # atno 6907 bound_to 6896
  151.9595  133.3686  159.4038 H   0  0  0  0  0  0  0  0  0  0  0  0  # atno 6908 bound_to 6896
  150.6930  134.4179  159.5235 H   0  0  0  0  0  0  0  0  0  0  0  0  # atno 6909 bound_to 6896
  145.1370  140.8757  143.3724 H   0  0  0  0  0  0  0  0  0  0  0  0  # atno 7974 bound_to 7965
  154.4446  140.1018  156.6424 H   0  0  0  0  0  0  0  0  0  0  0  0  # atno 8008 bound_to 7997
  155.5487  140.3485  155.4445 H   0  0  0  0  0  0  0  0  0  0  0  0  # atno 8009 bound_to 7997
  156.0544  140.1311  157.0002 H   0  0  0  0  0  0  0  0  0  0  0  0  # atno 8010 bound_to 7997
  139.6888  144.7110  151.1385 H   0  0  0  0  0  0  0  0  0  0  0  0  # atno 10167 bound_to 10162
  157.6135  131.1030  150.7529 H   0  0  0  0  0  0  0  0  0  0  0  0  # atno 10718 bound_to 10713
  154.4305  135.5965  153.6066 H   0  0  0  0  0  0  0  0  0  0  0  0  # atno 10763 bound_to 10752
  152.9798  135.5974  154.3845 H   0  0  0  0  0  0  0  0  0  0  0  0  # atno 10764 bound_to 10752
  154.3682  135.2841  155.2260 H   0  0  0  0  0  0  0  0  0  0  0  0  # atno 10765 bound_to 10752
  139.9303  134.9641  156.8228 H   0  0  0  0  0  0  0  0  0  0  0  0  # atno 11005 bound_to 11000
  145.0573  139.3133  143.5898 LP  0  0  0  0  0  0  0  0  0  0  0  0  # atno 17320 bound_to 7965
  146.3509  140.0002  142.8677 LP  0  0  0  0  0  0  0  0  0  0  0  0  # atno 17321 bound_to 7965
  140.7676  143.5590  150.9120 LP  0  0  0  0  0  0  0  0  0  0  0  0  # atno 17342 bound_to 10162
  139.9266  143.6542  152.3085 LP  0  0  0  0  0  0  0  0  0  0  0  0  # atno 17343 bound_to 10162
  156.7901  130.4887  149.5386 LP  0  0  0  0  0  0  0  0  0  0  0  0  # atno 17370 bound_to 10713
  156.1248  130.6136  151.0247 LP  0  0  0  0  0  0  0  0  0  0  0  0  # atno 17371 bound_to 10713
  140.6220  133.9985  155.7623 LP  0  0  0  0  0  0  0  0  0  0  0  0  # atno 17394 bound_to 11000
  141.0887  133.9950  157.3271 LP  0  0  0  0  0  0  0  0  0  0  0  0  # atno 17395 bound_to 11000

$$$$
