AV-unprocessed.smi:2037|AV-procd|sdf|8277|dock1
  -GOLD-   2272010543D 1   1.00000     0.00000
 Structure written by MMmdl.
 39 40  0  0  0  0  0  0  0  0  2 V2000
  143.6818  132.9991  151.4681 C   0  0  0  0  0  0  0  0  0  0  0  0
  145.2079  133.1723  151.3745 C   0  0  2  0  0  0  0  0  0  0  0  0
  145.8651  133.4191  152.7444 C   0  0  0  0  0  0  0  0  0  0  0  0
  145.5976  134.8405  153.2716 C   0  0  0  0  0  0  0  0  0  0  0  0
  146.0310  135.8717  152.2933 N   0  3  2  0  0  0  0  0  0  0  0  0
  145.9006  137.2475  152.8365 C   0  0  0  0  0  0  0  0  0  0  0  0
  146.3582  138.3236  151.8320 C   0  0  0  0  0  0  0  0  0  0  0  0
  147.5769  138.9911  152.2757 N   0  0  0  0  0  0  0  0  0  0  0  0
  147.8415  139.3378  153.5437 C   0  0  0  0  0  0  0  0  0  0  0  0
  147.0631  139.1331  154.4756 O   0  0  0  0  0  0  0  0  0  0  0  0
  149.0466  139.9246  153.6500 N   0  0  0  0  0  0  0  0  0  0  0  0
  149.6654  140.4497  154.8148 C   0  0  0  0  0  0  0  0  0  0  0  0
  150.9877  140.4794  155.0183 N   0  0  0  0  0  0  0  0  0  0  0  0
  151.3157  141.0465  156.2522 C   0  0  0  0  0  0  0  0  0  0  0  0
  150.2228  141.4456  156.9809 C   0  0  0  0  0  0  0  0  0  0  0  0
  148.7291  141.1206  156.1426 S   0  0  0  0  0  0  0  0  0  0  0  0
  145.3597  135.6935  150.9781 C   0  0  0  0  0  0  0  0  0  0  0  0
  145.6228  134.2905  150.4018 C   0  0  0  0  0  0  0  0  0  0  0  0
  143.1883  133.8892  151.8569 H   0  0  0  0  0  0  0  0  0  0  0  0
  143.4237  132.1669  152.1236 H   0  0  0  0  0  0  0  0  0  0  0  0
  143.2527  132.7863  150.4886 H   0  0  0  0  0  0  0  0  0  0  0  0
  145.6012  132.2326  150.9839 H   0  0  0  0  0  0  0  0  0  0  0  0
  145.5196  132.6801  153.4683 H   0  0  0  0  0  0  0  0  0  0  0  0
  146.9424  133.2725  152.6553 H   0  0  0  0  0  0  0  0  0  0  0  0
  144.5391  134.9732  153.4997 H   0  0  0  0  0  0  0  0  0  0  0  0
  146.1383  134.9746  154.2094 H   0  0  0  0  0  0  0  0  0  0  0  0
  144.8722  137.4251  153.1550 H   0  0  0  0  0  0  0  0  0  0  0  0
  146.5168  137.3305  153.7329 H   0  0  0  0  0  0  0  0  0  0  0  0
  146.5154  137.8839  150.8454 H   0  0  0  0  0  0  0  0  0  0  0  0
  145.5964  139.0927  151.7112 H   0  0  0  0  0  0  0  0  0  0  0  0
  148.2710  139.1932  151.5707 H   0  0  0  0  0  0  0  0  0  0  0  0
  149.5840  140.0091  152.7997 H   0  0  0  0  0  0  0  0  0  0  0  0
  152.3555  141.1270  156.5328 H   0  0  0  0  0  0  0  0  0  0  0  0
  150.2063  141.9082  157.9563 H   0  0  0  0  0  0  0  0  0  0  0  0
  144.2883  135.8662  151.0863 H   0  0  0  0  0  0  0  0  0  0  0  0
  145.7225  136.4331  150.2657 H   0  0  0  0  0  0  0  0  0  0  0  0
  146.6865  134.1942  150.1800 H   0  0  0  0  0  0  0  0  0  0  0  0
  145.1047  134.1735  149.4491 H   0  0  0  0  0  0  0  0  0  0  0  0
  147.0181  135.7168  152.1450 H   0  0  0  0  0  0  0  0  0  0  0  0
  1  2  1  0  0  0  0
  1 19  1  0  0  0  0
  1 20  1  0  0  0  0
  1 21  1  0  0  0  0
  2 18  1  0  0  0  0
  2  3  1  0  0  0  0
  2 22  1  0  0  0  0
  3  4  1  0  0  0  0
  3 23  1  0  0  0  0
  3 24  1  0  0  0  0
  4  5  1  0  0  0  0
  4 25  1  0  0  0  0
  4 26  1  0  0  0  0
  5  6  1  0  0  0  0
  5 17  1  0  0  0  0
  5 39  1  0  0  0  0
  6  7  1  0  0  0  0
  6 27  1  0  0  0  0
  6 28  1  0  0  0  0
  7  8  1  0  0  0  0
  7 29  1  0  0  0  0
  7 30  1  0  0  0  0
  8  9  1  0  0  0  0
  8 31  1  0  0  0  0
  9 10  2  0  0  0  0
  9 11  1  0  0  0  0
 11 12  1  0  0  0  0
 11 32  1  0  0  0  0
 12 16  1  0  0  0  0
 12 13  2  0  0  0  0
 13 14  1  0  0  0  0
 14 15  2  0  0  0  0
 14 33  1  0  0  0  0
 15 16  1  0  0  0  0
 15 34  1  0  0  0  0
 17 18  1  0  0  0  0
 17 35  1  0  0  0  0
 17 36  1  0  0  0  0
 18 37  1  0  0  0  0
 18 38  1  0  0  0  0
M  CHG  1   5   1
M  END
> <s_m_source_file>
AV-unprocessed.smi

> <i_m_source_file_index>
2037

> <i_lp_mmshare_version>
43012

> <i_f3d_flags>
0

> <s_epik_input>
W0NIM11bQ0hdMVtDSDJdW0NIMl1OKFtDSDJdW0NIMl0xKVtDSDJdW0NIMl1bTkhdQyg9TylbTkhdYzJuW2NIXVtjSF1zMg==

> <s_epik_cmdline>
J2VwaWtfcHl0aG9uJywgJy1waCcsICc3LjAnLCAnLXRuJywgJzgnLCAnLW1hJywgJzIwMCcsICctbWV0YWxfYmluZGluZycsICctaW1hZScsICc8aW5maWxlLm1hZT4nLCAnLW9tYWUnLCAnPG91dGZpbGUubWFlPic=

> <r_lp_tautomer_probability>
0.999

> <r_epik_Ionization_Penalty>
0.00182893

> <r_epik_Ionization_Penalty_Charging>
0.00168873

> <r_epik_Ionization_Penalty_Neutral>
0.000140204

> <r_epik_State_Penalty>
0.00114045

> <r_epik_Charging_Adjusted_Penalty>
0.00282917

> <i_epik_Tot_Q>
1

> <i_epik_Tot_abs_Q>
1

> <r_epik_Metal_State_Penalty>
0.0569426

> <b_epik_Metal_Only>
0

> <s_lp_Force_Field>
OPLS_2005

> <r_lp_Energy>
15.966

> <b_lp_Chiralities_Consistent>
1

> <s_lp_Variant>
AV-unprocessed.smi:2037-2

> <Gold.Version>
5.8.1

> <Gold.Id.Protein>
6NUR|6NUR_protein|mol2

> <Gold.PLP.Fitness>
44.1749

> <Gold.PLP.PLP>
-30.5719

> <Gold.PLP.part.hbond>
-4.7545

> <Gold.PLP.part.metal>
0.0000

> <Gold.PLP.part.buried>
-1.3687

> <Gold.PLP.part.nonpolar>
-24.5465

> <Gold.PLP.part.repulsive>
0.4050

> <Gold.PLP.ligand.clash>
0.0000

> <Gold.PLP.ligand.torsion>
0.7069

> <Gold.PLP.Chemscore.Hbond>
4.9840

> <Gold.PLP.Chemscore.CHOScore>
0.0000

> <Gold.PLP.Chemscore.Metal>
0.0000

> <Gold.Chemscore.Hbonds>
donor molecule, donor type, donor heavy atom, donor atom, acceptor molecule, acceptor atom, score
      L1  H     5    39       P1  7948  2.00
      L1  H     8    31       P1  7957  0.99
      L1  H    11    32       P1  7957  0.98
      P1  H  7989  7998       L1    13  1.00

> <Gold.PLP.Chemscore.Internal.Correction>
0.0647

> <Gold.Rescore>
     Score         DG    S(hbond)    S(metal)    S(lipo)     H(rot)  DE(clash)    DE(int)     intcor
     17.62     -20.15       3.56        0.00      58.70       1.60       0.28       2.24       ----

> <Gold.Chemscore.Fitness>
17.6249

> <Gold.Chemscore.DG>
-20.1498

> <Gold.Chemscore.ZeroCoef>
-5.4800

> <Gold.Chemscore.Hbond>
3.5623

> <Gold.Chemscore.Metal>
0.0000

> <Gold.Chemscore.Lipo>
58.7011

> <Gold.Chemscore.Internal_Hbond>
0.0000

> <Gold.Chemscore.DEClash>
0.2826

> <Gold.Chemscore.DEInternal>
2.2423

> <Gold.Chemscore.Rot>
1.6001

> <Gold.Chemscore.Internal.Correction>
   9.000000E+99

> <Gold.Chemscore.Hbonds>
donor molecule, donor type, donor heavy atom, donor atom, acceptor molecule, acceptor atom, score
      L1  H     5    39       P1  7948  0.95
      L1  H     8    31       P1  7957  0.83
      L1  H    11    32       P1  7957  0.93
      P1  H  7989  7998       L1    13  0.43

> <Gold.Chemscore.Hbond.Weighted>
-11.8980

> <Gold.Chemscore.Metal.Weighted>
-0.0000

> <Gold.Chemscore.Lipo.Weighted>
-6.8680

> <Gold.Chemscore.Internal_Hbond.Weighted>
0.0000

> <Gold.Chemscore.DEClash.Weighted>
0.2826

> <Gold.Chemscore.DEInternal.Weighted>
2.2423

> <Gold.Chemscore.Rot.Weighted>
4.0963

> <Gold.Chemscore.Internal.Correction.Weighted>
   9.000000E+99

> <Gold.Protein.RotatedTorsions>
[ 6907 6896 6895 6894 ] final   97.66 input  -60.11 | X-H torsion
[ 7974 7965 7964 7962 ] final  151.25 input  175.53 | X-H torsion
[ 8008 7997 7996 7995 ] final   34.33 input   59.86 | X-H torsion
[ 10167 10162 10161 10158 ] final   -4.97 input  -65.29 | X-H torsion
[ 10718 10713 10712 10709 ] final -143.53 input   66.30 | X-H torsion
[ 10763 10752 10751 10750 ] final  124.18 input  -60.55 | X-H torsion
[ 11005 11000 10999 10996 ] final  154.67 input  -57.11 | X-H torsion

> <Gold.Protein.ActiveResidues>
 VAL166  LYS551  ARG553  GLY616  TRP617  ASP618  TYR619  PRO620  LYS621  CYS622 
 ASP623  PHE694  ASN695  SER759  ASP760  ASP761  ALA762  ILE779  LEU786  VAL792 
 PHE793  MET794  SER795  GLU796  ALA797  LYS798  CYS799  TRP800  GLU811  SER814 

> <Gold.Protein.RotatedAtoms>
  152.5420  134.0699  159.8189 H   0  0  0  0  0  0  0  0  0  0  0  0  # atno 6907 bound_to 6896
  151.0815  133.5379  159.2627 H   0  0  0  0  0  0  0  0  0  0  0  0  # atno 6908 bound_to 6896
  151.2204  135.0525  159.9001 H   0  0  0  0  0  0  0  0  0  0  0  0  # atno 6909 bound_to 6896
  144.8306  139.6513  143.6060 H   0  0  0  0  0  0  0  0  0  0  0  0  # atno 7974 bound_to 7965
  155.1531  140.3276  155.4427 H   0  0  0  0  0  0  0  0  0  0  0  0  # atno 8008 bound_to 7997
  156.2568  140.1973  156.6592 H   0  0  0  0  0  0  0  0  0  0  0  0  # atno 8009 bound_to 7997
  154.6459  140.0564  156.9886 H   0  0  0  0  0  0  0  0  0  0  0  0  # atno 8010 bound_to 7997
  140.6946  143.6362  150.8477 H   0  0  0  0  0  0  0  0  0  0  0  0  # atno 10167 bound_to 10162
  156.3590  130.7728  151.1893 H   0  0  0  0  0  0  0  0  0  0  0  0  # atno 10718 bound_to 10713
  153.6573  135.3352  155.3117 H   0  0  0  0  0  0  0  0  0  0  0  0  # atno 10763 bound_to 10752
  154.8523  135.4355  154.1841 H   0  0  0  0  0  0  0  0  0  0  0  0  # atno 10764 bound_to 10752
  153.2799  135.7008  153.7471 H   0  0  0  0  0  0  0  0  0  0  0  0  # atno 10765 bound_to 10752
  140.1510  134.8675  157.2454 H   0  0  0  0  0  0  0  0  0  0  0  0  # atno 11005 bound_to 11000
  146.2609  139.6408  142.9362 LP  0  0  0  0  0  0  0  0  0  0  0  0  # atno 17320 bound_to 7965
  145.4904  141.0438  143.2596 LP  0  0  0  0  0  0  0  0  0  0  0  0  # atno 17321 bound_to 7965
  140.0079  143.5674  152.2850 LP  0  0  0  0  0  0  0  0  0  0  0  0  # atno 17342 bound_to 10162
  139.6387  144.7652  151.2383 LP  0  0  0  0  0  0  0  0  0  0  0  0  # atno 17343 bound_to 10162
  157.7471  131.0405  150.4603 LP  0  0  0  0  0  0  0  0  0  0  0  0  # atno 17370 bound_to 10713
  156.4811  130.4074  149.6461 LP  0  0  0  0  0  0  0  0  0  0  0  0  # atno 17371 bound_to 10713
  140.2605  134.3577  155.7408 LP  0  0  0  0  0  0  0  0  0  0  0  0  # atno 17394 bound_to 11000
  141.2199  133.7366  156.9072 LP  0  0  0  0  0  0  0  0  0  0  0  0  # atno 17395 bound_to 11000

$$$$
