AV-unprocessed.smi:949|AV-procd|sdf|4244|dock3
  -GOLD-   22720 2153D 1   1.00000     0.00000
 Structure written by MMmdl.
 33 34  0  0  0  0  0  0  0  0  2 V2000
  147.7381  131.7052  152.8762 C   0  0  0  0  0  0  0  0  0  0  0  0
  147.7291  133.1536  153.3973 C   0  0  2  0  0  0  0  0  0  0  0  0
  147.3816  134.0801  152.3249 N   0  0  0  0  0  0  0  0  0  0  0  0
  146.1272  134.0875  151.6889 C   0  0  0  0  0  0  0  0  0  0  0  0
  145.3545  132.9117  151.5114 C   0  0  0  0  0  0  0  0  0  0  0  0
  144.1037  132.9887  150.8671 C   0  0  0  0  0  0  0  0  0  0  0  0
  143.6470  134.1778  150.4235 N   0  3  0  0  0  0  0  0  0  0  0  0
  144.3424  135.3249  150.5679 C   0  0  0  0  0  0  0  0  0  0  0  0
  145.6015  135.3143  151.2047 C   0  0  0  0  0  0  0  0  0  0  0  0
  146.3002  136.5163  151.3426 N   0  0  0  0  0  0  0  0  0  0  0  0
  149.0942  133.5318  154.0050 C   0  0  1  0  0  0  0  0  0  0  0  0
  149.0904  134.8350  154.8086 C   0  0  0  0  0  0  0  0  0  0  0  0
  150.2550  134.6225  155.7473 C   0  0  0  0  0  0  0  0  0  0  0  0
  150.1069  133.1437  156.0859 C   0  0  0  0  0  0  0  0  0  0  0  0
  149.5157  132.5386  154.9389 O   0  0  0  0  0  0  0  0  0  0  0  0
  147.9642  130.9996  153.6761 H   0  0  0  0  0  0  0  0  0  0  0  0
  148.4887  131.5708  152.0964 H   0  0  0  0  0  0  0  0  0  0  0  0
  146.7737  131.4183  152.4575 H   0  0  0  0  0  0  0  0  0  0  0  0
  146.9886  133.2401  154.1925 H   0  0  0  0  0  0  0  0  0  0  0  0
  148.0784  134.7520  152.0373 H   0  0  0  0  0  0  0  0  0  0  0  0
  145.6978  131.9481  151.8552 H   0  0  0  0  0  0  0  0  0  0  0  0
  143.4599  132.1385  150.6941 H   0  0  0  0  0  0  0  0  0  0  0  0
  143.8709  136.2123  150.1710 H   0  0  0  0  0  0  0  0  0  0  0  0
  147.2041  136.5551  151.7917 H   0  0  0  0  0  0  0  0  0  0  0  0
  145.8952  137.3975  151.0605 H   0  0  0  0  0  0  0  0  0  0  0  0
  149.8544  133.5958  153.2244 H   0  0  0  0  0  0  0  0  0  0  0  0
  149.2036  135.7212  154.1835 H   0  0  0  0  0  0  0  0  0  0  0  0
  148.1658  134.9344  155.3797 H   0  0  0  0  0  0  0  0  0  0  0  0
  151.1957  134.7977  155.2233 H   0  0  0  0  0  0  0  0  0  0  0  0
  150.2249  135.2675  156.6257 H   0  0  0  0  0  0  0  0  0  0  0  0
  151.0592  132.6768  156.3382 H   0  0  0  0  0  0  0  0  0  0  0  0
  149.4308  133.0131  156.9317 H   0  0  0  0  0  0  0  0  0  0  0  0
  142.7387  134.2115  149.9599 H   0  0  0  0  0  0  0  0  0  0  0  0
  1  2  1  0  0  0  0
  1 16  1  0  0  0  0
  1 17  1  0  0  0  0
  1 18  1  0  0  0  0
  2  3  1  0  0  0  0
  2 11  1  0  0  0  0
  2 19  1  0  0  0  0
  3  4  1  0  0  0  0
  3 20  1  0  0  0  0
  4  9  1  0  0  0  0
  4  5  2  0  0  0  0
  5  6  1  0  0  0  0
  5 21  1  0  0  0  0
  6  7  2  0  0  0  0
  6 22  1  0  0  0  0
  7  8  1  0  0  0  0
  7 33  1  0  0  0  0
  8  9  2  0  0  0  0
  8 23  1  0  0  0  0
  9 10  1  0  0  0  0
 10 24  1  0  0  0  0
 10 25  1  0  0  0  0
 11 15  1  0  0  0  0
 11 12  1  0  0  0  0
 11 26  1  0  0  0  0
 12 13  1  0  0  0  0
 12 27  1  0  0  0  0
 12 28  1  0  0  0  0
 13 14  1  0  0  0  0
 13 29  1  0  0  0  0
 13 30  1  0  0  0  0
 14 15  1  0  0  0  0
 14 31  1  0  0  0  0
 14 32  1  0  0  0  0
M  CHG  1   7   1
M  END
> <s_m_source_file>
AV-unprocessed.smi

> <i_m_source_file_index>
949

> <i_lp_mmshare_version>
43012

> <i_f3d_flags>
0

> <s_epik_input>
TzFbQ0gyXVtDSDJdW0NIMl1bQ0BIXTFbQ0BIXShbQ0gzXSlbTkhdYzJbY0hdW2NIXW5bY0hdYzJbTkgyXQ==

> <s_epik_cmdline>
J2VwaWtfcHl0aG9uJywgJy1waCcsICc3LjAnLCAnLXRuJywgJzgnLCAnLW1hJywgJzIwMCcsICctbWV0YWxfYmluZGluZycsICctaW1hZScsICc8aW5maWxlLm1hZT4nLCAnLW9tYWUnLCAnPG91dGZpbGUubWFlPic=

> <r_epik_Ionization_Penalty>
0.000849261

> <r_epik_Ionization_Penalty_Charging>
0.000847912

> <r_epik_Ionization_Penalty_Neutral>
1.34939e-06

> <r_epik_State_Penalty>
0.000546618

> <r_epik_Charging_Adjusted_Penalty>
0.00139453

> <i_epik_Tot_Q>
1

> <i_epik_Tot_abs_Q>
1

> <r_epik_Metal_State_Penalty>
0.526583

> <b_epik_Metal_Only>
0

> <s_lp_Force_Field>
OPLS_2005

> <r_lp_Energy>
29.4206

> <b_lp_Chiralities_Consistent>
1

> <s_lp_Variant>
AV-unprocessed.smi:949-3

> <Gold.Version>
5.8.1

> <Gold.Id.Protein>
6NUR|6NUR_protein|mol2

> <Gold.PLP.Fitness>
39.0325

> <Gold.PLP.PLP>
-27.7055

> <Gold.PLP.part.hbond>
-3.0000

> <Gold.PLP.part.metal>
0.0000

> <Gold.PLP.part.buried>
-2.6417

> <Gold.PLP.part.nonpolar>
-21.9289

> <Gold.PLP.part.repulsive>
0.1483

> <Gold.PLP.ligand.clash>
0.0000

> <Gold.PLP.ligand.torsion>
0.3453

> <Gold.PLP.Chemscore.Hbond>
4.0000

> <Gold.PLP.Chemscore.CHOScore>
0.0000

> <Gold.PLP.Chemscore.Metal>
0.0000

> <Gold.Chemscore.Hbonds>
donor molecule, donor type, donor heavy atom, donor atom, acceptor molecule, acceptor atom, score
      L1  H     3    20       P1  7948  1.00
      L1  H     7    33       P1 10186  2.00
      L1  H    10    24       P1  7948  1.00

> <Gold.PLP.Chemscore.Internal.Correction>
0.0177

> <Gold.Rescore>
     Score         DG    S(hbond)    S(metal)    S(lipo)     H(rot)  DE(clash)    DE(int)     intcor
     18.09     -19.58       3.00        0.00      61.97       1.23       0.05       1.44       ----

> <Gold.Chemscore.Fitness>
18.0889

> <Gold.Chemscore.DG>
-19.5785

> <Gold.Chemscore.ZeroCoef>
-5.4800

> <Gold.Chemscore.Hbond>
2.9967

> <Gold.Chemscore.Metal>
0.0000

> <Gold.Chemscore.Lipo>
61.9678

> <Gold.Chemscore.Internal_Hbond>
0.0000

> <Gold.Chemscore.DEClash>
0.0468

> <Gold.Chemscore.DEInternal>
1.4427

> <Gold.Chemscore.Rot>
1.2347

> <Gold.Chemscore.Internal.Correction>
   9.000000E+99

> <Gold.Chemscore.Hbonds>
donor molecule, donor type, donor heavy atom, donor atom, acceptor molecule, acceptor atom, score
      L1  H     3    20       P1  7948  0.26
      L1  H     7    33       P1 10186  0.98
      L1  H    10    24       P1  7948  0.95

> <Gold.Chemscore.Hbond.Weighted>
-10.0091

> <Gold.Chemscore.Metal.Weighted>
-0.0000

> <Gold.Chemscore.Lipo.Weighted>
-7.2502

> <Gold.Chemscore.Internal_Hbond.Weighted>
0.0000

> <Gold.Chemscore.DEClash.Weighted>
0.0468

> <Gold.Chemscore.DEInternal.Weighted>
1.4427

> <Gold.Chemscore.Rot.Weighted>
3.1609

> <Gold.Chemscore.Internal.Correction.Weighted>
   9.000000E+99

> <Gold.Protein.RotatedTorsions>
[ 6907 6896 6895 6894 ] final  147.34 input  -60.11 | X-H torsion
[ 7974 7965 7964 7962 ] final   58.11 input  175.53 | X-H torsion
[ 8008 7997 7996 7995 ] final  -35.06 input   59.86 | X-H torsion
[ 10167 10162 10161 10158 ] final -153.03 input  -65.29 | X-H torsion
[ 10718 10713 10712 10709 ] final -124.00 input   66.30 | X-H torsion
[ 10763 10752 10751 10750 ] final  -34.12 input  -60.55 | X-H torsion
[ 11005 11000 10999 10996 ] final   59.35 input  -57.11 | X-H torsion

> <Gold.Protein.ActiveResidues>
 VAL166  LYS551  ARG553  GLY616  TRP617  ASP618  TYR619  PRO620  LYS621  CYS622 
 ASP623  PHE694  ASN695  SER759  ASP760  ASP761  ALA762  ILE779  LEU786  VAL792 
 PHE793  MET794  SER795  GLU796  ALA797  LYS798  CYS799  TRP800  GLU811  SER814 

> <Gold.Protein.RotatedAtoms>
  152.1560  133.4552  159.4836 H   0  0  0  0  0  0  0  0  0  0  0  0  # atno 6907 bound_to 6896
  150.6901  134.2130  159.4376 H   0  0  0  0  0  0  0  0  0  0  0  0  # atno 6908 bound_to 6896
  152.0030  134.9918  160.0616 H   0  0  0  0  0  0  0  0  0  0  0  0  # atno 6909 bound_to 6896
  145.9218  139.3735  143.0474 H   0  0  0  0  0  0  0  0  0  0  0  0  # atno 7974 bound_to 7965
  154.4105  140.1667  156.2150 H   0  0  0  0  0  0  0  0  0  0  0  0  # atno 8008 bound_to 7997
  155.9412  140.3408  155.6306 H   0  0  0  0  0  0  0  0  0  0  0  0  # atno 8009 bound_to 7997
  155.6986  140.0742  157.2410 H   0  0  0  0  0  0  0  0  0  0  0  0  # atno 8010 bound_to 7997
  139.7131  143.9077  152.2475 H   0  0  0  0  0  0  0  0  0  0  0  0  # atno 10167 bound_to 10162
  156.1550  130.6562  150.9969 H   0  0  0  0  0  0  0  0  0  0  0  0  # atno 10718 bound_to 10713
  153.8414  135.6857  153.4802 H   0  0  0  0  0  0  0  0  0  0  0  0  # atno 10763 bound_to 10752
  153.1451  135.4641  154.9552 H   0  0  0  0  0  0  0  0  0  0  0  0  # atno 10764 bound_to 10752
  154.7843  135.3279  154.7867 H   0  0  0  0  0  0  0  0  0  0  0  0  # atno 10765 bound_to 10752
  140.0310  134.6012  155.9507 H   0  0  0  0  0  0  0  0  0  0  0  0  # atno 11005 bound_to 11000
  145.8540  140.9513  143.0735 LP  0  0  0  0  0  0  0  0  0  0  0  0  # atno 17320 bound_to 7965
  144.6754  140.0444  143.7480 LP  0  0  0  0  0  0  0  0  0  0  0  0  # atno 17321 bound_to 7965
  139.8951  144.6943  150.8726 LP  0  0  0  0  0  0  0  0  0  0  0  0  # atno 17342 bound_to 10162
  140.7737  143.3556  151.1928 LP  0  0  0  0  0  0  0  0  0  0  0  0  # atno 17343 bound_to 10162
  157.6688  131.0866  150.7664 LP  0  0  0  0  0  0  0  0  0  0  0  0  # atno 17370 bound_to 10713
  156.7729  130.4834  149.5415 LP  0  0  0  0  0  0  0  0  0  0  0  0  # atno 17371 bound_to 10713
  141.1831  133.6550  156.5103 LP  0  0  0  0  0  0  0  0  0  0  0  0  # atno 17394 bound_to 11000
  140.4225  134.7174  157.4898 LP  0  0  0  0  0  0  0  0  0  0  0  0  # atno 17395 bound_to 11000

$$$$
