AV-unprocessed.smi:2095|AV-procd|sdf|8557|dock6
  -GOLD-   2272011283D 1   1.00000     0.00000
 Structure written by MMmdl.
 42 43  0  0  0  0  0  0  0  0  2 V2000
  145.2963  132.7532  150.2283 C   0  0  0  0  0  0  0  0  0  0  0  0
  145.9547  133.7001  151.2415 C   0  0  1  0  0  0  0  0  0  0  0  0
  144.9073  134.3670  152.1503 C   0  0  0  0  0  0  0  0  0  0  0  0
  145.5916  135.2873  153.1699 C   0  0  0  0  0  0  0  0  0  0  0  0
  146.6596  134.5260  153.9717 C   0  0  0  0  0  0  0  0  0  0  0  0
  147.6549  133.8996  153.0620 N   0  3  1  0  0  0  0  0  0  0  0  0
  148.8499  133.3579  153.7724 C   0  0  2  0  0  0  0  0  0  0  0  0
  148.5585  131.9550  154.3395 C   0  0  0  0  0  0  0  0  0  0  0  0
  149.4197  134.3269  154.8406 C   0  0  0  0  0  0  0  0  0  0  0  0
  149.9263  135.5582  154.2462 N   0  0  0  0  0  0  0  0  0  0  0  0
  150.5088  136.5565  154.9276 C   0  0  0  0  0  0  0  0  0  0  0  0
  150.7389  136.5088  156.1358 O   0  0  0  0  0  0  0  0  0  0  0  0
  150.8571  137.8119  154.1293 C   0  0  0  0  0  0  0  0  0  0  0  0
  151.3912  138.8370  155.0055 N   0  0  0  0  0  0  0  0  0  0  0  0
  152.3635  138.7899  155.9184 C   0  0  0  0  0  0  0  0  0  0  0  0
  152.5172  139.9551  156.5284 N   0  0  0  0  0  0  0  0  0  0  0  0
  151.5599  140.7549  155.9268 N   0  0  0  0  0  0  0  0  0  0  0  0
  150.8880  140.0969  155.0225 N   0  0  0  0  0  0  0  0  0  0  0  0
  147.0095  132.9687  152.0955 C   0  0  0  0  0  0  0  0  0  0  0  0
  144.7647  131.9433  150.7289 H   0  0  0  0  0  0  0  0  0  0  0  0
  146.0396  132.3050  149.5680 H   0  0  0  0  0  0  0  0  0  0  0  0
  144.5791  133.2850  149.6025 H   0  0  0  0  0  0  0  0  0  0  0  0
  146.4616  134.4840  150.6765 H   0  0  0  0  0  0  0  0  0  0  0  0
  144.1968  134.9392  151.5526 H   0  0  0  0  0  0  0  0  0  0  0  0
  144.3296  133.6047  152.6751 H   0  0  0  0  0  0  0  0  0  0  0  0
  146.0531  136.1289  152.6514 H   0  0  0  0  0  0  0  0  0  0  0  0
  144.8489  135.7112  153.8467 H   0  0  0  0  0  0  0  0  0  0  0  0
  147.1570  135.2210  154.6492 H   0  0  0  0  0  0  0  0  0  0  0  0
  146.1870  133.7625  154.5908 H   0  0  0  0  0  0  0  0  0  0  0  0
  149.6175  133.2098  153.0115 H   0  0  0  0  0  0  0  0  0  0  0  0
  149.4725  131.4697  154.6837 H   0  0  0  0  0  0  0  0  0  0  0  0
  148.1197  131.3074  153.5800 H   0  0  0  0  0  0  0  0  0  0  0  0
  147.8725  131.9909  155.1856 H   0  0  0  0  0  0  0  0  0  0  0  0
  148.6694  134.5716  155.5932 H   0  0  0  0  0  0  0  0  0  0  0  0
  150.2520  133.8652  155.3720 H   0  0  0  0  0  0  0  0  0  0  0  0
  149.7787  135.6830  153.2547 H   0  0  0  0  0  0  0  0  0  0  0  0
  151.6009  137.5774  153.3665 H   0  0  0  0  0  0  0  0  0  0  0  0
  149.9740  138.1953  153.6155 H   0  0  0  0  0  0  0  0  0  0  0  0
  152.9460  137.9078  156.1400 H   0  0  0  0  0  0  0  0  0  0  0  0
  146.5377  132.1444  152.6320 H   0  0  0  0  0  0  0  0  0  0  0  0
  147.7611  132.5323  151.4382 H   0  0  0  0  0  0  0  0  0  0  0  0
  148.0122  134.6634  152.5060 H   0  0  0  0  0  0  0  0  0  0  0  0
  1  2  1  0  0  0  0
  1 20  1  0  0  0  0
  1 21  1  0  0  0  0
  1 22  1  0  0  0  0
  2 19  1  0  0  0  0
  2  3  1  0  0  0  0
  2 23  1  0  0  0  0
  3  4  1  0  0  0  0
  3 24  1  0  0  0  0
  3 25  1  0  0  0  0
  4  5  1  0  0  0  0
  4 26  1  0  0  0  0
  4 27  1  0  0  0  0
  5  6  1  0  0  0  0
  5 28  1  0  0  0  0
  5 29  1  0  0  0  0
  6  7  1  0  0  0  0
  6 19  1  0  0  0  0
  6 42  1  0  0  0  0
  7  8  1  0  0  0  0
  7  9  1  0  0  0  0
  7 30  1  0  0  0  0
  8 31  1  0  0  0  0
  8 32  1  0  0  0  0
  8 33  1  0  0  0  0
  9 10  1  0  0  0  0
  9 34  1  0  0  0  0
  9 35  1  0  0  0  0
 10 11  1  0  0  0  0
 10 36  1  0  0  0  0
 11 12  2  0  0  0  0
 11 13  1  0  0  0  0
 13 14  1  0  0  0  0
 13 37  1  0  0  0  0
 13 38  1  0  0  0  0
 14 18  1  0  0  0  0
 14 15  1  0  0  0  0
 15 16  2  0  0  0  0
 15 39  1  0  0  0  0
 16 17  1  0  0  0  0
 17 18  2  0  0  0  0
 19 40  1  0  0  0  0
 19 41  1  0  0  0  0
M  CHG  1   6   1
M  END
> <s_m_source_file>
AV-unprocessed.smi

> <i_m_source_file_index>
2095

> <i_lp_mmshare_version>
43012

> <i_f3d_flags>
0

> <s_epik_input>
W0NIM11bQ0BASF0xW0NIMl1bQ0gyXVtDSDJdTihbQ0gyXTEpW0NASF0oW0NIM10pW0NIMl1bTkhdQyg9TylbQ0gyXW4yW2NIXW5ubjI=

> <s_epik_cmdline>
J2VwaWtfcHl0aG9uJywgJy1waCcsICc3LjAnLCAnLXRuJywgJzgnLCAnLW1hJywgJzIwMCcsICctbWV0YWxfYmluZGluZycsICctaW1hZScsICc8aW5maWxlLm1hZT4nLCAnLW9tYWUnLCAnPG91dGZpbGUubWFlPic=

> <r_lp_tautomer_probability>
1

> <r_epik_Ionization_Penalty>
0.00268321

> <r_epik_Ionization_Penalty_Charging>
0.00267875

> <r_epik_Ionization_Penalty_Neutral>
4.46125e-06

> <r_epik_State_Penalty>
0.00186642

> <r_epik_Charging_Adjusted_Penalty>
0.00454517

> <i_epik_Tot_Q>
1

> <i_epik_Tot_abs_Q>
1

> <r_epik_Metal_State_Penalty>
-0

> <b_epik_Metal_Only>
0

> <s_lp_Force_Field>
OPLS_2005

> <r_lp_Energy>
21.2581

> <b_lp_Chiralities_Consistent>
1

> <s_lp_Variant>
AV-unprocessed.smi:2095-4

> <Gold.Version>
5.8.1

> <Gold.Id.Protein>
6NUR|6NUR_protein|mol2

> <Gold.PLP.Fitness>
44.2630

> <Gold.PLP.PLP>
-31.9142

> <Gold.PLP.part.hbond>
-5.2267

> <Gold.PLP.part.metal>
0.0000

> <Gold.PLP.part.buried>
-1.4860

> <Gold.PLP.part.nonpolar>
-25.7159

> <Gold.PLP.part.repulsive>
0.1489

> <Gold.PLP.ligand.clash>
0.0000

> <Gold.PLP.ligand.torsion>
0.3362

> <Gold.PLP.Chemscore.Hbond>
4.3000

> <Gold.PLP.Chemscore.CHOScore>
0.0000

> <Gold.PLP.Chemscore.Metal>
0.0000

> <Gold.Chemscore.Hbonds>
donor molecule, donor type, donor heavy atom, donor atom, acceptor molecule, acceptor atom, score
      L1  H     6    42       P1  7948  2.00
      L1  H    10    36       P1  7948  0.40
      P1  H  7989  7998       L1    18  0.90
      P1  H  7997  8008       L1    16  1.00

> <Gold.PLP.Chemscore.Internal.Correction>
0.1212

> <Gold.Rescore>
     Score         DG    S(hbond)    S(metal)    S(lipo)     H(rot)  DE(clash)    DE(int)     intcor
      8.91     -11.71       2.10        0.00      51.24       2.64       1.08       1.71       ----

> <Gold.Chemscore.Fitness>
8.9141

> <Gold.Chemscore.DG>
-11.7063

> <Gold.Chemscore.ZeroCoef>
-5.4800

> <Gold.Chemscore.Hbond>
2.0958

> <Gold.Chemscore.Metal>
0.0000

> <Gold.Chemscore.Lipo>
51.2382

> <Gold.Chemscore.Internal_Hbond>
0.0000

> <Gold.Chemscore.DEClash>
1.0838

> <Gold.Chemscore.DEInternal>
1.7084

> <Gold.Chemscore.Rot>
2.6439

> <Gold.Chemscore.Internal.Correction>
   9.000000E+99

> <Gold.Chemscore.Hbonds>
donor molecule, donor type, donor heavy atom, donor atom, acceptor molecule, acceptor atom, score
      L1  H     6    42       P1  7948  0.55
      L1  H    10    36       P1  7948  0.01
      P1  H  7989  7998       L1    18  0.07
      P1  H  7997  8008       L1    16  0.26

> <Gold.Chemscore.Hbond.Weighted>
-6.9999

> <Gold.Chemscore.Metal.Weighted>
-0.0000

> <Gold.Chemscore.Lipo.Weighted>
-5.9949

> <Gold.Chemscore.Internal_Hbond.Weighted>
0.0000

> <Gold.Chemscore.DEClash.Weighted>
1.0838

> <Gold.Chemscore.DEInternal.Weighted>
1.7084

> <Gold.Chemscore.Rot.Weighted>
6.7685

> <Gold.Chemscore.Internal.Correction.Weighted>
   9.000000E+99

> <Gold.Protein.RotatedTorsions>
[ 6907 6896 6895 6894 ] final   -3.17 input  -60.11 | X-H torsion
[ 7974 7965 7964 7962 ] final -101.30 input  175.53 | X-H torsion
[ 8008 7997 7996 7995 ] final  -45.28 input   59.86 | X-H torsion
[ 10167 10162 10161 10158 ] final -158.72 input  -65.29 | X-H torsion
[ 10718 10713 10712 10709 ] final  -72.60 input   66.30 | X-H torsion
[ 10763 10752 10751 10750 ] final   66.88 input  -60.55 | X-H torsion
[ 11005 11000 10999 10996 ] final  134.44 input  -57.11 | X-H torsion

> <Gold.Protein.ActiveResidues>
 VAL166  LYS551  ARG553  GLY616  TRP617  ASP618  TYR619  PRO620  LYS621  CYS622 
 ASP623  PHE694  ASN695  SER759  ASP760  ASP761  ALA762  ILE779  LEU786  VAL792 
 PHE793  MET794  SER795  GLU796  ALA797  LYS798  CYS799  TRP800  GLU811  SER814 

> <Gold.Protein.RotatedAtoms>
  151.5180  135.1066  159.9870 H   0  0  0  0  0  0  0  0  0  0  0  0  # atno 6907 bound_to 6896
  152.4633  133.7864  159.6889 H   0  0  0  0  0  0  0  0  0  0  0  0  # atno 6908 bound_to 6896
  150.8604  133.7587  159.3019 H   0  0  0  0  0  0  0  0  0  0  0  0  # atno 6909 bound_to 6896
  145.2834  140.9333  143.2919 H   0  0  0  0  0  0  0  0  0  0  0  0  # atno 7974 bound_to 7965
  154.4000  140.1401  156.3821 H   0  0  0  0  0  0  0  0  0  0  0  0  # atno 8008 bound_to 7997
  155.7994  140.3476  155.5373 H   0  0  0  0  0  0  0  0  0  0  0  0  # atno 8009 bound_to 7997
  155.8499  140.0940  157.1672 H   0  0  0  0  0  0  0  0  0  0  0  0  # atno 8010 bound_to 7997
  139.6670  143.9811  152.2261 H   0  0  0  0  0  0  0  0  0  0  0  0  # atno 10167 bound_to 10162
  156.0314  130.4376  150.2617 H   0  0  0  0  0  0  0  0  0  0  0  0  # atno 10718 bound_to 10713
  153.0160  135.5304  154.6892 H   0  0  0  0  0  0  0  0  0  0  0  0  # atno 10763 bound_to 10752
  154.6031  135.2870  155.0516 H   0  0  0  0  0  0  0  0  0  0  0  0  # atno 10764 bound_to 10752
  154.1565  135.6554  153.5028 H   0  0  0  0  0  0  0  0  0  0  0  0  # atno 10765 bound_to 10752
  139.9915  134.9513  156.9866 H   0  0  0  0  0  0  0  0  0  0  0  0  # atno 11005 bound_to 11000
  144.9234  139.4384  143.6530 LP  0  0  0  0  0  0  0  0  0  0  0  0  # atno 17320 bound_to 7965
  146.3209  139.8106  142.8946 LP  0  0  0  0  0  0  0  0  0  0  0  0  # atno 17321 bound_to 7965
  139.9566  144.6586  150.8120 LP  0  0  0  0  0  0  0  0  0  0  0  0  # atno 17342 bound_to 10162
  140.7603  143.3148  151.2758 LP  0  0  0  0  0  0  0  0  0  0  0  0  # atno 17343 bound_to 10162
  157.0719  131.0119  151.3187 LP  0  0  0  0  0  0  0  0  0  0  0  0  # atno 17370 bound_to 10713
  157.4993  130.7870  149.7588 LP  0  0  0  0  0  0  0  0  0  0  0  0  # atno 17371 bound_to 10713
  140.4900  134.1203  155.7231 LP  0  0  0  0  0  0  0  0  0  0  0  0  # atno 17394 bound_to 11000
  141.1569  133.8865  157.1952 LP  0  0  0  0  0  0  0  0  0  0  0  0  # atno 17395 bound_to 11000

$$$$
