AV-unprocessed.smi:3113|AV-procd|sdf|11853|dock1
  -GOLD-   2272017233D 1   1.00000     0.00000
 Structure written by MMmdl.
 35 36  0  0  0  0  0  0  0  0  2 V2000
  151.3825  137.6120  154.7874 C   0  0  0  0  0  0  0  0  0  0  0  0
  150.9398  138.5516  153.8144 C   0  0  0  0  0  0  0  0  0  0  0  0
  151.0066  139.8014  154.2448 N   0  0  0  0  0  0  0  0  0  0  0  0
  151.4889  139.7008  155.5020 N   0  0  0  0  0  0  0  0  0  0  0  0
  151.6963  140.9009  156.2884 C   0  0  0  0  0  0  0  0  0  0  0  0
  150.7724  142.0405  155.8368 C   0  0  0  0  0  0  0  0  0  0  0  0
  150.8433  143.1802  156.7708 N   0  3  0  0  0  0  0  0  0  0  0  0
  152.2063  143.7113  156.9695 C   0  0  0  0  0  0  0  0  0  0  0  0
  152.5061  143.9176  158.4610 C   0  0  1  0  0  0  0  0  0  0  0  0
  151.7085  145.0962  159.0521 C   0  0  0  0  0  0  0  0  0  0  0  0
  151.9679  145.2197  160.5579 C   0  0  0  0  0  0  0  0  0  0  0  0
  151.6993  143.8753  161.2423 C   0  0  0  0  0  0  0  0  0  0  0  0
  152.4766  142.7510  160.5391 C   0  0  0  0  0  0  0  0  0  0  0  0
  152.1471  142.7234  159.1532 O   0  0  0  0  0  0  0  0  0  0  0  0
  151.7255  138.3892  155.8566 C   0  0  0  0  0  0  0  0  0  0  0  0
  151.4389  136.5362  154.7117 H   0  0  0  0  0  0  0  0  0  0  0  0
  150.5758  138.3638  152.8149 H   0  0  0  0  0  0  0  0  0  0  0  0
  151.5260  140.6626  157.3395 H   0  0  0  0  0  0  0  0  0  0  0  0
  152.7417  141.1983  156.1965 H   0  0  0  0  0  0  0  0  0  0  0  0
  151.0556  142.3757  154.8380 H   0  0  0  0  0  0  0  0  0  0  0  0
  149.7409  141.6895  155.7805 H   0  0  0  0  0  0  0  0  0  0  0  0
  150.2612  143.9250  156.4138 H   0  0  0  0  0  0  0  0  0  0  0  0
  152.9200  143.0043  156.5443 H   0  0  0  0  0  0  0  0  0  0  0  0
  152.3202  144.6504  156.4259 H   0  0  0  0  0  0  0  0  0  0  0  0
  153.5743  144.1053  158.5871 H   0  0  0  0  0  0  0  0  0  0  0  0
  151.9791  146.0264  158.5515 H   0  0  0  0  0  0  0  0  0  0  0  0
  150.6424  144.9455  158.8768 H   0  0  0  0  0  0  0  0  0  0  0  0
  153.0026  145.5192  160.7288 H   0  0  0  0  0  0  0  0  0  0  0  0
  151.3404  145.9993  160.9906 H   0  0  0  0  0  0  0  0  0  0  0  0
  151.9777  143.9256  162.2954 H   0  0  0  0  0  0  0  0  0  0  0  0
  150.6315  143.6543  161.2111 H   0  0  0  0  0  0  0  0  0  0  0  0
  153.5524  142.8829  160.6648 H   0  0  0  0  0  0  0  0  0  0  0  0
  152.2217  141.7874  160.9806 H   0  0  0  0  0  0  0  0  0  0  0  0
  152.1148  138.1203  156.8275 H   0  0  0  0  0  0  0  0  0  0  0  0
  150.4791  142.8864  157.6658 H   0  0  0  0  0  0  0  0  0  0  0  0
  1 15  2  0  0  0  0
  1  2  1  0  0  0  0
  1 16  1  0  0  0  0
  2  3  2  0  0  0  0
  2 17  1  0  0  0  0
  3  4  1  0  0  0  0
  4  5  1  0  0  0  0
  4 15  1  0  0  0  0
  5  6  1  0  0  0  0
  5 18  1  0  0  0  0
  5 19  1  0  0  0  0
  6  7  1  0  0  0  0
  6 20  1  0  0  0  0
  6 21  1  0  0  0  0
  7  8  1  0  0  0  0
  7 22  1  0  0  0  0
  7 35  1  0  0  0  0
  8  9  1  0  0  0  0
  8 23  1  0  0  0  0
  8 24  1  0  0  0  0
  9 14  1  0  0  0  0
  9 10  1  0  0  0  0
  9 25  1  0  0  0  0
 10 11  1  0  0  0  0
 10 26  1  0  0  0  0
 10 27  1  0  0  0  0
 11 12  1  0  0  0  0
 11 28  1  0  0  0  0
 11 29  1  0  0  0  0
 12 13  1  0  0  0  0
 12 30  1  0  0  0  0
 12 31  1  0  0  0  0
 13 14  1  0  0  0  0
 13 32  1  0  0  0  0
 13 33  1  0  0  0  0
 15 34  1  0  0  0  0
M  CHG  1   7   1
M  END
> <s_m_source_file>
AV-unprocessed.smi

> <i_m_source_file_index>
3113

> <i_lp_mmshare_version>
43012

> <i_f3d_flags>
0

> <s_epik_input>
W2NIXTFbY0hdW2NIXW5uMVtDSDJdW0NIMl1bTkhdW0NIMl1bQ0BASF0yW0NIMl1bQ0gyXVtDSDJdW0NIMl1PMg==

> <s_epik_cmdline>
J2VwaWtfcHl0aG9uJywgJy1waCcsICc3LjAnLCAnLXRuJywgJzgnLCAnLW1hJywgJzIwMCcsICctbWV0YWxfYmluZGluZycsICctaW1hZScsICc8aW5maWxlLm1hZT4nLCAnLW9tYWUnLCAnPG91dGZpbGUubWFlPic=

> <r_lp_tautomer_probability>
1

> <r_epik_Ionization_Penalty>
0.00849054

> <r_epik_Ionization_Penalty_Charging>
0.00848754

> <r_epik_Ionization_Penalty_Neutral>
3.00382e-06

> <r_epik_State_Penalty>
0.00639836

> <r_epik_Charging_Adjusted_Penalty>
0.0148859

> <i_epik_Tot_Q>
1

> <i_epik_Tot_abs_Q>
1

> <r_epik_Metal_State_Penalty>
0.00641155

> <b_epik_Metal_Only>
0

> <s_lp_Force_Field>
OPLS_2005

> <r_lp_Energy>
10.7636

> <b_lp_Chiralities_Consistent>
1

> <s_lp_Variant>
AV-unprocessed.smi:3113-2

> <Gold.Version>
5.8.1

> <Gold.Id.Protein>
6NUR|6NUR_protein|mol2

> <Gold.PLP.Fitness>
51.9967

> <Gold.PLP.PLP>
-38.7970

> <Gold.PLP.part.hbond>
-2.0000

> <Gold.PLP.part.metal>
0.0000

> <Gold.PLP.part.buried>
-6.0125

> <Gold.PLP.part.nonpolar>
-32.0559

> <Gold.PLP.part.repulsive>
0.1488

> <Gold.PLP.ligand.clash>
0.0000

> <Gold.PLP.ligand.torsion>
0.7718

> <Gold.PLP.Chemscore.Hbond>
3.0000

> <Gold.PLP.Chemscore.CHOScore>
1.8611

> <Gold.PLP.Chemscore.Metal>
0.0000

> <Gold.Chemscore.Hbonds>
donor molecule, donor type, donor heavy atom, donor atom, acceptor molecule, acceptor atom, score
      L1  H     7    22       P1  8028  2.00
      P1  H  7989  7998       L1     3  0.78
      L1  C     2    17       P1  7948  0.22
      L1  C     2    17       P1  7949  0.20
      L1  C     2    17       P1  7957  0.71

> <Gold.PLP.Chemscore.Internal.Correction>
0.1600

> <Gold.Rescore>
     Score         DG    S(hbond)    S(metal)    S(lipo)     H(rot)  DE(clash)    DE(int)     intcor
     18.80     -20.19       1.94        0.00     107.53       1.70       0.55       0.84       ----

> <Gold.Chemscore.Fitness>
18.8047

> <Gold.Chemscore.DG>
-20.1921

> <Gold.Chemscore.ZeroCoef>
-5.4800

> <Gold.Chemscore.Hbond>
1.9399

> <Gold.Chemscore.Metal>
0.0000

> <Gold.Chemscore.Lipo>
107.5297

> <Gold.Chemscore.Internal_Hbond>
0.0000

> <Gold.Chemscore.DEClash>
0.5452

> <Gold.Chemscore.DEInternal>
0.8423

> <Gold.Chemscore.Rot>
1.6985

> <Gold.Chemscore.Internal.Correction>
   9.000000E+99

> <Gold.Chemscore.Hbonds>
donor molecule, donor type, donor heavy atom, donor atom, acceptor molecule, acceptor atom, score
      L1  H     7    22       P1  8028  1.00
      P1  H  7989  7998       L1     3  0.65

> <Gold.Chemscore.Hbond.Weighted>
-6.4793

> <Gold.Chemscore.Metal.Weighted>
-0.0000

> <Gold.Chemscore.Lipo.Weighted>
-12.5810

> <Gold.Chemscore.Internal_Hbond.Weighted>
0.0000

> <Gold.Chemscore.DEClash.Weighted>
0.5452

> <Gold.Chemscore.DEInternal.Weighted>
0.8423

> <Gold.Chemscore.Rot.Weighted>
4.3482

> <Gold.Chemscore.Internal.Correction.Weighted>
   9.000000E+99

> <Gold.Protein.RotatedTorsions>
[ 6907 6896 6895 6894 ] final  -42.17 input  -60.11 | X-H torsion
[ 7974 7965 7964 7962 ] final  114.73 input  175.53 | X-H torsion
[ 8008 7997 7996 7995 ] final    1.22 input   59.86 | X-H torsion
[ 10167 10162 10161 10158 ] final  119.90 input  -65.29 | X-H torsion
[ 10718 10713 10712 10709 ] final  155.47 input   66.30 | X-H torsion
[ 10763 10752 10751 10750 ] final  153.20 input  -60.55 | X-H torsion
[ 11005 11000 10999 10996 ] final   11.41 input  -57.11 | X-H torsion

> <Gold.Protein.ActiveResidues>
 VAL166  LYS551  ARG553  GLY616  TRP617  ASP618  TYR619  PRO620  LYS621  CYS622 
 ASP623  PHE694  ASN695  SER759  ASP760  ASP761  ALA762  ILE779  LEU786  VAL792 
 PHE793  MET794  SER795  GLU796  ALA797  LYS798  CYS799  TRP800  GLU811  SER814 

> <Gold.Protein.RotatedAtoms>
  150.9582  134.8974  159.7714 H   0  0  0  0  0  0  0  0  0  0  0  0  # atno 6907 bound_to 6896
  152.5146  134.3709  159.9328 H   0  0  0  0  0  0  0  0  0  0  0  0  # atno 6908 bound_to 6896
  151.3723  133.3810  159.2735 H   0  0  0  0  0  0  0  0  0  0  0  0  # atno 6909 bound_to 6896
  145.2007  139.2953  143.4319 H   0  0  0  0  0  0  0  0  0  0  0  0  # atno 7974 bound_to 7965
  154.6772  140.2625  155.6945 H   0  0  0  0  0  0  0  0  0  0  0  0  # atno 8008 bound_to 7997
  156.2683  140.2817  156.1226 H   0  0  0  0  0  0  0  0  0  0  0  0  # atno 8009 bound_to 7997
  155.1083  140.0375  157.2707 H   0  0  0  0  0  0  0  0  0  0  0  0  # atno 8010 bound_to 7997
  139.6016  144.7058  151.3049 H   0  0  0  0  0  0  0  0  0  0  0  0  # atno 10167 bound_to 10162
  157.2179  131.0712  151.1930 H   0  0  0  0  0  0  0  0  0  0  0  0  # atno 10718 bound_to 10713
  154.1324  135.2826  155.3182 H   0  0  0  0  0  0  0  0  0  0  0  0  # atno 10763 bound_to 10752
  154.6346  135.5423  153.7723 H   0  0  0  0  0  0  0  0  0  0  0  0  # atno 10764 bound_to 10752
  153.0277  135.6471  154.1474 H   0  0  0  0  0  0  0  0  0  0  0  0  # atno 10765 bound_to 10752
  140.5035  134.0722  155.7800 H   0  0  0  0  0  0  0  0  0  0  0  0  # atno 11005 bound_to 11000
  146.3418  140.2251  142.8592 LP  0  0  0  0  0  0  0  0  0  0  0  0  # atno 17320 bound_to 7965
  144.9950  140.8581  143.5316 LP  0  0  0  0  0  0  0  0  0  0  0  0  # atno 17321 bound_to 7965
  140.7254  143.7019  150.7838 LP  0  0  0  0  0  0  0  0  0  0  0  0  # atno 17342 bound_to 10162
  140.0596  143.5168  152.2634 LP  0  0  0  0  0  0  0  0  0  0  0  0  # atno 17343 bound_to 10162
  157.3606  130.7129  149.6499 LP  0  0  0  0  0  0  0  0  0  0  0  0  # atno 17370 bound_to 10713
  155.9685  130.4226  150.4526 LP  0  0  0  0  0  0  0  0  0  0  0  0  # atno 17371 bound_to 10713
  141.1423  133.9117  157.2297 LP  0  0  0  0  0  0  0  0  0  0  0  0  # atno 17394 bound_to 11000
  139.9699  135.0131  156.9485 LP  0  0  0  0  0  0  0  0  0  0  0  0  # atno 17395 bound_to 11000

$$$$
