AV-unprocessed.smi:2563|AV-procd|sdf|10057|dock9
  -GOLD-   2272014 93D 1   1.00000     0.00000
 Structure written by MMmdl.
 35 36  0  0  0  0  0  0  0  0  2 V2000
  149.5328  142.2237  157.6597 C   0  0  0  0  0  0  0  0  0  0  0  0
  150.6587  142.0159  156.6383 C   0  0  0  0  0  0  0  0  0  0  0  0
  151.5219  140.8873  156.9891 N   0  0  0  0  0  0  0  0  0  0  0  0
  151.4225  139.6616  156.1989 C   0  0  0  0  0  0  0  0  0  0  0  0
  150.4213  139.7930  155.0377 C   0  0  1  0  0  0  0  0  0  0  0  0
  150.3985  138.5253  154.1614 C   0  0  0  0  0  0  0  0  0  0  0  0
  149.3704  138.6496  153.1093 N   0  3  0  0  0  0  0  0  0  0  0  0
  148.0433  138.9524  153.6794 C   0  0  0  0  0  0  0  0  0  0  0  0
  148.1288  140.1952  154.5807 C   0  0  0  0  0  0  0  0  0  0  0  0
  149.1177  139.9849  155.5827 O   0  0  0  0  0  0  0  0  0  0  0  0
  152.3410  140.9411  158.1435 C   0  0  0  0  0  0  0  0  0  0  0  0
  152.2281  141.9860  159.0938 C   0  0  0  0  0  0  0  0  0  0  0  0
  153.0809  141.9633  160.2105 C   0  0  0  0  0  0  0  0  0  0  0  0
  153.9914  140.8979  160.3074 C   0  0  0  0  0  0  0  0  0  0  0  0
  154.0629  139.9204  159.3792 N   0  0  0  0  0  0  0  0  0  0  0  0
  153.2496  139.9461  158.3183 N   0  0  0  0  0  0  0  0  0  0  0  0
  148.8948  143.0570  157.3655 H   0  0  0  0  0  0  0  0  0  0  0  0
  149.9312  142.4462  158.6498 H   0  0  0  0  0  0  0  0  0  0  0  0
  148.9036  141.3373  157.7431 H   0  0  0  0  0  0  0  0  0  0  0  0
  150.2175  141.8251  155.6597 H   0  0  0  0  0  0  0  0  0  0  0  0
  151.2394  142.9310  156.5202 H   0  0  0  0  0  0  0  0  0  0  0  0
  152.4080  139.3789  155.8289 H   0  0  0  0  0  0  0  0  0  0  0  0
  151.1167  138.8400  156.8481 H   0  0  0  0  0  0  0  0  0  0  0  0
  150.6886  140.6526  154.4203 H   0  0  0  0  0  0  0  0  0  0  0  0
  151.3698  138.3641  153.6929 H   0  0  0  0  0  0  0  0  0  0  0  0
  150.1842  137.6449  154.7688 H   0  0  0  0  0  0  0  0  0  0  0  0
  149.6333  139.4013  152.4881 H   0  0  0  0  0  0  0  0  0  0  0  0
  147.3290  139.1110  152.8715 H   0  0  0  0  0  0  0  0  0  0  0  0
  147.6953  138.0932  154.2541 H   0  0  0  0  0  0  0  0  0  0  0  0
  148.3675  141.0866  153.9982 H   0  0  0  0  0  0  0  0  0  0  0  0
  147.1685  140.3777  155.0630 H   0  0  0  0  0  0  0  0  0  0  0  0
  151.5130  142.7879  158.9962 H   0  0  0  0  0  0  0  0  0  0  0  0
  153.0384  142.7333  160.9664 H   0  0  0  0  0  0  0  0  0  0  0  0
  154.6722  140.8260  161.1426 H   0  0  0  0  0  0  0  0  0  0  0  0
  149.3214  137.7888  152.5829 H   0  0  0  0  0  0  0  0  0  0  0  0
  1  2  1  0  0  0  0
  1 17  1  0  0  0  0
  1 18  1  0  0  0  0
  1 19  1  0  0  0  0
  2  3  1  0  0  0  0
  2 20  1  0  0  0  0
  2 21  1  0  0  0  0
  3  4  1  0  0  0  0
  3 11  1  0  0  0  0
  4  5  1  0  0  0  0
  4 22  1  0  0  0  0
  4 23  1  0  0  0  0
  5 10  1  0  0  0  0
  5  6  1  0  0  0  0
  5 24  1  0  0  0  0
  6  7  1  0  0  0  0
  6 25  1  0  0  0  0
  6 26  1  0  0  0  0
  7  8  1  0  0  0  0
  7 27  1  0  0  0  0
  7 35  1  0  0  0  0
  8  9  1  0  0  0  0
  8 28  1  0  0  0  0
  8 29  1  0  0  0  0
  9 10  1  0  0  0  0
  9 30  1  0  0  0  0
  9 31  1  0  0  0  0
 11 16  1  0  0  0  0
 11 12  2  0  0  0  0
 12 13  1  0  0  0  0
 12 32  1  0  0  0  0
 13 14  2  0  0  0  0
 13 33  1  0  0  0  0
 14 15  1  0  0  0  0
 14 34  1  0  0  0  0
 15 16  2  0  0  0  0
M  CHG  1   7   1
M  END
> <s_m_source_file>
AV-unprocessed.smi

> <i_m_source_file_index>
2563

> <i_lp_mmshare_version>
43012

> <i_f3d_flags>
0

> <s_epik_input>
bjFuW2NIXVtjSF1bY0hdYzFOKFtDSDJdW0NIM10pW0NIMl1bQ0BASF0yW0NIMl1bTkhdW0NIMl1bQ0gyXU8y

> <s_epik_cmdline>
J2VwaWtfcHl0aG9uJywgJy1waCcsICc3LjAnLCAnLXRuJywgJzgnLCAnLW1hJywgJzIwMCcsICctbWV0YWxfYmluZGluZycsICctaW1hZScsICc8aW5maWxlLm1hZT4nLCAnLW9tYWUnLCAnPG91dGZpbGUubWFlPic=

> <r_lp_tautomer_probability>
1

> <r_epik_Ionization_Penalty>
0.0472862

> <r_epik_Ionization_Penalty_Charging>
0.0127794

> <r_epik_Ionization_Penalty_Neutral>
0.0345068

> <r_epik_State_Penalty>
0.0614045

> <r_epik_Charging_Adjusted_Penalty>
0.0741839

> <i_epik_Tot_Q>
1

> <i_epik_Tot_abs_Q>
1

> <r_epik_Metal_State_Penalty>
0.0547208

> <b_epik_Metal_Only>
0

> <s_lp_Force_Field>
OPLS_2005

> <r_lp_Energy>
26.038

> <b_lp_Chiralities_Consistent>
1

> <s_lp_Variant>
AV-unprocessed.smi:2563-2

> <Gold.Version>
5.8.1

> <Gold.Id.Protein>
6NUR|6NUR_protein|mol2

> <Gold.PLP.Fitness>
42.8520

> <Gold.PLP.PLP>
-31.1727

> <Gold.PLP.part.hbond>
-3.1054

> <Gold.PLP.part.metal>
0.0000

> <Gold.PLP.part.buried>
-2.5832

> <Gold.PLP.part.nonpolar>
-24.9468

> <Gold.PLP.part.repulsive>
0.1363

> <Gold.PLP.ligand.clash>
0.0206

> <Gold.PLP.ligand.torsion>
0.1747

> <Gold.PLP.Chemscore.Hbond>
4.0000

> <Gold.PLP.Chemscore.CHOScore>
0.0000

> <Gold.PLP.Chemscore.Metal>
0.0000

> <Gold.Chemscore.Hbonds>
donor molecule, donor type, donor heavy atom, donor atom, acceptor molecule, acceptor atom, score
      L1  H     7    27       P1  7957  0.84
      L1  H     7    35       P1  7948  2.00
      P1  H  7997  8008       L1    16  1.00

> <Gold.PLP.Chemscore.Internal.Correction>
0.0495

> <Gold.Rescore>
     Score         DG    S(hbond)    S(metal)    S(lipo)     H(rot)  DE(clash)    DE(int)     intcor
     14.99     -17.62       2.18        0.00      72.19       1.40       0.00       2.63       ----

> <Gold.Chemscore.Fitness>
14.9896

> <Gold.Chemscore.DG>
-17.6178

> <Gold.Chemscore.ZeroCoef>
-5.4800

> <Gold.Chemscore.Hbond>
2.1808

> <Gold.Chemscore.Metal>
0.0000

> <Gold.Chemscore.Lipo>
72.1921

> <Gold.Chemscore.Internal_Hbond>
0.0000

> <Gold.Chemscore.DEClash>
0.0021

> <Gold.Chemscore.DEInternal>
2.6261

> <Gold.Chemscore.Rot>
1.4033

> <Gold.Chemscore.Internal.Correction>
   9.000000E+99

> <Gold.Chemscore.Hbonds>
donor molecule, donor type, donor heavy atom, donor atom, acceptor molecule, acceptor atom, score
      L1  H     7    27       P1  7957  0.77
      L1  H     7    35       P1  7948  0.88
      P1  H  7997  8008       L1    16  0.19

> <Gold.Chemscore.Hbond.Weighted>
-7.2837

> <Gold.Chemscore.Metal.Weighted>
-0.0000

> <Gold.Chemscore.Lipo.Weighted>
-8.4465

> <Gold.Chemscore.Internal_Hbond.Weighted>
0.0000

> <Gold.Chemscore.DEClash.Weighted>
0.0021

> <Gold.Chemscore.DEInternal.Weighted>
2.6261

> <Gold.Chemscore.Rot.Weighted>
3.5924

> <Gold.Chemscore.Internal.Correction.Weighted>
   9.000000E+99

> <Gold.Protein.RotatedTorsions>
[ 6907 6896 6895 6894 ] final  -20.95 input  -60.11 | X-H torsion
[ 7974 7965 7964 7962 ] final -103.52 input  175.53 | X-H torsion
[ 8008 7997 7996 7995 ] final  -76.56 input   59.86 | X-H torsion
[ 10167 10162 10161 10158 ] final   76.60 input  -65.29 | X-H torsion
[ 10718 10713 10712 10709 ] final -167.99 input   66.30 | X-H torsion
[ 10763 10752 10751 10750 ] final   33.25 input  -60.55 | X-H torsion
[ 11005 11000 10999 10996 ] final  -28.25 input  -57.11 | X-H torsion

> <Gold.Protein.ActiveResidues>
 VAL166  LYS551  ARG553  GLY616  TRP617  ASP618  TYR619  PRO620  LYS621  CYS622 
 ASP623  PHE694  ASN695  SER759  ASP760  ASP761  ALA762  ILE779  LEU786  VAL792 
 PHE793  MET794  SER795  GLU796  ALA797  LYS798  CYS799  TRP800  GLU811  SER814 

> <Gold.Protein.RotatedAtoms>
  151.2405  135.0587  159.9022 H   0  0  0  0  0  0  0  0  0  0  0  0  # atno 6907 bound_to 6896
  152.5393  134.0439  159.8090 H   0  0  0  0  0  0  0  0  0  0  0  0  # atno 6908 bound_to 6896
  151.0632  133.5478  159.2664 H   0  0  0  0  0  0  0  0  0  0  0  0  # atno 6909 bound_to 6896
  145.2548  140.9250  143.3074 H   0  0  0  0  0  0  0  0  0  0  0  0  # atno 7974 bound_to 7965
  154.5516  140.0725  156.8676 H   0  0  0  0  0  0  0  0  0  0  0  0  # atno 8008 bound_to 7997
  155.2982  140.3382  155.4231 H   0  0  0  0  0  0  0  0  0  0  0  0  # atno 8009 bound_to 7997
  156.1966  140.1706  156.7971 H   0  0  0  0  0  0  0  0  0  0  0  0  # atno 8010 bound_to 7997
  139.9906  144.5760  150.7821 H   0  0  0  0  0  0  0  0  0  0  0  0  # atno 10167 bound_to 10162
  156.6904  130.9157  151.3068 H   0  0  0  0  0  0  0  0  0  0  0  0  # atno 10718 bound_to 10713
  153.0221  135.6392  154.1482 H   0  0  0  0  0  0  0  0  0  0  0  0  # atno 10763 bound_to 10752
  154.1215  135.2846  155.3209 H   0  0  0  0  0  0  0  0  0  0  0  0  # atno 10764 bound_to 10752
  154.6260  135.5509  153.7689 H   0  0  0  0  0  0  0  0  0  0  0  0  # atno 10765 bound_to 10752
  140.9192  133.7410  156.0777 H   0  0  0  0  0  0  0  0  0  0  0  0  # atno 11005 bound_to 11000
  144.9470  139.4124  143.6421 LP  0  0  0  0  0  0  0  0  0  0  0  0  # atno 17320 bound_to 7965
  146.3292  139.8459  142.8882 LP  0  0  0  0  0  0  0  0  0  0  0  0  # atno 17321 bound_to 7965
  140.7456  143.2878  151.3414 LP  0  0  0  0  0  0  0  0  0  0  0  0  # atno 17342 bound_to 10162
  139.6343  144.0660  152.2502 LP  0  0  0  0  0  0  0  0  0  0  0  0  # atno 17343 bound_to 10162
  157.7011  130.9334  150.0788 LP  0  0  0  0  0  0  0  0  0  0  0  0  # atno 17370 bound_to 10713
  156.1802  130.3650  149.9046 LP  0  0  0  0  0  0  0  0  0  0  0  0  # atno 17371 bound_to 10713
  140.8010  134.3508  157.5439 LP  0  0  0  0  0  0  0  0  0  0  0  0  # atno 17394 bound_to 11000
  139.8772  134.9198  156.3235 LP  0  0  0  0  0  0  0  0  0  0  0  0  # atno 17395 bound_to 11000

$$$$
