AV-unprocessed.smi:12|AV-procd|sdf|63|dock7
  -GOLD-   2262015183D 1   1.00000     0.00000
 Structure written by MMmdl.
 41 44  0  0  0  0  0  0  0  0  1 V2000
  144.6983  143.5075  156.2949 C   0  0  0  0  0  0  0  0  0  0  0  0
  145.3739  142.2836  155.7029 C   0  0  0  0  0  0  0  0  0  0  0  0
  146.6482  142.3248  155.2472 C   0  0  0  0  0  0  0  0  0  0  0  0
  147.2110  141.1933  154.7264 N   0  0  0  0  0  0  0  0  0  0  0  0
  146.4547  140.0036  154.6547 C   0  0  0  0  0  0  0  0  0  0  0  0
  145.2319  139.8837  155.0692 N   0  0  0  0  0  0  0  0  0  0  0  0
  144.6067  141.0147  155.6291 C   0  0  0  0  0  0  0  0  0  0  0  0
  143.4503  140.9474  156.0432 O   0  0  0  0  0  0  0  0  0  0  0  0
  147.2114  139.0328  154.0727 O   0  0  0  0  0  0  0  0  0  0  0  0
  148.4983  139.5622  153.7259 C   0  0  2  0  0  0  0  0  0  0  0  0
  149.6063  138.8938  154.5349 C   0  0  1  0  0  0  0  0  0  0  0  0
  150.3873  138.0494  153.7133 O   0  0  0  0  0  0  0  0  0  0  0  0
  150.4283  140.0743  155.0614 C   0  0  2  0  0  0  0  0  0  0  0  0
  151.1524  139.8033  156.3860 C   0  0  0  0  0  0  0  0  0  0  0  0
  151.6118  141.0305  156.9289 O   0  0  0  0  0  0  0  0  0  0  0  0
  152.4047  141.0343  158.0177 C   0  0  0  0  0  0  0  0  0  0  0  0
  153.1100  140.0801  158.3515 O   0  0  0  0  0  0  0  0  0  0  0  0
  152.3363  142.3149  158.7795 C   0  0  0  0  0  0  0  0  0  0  0  0
  152.6223  142.3138  160.1650 C   0  0  0  0  0  0  0  0  0  0  0  0
  152.5614  143.5068  160.9111 C   0  0  0  0  0  0  0  0  0  0  0  0
  152.2147  144.7162  160.2807 C   0  0  0  0  0  0  0  0  0  0  0  0
  151.9308  144.7313  158.9026 C   0  0  0  0  0  0  0  0  0  0  0  0
  151.9905  143.5390  158.1550 C   0  0  0  0  0  0  0  0  0  0  0  0
  149.4636  141.0985  155.2412 O   0  0  0  0  0  0  0  0  0  0  0  0
  148.5597  141.0311  154.1862 C   0  0  2  0  0  0  0  0  0  0  0  0
  145.3678  144.3683  156.2954 H   0  0  0  0  0  0  0  0  0  0  0  0
  144.3953  143.3158  157.3248 H   0  0  0  0  0  0  0  0  0  0  0  0
  143.8113  143.7706  155.7179 H   0  0  0  0  0  0  0  0  0  0  0  0
  147.2272  143.2357  155.2933 H   0  0  0  0  0  0  0  0  0  0  0  0
  148.6667  139.5207  152.6485 H   0  0  0  0  0  0  0  0  0  0  0  0
  149.1807  138.3252  155.3634 H   0  0  0  0  0  0  0  0  0  0  0  0
  149.8157  137.4176  153.3040 H   0  0  0  0  0  0  0  0  0  0  0  0
  151.1356  140.4190  154.3041 H   0  0  0  0  0  0  0  0  0  0  0  0
  150.4660  139.3327  157.0914 H   0  0  0  0  0  0  0  0  0  0  0  0
  151.9874  139.1181  156.2337 H   0  0  0  0  0  0  0  0  0  0  0  0
  152.8898  141.3974  160.6712 H   0  0  0  0  0  0  0  0  0  0  0  0
  152.7804  143.4932  161.9687 H   0  0  0  0  0  0  0  0  0  0  0  0
  152.1669  145.6308  160.8533 H   0  0  0  0  0  0  0  0  0  0  0  0
  151.6659  145.6590  158.4171 H   0  0  0  0  0  0  0  0  0  0  0  0
  151.7662  143.5866  157.0993 H   0  0  0  0  0  0  0  0  0  0  0  0
  148.6850  141.7774  153.4010 H   0  0  0  0  0  0  0  0  0  0  0  0
  1  2  1  0  0  0  0
  1 26  1  0  0  0  0
  1 27  1  0  0  0  0
  1 28  1  0  0  0  0
  2  7  1  0  0  0  0
  2  3  2  0  0  0  0
  3  4  1  0  0  0  0
  3 29  1  0  0  0  0
  4 25  1  0  0  0  0
  4  5  1  0  0  0  0
  5  6  2  0  0  0  0
  5  9  1  0  0  0  0
  6  7  1  0  0  0  0
  7  8  2  0  0  0  0
  9 10  1  0  0  0  0
 10 25  1  0  0  0  0
 10 11  1  0  0  0  0
 10 30  1  0  0  0  0
 11 12  1  0  0  0  0
 11 13  1  0  0  0  0
 11 31  1  0  0  0  0
 12 32  1  0  0  0  0
 13 14  1  0  0  0  0
 13 24  1  0  0  0  0
 13 33  1  0  0  0  0
 14 15  1  0  0  0  0
 14 34  1  0  0  0  0
 14 35  1  0  0  0  0
 15 16  1  0  0  0  0
 16 17  2  0  0  0  0
 16 18  1  0  0  0  0
 18 23  1  0  0  0  0
 18 19  2  0  0  0  0
 19 20  1  0  0  0  0
 19 36  1  0  0  0  0
 20 21  2  0  0  0  0
 20 37  1  0  0  0  0
 21 22  1  0  0  0  0
 21 38  1  0  0  0  0
 22 23  2  0  0  0  0
 22 39  1  0  0  0  0
 23 40  1  0  0  0  0
 24 25  1  0  0  0  0
 25 41  1  0  0  0  0
M  END
> <s_m_source_file>
AV-unprocessed.smi

> <i_m_source_file_index>
12

> <i_lp_mmshare_version>
43012

> <i_f3d_flags>
0

> <s_epik_input>
W0NIM11jKFtjSF0xKWMoPU8pbmMobjEyKU9bQ0BIXTNbQ0BASF0yT1tDQEBIXShbQ0BASF0zW09IXSlbQ0gyXU9DKD1PKWM0W2NIXVtjSF1bY0hdW2NIXVtjSF00

> <s_epik_cmdline>
J2VwaWtfcHl0aG9uJywgJy1waCcsICc3LjAnLCAnLXRuJywgJzgnLCAnLW1hJywgJzIwMCcsICctbWV0YWxfYmluZGluZycsICctaW1hZScsICc8aW5maWxlLm1hZT4nLCAnLW9tYWUnLCAnPG91dGZpbGUubWFlPic=

> <r_lp_tautomer_probability>
0.933681

> <r_epik_Ionization_Penalty>
0.00399549

> <r_epik_Ionization_Penalty_Charging>
3.09373e-09

> <r_epik_Ionization_Penalty_Neutral>
0.00399549

> <r_epik_State_Penalty>
0.00284953

> <r_epik_Charging_Adjusted_Penalty>
0.00284953

> <i_epik_Tot_Q>
0

> <i_epik_Tot_abs_Q>
0

> <r_epik_Metal_State_Penalty>
-0

> <b_epik_Metal_Only>
0

> <s_epik_Chemistry_Notes>
This compound has an ester and may undergo hydrolysis at high or low pH. This compound contains an acetal/aminal-like group ( X-CH(R)-Y where X, Y are N, S, or O) that may be acid/base labile, releasing an aldehyde.

> <s_lp_Force_Field>
OPLS_2005

> <r_lp_Energy>
41.0284

> <b_lp_Chiralities_Consistent>
1

> <s_lp_Variant>
AV-unprocessed.smi:12-3

> <Gold.Version>
5.8.1

> <Gold.Id.Protein>
6NUR|6NUR_protein|mol2

> <Gold.PLP.Fitness>
50.4889

> <Gold.PLP.PLP>
-43.8359

> <Gold.PLP.part.hbond>
-2.7784

> <Gold.PLP.part.metal>
0.0000

> <Gold.PLP.part.buried>
-2.4143

> <Gold.PLP.part.nonpolar>
-38.7895

> <Gold.PLP.part.repulsive>
0.9267

> <Gold.PLP.ligand.clash>
0.0000

> <Gold.PLP.ligand.torsion>
0.7099

> <Gold.PLP.Chemscore.Hbond>
2.0000

> <Gold.PLP.Chemscore.CHOScore>
0.6858

> <Gold.PLP.Chemscore.Metal>
0.0000

> <Gold.Chemscore.Hbonds>
donor molecule, donor type, donor heavy atom, donor atom, acceptor molecule, acceptor atom, score
      L1  H    12    32       P1  7948  1.00
      P1  H  7997  8010       L1    17  1.00
      L1  C     3    29       P1  8028  0.68

> <Gold.PLP.Chemscore.Internal.Correction>
0.0153

> <Gold.Rescore>
     Score         DG    S(hbond)    S(metal)    S(lipo)     H(rot)  DE(clash)    DE(int)     intcor
     16.75     -17.48       1.70        0.00     101.64       2.18       0.02       0.71       ----

> <Gold.Chemscore.Fitness>
16.7542

> <Gold.Chemscore.DG>
-17.4840

> <Gold.Chemscore.ZeroCoef>
-5.4800

> <Gold.Chemscore.Hbond>
1.7046

> <Gold.Chemscore.Metal>
0.0000

> <Gold.Chemscore.Lipo>
101.6352

> <Gold.Chemscore.Internal_Hbond>
0.0000

> <Gold.Chemscore.DEClash>
0.0242

> <Gold.Chemscore.DEInternal>
0.7056

> <Gold.Chemscore.Rot>
2.1800

> <Gold.Chemscore.Internal.Correction>
   9.000000E+99

> <Gold.Chemscore.Hbonds>
donor molecule, donor type, donor heavy atom, donor atom, acceptor molecule, acceptor atom, score
      L1  H    12    32       P1  7948  0.52
      P1  H  7997  8010       L1    17  0.47

> <Gold.Chemscore.Hbond.Weighted>
-5.6935

> <Gold.Chemscore.Metal.Weighted>
-0.0000

> <Gold.Chemscore.Lipo.Weighted>
-11.8913

> <Gold.Chemscore.Internal_Hbond.Weighted>
0.0000

> <Gold.Chemscore.DEClash.Weighted>
0.0242

> <Gold.Chemscore.DEInternal.Weighted>
0.7056

> <Gold.Chemscore.Rot.Weighted>
5.5807

> <Gold.Chemscore.Internal.Correction.Weighted>
   9.000000E+99

> <Gold.Protein.RotatedTorsions>
[ 6907 6896 6895 6894 ] final -153.51 input  -60.11 | X-H torsion
[ 7974 7965 7964 7962 ] final   23.83 input  175.53 | X-H torsion
[ 8008 7997 7996 7995 ] final   33.80 input   59.86 | X-H torsion
[ 10167 10162 10161 10158 ] final -158.64 input  -65.29 | X-H torsion
[ 10718 10713 10712 10709 ] final  -58.90 input   66.30 | X-H torsion
[ 10763 10752 10751 10750 ] final   89.66 input  -60.55 | X-H torsion
[ 11005 11000 10999 10996 ] final -110.93 input  -57.11 | X-H torsion

> <Gold.Protein.ActiveResidues>
 VAL166  LYS551  ARG553  GLY616  TRP617  ASP618  TYR619  PRO620  LYS621  CYS622 
 ASP623  PHE694  ASN695  SER759  ASP760  ASP761  ALA762  ILE779  LEU786  VAL792 
 PHE793  MET794  SER795  GLU796  ALA797  LYS798  CYS799  TRP800  GLU811  SER814 

> <Gold.Protein.RotatedAtoms>
  151.2437  133.4386  159.2608 H   0  0  0  0  0  0  0  0  0  0  0  0  # atno 6907 bound_to 6896
  151.0681  134.9781  159.8305 H   0  0  0  0  0  0  0  0  0  0  0  0  # atno 6908 bound_to 6896
  152.5408  134.2384  159.8905 H   0  0  0  0  0  0  0  0  0  0  0  0  # atno 6909 bound_to 6896
  146.1966  139.7690  142.8792 H   0  0  0  0  0  0  0  0  0  0  0  0  # atno 7974 bound_to 7965
  155.1445  140.3269  155.4445 H   0  0  0  0  0  0  0  0  0  0  0  0  # atno 8008 bound_to 7997
  156.2594  140.1988  156.6509 H   0  0  0  0  0  0  0  0  0  0  0  0  # atno 8009 bound_to 7997
  154.6518  140.0557  156.9951 H   0  0  0  0  0  0  0  0  0  0  0  0  # atno 8010 bound_to 7997
  139.6677  143.9801  152.2264 H   0  0  0  0  0  0  0  0  0  0  0  0  # atno 10167 bound_to 10162
  156.1101  130.4176  150.0641 H   0  0  0  0  0  0  0  0  0  0  0  0  # atno 10718 bound_to 10713
  153.1894  135.4462  155.0130 H   0  0  0  0  0  0  0  0  0  0  0  0  # atno 10763 bound_to 10752
  154.8081  135.3283  154.7380 H   0  0  0  0  0  0  0  0  0  0  0  0  # atno 10764 bound_to 10752
  153.7836  135.6975  153.4939 H   0  0  0  0  0  0  0  0  0  0  0  0  # atno 10765 bound_to 10752
  141.0763  133.9295  157.2382 H   0  0  0  0  0  0  0  0  0  0  0  0  # atno 11005 bound_to 11000
  145.3623  141.0328  143.3278 LP  0  0  0  0  0  0  0  0  0  0  0  0  # atno 17320 bound_to 7965
  144.8593  139.5201  143.6819 LP  0  0  0  0  0  0  0  0  0  0  0  0  # atno 17321 bound_to 7965
  139.9557  144.6591  150.8128 LP  0  0  0  0  0  0  0  0  0  0  0  0  # atno 17342 bound_to 10162
  140.7606  143.3154  151.2746 LP  0  0  0  0  0  0  0  0  0  0  0  0  # atno 17343 bound_to 10162
  156.8607  130.9490  151.3618 LP  0  0  0  0  0  0  0  0  0  0  0  0  # atno 17370 bound_to 10713
  157.6281  130.8707  149.9225 LP  0  0  0  0  0  0  0  0  0  0  0  0  # atno 17371 bound_to 10713
  139.9576  135.0162  156.9171 LP  0  0  0  0  0  0  0  0  0  0  0  0  # atno 17394 bound_to 11000
  140.5565  134.0576  155.7385 LP  0  0  0  0  0  0  0  0  0  0  0  0  # atno 17395 bound_to 11000

$$$$
