AV-unprocessed.smi:2596|AV-procd|sdf|10169|dock7
  -GOLD-   2272014183D 1   1.00000     0.00000
 Structure written by MMmdl.
 32 33  0  0  0  0  0  0  0  0  1 V2000
  151.9009  141.3432  157.9320 O   0  0  0  0  0  0  0  0  0  0  0  0
  151.1278  141.7981  157.0896 C   0  0  0  0  0  0  0  0  0  0  0  0
  150.3695  140.8499  156.1551 C   0  0  0  0  0  0  0  0  0  0  0  0
  149.0046  141.3287  155.8824 N   0  0  0  0  0  0  0  0  0  0  0  0
  148.1905  141.6126  156.9974 C   0  0  0  0  0  0  0  0  0  0  0  0
  146.9360  142.0672  156.8560 C   0  0  0  0  0  0  0  0  0  0  0  0
  146.1804  142.3373  157.9327 F   0  0  0  0  0  0  0  0  0  0  0  0
  146.4165  142.2650  155.5247 C   0  0  0  0  0  0  0  0  0  0  0  0
  147.1885  141.9973  154.4527 C   0  0  0  0  0  0  0  0  0  0  0  0
  148.5632  141.5020  154.5971 C   0  0  0  0  0  0  0  0  0  0  0  0
  149.2736  141.2588  153.6216 O   0  0  0  0  0  0  0  0  0  0  0  0
  150.9118  143.1108  156.9118 N   0  0  0  0  0  0  0  0  0  0  0  0
  151.5975  144.1823  157.6232 C   0  0  0  0  0  0  0  0  0  0  0  0
  151.5571  143.9387  159.1291 C   0  0  0  0  0  0  0  0  0  0  0  0
  151.7587  145.1079  160.1065 C   0  0  0  0  0  0  0  0  0  0  0  0
  152.4743  144.1355  161.0476 C   0  0  0  0  0  0  0  0  0  0  0  0
  152.7464  143.2579  159.8226 C   0  0  0  0  0  0  0  0  0  0  0  0
  150.9274  140.7338  155.2239 H   0  0  0  0  0  0  0  0  0  0  0  0
  150.3514  139.8544  156.6015 H   0  0  0  0  0  0  0  0  0  0  0  0
  148.6508  141.4457  157.9606 H   0  0  0  0  0  0  0  0  0  0  0  0
  145.4084  142.6279  155.3871 H   0  0  0  0  0  0  0  0  0  0  0  0
  146.7876  142.1498  153.4614 H   0  0  0  0  0  0  0  0  0  0  0  0
  150.2547  143.3895  156.1976 H   0  0  0  0  0  0  0  0  0  0  0  0
  152.6303  144.2096  157.2754 H   0  0  0  0  0  0  0  0  0  0  0  0
  151.1685  145.1541  157.3731 H   0  0  0  0  0  0  0  0  0  0  0  0
  150.6444  143.4070  159.4075 H   0  0  0  0  0  0  0  0  0  0  0  0
  152.4233  145.8792  159.7139 H   0  0  0  0  0  0  0  0  0  0  0  0
  150.8364  145.5359  160.5006 H   0  0  0  0  0  0  0  0  0  0  0  0
  153.3655  144.5377  161.5300 H   0  0  0  0  0  0  0  0  0  0  0  0
  151.7992  143.6659  161.7647 H   0  0  0  0  0  0  0  0  0  0  0  0
  152.6255  142.1873  159.9904 H   0  0  0  0  0  0  0  0  0  0  0  0
  153.7022  143.4850  159.3474 H   0  0  0  0  0  0  0  0  0  0  0  0
  1  2  2  0  0  0  0
  2  3  1  0  0  0  0
  2 12  1  0  0  0  0
  3  4  1  0  0  0  0
  3 18  1  0  0  0  0
  3 19  1  0  0  0  0
  4 10  1  0  0  0  0
  4  5  1  0  0  0  0
  5  6  2  0  0  0  0
  5 20  1  0  0  0  0
  6  7  1  0  0  0  0
  6  8  1  0  0  0  0
  8  9  2  0  0  0  0
  8 21  1  0  0  0  0
  9 10  1  0  0  0  0
  9 22  1  0  0  0  0
 10 11  2  0  0  0  0
 12 13  1  0  0  0  0
 12 23  1  0  0  0  0
 13 14  1  0  0  0  0
 13 24  1  0  0  0  0
 13 25  1  0  0  0  0
 14 17  1  0  0  0  0
 14 15  1  0  0  0  0
 14 26  1  0  0  0  0
 15 16  1  0  0  0  0
 15 27  1  0  0  0  0
 15 28  1  0  0  0  0
 16 17  1  0  0  0  0
 16 29  1  0  0  0  0
 16 30  1  0  0  0  0
 17 31  1  0  0  0  0
 17 32  1  0  0  0  0
M  END
> <s_m_source_file>
AV-unprocessed.smi

> <i_m_source_file_index>
2596

> <i_lp_mmshare_version>
43012

> <i_f3d_flags>
0

> <s_epik_input>
W0NIMl0xW0NIMl1bQ0gyXVtDSF0xW0NIMl1bTkhdQyg9TylbQ0gyXW4yW2NIXWMoRilbY0hdW2NIXWMyPU8=

> <s_epik_cmdline>
J2VwaWtfcHl0aG9uJywgJy1waCcsICc3LjAnLCAnLXRuJywgJzgnLCAnLW1hJywgJzIwMCcsICctbWV0YWxfYmluZGluZycsICctaW1hZScsICc8aW5maWxlLm1hZT4nLCAnLW9tYWUnLCAnPG91dGZpbGUubWFlPic=

> <r_lp_tautomer_probability>
1

> <r_epik_Ionization_Penalty>
2.75493e-07

> <r_epik_Ionization_Penalty_Charging>
2.56191e-07

> <r_epik_Ionization_Penalty_Neutral>
1.93017e-08

> <r_epik_State_Penalty>
-0

> <r_epik_Charging_Adjusted_Penalty>
2.56191e-07

> <i_epik_Tot_Q>
0

> <i_epik_Tot_abs_Q>
0

> <r_epik_Metal_State_Penalty>
-0

> <b_epik_Metal_Only>
0

> <s_lp_Force_Field>
OPLS_2005

> <r_lp_Energy>
22.7993

> <b_lp_Chiralities_Consistent>
1

> <s_lp_Variant>
AV-unprocessed.smi:2596-1

> <Gold.Version>
5.8.1

> <Gold.Id.Protein>
6NUR|6NUR_protein|mol2

> <Gold.PLP.Fitness>
43.9398

> <Gold.PLP.PLP>
-39.4916

> <Gold.PLP.part.hbond>
-3.0000

> <Gold.PLP.part.metal>
0.0000

> <Gold.PLP.part.buried>
-6.2866

> <Gold.PLP.part.nonpolar>
-33.9349

> <Gold.PLP.part.repulsive>
3.1325

> <Gold.PLP.ligand.clash>
0.0000

> <Gold.PLP.ligand.torsion>
0.7473

> <Gold.PLP.Chemscore.Hbond>
1.9592

> <Gold.PLP.Chemscore.CHOScore>
0.0000

> <Gold.PLP.Chemscore.Metal>
0.0000

> <Gold.Chemscore.Hbonds>
donor molecule, donor type, donor heavy atom, donor atom, acceptor molecule, acceptor atom, score
      L1  H    12    23       P1  8028  0.91
      P1  H  7989  7998       L1    11  0.04
      P1  H  8011  8017       L1    11  0.93

> <Gold.PLP.Chemscore.Internal.Correction>
0.0654

> <Gold.Rescore>
     Score         DG    S(hbond)    S(metal)    S(lipo)     H(rot)  DE(clash)    DE(int)     intcor
     12.27     -16.86       1.91        0.00      80.22       1.71       1.35       3.24       ----

> <Gold.Chemscore.Fitness>
12.2724

> <Gold.Chemscore.DG>
-16.8631

> <Gold.Chemscore.ZeroCoef>
-5.4800

> <Gold.Chemscore.Hbond>
1.9069

> <Gold.Chemscore.Metal>
0.0000

> <Gold.Chemscore.Lipo>
80.2215

> <Gold.Chemscore.Internal_Hbond>
0.0000

> <Gold.Chemscore.DEClash>
1.3462

> <Gold.Chemscore.DEInternal>
3.2446

> <Gold.Chemscore.Rot>
1.7078

> <Gold.Chemscore.Internal.Correction>
   9.000000E+99

> <Gold.Chemscore.Hbonds>
donor molecule, donor type, donor heavy atom, donor atom, acceptor molecule, acceptor atom, score
      L1  H    12    23       P1  8028  0.86
      P1  H  7989  7998       L1    11  0.05
      P1  H  8011  8017       L1    11  0.89

> <Gold.Chemscore.Hbond.Weighted>
-6.3691

> <Gold.Chemscore.Metal.Weighted>
-0.0000

> <Gold.Chemscore.Lipo.Weighted>
-9.3859

> <Gold.Chemscore.Internal_Hbond.Weighted>
0.0000

> <Gold.Chemscore.DEClash.Weighted>
1.3462

> <Gold.Chemscore.DEInternal.Weighted>
3.2446

> <Gold.Chemscore.Rot.Weighted>
4.3719

> <Gold.Chemscore.Internal.Correction.Weighted>
   9.000000E+99

> <Gold.Protein.RotatedTorsions>
[ 6907 6896 6895 6894 ] final  -49.51 input  -60.11 | X-H torsion
[ 7974 7965 7964 7962 ] final -166.98 input  175.53 | X-H torsion
[ 8008 7997 7996 7995 ] final  101.54 input   59.86 | X-H torsion
[ 10167 10162 10161 10158 ] final   15.67 input  -65.29 | X-H torsion
[ 10718 10713 10712 10709 ] final  -13.57 input   66.30 | X-H torsion
[ 10763 10752 10751 10750 ] final -137.65 input  -60.55 | X-H torsion
[ 11005 11000 10999 10996 ] final   90.77 input  -57.11 | X-H torsion

> <Gold.Protein.ActiveResidues>
 VAL166  LYS551  ARG553  GLY616  TRP617  ASP618  TYR619  PRO620  LYS621  CYS622 
 ASP623  PHE694  ASN695  SER759  ASP760  ASP761  ALA762  ILE779  LEU786  VAL792 
 PHE793  MET794  SER795  GLU796  ALA797  LYS798  CYS799  TRP800  GLU811  SER814 

> <Gold.Protein.RotatedAtoms>
  150.8798  134.8187  159.7216 H   0  0  0  0  0  0  0  0  0  0  0  0  # atno 6907 bound_to 6896
  152.4770  134.4815  159.9677 H   0  0  0  0  0  0  0  0  0  0  0  0  # atno 6908 bound_to 6896
  151.4891  133.3490  159.2886 H   0  0  0  0  0  0  0  0  0  0  0  0  # atno 6909 bound_to 6896
  144.7233  140.2586  143.6268 H   0  0  0  0  0  0  0  0  0  0  0  0  # atno 7974 bound_to 7965
  156.1308  140.3196  155.8347 H   0  0  0  0  0  0  0  0  0  0  0  0  # atno 8008 bound_to 7997
  155.4335  140.0520  157.3033 H   0  0  0  0  0  0  0  0  0  0  0  0  # atno 8009 bound_to 7997
  154.4898  140.2087  155.9586 H   0  0  0  0  0  0  0  0  0  0  0  0  # atno 8010 bound_to 7997
  140.5851  143.8906  150.6823 H   0  0  0  0  0  0  0  0  0  0  0  0  # atno 10167 bound_to 10162
  156.6283  130.4894  149.6138 H   0  0  0  0  0  0  0  0  0  0  0  0  # atno 10718 bound_to 10713
  154.8656  135.3636  154.5257 H   0  0  0  0  0  0  0  0  0  0  0  0  # atno 10763 bound_to 10752
  153.5885  135.7016  153.5438 H   0  0  0  0  0  0  0  0  0  0  0  0  # atno 10764 bound_to 10752
  153.3394  135.4102  155.1522 H   0  0  0  0  0  0  0  0  0  0  0  0  # atno 10765 bound_to 10752
  139.8850  134.8634  156.3332 H   0  0  0  0  0  0  0  0  0  0  0  0  # atno 11005 bound_to 11000
  145.8158  139.2022  143.1967 LP  0  0  0  0  0  0  0  0  0  0  0  0  # atno 17320 bound_to 7965
  146.0557  140.8023  142.9759 LP  0  0  0  0  0  0  0  0  0  0  0  0  # atno 17321 bound_to 7965
  140.2415  143.3660  152.1483 LP  0  0  0  0  0  0  0  0  0  0  0  0  # atno 17342 bound_to 10162
  139.5192  144.7017  151.5474 LP  0  0  0  0  0  0  0  0  0  0  0  0  # atno 17343 bound_to 10162
  156.2255  130.6763  151.1411 LP  0  0  0  0  0  0  0  0  0  0  0  0  # atno 17370 bound_to 10713
  157.7207  131.0683  150.6145 LP  0  0  0  0  0  0  0  0  0  0  0  0  # atno 17371 bound_to 10713
  140.9709  133.7328  156.0533 LP  0  0  0  0  0  0  0  0  0  0  0  0  # atno 17394 bound_to 11000
  140.7872  134.3658  157.5473 LP  0  0  0  0  0  0  0  0  0  0  0  0  # atno 17395 bound_to 11000

$$$$
