AV-unprocessed.smi:236|AV-procd|sdf|1811|dock1
  -GOLD-   2262020393D 1   1.00000     0.00000
 Structure written by MMmdl.
 58 62  0  0  0  0  0  0  0  0  1 V2000
  146.4722  129.6138  152.6728 C   0  0  0  0  0  0  0  0  0  0  0  0
  146.1826  131.1216  152.6028 C   0  0  2  0  0  0  0  0  0  0  0  0
  145.8258  131.4761  151.2718 O   0  0  0  0  0  0  0  0  0  0  0  0
  146.1109  132.8519  151.0965 C   0  0  0  0  0  0  0  0  0  0  0  0
  147.4672  132.9861  151.7708 C   0  0  0  0  0  0  0  0  0  0  0  0
  147.3414  132.0786  152.9981 C   0  0  2  0  0  0  0  0  0  0  0  0
  148.5718  131.3946  153.1694 O   0  0  0  0  0  0  0  0  0  0  0  0
  147.0128  132.8371  154.3105 C   0  0  0  0  0  0  0  0  0  0  0  0
  147.9537  133.8965  154.6445 N   0  0  0  0  0  0  0  0  0  0  0  0
  149.2779  133.7473  154.9922 C   0  0  0  0  0  0  0  0  0  0  0  0
  149.9129  134.8562  155.2576 N   0  0  0  0  0  0  0  0  0  0  0  0
  148.9500  135.8450  155.0947 C   0  0  0  0  0  0  0  0  0  0  0  0
  148.9439  137.2623  155.2291 C   0  0  0  0  0  0  0  0  0  0  0  0
  150.0093  138.0085  155.5864 N   0  0  0  0  0  0  0  0  0  0  0  0
  151.2298  137.6635  154.8702 C   0  0  0  0  0  0  0  0  0  0  0  0
  152.4135  138.4567  155.4468 C   0  0  0  0  0  0  0  0  0  0  0  0
  152.1167  139.8494  155.4019 O   0  0  0  0  0  0  0  0  0  0  0  0
  150.9725  140.1895  156.1838 C   0  0  1  0  0  0  0  0  0  0  0  0
  150.7857  141.7110  156.1267 C   0  0  0  0  0  0  0  0  0  0  0  0
  151.1121  142.2667  157.3899 O   0  0  0  0  0  0  0  0  0  0  0  0
  151.1207  143.6837  157.3775 C   0  0  0  0  0  0  0  0  0  0  0  0
  152.0539  144.1818  158.4606 C   0  0  0  0  0  0  0  0  0  0  0  0
  151.7639  143.9131  159.9205 C   0  0  0  0  0  0  0  0  0  0  0  0
  151.6257  145.3100  159.3717 C   0  0  0  0  0  0  0  0  0  0  0  0
  149.7524  139.4428  155.6098 C   0  0  0  0  0  0  0  0  0  0  0  0
  147.7832  137.9201  154.9912 N   0  0  0  0  0  0  0  0  0  0  0  0
  146.6892  137.2374  154.6405 C   0  0  0  0  0  0  0  0  0  0  0  0
  146.5428  135.9208  154.4754 N   0  0  0  0  0  0  0  0  0  0  0  0
  147.7108  135.2575  154.7147 C   0  0  0  0  0  0  0  0  0  0  0  0
  146.7480  129.3132  153.6840 H   0  0  0  0  0  0  0  0  0  0  0  0
  147.2834  129.3307  152.0015 H   0  0  0  0  0  0  0  0  0  0  0  0
  145.5925  129.0379  152.3854 H   0  0  0  0  0  0  0  0  0  0  0  0
  145.3093  131.3304  153.2228 H   0  0  0  0  0  0  0  0  0  0  0  0
  146.1343  133.1292  150.0426 H   0  0  0  0  0  0  0  0  0  0  0  0
  145.3571  133.4581  151.6016 H   0  0  0  0  0  0  0  0  0  0  0  0
  148.2282  132.6058  151.0871 H   0  0  0  0  0  0  0  0  0  0  0  0
  147.7242  134.0203  151.9931 H   0  0  0  0  0  0  0  0  0  0  0  0
  148.7454  130.8918  152.3885 H   0  0  0  0  0  0  0  0  0  0  0  0
  146.0163  133.2768  154.2494 H   0  0  0  0  0  0  0  0  0  0  0  0
  146.9830  132.1378  155.1472 H   0  0  0  0  0  0  0  0  0  0  0  0
  149.7625  132.7827  155.0411 H   0  0  0  0  0  0  0  0  0  0  0  0
  151.4206  136.5925  154.9527 H   0  0  0  0  0  0  0  0  0  0  0  0
  151.1148  137.8914  153.8096 H   0  0  0  0  0  0  0  0  0  0  0  0
  152.6257  138.1511  156.4725 H   0  0  0  0  0  0  0  0  0  0  0  0
  153.3146  138.2655  154.8640 H   0  0  0  0  0  0  0  0  0  0  0  0
  151.1284  139.8867  157.2211 H   0  0  0  0  0  0  0  0  0  0  0  0
  151.4051  142.1421  155.3383 H   0  0  0  0  0  0  0  0  0  0  0  0
  149.7461  141.9477  155.8946 H   0  0  0  0  0  0  0  0  0  0  0  0
  151.4740  144.0496  156.4123 H   0  0  0  0  0  0  0  0  0  0  0  0
  150.1167  144.0794  157.5402 H   0  0  0  0  0  0  0  0  0  0  0  0
  153.1023  144.1898  158.1681 H   0  0  0  0  0  0  0  0  0  0  0  0
  150.8490  143.3783  160.1674 H   0  0  0  0  0  0  0  0  0  0  0  0
  152.6123  143.7093  160.5707 H   0  0  0  0  0  0  0  0  0  0  0  0
  152.3811  146.0394  159.6566 H   0  0  0  0  0  0  0  0  0  0  0  0
  150.6189  145.7049  159.2515 H   0  0  0  0  0  0  0  0  0  0  0  0
  149.5423  139.8000  154.6010 H   0  0  0  0  0  0  0  0  0  0  0  0
  148.8684  139.6467  156.2157 H   0  0  0  0  0  0  0  0  0  0  0  0
  145.8033  137.8309  154.4696 H   0  0  0  0  0  0  0  0  0  0  0  0
  1  2  1  0  0  0  0
  1 30  1  0  0  0  0
  1 31  1  0  0  0  0
  1 32  1  0  0  0  0
  2  6  1  0  0  0  0
  2  3  1  0  0  0  0
  2 33  1  0  0  0  0
  3  4  1  0  0  0  0
  4  5  1  0  0  0  0
  4 34  1  0  0  0  0
  4 35  1  0  0  0  0
  5  6  1  0  0  0  0
  5 36  1  0  0  0  0
  5 37  1  0  0  0  0
  6  7  1  0  0  0  0
  6  8  1  0  0  0  0
  7 38  1  0  0  0  0
  8  9  1  0  0  0  0
  8 39  1  0  0  0  0
  8 40  1  0  0  0  0
  9 29  1  0  0  0  0
  9 10  1  0  0  0  0
 10 11  2  0  0  0  0
 10 41  1  0  0  0  0
 11 12  1  0  0  0  0
 12 29  2  0  0  0  0
 12 13  1  0  0  0  0
 13 14  1  0  0  0  0
 13 26  2  0  0  0  0
 14 25  1  0  0  0  0
 14 15  1  0  0  0  0
 15 16  1  0  0  0  0
 15 42  1  0  0  0  0
 15 43  1  0  0  0  0
 16 17  1  0  0  0  0
 16 44  1  0  0  0  0
 16 45  1  0  0  0  0
 17 18  1  0  0  0  0
 18 19  1  0  0  0  0
 18 25  1  0  0  0  0
 18 46  1  0  0  0  0
 19 20  1  0  0  0  0
 19 47  1  0  0  0  0
 19 48  1  0  0  0  0
 20 21  1  0  0  0  0
 21 22  1  0  0  0  0
 21 49  1  0  0  0  0
 21 50  1  0  0  0  0
 22 24  1  0  0  0  0
 22 23  1  0  0  0  0
 22 51  1  0  0  0  0
 23 24  1  0  0  0  0
 23 52  1  0  0  0  0
 23 53  1  0  0  0  0
 24 54  1  0  0  0  0
 24 55  1  0  0  0  0
 25 56  1  0  0  0  0
 25 57  1  0  0  0  0
 26 27  1  0  0  0  0
 27 28  2  0  0  0  0
 27 58  1  0  0  0  0
 28 29  1  0  0  0  0
M  END
> <s_m_source_file>
AV-unprocessed.smi

> <i_m_source_file_index>
236

> <i_lp_mmshare_version>
43012

> <i_f3d_flags>
0

> <s_epik_input>
W0NIMl0xW0NIMl1PW0NAQEhdKFtDSDNdKVtDQEBdMShbT0hdKVtDSDJdbihbY0hdbjIpYyhjMjMpbltjSF1uYzNONFtDSDJdW0NIMl1PW0NASF0oW0NIMl00KVtDSDJdT1tDSDJdW0NIXTVbQ0gyXVtDSDJdNQ==

> <s_epik_cmdline>
J2VwaWtfcHl0aG9uJywgJy1waCcsICc3LjAnLCAnLXRuJywgJzgnLCAnLW1hJywgJzIwMCcsICctbWV0YWxfYmluZGluZycsICctaW1hZScsICc8aW5maWxlLm1hZT4nLCAnLW9tYWUnLCAnPG91dGZpbGUubWFlPic=

> <r_lp_tautomer_probability>
1

> <r_epik_Ionization_Penalty>
7.21838e-05

> <r_epik_Ionization_Penalty_Charging>
0

> <r_epik_Ionization_Penalty_Neutral>
7.21838e-05

> <r_epik_State_Penalty>
-0

> <r_epik_Charging_Adjusted_Penalty>
0

> <i_epik_Tot_Q>
0

> <i_epik_Tot_abs_Q>
0

> <r_epik_Metal_State_Penalty>
-0

> <b_epik_Metal_Only>
0

> <s_lp_Force_Field>
OPLS_2005

> <r_lp_Energy>
49.5811

> <b_lp_Chiralities_Consistent>
1

> <s_lp_Variant>
AV-unprocessed.smi:236-3

> <Gold.Version>
5.8.1

> <Gold.Id.Protein>
6NUR|6NUR_protein|mol2

> <Gold.PLP.Fitness>
52.7669

> <Gold.PLP.PLP>
-49.2927

> <Gold.PLP.part.hbond>
-1.9363

> <Gold.PLP.part.metal>
0.0000

> <Gold.PLP.part.buried>
-4.4820

> <Gold.PLP.part.nonpolar>
-43.2975

> <Gold.PLP.part.repulsive>
0.5710

> <Gold.PLP.ligand.clash>
0.0000

> <Gold.PLP.ligand.torsion>
1.4012

> <Gold.PLP.Chemscore.Hbond>
1.8000

> <Gold.PLP.Chemscore.CHOScore>
0.0000

> <Gold.PLP.Chemscore.Metal>
0.0000

> <Gold.Chemscore.Hbonds>
donor molecule, donor type, donor heavy atom, donor atom, acceptor molecule, acceptor atom, score
      L1  H     7    38       P1 10747  0.81
      P1  H  7989  7998       L1    17  0.47
      P1  H  7997  8008       L1    17  0.03

> <Gold.PLP.Chemscore.Internal.Correction>
0.8767

> <Gold.Rescore>
     Score         DG    S(hbond)    S(metal)    S(lipo)     H(rot)  DE(clash)    DE(int)     intcor
     16.92     -18.37       1.61        0.00     126.83       2.87       0.08       1.37       ----

> <Gold.Chemscore.Fitness>
16.9227

> <Gold.Chemscore.DG>
-18.3697

> <Gold.Chemscore.ZeroCoef>
-5.4800

> <Gold.Chemscore.Hbond>
1.6125

> <Gold.Chemscore.Metal>
0.0000

> <Gold.Chemscore.Lipo>
126.8349

> <Gold.Chemscore.Internal_Hbond>
0.0000

> <Gold.Chemscore.DEClash>
0.0765

> <Gold.Chemscore.DEInternal>
1.3705

> <Gold.Chemscore.Rot>
2.8655

> <Gold.Chemscore.Internal.Correction>
   9.000000E+99

> <Gold.Chemscore.Hbonds>
donor molecule, donor type, donor heavy atom, donor atom, acceptor molecule, acceptor atom, score
      L1  H     7    38       P1 10747  0.57
      P1  H  7989  7998       L1    17  0.16

> <Gold.Chemscore.Hbond.Weighted>
-5.3857

> <Gold.Chemscore.Metal.Weighted>
-0.0000

> <Gold.Chemscore.Lipo.Weighted>
-14.8397

> <Gold.Chemscore.Internal_Hbond.Weighted>
0.0000

> <Gold.Chemscore.DEClash.Weighted>
0.0765

> <Gold.Chemscore.DEInternal.Weighted>
1.3705

> <Gold.Chemscore.Rot.Weighted>
7.3358

> <Gold.Chemscore.Internal.Correction.Weighted>
   9.000000E+99

> <Gold.Protein.RotatedTorsions>
[ 6907 6896 6895 6894 ] final   64.53 input  -60.11 | X-H torsion
[ 7974 7965 7964 7962 ] final   43.81 input  175.53 | X-H torsion
[ 8008 7997 7996 7995 ] final  -22.48 input   59.86 | X-H torsion
[ 10167 10162 10161 10158 ] final  -39.65 input  -65.29 | X-H torsion
[ 10718 10713 10712 10709 ] final   79.68 input   66.30 | X-H torsion
[ 10763 10752 10751 10750 ] final   10.79 input  -60.55 | X-H torsion
[ 11005 11000 10999 10996 ] final  159.77 input  -57.11 | X-H torsion

> <Gold.Protein.ActiveResidues>
 VAL166  LYS551  ARG553  GLY616  TRP617  ASP618  TYR619  PRO620  LYS621  CYS622 
 ASP623  PHE694  ASN695  SER759  ASP760  ASP761  ALA762  ILE779  LEU786  VAL792 
 PHE793  MET794  SER795  GLU796  ALA797  LYS798  CYS799  TRP800  GLU811  SER814 

> <Gold.Protein.RotatedAtoms>
  152.4338  134.5725  159.9924 H   0  0  0  0  0  0  0  0  0  0  0  0  # atno 6907 bound_to 6896
  151.5841  133.3368  159.3022 H   0  0  0  0  0  0  0  0  0  0  0  0  # atno 6908 bound_to 6896
  150.8234  134.7489  159.6857 H   0  0  0  0  0  0  0  0  0  0  0  0  # atno 6909 bound_to 6896
  146.0623  139.5145  142.9650 H   0  0  0  0  0  0  0  0  0  0  0  0  # atno 7974 bound_to 7965
  154.4641  140.2006  156.0164 H   0  0  0  0  0  0  0  0  0  0  0  0  # atno 8008 bound_to 7997
  156.0895  140.3260  155.7769 H   0  0  0  0  0  0  0  0  0  0  0  0  # atno 8009 bound_to 7997
  155.4979  140.0551  157.2934 H   0  0  0  0  0  0  0  0  0  0  0  0  # atno 8010 bound_to 7997
  140.7058  143.3201  151.2813 H   0  0  0  0  0  0  0  0  0  0  0  0  # atno 10167 bound_to 10162
  157.6784  130.9925  150.1967 H   0  0  0  0  0  0  0  0  0  0  0  0  # atno 10718 bound_to 10713
  153.1994  135.6854  153.8250 H   0  0  0  0  0  0  0  0  0  0  0  0  # atno 10763 bound_to 10752
  153.7521  135.3222  155.3324 H   0  0  0  0  0  0  0  0  0  0  0  0  # atno 10764 bound_to 10752
  154.8163  135.4683  154.0754 H   0  0  0  0  0  0  0  0  0  0  0  0  # atno 10765 bound_to 10752
  140.1994  134.8349  157.3001 H   0  0  0  0  0  0  0  0  0  0  0  0  # atno 11005 bound_to 11000
  145.6538  141.0257  143.1746 LP  0  0  0  0  0  0  0  0  0  0  0  0  # atno 17320 bound_to 7965
  144.7182  139.8122  143.7391 LP  0  0  0  0  0  0  0  0  0  0  0  0  # atno 17321 bound_to 7965
  139.6652  144.0118  152.2718 LP  0  0  0  0  0  0  0  0  0  0  0  0  # atno 17342 bound_to 10162
  139.9698  144.6501  150.8000 LP  0  0  0  0  0  0  0  0  0  0  0  0  # atno 17343 bound_to 10162
  156.2667  130.3717  149.8074 LP  0  0  0  0  0  0  0  0  0  0  0  0  # atno 17370 bound_to 10713
  156.5803  130.8463  151.3381 LP  0  0  0  0  0  0  0  0  0  0  0  0  # atno 17371 bound_to 10713
  140.2071  134.4184  155.7632 LP  0  0  0  0  0  0  0  0  0  0  0  0  # atno 17394 bound_to 11000
  141.2227  133.7100  156.8278 LP  0  0  0  0  0  0  0  0  0  0  0  0  # atno 17395 bound_to 11000

$$$$
