AV-unprocessed.smi:3163|AV-procd|sdf|12077|dock9
  -GOLD-   2272017503D 1   1.00000     0.00000
 Structure written by MMmdl.
 37 38  0  0  0  0  0  0  0  0  3 V2000
  143.8969  132.6907  148.8723 C   0  0  0  0  0  0  0  0  0  0  0  0
  144.5146  132.8012  150.2105 N   0  3  1  0  0  0  0  0  0  0  0  0
  145.9928  132.7592  150.2006 C   0  0  0  0  0  0  0  0  0  0  0  0
  146.4318  133.6339  151.3723 C   0  0  0  0  0  0  0  0  0  0  0  0
  145.3836  134.7436  151.3713 C   0  0  2  0  0  0  0  0  0  0  0  0
  145.3110  135.5327  152.6928 C   0  0  0  0  0  0  0  0  0  0  0  0
  146.4456  136.4370  152.8582 N   0  0  0  0  0  0  0  0  0  0  0  0
  146.3820  137.6913  153.3285 C   0  0  0  0  0  0  0  0  0  0  0  0
  145.3299  138.2412  153.6525 O   0  0  0  0  0  0  0  0  0  0  0  0
  147.6007  138.2574  153.3726 N   0  0  0  0  0  0  0  0  0  0  0  0
  147.9583  139.5621  153.8110 C   0  0  0  0  0  0  0  0  0  0  0  0
  147.0130  140.5953  153.6241 C   0  0  0  0  0  0  0  0  0  0  0  0
  147.3268  141.9084  154.0300 C   0  0  0  0  0  0  0  0  0  0  0  0
  148.5296  142.1714  154.5840 N   0  3  0  0  0  0  0  0  0  0  0  0
  149.4710  141.2213  154.7697 C   0  0  0  0  0  0  0  0  0  0  0  0
  149.2141  139.8897  154.3840 C   0  0  0  0  0  0  0  0  0  0  0  0
  144.0982  133.9966  150.9807 C   0  0  0  0  0  0  0  0  0  0  0  0
  144.1684  133.5391  148.2430 H   0  0  0  0  0  0  0  0  0  0  0  0
  142.8101  132.6598  148.9559 H   0  0  0  0  0  0  0  0  0  0  0  0
  144.2226  131.7755  148.3769 H   0  0  0  0  0  0  0  0  0  0  0  0
  146.3650  131.7373  150.2769 H   0  0  0  0  0  0  0  0  0  0  0  0
  146.3719  133.1855  149.2700 H   0  0  0  0  0  0  0  0  0  0  0  0
  146.3831  133.0649  152.3022 H   0  0  0  0  0  0  0  0  0  0  0  0
  147.4490  134.0106  151.2594 H   0  0  0  0  0  0  0  0  0  0  0  0
  145.6357  135.4327  150.5630 H   0  0  0  0  0  0  0  0  0  0  0  0
  144.3669  136.0752  152.7685 H   0  0  0  0  0  0  0  0  0  0  0  0
  145.3268  134.8355  153.5310 H   0  0  0  0  0  0  0  0  0  0  0  0
  147.3531  136.0684  152.6127 H   0  0  0  0  0  0  0  0  0  0  0  0
  148.3585  137.7046  152.9990 H   0  0  0  0  0  0  0  0  0  0  0  0
  146.0510  140.3871  153.1779 H   0  0  0  0  0  0  0  0  0  0  0  0
  146.6574  142.7501  153.9266 H   0  0  0  0  0  0  0  0  0  0  0  0
  150.3986  141.5531  155.2130 H   0  0  0  0  0  0  0  0  0  0  0  0
  149.9897  139.1525  154.5238 H   0  0  0  0  0  0  0  0  0  0  0  0
  143.4133  134.6404  150.4270 H   0  0  0  0  0  0  0  0  0  0  0  0
  143.5712  133.6438  151.8677 H   0  0  0  0  0  0  0  0  0  0  0  0
  144.2064  132.0024  150.7467 H   0  0  0  0  0  0  0  0  0  0  0  0
  148.7382  143.1287  154.8693 H   0  0  0  0  0  0  0  0  0  0  0  0
  1  2  1  0  0  0  0
  1 18  1  0  0  0  0
  1 19  1  0  0  0  0
  1 20  1  0  0  0  0
  2 17  1  0  0  0  0
  2  3  1  0  0  0  0
  2 36  1  0  0  0  0
  3  4  1  0  0  0  0
  3 21  1  0  0  0  0
  3 22  1  0  0  0  0
  4  5  1  0  0  0  0
  4 23  1  0  0  0  0
  4 24  1  0  0  0  0
  5  6  1  0  0  0  0
  5 17  1  0  0  0  0
  5 25  1  0  0  0  0
  6  7  1  0  0  0  0
  6 26  1  0  0  0  0
  6 27  1  0  0  0  0
  7  8  1  0  0  0  0
  7 28  1  0  0  0  0
  8  9  2  0  0  0  0
  8 10  1  0  0  0  0
 10 11  1  0  0  0  0
 10 29  1  0  0  0  0
 11 16  1  0  0  0  0
 11 12  2  0  0  0  0
 12 13  1  0  0  0  0
 12 30  1  0  0  0  0
 13 14  2  0  0  0  0
 13 31  1  0  0  0  0
 14 15  1  0  0  0  0
 14 37  1  0  0  0  0
 15 16  2  0  0  0  0
 15 32  1  0  0  0  0
 16 33  1  0  0  0  0
 17 34  1  0  0  0  0
 17 35  1  0  0  0  0
M  CHG  1   2   1
M  CHG  1  14   1
M  END
> <s_m_source_file>
AV-unprocessed.smi

> <i_m_source_file_index>
3163

> <i_lp_mmshare_version>
43012

> <i_f3d_flags>
0

> <s_epik_input>
W0NIM11OMVtDSDJdW0NIMl1bQ0BIXShbQ0gyXTEpW0NIMl1bTkhdQyg9TylbTkhdYzJbY0hdW2NIXW5bY0hdW2NIXTI=

> <s_epik_cmdline>
J2VwaWtfcHl0aG9uJywgJy1waCcsICc3LjAnLCAnLXRuJywgJzgnLCAnLW1hJywgJzIwMCcsICctbWV0YWxfYmluZGluZycsICctaW1hZScsICc8aW5maWxlLm1hZT4nLCAnLW9tYWUnLCAnPG91dGZpbGUubWFlPic=

> <r_epik_Ionization_Penalty>
1.09034

> <r_epik_Ionization_Penalty_Charging>
1.09032

> <r_epik_Ionization_Penalty_Neutral>
1.86664e-05

> <r_epik_State_Penalty>
1.14521

> <r_epik_Charging_Adjusted_Penalty>
2.23553

> <i_epik_Tot_Q>
2

> <i_epik_Tot_abs_Q>
2

> <r_epik_Metal_State_Penalty>
1.23399

> <b_epik_Metal_Only>
0

> <s_lp_Force_Field>
OPLS_2005

> <r_lp_Energy>
39.8127

> <b_lp_Chiralities_Consistent>
1

> <s_lp_Variant>
AV-unprocessed.smi:3163-7

> <Gold.Version>
5.8.1

> <Gold.Id.Protein>
6NUR|6NUR_protein|mol2

> <Gold.PLP.Fitness>
43.2604

> <Gold.PLP.PLP>
-32.0892

> <Gold.PLP.part.hbond>
-3.0000

> <Gold.PLP.part.metal>
0.0000

> <Gold.PLP.part.buried>
-4.8116

> <Gold.PLP.part.nonpolar>
-25.4809

> <Gold.PLP.part.repulsive>
0.9164

> <Gold.PLP.ligand.clash>
0.0000

> <Gold.PLP.ligand.torsion>
0.4035

> <Gold.PLP.Chemscore.Hbond>
3.9920

> <Gold.PLP.Chemscore.CHOScore>
0.0000

> <Gold.PLP.Chemscore.Metal>
0.0000

> <Gold.Chemscore.Hbonds>
donor molecule, donor type, donor heavy atom, donor atom, acceptor molecule, acceptor atom, score
      L1  H     7    28       P1  7948  1.00
      L1  H    10    29       P1  7948  0.99
      L1  H    14    37       P1  8028  2.00

> <Gold.PLP.Chemscore.Internal.Correction>
0.0022

> <Gold.Rescore>
     Score         DG    S(hbond)    S(metal)    S(lipo)     H(rot)  DE(clash)    DE(int)     intcor
     19.24     -21.03       2.95        0.00      76.57       1.27       0.13       1.66       ----

> <Gold.Chemscore.Fitness>
19.2410

> <Gold.Chemscore.DG>
-21.0339

> <Gold.Chemscore.ZeroCoef>
-5.4800

> <Gold.Chemscore.Hbond>
2.9495

> <Gold.Chemscore.Metal>
0.0000

> <Gold.Chemscore.Lipo>
76.5724

> <Gold.Chemscore.Internal_Hbond>
0.0000

> <Gold.Chemscore.DEClash>
0.1292

> <Gold.Chemscore.DEInternal>
1.6637

> <Gold.Chemscore.Rot>
1.2721

> <Gold.Chemscore.Internal.Correction>
   9.000000E+99

> <Gold.Chemscore.Hbonds>
donor molecule, donor type, donor heavy atom, donor atom, acceptor molecule, acceptor atom, score
      L1  H     7    28       P1  7948  0.96
      L1  H    10    29       P1  7948  0.94
      L1  H    14    37       P1  8028  1.00

> <Gold.Chemscore.Hbond.Weighted>
-9.8514

> <Gold.Chemscore.Metal.Weighted>
-0.0000

> <Gold.Chemscore.Lipo.Weighted>
-8.9590

> <Gold.Chemscore.Internal_Hbond.Weighted>
0.0000

> <Gold.Chemscore.DEClash.Weighted>
0.1292

> <Gold.Chemscore.DEInternal.Weighted>
1.6637

> <Gold.Chemscore.Rot.Weighted>
3.2565

> <Gold.Chemscore.Internal.Correction.Weighted>
   9.000000E+99

> <Gold.Protein.RotatedTorsions>
[ 6907 6896 6895 6894 ] final   -0.06 input  -60.11 | X-H torsion
[ 7974 7965 7964 7962 ] final  -69.76 input  175.53 | X-H torsion
[ 8008 7997 7996 7995 ] final -173.24 input   59.86 | X-H torsion
[ 10167 10162 10161 10158 ] final -135.60 input  -65.29 | X-H torsion
[ 10718 10713 10712 10709 ] final   46.90 input   66.30 | X-H torsion
[ 10763 10752 10751 10750 ] final   67.40 input  -60.55 | X-H torsion
[ 11005 11000 10999 10996 ] final -121.53 input  -57.11 | X-H torsion

> <Gold.Protein.ActiveResidues>
 VAL166  LYS551  ARG553  GLY616  TRP617  ASP618  TYR619  PRO620  LYS621  CYS622 
 ASP623  PHE694  ASN695  SER759  ASP760  ASP761  ALA762  ILE779  LEU786  VAL792 
 PHE793  MET794  SER795  GLU796  ALA797  LYS798  CYS799  TRP800  GLU811  SER814 

> <Gold.Protein.RotatedAtoms>
  151.5684  135.1063  159.9988 H   0  0  0  0  0  0  0  0  0  0  0  0  # atno 6907 bound_to 6896
  152.4413  133.7449  159.6672 H   0  0  0  0  0  0  0  0  0  0  0  0  # atno 6908 bound_to 6896
  150.8319  133.8008  159.3119 H   0  0  0  0  0  0  0  0  0  0  0  0  # atno 6909 bound_to 6896
  145.6997  140.9121  143.0738 H   0  0  0  0  0  0  0  0  0  0  0  0  # atno 7974 bound_to 7965
  155.9548  140.1133  157.0946 H   0  0  0  0  0  0  0  0  0  0  0  0  # atno 8008 bound_to 7997
  154.4118  140.1193  156.5167 H   0  0  0  0  0  0  0  0  0  0  0  0  # atno 8009 bound_to 7997
  155.6796  140.3473  155.4852 H   0  0  0  0  0  0  0  0  0  0  0  0  # atno 8010 bound_to 7997
  139.8762  143.6895  152.2633 H   0  0  0  0  0  0  0  0  0  0  0  0  # atno 10167 bound_to 10162
  157.4529  130.8149  149.7807 H   0  0  0  0  0  0  0  0  0  0  0  0  # atno 10718 bound_to 10713
  153.0184  135.5285  154.6973 H   0  0  0  0  0  0  0  0  0  0  0  0  # atno 10763 bound_to 10752
  154.6092  135.2876  155.0453 H   0  0  0  0  0  0  0  0  0  0  0  0  # atno 10764 bound_to 10752
  154.1482  135.6567  153.5010 H   0  0  0  0  0  0  0  0  0  0  0  0  # atno 10765 bound_to 10752
  141.0063  134.0330  157.3472 H   0  0  0  0  0  0  0  0  0  0  0  0  # atno 11005 bound_to 11000
  144.6972  139.8931  143.7454 LP  0  0  0  0  0  0  0  0  0  0  0  0  # atno 17320 bound_to 7965
  146.0809  139.3797  143.0465 LP  0  0  0  0  0  0  0  0  0  0  0  0  # atno 17321 bound_to 7965
  139.7237  144.7597  151.0913 LP  0  0  0  0  0  0  0  0  0  0  0  0  # atno 17342 bound_to 10162
  140.7752  143.5174  150.9577 LP  0  0  0  0  0  0  0  0  0  0  0  0  # atno 17343 bound_to 10162
  155.9995  130.3888  150.2663 LP  0  0  0  0  0  0  0  0  0  0  0  0  # atno 17370 bound_to 10713
  157.0836  131.0150  151.3148 LP  0  0  0  0  0  0  0  0  0  0  0  0  # atno 17371 bound_to 10713
  139.9065  135.0180  156.7509 LP  0  0  0  0  0  0  0  0  0  0  0  0  # atno 17394 bound_to 11000
  140.6807  133.9477  155.7909 LP  0  0  0  0  0  0  0  0  0  0  0  0  # atno 17395 bound_to 11000

$$$$
