AV-unprocessed.smi:2217|AV-procd|sdf|8969|dock5
  -GOLD-   2272012183D 1   1.00000     0.00000
 Structure written by MMmdl.
 45 48  0  0  0  0  0  0  0  0  1 V2000
  150.0123  128.9271  154.6113 C   0  0  0  0  0  0  0  0  0  0  0  0
  149.8065  130.4235  154.5054 C   0  0  0  0  0  0  0  0  0  0  0  0
  150.3971  131.3071  155.4281 C   0  0  0  0  0  0  0  0  0  0  0  0
  150.1767  132.6901  155.2797 C   0  0  0  0  0  0  0  0  0  0  0  0
  149.3745  133.1611  154.2156 C   0  0  0  0  0  0  0  0  0  0  0  0
  149.2314  134.5800  154.1672 N   0  0  0  0  0  0  0  0  0  0  0  0
  149.3535  135.5241  155.1250 C   0  0  0  0  0  0  0  0  0  0  0  0
  149.6420  135.2240  156.2824 O   0  0  0  0  0  0  0  0  0  0  0  0
  149.1498  136.7911  154.7361 N   0  0  0  0  0  0  0  0  0  0  0  0
  149.2705  137.9711  155.5971 C   0  0  1  0  0  0  0  0  0  0  0  0
  150.7161  138.4139  155.8419 C   0  0  1  0  0  0  0  0  0  0  0  0
  152.0520  137.7687  155.7555 C   0  0  0  0  0  0  0  0  0  0  0  0
  152.7983  138.9508  155.0822 C   0  0  0  0  0  0  0  0  0  0  0  0
  151.7742  139.9034  154.6996 O   0  0  0  0  0  0  0  0  0  0  0  0
  150.6208  139.1091  154.4994 C   0  0  2  0  0  0  0  0  0  0  0  0
  149.1287  139.3447  154.8350 C   0  0  0  0  0  0  0  0  0  0  0  0
  148.1507  139.4063  153.6543 C   0  0  0  0  0  0  0  0  0  0  0  0
  147.6086  140.8302  153.5755 C   0  0  0  0  0  0  0  0  0  0  0  0
  147.5828  141.2875  155.0264 C   0  0  0  0  0  0  0  0  0  0  0  0
  148.7918  140.6015  155.6627 C   0  0  0  0  0  0  0  0  0  0  0  0
  148.8110  132.2974  153.3322 N   0  0  0  0  0  0  0  0  0  0  0  0
  149.0213  130.9722  153.4741 C   0  0  0  0  0  0  0  0  0  0  0  0
  150.3355  128.6446  155.6138 H   0  0  0  0  0  0  0  0  0  0  0  0
  150.7718  128.6012  153.9003 H   0  0  0  0  0  0  0  0  0  0  0  0
  149.0853  128.3968  154.3917 H   0  0  0  0  0  0  0  0  0  0  0  0
  151.0103  130.9363  156.2362 H   0  0  0  0  0  0  0  0  0  0  0  0
  150.6247  133.3808  155.9794 H   0  0  0  0  0  0  0  0  0  0  0  0
  148.9545  134.9381  153.2649 H   0  0  0  0  0  0  0  0  0  0  0  0
  148.9134  136.9534  153.7671 H   0  0  0  0  0  0  0  0  0  0  0  0
  148.6679  137.9173  156.5052 H   0  0  0  0  0  0  0  0  0  0  0  0
  150.7174  139.1234  156.6759 H   0  0  0  0  0  0  0  0  0  0  0  0
  152.4631  137.5108  156.7317 H   0  0  0  0  0  0  0  0  0  0  0  0
  152.0420  136.8799  155.1232 H   0  0  0  0  0  0  0  0  0  0  0  0
  153.5046  139.4277  155.7623 H   0  0  0  0  0  0  0  0  0  0  0  0
  153.3492  138.6114  154.2040 H   0  0  0  0  0  0  0  0  0  0  0  0
  150.7594  138.4486  153.6372 H   0  0  0  0  0  0  0  0  0  0  0  0
  148.6139  139.1107  152.7122 H   0  0  0  0  0  0  0  0  0  0  0  0
  147.3195  138.7201  153.8228 H   0  0  0  0  0  0  0  0  0  0  0  0
  148.2974  141.4549  153.0052 H   0  0  0  0  0  0  0  0  0  0  0  0
  146.6302  140.8848  153.0971 H   0  0  0  0  0  0  0  0  0  0  0  0
  147.6112  142.3727  155.1281 H   0  0  0  0  0  0  0  0  0  0  0  0
  146.6689  140.9317  155.5035 H   0  0  0  0  0  0  0  0  0  0  0  0
  148.5907  140.3671  156.7084 H   0  0  0  0  0  0  0  0  0  0  0  0
  149.6356  141.2923  155.6559 H   0  0  0  0  0  0  0  0  0  0  0  0
  148.5492  130.3339  152.7417 H   0  0  0  0  0  0  0  0  0  0  0  0
  1  2  1  0  0  0  0
  1 23  1  0  0  0  0
  1 24  1  0  0  0  0
  1 25  1  0  0  0  0
  2 22  1  0  0  0  0
  2  3  2  0  0  0  0
  3  4  1  0  0  0  0
  3 26  1  0  0  0  0
  4  5  2  0  0  0  0
  4 27  1  0  0  0  0
  5  6  1  0  0  0  0
  5 21  1  0  0  0  0
  6  7  1  0  0  0  0
  6 28  1  0  0  0  0
  7  8  2  0  0  0  0
  7  9  1  0  0  0  0
  9 10  1  0  0  0  0
  9 29  1  0  0  0  0
 10 16  1  0  0  0  0
 10 11  1  0  0  0  0
 10 30  1  0  0  0  0
 11 15  1  0  0  0  0
 11 12  1  0  0  0  0
 11 31  1  0  0  0  0
 12 13  1  0  0  0  0
 12 32  1  0  0  0  0
 12 33  1  0  0  0  0
 13 14  1  0  0  0  0
 13 34  1  0  0  0  0
 13 35  1  0  0  0  0
 14 15  1  0  0  0  0
 15 16  1  0  0  0  0
 15 36  1  0  0  0  0
 16 20  1  0  0  0  0
 16 17  1  0  0  0  0
 17 18  1  0  0  0  0
 17 37  1  0  0  0  0
 17 38  1  0  0  0  0
 18 19  1  0  0  0  0
 18 39  1  0  0  0  0
 18 40  1  0  0  0  0
 19 20  1  0  0  0  0
 19 41  1  0  0  0  0
 19 42  1  0  0  0  0
 20 43  1  0  0  0  0
 20 44  1  0  0  0  0
 21 22  2  0  0  0  0
 22 45  1  0  0  0  0
M  END
> <s_m_source_file>
AV-unprocessed.smi

> <i_m_source_file_index>
2217

> <i_lp_mmshare_version>
43012

> <i_f3d_flags>
0

> <s_epik_input>
W0NIM11jMVtjSF1bY0hdYyhuW2NIXTEpW05IXUMoPU8pW05IXVtDQEBIXTJbQ0BASF0oW0NIMl1bQ0gyXU8zKVtDQEhdM0MyNFtDSDJdW0NIMl1bQ0gyXVtDSDJdNA==

> <s_epik_cmdline>
J2VwaWtfcHl0aG9uJywgJy1waCcsICc3LjAnLCAnLXRuJywgJzgnLCAnLW1hJywgJzIwMCcsICctbWV0YWxfYmluZGluZycsICctaW1hZScsICc8aW5maWxlLm1hZT4nLCAnLW9tYWUnLCAnPG91dGZpbGUubWFlPic=

> <r_lp_tautomer_probability>
1

> <r_epik_Ionization_Penalty>
6.14796e-05

> <r_epik_Ionization_Penalty_Charging>
0

> <r_epik_Ionization_Penalty_Neutral>
6.14796e-05

> <r_epik_State_Penalty>
-0

> <r_epik_Charging_Adjusted_Penalty>
0

> <i_epik_Tot_Q>
0

> <i_epik_Tot_abs_Q>
0

> <r_epik_Metal_State_Penalty>
-0

> <b_epik_Metal_Only>
0

> <s_lp_Force_Field>
OPLS_2005

> <r_lp_Energy>
82.2592

> <b_lp_Chiralities_Consistent>
1

> <s_lp_Variant>
AV-unprocessed.smi:2217-2

> <Gold.Version>
5.8.1

> <Gold.Id.Protein>
6NUR|6NUR_protein|mol2

> <Gold.PLP.Fitness>
44.5492

> <Gold.PLP.PLP>
-33.7766

> <Gold.PLP.part.hbond>
-2.7945

> <Gold.PLP.part.metal>
0.0000

> <Gold.PLP.part.buried>
-1.4258

> <Gold.PLP.part.nonpolar>
-29.3631

> <Gold.PLP.part.repulsive>
0.2519

> <Gold.PLP.ligand.clash>
0.0000

> <Gold.PLP.ligand.torsion>
0.2623

> <Gold.PLP.Chemscore.Hbond>
2.9280

> <Gold.PLP.Chemscore.CHOScore>
0.7465

> <Gold.PLP.Chemscore.Metal>
0.0000

> <Gold.Chemscore.Hbonds>
donor molecule, donor type, donor heavy atom, donor atom, acceptor molecule, acceptor atom, score
      L1  H     6    28       P1  7948  1.00
      L1  H     9    29       P1  7948  0.93
      P1  H  7989  7998       L1    14  1.00
      L1  C    22    45       P1 10747  0.75

> <Gold.PLP.Chemscore.Internal.Correction>
0.2736

> <Gold.Rescore>
     Score         DG    S(hbond)    S(metal)    S(lipo)     H(rot)  DE(clash)    DE(int)     intcor
     16.83     -18.54       2.07        0.00      74.56       1.00       0.00       1.72       ----

> <Gold.Chemscore.Fitness>
16.8251

> <Gold.Chemscore.DG>
-18.5436

> <Gold.Chemscore.ZeroCoef>
-5.4800

> <Gold.Chemscore.Hbond>
2.0659

> <Gold.Chemscore.Metal>
0.0000

> <Gold.Chemscore.Lipo>
74.5616

> <Gold.Chemscore.Internal_Hbond>
0.0000

> <Gold.Chemscore.DEClash>
0.0000

> <Gold.Chemscore.DEInternal>
1.7186

> <Gold.Chemscore.Rot>
1.0000

> <Gold.Chemscore.Internal.Correction>
   9.000000E+99

> <Gold.Chemscore.Hbonds>
donor molecule, donor type, donor heavy atom, donor atom, acceptor molecule, acceptor atom, score
      L1  H     6    28       P1  7948  0.25
      L1  H     9    29       P1  7948  0.84
      P1  H  7989  7998       L1    14  0.27

> <Gold.Chemscore.Hbond.Weighted>
-6.8999

> <Gold.Chemscore.Metal.Weighted>
-0.0000

> <Gold.Chemscore.Lipo.Weighted>
-8.7237

> <Gold.Chemscore.Internal_Hbond.Weighted>
0.0000

> <Gold.Chemscore.DEClash.Weighted>
0.0000

> <Gold.Chemscore.DEInternal.Weighted>
1.7186

> <Gold.Chemscore.Rot.Weighted>
2.5600

> <Gold.Chemscore.Internal.Correction.Weighted>
   9.000000E+99

> <Gold.Protein.RotatedTorsions>
[ 6907 6896 6895 6894 ] final  -12.33 input  -60.11 | X-H torsion
[ 7974 7965 7964 7962 ] final  172.95 input  175.53 | X-H torsion
[ 8008 7997 7996 7995 ] final   59.22 input   59.86 | X-H torsion
[ 10167 10162 10161 10158 ] final -166.80 input  -65.29 | X-H torsion
[ 10718 10713 10712 10709 ] final  137.85 input   66.30 | X-H torsion
[ 10763 10752 10751 10750 ] final  -30.25 input  -60.55 | X-H torsion
[ 11005 11000 10999 10996 ] final   58.18 input  -57.11 | X-H torsion

> <Gold.Protein.ActiveResidues>
 VAL166  LYS551  ARG553  GLY616  TRP617  ASP618  TYR619  PRO620  LYS621  CYS622 
 ASP623  PHE694  ASN695  SER759  ASP760  ASP761  ALA762  ILE779  LEU786  VAL792 
 PHE793  MET794  SER795  GLU796  ALA797  LYS798  CYS799  TRP800  GLU811  SER814 

> <Gold.Protein.RotatedAtoms>
  151.3722  135.0924  159.9468 H   0  0  0  0  0  0  0  0  0  0  0  0  # atno 6907 bound_to 6896
  152.5132  133.9154  159.7518 H   0  0  0  0  0  0  0  0  0  0  0  0  # atno 6908 bound_to 6896
  150.9570  133.6432  159.2790 H   0  0  0  0  0  0  0  0  0  0  0  0  # atno 6909 bound_to 6896
  144.7255  139.9575  143.6434 H   0  0  0  0  0  0  0  0  0  0  0  0  # atno 7974 bound_to 7965
  155.5626  140.3488  155.4495 H   0  0  0  0  0  0  0  0  0  0  0  0  # atno 8008 bound_to 7997
  156.0503  140.1316  157.0083 H   0  0  0  0  0  0  0  0  0  0  0  0  # atno 8009 bound_to 7997
  154.4431  140.1006  156.6351 H   0  0  0  0  0  0  0  0  0  0  0  0  # atno 8010 bound_to 7997
  139.6091  144.0852  152.1823 H   0  0  0  0  0  0  0  0  0  0  0  0  # atno 10167 bound_to 10162
  157.4316  131.1049  151.0243 H   0  0  0  0  0  0  0  0  0  0  0  0  # atno 10718 bound_to 10713
  153.7779  135.6907  153.4894 H   0  0  0  0  0  0  0  0  0  0  0  0  # atno 10763 bound_to 10752
  153.1831  135.4499  155.0052 H   0  0  0  0  0  0  0  0  0  0  0  0  # atno 10764 bound_to 10752
  154.8093  135.3370  154.7284 H   0  0  0  0  0  0  0  0  0  0  0  0  # atno 10765 bound_to 10752
  140.0397  134.5892  155.9398 H   0  0  0  0  0  0  0  0  0  0  0  0  # atno 11005 bound_to 11000
  146.0664  139.3654  143.0550 LP  0  0  0  0  0  0  0  0  0  0  0  0  # atno 17320 bound_to 7965
  145.8026  140.9764  143.0991 LP  0  0  0  0  0  0  0  0  0  0  0  0  # atno 17321 bound_to 7965
  140.0466  144.5965  150.7369 LP  0  0  0  0  0  0  0  0  0  0  0  0  # atno 17342 bound_to 10162
  140.7306  143.2685  151.3965 LP  0  0  0  0  0  0  0  0  0  0  0  0  # atno 17343 bound_to 10162
  157.1138  130.6033  149.5488 LP  0  0  0  0  0  0  0  0  0  0  0  0  # atno 17370 bound_to 10713
  155.9915  130.4970  150.7303 LP  0  0  0  0  0  0  0  0  0  0  0  0  # atno 17371 bound_to 10713
  141.1876  133.6560  156.5289 LP  0  0  0  0  0  0  0  0  0  0  0  0  # atno 17394 bound_to 11000
  140.4090  134.7289  157.4824 LP  0  0  0  0  0  0  0  0  0  0  0  0  # atno 17395 bound_to 11000

$$$$
