AV-unprocessed.smi:640|AV-procd|sdf|3150|dock8
  -GOLD-   22720 0 73D 1   1.00000     0.00000
 Structure written by MMmdl.
 38 40  0  0  0  0  0  0  0  0  3 V2000
  150.4926  141.2572  158.4489 O   0  0  0  0  0  0  0  0  0  0  0  0
  150.5484  142.2042  157.6635 C   0  0  0  0  0  0  0  0  0  0  0  0
  151.2883  143.4928  158.0478 C   0  0  0  0  0  0  0  0  0  0  0  0
  151.7783  143.4783  159.4362 N   0  0  0  0  0  0  0  0  0  0  0  0
  152.6472  142.4305  159.8005 C   0  0  0  0  0  0  0  0  0  0  0  0
  153.1610  142.3257  161.0418 C   0  0  0  0  0  0  0  0  0  0  0  0
  154.0576  141.2477  161.3973 N   0  3  0  0  0  0  0  0  0  0  0  0
  154.2610  140.3571  160.5783 O   0  0  0  0  0  0  0  0  0  0  0  0
  154.5881  141.2547  162.5042 O   0  5  0  0  0  0  0  0  0  0  0  0
  152.7879  143.3357  162.0134 C   0  0  0  0  0  0  0  0  0  0  0  0
  151.9607  144.3424  161.6698 C   0  0  0  0  0  0  0  0  0  0  0  0
  151.4078  144.4579  160.3165 C   0  0  0  0  0  0  0  0  0  0  0  0
  150.6575  145.3793  159.9941 O   0  0  0  0  0  0  0  0  0  0  0  0
  149.9648  142.1973  156.4551 N   0  0  0  0  0  0  0  0  0  0  0  0
  149.1984  141.0934  155.8865 C   0  0  0  0  0  0  0  0  0  0  0  0
  150.0172  140.3014  154.8836 C   0  0  0  0  0  0  0  0  0  0  0  0
  149.8074  138.8175  154.6934 C   0  0  0  0  0  0  0  0  0  0  0  0
  151.0768  139.3272  155.3391 C   0  0  0  0  0  0  0  0  0  0  0  0
  147.8962  141.5592  155.2577 C   0  0  0  0  0  0  0  0  0  0  0  0
  146.9875  140.5976  154.5294 C   0  0  0  0  0  0  0  0  0  0  0  0
  147.7378  141.6600  153.7588 C   0  0  0  0  0  0  0  0  0  0  0  0
  152.1170  143.6633  157.3576 H   0  0  0  0  0  0  0  0  0  0  0  0
  150.6092  144.3316  157.8891 H   0  0  0  0  0  0  0  0  0  0  0  0
  152.8690  141.7349  159.0040 H   0  0  0  0  0  0  0  0  0  0  0  0
  153.1696  143.2933  163.0229 H   0  0  0  0  0  0  0  0  0  0  0  0
  151.6967  145.0845  162.4090 H   0  0  0  0  0  0  0  0  0  0  0  0
  150.0592  143.0233  155.8820 H   0  0  0  0  0  0  0  0  0  0  0  0
  148.9420  140.4029  156.6929 H   0  0  0  0  0  0  0  0  0  0  0  0
  150.2519  140.8605  153.9795 H   0  0  0  0  0  0  0  0  0  0  0  0
  149.0880  138.3154  155.3373 H   0  0  0  0  0  0  0  0  0  0  0  0
  149.8792  138.4262  153.6807 H   0  0  0  0  0  0  0  0  0  0  0  0
  151.9941  139.2748  154.7564 H   0  0  0  0  0  0  0  0  0  0  0  0
  151.1945  139.1707  156.4096 H   0  0  0  0  0  0  0  0  0  0  0  0
  147.3937  142.3348  155.8332 H   0  0  0  0  0  0  0  0  0  0  0  0
  147.3213  139.5681  154.4166 H   0  0  0  0  0  0  0  0  0  0  0  0
  145.9149  140.7287  154.6561 H   0  0  0  0  0  0  0  0  0  0  0  0
  147.1645  142.4990  153.3698 H   0  0  0  0  0  0  0  0  0  0  0  0
  148.5646  141.3298  153.1332 H   0  0  0  0  0  0  0  0  0  0  0  0
  1  2  2  0  0  0  0
  2  3  1  0  0  0  0
  2 14  1  0  0  0  0
  3  4  1  0  0  0  0
  3 22  1  0  0  0  0
  3 23  1  0  0  0  0
  4 12  1  0  0  0  0
  4  5  1  0  0  0  0
  5  6  2  0  0  0  0
  5 24  1  0  0  0  0
  6  7  1  0  0  0  0
  6 10  1  0  0  0  0
  7  8  2  0  0  0  0
  7  9  1  0  0  0  0
 10 11  2  0  0  0  0
 10 25  1  0  0  0  0
 11 12  1  0  0  0  0
 11 26  1  0  0  0  0
 12 13  2  0  0  0  0
 14 15  1  0  0  0  0
 14 27  1  0  0  0  0
 15 16  1  0  0  0  0
 15 19  1  0  0  0  0
 15 28  1  0  0  0  0
 16 18  1  0  0  0  0
 16 17  1  0  0  0  0
 16 29  1  0  0  0  0
 17 18  1  0  0  0  0
 17 30  1  0  0  0  0
 17 31  1  0  0  0  0
 18 32  1  0  0  0  0
 18 33  1  0  0  0  0
 19 21  1  0  0  0  0
 19 20  1  0  0  0  0
 19 34  1  0  0  0  0
 20 21  1  0  0  0  0
 20 35  1  0  0  0  0
 20 36  1  0  0  0  0
 21 37  1  0  0  0  0
 21 38  1  0  0  0  0
M  CHG  1   7   1
M  CHG  1   9  -1
M  END
> <s_m_source_file>
AV-unprocessed.smi

> <i_m_source_file_index>
640

> <i_lp_mmshare_version>
43012

> <i_f3d_flags>
0

> <s_epik_input>
W0NIMl0xW0NIMl1bQ0hdMVtDSF0oW0NIXTJbQ0gyXVtDSDJdMilbTkhdQyg9TylbQ0gyXW4zW2NIXWMoW04rXSg9TylbTy1dKVtjSF1bY0hdYzM9Tw==

> <s_epik_cmdline>
J2VwaWtfcHl0aG9uJywgJy1waCcsICc3LjAnLCAnLXRuJywgJzgnLCAnLW1hJywgJzIwMCcsICctbWV0YWxfYmluZGluZycsICctaW1hZScsICc8aW5maWxlLm1hZT4nLCAnLW9tYWUnLCAnPG91dGZpbGUubWFlPic=

> <r_lp_tautomer_probability>
1

> <r_epik_Ionization_Penalty>
2.04963e-08

> <r_epik_Ionization_Penalty_Charging>
8.36809e-11

> <r_epik_Ionization_Penalty_Neutral>
2.04126e-08

> <r_epik_State_Penalty>
-0

> <r_epik_Charging_Adjusted_Penalty>
8.36809e-11

> <i_epik_Tot_Q>
0

> <i_epik_Tot_abs_Q>
2

> <r_epik_Metal_State_Penalty>
-0

> <b_epik_Metal_Only>
0

> <s_lp_Force_Field>
OPLS_2005

> <r_lp_Energy>
35.0527

> <b_lp_Chiralities_Consistent>
1

> <s_lp_Variant>
AV-unprocessed.smi:640-1

> <Gold.Version>
5.8.1

> <Gold.Id.Protein>
6NUR|6NUR_protein|mol2

> <Gold.PLP.Fitness>
50.9243

> <Gold.PLP.PLP>
-49.2615

> <Gold.PLP.part.hbond>
-2.0000

> <Gold.PLP.part.metal>
0.0000

> <Gold.PLP.part.buried>
-5.4569

> <Gold.PLP.part.nonpolar>
-41.1959

> <Gold.PLP.part.repulsive>
0.2799

> <Gold.PLP.ligand.clash>
0.0000

> <Gold.PLP.ligand.torsion>
1.4142

> <Gold.PLP.Chemscore.Hbond>
0.7840

> <Gold.PLP.Chemscore.CHOScore>
0.0000

> <Gold.PLP.Chemscore.Metal>
0.0000

> <Gold.Chemscore.Hbonds>
donor molecule, donor type, donor heavy atom, donor atom, acceptor molecule, acceptor atom, score
      L1  H    14    27       P1  8028  0.59

> <Gold.PLP.Chemscore.Internal.Correction>
2.1392

> <Gold.Rescore>
     Score         DG    S(hbond)    S(metal)    S(lipo)     H(rot)  DE(clash)    DE(int)     intcor
     11.68     -14.95       0.91        0.00      97.41       1.94       0.01       3.26       ----

> <Gold.Chemscore.Fitness>
11.6831

> <Gold.Chemscore.DG>
-14.9521

> <Gold.Chemscore.ZeroCoef>
-5.4800

> <Gold.Chemscore.Hbond>
0.9092

> <Gold.Chemscore.Metal>
0.0000

> <Gold.Chemscore.Lipo>
97.4062

> <Gold.Chemscore.Internal_Hbond>
0.0000

> <Gold.Chemscore.DEClash>
0.0077

> <Gold.Chemscore.DEInternal>
3.2613

> <Gold.Chemscore.Rot>
1.9380

> <Gold.Chemscore.Internal.Correction>
   9.000000E+99

> <Gold.Chemscore.Hbonds>
donor molecule, donor type, donor heavy atom, donor atom, acceptor molecule, acceptor atom, score
      L1  H    14    27       P1  8028  0.57

> <Gold.Chemscore.Hbond.Weighted>
-3.0369

> <Gold.Chemscore.Metal.Weighted>
-0.0000

> <Gold.Chemscore.Lipo.Weighted>
-11.3965

> <Gold.Chemscore.Internal_Hbond.Weighted>
0.0000

> <Gold.Chemscore.DEClash.Weighted>
0.0077

> <Gold.Chemscore.DEInternal.Weighted>
3.2613

> <Gold.Chemscore.Rot.Weighted>
4.9613

> <Gold.Chemscore.Internal.Correction.Weighted>
   9.000000E+99

> <Gold.Protein.RotatedTorsions>
[ 6907 6896 6895 6894 ] final  -55.07 input  -60.11 | X-H torsion
[ 7974 7965 7964 7962 ] final  145.24 input  175.53 | X-H torsion
[ 8008 7997 7996 7995 ] final   79.42 input   59.86 | X-H torsion
[ 10167 10162 10161 10158 ] final  -55.75 input  -65.29 | X-H torsion
[ 10718 10713 10712 10709 ] final  152.53 input   66.30 | X-H torsion
[ 10763 10752 10751 10750 ] final  134.54 input  -60.55 | X-H torsion
[ 11005 11000 10999 10996 ] final   -3.10 input  -57.11 | X-H torsion

> <Gold.Protein.ActiveResidues>
 VAL166  LYS551  ARG553  GLY616  TRP617  ASP618  TYR619  PRO620  LYS621  CYS622 
 ASP623  PHE694  ASN695  SER759  ASP760  ASP761  ALA762  ILE779  LEU786  VAL792 
 PHE793  MET794  SER795  GLU796  ALA797  LYS798  CYS799  TRP800  GLU811  SER814 

> <Gold.Protein.RotatedAtoms>
  150.8283  134.7525  159.6831 H   0  0  0  0  0  0  0  0  0  0  0  0  # atno 6907 bound_to 6896
  152.4391  134.5623  159.9907 H   0  0  0  0  0  0  0  0  0  0  0  0  # atno 6908 bound_to 6896
  151.5790  133.3342  159.3040 H   0  0  0  0  0  0  0  0  0  0  0  0  # atno 6909 bound_to 6896
  144.8769  139.5759  143.5861 H   0  0  0  0  0  0  0  0  0  0  0  0  # atno 7974 bound_to 7965
  155.8694  140.3450  155.5811 H   0  0  0  0  0  0  0  0  0  0  0  0  # atno 8008 bound_to 7997
  155.7844  140.0863  157.2061 H   0  0  0  0  0  0  0  0  0  0  0  0  # atno 8009 bound_to 7997
  154.4016  140.1495  156.3077 H   0  0  0  0  0  0  0  0  0  0  0  0  # atno 8010 bound_to 7997
  140.6357  143.2481  151.5125 H   0  0  0  0  0  0  0  0  0  0  0  0  # atno 10167 bound_to 10162
  157.2565  131.0789  151.1694 H   0  0  0  0  0  0  0  0  0  0  0  0  # atno 10718 bound_to 10713
  153.8253  135.3111  155.3414 H   0  0  0  0  0  0  0  0  0  0  0  0  # atno 10763 bound_to 10752
  154.7996  135.4735  154.0246 H   0  0  0  0  0  0  0  0  0  0  0  0  # atno 10764 bound_to 10752
  153.1668  135.6871  153.8754 H   0  0  0  0  0  0  0  0  0  0  0  0  # atno 10765 bound_to 10752
  140.6657  133.9281  155.8463 H   0  0  0  0  0  0  0  0  0  0  0  0  # atno 11005 bound_to 11000
  146.2968  139.7304  142.9120 LP  0  0  0  0  0  0  0  0  0  0  0  0  # atno 17320 bound_to 7965
  145.4026  141.0387  143.3062 LP  0  0  0  0  0  0  0  0  0  0  0  0  # atno 17321 bound_to 7965
  139.5567  144.2257  152.1624 LP  0  0  0  0  0  0  0  0  0  0  0  0  # atno 17342 bound_to 10162
  140.1513  144.5112  150.6686 LP  0  0  0  0  0  0  0  0  0  0  0  0  # atno 17343 bound_to 10162
  157.3221  130.6942  149.6275 LP  0  0  0  0  0  0  0  0  0  0  0  0  # atno 17370 bound_to 10713
  155.9665  130.4332  150.4997 LP  0  0  0  0  0  0  0  0  0  0  0  0  # atno 17371 bound_to 10713
  141.0431  134.0593  157.3877 LP  0  0  0  0  0  0  0  0  0  0  0  0  # atno 17394 bound_to 11000
  139.8998  135.0160  156.7213 LP  0  0  0  0  0  0  0  0  0  0  0  0  # atno 17395 bound_to 11000

$$$$
