AV-unprocessed.smi:3078|AV-procd|sdf|11732|dock6
  -GOLD-   2272017133D 1   1.00000     0.00000
 Structure written by MMmdl.
 23 23  0  0  0  0  0  0  0  0  2 V2000
  148.3471  132.5535  153.3516 C   0  0  0  0  0  0  0  0  0  0  0  0
  147.0879  132.5338  152.6382 N   0  0  0  0  0  0  0  0  0  0  0  0
  146.5608  133.4875  151.7946 C   0  0  0  0  0  0  0  0  0  0  0  0
  145.3475  133.0281  151.3601 C   0  0  0  0  0  0  0  0  0  0  0  0
  144.3647  133.6698  150.4161 C   0  0  1  0  0  0  0  0  0  0  0  0
  144.8370  134.9795  150.0035 N   0  0  0  0  0  0  0  0  0  0  0  0
  144.1622  132.7967  149.1646 C   0  0  0  0  0  0  0  0  0  0  0  0
  143.6145  133.5727  148.0387 N   0  3  0  0  0  0  0  0  0  0  0  0
  145.2281  131.7625  152.0033 C   0  0  0  0  0  0  0  0  0  0  0  0
  146.2677  131.4716  152.7674 N   0  0  0  0  0  0  0  0  0  0  0  0
  148.9208  133.4382  153.0744 H   0  0  0  0  0  0  0  0  0  0  0  0
  148.9269  131.6637  153.1038 H   0  0  0  0  0  0  0  0  0  0  0  0
  148.1614  132.5727  154.4258 H   0  0  0  0  0  0  0  0  0  0  0  0
  147.0869  134.4046  151.5737 H   0  0  0  0  0  0  0  0  0  0  0  0
  143.4047  133.8074  150.9157 H   0  0  0  0  0  0  0  0  0  0  0  0
  145.1804  134.9364  149.0542 H   0  0  0  0  0  0  0  0  0  0  0  0
  144.0641  135.6307  149.9966 H   0  0  0  0  0  0  0  0  0  0  0  0
  145.0970  132.3235  148.8597 H   0  0  0  0  0  0  0  0  0  0  0  0
  143.4572  131.9935  149.3828 H   0  0  0  0  0  0  0  0  0  0  0  0
  143.4220  132.9542  147.2639 H   0  0  0  0  0  0  0  0  0  0  0  0
  144.2908  134.2678  147.7561 H   0  0  0  0  0  0  0  0  0  0  0  0
  144.4192  131.0498  151.9371 H   0  0  0  0  0  0  0  0  0  0  0  0
  142.7614  134.0299  148.3267 H   0  0  0  0  0  0  0  0  0  0  0  0
  1  2  1  0  0  0  0
  1 11  1  0  0  0  0
  1 12  1  0  0  0  0
  1 13  1  0  0  0  0
  2 10  1  0  0  0  0
  2  3  1  0  0  0  0
  3  4  2  0  0  0  0
  3 14  1  0  0  0  0
  4  5  1  0  0  0  0
  4  9  1  0  0  0  0
  5  6  1  0  0  0  0
  5  7  1  0  0  0  0
  5 15  1  0  0  0  0
  6 16  1  0  0  0  0
  6 17  1  0  0  0  0
  7  8  1  0  0  0  0
  7 18  1  0  0  0  0
  7 19  1  0  0  0  0
  8 20  1  0  0  0  0
  8 21  1  0  0  0  0
  8 23  1  0  0  0  0
  9 10  2  0  0  0  0
  9 22  1  0  0  0  0
M  CHG  1   8   1
M  END
> <s_m_source_file>
AV-unprocessed.smi

> <i_m_source_file_index>
3078

> <i_lp_mmshare_version>
43012

> <i_f3d_flags>
0

> <s_epik_input>
W0NIM11uMVtjSF1jKFtjSF1uMSlbQ0BIXShbTkgyXSlbQ0gyXVtOSDJd

> <s_epik_cmdline>
J2VwaWtfcHl0aG9uJywgJy1waCcsICc3LjAnLCAnLXRuJywgJzgnLCAnLW1hJywgJzIwMCcsICctbWV0YWxfYmluZGluZycsICctaW1hZScsICc8aW5maWxlLm1hZT4nLCAnLW9tYWUnLCAnPG91dGZpbGUubWFlPic=

> <r_lp_tautomer_probability>
1

> <r_epik_Ionization_Penalty>
0.0498714

> <r_epik_Ionization_Penalty_Charging>
0.00651912

> <r_epik_Ionization_Penalty_Neutral>
0.0433523

> <r_epik_State_Penalty>
0.141593

> <r_epik_Charging_Adjusted_Penalty>
0.148112

> <i_epik_Tot_Q>
1

> <i_epik_Tot_abs_Q>
1

> <r_epik_Metal_State_Penalty>
0.141584

> <b_epik_Metal_Only>
0

> <s_lp_Force_Field>
OPLS_2005

> <r_lp_Energy>
-1.23381

> <b_lp_Chiralities_Consistent>
1

> <s_lp_Variant>
AV-unprocessed.smi:3078-2

> <Gold.Version>
5.8.1

> <Gold.Id.Protein>
6NUR|6NUR_protein|mol2

> <Gold.PLP.Fitness>
38.2269

> <Gold.PLP.PLP>
-23.2527

> <Gold.PLP.part.hbond>
-3.9938

> <Gold.PLP.part.metal>
0.0000

> <Gold.PLP.part.buried>
-4.1935

> <Gold.PLP.part.nonpolar>
-15.8505

> <Gold.PLP.part.repulsive>
0.3539

> <Gold.PLP.ligand.clash>
0.0000

> <Gold.PLP.ligand.torsion>
0.2114

> <Gold.PLP.Chemscore.Hbond>
4.1315

> <Gold.PLP.Chemscore.CHOScore>
1.0000

> <Gold.PLP.Chemscore.Metal>
0.0000

> <Gold.Chemscore.Hbonds>
donor molecule, donor type, donor heavy atom, donor atom, acceptor molecule, acceptor atom, score
      L1  H     6    16       P1  7921  1.00
      L1  H     8    20       P1 10195  0.07
      L1  H     8    21       P1  7921  0.99
      L1  H     8    23       P1 10186  1.40
      L1  C     3    14       P1  7948  0.89

> <Gold.PLP.Chemscore.Internal.Correction>
0.0025

> <Gold.Rescore>
     Score         DG    S(hbond)    S(metal)    S(lipo)     H(rot)  DE(clash)    DE(int)     intcor
     18.26     -18.53       3.39        0.00      45.74       1.41       0.09       0.18       ----

> <Gold.Chemscore.Fitness>
18.2583

> <Gold.Chemscore.DG>
-18.5285

> <Gold.Chemscore.ZeroCoef>
-5.4800

> <Gold.Chemscore.Hbond>
3.3871

> <Gold.Chemscore.Metal>
0.0000

> <Gold.Chemscore.Lipo>
45.7355

> <Gold.Chemscore.Internal_Hbond>
0.0000

> <Gold.Chemscore.DEClash>
0.0894

> <Gold.Chemscore.DEInternal>
0.1808

> <Gold.Chemscore.Rot>
1.4123

> <Gold.Chemscore.Internal.Correction>
   9.000000E+99

> <Gold.Chemscore.Hbonds>
donor molecule, donor type, donor heavy atom, donor atom, acceptor molecule, acceptor atom, score
      L1  H     6    16       P1  7921  1.00
      L1  H     8    20       P1 10195  0.08
      L1  H     8    21       P1  7921  0.93
      L1  H     8    23       P1 10186  0.68

> <Gold.Chemscore.Hbond.Weighted>
-11.3128

> <Gold.Chemscore.Metal.Weighted>
-0.0000

> <Gold.Chemscore.Lipo.Weighted>
-5.3511

> <Gold.Chemscore.Internal_Hbond.Weighted>
0.0000

> <Gold.Chemscore.DEClash.Weighted>
0.0894

> <Gold.Chemscore.DEInternal.Weighted>
0.1808

> <Gold.Chemscore.Rot.Weighted>
3.6154

> <Gold.Chemscore.Internal.Correction.Weighted>
   9.000000E+99

> <Gold.Protein.RotatedTorsions>
[ 6907 6896 6895 6894 ] final -174.18 input  -60.11 | X-H torsion
[ 7974 7965 7964 7962 ] final   78.26 input  175.53 | X-H torsion
[ 8008 7997 7996 7995 ] final   34.18 input   59.86 | X-H torsion
[ 10167 10162 10161 10158 ] final   31.57 input  -65.29 | X-H torsion
[ 10718 10713 10712 10709 ] final  175.34 input   66.30 | X-H torsion
[ 10763 10752 10751 10750 ] final -170.40 input  -60.55 | X-H torsion
[ 11005 11000 10999 10996 ] final  -50.16 input  -57.11 | X-H torsion

> <Gold.Protein.ActiveResidues>
 VAL166  LYS551  ARG553  GLY616  TRP617  ASP618  TYR619  PRO620  LYS621  CYS622 
 ASP623  PHE694  ASN695  SER759  ASP760  ASP761  ALA762  ILE779  LEU786  VAL792 
 PHE793  MET794  SER795  GLU796  ALA797  LYS798  CYS799  TRP800  GLU811  SER814 

> <Gold.Protein.RotatedAtoms>
  151.5682  133.3393  159.2984 H   0  0  0  0  0  0  0  0  0  0  0  0  # atno 6907 bound_to 6896
  150.8383  134.7667  159.6922 H   0  0  0  0  0  0  0  0  0  0  0  0  # atno 6908 bound_to 6896
  152.4455  134.5510  159.9918 H   0  0  0  0  0  0  0  0  0  0  0  0  # atno 6909 bound_to 6896
  145.6794  139.2519  143.1822 H   0  0  0  0  0  0  0  0  0  0  0  0  # atno 7974 bound_to 7965
  155.1506  140.3274  155.4432 H   0  0  0  0  0  0  0  0  0  0  0  0  # atno 8008 bound_to 7997
  156.2575  140.1977  156.6568 H   0  0  0  0  0  0  0  0  0  0  0  0  # atno 8009 bound_to 7997
  154.6476  140.0562  156.9905 H   0  0  0  0  0  0  0  0  0  0  0  0  # atno 8010 bound_to 7997
  140.4577  144.0954  150.6205 H   0  0  0  0  0  0  0  0  0  0  0  0  # atno 10167 bound_to 10162
  156.9364  130.9987  151.2977 H   0  0  0  0  0  0  0  0  0  0  0  0  # atno 10718 bound_to 10713
  154.6419  135.2899  155.0093 H   0  0  0  0  0  0  0  0  0  0  0  0  # atno 10763 bound_to 10752
  154.1217  135.6547  153.4908 H   0  0  0  0  0  0  0  0  0  0  0  0  # atno 10764 bound_to 10752
  153.0331  135.5289  154.7289 H   0  0  0  0  0  0  0  0  0  0  0  0  # atno 10765 bound_to 10752
  141.0800  133.6656  156.3691 H   0  0  0  0  0  0  0  0  0  0  0  0  # atno 11005 bound_to 11000
  146.0977  140.7581  142.9564 LP  0  0  0  0  0  0  0  0  0  0  0  0  # atno 17320 bound_to 7965
  144.7031  140.3737  143.7140 LP  0  0  0  0  0  0  0  0  0  0  0  0  # atno 17321 bound_to 7965
  140.4131  143.2647  151.9808 LP  0  0  0  0  0  0  0  0  0  0  0  0  # atno 17342 bound_to 10162
  139.4803  144.5897  151.7792 LP  0  0  0  0  0  0  0  0  0  0  0  0  # atno 17343 bound_to 10162
  157.5814  130.8379  149.8527 LP  0  0  0  0  0  0  0  0  0  0  0  0  # atno 17370 bound_to 10713
  156.0424  130.3736  150.1402 LP  0  0  0  0  0  0  0  0  0  0  0  0  # atno 17371 bound_to 10713
  140.5488  134.6048  157.5402 LP  0  0  0  0  0  0  0  0  0  0  0  0  # atno 17394 bound_to 11000
  139.9614  134.7446  156.0229 LP  0  0  0  0  0  0  0  0  0  0  0  0  # atno 17395 bound_to 11000

$$$$
