AV-unprocessed.smi:1853|AV-procd|sdf|7528|dock4
  -GOLD-   22720 9233D 1   1.00000     0.00000
 Structure written by MMmdl.
 43 45  0  0  0  0  0  0  0  0  2 V2000
  154.4973  137.1836  163.5531 C   0  0  0  0  0  0  0  0  0  0  0  0
  154.2265  137.8454  162.2178 C   0  0  0  0  0  0  0  0  0  0  0  0
  154.7912  139.1004  161.9160 C   0  0  0  0  0  0  0  0  0  0  0  0
  154.5337  139.7092  160.6730 C   0  0  0  0  0  0  0  0  0  0  0  0
  153.7125  139.0799  159.7152 C   0  0  0  0  0  0  0  0  0  0  0  0
  153.5173  139.7452  158.5243 O   0  0  0  0  0  0  0  0  0  0  0  0
  152.5147  139.2625  157.6398 C   0  0  0  0  0  0  0  0  0  0  0  0
  151.1381  139.7297  158.1327 C   0  0  0  0  0  0  0  0  0  0  0  0
  150.9101  141.1594  157.8778 N   0  0  0  0  0  0  0  0  0  0  0  0
  150.1207  141.7804  156.9539 C   0  0  0  0  0  0  0  0  0  0  0  0
  149.2493  141.1141  155.9303 C   0  0  0  0  0  0  0  0  0  0  0  0
  148.5202  142.0410  155.0694 N   0  0  0  0  0  0  0  0  0  0  0  0
  147.8033  141.6876  153.9925 C   0  0  0  0  0  0  0  0  0  0  0  0
  147.6303  140.5271  153.6247 O   0  0  0  0  0  0  0  0  0  0  0  0
  150.2756  143.1242  157.1350 N   0  3  0  0  0  0  0  0  0  0  0  0
  151.1528  143.3633  158.1926 C   0  0  0  0  0  0  0  0  0  0  0  0
  151.6060  144.5550  158.7501 C   0  0  0  0  0  0  0  0  0  0  0  0
  152.5023  144.4458  159.8336 C   0  0  0  0  0  0  0  0  0  0  0  0
  152.9139  143.1886  160.3223 C   0  0  0  0  0  0  0  0  0  0  0  0
  152.4481  141.9874  159.7477 C   0  0  0  0  0  0  0  0  0  0  0  0
  151.5630  142.1047  158.6764 C   0  0  0  0  0  0  0  0  0  0  0  0
  153.1442  137.8189  160.0271 C   0  0  0  0  0  0  0  0  0  0  0  0
  153.4015  137.2086  161.2702 C   0  0  0  0  0  0  0  0  0  0  0  0
  155.3530  137.6387  164.0531 H   0  0  0  0  0  0  0  0  0  0  0  0
  154.7100  136.1227  163.4180 H   0  0  0  0  0  0  0  0  0  0  0  0
  153.6281  137.2800  164.2038 H   0  0  0  0  0  0  0  0  0  0  0  0
  155.4229  139.6014  162.6350 H   0  0  0  0  0  0  0  0  0  0  0  0
  154.9700  140.6724  160.4542 H   0  0  0  0  0  0  0  0  0  0  0  0
  152.6890  139.6346  156.6291 H   0  0  0  0  0  0  0  0  0  0  0  0
  152.5368  138.1722  157.6065 H   0  0  0  0  0  0  0  0  0  0  0  0
  150.3394  139.1559  157.6620 H   0  0  0  0  0  0  0  0  0  0  0  0
  151.0450  139.5608  159.2058 H   0  0  0  0  0  0  0  0  0  0  0  0
  149.8750  140.4793  155.3028 H   0  0  0  0  0  0  0  0  0  0  0  0
  148.5368  140.4552  156.4279 H   0  0  0  0  0  0  0  0  0  0  0  0
  148.5985  143.0243  155.2861 H   0  0  0  0  0  0  0  0  0  0  0  0
  147.3893  142.5739  153.4872 H   0  0  0  0  0  0  0  0  0  0  0  0
  151.2902  145.5189  158.3788 H   0  0  0  0  0  0  0  0  0  0  0  0
  152.8802  145.3439  160.3003 H   0  0  0  0  0  0  0  0  0  0  0  0
  153.6000  143.1444  161.1556 H   0  0  0  0  0  0  0  0  0  0  0  0
  152.7672  141.0295  160.1311 H   0  0  0  0  0  0  0  0  0  0  0  0
  152.5073  137.2970  159.3293 H   0  0  0  0  0  0  0  0  0  0  0  0
  152.9623  136.2473  161.4943 H   0  0  0  0  0  0  0  0  0  0  0  0
  149.8004  143.8243  156.5803 H   0  0  0  0  0  0  0  0  0  0  0  0
  1  2  1  0  0  0  0
  1 24  1  0  0  0  0
  1 25  1  0  0  0  0
  1 26  1  0  0  0  0
  2 23  1  0  0  0  0
  2  3  2  0  0  0  0
  3  4  1  0  0  0  0
  3 27  1  0  0  0  0
  4  5  2  0  0  0  0
  4 28  1  0  0  0  0
  5  6  1  0  0  0  0
  5 22  1  0  0  0  0
  6  7  1  0  0  0  0
  7  8  1  0  0  0  0
  7 29  1  0  0  0  0
  7 30  1  0  0  0  0
  8  9  1  0  0  0  0
  8 31  1  0  0  0  0
  8 32  1  0  0  0  0
  9 21  1  0  0  0  0
  9 10  1  0  0  0  0
 10 11  1  0  0  0  0
 10 15  2  0  0  0  0
 11 12  1  0  0  0  0
 11 33  1  0  0  0  0
 11 34  1  0  0  0  0
 12 13  1  0  0  0  0
 12 35  1  0  0  0  0
 13 14  2  0  0  0  0
 13 36  1  0  0  0  0
 15 16  1  0  0  0  0
 15 43  1  0  0  0  0
 16 21  2  0  0  0  0
 16 17  1  0  0  0  0
 17 18  2  0  0  0  0
 17 37  1  0  0  0  0
 18 19  1  0  0  0  0
 18 38  1  0  0  0  0
 19 20  2  0  0  0  0
 19 39  1  0  0  0  0
 20 21  1  0  0  0  0
 20 40  1  0  0  0  0
 22 23  2  0  0  0  0
 22 41  1  0  0  0  0
 23 42  1  0  0  0  0
M  CHG  1  15   1
M  END
> <s_m_source_file>
AV-unprocessed.smi

> <i_m_source_file_index>
1853

> <i_lp_mmshare_version>
43012

> <i_f3d_flags>
0

> <s_epik_input>
W0NIM11jMVtjSF1bY0hdYyhbY0hdW2NIXTEpT1tDSDJdW0NIMl1uKGMobjIpW0NIMl1bTkhdW0NIXT1PKWMoYzIzKVtjSF1bY0hdW2NIXVtjSF0z

> <s_epik_cmdline>
J2VwaWtfcHl0aG9uJywgJy1waCcsICc3LjAnLCAnLXRuJywgJzgnLCAnLW1hJywgJzIwMCcsICctbWV0YWxfYmluZGluZycsICctaW1hZScsICc8aW5maWxlLm1hZT4nLCAnLW9tYWUnLCAnPG91dGZpbGUubWFlPic=

> <r_lp_tautomer_probability>
1

> <r_epik_Ionization_Penalty>
1.39966

> <r_epik_Ionization_Penalty_Charging>
1.39966

> <r_epik_Ionization_Penalty_Neutral>
7.38905e-08

> <r_epik_State_Penalty>
1.4817

> <r_epik_Charging_Adjusted_Penalty>
2.88136

> <i_epik_Tot_Q>
1

> <i_epik_Tot_abs_Q>
1

> <r_epik_Metal_State_Penalty>
1.53574

> <b_epik_Metal_Only>
0

> <s_lp_Force_Field>
OPLS_2005

> <r_lp_Energy>
13.1997

> <b_lp_Chiralities_Consistent>
1

> <s_lp_Variant>
AV-unprocessed.smi:1853-2

> <Gold.Version>
5.8.1

> <Gold.Id.Protein>
6NUR|6NUR_protein|mol2

> <Gold.PLP.Fitness>
60.0100

> <Gold.PLP.PLP>
-48.9409

> <Gold.PLP.part.hbond>
-3.0000

> <Gold.PLP.part.metal>
0.0000

> <Gold.PLP.part.buried>
-7.2618

> <Gold.PLP.part.nonpolar>
-39.4752

> <Gold.PLP.part.repulsive>
0.3253

> <Gold.PLP.ligand.clash>
0.0000

> <Gold.PLP.ligand.torsion>
0.4551

> <Gold.PLP.Chemscore.Hbond>
3.9760

> <Gold.PLP.Chemscore.CHOScore>
0.0000

> <Gold.PLP.Chemscore.Metal>
0.0000

> <Gold.Chemscore.Hbonds>
donor molecule, donor type, donor heavy atom, donor atom, acceptor molecule, acceptor atom, score
      L1  H    12    35       P1  8028  1.00
      L1  H    15    43       P1  8028  2.00
      P1  H  7997  8008       L1     6  0.98

> <Gold.PLP.Chemscore.Internal.Correction>
0.0513

> <Gold.Rescore>
     Score         DG    S(hbond)    S(metal)    S(lipo)     H(rot)  DE(clash)    DE(int)     intcor
     23.09     -23.73       2.90        0.00     127.07       2.46       0.00       0.64       ----

> <Gold.Chemscore.Fitness>
23.0922

> <Gold.Chemscore.DG>
-23.7314

> <Gold.Chemscore.ZeroCoef>
-5.4800

> <Gold.Chemscore.Hbond>
2.8989

> <Gold.Chemscore.Metal>
0.0000

> <Gold.Chemscore.Lipo>
127.0704

> <Gold.Chemscore.Internal_Hbond>
0.0000

> <Gold.Chemscore.DEClash>
0.0029

> <Gold.Chemscore.DEInternal>
0.6362

> <Gold.Chemscore.Rot>
2.4603

> <Gold.Chemscore.Internal.Correction>
   9.000000E+99

> <Gold.Chemscore.Hbonds>
donor molecule, donor type, donor heavy atom, donor atom, acceptor molecule, acceptor atom, score
      L1  H    12    35       P1  8028  1.00
      L1  H    15    43       P1  8028  0.97
      P1  H  7997  8008       L1     6  0.23

> <Gold.Chemscore.Hbond.Weighted>
-9.6824

> <Gold.Chemscore.Metal.Weighted>
-0.0000

> <Gold.Chemscore.Lipo.Weighted>
-14.8672

> <Gold.Chemscore.Internal_Hbond.Weighted>
0.0000

> <Gold.Chemscore.DEClash.Weighted>
0.0029

> <Gold.Chemscore.DEInternal.Weighted>
0.6362

> <Gold.Chemscore.Rot.Weighted>
6.2983

> <Gold.Chemscore.Internal.Correction.Weighted>
   9.000000E+99

> <Gold.Protein.RotatedTorsions>
[ 6907 6896 6895 6894 ] final   82.28 input  -60.11 | X-H torsion
[ 7974 7965 7964 7962 ] final -128.45 input  175.53 | X-H torsion
[ 8008 7997 7996 7995 ] final -111.33 input   59.86 | X-H torsion
[ 10167 10162 10161 10158 ] final   81.13 input  -65.29 | X-H torsion
[ 10718 10713 10712 10709 ] final  -34.94 input   66.30 | X-H torsion
[ 10763 10752 10751 10750 ] final -148.20 input  -60.55 | X-H torsion
[ 11005 11000 10999 10996 ] final  -83.13 input  -57.11 | X-H torsion

> <Gold.Protein.ActiveResidues>
 VAL166  LYS551  ARG553  GLY616  TRP617  ASP618  TYR619  PRO620  LYS621  CYS622 
 ASP623  PHE694  ASN695  SER759  ASP760  ASP761  ALA762  ILE779  LEU786  VAL792 
 PHE793  MET794  SER795  GLU796  ALA797  LYS798  CYS799  TRP800  GLU811  SER814 

> <Gold.Protein.RotatedAtoms>
  152.5294  134.3075  159.9100 H   0  0  0  0  0  0  0  0  0  0  0  0  # atno 6907 bound_to 6896
  151.3025  133.4110  159.2648 H   0  0  0  0  0  0  0  0  0  0  0  0  # atno 6908 bound_to 6896
  151.0107  134.9411  159.8063 H   0  0  0  0  0  0  0  0  0  0  0  0  # atno 6909 bound_to 6896
  144.9669  140.7505  143.4694 H   0  0  0  0  0  0  0  0  0  0  0  0  # atno 7974 bound_to 7965
  154.9882  140.0395  157.2308 H   0  0  0  0  0  0  0  0  0  0  0  0  # atno 8008 bound_to 7997
  154.7652  140.2792  155.6159 H   0  0  0  0  0  0  0  0  0  0  0  0  # atno 8009 bound_to 7997
  156.2911  140.2620  156.2441 H   0  0  0  0  0  0  0  0  0  0  0  0  # atno 8010 bound_to 7997
  139.9425  144.6080  150.8238 H   0  0  0  0  0  0  0  0  0  0  0  0  # atno 10167 bound_to 10162
  156.3446  130.4299  149.7757 H   0  0  0  0  0  0  0  0  0  0  0  0  # atno 10718 bound_to 10713
  154.8246  135.3340  154.6937 H   0  0  0  0  0  0  0  0  0  0  0  0  # atno 10763 bound_to 10752
  153.7565  135.6935  153.4939 H   0  0  0  0  0  0  0  0  0  0  0  0  # atno 10764 bound_to 10752
  153.2140  135.4472  155.0363 H   0  0  0  0  0  0  0  0  0  0  0  0  # atno 10765 bound_to 10752
  141.1659  133.7279  156.8675 H   0  0  0  0  0  0  0  0  0  0  0  0  # atno 11005 bound_to 11000
  145.2616  139.1990  143.4889 LP  0  0  0  0  0  0  0  0  0  0  0  0  # atno 17320 bound_to 7965
  146.3370  140.2547  142.8600 LP  0  0  0  0  0  0  0  0  0  0  0  0  # atno 17321 bound_to 7965
  140.7607  143.3157  151.2740 LP  0  0  0  0  0  0  0  0  0  0  0  0  # atno 17342 bound_to 10162
  139.6693  144.0048  152.2743 LP  0  0  0  0  0  0  0  0  0  0  0  0  # atno 17343 bound_to 10162
  156.4981  130.8116  151.3121 LP  0  0  0  0  0  0  0  0  0  0  0  0  # atno 17370 bound_to 10713
  157.7452  130.9953  150.2741 LP  0  0  0  0  0  0  0  0  0  0  0  0  # atno 17371 bound_to 10713
  140.1805  134.9036  157.2943 LP  0  0  0  0  0  0  0  0  0  0  0  0  # atno 17394 bound_to 11000
  140.2400  134.3806  155.7484 LP  0  0  0  0  0  0  0  0  0  0  0  0  # atno 17395 bound_to 11000

$$$$
