AV-unprocessed.smi:2008|AV-procd|sdf|8142|dock4
  -GOLD-   2272010383D 1   1.00000     0.00000
 Structure written by MMmdl.
 46 47  0  0  0  0  0  0  0  0  2 V2000
  153.2141  139.6520  159.7097 C   0  0  0  0  0  0  0  0  0  0  0  0
  153.6093  139.0021  158.5064 O   0  0  0  0  0  0  0  0  0  0  0  0
  152.7418  139.0276  157.4336 C   0  0  0  0  0  0  0  0  0  0  0  0
  151.4000  139.3930  157.6594 C   0  0  0  0  0  0  0  0  0  0  0  0
  150.5117  139.4194  156.5679 C   0  0  0  0  0  0  0  0  0  0  0  0
  150.9841  139.0712  155.2863 C   0  0  0  0  0  0  0  0  0  0  0  0
  150.0660  139.1188  154.2021 N   0  0  0  0  0  0  0  0  0  0  0  0
  148.7335  138.9436  154.2248 C   0  0  0  0  0  0  0  0  0  0  0  0
  148.0618  138.6940  155.2257 O   0  0  0  0  0  0  0  0  0  0  0  0
  148.2021  139.0914  153.0026 N   0  0  0  0  0  0  0  0  0  0  0  0
  146.7792  138.9946  152.6973 C   0  0  0  0  0  0  0  0  0  0  0  0
  146.5175  138.0144  151.5367 C   0  0  0  0  0  0  0  0  0  0  0  0
  146.6850  136.5856  151.9193 N   0  3  1  0  0  0  0  0  0  0  0  0
  146.2115  136.3232  153.3055 C   0  0  0  0  0  0  0  0  0  0  0  0
  146.5812  134.9051  153.7679 C   0  0  0  0  0  0  0  0  0  0  0  0
  146.0331  133.8514  152.8003 C   0  0  0  0  0  0  0  0  0  0  0  0
  146.5225  134.1509  151.3771 C   0  0  0  0  0  0  0  0  0  0  0  0
  146.1732  135.5860  150.9278 C   0  0  1  0  0  0  0  0  0  0  0  0
  144.6719  135.7450  150.6037 C   0  0  0  0  0  0  0  0  0  0  0  0
  152.3533  138.7308  155.1603 C   0  0  0  0  0  0  0  0  0  0  0  0
  153.2107  138.7057  156.2028 N   0  0  0  0  0  0  0  0  0  0  0  0
  153.9959  139.5309  160.4595 H   0  0  0  0  0  0  0  0  0  0  0  0
  152.2984  139.2195  160.1155 H   0  0  0  0  0  0  0  0  0  0  0  0
  153.0669  140.7218  159.5544 H   0  0  0  0  0  0  0  0  0  0  0  0
  151.0590  139.6493  158.6516 H   0  0  0  0  0  0  0  0  0  0  0  0
  149.4791  139.6992  156.7174 H   0  0  0  0  0  0  0  0  0  0  0  0
  150.4633  139.3858  153.3132 H   0  0  0  0  0  0  0  0  0  0  0  0
  148.8230  139.2998  152.2339 H   0  0  0  0  0  0  0  0  0  0  0  0
  146.2497  138.6971  153.6026 H   0  0  0  0  0  0  0  0  0  0  0  0
  146.4175  139.9891  152.4350 H   0  0  0  0  0  0  0  0  0  0  0  0
  145.4895  138.1626  151.2025 H   0  0  0  0  0  0  0  0  0  0  0  0
  147.1435  138.2480  150.6754 H   0  0  0  0  0  0  0  0  0  0  0  0
  146.6646  137.0421  153.9892 H   0  0  0  0  0  0  0  0  0  0  0  0
  145.1335  136.4751  153.3677 H   0  0  0  0  0  0  0  0  0  0  0  0
  147.6661  134.8125  153.8338 H   0  0  0  0  0  0  0  0  0  0  0  0
  146.1941  134.7269  154.7717 H   0  0  0  0  0  0  0  0  0  0  0  0
  146.3557  132.8561  153.1071 H   0  0  0  0  0  0  0  0  0  0  0  0
  144.9431  133.8475  152.8317 H   0  0  0  0  0  0  0  0  0  0  0  0
  147.6050  134.0188  151.3410 H   0  0  0  0  0  0  0  0  0  0  0  0
  146.1077  133.4232  150.6787 H   0  0  0  0  0  0  0  0  0  0  0  0
  146.7138  135.7368  149.9944 H   0  0  0  0  0  0  0  0  0  0  0  0
  144.3481  134.9771  149.9009 H   0  0  0  0  0  0  0  0  0  0  0  0
  144.4573  136.7050  150.1344 H   0  0  0  0  0  0  0  0  0  0  0  0
  144.0435  135.6577  151.4896 H   0  0  0  0  0  0  0  0  0  0  0  0
  152.7985  138.4883  154.2083 H   0  0  0  0  0  0  0  0  0  0  0  0
  147.6833  136.4359  151.9545 H   0  0  0  0  0  0  0  0  0  0  0  0
  1  2  1  0  0  0  0
  1 22  1  0  0  0  0
  1 23  1  0  0  0  0
  1 24  1  0  0  0  0
  2  3  1  0  0  0  0
  3 21  1  0  0  0  0
  3  4  2  0  0  0  0
  4  5  1  0  0  0  0
  4 25  1  0  0  0  0
  5  6  2  0  0  0  0
  5 26  1  0  0  0  0
  6  7  1  0  0  0  0
  6 20  1  0  0  0  0
  7  8  1  0  0  0  0
  7 27  1  0  0  0  0
  8  9  2  0  0  0  0
  8 10  1  0  0  0  0
 10 11  1  0  0  0  0
 10 28  1  0  0  0  0
 11 12  1  0  0  0  0
 11 29  1  0  0  0  0
 11 30  1  0  0  0  0
 12 13  1  0  0  0  0
 12 31  1  0  0  0  0
 12 32  1  0  0  0  0
 13 18  1  0  0  0  0
 13 14  1  0  0  0  0
 13 46  1  0  0  0  0
 14 15  1  0  0  0  0
 14 33  1  0  0  0  0
 14 34  1  0  0  0  0
 15 16  1  0  0  0  0
 15 35  1  0  0  0  0
 15 36  1  0  0  0  0
 16 17  1  0  0  0  0
 16 37  1  0  0  0  0
 16 38  1  0  0  0  0
 17 18  1  0  0  0  0
 17 39  1  0  0  0  0
 17 40  1  0  0  0  0
 18 19  1  0  0  0  0
 18 41  1  0  0  0  0
 19 42  1  0  0  0  0
 19 43  1  0  0  0  0
 19 44  1  0  0  0  0
 20 21  2  0  0  0  0
 20 45  1  0  0  0  0
M  CHG  1  13   1
M  END
> <s_m_source_file>
AV-unprocessed.smi

> <i_m_source_file_index>
2008

> <i_lp_mmshare_version>
43012

> <i_f3d_flags>
0

> <s_epik_input>
W0NIM11PYzFbY0hdW2NIXWMoW2NIXW4xKVtOSF1DKD1PKVtOSF1bQ0gyXVtDSDJdTjJbQ0gyXVtDSDJdW0NIMl1bQ0gyXVtDQEhdMltDSDNd

> <s_epik_cmdline>
J2VwaWtfcHl0aG9uJywgJy1waCcsICc3LjAnLCAnLXRuJywgJzgnLCAnLW1hJywgJzIwMCcsICctbWV0YWxfYmluZGluZycsICctaW1hZScsICc8aW5maWxlLm1hZT4nLCAnLW9tYWUnLCAnPG91dGZpbGUubWFlPic=

> <r_lp_tautomer_probability>
1

> <r_epik_Ionization_Penalty>
0.00219526

> <r_epik_Ionization_Penalty_Charging>
0.00211816

> <r_epik_Ionization_Penalty_Neutral>
7.71003e-05

> <r_epik_State_Penalty>
0.00145254

> <r_epik_Charging_Adjusted_Penalty>
0.0035707

> <i_epik_Tot_Q>
1

> <i_epik_Tot_abs_Q>
1

> <r_epik_Metal_State_Penalty>
-0

> <b_epik_Metal_Only>
0

> <s_lp_Force_Field>
OPLS_2005

> <r_lp_Energy>
23.0137

> <b_lp_Chiralities_Consistent>
1

> <s_lp_Variant>
AV-unprocessed.smi:2008-2

> <Gold.Version>
5.8.1

> <Gold.Id.Protein>
6NUR|6NUR_protein|mol2

> <Gold.PLP.Fitness>
47.4664

> <Gold.PLP.PLP>
-33.9576

> <Gold.PLP.part.hbond>
-5.7393

> <Gold.PLP.part.metal>
0.0000

> <Gold.PLP.part.buried>
1.2885

> <Gold.PLP.part.nonpolar>
-28.9020

> <Gold.PLP.part.repulsive>
0.3325

> <Gold.PLP.ligand.clash>
0.0052

> <Gold.PLP.ligand.torsion>
0.5934

> <Gold.PLP.Chemscore.Hbond>
4.8819

> <Gold.PLP.Chemscore.CHOScore>
0.0000

> <Gold.PLP.Chemscore.Metal>
0.0000

> <Gold.Chemscore.Hbonds>
donor molecule, donor type, donor heavy atom, donor atom, acceptor molecule, acceptor atom, score
      L1  H     7    27       P1  7957  0.07
      L1  H    10    28       P1  7957  0.94
      L1  H    13    46       P1  7948  0.68
      P1  H  7997  8008       L1     2  0.10
      P1  H  7997  8009       L1    21  0.01

> <Gold.PLP.Chemscore.Internal.Correction>
0.0551

> <Gold.Rescore>
     Score         DG    S(hbond)    S(metal)    S(lipo)     H(rot)  DE(clash)    DE(int)     intcor
     16.67     -19.76       2.93        0.00      75.81       1.71       1.48       1.61       ----

> <Gold.Chemscore.Fitness>
16.6720

> <Gold.Chemscore.DG>
-19.7624

> <Gold.Chemscore.ZeroCoef>
-5.4800

> <Gold.Chemscore.Hbond>
2.9319

> <Gold.Chemscore.Metal>
0.0000

> <Gold.Chemscore.Lipo>
75.8060

> <Gold.Chemscore.Internal_Hbond>
0.0000

> <Gold.Chemscore.DEClash>
1.4799

> <Gold.Chemscore.DEInternal>
1.6106

> <Gold.Chemscore.Rot>
1.7107

> <Gold.Chemscore.Internal.Correction>
   9.000000E+99

> <Gold.Chemscore.Hbonds>
donor molecule, donor type, donor heavy atom, donor atom, acceptor molecule, acceptor atom, score
      L1  H     7    27       P1  7957  0.09
      L1  H    10    28       P1  7957  0.90
      L1  H    13    46       P1  7948  0.35

> <Gold.Chemscore.Hbond.Weighted>
-9.7925

> <Gold.Chemscore.Metal.Weighted>
-0.0000

> <Gold.Chemscore.Lipo.Weighted>
-8.8693

> <Gold.Chemscore.Internal_Hbond.Weighted>
0.0000

> <Gold.Chemscore.DEClash.Weighted>
1.4799

> <Gold.Chemscore.DEInternal.Weighted>
1.6106

> <Gold.Chemscore.Rot.Weighted>
4.3794

> <Gold.Chemscore.Internal.Correction.Weighted>
   9.000000E+99

> <Gold.Protein.RotatedTorsions>
[ 6907 6896 6895 6894 ] final   84.44 input  -60.11 | X-H torsion
[ 7974 7965 7964 7962 ] final  -24.86 input  175.53 | X-H torsion
[ 8008 7997 7996 7995 ] final -101.69 input   59.86 | X-H torsion
[ 10167 10162 10161 10158 ] final  151.27 input  -65.29 | X-H torsion
[ 10718 10713 10712 10709 ] final   11.95 input   66.30 | X-H torsion
[ 10763 10752 10751 10750 ] final -160.58 input  -60.55 | X-H torsion
[ 11005 11000 10999 10996 ] final  -44.80 input  -57.11 | X-H torsion

> <Gold.Protein.ActiveResidues>
 VAL166  LYS551  ARG553  GLY616  TRP617  ASP618  TYR619  PRO620  LYS621  CYS622 
 ASP623  PHE694  ASN695  SER759  ASP760  ASP761  ALA762  ILE779  LEU786  VAL792 
 PHE793  MET794  SER795  GLU796  ALA797  LYS798  CYS799  TRP800  GLU811  SER814 

> <Gold.Protein.RotatedAtoms>
  152.5352  134.2740  159.8982 H   0  0  0  0  0  0  0  0  0  0  0  0  # atno 6907 bound_to 6896
  151.2696  133.4255  159.2628 H   0  0  0  0  0  0  0  0  0  0  0  0  # atno 6908 bound_to 6896
  151.0379  134.9601  159.8202 H   0  0  0  0  0  0  0  0  0  0  0  0  # atno 6909 bound_to 6896
  146.1528  140.4809  142.8604 H   0  0  0  0  0  0  0  0  0  0  0  0  # atno 7974 bound_to 7965
  154.8462  140.0433  157.1574 H   0  0  0  0  0  0  0  0  0  0  0  0  # atno 8008 bound_to 7997
  154.8993  140.2998  155.5306 H   0  0  0  0  0  0  0  0  0  0  0  0  # atno 8009 bound_to 7997
  156.2994  140.2379  156.4018 H   0  0  0  0  0  0  0  0  0  0  0  0  # atno 8010 bound_to 7997
  139.4842  144.5455  151.7492 H   0  0  0  0  0  0  0  0  0  0  0  0  # atno 10167 bound_to 10162
  157.0030  130.6087  149.5698 H   0  0  0  0  0  0  0  0  0  0  0  0  # atno 10718 bound_to 10713
  154.7378  135.3061  154.8780 H   0  0  0  0  0  0  0  0  0  0  0  0  # atno 10763 bound_to 10752
  153.9604  135.6753  153.4749 H   0  0  0  0  0  0  0  0  0  0  0  0  # atno 10764 bound_to 10752
  153.0980  135.4926  154.8737 H   0  0  0  0  0  0  0  0  0  0  0  0  # atno 10765 bound_to 10752
  141.0474  133.6756  156.2924 H   0  0  0  0  0  0  0  0  0  0  0  0  # atno 11005 bound_to 11000
  144.7925  140.6059  143.6532 LP  0  0  0  0  0  0  0  0  0  0  0  0  # atno 17320 bound_to 7965
  145.4782  139.1497  143.3776 LP  0  0  0  0  0  0  0  0  0  0  0  0  # atno 17321 bound_to 7965
  140.5001  144.1182  150.5969 LP  0  0  0  0  0  0  0  0  0  0  0  0  # atno 17342 bound_to 10162
  140.4072  143.2674  151.9876 LP  0  0  0  0  0  0  0  0  0  0  0  0  # atno 17343 bound_to 10162
  156.0164  130.5258  150.8147 LP  0  0  0  0  0  0  0  0  0  0  0  0  # atno 17370 bound_to 10713
  157.5376  131.0939  150.9871 LP  0  0  0  0  0  0  0  0  0  0  0  0  # atno 17371 bound_to 10713
  140.6120  134.5449  157.5535 LP  0  0  0  0  0  0  0  0  0  0  0  0  # atno 17394 bound_to 11000
  139.9323  134.7940  156.0897 LP  0  0  0  0  0  0  0  0  0  0  0  0  # atno 17395 bound_to 11000

$$$$
