AV-unprocessed.smi:338|AV-procd|sdf|2376|dock3
  -GOLD-   2262022293D 1   1.00000     0.00000
 Structure written by MMmdl.
 42 44  0  0  0  0  0  0  0  0  2 V2000
  146.5944  134.9261  162.8075 C   0  0  0  0  0  0  0  0  0  0  0  0
  147.4243  135.9772  162.0716 C   0  0  0  0  0  0  0  0  0  0  0  0
  147.7954  136.9743  162.6902 O   0  0  0  0  0  0  0  0  0  0  0  0
  147.7410  135.7338  160.6346 C   0  0  0  0  0  0  0  0  0  0  0  0
  147.3267  134.5539  159.9738 C   0  0  0  0  0  0  0  0  0  0  0  0
  147.6414  134.3516  158.6178 C   0  0  0  0  0  0  0  0  0  0  0  0
  148.3716  135.3226  157.9096 C   0  0  0  0  0  0  0  0  0  0  0  0
  148.7951  136.5069  158.5435 C   0  0  0  0  0  0  0  0  0  0  0  0
  149.5068  137.4039  157.7757 O   0  0  0  0  0  0  0  0  0  0  0  0
  150.4328  138.2650  158.4254 C   0  0  0  0  0  0  0  0  0  0  0  0
  150.9017  139.3355  157.4288 C   0  0  2  0  0  0  0  0  0  0  0  0
  151.4711  138.6863  156.3090 O   0  0  0  0  0  0  0  0  0  0  0  0
  151.9213  140.3113  158.0494 C   0  0  0  0  0  0  0  0  0  0  0  0
  151.5171  141.7185  157.9176 N   0  0  0  0  0  0  0  0  0  0  0  0
  150.8725  142.3424  156.8945 C   0  0  0  0  0  0  0  0  0  0  0  0
  150.7172  143.6500  157.2415 N   0  3  0  0  0  0  0  0  0  0  0  0
  151.2724  143.8664  158.5044 C   0  0  0  0  0  0  0  0  0  0  0  0
  151.3587  145.0220  159.2749 C   0  0  0  0  0  0  0  0  0  0  0  0
  151.9966  144.9018  160.5269 C   0  0  0  0  0  0  0  0  0  0  0  0
  152.5195  143.6695  160.9692 C   0  0  0  0  0  0  0  0  0  0  0  0
  152.4252  142.5040  160.1804 C   0  0  0  0  0  0  0  0  0  0  0  0
  151.7909  142.6300  158.9445 C   0  0  0  0  0  0  0  0  0  0  0  0
  148.4731  136.7044  159.9104 C   0  0  0  0  0  0  0  0  0  0  0  0
  147.0969  133.9589  162.7881 H   0  0  0  0  0  0  0  0  0  0  0  0
  145.6124  134.8228  162.3455 H   0  0  0  0  0  0  0  0  0  0  0  0
  146.4512  135.2143  163.8492 H   0  0  0  0  0  0  0  0  0  0  0  0
  146.7648  133.7881  160.4873 H   0  0  0  0  0  0  0  0  0  0  0  0
  147.3214  133.4487  158.1191 H   0  0  0  0  0  0  0  0  0  0  0  0
  148.6089  135.1568  156.8688 H   0  0  0  0  0  0  0  0  0  0  0  0
  149.9750  138.7381  159.2961 H   0  0  0  0  0  0  0  0  0  0  0  0
  151.2908  137.6829  158.7665 H   0  0  0  0  0  0  0  0  0  0  0  0
  150.0342  139.8947  157.0757 H   0  0  0  0  0  0  0  0  0  0  0  0
  150.7755  138.2927  155.8045 H   0  0  0  0  0  0  0  0  0  0  0  0
  152.0251  140.1110  159.1165 H   0  0  0  0  0  0  0  0  0  0  0  0
  152.9134  140.1766  157.6182 H   0  0  0  0  0  0  0  0  0  0  0  0
  150.5428  141.8822  155.9743 H   0  0  0  0  0  0  0  0  0  0  0  0
  150.9605  145.9677  158.9374 H   0  0  0  0  0  0  0  0  0  0  0  0
  152.0883  145.7728  161.1597 H   0  0  0  0  0  0  0  0  0  0  0  0
  153.0048  143.6163  161.9331 H   0  0  0  0  0  0  0  0  0  0  0  0
  152.8351  141.5671  160.5275 H   0  0  0  0  0  0  0  0  0  0  0  0
  148.7864  137.6029  160.4200 H   0  0  0  0  0  0  0  0  0  0  0  0
  150.2657  144.3418  156.6571 H   0  0  0  0  0  0  0  0  0  0  0  0
  1  2  1  0  0  0  0
  1 24  1  0  0  0  0
  1 25  1  0  0  0  0
  1 26  1  0  0  0  0
  2  3  2  0  0  0  0
  2  4  1  0  0  0  0
  4 23  1  0  0  0  0
  4  5  2  0  0  0  0
  5  6  1  0  0  0  0
  5 27  1  0  0  0  0
  6  7  2  0  0  0  0
  6 28  1  0  0  0  0
  7  8  1  0  0  0  0
  7 29  1  0  0  0  0
  8  9  1  0  0  0  0
  8 23  2  0  0  0  0
  9 10  1  0  0  0  0
 10 11  1  0  0  0  0
 10 30  1  0  0  0  0
 10 31  1  0  0  0  0
 11 12  1  0  0  0  0
 11 13  1  0  0  0  0
 11 32  1  0  0  0  0
 12 33  1  0  0  0  0
 13 14  1  0  0  0  0
 13 34  1  0  0  0  0
 13 35  1  0  0  0  0
 14 22  1  0  0  0  0
 14 15  1  0  0  0  0
 15 16  2  0  0  0  0
 15 36  1  0  0  0  0
 16 17  1  0  0  0  0
 16 42  1  0  0  0  0
 17 22  2  0  0  0  0
 17 18  1  0  0  0  0
 18 19  2  0  0  0  0
 18 37  1  0  0  0  0
 19 20  1  0  0  0  0
 19 38  1  0  0  0  0
 20 21  2  0  0  0  0
 20 39  1  0  0  0  0
 21 22  1  0  0  0  0
 21 40  1  0  0  0  0
 23 41  1  0  0  0  0
M  CHG  1  16   1
M  END
> <s_m_source_file>
AV-unprocessed.smi

> <i_m_source_file_index>
338

> <i_lp_mmshare_version>
43012

> <i_f3d_flags>
0

> <s_epik_input>
W0NIM11DKD1PKWMxW2NIXVtjSF1bY0hdYyhbY0hdMSlPW0NIMl1bQ0BIXShbT0hdKVtDSDJdbihbY0hdbjIpYyhjMjMpW2NIXVtjSF1bY0hdW2NIXTM=

> <s_epik_cmdline>
J2VwaWtfcHl0aG9uJywgJy1waCcsICc3LjAnLCAnLXRuJywgJzgnLCAnLW1hJywgJzIwMCcsICctbWV0YWxfYmluZGluZycsICctaW1hZScsICc8aW5maWxlLm1hZT4nLCAnLW9tYWUnLCAnPG91dGZpbGUubWFlPic=

> <r_lp_tautomer_probability>
0.99995

> <r_epik_Ionization_Penalty>
1.35015

> <r_epik_Ionization_Penalty_Charging>
1.35015

> <r_epik_Ionization_Penalty_Neutral>
2.3993e-06

> <r_epik_State_Penalty>
1.42814

> <r_epik_Charging_Adjusted_Penalty>
2.77829

> <i_epik_Tot_Q>
1

> <i_epik_Tot_abs_Q>
1

> <r_epik_Metal_State_Penalty>
5.46522

> <b_epik_Metal_Only>
0

> <s_lp_Force_Field>
OPLS_2005

> <r_lp_Energy>
26.3487

> <b_lp_Chiralities_Consistent>
1

> <s_lp_Variant>
AV-unprocessed.smi:338-3

> <Gold.Version>
5.8.1

> <Gold.Id.Protein>
6NUR|6NUR_protein|mol2

> <Gold.PLP.Fitness>
56.0780

> <Gold.PLP.PLP>
-50.0144

> <Gold.PLP.part.hbond>
-2.0000

> <Gold.PLP.part.metal>
0.0000

> <Gold.PLP.part.buried>
-8.2169

> <Gold.PLP.part.nonpolar>
-40.1516

> <Gold.PLP.part.repulsive>
0.0055

> <Gold.PLP.ligand.clash>
0.0000

> <Gold.PLP.ligand.torsion>
1.4649

> <Gold.PLP.Chemscore.Hbond>
2.9600

> <Gold.PLP.Chemscore.CHOScore>
0.0000

> <Gold.PLP.Chemscore.Metal>
0.0000

> <Gold.Chemscore.Hbonds>
donor molecule, donor type, donor heavy atom, donor atom, acceptor molecule, acceptor atom, score
      L1  H    16    42       P1  8028  1.92
      P1  H  6931  6943       L1     3  0.90

> <Gold.PLP.Chemscore.Internal.Correction>
0.1133

> <Gold.Rescore>
     Score         DG    S(hbond)    S(metal)    S(lipo)     H(rot)  DE(clash)    DE(int)     intcor
     17.94     -19.48       1.82        0.00     121.92       2.48       0.03       1.50       ----

> <Gold.Chemscore.Fitness>
17.9427

> <Gold.Chemscore.DG>
-19.4760

> <Gold.Chemscore.ZeroCoef>
-5.4800

> <Gold.Chemscore.Hbond>
1.8237

> <Gold.Chemscore.Metal>
0.0000

> <Gold.Chemscore.Lipo>
121.9178

> <Gold.Chemscore.Internal_Hbond>
0.0000

> <Gold.Chemscore.DEClash>
0.0298

> <Gold.Chemscore.DEInternal>
1.5035

> <Gold.Chemscore.Rot>
2.4842

> <Gold.Chemscore.Internal.Correction>
   9.000000E+99

> <Gold.Chemscore.Hbonds>
donor molecule, donor type, donor heavy atom, donor atom, acceptor molecule, acceptor atom, score
      L1  H    16    42       P1  8028  0.90
      P1  H  6931  6943       L1     3  0.87

> <Gold.Chemscore.Hbond.Weighted>
-6.0911

> <Gold.Chemscore.Metal.Weighted>
-0.0000

> <Gold.Chemscore.Lipo.Weighted>
-14.2644

> <Gold.Chemscore.Internal_Hbond.Weighted>
0.0000

> <Gold.Chemscore.DEClash.Weighted>
0.0298

> <Gold.Chemscore.DEInternal.Weighted>
1.5035

> <Gold.Chemscore.Rot.Weighted>
6.3594

> <Gold.Chemscore.Internal.Correction.Weighted>
   9.000000E+99

> <Gold.Protein.RotatedTorsions>
[ 6907 6896 6895 6894 ] final  -37.16 input  -60.11 | X-H torsion
[ 7974 7965 7964 7962 ] final  149.19 input  175.53 | X-H torsion
[ 8008 7997 7996 7995 ] final   19.60 input   59.86 | X-H torsion
[ 10167 10162 10161 10158 ] final  177.88 input  -65.29 | X-H torsion
[ 10718 10713 10712 10709 ] final -106.40 input   66.30 | X-H torsion
[ 10763 10752 10751 10750 ] final -178.00 input  -60.55 | X-H torsion
[ 11005 11000 10999 10996 ] final   54.99 input  -57.11 | X-H torsion

> <Gold.Protein.ActiveResidues>
 VAL166  LYS551  ARG553  GLY616  TRP617  ASP618  TYR619  PRO620  LYS621  CYS622 
 ASP623  PHE694  ASN695  SER759  ASP760  ASP761  ALA762  ILE779  LEU786  VAL792 
 PHE793  MET794  SER795  GLU796  ALA797  LYS798  CYS799  TRP800  GLU811  SER814 

> <Gold.Protein.RotatedAtoms>
  151.0182  134.9449  159.8044 H   0  0  0  0  0  0  0  0  0  0  0  0  # atno 6907 bound_to 6896
  152.5319  134.2938  159.9063 H   0  0  0  0  0  0  0  0  0  0  0  0  # atno 6908 bound_to 6896
  151.2945  133.4108  159.2669 H   0  0  0  0  0  0  0  0  0  0  0  0  # atno 6909 bound_to 6896
  144.8457  139.6249  143.5996 H   0  0  0  0  0  0  0  0  0  0  0  0  # atno 7974 bound_to 7965
  154.9231  140.3030  155.5206 H   0  0  0  0  0  0  0  0  0  0  0  0  # atno 8008 bound_to 7997
  156.3008  140.2368  156.4220 H   0  0  0  0  0  0  0  0  0  0  0  0  # atno 8009 bound_to 7997
  154.8311  140.0418  157.1466 H   0  0  0  0  0  0  0  0  0  0  0  0  # atno 8010 bound_to 7997
  139.5271  144.2746  152.0598 H   0  0  0  0  0  0  0  0  0  0  0  0  # atno 10167 bound_to 10162
  156.0388  130.5611  150.7675 H   0  0  0  0  0  0  0  0  0  0  0  0  # atno 10718 bound_to 10713
  154.5532  135.2814  155.0989 H   0  0  0  0  0  0  0  0  0  0  0  0  # atno 10763 bound_to 10752
  154.2427  135.6354  153.5216 H   0  0  0  0  0  0  0  0  0  0  0  0  # atno 10764 bound_to 10752
  153.0008  135.5564  154.6104 H   0  0  0  0  0  0  0  0  0  0  0  0  # atno 10765 bound_to 10752
  140.0642  134.5560  155.9118 H   0  0  0  0  0  0  0  0  0  0  0  0  # atno 11005 bound_to 11000
  146.2741  139.6710  142.9275 LP  0  0  0  0  0  0  0  0  0  0  0  0  # atno 17320 bound_to 7965
  145.4603  141.0432  143.2755 LP  0  0  0  0  0  0  0  0  0  0  0  0  # atno 17321 bound_to 7965
  140.2204  144.4472  150.6344 LP  0  0  0  0  0  0  0  0  0  0  0  0  # atno 17342 bound_to 10162
  140.6422  143.2206  151.6265 LP  0  0  0  0  0  0  0  0  0  0  0  0  # atno 17343 bound_to 10162
  157.5178  131.0929  151.0117 LP  0  0  0  0  0  0  0  0  0  0  0  0  # atno 17370 bound_to 10713
  157.0456  130.5766  149.5362 LP  0  0  0  0  0  0  0  0  0  0  0  0  # atno 17371 bound_to 10713
  141.1986  133.6602  156.5799 LP  0  0  0  0  0  0  0  0  0  0  0  0  # atno 17394 bound_to 11000
  140.3724  134.7594  157.4607 LP  0  0  0  0  0  0  0  0  0  0  0  0  # atno 17395 bound_to 11000

$$$$
