AV-unprocessed.smi:2329|AV-procd|sdf|9307|dock2
  -GOLD-   2272012523D 1   1.00000     0.00000
 Structure written by MMmdl.
 45 48  0  0  0  0  0  0  0  0  1 V2000
  153.3816  142.5847  162.6694 C   0  0  0  0  0  0  0  0  0  0  0  0
  152.6219  143.0169  161.4329 C   0  0  0  0  0  0  0  0  0  0  0  0
  152.2321  144.3586  161.2530 C   0  0  0  0  0  0  0  0  0  0  0  0
  151.5243  144.6922  160.0845 C   0  0  0  0  0  0  0  0  0  0  0  0
  151.2374  143.6780  159.1507 C   0  0  0  0  0  0  0  0  0  0  0  0
  151.6669  142.3564  159.4064 C   0  0  0  0  0  0  0  0  0  0  0  0
  151.3269  141.4094  158.4049 N   0  0  0  0  0  0  0  0  0  0  0  0
  151.0475  141.6311  157.1050 C   0  0  0  0  0  0  0  0  0  0  0  0
  150.9956  142.7403  156.5766 O   0  0  0  0  0  0  0  0  0  0  0  0
  150.7753  140.5147  156.4070 N   0  0  0  0  0  0  0  0  0  0  0  0
  150.4345  140.4063  154.9831 C   0  0  1  0  0  0  0  0  0  0  0  0
  150.4768  138.9582  154.4369 C   0  0  1  0  0  0  0  0  0  0  0  0
  151.0840  137.8024  155.1959 C   0  0  0  0  0  0  0  0  0  0  0  0
  149.8672  137.1547  155.8625 C   0  0  0  0  0  0  0  0  0  0  0  0
  148.8720  138.1757  155.8758 O   0  0  0  0  0  0  0  0  0  0  0  0
  148.9724  138.8962  154.6504 C   0  0  1  0  0  0  0  0  0  0  0  0
  148.9049  140.4338  154.7503 C   0  0  0  0  0  0  0  0  0  0  0  0
  147.9721  141.0393  155.8009 C   0  0  0  0  0  0  0  0  0  0  0  0
  146.6107  141.2416  155.1310 C   0  0  0  0  0  0  0  0  0  0  0  0
  146.8970  141.3042  153.6276 C   0  0  0  0  0  0  0  0  0  0  0  0
  148.4132  141.1406  153.4885 C   0  0  0  0  0  0  0  0  0  0  0  0
  152.3477  142.0443  160.5371 N   0  0  0  0  0  0  0  0  0  0  0  0
  153.6685  143.4435  163.2769 H   0  0  0  0  0  0  0  0  0  0  0  0
  154.2889  142.0474  162.3917 H   0  0  0  0  0  0  0  0  0  0  0  0
  152.7639  141.9255  163.2799 H   0  0  0  0  0  0  0  0  0  0  0  0
  152.4663  145.1134  161.9893 H   0  0  0  0  0  0  0  0  0  0  0  0
  151.2056  145.7085  159.9070 H   0  0  0  0  0  0  0  0  0  0  0  0
  150.6940  143.9171  158.2480 H   0  0  0  0  0  0  0  0  0  0  0  0
  151.2943  140.4477  158.7088 H   0  0  0  0  0  0  0  0  0  0  0  0
  150.7258  139.6547  156.9342 H   0  0  0  0  0  0  0  0  0  0  0  0
  150.9595  141.1189  154.3444 H   0  0  0  0  0  0  0  0  0  0  0  0
  150.7181  138.9563  153.3727 H   0  0  0  0  0  0  0  0  0  0  0  0
  151.5904  137.0971  154.5367 H   0  0  0  0  0  0  0  0  0  0  0  0
  151.8117  138.1289  155.9372 H   0  0  0  0  0  0  0  0  0  0  0  0
  149.5063  136.3156  155.2661 H   0  0  0  0  0  0  0  0  0  0  0  0
  150.0817  136.7919  156.8677 H   0  0  0  0  0  0  0  0  0  0  0  0
  148.4220  138.4385  153.8269 H   0  0  0  0  0  0  0  0  0  0  0  0
  147.8843  140.4223  156.6957 H   0  0  0  0  0  0  0  0  0  0  0  0
  148.3581  142.0070  156.1251 H   0  0  0  0  0  0  0  0  0  0  0  0
  145.9542  140.3980  155.3484 H   0  0  0  0  0  0  0  0  0  0  0  0
  146.1174  142.1442  155.4933 H   0  0  0  0  0  0  0  0  0  0  0  0
  146.3815  140.4878  153.1199 H   0  0  0  0  0  0  0  0  0  0  0  0
  146.5524  142.2381  153.1823 H   0  0  0  0  0  0  0  0  0  0  0  0
  148.8754  142.1259  153.4117 H   0  0  0  0  0  0  0  0  0  0  0  0
  148.6729  140.6013  152.5768 H   0  0  0  0  0  0  0  0  0  0  0  0
  1  2  1  0  0  0  0
  1 23  1  0  0  0  0
  1 24  1  0  0  0  0
  1 25  1  0  0  0  0
  2 22  1  0  0  0  0
  2  3  2  0  0  0  0
  3  4  1  0  0  0  0
  3 26  1  0  0  0  0
  4  5  2  0  0  0  0
  4 27  1  0  0  0  0
  5  6  1  0  0  0  0
  5 28  1  0  0  0  0
  6  7  1  0  0  0  0
  6 22  2  0  0  0  0
  7  8  1  0  0  0  0
  7 29  1  0  0  0  0
  8  9  2  0  0  0  0
  8 10  1  0  0  0  0
 10 11  1  0  0  0  0
 10 30  1  0  0  0  0
 11 17  1  0  0  0  0
 11 12  1  0  0  0  0
 11 31  1  0  0  0  0
 12 16  1  0  0  0  0
 12 13  1  0  0  0  0
 12 32  1  0  0  0  0
 13 14  1  0  0  0  0
 13 33  1  0  0  0  0
 13 34  1  0  0  0  0
 14 15  1  0  0  0  0
 14 35  1  0  0  0  0
 14 36  1  0  0  0  0
 15 16  1  0  0  0  0
 16 17  1  0  0  0  0
 16 37  1  0  0  0  0
 17 21  1  0  0  0  0
 17 18  1  0  0  0  0
 18 19  1  0  0  0  0
 18 38  1  0  0  0  0
 18 39  1  0  0  0  0
 19 20  1  0  0  0  0
 19 40  1  0  0  0  0
 19 41  1  0  0  0  0
 20 21  1  0  0  0  0
 20 42  1  0  0  0  0
 20 43  1  0  0  0  0
 21 44  1  0  0  0  0
 21 45  1  0  0  0  0
M  END
> <s_m_source_file>
AV-unprocessed.smi

> <i_m_source_file_index>
2329

> <i_lp_mmshare_version>
43012

> <i_f3d_flags>
0

> <s_epik_input>
W0NIM11jMVtjSF1bY0hdW2NIXWMobjEpW05IXUMoPU8pW05IXVtDQEBIXTJbQ0BASF0oW0NIMl1bQ0gyXU8zKVtDQEhdM0MyNFtDSDJdW0NIMl1bQ0gyXVtDSDJdNA==

> <s_epik_cmdline>
J2VwaWtfcHl0aG9uJywgJy1waCcsICc3LjAnLCAnLXRuJywgJzgnLCAnLW1hJywgJzIwMCcsICctbWV0YWxfYmluZGluZycsICctaW1hZScsICc8aW5maWxlLm1hZT4nLCAnLW9tYWUnLCAnPG91dGZpbGUubWFlPic=

> <r_lp_tautomer_probability>
1

> <r_epik_Ionization_Penalty>
8.97002e-05

> <r_epik_Ionization_Penalty_Charging>
0

> <r_epik_Ionization_Penalty_Neutral>
8.97002e-05

> <r_epik_State_Penalty>
-0

> <r_epik_Charging_Adjusted_Penalty>
0

> <i_epik_Tot_Q>
0

> <i_epik_Tot_abs_Q>
0

> <r_epik_Metal_State_Penalty>
-0

> <b_epik_Metal_Only>
0

> <s_lp_Force_Field>
OPLS_2005

> <r_lp_Energy>
67.5757

> <b_lp_Chiralities_Consistent>
1

> <s_lp_Variant>
AV-unprocessed.smi:2329-6

> <Gold.Version>
5.8.1

> <Gold.Id.Protein>
6NUR|6NUR_protein|mol2

> <Gold.PLP.Fitness>
39.1258

> <Gold.PLP.PLP>
-39.6627

> <Gold.PLP.part.hbond>
0.0000

> <Gold.PLP.part.metal>
0.0000

> <Gold.PLP.part.buried>
-2.3937

> <Gold.PLP.part.nonpolar>
-37.5665

> <Gold.PLP.part.repulsive>
1.0916

> <Gold.PLP.ligand.clash>
0.0000

> <Gold.PLP.ligand.torsion>
0.3654

> <Gold.PLP.Chemscore.Hbond>
0.0000

> <Gold.PLP.Chemscore.CHOScore>
0.0000

> <Gold.PLP.Chemscore.Metal>
0.0000

> <Gold.PLP.Chemscore.Internal.Correction>
0.1938

> <Gold.Rescore>
     Score         DG    S(hbond)    S(metal)    S(lipo)     H(rot)  DE(clash)    DE(int)     intcor
     13.26     -16.23       0.00        0.00     113.75       1.00       1.15       1.82       ----

> <Gold.Chemscore.Fitness>
13.2551

> <Gold.Chemscore.DG>
-16.2283

> <Gold.Chemscore.ZeroCoef>
-5.4800

> <Gold.Chemscore.Hbond>
0.0000

> <Gold.Chemscore.Metal>
0.0000

> <Gold.Chemscore.Lipo>
113.7463

> <Gold.Chemscore.Internal_Hbond>
0.0000

> <Gold.Chemscore.DEClash>
1.1516

> <Gold.Chemscore.DEInternal>
1.8216

> <Gold.Chemscore.Rot>
1.0000

> <Gold.Chemscore.Internal.Correction>
   9.000000E+99

> <Gold.Chemscore.Hbond.Weighted>
-0.0000

> <Gold.Chemscore.Metal.Weighted>
-0.0000

> <Gold.Chemscore.Lipo.Weighted>
-13.3083

> <Gold.Chemscore.Internal_Hbond.Weighted>
0.0000

> <Gold.Chemscore.DEClash.Weighted>
1.1516

> <Gold.Chemscore.DEInternal.Weighted>
1.8216

> <Gold.Chemscore.Rot.Weighted>
2.5600

> <Gold.Chemscore.Internal.Correction.Weighted>
   9.000000E+99

> <Gold.Protein.RotatedTorsions>
[ 6907 6896 6895 6894 ] final   97.13 input  -60.11 | X-H torsion
[ 7974 7965 7964 7962 ] final  119.84 input  175.53 | X-H torsion
[ 8008 7997 7996 7995 ] final -124.21 input   59.86 | X-H torsion
[ 10167 10162 10161 10158 ] final   13.49 input  -65.29 | X-H torsion
[ 10718 10713 10712 10709 ] final   81.59 input   66.30 | X-H torsion
[ 10763 10752 10751 10750 ] final  148.15 input  -60.55 | X-H torsion
[ 11005 11000 10999 10996 ] final -117.30 input  -57.11 | X-H torsion

> <Gold.Protein.ActiveResidues>
 VAL166  LYS551  ARG553  GLY616  TRP617  ASP618  TYR619  PRO620  LYS621  CYS622 
 ASP623  PHE694  ASN695  SER759  ASP760  ASP761  ALA762  ILE779  LEU786  VAL792 
 PHE793  MET794  SER795  GLU796  ALA797  LYS798  CYS799  TRP800  GLU811  SER814 

> <Gold.Protein.RotatedAtoms>
  152.5427  134.0780  159.8222 H   0  0  0  0  0  0  0  0  0  0  0  0  # atno 6907 bound_to 6896
  151.0885  133.5327  159.2623 H   0  0  0  0  0  0  0  0  0  0  0  0  # atno 6908 bound_to 6896
  151.2127  135.0496  159.8972 H   0  0  0  0  0  0  0  0  0  0  0  0  # atno 6909 bound_to 6896
  145.1383  139.3284  143.4629 H   0  0  0  0  0  0  0  0  0  0  0  0  # atno 7974 bound_to 7965
  155.1932  140.0414  157.2904 H   0  0  0  0  0  0  0  0  0  0  0  0  # atno 8008 bound_to 7997
  154.6125  140.2480  155.7623 H   0  0  0  0  0  0  0  0  0  0  0  0  # atno 8009 bound_to 7997
  156.2387  140.2912  156.0393 H   0  0  0  0  0  0  0  0  0  0  0  0  # atno 8010 bound_to 7997
  140.5999  143.8625  150.6955 H   0  0  0  0  0  0  0  0  0  0  0  0  # atno 10167 bound_to 10162
  157.6836  131.0010  150.2249 H   0  0  0  0  0  0  0  0  0  0  0  0  # atno 10718 bound_to 10713
  154.0501  135.2882  155.3342 H   0  0  0  0  0  0  0  0  0  0  0  0  # atno 10763 bound_to 10752
  154.6874  135.5239  153.8349 H   0  0  0  0  0  0  0  0  0  0  0  0  # atno 10764 bound_to 10752
  153.0564  135.6597  154.0698 H   0  0  0  0  0  0  0  0  0  0  0  0  # atno 10765 bound_to 10752
  141.0364  133.9903  157.3064 H   0  0  0  0  0  0  0  0  0  0  0  0  # atno 11005 bound_to 11000
  146.3507  140.1409  142.8594 LP  0  0  0  0  0  0  0  0  0  0  0  0  # atno 17320 bound_to 7965
  145.0560  140.9053  143.4967 LP  0  0  0  0  0  0  0  0  0  0  0  0  # atno 17321 bound_to 7965
  140.2169  143.3839  152.1674 LP  0  0  0  0  0  0  0  0  0  0  0  0  # atno 17342 bound_to 10162
  139.5284  144.7130  151.5145 LP  0  0  0  0  0  0  0  0  0  0  0  0  # atno 17343 bound_to 10162
  156.2893  130.3743  149.7857 LP  0  0  0  0  0  0  0  0  0  0  0  0  # atno 17370 bound_to 10713
  156.5522  130.8347  151.3303 LP  0  0  0  0  0  0  0  0  0  0  0  0  # atno 17371 bound_to 10713
  139.9243  135.0201  156.8179 LP  0  0  0  0  0  0  0  0  0  0  0  0  # atno 17394 bound_to 11000
  140.6315  133.9901  155.7664 LP  0  0  0  0  0  0  0  0  0  0  0  0  # atno 17395 bound_to 11000

$$$$
