AV-unprocessed.smi:3162|AV-procd|sdf|12070|dock1
  -GOLD-   2272017503D 1   1.00000     0.00000
 Structure written by MMmdl.
 36 36  0  0  0  0  0  0  0  0  1 V2000
  144.0790  132.2742  150.5934 C   0  0  0  0  0  0  0  0  0  0  0  0
  144.7651  133.5983  150.2220 C   0  0  0  0  0  0  0  0  0  0  0  0
  145.4049  134.3404  151.4161 C   0  0  1  0  0  0  0  0  0  0  0  0
  146.8616  134.1027  151.4135 N   0  0  0  0  0  0  0  0  0  0  0  0
  147.3404  133.0514  152.3091 C   0  0  1  0  0  0  0  0  0  0  0  0
  146.7705  131.7167  151.8002 C   0  0  0  0  0  0  0  0  0  0  0  0
  148.8856  133.0600  152.3459 C   0  0  0  0  0  0  0  0  0  0  0  0
  149.4354  131.9313  153.0737 N   0  0  0  0  0  0  0  0  0  0  0  0
  149.4143  130.5962  152.7308 C   0  0  0  0  0  0  0  0  0  0  0  0
  150.0591  129.9078  153.7191 C   0  0  0  0  0  0  0  0  0  0  0  0
  150.3036  128.4301  153.8257 C   0  0  0  0  0  0  0  0  0  0  0  0
  150.4490  130.9283  154.6323 C   0  0  0  0  0  0  0  0  0  0  0  0
  150.0780  132.1369  154.2429 N   0  0  0  0  0  0  0  0  0  0  0  0
  145.0399  135.8366  151.4209 C   0  0  0  0  0  0  0  0  0  0  0  0
  145.2735  136.5266  150.3019 N   0  0  0  0  0  0  0  0  0  0  0  0
  144.5351  136.3555  152.4149 O   0  0  0  0  0  0  0  0  0  0  0  0
  143.7092  131.7691  149.7011 H   0  0  0  0  0  0  0  0  0  0  0  0
  143.2278  132.4312  151.2562 H   0  0  0  0  0  0  0  0  0  0  0  0
  144.7741  131.5983  151.0922 H   0  0  0  0  0  0  0  0  0  0  0  0
  145.5405  133.3796  149.4864 H   0  0  0  0  0  0  0  0  0  0  0  0
  144.0498  134.2468  149.7136 H   0  0  0  0  0  0  0  0  0  0  0  0
  145.0046  133.8907  152.3269 H   0  0  0  0  0  0  0  0  0  0  0  0
  147.3871  134.9537  151.5543 H   0  0  0  0  0  0  0  0  0  0  0  0
  146.9466  133.2068  153.3148 H   0  0  0  0  0  0  0  0  0  0  0  0
  147.0374  130.8916  152.4610 H   0  0  0  0  0  0  0  0  0  0  0  0
  147.1431  131.4774  150.8036 H   0  0  0  0  0  0  0  0  0  0  0  0
  145.6816  131.7482  151.7503 H   0  0  0  0  0  0  0  0  0  0  0  0
  149.2867  133.0413  151.3315 H   0  0  0  0  0  0  0  0  0  0  0  0
  149.2652  133.9708  152.8086 H   0  0  0  0  0  0  0  0  0  0  0  0
  148.9438  130.2495  151.8225 H   0  0  0  0  0  0  0  0  0  0  0  0
  150.8717  128.1763  154.7211 H   0  0  0  0  0  0  0  0  0  0  0  0
  150.8659  128.0531  152.9712 H   0  0  0  0  0  0  0  0  0  0  0  0
  149.3691  127.8703  153.8689 H   0  0  0  0  0  0  0  0  0  0  0  0
  150.9892  130.8263  155.5619 H   0  0  0  0  0  0  0  0  0  0  0  0
  145.0520  137.5106  150.2609 H   0  0  0  0  0  0  0  0  0  0  0  0
  145.6740  136.0606  149.5005 H   0  0  0  0  0  0  0  0  0  0  0  0
  1  2  1  0  0  0  0
  1 17  1  0  0  0  0
  1 18  1  0  0  0  0
  1 19  1  0  0  0  0
  2  3  1  0  0  0  0
  2 20  1  0  0  0  0
  2 21  1  0  0  0  0
  3  4  1  0  0  0  0
  3 14  1  0  0  0  0
  3 22  1  0  0  0  0
  4  5  1  0  0  0  0
  4 23  1  0  0  0  0
  5  6  1  0  0  0  0
  5  7  1  0  0  0  0
  5 24  1  0  0  0  0
  6 25  1  0  0  0  0
  6 26  1  0  0  0  0
  6 27  1  0  0  0  0
  7  8  1  0  0  0  0
  7 28  1  0  0  0  0
  7 29  1  0  0  0  0
  8 13  1  0  0  0  0
  8  9  1  0  0  0  0
  9 10  2  0  0  0  0
  9 30  1  0  0  0  0
 10 11  1  0  0  0  0
 10 12  1  0  0  0  0
 11 31  1  0  0  0  0
 11 32  1  0  0  0  0
 11 33  1  0  0  0  0
 12 13  2  0  0  0  0
 12 34  1  0  0  0  0
 14 15  1  0  0  0  0
 14 16  2  0  0  0  0
 15 35  1  0  0  0  0
 15 36  1  0  0  0  0
M  END
> <s_m_source_file>
AV-unprocessed.smi

> <i_m_source_file_index>
3162

> <i_lp_mmshare_version>
43012

> <i_f3d_flags>
0

> <s_epik_input>
W0NIM11bQ0gyXVtDQEBIXShDKD1PKVtOSDJdKVtOSF1bQ0BIXShbQ0gzXSlbQ0gyXW4xW2NIXWMoW0NIM10pW2NIXW4x

> <s_epik_cmdline>
J2VwaWtfcHl0aG9uJywgJy1waCcsICc3LjAnLCAnLXRuJywgJzgnLCAnLW1hJywgJzIwMCcsICctbWV0YWxfYmluZGluZycsICctaW1hZScsICc8aW5maWxlLm1hZT4nLCAnLW9tYWUnLCAnPG91dGZpbGUubWFlPic=

> <r_lp_tautomer_probability>
1

> <r_epik_Ionization_Penalty>
1.04167

> <r_epik_Ionization_Penalty_Charging>
0

> <r_epik_Ionization_Penalty_Neutral>
1.04167

> <r_epik_State_Penalty>
1.09367

> <r_epik_Charging_Adjusted_Penalty>
1.09367

> <i_epik_Tot_Q>
0

> <i_epik_Tot_abs_Q>
0

> <r_epik_Metal_State_Penalty>
1.09362

> <b_epik_Metal_Only>
0

> <s_lp_Force_Field>
OPLS_2005

> <r_lp_Energy>
2.92594

> <b_lp_Chiralities_Consistent>
1

> <s_lp_Variant>
AV-unprocessed.smi:3162-8

> <Gold.Version>
5.8.1

> <Gold.Id.Protein>
6NUR|6NUR_protein|mol2

> <Gold.PLP.Fitness>
39.0758

> <Gold.PLP.PLP>
-29.8835

> <Gold.PLP.part.hbond>
-3.0000

> <Gold.PLP.part.metal>
0.0000

> <Gold.PLP.part.buried>
-3.6811

> <Gold.PLP.part.nonpolar>
-22.8326

> <Gold.PLP.part.repulsive>
0.3275

> <Gold.PLP.ligand.clash>
0.0000

> <Gold.PLP.ligand.torsion>
1.4450

> <Gold.PLP.Chemscore.Hbond>
2.9833

> <Gold.PLP.Chemscore.CHOScore>
1.0000

> <Gold.PLP.Chemscore.Metal>
0.0000

> <Gold.Chemscore.Hbonds>
donor molecule, donor type, donor heavy atom, donor atom, acceptor molecule, acceptor atom, score
      L1  H     4    23       P1  7948  1.00
      L1  H    15    35       P1 10171  0.86
      L1  H    15    36       P1  7921  0.39

> <Gold.PLP.Chemscore.Internal.Correction>
0.1325

> <Gold.Rescore>
     Score         DG    S(hbond)    S(metal)    S(lipo)     H(rot)  DE(clash)    DE(int)     intcor
     12.69     -14.35       2.36        0.00      61.71       2.43       0.15       1.51       ----

> <Gold.Chemscore.Fitness>
12.6872

> <Gold.Chemscore.DG>
-14.3537

> <Gold.Chemscore.ZeroCoef>
-5.4800

> <Gold.Chemscore.Hbond>
2.3597

> <Gold.Chemscore.Metal>
0.0000

> <Gold.Chemscore.Lipo>
61.7115

> <Gold.Chemscore.Internal_Hbond>
0.0000

> <Gold.Chemscore.DEClash>
0.1537

> <Gold.Chemscore.DEInternal>
1.5128

> <Gold.Chemscore.Rot>
2.4328

> <Gold.Chemscore.Internal.Correction>
   9.000000E+99

> <Gold.Chemscore.Hbonds>
donor molecule, donor type, donor heavy atom, donor atom, acceptor molecule, acceptor atom, score
      L1  H     4    23       P1  7948  0.63
      L1  H    15    35       P1 10171  0.85
      L1  H    15    36       P1  7921  0.39

> <Gold.Chemscore.Hbond.Weighted>
-7.8814

> <Gold.Chemscore.Metal.Weighted>
-0.0000

> <Gold.Chemscore.Lipo.Weighted>
-7.2202

> <Gold.Chemscore.Internal_Hbond.Weighted>
0.0000

> <Gold.Chemscore.DEClash.Weighted>
0.1537

> <Gold.Chemscore.DEInternal.Weighted>
1.5128

> <Gold.Chemscore.Rot.Weighted>
6.2279

> <Gold.Chemscore.Internal.Correction.Weighted>
   9.000000E+99

> <Gold.Protein.RotatedTorsions>
[ 6907 6896 6895 6894 ] final  129.25 input  -60.11 | X-H torsion
[ 7974 7965 7964 7962 ] final   68.57 input  175.53 | X-H torsion
[ 8008 7997 7996 7995 ] final   91.70 input   59.86 | X-H torsion
[ 10167 10162 10161 10158 ] final  148.98 input  -65.29 | X-H torsion
[ 10718 10713 10712 10709 ] final  -19.00 input   66.30 | X-H torsion
[ 10763 10752 10751 10750 ] final   46.34 input  -60.55 | X-H torsion
[ 11005 11000 10999 10996 ] final -139.94 input  -57.11 | X-H torsion

> <Gold.Protein.ActiveResidues>
 VAL166  LYS551  ARG553  GLY616  TRP617  ASP618  TYR619  PRO620  LYS621  CYS622 
 ASP623  PHE694  ASN695  SER759  ASP760  ASP761  ALA762  ILE779  LEU786  VAL792 
 PHE793  MET794  SER795  GLU796  ALA797  LYS798  CYS799  TRP800  GLU811  SER814 

> <Gold.Protein.RotatedAtoms>
  152.3642  133.6335  159.6037 H   0  0  0  0  0  0  0  0  0  0  0  0  # atno 6907 bound_to 6896
  150.7622  133.9375  159.3454 H   0  0  0  0  0  0  0  0  0  0  0  0  # atno 6908 bound_to 6896
  151.7208  135.0895  160.0335 H   0  0  0  0  0  0  0  0  0  0  0  0  # atno 6909 bound_to 6896
  145.8009  139.2982  143.1155 H   0  0  0  0  0  0  0  0  0  0  0  0  # atno 7974 bound_to 7965
  156.0268  140.3334  155.7097 H   0  0  0  0  0  0  0  0  0  0  0  0  # atno 8008 bound_to 7997
  155.5942  140.0649  157.2768 H   0  0  0  0  0  0  0  0  0  0  0  0  # atno 8009 bound_to 7997
  154.4337  140.1822  156.1094 H   0  0  0  0  0  0  0  0  0  0  0  0  # atno 8010 bound_to 7997
  139.4867  144.5637  151.7184 H   0  0  0  0  0  0  0  0  0  0  0  0  # atno 10167 bound_to 10162
  156.5517  130.4703  149.6448 H   0  0  0  0  0  0  0  0  0  0  0  0  # atno 10718 bound_to 10713
  152.9812  135.6011  154.3584 H   0  0  0  0  0  0  0  0  0  0  0  0  # atno 10763 bound_to 10752
  154.3268  135.2769  155.2494 H   0  0  0  0  0  0  0  0  0  0  0  0  # atno 10764 bound_to 10752
  154.4636  135.5960  153.6328 H   0  0  0  0  0  0  0  0  0  0  0  0  # atno 10765 bound_to 10752
  140.8471  134.2331  157.4780 H   0  0  0  0  0  0  0  0  0  0  0  0  # atno 11005 bound_to 11000
  145.9878  140.8628  143.0081 LP  0  0  0  0  0  0  0  0  0  0  0  0  # atno 17320 bound_to 7965
  144.6769  140.2172  143.7370 LP  0  0  0  0  0  0  0  0  0  0  0  0  # atno 17321 bound_to 7965
  140.5212  144.0877  150.6023 LP  0  0  0  0  0  0  0  0  0  0  0  0  # atno 17342 bound_to 10162
  140.3835  143.2790  152.0143 LP  0  0  0  0  0  0  0  0  0  0  0  0  # atno 17343 bound_to 10162
  156.2878  130.7107  151.1948 LP  0  0  0  0  0  0  0  0  0  0  0  0  # atno 17370 bound_to 10713
  157.7386  131.0539  150.5284 LP  0  0  0  0  0  0  0  0  0  0  0  0  # atno 17371 bound_to 10713
  139.8703  134.9665  156.4564 LP  0  0  0  0  0  0  0  0  0  0  0  0  # atno 17394 bound_to 11000
  140.8831  133.7903  155.9488 LP  0  0  0  0  0  0  0  0  0  0  0  0  # atno 17395 bound_to 11000

$$$$
