AV-unprocessed.smi:3237|AV-procd|sdf|12372|dock5
  -GOLD-   2272018233D 1   1.00000     0.00000
 Structure written by MMmdl.
 36 38  0  0  0  0  0  0  0  0  3 V2000
  152.6757  142.7323  159.0308 C   0  0  0  0  0  0  0  0  0  0  0  0
  151.4670  142.2467  158.3072 C   0  0  0  0  0  0  0  0  0  0  0  0
  151.2924  141.6066  157.1125 C   0  0  0  0  0  0  0  0  0  0  0  0
  149.8829  141.4469  157.0368 C   0  0  0  0  0  0  0  0  0  0  0  0
  149.2858  140.8122  155.9156 N   0  0  0  0  0  0  0  0  0  0  0  0
  149.8707  140.0715  154.9566 C   0  0  0  0  0  0  0  0  0  0  0  0
  151.0913  139.8744  154.9751 O   0  0  0  0  0  0  0  0  0  0  0  0
  148.9744  139.6179  154.0368 N   0  5  0  0  0  0  0  0  0  0  0  0
  147.5153  139.6897  154.1826 C   0  0  1  0  0  0  0  0  0  0  0  0
  146.8783  140.0803  152.8440 C   0  0  0  0  0  0  0  0  0  0  0  0
  146.6073  138.7553  152.1127 C   0  0  0  0  0  0  0  0  0  0  0  0
  146.8603  137.6724  153.0892 N   0  3  2  0  0  0  0  0  0  0  0  0
  145.9270  136.5299  152.9955 C   0  0  0  0  0  0  0  0  0  0  0  0
  145.4597  136.2474  151.5879 C   0  0  0  0  0  0  0  0  0  0  0  0
  144.5320  136.9246  152.5738 C   0  0  0  0  0  0  0  0  0  0  0  0
  146.9291  138.2951  154.4246 C   0  0  0  0  0  0  0  0  0  0  0  0
  149.2551  141.9409  158.0938 N   0  0  0  0  0  0  0  0  0  0  0  0
  150.2667  142.4561  158.9128 O   0  0  0  0  0  0  0  0  0  0  0  0
  153.5661  142.6384  158.4090 H   0  0  0  0  0  0  0  0  0  0  0  0
  152.8369  142.1569  159.9423 H   0  0  0  0  0  0  0  0  0  0  0  0
  152.5659  143.7813  159.3063 H   0  0  0  0  0  0  0  0  0  0  0  0
  152.0517  141.3047  156.4063 H   0  0  0  0  0  0  0  0  0  0  0  0
  148.2857  140.9211  155.8359 H   0  0  0  0  0  0  0  0  0  0  0  0
  147.2134  140.3829  154.9687 H   0  0  0  0  0  0  0  0  0  0  0  0
  145.9295  140.5840  153.0329 H   0  0  0  0  0  0  0  0  0  0  0  0
  147.4911  140.7664  152.2570 H   0  0  0  0  0  0  0  0  0  0  0  0
  145.5803  138.7298  151.7441 H   0  0  0  0  0  0  0  0  0  0  0  0
  147.2691  138.6260  151.2551 H   0  0  0  0  0  0  0  0  0  0  0  0
  146.0835  135.7152  153.7004 H   0  0  0  0  0  0  0  0  0  0  0  0
  145.8650  136.8539  150.7798 H   0  0  0  0  0  0  0  0  0  0  0  0
  145.2430  135.2129  151.3291 H   0  0  0  0  0  0  0  0  0  0  0  0
  143.7042  136.3358  152.9641 H   0  0  0  0  0  0  0  0  0  0  0  0
  144.3201  137.9811  152.4202 H   0  0  0  0  0  0  0  0  0  0  0  0
  147.5090  137.6914  155.1242 H   0  0  0  0  0  0  0  0  0  0  0  0
  145.9206  138.3921  154.8303 H   0  0  0  0  0  0  0  0  0  0  0  0
  147.7930  137.3346  152.8984 H   0  0  0  0  0  0  0  0  0  0  0  0
  1  2  1  0  0  0  0
  1 19  1  0  0  0  0
  1 20  1  0  0  0  0
  1 21  1  0  0  0  0
  2 18  1  0  0  0  0
  2  3  2  0  0  0  0
  3  4  1  0  0  0  0
  3 22  1  0  0  0  0
  4  5  1  0  0  0  0
  4 17  2  0  0  0  0
  5  6  1  0  0  0  0
  5 23  1  0  0  0  0
  6  7  2  0  0  0  0
  6  8  1  0  0  0  0
  8  9  1  0  0  0  0
  9 16  1  0  0  0  0
  9 10  1  0  0  0  0
  9 24  1  0  0  0  0
 10 11  1  0  0  0  0
 10 25  1  0  0  0  0
 10 26  1  0  0  0  0
 11 12  1  0  0  0  0
 11 27  1  0  0  0  0
 11 28  1  0  0  0  0
 12 13  1  0  0  0  0
 12 16  1  0  0  0  0
 12 36  1  0  0  0  0
 13 15  1  0  0  0  0
 13 14  1  0  0  0  0
 13 29  1  0  0  0  0
 14 15  1  0  0  0  0
 14 30  1  0  0  0  0
 14 31  1  0  0  0  0
 15 32  1  0  0  0  0
 15 33  1  0  0  0  0
 16 34  1  0  0  0  0
 16 35  1  0  0  0  0
 17 18  1  0  0  0  0
M  CHG  1   8  -1
M  CHG  1  12   1
M  END
> <s_m_source_file>
AV-unprocessed.smi

> <i_m_source_file_index>
3237

> <i_lp_mmshare_version>
43012

> <i_f3d_flags>
0

> <s_epik_input>
W0NIM11jMVtjSF1jKG5vMSlbTkhdQyg9TylbTkhdW0NAQEhdMltDSDJdW0NIMl1OKFtDSDJdMilbQ0hdM1tDSDJdW0NIMl0z

> <s_epik_cmdline>
J2VwaWtfcHl0aG9uJywgJy1waCcsICc3LjAnLCAnLXRuJywgJzgnLCAnLW1hJywgJzIwMCcsICctbWV0YWxfYmluZGluZycsICctaW1hZScsICc8aW5maWxlLm1hZT4nLCAnLW9tYWUnLCAnPG91dGZpbGUubWFlPic=

> <r_epik_Ionization_Penalty>
6.76456

> <r_epik_Ionization_Penalty_Charging>
6.76456

> <r_epik_Ionization_Penalty_Neutral>
5.76722e-06

> <r_epik_State_Penalty>
6.78919

> <r_epik_Charging_Adjusted_Penalty>
13.5538

> <i_epik_Tot_Q>
0

> <i_epik_Tot_abs_Q>
2

> <r_epik_Metal_State_Penalty>
2.728

> <b_epik_Metal_Only>
1

> <s_lp_Force_Field>
OPLS_2005

> <r_lp_Energy>
30.7434

> <b_lp_Chiralities_Consistent>
1

> <s_lp_Variant>
AV-unprocessed.smi:3237-10

> <Gold.Version>
5.8.1

> <Gold.Id.Protein>
6NUR|6NUR_protein|mol2

> <Gold.PLP.Fitness>
34.9638

> <Gold.PLP.PLP>
-27.5656

> <Gold.PLP.part.hbond>
-2.4786

> <Gold.PLP.part.metal>
0.0000

> <Gold.PLP.part.buried>
-4.5677

> <Gold.PLP.part.nonpolar>
-22.4981

> <Gold.PLP.part.repulsive>
1.3650

> <Gold.PLP.ligand.clash>
1.0882

> <Gold.PLP.ligand.torsion>
0.8927

> <Gold.PLP.Chemscore.Hbond>
2.9840

> <Gold.PLP.Chemscore.CHOScore>
0.0000

> <Gold.PLP.Chemscore.Metal>
0.0000

> <Gold.Chemscore.Hbonds>
donor molecule, donor type, donor heavy atom, donor atom, acceptor molecule, acceptor atom, score
      L1  H    12    36       P1  7948  1.95
      P1  H  7989  7998       L1     7  1.00

> <Gold.PLP.Chemscore.Internal.Correction>
1.3197

> <Gold.Rescore>
     Score         DG    S(hbond)    S(metal)    S(lipo)     H(rot)  DE(clash)    DE(int)     intcor
     13.42     -15.85       1.86        0.00      62.63       1.25       0.10       2.33       ----

> <Gold.Chemscore.Fitness>
13.4202

> <Gold.Chemscore.DG>
-15.8456

> <Gold.Chemscore.ZeroCoef>
-5.4800

> <Gold.Chemscore.Hbond>
1.8648

> <Gold.Chemscore.Metal>
0.0000

> <Gold.Chemscore.Lipo>
62.6327

> <Gold.Chemscore.Internal_Hbond>
0.0000

> <Gold.Chemscore.DEClash>
0.0966

> <Gold.Chemscore.DEInternal>
2.3289

> <Gold.Chemscore.Rot>
1.2464

> <Gold.Chemscore.Internal.Correction>
   9.000000E+99

> <Gold.Chemscore.Hbonds>
donor molecule, donor type, donor heavy atom, donor atom, acceptor molecule, acceptor atom, score
      L1  H    12    36       P1  7948  0.93
      P1  H  7989  7998       L1     7  0.30

> <Gold.Chemscore.Hbond.Weighted>
-6.2285

> <Gold.Chemscore.Metal.Weighted>
-0.0000

> <Gold.Chemscore.Lipo.Weighted>
-7.3280

> <Gold.Chemscore.Internal_Hbond.Weighted>
0.0000

> <Gold.Chemscore.DEClash.Weighted>
0.0966

> <Gold.Chemscore.DEInternal.Weighted>
2.3289

> <Gold.Chemscore.Rot.Weighted>
3.1909

> <Gold.Chemscore.Internal.Correction.Weighted>
   9.000000E+99

> <Gold.Protein.RotatedTorsions>
[ 6907 6896 6895 6894 ] final  -34.93 input  -60.11 | X-H torsion
[ 7974 7965 7964 7962 ] final -106.13 input  175.53 | X-H torsion
[ 8008 7997 7996 7995 ] final -108.69 input   59.86 | X-H torsion
[ 10167 10162 10161 10158 ] final   33.50 input  -65.29 | X-H torsion
[ 10718 10713 10712 10709 ] final  146.84 input   66.30 | X-H torsion
[ 10763 10752 10751 10750 ] final   13.72 input  -60.55 | X-H torsion
[ 11005 11000 10999 10996 ] final  -80.76 input  -57.11 | X-H torsion

> <Gold.Protein.ActiveResidues>
 VAL166  LYS551  ARG553  GLY616  TRP617  ASP618  TYR619  PRO620  LYS621  CYS622 
 ASP623  PHE694  ASN695  SER759  ASP760  ASP761  ALA762  ILE779  LEU786  VAL792 
 PHE793  MET794  SER795  GLU796  ALA797  LYS798  CYS799  TRP800  GLU811  SER814 

> <Gold.Protein.RotatedAtoms>
  151.0463  134.9642  159.8187 H   0  0  0  0  0  0  0  0  0  0  0  0  # atno 6907 bound_to 6896
  152.5373  134.2594  159.8939 H   0  0  0  0  0  0  0  0  0  0  0  0  # atno 6908 bound_to 6896
  151.2608  133.4260  159.2650 H   0  0  0  0  0  0  0  0  0  0  0  0  # atno 6909 bound_to 6896
  145.2217  140.9137  143.3255 H   0  0  0  0  0  0  0  0  0  0  0  0  # atno 7974 bound_to 7965
  154.9481  140.0401  157.2130 H   0  0  0  0  0  0  0  0  0  0  0  0  # atno 8008 bound_to 7997
  154.8005  140.2851  155.5903 H   0  0  0  0  0  0  0  0  0  0  0  0  # atno 8009 bound_to 7997
  156.2961  140.2556  156.2872 H   0  0  0  0  0  0  0  0  0  0  0  0  # atno 8010 bound_to 7997
  140.4401  144.1199  150.6172 H   0  0  0  0  0  0  0  0  0  0  0  0  # atno 10167 bound_to 10162
  157.3283  131.0916  151.1184 H   0  0  0  0  0  0  0  0  0  0  0  0  # atno 10718 bound_to 10713
  153.1693  135.6809  153.8630 H   0  0  0  0  0  0  0  0  0  0  0  0  # atno 10763 bound_to 10752
  153.7999  135.3157  155.3390 H   0  0  0  0  0  0  0  0  0  0  0  0  # atno 10764 bound_to 10752
  154.7987  135.4791  154.0315 H   0  0  0  0  0  0  0  0  0  0  0  0  # atno 10765 bound_to 10752
  141.1667  133.7165  156.8321 H   0  0  0  0  0  0  0  0  0  0  0  0  # atno 11005 bound_to 11000
  144.9759  139.3832  143.6286 LP  0  0  0  0  0  0  0  0  0  0  0  0  # atno 17320 bound_to 7965
  146.3374  139.8878  142.8814 LP  0  0  0  0  0  0  0  0  0  0  0  0  # atno 17321 bound_to 7965
  140.4328  143.2560  151.9574 LP  0  0  0  0  0  0  0  0  0  0  0  0  # atno 17342 bound_to 10162
  139.4789  144.5728  151.8060 LP  0  0  0  0  0  0  0  0  0  0  0  0  # atno 17343 bound_to 10162
  157.2442  130.6584  149.5903 LP  0  0  0  0  0  0  0  0  0  0  0  0  # atno 17370 bound_to 10713
  155.9693  130.4559  150.5903 LP  0  0  0  0  0  0  0  0  0  0  0  0  # atno 17371 bound_to 10713
  140.2044  134.8874  157.3205 LP  0  0  0  0  0  0  0  0  0  0  0  0  # atno 17394 bound_to 11000
  140.2153  134.4088  155.7592 LP  0  0  0  0  0  0  0  0  0  0  0  0  # atno 17395 bound_to 11000

$$$$
