AV-unprocessed.smi:2906|AV-procd|sdf|11165|dock3
  -GOLD-   2272016 53D 1   1.00000     0.00000
 Structure written by MMmdl.
 39 40  0  0  0  0  0  0  0  0  2 V2000
  147.2715  141.9703  155.6829 C   0  0  0  0  0  0  0  0  0  0  0  0
  146.8785  140.4910  155.8238 C   0  0  0  0  0  0  0  0  0  0  0  0
  147.5369  139.5731  154.7800 C   0  0  0  0  0  0  0  0  0  0  0  0
  146.8364  138.9704  153.9651 O   0  0  0  0  0  0  0  0  0  0  0  0
  148.8809  139.4551  154.7931 N   0  0  0  0  0  0  0  0  0  0  0  0
  149.6720  138.6181  153.8936 C   0  0  0  0  0  0  0  0  0  0  0  0
  151.0968  138.6385  154.4463 C   0  0  0  0  0  0  0  0  0  0  0  0
  151.1807  139.9312  155.2575 C   0  0  2  0  0  0  0  0  0  0  0  0
  152.1000  139.8254  156.3869 N   0  0  0  0  0  0  0  0  0  0  0  0
  152.1240  140.6348  157.4551 C   0  0  0  0  0  0  0  0  0  0  0  0
  151.3193  141.5656  157.5398 O   0  0  0  0  0  0  0  0  0  0  0  0
  153.0808  140.3170  158.3568 N   0  5  0  0  0  0  0  0  0  0  0  0
  153.1972  141.0261  159.4913 C   0  0  0  0  0  0  0  0  0  0  0  0
  152.6393  142.2303  159.6597 N   0  0  0  0  0  0  0  0  0  0  0  0
  152.8782  142.7870  160.9191 C   0  0  0  0  0  0  0  0  0  0  0  0
  152.3282  144.1394  161.2565 C   0  0  0  0  0  0  0  0  0  0  0  0
  151.7931  144.8746  160.0227 C   0  0  0  0  0  0  0  0  0  0  0  0
  153.6316  141.9783  161.7297 C   0  0  0  0  0  0  0  0  0  0  0  0
  154.0632  140.4921  160.9335 S   0  0  0  0  0  0  0  0  0  0  0  0
  149.7430  140.1690  155.7322 C   0  0  0  0  0  0  0  0  0  0  0  0
  146.7672  142.5756  156.4365 H   0  0  0  0  0  0  0  0  0  0  0  0
  146.9938  142.3651  154.7050 H   0  0  0  0  0  0  0  0  0  0  0  0
  148.3450  142.1123  155.8127 H   0  0  0  0  0  0  0  0  0  0  0  0
  147.1512  140.1425  156.8204 H   0  0  0  0  0  0  0  0  0  0  0  0
  145.7948  140.4034  155.7406 H   0  0  0  0  0  0  0  0  0  0  0  0
  149.2922  137.5976  153.8331 H   0  0  0  0  0  0  0  0  0  0  0  0
  149.6489  139.0511  152.8926 H   0  0  0  0  0  0  0  0  0  0  0  0
  151.2374  137.7762  155.1002 H   0  0  0  0  0  0  0  0  0  0  0  0
  151.8531  138.5840  153.6627 H   0  0  0  0  0  0  0  0  0  0  0  0
  151.4742  140.7528  154.6014 H   0  0  0  0  0  0  0  0  0  0  0  0
  152.7758  139.0760  156.3581 H   0  0  0  0  0  0  0  0  0  0  0  0
  151.5289  144.0433  161.9923 H   0  0  0  0  0  0  0  0  0  0  0  0
  153.0986  144.7485  161.7304 H   0  0  0  0  0  0  0  0  0  0  0  0
  151.4017  145.8550  160.2941 H   0  0  0  0  0  0  0  0  0  0  0  0
  150.9869  144.3136  159.5488 H   0  0  0  0  0  0  0  0  0  0  0  0
  152.5794  145.0219  159.2820 H   0  0  0  0  0  0  0  0  0  0  0  0
  153.9583  142.1647  162.7415 H   0  0  0  0  0  0  0  0  0  0  0  0
  149.5123  141.2349  155.7665 H   0  0  0  0  0  0  0  0  0  0  0  0
  149.5811  139.7579  156.7303 H   0  0  0  0  0  0  0  0  0  0  0  0
  1  2  1  0  0  0  0
  1 21  1  0  0  0  0
  1 22  1  0  0  0  0
  1 23  1  0  0  0  0
  2  3  1  0  0  0  0
  2 24  1  0  0  0  0
  2 25  1  0  0  0  0
  3  4  2  0  0  0  0
  3  5  1  0  0  0  0
  5 20  1  0  0  0  0
  5  6  1  0  0  0  0
  6  7  1  0  0  0  0
  6 26  1  0  0  0  0
  6 27  1  0  0  0  0
  7  8  1  0  0  0  0
  7 28  1  0  0  0  0
  7 29  1  0  0  0  0
  8  9  1  0  0  0  0
  8 20  1  0  0  0  0
  8 30  1  0  0  0  0
  9 10  1  0  0  0  0
  9 31  1  0  0  0  0
 10 11  2  0  0  0  0
 10 12  1  0  0  0  0
 12 13  1  0  0  0  0
 13 19  1  0  0  0  0
 13 14  2  0  0  0  0
 14 15  1  0  0  0  0
 15 16  1  0  0  0  0
 15 18  2  0  0  0  0
 16 17  1  0  0  0  0
 16 32  1  0  0  0  0
 16 33  1  0  0  0  0
 17 34  1  0  0  0  0
 17 35  1  0  0  0  0
 17 36  1  0  0  0  0
 18 19  1  0  0  0  0
 18 37  1  0  0  0  0
 20 38  1  0  0  0  0
 20 39  1  0  0  0  0
M  CHG  1  12  -1
M  END
> <s_m_source_file>
AV-unprocessed.smi

> <i_m_source_file_index>
2906

> <i_lp_mmshare_version>
43012

> <i_f3d_flags>
0

> <s_epik_input>
W0NIM11bQ0gyXUMoPU8pTjFbQ0gyXVtDSDJdW0NASF0oW0NIMl0xKVtOSF1DKD1PKVtOSF1jMm5jKFtjSF1zMilbQ0gyXVtDSDNd

> <s_epik_cmdline>
J2VwaWtfcHl0aG9uJywgJy1waCcsICc3LjAnLCAnLXRuJywgJzgnLCAnLW1hJywgJzIwMCcsICctbWV0YWxfYmluZGluZycsICctaW1hZScsICc8aW5maWxlLm1hZT4nLCAnLW9tYWUnLCAnPG91dGZpbGUubWFlPic=

> <r_lp_tautomer_probability>
1

> <r_epik_Ionization_Penalty>
7.20119

> <r_epik_Ionization_Penalty_Charging>
5.87168

> <r_epik_Ionization_Penalty_Neutral>
1.32951

> <r_epik_State_Penalty>
5.87165

> <r_epik_Charging_Adjusted_Penalty>
11.7433

> <i_epik_Tot_Q>
-1

> <i_epik_Tot_abs_Q>
1

> <r_epik_Metal_State_Penalty>
1.83511

> <b_epik_Metal_Only>
1

> <s_lp_Force_Field>
OPLS_2005

> <r_lp_Energy>
18.7216

> <b_lp_Chiralities_Consistent>
1

> <s_lp_Variant>
AV-unprocessed.smi:2906-4

> <Gold.Version>
5.8.1

> <Gold.Id.Protein>
6NUR|6NUR_protein|mol2

> <Gold.PLP.Fitness>
39.4683

> <Gold.PLP.PLP>
-34.7491

> <Gold.PLP.part.hbond>
-1.0000

> <Gold.PLP.part.metal>
0.0000

> <Gold.PLP.part.buried>
-2.4805

> <Gold.PLP.part.nonpolar>
-30.5384

> <Gold.PLP.part.repulsive>
0.3200

> <Gold.PLP.ligand.clash>
0.0000

> <Gold.PLP.ligand.torsion>
0.4304

> <Gold.PLP.Chemscore.Hbond>
1.8240

> <Gold.PLP.Chemscore.CHOScore>
0.0000

> <Gold.PLP.Chemscore.Metal>
0.0000

> <Gold.Chemscore.Hbonds>
donor molecule, donor type, donor heavy atom, donor atom, acceptor molecule, acceptor atom, score
      P1  H  7997  8009       L1    12  1.46

> <Gold.PLP.Chemscore.Internal.Correction>
0.1079

> <Gold.Rescore>
     Score         DG    S(hbond)    S(metal)    S(lipo)     H(rot)  DE(clash)    DE(int)     intcor
     10.18     -13.86       0.53        0.00      86.72       1.39       0.20       3.48       ----

> <Gold.Chemscore.Fitness>
10.1764

> <Gold.Chemscore.DG>
-13.8620

> <Gold.Chemscore.ZeroCoef>
-5.4800

> <Gold.Chemscore.Hbond>
0.5339

> <Gold.Chemscore.Metal>
0.0000

> <Gold.Chemscore.Lipo>
86.7161

> <Gold.Chemscore.Internal_Hbond>
0.0000

> <Gold.Chemscore.DEClash>
0.2013

> <Gold.Chemscore.DEInternal>
3.4842

> <Gold.Chemscore.Rot>
1.3856

> <Gold.Chemscore.Internal.Correction>
   9.000000E+99

> <Gold.Chemscore.Hbonds>
donor molecule, donor type, donor heavy atom, donor atom, acceptor molecule, acceptor atom, score
      P1  H  7997  8009       L1    12  0.10

> <Gold.Chemscore.Hbond.Weighted>
-1.7833

> <Gold.Chemscore.Metal.Weighted>
-0.0000

> <Gold.Chemscore.Lipo.Weighted>
-10.1458

> <Gold.Chemscore.Internal_Hbond.Weighted>
0.0000

> <Gold.Chemscore.DEClash.Weighted>
0.2013

> <Gold.Chemscore.DEInternal.Weighted>
3.4842

> <Gold.Chemscore.Rot.Weighted>
3.5471

> <Gold.Chemscore.Internal.Correction.Weighted>
   9.000000E+99

> <Gold.Protein.RotatedTorsions>
[ 6907 6896 6895 6894 ] final  127.56 input  -60.11 | X-H torsion
[ 7974 7965 7964 7962 ] final  134.20 input  175.53 | X-H torsion
[ 8008 7997 7996 7995 ] final  156.47 input   59.86 | X-H torsion
[ 10167 10162 10161 10158 ] final  146.28 input  -65.29 | X-H torsion
[ 10718 10713 10712 10709 ] final   17.01 input   66.30 | X-H torsion
[ 10763 10752 10751 10750 ] final  -24.52 input  -60.55 | X-H torsion
[ 11005 11000 10999 10996 ] final  110.63 input  -57.11 | X-H torsion

> <Gold.Protein.ActiveResidues>
 VAL166  LYS551  ARG553  GLY616  TRP617  ASP618  TYR619  PRO620  LYS621  CYS622 
 ASP623  PHE694  ASN695  SER759  ASP760  ASP761  ALA762  ILE779  LEU786  VAL792 
 PHE793  MET794  SER795  GLU796  ALA797  LYS798  CYS799  TRP800  GLU811  SER814 

> <Gold.Protein.RotatedAtoms>
  152.3801  133.6534  159.6154 H   0  0  0  0  0  0  0  0  0  0  0  0  # atno 6907 bound_to 6896
  150.7734  133.9128  159.3383 H   0  0  0  0  0  0  0  0  0  0  0  0  # atno 6908 bound_to 6896
  151.6936  135.0943  160.0289 H   0  0  0  0  0  0  0  0  0  0  0  0  # atno 6909 bound_to 6896
  144.9787  139.4527  143.5397 H   0  0  0  0  0  0  0  0  0  0  0  0  # atno 7974 bound_to 7965
  156.2420  140.1911  156.6961 H   0  0  0  0  0  0  0  0  0  0  0  0  # atno 8008 bound_to 7997
  154.6216  140.0608  156.9648 H   0  0  0  0  0  0  0  0  0  0  0  0  # atno 8009 bound_to 7997
  155.1853  140.3280  155.4370 H   0  0  0  0  0  0  0  0  0  0  0  0  # atno 8010 bound_to 7997
  139.4910  144.5841  151.6813 H   0  0  0  0  0  0  0  0  0  0  0  0  # atno 10167 bound_to 10162
  157.0761  130.6368  149.5816 H   0  0  0  0  0  0  0  0  0  0  0  0  # atno 10718 bound_to 10713
  153.6852  135.6964  153.5106 H   0  0  0  0  0  0  0  0  0  0  0  0  # atno 10763 bound_to 10752
  153.2455  135.4292  155.0742 H   0  0  0  0  0  0  0  0  0  0  0  0  # atno 10764 bound_to 10752
  154.8389  135.3518  154.6394 H   0  0  0  0  0  0  0  0  0  0  0  0  # atno 10765 bound_to 10752
  139.8886  134.9488  156.6308 H   0  0  0  0  0  0  0  0  0  0  0  0  # atno 11005 bound_to 11000
  146.3402  139.9046  142.8789 LP  0  0  0  0  0  0  0  0  0  0  0  0  # atno 17320 bound_to 7965
  145.2452  141.0024  143.3913 LP  0  0  0  0  0  0  0  0  0  0  0  0  # atno 17321 bound_to 7965
  140.5453  144.0513  150.6104 LP  0  0  0  0  0  0  0  0  0  0  0  0  # atno 17342 bound_to 10162
  140.3549  143.2941  152.0447 LP  0  0  0  0  0  0  0  0  0  0  0  0  # atno 17343 bound_to 10162
  155.9937  130.4998  150.7389 LP  0  0  0  0  0  0  0  0  0  0  0  0  # atno 17370 bound_to 10713
  157.4839  131.0905  151.0505 LP  0  0  0  0  0  0  0  0  0  0  0  0  # atno 17371 bound_to 10713
  140.7668  133.8772  155.8460 LP  0  0  0  0  0  0  0  0  0  0  0  0  # atno 17394 bound_to 11000
  140.9876  134.1322  157.4438 LP  0  0  0  0  0  0  0  0  0  0  0  0  # atno 17395 bound_to 11000

$$$$
