AV-unprocessed.smi:1965|AV-procd|sdf|7944|dock8
  -GOLD-   2272010113D 1   1.00000     0.00000
 Structure written by MMmdl.
 36 38  0  0  0  0  0  0  0  0  3 V2000
  148.3048  130.9691  153.6769 O   0  0  0  0  0  0  0  0  0  0  0  0
  148.6521  132.0452  154.1610 C   0  0  0  0  0  0  0  0  0  0  0  0
  149.7471  132.1961  154.9509 N   0  5  0  0  0  0  0  0  0  0  0  0
  150.6909  131.2432  155.0671 C   0  0  0  0  0  0  0  0  0  0  0  0
  150.6403  130.0792  154.4090 N   0  0  0  0  0  0  0  0  0  0  0  0
  151.7286  129.2450  154.6714 C   0  0  0  0  0  0  0  0  0  0  0  0
  152.6290  129.7866  155.5499 C   0  0  0  0  0  0  0  0  0  0  0  0
  152.1308  131.3673  156.0816 S   0  0  0  0  0  0  0  0  0  0  0  0
  147.9182  133.1426  153.9009 N   0  0  0  0  0  0  0  0  0  0  0  0
  146.7052  133.2071  153.0932 C   0  0  2  0  0  0  0  0  0  0  0  0
  146.9286  132.8324  151.6119 C   0  0  0  0  0  0  0  0  0  0  0  0
  146.2091  133.9242  150.8135 C   0  0  0  0  0  0  0  0  0  0  0  0
  146.3190  135.1017  151.6830 N   0  3  1  0  0  0  0  0  0  0  0  0
  145.5065  136.2914  151.3555 C   0  0  0  0  0  0  0  0  0  0  0  0
  145.9010  137.4384  152.3109 C   0  0  0  0  0  0  0  0  0  0  0  0
  145.8309  137.0131  153.7949 C   0  0  0  0  0  0  0  0  0  0  0  0
  146.6050  135.7023  154.0466 C   0  0  0  0  0  0  0  0  0  0  0  0
  146.1064  134.6287  153.0610 C   0  0  2  0  0  0  0  0  0  0  0  0
  151.7808  128.2805  154.1885 H   0  0  0  0  0  0  0  0  0  0  0  0
  153.5468  129.3538  155.9187 H   0  0  0  0  0  0  0  0  0  0  0  0
  148.2341  134.0087  154.3122 H   0  0  0  0  0  0  0  0  0  0  0  0
  145.9668  132.5349  153.5343 H   0  0  0  0  0  0  0  0  0  0  0  0
  147.9929  132.8534  151.3714 H   0  0  0  0  0  0  0  0  0  0  0  0
  146.5599  131.8342  151.3740 H   0  0  0  0  0  0  0  0  0  0  0  0
  146.6581  134.0953  149.8346 H   0  0  0  0  0  0  0  0  0  0  0  0
  145.1580  133.6662  150.6734 H   0  0  0  0  0  0  0  0  0  0  0  0
  145.6852  136.5853  150.3207 H   0  0  0  0  0  0  0  0  0  0  0  0
  144.4448  136.0573  151.4476 H   0  0  0  0  0  0  0  0  0  0  0  0
  146.9179  137.7597  152.0816 H   0  0  0  0  0  0  0  0  0  0  0  0
  145.2610  138.3045  152.1396 H   0  0  0  0  0  0  0  0  0  0  0  0
  146.2218  137.8071  154.4318 H   0  0  0  0  0  0  0  0  0  0  0  0
  144.7870  136.8760  154.0804 H   0  0  0  0  0  0  0  0  0  0  0  0
  147.6747  135.8747  153.9166 H   0  0  0  0  0  0  0  0  0  0  0  0
  146.4599  135.3726  155.0760 H   0  0  0  0  0  0  0  0  0  0  0  0
  145.0294  134.5135  153.2041 H   0  0  0  0  0  0  0  0  0  0  0  0
  147.2869  135.3858  151.6328 H   0  0  0  0  0  0  0  0  0  0  0  0
  1  2  2  0  0  0  0
  2  3  1  0  0  0  0
  2  9  1  0  0  0  0
  3  4  1  0  0  0  0
  4  8  1  0  0  0  0
  4  5  2  0  0  0  0
  5  6  1  0  0  0  0
  6  7  2  0  0  0  0
  6 19  1  0  0  0  0
  7  8  1  0  0  0  0
  7 20  1  0  0  0  0
  9 10  1  0  0  0  0
  9 21  1  0  0  0  0
 10 18  1  0  0  0  0
 10 11  1  0  0  0  0
 10 22  1  0  0  0  0
 11 12  1  0  0  0  0
 11 23  1  0  0  0  0
 11 24  1  0  0  0  0
 12 13  1  0  0  0  0
 12 25  1  0  0  0  0
 12 26  1  0  0  0  0
 13 18  1  0  0  0  0
 13 14  1  0  0  0  0
 13 36  1  0  0  0  0
 14 15  1  0  0  0  0
 14 27  1  0  0  0  0
 14 28  1  0  0  0  0
 15 16  1  0  0  0  0
 15 29  1  0  0  0  0
 15 30  1  0  0  0  0
 16 17  1  0  0  0  0
 16 31  1  0  0  0  0
 16 32  1  0  0  0  0
 17 18  1  0  0  0  0
 17 33  1  0  0  0  0
 17 34  1  0  0  0  0
 18 35  1  0  0  0  0
M  CHG  1   3  -1
M  CHG  1  13   1
M  END
> <s_m_source_file>
AV-unprocessed.smi

> <i_m_source_file_index>
1965

> <i_lp_mmshare_version>
43012

> <i_f3d_flags>
0

> <s_epik_input>
czFbY0hdW2NIXW5jMVtOSF1DKD1PKVtOSF1bQ0BIXShbQ0gyXVtDSDJdMilbQ0BASF0oTjIzKVtDSDJdW0NIMl1bQ0gyXVtDSDJdMw==

> <s_epik_cmdline>
J2VwaWtfcHl0aG9uJywgJy1waCcsICc3LjAnLCAnLXRuJywgJzgnLCAnLW1hJywgJzIwMCcsICctbWV0YWxfYmluZGluZycsICctaW1hZScsICc8aW5maWxlLm1hZT4nLCAnLW9tYWUnLCAnPG91dGZpbGUubWFlPic=

> <r_lp_tautomer_probability>
1

> <r_epik_Ionization_Penalty>
7.4116

> <r_epik_Ionization_Penalty_Charging>
6.13869

> <r_epik_Ionization_Penalty_Neutral>
1.27291

> <r_epik_State_Penalty>
6.13761

> <r_epik_Charging_Adjusted_Penalty>
12.2763

> <i_epik_Tot_Q>
0

> <i_epik_Tot_abs_Q>
2

> <r_epik_Metal_State_Penalty>
2.08142

> <b_epik_Metal_Only>
1

> <s_lp_Force_Field>
OPLS_2005

> <r_lp_Energy>
32.5811

> <b_lp_Chiralities_Consistent>
1

> <s_lp_Variant>
AV-unprocessed.smi:1965-13

> <Gold.Version>
5.8.1

> <Gold.Id.Protein>
6NUR|6NUR_protein|mol2

> <Gold.PLP.Fitness>
33.6141

> <Gold.PLP.PLP>
-24.7550

> <Gold.PLP.part.hbond>
-1.0000

> <Gold.PLP.part.metal>
0.0000

> <Gold.PLP.part.buried>
-2.0863

> <Gold.PLP.part.nonpolar>
-21.1481

> <Gold.PLP.part.repulsive>
0.2283

> <Gold.PLP.ligand.clash>
0.0000

> <Gold.PLP.ligand.torsion>
0.0466

> <Gold.PLP.Chemscore.Hbond>
2.0000

> <Gold.PLP.Chemscore.CHOScore>
0.9830

> <Gold.PLP.Chemscore.Metal>
0.0000

> <Gold.Chemscore.Hbonds>
donor molecule, donor type, donor heavy atom, donor atom, acceptor molecule, acceptor atom, score
      L1  H    13    36       P1  7948  2.00
      L1  C     6    19       P1 10737  0.98

> <Gold.PLP.Chemscore.Internal.Correction>
0.0034

> <Gold.Rescore>
     Score         DG    S(hbond)    S(metal)    S(lipo)     H(rot)  DE(clash)    DE(int)     intcor
     10.70     -12.41       0.98        0.00      53.20       1.00       0.02       1.69       ----

> <Gold.Chemscore.Fitness>
10.7020

> <Gold.Chemscore.DG>
-12.4081

> <Gold.Chemscore.ZeroCoef>
-5.4800

> <Gold.Chemscore.Hbond>
0.9773

> <Gold.Chemscore.Metal>
0.0000

> <Gold.Chemscore.Lipo>
53.1963

> <Gold.Chemscore.Internal_Hbond>
0.0000

> <Gold.Chemscore.DEClash>
0.0172

> <Gold.Chemscore.DEInternal>
1.6889

> <Gold.Chemscore.Rot>
1.0000

> <Gold.Chemscore.Internal.Correction>
   9.000000E+99

> <Gold.Chemscore.Hbonds>
donor molecule, donor type, donor heavy atom, donor atom, acceptor molecule, acceptor atom, score
      L1  H    13    36       P1  7948  0.97

> <Gold.Chemscore.Hbond.Weighted>
-3.2641

> <Gold.Chemscore.Metal.Weighted>
-0.0000

> <Gold.Chemscore.Lipo.Weighted>
-6.2240

> <Gold.Chemscore.Internal_Hbond.Weighted>
0.0000

> <Gold.Chemscore.DEClash.Weighted>
0.0172

> <Gold.Chemscore.DEInternal.Weighted>
1.6889

> <Gold.Chemscore.Rot.Weighted>
2.5600

> <Gold.Chemscore.Internal.Correction.Weighted>
   9.000000E+99

> <Gold.Protein.RotatedTorsions>
[ 6907 6896 6895 6894 ] final   70.30 input  -60.11 | X-H torsion
[ 7974 7965 7964 7962 ] final  -22.54 input  175.53 | X-H torsion
[ 8008 7997 7996 7995 ] final   18.08 input   59.86 | X-H torsion
[ 10167 10162 10161 10158 ] final   20.36 input  -65.29 | X-H torsion
[ 10718 10713 10712 10709 ] final  -77.44 input   66.30 | X-H torsion
[ 10763 10752 10751 10750 ] final  -53.91 input  -60.55 | X-H torsion
[ 11005 11000 10999 10996 ] final -178.64 input  -57.11 | X-H torsion

> <Gold.Protein.ActiveResidues>
 VAL166  LYS551  ARG553  GLY616  TRP617  ASP618  TYR619  PRO620  LYS621  CYS622 
 ASP623  PHE694  ASN695  SER759  ASP760  ASP761  ALA762  ILE779  LEU786  VAL792 
 PHE793  MET794  SER795  GLU796  ALA797  LYS798  CYS799  TRP800  GLU811  SER814 

> <Gold.Protein.RotatedAtoms>
  152.4740  134.4889  159.9688 H   0  0  0  0  0  0  0  0  0  0  0  0  # atno 6907 bound_to 6896
  151.4909  133.3519  159.2861 H   0  0  0  0  0  0  0  0  0  0  0  0  # atno 6908 bound_to 6896
  150.8768  134.8179  159.7257 H   0  0  0  0  0  0  0  0  0  0  0  0  # atno 6909 bound_to 6896
  146.1669  140.4493  142.8548 H   0  0  0  0  0  0  0  0  0  0  0  0  # atno 7974 bound_to 7965
  154.9008  140.3000  155.5318 H   0  0  0  0  0  0  0  0  0  0  0  0  # atno 8008 bound_to 7997
  156.3018  140.2407  156.3971 H   0  0  0  0  0  0  0  0  0  0  0  0  # atno 8009 bound_to 7997
  154.8523  140.0409  157.1601 H   0  0  0  0  0  0  0  0  0  0  0  0  # atno 8010 bound_to 7997
  140.5509  143.9510  150.6577 H   0  0  0  0  0  0  0  0  0  0  0  0  # atno 10167 bound_to 10162
  156.0145  130.4491  150.3345 H   0  0  0  0  0  0  0  0  0  0  0  0  # atno 10718 bound_to 10713
  154.1664  135.6466  153.4998 H   0  0  0  0  0  0  0  0  0  0  0  0  # atno 10763 bound_to 10752
  153.0096  135.5373  154.6658 H   0  0  0  0  0  0  0  0  0  0  0  0  # atno 10764 bound_to 10752
  154.5985  135.2941  155.0532 H   0  0  0  0  0  0  0  0  0  0  0  0  # atno 10765 bound_to 10752
  140.4275  134.6549  157.4695 H   0  0  0  0  0  0  0  0  0  0  0  0  # atno 11005 bound_to 11000
  144.8106  140.6379  143.6418 LP  0  0  0  0  0  0  0  0  0  0  0  0  # atno 17320 bound_to 7965
  145.4442  139.1531  143.3953 LP  0  0  0  0  0  0  0  0  0  0  0  0  # atno 17321 bound_to 7965
  140.2936  143.3307  152.1039 LP  0  0  0  0  0  0  0  0  0  0  0  0  # atno 17342 bound_to 10162
  139.5027  144.6740  151.6174 LP  0  0  0  0  0  0  0  0  0  0  0  0  # atno 17343 bound_to 10162
  157.1442  131.0304  151.2914 LP  0  0  0  0  0  0  0  0  0  0  0  0  # atno 17370 bound_to 10713
  157.4446  130.7563  149.7098 LP  0  0  0  0  0  0  0  0  0  0  0  0  # atno 17371 bound_to 10713
  140.0157  134.6622  155.9313 LP  0  0  0  0  0  0  0  0  0  0  0  0  # atno 17394 bound_to 11000
  141.1759  133.6540  156.4827 LP  0  0  0  0  0  0  0  0  0  0  0  0  # atno 17395 bound_to 11000

$$$$
