AV-unprocessed.smi:1965|AV-procd|sdf|7945|dock9
  -GOLD-   2272010113D 1   1.00000     0.00000
 Structure written by MMmdl.
 36 38  0  0  0  0  0  0  0  0  3 V2000
  149.3078  135.3620  158.3010 O   0  0  0  0  0  0  0  0  0  0  0  0
  148.8012  136.4823  158.2563 C   0  0  0  0  0  0  0  0  0  0  0  0
  148.3612  137.1502  159.3544 N   0  5  0  0  0  0  0  0  0  0  0  0
  147.9804  136.5199  160.4811 C   0  0  0  0  0  0  0  0  0  0  0  0
  147.7759  137.1527  161.6422 N   0  0  0  0  0  0  0  0  0  0  0  0
  147.3899  136.3000  162.6782 C   0  0  0  0  0  0  0  0  0  0  0  0
  147.2962  134.9879  162.2962 C   0  0  0  0  0  0  0  0  0  0  0  0
  147.6875  134.7836  160.6128 S   0  0  0  0  0  0  0  0  0  0  0  0
  148.6692  137.0880  157.0617 N   0  0  0  0  0  0  0  0  0  0  0  0
  149.1049  136.5549  155.7774 C   0  0  1  0  0  0  0  0  0  0  0  0
  150.4951  135.8906  155.8039 C   0  0  0  0  0  0  0  0  0  0  0  0
  150.3797  134.6695  154.8701 C   0  0  0  0  0  0  0  0  0  0  0  0
  149.0169  134.7351  154.3076 N   0  3  1  0  0  0  0  0  0  0  0  0
  148.4154  133.4663  153.8421 C   0  0  0  0  0  0  0  0  0  0  0  0
  147.0297  133.7539  153.2283 C   0  0  0  0  0  0  0  0  0  0  0  0
  146.1265  134.5464  154.1959 C   0  0  0  0  0  0  0  0  0  0  0  0
  146.8413  135.8094  154.7138 C   0  0  0  0  0  0  0  0  0  0  0  0
  148.1977  135.4162  155.3199 C   0  0  2  0  0  0  0  0  0  0  0  0
  147.2010  136.7132  163.6579 H   0  0  0  0  0  0  0  0  0  0  0  0
  147.0188  134.1345  162.8964 H   0  0  0  0  0  0  0  0  0  0  0  0
  148.2414  138.0025  157.0547 H   0  0  0  0  0  0  0  0  0  0  0  0
  149.0948  137.3475  155.0263 H   0  0  0  0  0  0  0  0  0  0  0  0
  151.2683  136.5853  155.4736 H   0  0  0  0  0  0  0  0  0  0  0  0
  150.7587  135.5618  156.8104 H   0  0  0  0  0  0  0  0  0  0  0  0
  151.1259  134.6816  154.0753 H   0  0  0  0  0  0  0  0  0  0  0  0
  150.5077  133.7489  155.4418 H   0  0  0  0  0  0  0  0  0  0  0  0
  149.0671  133.0022  153.1014 H   0  0  0  0  0  0  0  0  0  0  0  0
  148.3261  132.7694  154.6767 H   0  0  0  0  0  0  0  0  0  0  0  0
  147.1556  134.3252  152.3075 H   0  0  0  0  0  0  0  0  0  0  0  0
  146.5449  132.8191  152.9457 H   0  0  0  0  0  0  0  0  0  0  0  0
  145.1933  134.8187  153.7019 H   0  0  0  0  0  0  0  0  0  0  0  0
  145.8548  133.9115  155.0403 H   0  0  0  0  0  0  0  0  0  0  0  0
  146.9849  136.5169  153.8961 H   0  0  0  0  0  0  0  0  0  0  0  0
  146.2248  136.3120  155.4600 H   0  0  0  0  0  0  0  0  0  0  0  0
  148.0360  134.7296  156.1548 H   0  0  0  0  0  0  0  0  0  0  0  0
  149.0638  135.3585  153.5143 H   0  0  0  0  0  0  0  0  0  0  0  0
  1  2  2  0  0  0  0
  2  3  1  0  0  0  0
  2  9  1  0  0  0  0
  3  4  1  0  0  0  0
  4  8  1  0  0  0  0
  4  5  2  0  0  0  0
  5  6  1  0  0  0  0
  6  7  2  0  0  0  0
  6 19  1  0  0  0  0
  7  8  1  0  0  0  0
  7 20  1  0  0  0  0
  9 10  1  0  0  0  0
  9 21  1  0  0  0  0
 10 18  1  0  0  0  0
 10 11  1  0  0  0  0
 10 22  1  0  0  0  0
 11 12  1  0  0  0  0
 11 23  1  0  0  0  0
 11 24  1  0  0  0  0
 12 13  1  0  0  0  0
 12 25  1  0  0  0  0
 12 26  1  0  0  0  0
 13 18  1  0  0  0  0
 13 14  1  0  0  0  0
 13 36  1  0  0  0  0
 14 15  1  0  0  0  0
 14 27  1  0  0  0  0
 14 28  1  0  0  0  0
 15 16  1  0  0  0  0
 15 29  1  0  0  0  0
 15 30  1  0  0  0  0
 16 17  1  0  0  0  0
 16 31  1  0  0  0  0
 16 32  1  0  0  0  0
 17 18  1  0  0  0  0
 17 33  1  0  0  0  0
 17 34  1  0  0  0  0
 18 35  1  0  0  0  0
M  CHG  1   3  -1
M  CHG  1  13   1
M  END
> <s_m_source_file>
AV-unprocessed.smi

> <i_m_source_file_index>
1965

> <i_lp_mmshare_version>
43012

> <i_f3d_flags>
0

> <s_epik_input>
czFbY0hdW2NIXW5jMVtOSF1DKD1PKVtOSF1bQ0BIXShbQ0gyXVtDSDJdMilbQ0BASF0oTjIzKVtDSDJdW0NIMl1bQ0gyXVtDSDJdMw==

> <s_epik_cmdline>
J2VwaWtfcHl0aG9uJywgJy1waCcsICc3LjAnLCAnLXRuJywgJzgnLCAnLW1hJywgJzIwMCcsICctbWV0YWxfYmluZGluZycsICctaW1hZScsICc8aW5maWxlLm1hZT4nLCAnLW9tYWUnLCAnPG91dGZpbGUubWFlPic=

> <r_lp_tautomer_probability>
1

> <r_epik_Ionization_Penalty>
7.4116

> <r_epik_Ionization_Penalty_Charging>
6.13869

> <r_epik_Ionization_Penalty_Neutral>
1.27291

> <r_epik_State_Penalty>
6.13761

> <r_epik_Charging_Adjusted_Penalty>
12.2763

> <i_epik_Tot_Q>
0

> <i_epik_Tot_abs_Q>
2

> <r_epik_Metal_State_Penalty>
2.08142

> <b_epik_Metal_Only>
1

> <s_lp_Force_Field>
OPLS_2005

> <r_lp_Energy>
26.2693

> <b_lp_Chiralities_Consistent>
1

> <s_lp_Variant>
AV-unprocessed.smi:1965-14

> <Gold.Version>
5.8.1

> <Gold.Id.Protein>
6NUR|6NUR_protein|mol2

> <Gold.PLP.Fitness>
41.6069

> <Gold.PLP.PLP>
-27.9809

> <Gold.PLP.part.hbond>
-4.1985

> <Gold.PLP.part.metal>
0.0000

> <Gold.PLP.part.buried>
-3.6153

> <Gold.PLP.part.nonpolar>
-19.5775

> <Gold.PLP.part.repulsive>
0.0256

> <Gold.PLP.ligand.clash>
0.0000

> <Gold.PLP.ligand.torsion>
0.3588

> <Gold.PLP.Chemscore.Hbond>
4.7760

> <Gold.PLP.Chemscore.CHOScore>
0.0000

> <Gold.PLP.Chemscore.Metal>
0.0000

> <Gold.Chemscore.Hbonds>
donor molecule, donor type, donor heavy atom, donor atom, acceptor molecule, acceptor atom, score
      L1  H    13    36       P1  7948  2.00
      P1  H  6896  6908       L1     1  1.00
      P1  H  6931  6943       L1     5  1.00
      P1  H  6934  6947       L1     5  0.62

> <Gold.PLP.Chemscore.Internal.Correction>
0.0157

> <Gold.Rescore>
     Score         DG    S(hbond)    S(metal)    S(lipo)     H(rot)  DE(clash)    DE(int)     intcor
     15.39     -18.37       2.83        0.00      51.30       1.00       0.03       2.95       ----

> <Gold.Chemscore.Fitness>
15.3901

> <Gold.Chemscore.DG>
-18.3658

> <Gold.Chemscore.ZeroCoef>
-5.4800

> <Gold.Chemscore.Hbond>
2.8273

> <Gold.Chemscore.Metal>
0.0000

> <Gold.Chemscore.Lipo>
51.3039

> <Gold.Chemscore.Internal_Hbond>
0.0000

> <Gold.Chemscore.DEClash>
0.0251

> <Gold.Chemscore.DEInternal>
2.9507

> <Gold.Chemscore.Rot>
1.0000

> <Gold.Chemscore.Internal.Correction>
   9.000000E+99

> <Gold.Chemscore.Hbonds>
donor molecule, donor type, donor heavy atom, donor atom, acceptor molecule, acceptor atom, score
      L1  H    13    36       P1  7948  0.55
      P1  H  6896  6908       L1     1  0.95
      P1  H  6931  6943       L1     5  0.70
      P1  H  6934  6947       L1     5  0.18

> <Gold.Chemscore.Hbond.Weighted>
-9.4433

> <Gold.Chemscore.Metal.Weighted>
-0.0000

> <Gold.Chemscore.Lipo.Weighted>
-6.0026

> <Gold.Chemscore.Internal_Hbond.Weighted>
0.0000

> <Gold.Chemscore.DEClash.Weighted>
0.0251

> <Gold.Chemscore.DEInternal.Weighted>
2.9507

> <Gold.Chemscore.Rot.Weighted>
2.5600

> <Gold.Chemscore.Internal.Correction.Weighted>
   9.000000E+99

> <Gold.Protein.RotatedTorsions>
[ 6907 6896 6895 6894 ] final  172.74 input  -60.11 | X-H torsion
[ 7974 7965 7964 7962 ] final   59.56 input  175.53 | X-H torsion
[ 8008 7997 7996 7995 ] final  151.56 input   59.86 | X-H torsion
[ 10167 10162 10161 10158 ] final  -13.07 input  -65.29 | X-H torsion
[ 10718 10713 10712 10709 ] final -160.37 input   66.30 | X-H torsion
[ 10763 10752 10751 10750 ] final  -42.69 input  -60.55 | X-H torsion
[ 11005 11000 10999 10996 ] final  -45.88 input  -57.11 | X-H torsion

> <Gold.Protein.ActiveResidues>
 VAL166  LYS551  ARG553  GLY616  TRP617  ASP618  TYR619  PRO620  LYS621  CYS622 
 ASP623  PHE694  ASN695  SER759  ASP760  ASP761  ALA762  ILE779  LEU786  VAL792 
 PHE793  MET794  SER795  GLU796  ALA797  LYS798  CYS799  TRP800  GLU811  SER814 

> <Gold.Protein.RotatedAtoms>
  151.7794  133.3348  159.3466 H   0  0  0  0  0  0  0  0  0  0  0  0  # atno 6907 bound_to 6896
  150.7432  134.5945  159.6014 H   0  0  0  0  0  0  0  0  0  0  0  0  # atno 6908 bound_to 6896
  152.3286  134.7289  160.0346 H   0  0  0  0  0  0  0  0  0  0  0  0  # atno 6909 bound_to 6896
  145.9058  139.3616  143.0565 H   0  0  0  0  0  0  0  0  0  0  0  0  # atno 7974 bound_to 7965
  156.2668  140.2044  156.6194 H   0  0  0  0  0  0  0  0  0  0  0  0  # atno 8008 bound_to 7997
  154.6768  140.0544  157.0248 H   0  0  0  0  0  0  0  0  0  0  0  0  # atno 8009 bound_to 7997
  155.1057  140.3210  155.4538 H   0  0  0  0  0  0  0  0  0  0  0  0  # atno 8010 bound_to 7997
  140.7175  143.5465  150.9350 H   0  0  0  0  0  0  0  0  0  0  0  0  # atno 10167 bound_to 10162
  156.5811  130.8730  151.2865 H   0  0  0  0  0  0  0  0  0  0  0  0  # atno 10718 bound_to 10713
  153.9832  135.6714  153.4751 H   0  0  0  0  0  0  0  0  0  0  0  0  # atno 10763 bound_to 10752
  153.0739  135.4959  154.8359 H   0  0  0  0  0  0  0  0  0  0  0  0  # atno 10764 bound_to 10752
  154.7152  135.3105  154.9096 H   0  0  0  0  0  0  0  0  0  0  0  0  # atno 10765 bound_to 10752
  141.0544  133.6731  156.3076 H   0  0  0  0  0  0  0  0  0  0  0  0  # atno 11005 bound_to 11000
  145.8734  140.9406  143.0639 LP  0  0  0  0  0  0  0  0  0  0  0  0  # atno 17320 bound_to 7965
  144.6739  140.0684  143.7474 LP  0  0  0  0  0  0  0  0  0  0  0  0  # atno 17321 bound_to 7965
  139.9188  143.6631  152.3101 LP  0  0  0  0  0  0  0  0  0  0  0  0  # atno 17342 bound_to 10162
  139.7040  144.7631  151.1224 LP  0  0  0  0  0  0  0  0  0  0  0  0  # atno 17343 bound_to 10162
  157.7326  130.9718  150.1937 LP  0  0  0  0  0  0  0  0  0  0  0  0  # atno 17370 bound_to 10713
  156.2630  130.3713  149.8110 LP  0  0  0  0  0  0  0  0  0  0  0  0  # atno 17371 bound_to 10713
  140.5993  134.5571  157.5514 LP  0  0  0  0  0  0  0  0  0  0  0  0  # atno 17394 bound_to 11000
  139.9377  134.7844  156.0759 LP  0  0  0  0  0  0  0  0  0  0  0  0  # atno 17395 bound_to 11000

$$$$
