AV-unprocessed.smi:3336|AV-procd|sdf|12860|dock2
  -GOLD-   2272019253D 1   1.00000     0.00000
 Structure written by MMmdl.
 41 42  0  0  0  0  0  0  0  0  1 V2000
  150.6955  138.3748  154.6828 C   0  0  0  0  0  0  0  0  0  0  0  0
  149.3244  139.0668  154.6179 C   0  0  1  0  0  0  0  0  0  0  0  0
  149.4016  140.5747  154.9706 C   0  0  0  0  0  0  0  0  0  0  0  0
  149.9374  140.8491  156.2947 N   0  0  0  0  0  0  0  0  0  0  0  0
  150.0684  142.0654  156.9322 C   0  0  0  0  0  0  0  0  0  0  0  0
  150.6288  141.8268  158.1543 C   0  0  0  0  0  0  0  0  0  0  0  0
  150.8123  140.4159  158.1719 C   0  0  0  0  0  0  0  0  0  0  0  0
  150.4030  139.8348  157.0562 N   0  0  0  0  0  0  0  0  0  0  0  0
  148.7791  138.8155  153.2802 N   0  0  0  0  0  0  0  0  0  0  0  0
  147.3185  138.9707  153.1119 C   0  0  1  0  0  0  0  0  0  0  0  0
  146.9687  140.4673  153.1026 C   0  0  0  0  0  0  0  0  0  0  0  0
  146.7566  138.2888  151.8422 C   0  0  0  0  0  0  0  0  0  0  0  0
  147.0210  138.7949  150.7497 O   0  0  0  0  0  0  0  0  0  0  0  0
  145.9916  137.1722  151.9433 N   0  0  0  0  0  0  0  0  0  0  0  0
  145.5129  136.3248  150.8436 C   0  0  0  0  0  0  0  0  0  0  0  0
  146.1481  134.9296  150.9880 C   0  0  0  0  0  0  0  0  0  0  0  0
  145.8232  134.3769  152.2602 O   0  0  0  0  0  0  0  0  0  0  0  0
  146.2619  135.1892  153.3451 C   0  0  0  0  0  0  0  0  0  0  0  0
  145.6194  136.5824  153.2344 C   0  0  0  0  0  0  0  0  0  0  0  0
  151.1657  138.5305  155.6541 H   0  0  0  0  0  0  0  0  0  0  0  0
  151.3777  138.7504  153.9194 H   0  0  0  0  0  0  0  0  0  0  0  0
  150.5990  137.2985  154.5363 H   0  0  0  0  0  0  0  0  0  0  0  0
  148.6956  138.5816  155.3636 H   0  0  0  0  0  0  0  0  0  0  0  0
  149.9787  141.1300  154.2309 H   0  0  0  0  0  0  0  0  0  0  0  0
  148.3986  141.0008  154.9271 H   0  0  0  0  0  0  0  0  0  0  0  0
  149.7524  142.9883  156.4685 H   0  0  0  0  0  0  0  0  0  0  0  0
  150.8712  142.5498  158.9188 H   0  0  0  0  0  0  0  0  0  0  0  0
  151.2303  139.8014  158.9557 H   0  0  0  0  0  0  0  0  0  0  0  0
  149.0842  137.9065  152.9624 H   0  0  0  0  0  0  0  0  0  0  0  0
  146.8618  138.5329  153.9944 H   0  0  0  0  0  0  0  0  0  0  0  0
  145.8930  140.6290  153.0295 H   0  0  0  0  0  0  0  0  0  0  0  0
  147.4392  140.9829  152.2643 H   0  0  0  0  0  0  0  0  0  0  0  0
  147.3061  140.9510  154.0198 H   0  0  0  0  0  0  0  0  0  0  0  0
  144.4257  136.2508  150.8946 H   0  0  0  0  0  0  0  0  0  0  0  0
  145.7406  136.7004  149.8498 H   0  0  0  0  0  0  0  0  0  0  0  0
  145.7759  134.2637  150.2095 H   0  0  0  0  0  0  0  0  0  0  0  0
  147.2317  134.9832  150.8714 H   0  0  0  0  0  0  0  0  0  0  0  0
  145.9723  134.7126  154.2817 H   0  0  0  0  0  0  0  0  0  0  0  0
  147.3506  135.2608  153.3444 H   0  0  0  0  0  0  0  0  0  0  0  0
  145.9179  137.1923  154.0878 H   0  0  0  0  0  0  0  0  0  0  0  0
  144.5329  136.4998  153.2923 H   0  0  0  0  0  0  0  0  0  0  0  0
  1  2  1  0  0  0  0
  1 20  1  0  0  0  0
  1 21  1  0  0  0  0
  1 22  1  0  0  0  0
  2  3  1  0  0  0  0
  2  9  1  0  0  0  0
  2 23  1  0  0  0  0
  3  4  1  0  0  0  0
  3 24  1  0  0  0  0
  3 25  1  0  0  0  0
  4  8  1  0  0  0  0
  4  5  1  0  0  0  0
  5  6  2  0  0  0  0
  5 26  1  0  0  0  0
  6  7  1  0  0  0  0
  6 27  1  0  0  0  0
  7  8  2  0  0  0  0
  7 28  1  0  0  0  0
  9 10  1  0  0  0  0
  9 29  1  0  0  0  0
 10 11  1  0  0  0  0
 10 12  1  0  0  0  0
 10 30  1  0  0  0  0
 11 31  1  0  0  0  0
 11 32  1  0  0  0  0
 11 33  1  0  0  0  0
 12 13  2  0  0  0  0
 12 14  1  0  0  0  0
 14 19  1  0  0  0  0
 14 15  1  0  0  0  0
 15 16  1  0  0  0  0
 15 34  1  0  0  0  0
 15 35  1  0  0  0  0
 16 17  1  0  0  0  0
 16 36  1  0  0  0  0
 16 37  1  0  0  0  0
 17 18  1  0  0  0  0
 18 19  1  0  0  0  0
 18 38  1  0  0  0  0
 18 39  1  0  0  0  0
 19 40  1  0  0  0  0
 19 41  1  0  0  0  0
M  END
> <s_m_source_file>
AV-unprocessed.smi

> <i_m_source_file_index>
3336

> <i_lp_mmshare_version>
43012

> <i_f3d_flags>
0

> <s_epik_input>
bjFbY0hdW2NIXVtjSF1uMVtDSDJdW0NAQEhdKFtDSDNdKVtOSF1bQ0BIXShbQ0gzXSlDKD1PKU4yW0NIMl1bQ0gyXU9bQ0gyXVtDSDJdMg==

> <s_epik_cmdline>
J2VwaWtfcHl0aG9uJywgJy1waCcsICc3LjAnLCAnLXRuJywgJzgnLCAnLW1hJywgJzIwMCcsICctbWV0YWxfYmluZGluZycsICctaW1hZScsICc8aW5maWxlLm1hZT4nLCAnLW9tYWUnLCAnPG91dGZpbGUubWFlPic=

> <r_lp_tautomer_probability>
1

> <r_epik_Ionization_Penalty>
0.739958

> <r_epik_Ionization_Penalty_Charging>
0

> <r_epik_Ionization_Penalty_Neutral>
0.739958

> <r_epik_State_Penalty>
0.765967

> <r_epik_Charging_Adjusted_Penalty>
0.765967

> <i_epik_Tot_Q>
0

> <i_epik_Tot_abs_Q>
0

> <r_epik_Metal_State_Penalty>
0.765947

> <b_epik_Metal_Only>
0

> <s_lp_Force_Field>
OPLS_2005

> <r_lp_Energy>
28.3858

> <b_lp_Chiralities_Consistent>
1

> <s_lp_Variant>
AV-unprocessed.smi:3336-8

> <Gold.Version>
5.8.1

> <Gold.Id.Protein>
6NUR|6NUR_protein|mol2

> <Gold.PLP.Fitness>
43.1746

> <Gold.PLP.PLP>
-35.2981

> <Gold.PLP.part.hbond>
-2.8803

> <Gold.PLP.part.metal>
0.0000

> <Gold.PLP.part.buried>
-0.1788

> <Gold.PLP.part.nonpolar>
-32.2524

> <Gold.PLP.part.repulsive>
1.0382

> <Gold.PLP.ligand.clash>
0.0000

> <Gold.PLP.ligand.torsion>
0.4952

> <Gold.PLP.Chemscore.Hbond>
1.9120

> <Gold.PLP.Chemscore.CHOScore>
1.0000

> <Gold.PLP.Chemscore.Metal>
0.0000

> <Gold.Chemscore.Hbonds>
donor molecule, donor type, donor heavy atom, donor atom, acceptor molecule, acceptor atom, score
      L1  H     9    29       P1  7948  1.00
      P1  H  7954  7966       L1    13  0.80
      L1  C     5    26       P1  8028  1.00

> <Gold.PLP.Chemscore.Internal.Correction>
0.1309

> <Gold.Rescore>
     Score         DG    S(hbond)    S(metal)    S(lipo)     H(rot)  DE(clash)    DE(int)     intcor
     14.15     -15.17       1.96        0.00      66.07       1.79       0.44       0.58       ----

> <Gold.Chemscore.Fitness>
14.1536

> <Gold.Chemscore.DG>
-15.1731

> <Gold.Chemscore.ZeroCoef>
-5.4800

> <Gold.Chemscore.Hbond>
1.9624

> <Gold.Chemscore.Metal>
0.0000

> <Gold.Chemscore.Lipo>
66.0666

> <Gold.Chemscore.Internal_Hbond>
0.0000

> <Gold.Chemscore.DEClash>
0.4416

> <Gold.Chemscore.DEInternal>
0.5779

> <Gold.Chemscore.Rot>
1.7935

> <Gold.Chemscore.Internal.Correction>
   9.000000E+99

> <Gold.Chemscore.Hbonds>
donor molecule, donor type, donor heavy atom, donor atom, acceptor molecule, acceptor atom, score
      L1  H     9    29       P1  7948  0.96
      P1  H  7954  7966       L1    13  0.68

> <Gold.Chemscore.Hbond.Weighted>
-6.5545

> <Gold.Chemscore.Metal.Weighted>
-0.0000

> <Gold.Chemscore.Lipo.Weighted>
-7.7298

> <Gold.Chemscore.Internal_Hbond.Weighted>
0.0000

> <Gold.Chemscore.DEClash.Weighted>
0.4416

> <Gold.Chemscore.DEInternal.Weighted>
0.5779

> <Gold.Chemscore.Rot.Weighted>
4.5912

> <Gold.Chemscore.Internal.Correction.Weighted>
   9.000000E+99

> <Gold.Protein.RotatedTorsions>
[ 6907 6896 6895 6894 ] final -120.30 input  -60.11 | X-H torsion
[ 7974 7965 7964 7962 ] final   62.14 input  175.53 | X-H torsion
[ 8008 7997 7996 7995 ] final  -31.03 input   59.86 | X-H torsion
[ 10167 10162 10161 10158 ] final   70.92 input  -65.29 | X-H torsion
[ 10718 10713 10712 10709 ] final -101.65 input   66.30 | X-H torsion
[ 10763 10752 10751 10750 ] final   53.86 input  -60.55 | X-H torsion
[ 11005 11000 10999 10996 ] final   51.36 input  -57.11 | X-H torsion

> <Gold.Protein.ActiveResidues>
 VAL166  LYS551  ARG553  GLY616  TRP617  ASP618  TYR619  PRO620  LYS621  CYS622 
 ASP623  PHE694  ASN695  SER759  ASP760  ASP761  ALA762  ILE779  LEU786  VAL792 
 PHE793  MET794  SER795  GLU796  ALA797  LYS798  CYS799  TRP800  GLU811  SER814 

> <Gold.Protein.RotatedAtoms>
  150.8381  133.7980  159.3071 H   0  0  0  0  0  0  0  0  0  0  0  0  # atno 6907 bound_to 6896
  151.5690  135.1061  160.0000 H   0  0  0  0  0  0  0  0  0  0  0  0  # atno 6908 bound_to 6896
  152.4450  133.7477  159.6732 H   0  0  0  0  0  0  0  0  0  0  0  0  # atno 6909 bound_to 6896
  145.8767  139.3415  143.0730 H   0  0  0  0  0  0  0  0  0  0  0  0  # atno 7974 bound_to 7965
  154.4228  140.1775  156.1501 H   0  0  0  0  0  0  0  0  0  0  0  0  # atno 8008 bound_to 7997
  155.9922  140.3368  155.6739 H   0  0  0  0  0  0  0  0  0  0  0  0  # atno 8009 bound_to 7997
  155.6357  140.0674  157.2625 H   0  0  0  0  0  0  0  0  0  0  0  0  # atno 8010 bound_to 7997
  140.0517  144.5306  150.7358 H   0  0  0  0  0  0  0  0  0  0  0  0  # atno 10167 bound_to 10162
  156.0202  130.5383  150.6994 H   0  0  0  0  0  0  0  0  0  0  0  0  # atno 10718 bound_to 10713
  152.9799  135.5764  154.4810 H   0  0  0  0  0  0  0  0  0  0  0  0  # atno 10763 bound_to 10752
  154.4359  135.2774  155.1883 H   0  0  0  0  0  0  0  0  0  0  0  0  # atno 10764 bound_to 10752
  154.3572  135.6196  153.5726 H   0  0  0  0  0  0  0  0  0  0  0  0  # atno 10765 bound_to 10752
  140.0939  134.5172  155.8825 H   0  0  0  0  0  0  0  0  0  0  0  0  # atno 11005 bound_to 11000
  145.9072  140.9204  143.0472 LP  0  0  0  0  0  0  0  0  0  0  0  0  # atno 17320 bound_to 7965
  144.6726  140.1112  143.7455 LP  0  0  0  0  0  0  0  0  0  0  0  0  # atno 17321 bound_to 7965
  140.7213  143.2592  151.4267 LP  0  0  0  0  0  0  0  0  0  0  0  0  # atno 17342 bound_to 10162
  139.5949  144.1419  152.2132 LP  0  0  0  0  0  0  0  0  0  0  0  0  # atno 17343 bound_to 10162
  157.4657  131.0888  151.0697 LP  0  0  0  0  0  0  0  0  0  0  0  0  # atno 17370 bound_to 10713
  157.1172  130.6046  149.5496 LP  0  0  0  0  0  0  0  0  0  0  0  0  # atno 17371 bound_to 10713
  141.2086  133.6675  156.6383 LP  0  0  0  0  0  0  0  0  0  0  0  0  # atno 17394 bound_to 11000
  140.3313  134.7926  157.4328 LP  0  0  0  0  0  0  0  0  0  0  0  0  # atno 17395 bound_to 11000

$$$$
