AV-unprocessed.smi:3162|AV-procd|sdf|12068|dock8
  -GOLD-   2272017493D 1   1.00000     0.00000
 Structure written by MMmdl.
 36 36  0  0  0  0  0  0  0  0  1 V2000
  148.5757  141.5430  154.0480 C   0  0  0  0  0  0  0  0  0  0  0  0
  148.7394  140.0784  154.4837 C   0  0  0  0  0  0  0  0  0  0  0  0
  150.0974  139.7596  155.1464 C   0  0  1  0  0  0  0  0  0  0  0  0
  149.9209  139.7131  156.6128 N   0  0  0  0  0  0  0  0  0  0  0  0
  149.8742  140.9906  157.3298 C   0  0  2  0  0  0  0  0  0  0  0  0
  148.4980  141.6162  157.0491 C   0  0  0  0  0  0  0  0  0  0  0  0
  151.0472  141.9310  156.9521 C   0  0  0  0  0  0  0  0  0  0  0  0
  151.5088  142.7665  158.0500 N   0  0  0  0  0  0  0  0  0  0  0  0
  151.2613  144.1049  158.2731 C   0  0  0  0  0  0  0  0  0  0  0  0
  151.8980  144.4551  159.4300 C   0  0  0  0  0  0  0  0  0  0  0  0
  151.9368  145.7900  160.1159 C   0  0  0  0  0  0  0  0  0  0  0  0
  152.5242  143.2446  159.8418 C   0  0  0  0  0  0  0  0  0  0  0  0
  152.2942  142.2389  159.0138 N   0  0  0  0  0  0  0  0  0  0  0  0
  150.7203  138.4735  154.5742 C   0  0  0  0  0  0  0  0  0  0  0  0
  150.7608  138.3549  153.2446 N   0  0  0  0  0  0  0  0  0  0  0  0
  151.1765  137.6111  155.3225 O   0  0  0  0  0  0  0  0  0  0  0  0
  147.5764  141.7164  153.6483 H   0  0  0  0  0  0  0  0  0  0  0  0
  149.2900  141.8162  153.2712 H   0  0  0  0  0  0  0  0  0  0  0  0
  148.7173  142.2212  154.8896 H   0  0  0  0  0  0  0  0  0  0  0  0
  147.9393  139.8466  155.1883 H   0  0  0  0  0  0  0  0  0  0  0  0
  148.5765  139.4249  153.6254 H   0  0  0  0  0  0  0  0  0  0  0  0
  150.7618  140.5916  154.9131 H   0  0  0  0  0  0  0  0  0  0  0  0
  150.6223  139.1246  157.0396 H   0  0  0  0  0  0  0  0  0  0  0  0
  149.9165  140.8064  158.4031 H   0  0  0  0  0  0  0  0  0  0  0  0
  148.4003  142.5814  157.5468 H   0  0  0  0  0  0  0  0  0  0  0  0
  147.6938  140.9770  157.4151 H   0  0  0  0  0  0  0  0  0  0  0  0
  148.3326  141.7746  155.9827 H   0  0  0  0  0  0  0  0  0  0  0  0
  151.8881  141.3281  156.6056 H   0  0  0  0  0  0  0  0  0  0  0  0
  150.7906  142.5741  156.1108 H   0  0  0  0  0  0  0  0  0  0  0  0
  150.6534  144.6908  157.5995 H   0  0  0  0  0  0  0  0  0  0  0  0
  151.6828  145.7062  161.1726 H   0  0  0  0  0  0  0  0  0  0  0  0
  151.2342  146.4959  159.6722 H   0  0  0  0  0  0  0  0  0  0  0  0
  152.9270  146.2422  160.0577 H   0  0  0  0  0  0  0  0  0  0  0  0
  153.1362  143.0685  160.7142 H   0  0  0  0  0  0  0  0  0  0  0  0
  151.1616  137.5294  152.8242 H   0  0  0  0  0  0  0  0  0  0  0  0
  150.3908  139.0939  152.6645 H   0  0  0  0  0  0  0  0  0  0  0  0
  1  2  1  0  0  0  0
  1 17  1  0  0  0  0
  1 18  1  0  0  0  0
  1 19  1  0  0  0  0
  2  3  1  0  0  0  0
  2 20  1  0  0  0  0
  2 21  1  0  0  0  0
  3  4  1  0  0  0  0
  3 14  1  0  0  0  0
  3 22  1  0  0  0  0
  4  5  1  0  0  0  0
  4 23  1  0  0  0  0
  5  6  1  0  0  0  0
  5  7  1  0  0  0  0
  5 24  1  0  0  0  0
  6 25  1  0  0  0  0
  6 26  1  0  0  0  0
  6 27  1  0  0  0  0
  7  8  1  0  0  0  0
  7 28  1  0  0  0  0
  7 29  1  0  0  0  0
  8 13  1  0  0  0  0
  8  9  1  0  0  0  0
  9 10  2  0  0  0  0
  9 30  1  0  0  0  0
 10 11  1  0  0  0  0
 10 12  1  0  0  0  0
 11 31  1  0  0  0  0
 11 32  1  0  0  0  0
 11 33  1  0  0  0  0
 12 13  2  0  0  0  0
 12 34  1  0  0  0  0
 14 15  1  0  0  0  0
 14 16  2  0  0  0  0
 15 35  1  0  0  0  0
 15 36  1  0  0  0  0
M  END
> <s_m_source_file>
AV-unprocessed.smi

> <i_m_source_file_index>
3162

> <i_lp_mmshare_version>
43012

> <i_f3d_flags>
0

> <s_epik_input>
W0NIM11bQ0gyXVtDQEBIXShDKD1PKVtOSDJdKVtOSF1bQ0BIXShbQ0gzXSlbQ0gyXW4xW2NIXWMoW0NIM10pW2NIXW4x

> <s_epik_cmdline>
J2VwaWtfcHl0aG9uJywgJy1waCcsICc3LjAnLCAnLXRuJywgJzgnLCAnLW1hJywgJzIwMCcsICctbWV0YWxfYmluZGluZycsICctaW1hZScsICc8aW5maWxlLm1hZT4nLCAnLW9tYWUnLCAnPG91dGZpbGUubWFlPic=

> <r_lp_tautomer_probability>
1

> <r_epik_Ionization_Penalty>
1.04167

> <r_epik_Ionization_Penalty_Charging>
0

> <r_epik_Ionization_Penalty_Neutral>
1.04167

> <r_epik_State_Penalty>
1.09367

> <r_epik_Charging_Adjusted_Penalty>
1.09367

> <i_epik_Tot_Q>
0

> <i_epik_Tot_abs_Q>
0

> <r_epik_Metal_State_Penalty>
1.09362

> <b_epik_Metal_Only>
0

> <s_lp_Force_Field>
OPLS_2005

> <r_lp_Energy>
2.92083

> <b_lp_Chiralities_Consistent>
1

> <s_lp_Variant>
AV-unprocessed.smi:3162-6

> <Gold.Version>
5.8.1

> <Gold.Id.Protein>
6NUR|6NUR_protein|mol2

> <Gold.PLP.Fitness>
39.7966

> <Gold.PLP.PLP>
-34.1749

> <Gold.PLP.part.hbond>
-3.0000

> <Gold.PLP.part.metal>
0.0000

> <Gold.PLP.part.buried>
0.1522

> <Gold.PLP.part.nonpolar>
-30.1783

> <Gold.PLP.part.repulsive>
0.2059

> <Gold.PLP.ligand.clash>
0.0000

> <Gold.PLP.ligand.torsion>
1.7984

> <Gold.PLP.Chemscore.Hbond>
2.0000

> <Gold.PLP.Chemscore.CHOScore>
1.0035

> <Gold.PLP.Chemscore.Metal>
0.0000

> <Gold.Chemscore.Hbonds>
donor molecule, donor type, donor heavy atom, donor atom, acceptor molecule, acceptor atom, score
      L1  H    15    35       P1  7949  0.99
      L1  H    15    36       P1  7957  1.00
      L1  C     9    30       P1  8028  0.87

> <Gold.PLP.Chemscore.Internal.Correction>
0.2079

> <Gold.Rescore>
     Score         DG    S(hbond)    S(metal)    S(lipo)     H(rot)  DE(clash)    DE(int)     intcor
      9.00     -12.29       0.95        0.00      84.25       2.43       1.46       1.83       ----

> <Gold.Chemscore.Fitness>
9.0044

> <Gold.Chemscore.DG>
-12.2920

> <Gold.Chemscore.ZeroCoef>
-5.4800

> <Gold.Chemscore.Hbond>
0.9530

> <Gold.Chemscore.Metal>
0.0000

> <Gold.Chemscore.Lipo>
84.2476

> <Gold.Chemscore.Internal_Hbond>
0.0000

> <Gold.Chemscore.DEClash>
1.4610

> <Gold.Chemscore.DEInternal>
1.8266

> <Gold.Chemscore.Rot>
2.4328

> <Gold.Chemscore.Internal.Correction>
   9.000000E+99

> <Gold.Chemscore.Hbonds>
donor molecule, donor type, donor heavy atom, donor atom, acceptor molecule, acceptor atom, score
      L1  H    15    35       P1  7949  0.45
      L1  H    15    36       P1  7957  0.44

> <Gold.Chemscore.Hbond.Weighted>
-3.1830

> <Gold.Chemscore.Metal.Weighted>
-0.0000

> <Gold.Chemscore.Lipo.Weighted>
-9.8570

> <Gold.Chemscore.Internal_Hbond.Weighted>
0.0000

> <Gold.Chemscore.DEClash.Weighted>
1.4610

> <Gold.Chemscore.DEInternal.Weighted>
1.8266

> <Gold.Chemscore.Rot.Weighted>
6.2279

> <Gold.Chemscore.Internal.Correction.Weighted>
   9.000000E+99

> <Gold.Protein.RotatedTorsions>
[ 6907 6896 6895 6894 ] final  -40.23 input  -60.11 | X-H torsion
[ 7974 7965 7964 7962 ] final  123.07 input  175.53 | X-H torsion
[ 8008 7997 7996 7995 ] final  -37.44 input   59.86 | X-H torsion
[ 10167 10162 10161 10158 ] final -167.91 input  -65.29 | X-H torsion
[ 10718 10713 10712 10709 ] final   76.31 input   66.30 | X-H torsion
[ 10763 10752 10751 10750 ] final   60.03 input  -60.55 | X-H torsion
[ 11005 11000 10999 10996 ] final   42.27 input  -57.11 | X-H torsion

> <Gold.Protein.ActiveResidues>
 VAL166  LYS551  ARG553  GLY616  TRP617  ASP618  TYR619  PRO620  LYS621  CYS622 
 ASP623  PHE694  ASN695  SER759  ASP760  ASP761  ALA762  ILE779  LEU786  VAL792 
 PHE793  MET794  SER795  GLU796  ALA797  LYS798  CYS799  TRP800  GLU811  SER814 

> <Gold.Protein.RotatedAtoms>
  150.9809  134.9164  159.7843 H   0  0  0  0  0  0  0  0  0  0  0  0  # atno 6907 bound_to 6896
  152.5221  134.3412  159.9228 H   0  0  0  0  0  0  0  0  0  0  0  0  # atno 6908 bound_to 6896
  151.3419  133.3918  159.2706 H   0  0  0  0  0  0  0  0  0  0  0  0  # atno 6909 bound_to 6896
  145.1002  139.3524  143.4816 H   0  0  0  0  0  0  0  0  0  0  0  0  # atno 7974 bound_to 7965
  154.4053  140.1604  156.2537 H   0  0  0  0  0  0  0  0  0  0  0  0  # atno 8008 bound_to 7997
  155.9096  140.3428  155.6066 H   0  0  0  0  0  0  0  0  0  0  0  0  # atno 8009 bound_to 7997
  155.7351  140.0785  157.2262 H   0  0  0  0  0  0  0  0  0  0  0  0  # atno 8010 bound_to 7997
  139.6019  144.0994  152.1751 H   0  0  0  0  0  0  0  0  0  0  0  0  # atno 10167 bound_to 10162
  157.6668  130.9768  150.1479 H   0  0  0  0  0  0  0  0  0  0  0  0  # atno 10718 bound_to 10713
  152.9910  135.5551  154.5808 H   0  0  0  0  0  0  0  0  0  0  0  0  # atno 10763 bound_to 10752
  154.5190  135.2806  155.1281 H   0  0  0  0  0  0  0  0  0  0  0  0  # atno 10764 bound_to 10752
  154.2642  135.6375  153.5339 H   0  0  0  0  0  0  0  0  0  0  0  0  # atno 10765 bound_to 10752
  140.1755  134.4169  155.8231 H   0  0  0  0  0  0  0  0  0  0  0  0  # atno 11005 bound_to 11000
  146.3530  140.0875  142.8614 LP  0  0  0  0  0  0  0  0  0  0  0  0  # atno 17320 bound_to 7965
  145.0965  140.9318  143.4738 LP  0  0  0  0  0  0  0  0  0  0  0  0  # atno 17321 bound_to 7965
  140.0592  144.5870  150.7276 LP  0  0  0  0  0  0  0  0  0  0  0  0  # atno 17342 bound_to 10162
  140.7256  143.2632  151.4132 LP  0  0  0  0  0  0  0  0  0  0  0  0  # atno 17343 bound_to 10162
  156.2285  130.3680  149.8472 LP  0  0  0  0  0  0  0  0  0  0  0  0  # atno 17370 bound_to 10713
  156.6305  130.8664  151.3494 LP  0  0  0  0  0  0  0  0  0  0  0  0  # atno 17371 bound_to 10713
  141.2220  133.6976  156.7839 LP  0  0  0  0  0  0  0  0  0  0  0  0  # atno 17394 bound_to 11000
  140.2327  134.8673  157.3493 LP  0  0  0  0  0  0  0  0  0  0  0  0  # atno 17395 bound_to 11000

$$$$
