AV-unprocessed.smi:2369|AV-procd|sdf|9434|dock4
  -GOLD-   2272013 63D 1   1.00000     0.00000
 Structure written by MMmdl.
 40 41  0  0  0  0  0  0  0  0  1 V2000
  152.0782  145.9005  160.3397 C   0  0  0  0  0  0  0  0  0  0  0  0
  152.0444  144.5216  159.7146 C   0  0  0  0  0  0  0  0  0  0  0  0
  152.8277  143.4732  160.2342 C   0  0  0  0  0  0  0  0  0  0  0  0
  152.7538  142.2143  159.6062 C   0  0  0  0  0  0  0  0  0  0  0  0
  153.5673  141.0421  160.1130 C   0  0  0  0  0  0  0  0  0  0  0  0
  151.9730  141.9714  158.5318 N   0  0  0  0  0  0  0  0  0  0  0  0
  151.2155  142.9742  158.0219 C   0  0  0  0  0  0  0  0  0  0  0  0
  150.3591  142.8219  156.8993 N   0  0  0  0  0  0  0  0  0  0  0  0
  150.1466  141.7190  156.1597 C   0  0  0  0  0  0  0  0  0  0  0  0
  150.6977  140.6308  156.3289 O   0  0  0  0  0  0  0  0  0  0  0  0
  149.2532  141.9531  155.1873 N   0  0  0  0  0  0  0  0  0  0  0  0
  148.8205  140.9823  154.1861 C   0  0  2  0  0  0  0  0  0  0  0  0
  147.5528  141.4851  153.4677 C   0  0  0  0  0  0  0  0  0  0  0  0
  147.0287  140.4525  152.4545 C   0  0  0  0  0  0  0  0  0  0  0  0
  146.7979  139.0703  153.0941 C   0  0  2  0  0  0  0  0  0  0  0  0
  145.6900  139.1205  153.9713 O   0  0  0  0  0  0  0  0  0  0  0  0
  148.0479  138.5807  153.8493 C   0  0  0  0  0  0  0  0  0  0  0  0
  148.5627  139.6216  154.8592 C   0  0  0  0  0  0  0  0  0  0  0  0
  151.2270  144.2657  158.5951 C   0  0  0  0  0  0  0  0  0  0  0  0
  152.6562  145.9018  161.2644 H   0  0  0  0  0  0  0  0  0  0  0  0
  151.0675  146.2381  160.5697 H   0  0  0  0  0  0  0  0  0  0  0  0
  152.5320  146.6147  159.6522 H   0  0  0  0  0  0  0  0  0  0  0  0
  153.4676  143.6290  161.0904 H   0  0  0  0  0  0  0  0  0  0  0  0
  154.0394  141.2719  161.0686 H   0  0  0  0  0  0  0  0  0  0  0  0
  154.3493  140.7882  159.3971 H   0  0  0  0  0  0  0  0  0  0  0  0
  152.9306  140.1676  160.2519 H   0  0  0  0  0  0  0  0  0  0  0  0
  149.8543  143.6510  156.6238 H   0  0  0  0  0  0  0  0  0  0  0  0
  148.8537  142.8778  155.1220 H   0  0  0  0  0  0  0  0  0  0  0  0
  149.6132  140.8470  153.4476 H   0  0  0  0  0  0  0  0  0  0  0  0
  146.7744  141.7020  154.2008 H   0  0  0  0  0  0  0  0  0  0  0  0
  147.7598  142.4248  152.9543 H   0  0  0  0  0  0  0  0  0  0  0  0
  146.1094  140.8142  151.9926 H   0  0  0  0  0  0  0  0  0  0  0  0
  147.7551  140.3531  151.6469 H   0  0  0  0  0  0  0  0  0  0  0  0
  146.5496  138.3531  152.3112 H   0  0  0  0  0  0  0  0  0  0  0  0
  144.9275  139.3808  153.4773 H   0  0  0  0  0  0  0  0  0  0  0  0
  147.8400  137.6371  154.3553 H   0  0  0  0  0  0  0  0  0  0  0  0
  148.8380  138.3695  153.1272 H   0  0  0  0  0  0  0  0  0  0  0  0
  149.4792  139.2560  155.3242 H   0  0  0  0  0  0  0  0  0  0  0  0
  147.8354  139.7380  155.6642 H   0  0  0  0  0  0  0  0  0  0  0  0
  150.6181  145.0558  158.1797 H   0  0  0  0  0  0  0  0  0  0  0  0
  1  2  1  0  0  0  0
  1 20  1  0  0  0  0
  1 21  1  0  0  0  0
  1 22  1  0  0  0  0
  2 19  1  0  0  0  0
  2  3  2  0  0  0  0
  3  4  1  0  0  0  0
  3 23  1  0  0  0  0
  4  5  1  0  0  0  0
  4  6  2  0  0  0  0
  5 24  1  0  0  0  0
  5 25  1  0  0  0  0
  5 26  1  0  0  0  0
  6  7  1  0  0  0  0
  7  8  1  0  0  0  0
  7 19  2  0  0  0  0
  8  9  1  0  0  0  0
  8 27  1  0  0  0  0
  9 10  2  0  0  0  0
  9 11  1  0  0  0  0
 11 12  1  0  0  0  0
 11 28  1  0  0  0  0
 12 18  1  0  0  0  0
 12 13  1  0  0  0  0
 12 29  1  0  0  0  0
 13 14  1  0  0  0  0
 13 30  1  0  0  0  0
 13 31  1  0  0  0  0
 14 15  1  0  0  0  0
 14 32  1  0  0  0  0
 14 33  1  0  0  0  0
 15 16  1  0  0  0  0
 15 17  1  0  0  0  0
 15 34  1  0  0  0  0
 16 35  1  0  0  0  0
 17 18  1  0  0  0  0
 17 36  1  0  0  0  0
 17 37  1  0  0  0  0
 18 38  1  0  0  0  0
 18 39  1  0  0  0  0
 19 40  1  0  0  0  0
M  END
> <s_m_source_file>
AV-unprocessed.smi

> <i_m_source_file_index>
2369

> <i_lp_mmshare_version>
43012

> <i_f3d_flags>
0

> <s_epik_input>
W0NIM11jMVtjSF1jKFtDSDNdKW5jKFtjSF0xKVtOSF1DKD1PKVtOSF1bQ0BASF0yW0NIMl1bQ0gyXVtDQEBIXShbT0hdKVtDSDJdW0NIMl0y

> <s_epik_cmdline>
J2VwaWtfcHl0aG9uJywgJy1waCcsICc3LjAnLCAnLXRuJywgJzgnLCAnLW1hJywgJzIwMCcsICctbWV0YWxfYmluZGluZycsICctaW1hZScsICc8aW5maWxlLm1hZT4nLCAnLW9tYWUnLCAnPG91dGZpbGUubWFlPic=

> <r_lp_tautomer_probability>
1

> <r_epik_Ionization_Penalty>
0.000274852

> <r_epik_Ionization_Penalty_Charging>
0

> <r_epik_Ionization_Penalty_Neutral>
0.000274852

> <r_epik_State_Penalty>
-0

> <r_epik_Charging_Adjusted_Penalty>
0

> <i_epik_Tot_Q>
0

> <i_epik_Tot_abs_Q>
0

> <r_epik_Metal_State_Penalty>
-0

> <b_epik_Metal_Only>
0

> <s_lp_Force_Field>
OPLS_2005

> <r_lp_Energy>
12.6332

> <b_lp_Chiralities_Consistent>
1

> <s_lp_Variant>
AV-unprocessed.smi:2369-2

> <Gold.Version>
5.8.1

> <Gold.Id.Protein>
6NUR|6NUR_protein|mol2

> <Gold.PLP.Fitness>
49.3387

> <Gold.PLP.PLP>
-40.7185

> <Gold.PLP.part.hbond>
-3.0000

> <Gold.PLP.part.metal>
0.0000

> <Gold.PLP.part.buried>
-3.9734

> <Gold.PLP.part.nonpolar>
-34.6807

> <Gold.PLP.part.repulsive>
0.2383

> <Gold.PLP.ligand.clash>
0.0000

> <Gold.PLP.ligand.torsion>
0.1912

> <Gold.PLP.Chemscore.Hbond>
3.0000

> <Gold.PLP.Chemscore.CHOScore>
0.0000

> <Gold.PLP.Chemscore.Metal>
0.0000

> <Gold.Chemscore.Hbonds>
donor molecule, donor type, donor heavy atom, donor atom, acceptor molecule, acceptor atom, score
      L1  H     8    27       P1  8028  1.00
      L1  H    11    28       P1  8028  0.99
      L1  H    16    35       P1 10175  1.00

> <Gold.PLP.Chemscore.Internal.Correction>
0.0027

> <Gold.Rescore>
     Score         DG    S(hbond)    S(metal)    S(lipo)     H(rot)  DE(clash)    DE(int)     intcor
     20.46     -24.09       2.93        0.00     106.43       1.42       0.89       2.75       ----

> <Gold.Chemscore.Fitness>
20.4559

> <Gold.Chemscore.DG>
-24.0887

> <Gold.Chemscore.ZeroCoef>
-5.4800

> <Gold.Chemscore.Hbond>
2.9325

> <Gold.Chemscore.Metal>
0.0000

> <Gold.Chemscore.Lipo>
106.4343

> <Gold.Chemscore.Internal_Hbond>
0.0000

> <Gold.Chemscore.DEClash>
0.8850

> <Gold.Chemscore.DEInternal>
2.7477

> <Gold.Chemscore.Rot>
1.4213

> <Gold.Chemscore.Internal.Correction>
   9.000000E+99

> <Gold.Chemscore.Hbonds>
donor molecule, donor type, donor heavy atom, donor atom, acceptor molecule, acceptor atom, score
      L1  H     8    27       P1  8028  1.00
      L1  H    11    28       P1  8028  0.94
      L1  H    16    35       P1 10175  0.99

> <Gold.Chemscore.Hbond.Weighted>
-9.7944

> <Gold.Chemscore.Metal.Weighted>
-0.0000

> <Gold.Chemscore.Lipo.Weighted>
-12.4528

> <Gold.Chemscore.Internal_Hbond.Weighted>
0.0000

> <Gold.Chemscore.DEClash.Weighted>
0.8850

> <Gold.Chemscore.DEInternal.Weighted>
2.7477

> <Gold.Chemscore.Rot.Weighted>
3.6386

> <Gold.Chemscore.Internal.Correction.Weighted>
   9.000000E+99

> <Gold.Protein.RotatedTorsions>
[ 6907 6896 6895 6894 ] final   20.16 input  -60.11 | X-H torsion
[ 7974 7965 7964 7962 ] final  132.46 input  175.53 | X-H torsion
[ 8008 7997 7996 7995 ] final   49.26 input   59.86 | X-H torsion
[ 10167 10162 10161 10158 ] final   64.33 input  -65.29 | X-H torsion
[ 10718 10713 10712 10709 ] final -119.55 input   66.30 | X-H torsion
[ 10763 10752 10751 10750 ] final  163.43 input  -60.55 | X-H torsion
[ 11005 11000 10999 10996 ] final  -20.28 input  -57.11 | X-H torsion

> <Gold.Protein.ActiveResidues>
 VAL166  LYS551  ARG553  GLY616  TRP617  ASP618  TYR619  PRO620  LYS621  CYS622 
 ASP623  PHE694  ASN695  SER759  ASP760  ASP761  ALA762  ILE779  LEU786  VAL792 
 PHE793  MET794  SER795  GLU796  ALA797  LYS798  CYS799  TRP800  GLU811  SER814 

> <Gold.Protein.RotatedAtoms>
  151.8920  135.0412  160.0498 H   0  0  0  0  0  0  0  0  0  0  0  0  # atno 6907 bound_to 6896
  152.2428  133.5145  159.5288 H   0  0  0  0  0  0  0  0  0  0  0  0  # atno 6908 bound_to 6896
  150.7059  134.0982  159.3999 H   0  0  0  0  0  0  0  0  0  0  0  0  # atno 6909 bound_to 6896
  144.9966  139.4353  143.5313 H   0  0  0  0  0  0  0  0  0  0  0  0  # atno 7974 bound_to 7965
  155.3992  140.3437  155.4256 H   0  0  0  0  0  0  0  0  0  0  0  0  # atno 8008 bound_to 7997
  156.1513  140.1572  156.8797 H   0  0  0  0  0  0  0  0  0  0  0  0  # atno 8009 bound_to 7997
  154.5055  140.0803  156.7866 H   0  0  0  0  0  0  0  0  0  0  0  0  # atno 8010 bound_to 7997
  140.1234  144.4710  150.6907 H   0  0  0  0  0  0  0  0  0  0  0  0  # atno 10167 bound_to 10162
  156.1190  130.6308  150.9431 H   0  0  0  0  0  0  0  0  0  0  0  0  # atno 10718 bound_to 10713
  154.2936  135.2760  155.2643 H   0  0  0  0  0  0  0  0  0  0  0  0  # atno 10763 bound_to 10752
  154.5111  135.5782  153.6609 H   0  0  0  0  0  0  0  0  0  0  0  0  # atno 10764 bound_to 10752
  152.9910  135.6181  154.3102 H   0  0  0  0  0  0  0  0  0  0  0  0  # atno 10765 bound_to 10752
  140.8449  133.7899  155.9902 H   0  0  0  0  0  0  0  0  0  0  0  0  # atno 11005 bound_to 11000
  146.3443  139.9329  142.8751 LP  0  0  0  0  0  0  0  0  0  0  0  0  # atno 17320 bound_to 7965
  145.2211  140.9935  143.4045 LP  0  0  0  0  0  0  0  0  0  0  0  0  # atno 17321 bound_to 7965
  140.6859  143.2350  151.5261 LP  0  0  0  0  0  0  0  0  0  0  0  0  # atno 17342 bound_to 10162
  139.5557  144.2282  152.1608 LP  0  0  0  0  0  0  0  0  0  0  0  0  # atno 17343 bound_to 10162
  157.6373  131.0914  150.8322 LP  0  0  0  0  0  0  0  0  0  0  0  0  # atno 17370 bound_to 10713
  156.8421  130.5051  149.5320 LP  0  0  0  0  0  0  0  0  0  0  0  0  # atno 17371 bound_to 10713
  140.8854  134.2560  157.5122 LP  0  0  0  0  0  0  0  0  0  0  0  0  # atno 17394 bound_to 11000
  139.8703  134.9635  156.4465 LP  0  0  0  0  0  0  0  0  0  0  0  0  # atno 17395 bound_to 11000

$$$$
