AV-unprocessed.smi:221|AV-procd|sdf|1689|dock8
  -GOLD-   2262020133D 1   1.00000     0.00000
 Structure written by MMmdl.
 50 53  0  0  0  0  0  0  0  0  1 V2000
  148.9870  142.6864  156.2293 N   0  0  0  0  0  0  0  0  0  0  0  0
  149.7007  142.0228  157.1452 C   0  0  0  0  0  0  0  0  0  0  0  0
  149.3673  140.9051  157.5324 O   0  0  0  0  0  0  0  0  0  0  0  0
  150.9661  142.6846  157.7263 C   0  0  1  0  0  0  0  0  0  0  0  0
  150.6469  144.0782  158.2924 C   0  0  0  0  0  0  0  0  0  0  0  0
  151.7322  144.3058  159.3387 C   0  0  2  0  0  0  0  0  0  0  0  0
  152.8473  144.7266  158.7394 F   0  0  0  0  0  0  0  0  0  0  0  0
  151.9616  142.9092  159.9152 C   0  0  0  0  0  0  0  0  0  0  0  0
  151.5720  141.9763  158.8629 N   0  0  0  0  0  0  0  0  0  0  0  0
  152.2918  140.8316  158.7078 C   0  0  0  0  0  0  0  0  0  0  0  0
  152.0425  140.0219  157.6445 N   0  0  0  0  0  0  0  0  0  0  0  0
  152.7360  138.8933  157.4725 C   0  0  0  0  0  0  0  0  0  0  0  0
  153.7055  138.3869  158.2351 N   0  0  0  0  0  0  0  0  0  0  0  0
  153.9541  139.1840  159.3128 C   0  0  0  0  0  0  0  0  0  0  0  0
  153.3019  140.4119  159.6221 C   0  0  0  0  0  0  0  0  0  0  0  0
  153.8181  140.9315  160.8045 N   0  0  0  0  0  0  0  0  0  0  0  0
  154.7281  140.0688  161.1653 C   0  0  0  0  0  0  0  0  0  0  0  0
  154.8696  138.9840  160.3313 N   0  0  0  0  0  0  0  0  0  0  0  0
  155.8016  137.8824  160.4946 C   0  0  0  0  0  0  0  0  0  0  0  0
  157.2771  138.3590  160.5956 C   0  0  2  0  0  0  0  0  0  0  0  0
  157.5438  139.5285  159.6235 C   0  0  0  0  0  0  0  0  0  0  0  0
  157.2693  139.1559  158.2889 O   0  0  0  0  0  0  0  0  0  0  0  0
  158.3104  137.2110  160.4296 C   0  0  2  0  0  0  0  0  0  0  0  0
  158.1747  136.3919  159.1430 C   0  0  0  0  0  0  0  0  0  0  0  0
  158.3169  134.9482  159.6152 C   0  0  0  0  0  0  0  0  0  0  0  0
  157.7657  134.9811  160.9203 O   0  0  0  0  0  0  0  0  0  0  0  0
  158.2617  136.1550  161.5453 C   0  0  0  0  0  0  0  0  0  0  0  0
  151.7065  142.7935  156.9319 H   0  0  0  0  0  0  0  0  0  0  0  0
  151.4630  145.0463  160.0925 H   0  0  0  0  0  0  0  0  0  0  0  0
  148.1518  142.2688  155.8452 H   0  0  0  0  0  0  0  0  0  0  0  0
  149.2818  143.6049  155.9312 H   0  0  0  0  0  0  0  0  0  0  0  0
  150.6360  144.8524  157.5243 H   0  0  0  0  0  0  0  0  0  0  0  0
  149.6712  144.0843  158.7821 H   0  0  0  0  0  0  0  0  0  0  0  0
  152.9959  142.7844  160.2404 H   0  0  0  0  0  0  0  0  0  0  0  0
  151.3147  142.7428  160.7772 H   0  0  0  0  0  0  0  0  0  0  0  0
  152.4766  138.3130  156.5995 H   0  0  0  0  0  0  0  0  0  0  0  0
  155.3203  140.1956  162.0600 H   0  0  0  0  0  0  0  0  0  0  0  0
  155.5010  137.3088  161.3708 H   0  0  0  0  0  0  0  0  0  0  0  0
  155.6652  137.2084  159.6481 H   0  0  0  0  0  0  0  0  0  0  0  0
  157.4300  138.7618  161.5986 H   0  0  0  0  0  0  0  0  0  0  0  0
  156.9486  140.4037  159.8853 H   0  0  0  0  0  0  0  0  0  0  0  0
  158.5912  139.8286  159.6728 H   0  0  0  0  0  0  0  0  0  0  0  0
  156.9600  138.2628  158.2829 H   0  0  0  0  0  0  0  0  0  0  0  0
  159.3104  137.6464  160.4542 H   0  0  0  0  0  0  0  0  0  0  0  0
  157.1973  136.5288  158.6810 H   0  0  0  0  0  0  0  0  0  0  0  0
  158.9251  136.6565  158.3975 H   0  0  0  0  0  0  0  0  0  0  0  0
  157.7915  134.2409  158.9731 H   0  0  0  0  0  0  0  0  0  0  0  0
  159.3666  134.6546  159.6673 H   0  0  0  0  0  0  0  0  0  0  0  0
  159.2654  135.9547  161.9231 H   0  0  0  0  0  0  0  0  0  0  0  0
  157.6452  136.4463  162.3953 H   0  0  0  0  0  0  0  0  0  0  0  0
  1  2  1  0  0  0  0
  1 30  1  0  0  0  0
  1 31  1  0  0  0  0
  2  3  2  0  0  0  0
  2  4  1  0  0  0  0
  4 28  1  0  0  0  0
  4  9  1  0  0  0  0
  4  5  1  0  0  0  0
  5  6  1  0  0  0  0
  5 32  1  0  0  0  0
  5 33  1  0  0  0  0
  6 29  1  0  0  0  0
  6  7  1  0  0  0  0
  6  8  1  0  0  0  0
  8  9  1  0  0  0  0
  8 34  1  0  0  0  0
  8 35  1  0  0  0  0
  9 10  1  0  0  0  0
 10 15  1  0  0  0  0
 10 11  2  0  0  0  0
 11 12  1  0  0  0  0
 12 13  2  0  0  0  0
 12 36  1  0  0  0  0
 13 14  1  0  0  0  0
 14 18  1  0  0  0  0
 14 15  2  0  0  0  0
 15 16  1  0  0  0  0
 16 17  2  0  0  0  0
 17 18  1  0  0  0  0
 17 37  1  0  0  0  0
 18 19  1  0  0  0  0
 19 20  1  0  0  0  0
 19 38  1  0  0  0  0
 19 39  1  0  0  0  0
 20 21  1  0  0  0  0
 20 23  1  0  0  0  0
 20 40  1  0  0  0  0
 21 22  1  0  0  0  0
 21 41  1  0  0  0  0
 21 42  1  0  0  0  0
 22 43  1  0  0  0  0
 23 27  1  0  0  0  0
 23 24  1  0  0  0  0
 23 44  1  0  0  0  0
 24 25  1  0  0  0  0
 24 45  1  0  0  0  0
 24 46  1  0  0  0  0
 25 26  1  0  0  0  0
 25 47  1  0  0  0  0
 25 48  1  0  0  0  0
 26 27  1  0  0  0  0
 27 49  1  0  0  0  0
 27 50  1  0  0  0  0
M  END
> <s_m_source_file>
AV-unprocessed.smi

> <i_m_source_file_index>
221

> <i_lp_mmshare_version>
43012

> <i_f3d_flags>
0

> <s_epik_input>
W05IMl1DKD1PKVtDQEBIXTFbQ0gyXVtDQEBIXShGKVtDSDJdTjFjKG5bY0hdbjIpYyhjMjMpbltjSF1uM1tDSDJdW0NASF0oW0NIMl1bT0hdKVtDQEBIXTRbQ0gyXVtDSDJdT1tDSDJdNA==

> <s_epik_cmdline>
J2VwaWtfcHl0aG9uJywgJy1waCcsICc3LjAnLCAnLXRuJywgJzgnLCAnLW1hJywgJzIwMCcsICctbWV0YWxfYmluZGluZycsICctaW1hZScsICc8aW5maWxlLm1hZT4nLCAnLW9tYWUnLCAnPG91dGZpbGUubWFlPic=

> <r_lp_tautomer_probability>
1

> <r_epik_Ionization_Penalty>
0.000818822

> <r_epik_Ionization_Penalty_Charging>
0

> <r_epik_Ionization_Penalty_Neutral>
0.000818822

> <r_epik_State_Penalty>
0.000440551

> <r_epik_Charging_Adjusted_Penalty>
0.000440551

> <i_epik_Tot_Q>
0

> <i_epik_Tot_abs_Q>
0

> <r_epik_Metal_State_Penalty>
-0

> <b_epik_Metal_Only>
0

> <s_lp_Force_Field>
OPLS_2005

> <r_lp_Energy>
52.2348

> <b_lp_Chiralities_Consistent>
1

> <s_lp_Variant>
AV-unprocessed.smi:221-4

> <Gold.Version>
5.8.1

> <Gold.Id.Protein>
6NUR|6NUR_protein|mol2

> <Gold.PLP.Fitness>
42.8525

> <Gold.PLP.PLP>
-37.4598

> <Gold.PLP.part.hbond>
-3.0000

> <Gold.PLP.part.metal>
0.0000

> <Gold.PLP.part.buried>
-3.4688

> <Gold.PLP.part.nonpolar>
-30.8836

> <Gold.PLP.part.repulsive>
0.0127

> <Gold.PLP.ligand.clash>
0.0000

> <Gold.PLP.ligand.torsion>
0.5221

> <Gold.PLP.Chemscore.Hbond>
2.0000

> <Gold.PLP.Chemscore.CHOScore>
0.0000

> <Gold.PLP.Chemscore.Metal>
0.0000

> <Gold.Chemscore.Hbonds>
donor molecule, donor type, donor heavy atom, donor atom, acceptor molecule, acceptor atom, score
      L1  H     1    31       P1  8028  0.19
      P1  H  7997  8010       L1    22  1.00

> <Gold.PLP.Chemscore.Internal.Correction>
0.4370

> <Gold.Rescore>
     Score         DG    S(hbond)    S(metal)    S(lipo)     H(rot)  DE(clash)    DE(int)     intcor
      5.79     -10.43       1.94        0.00      59.18       3.31       0.04       4.60       ----

> <Gold.Chemscore.Fitness>
5.7878

> <Gold.Chemscore.DG>
-10.4285

> <Gold.Chemscore.ZeroCoef>
-5.4800

> <Gold.Chemscore.Hbond>
1.9448

> <Gold.Chemscore.Metal>
0.0000

> <Gold.Chemscore.Lipo>
59.1781

> <Gold.Chemscore.Internal_Hbond>
0.0000

> <Gold.Chemscore.DEClash>
0.0428

> <Gold.Chemscore.DEInternal>
4.5980

> <Gold.Chemscore.Rot>
3.3089

> <Gold.Chemscore.Internal.Correction>
   9.000000E+99

> <Gold.Chemscore.Hbonds>
donor molecule, donor type, donor heavy atom, donor atom, acceptor molecule, acceptor atom, score
      L1  H     1    31       P1  8028  0.18
      P1  H  7997  8010       L1    22  0.39

> <Gold.Chemscore.Hbond.Weighted>
-6.4956

> <Gold.Chemscore.Metal.Weighted>
-0.0000

> <Gold.Chemscore.Lipo.Weighted>
-6.9238

> <Gold.Chemscore.Internal_Hbond.Weighted>
0.0000

> <Gold.Chemscore.DEClash.Weighted>
0.0428

> <Gold.Chemscore.DEInternal.Weighted>
4.5980

> <Gold.Chemscore.Rot.Weighted>
8.4709

> <Gold.Chemscore.Internal.Correction.Weighted>
   9.000000E+99

> <Gold.Protein.RotatedTorsions>
[ 6907 6896 6895 6894 ] final   60.06 input  -60.11 | X-H torsion
[ 7974 7965 7964 7962 ] final   77.69 input  175.53 | X-H torsion
[ 8008 7997 7996 7995 ] final  -49.48 input   59.86 | X-H torsion
[ 10167 10162 10161 10158 ] final  174.09 input  -65.29 | X-H torsion
[ 10718 10713 10712 10709 ] final -128.32 input   66.30 | X-H torsion
[ 10763 10752 10751 10750 ] final -175.29 input  -60.55 | X-H torsion
[ 11005 11000 10999 10996 ] final  -47.25 input  -57.11 | X-H torsion

> <Gold.Protein.ActiveResidues>
 VAL166  LYS551  ARG553  GLY616  TRP617  ASP618  TYR619  PRO620  LYS621  CYS622 
 ASP623  PHE694  ASN695  SER759  ASP760  ASP761  ALA762  ILE779  LEU786  VAL792 
 PHE793  MET794  SER795  GLU796  ALA797  LYS798  CYS799  TRP800  GLU811  SER814 

> <Gold.Protein.RotatedAtoms>
  152.3970  134.6349  160.0084 H   0  0  0  0  0  0  0  0  0  0  0  0  # atno 6907 bound_to 6896
  151.6566  133.3313  159.3172 H   0  0  0  0  0  0  0  0  0  0  0  0  # atno 6908 bound_to 6896
  150.7876  134.6916  159.6545 H   0  0  0  0  0  0  0  0  0  0  0  0  # atno 6909 bound_to 6896
  145.6868  139.2540  143.1783 H   0  0  0  0  0  0  0  0  0  0  0  0  # atno 7974 bound_to 7965
  154.4045  140.1296  156.4510 H   0  0  0  0  0  0  0  0  0  0  0  0  # atno 8008 bound_to 7997
  155.7366  140.3490  155.5065 H   0  0  0  0  0  0  0  0  0  0  0  0  # atno 8009 bound_to 7997
  155.9077  140.1030  157.1293 H   0  0  0  0  0  0  0  0  0  0  0  0  # atno 8010 bound_to 7997
  139.5130  144.3186  152.0224 H   0  0  0  0  0  0  0  0  0  0  0  0  # atno 10167 bound_to 10162
  156.1940  130.6814  151.0458 H   0  0  0  0  0  0  0  0  0  0  0  0  # atno 10718 bound_to 10713
  154.5862  135.2841  155.0683 H   0  0  0  0  0  0  0  0  0  0  0  0  # atno 10763 bound_to 10752
  154.2000  135.6426  153.5088 H   0  0  0  0  0  0  0  0  0  0  0  0  # atno 10764 bound_to 10752
  153.0105  135.5467  154.6532 H   0  0  0  0  0  0  0  0  0  0  0  0  # atno 10765 bound_to 10752
  141.0629  133.6703  156.3271 H   0  0  0  0  0  0  0  0  0  0  0  0  # atno 11005 bound_to 11000
  146.0917  140.7648  142.9592 LP  0  0  0  0  0  0  0  0  0  0  0  0  # atno 17320 bound_to 7965
  144.7009  140.3647  143.7157 LP  0  0  0  0  0  0  0  0  0  0  0  0  # atno 17321 bound_to 7965
  140.2629  144.4048  150.6179 LP  0  0  0  0  0  0  0  0  0  0  0  0  # atno 17342 bound_to 10162
  140.6144  143.2171  151.6821 LP  0  0  0  0  0  0  0  0  0  0  0  0  # atno 17343 bound_to 10162
  157.6946  131.0798  150.7007 LP  0  0  0  0  0  0  0  0  0  0  0  0  # atno 17370 bound_to 10713
  156.7063  130.4638  149.5559 LP  0  0  0  0  0  0  0  0  0  0  0  0  # atno 17371 bound_to 10713
  140.5832  134.5725  157.5484 LP  0  0  0  0  0  0  0  0  0  0  0  0  # atno 17394 bound_to 11000
  139.9449  134.7719  156.0586 LP  0  0  0  0  0  0  0  0  0  0  0  0  # atno 17395 bound_to 11000

$$$$
