AV-unprocessed.smi:1131|AV-procd|sdf|4853|dock8
  -GOLD-   22720 3423D 1   1.00000     0.00000
 Structure written by MMmdl.
 32 33  0  0  0  0  0  0  0  0  2 V2000
  151.6792  141.3571  157.4046 O   0  0  0  0  0  0  0  0  0  0  0  0
  150.8241  142.0056  156.7998 C   0  0  0  0  0  0  0  0  0  0  0  0
  149.7953  141.3029  155.9037 C   0  0  0  0  0  0  0  0  0  0  0  0
  149.9863  139.8449  155.8407 N   0  0  0  0  0  0  0  0  0  0  0  0
  150.2026  139.2674  154.5771 C   0  0  0  0  0  0  0  0  0  0  0  0
  150.3837  137.9418  154.4234 C   0  0  0  0  0  0  0  0  0  0  0  0
  150.3520  137.0986  155.6119 C   0  0  0  0  0  0  0  0  0  0  0  0
  150.5219  135.8868  155.4913 O   0  0  0  0  0  0  0  0  0  0  0  0
  150.1333  137.7055  156.8150 N   0  5  0  0  0  0  0  0  0  0  0  0
  149.9480  139.0548  156.9560 C   0  0  0  0  0  0  0  0  0  0  0  0
  149.7499  139.5821  158.0513 O   0  0  0  0  0  0  0  0  0  0  0  0
  150.7043  143.3384  156.8988 N   0  0  0  0  0  0  0  0  0  0  0  0
  151.5577  144.2096  157.7005 C   0  0  0  0  0  0  0  0  0  0  0  0
  151.4429  143.8997  159.2050 C   0  0  1  0  0  0  0  0  0  0  0  0
  152.3736  142.8167  159.7170 C   0  0  0  0  0  0  0  0  0  0  0  0
  152.3813  143.0871  161.2188 C   0  0  0  0  0  0  0  0  0  0  0  0
  152.1690  144.4886  161.3658 O   0  0  0  0  0  0  0  0  0  0  0  0
  151.8399  145.0676  160.1068 C   0  0  0  0  0  0  0  0  0  0  0  0
  148.8003  141.5398  156.2821 H   0  0  0  0  0  0  0  0  0  0  0  0
  149.8280  141.7287  154.8991 H   0  0  0  0  0  0  0  0  0  0  0  0
  150.2053  139.9604  153.7488 H   0  0  0  0  0  0  0  0  0  0  0  0
  150.5457  137.5132  153.4455 H   0  0  0  0  0  0  0  0  0  0  0  0
  149.9699  143.7846  156.3684 H   0  0  0  0  0  0  0  0  0  0  0  0
  152.5964  144.1477  157.3708 H   0  0  0  0  0  0  0  0  0  0  0  0
  151.2429  145.2373  157.5178 H   0  0  0  0  0  0  0  0  0  0  0  0
  150.4154  143.6161  159.4393 H   0  0  0  0  0  0  0  0  0  0  0  0
  152.0390  141.8085  159.4711 H   0  0  0  0  0  0  0  0  0  0  0  0
  153.3760  142.9523  159.3084 H   0  0  0  0  0  0  0  0  0  0  0  0
  151.5586  142.5608  161.7045 H   0  0  0  0  0  0  0  0  0  0  0  0
  153.3115  142.7724  161.6924 H   0  0  0  0  0  0  0  0  0  0  0  0
  152.7261  145.5719  159.7190 H   0  0  0  0  0  0  0  0  0  0  0  0
  151.0465  145.8088  160.2050 H   0  0  0  0  0  0  0  0  0  0  0  0
  1  2  2  0  0  0  0
  2  3  1  0  0  0  0
  2 12  1  0  0  0  0
  3  4  1  0  0  0  0
  3 19  1  0  0  0  0
  3 20  1  0  0  0  0
  4 10  1  0  0  0  0
  4  5  1  0  0  0  0
  5  6  2  0  0  0  0
  5 21  1  0  0  0  0
  6  7  1  0  0  0  0
  6 22  1  0  0  0  0
  7  8  2  0  0  0  0
  7  9  1  0  0  0  0
  9 10  1  0  0  0  0
 10 11  2  0  0  0  0
 12 13  1  0  0  0  0
 12 23  1  0  0  0  0
 13 14  1  0  0  0  0
 13 24  1  0  0  0  0
 13 25  1  0  0  0  0
 14 18  1  0  0  0  0
 14 15  1  0  0  0  0
 14 26  1  0  0  0  0
 15 16  1  0  0  0  0
 15 27  1  0  0  0  0
 15 28  1  0  0  0  0
 16 17  1  0  0  0  0
 16 29  1  0  0  0  0
 16 30  1  0  0  0  0
 17 18  1  0  0  0  0
 18 31  1  0  0  0  0
 18 32  1  0  0  0  0
M  CHG  1   9  -1
M  END
> <s_m_source_file>
AV-unprocessed.smi

> <i_m_source_file_index>
1131

> <i_lp_mmshare_version>
43012

> <i_f3d_flags>
0

> <s_epik_input>
W0NIMl0xT1tDSDJdW0NIMl1bQ0BIXTFbQ0gyXVtOSF1DKD1PKVtDSDJdbjJbY0hdW2NIXWMoPU8pW25IXWMyPU8=

> <s_epik_cmdline>
J2VwaWtfcHl0aG9uJywgJy1waCcsICc3LjAnLCAnLXRuJywgJzgnLCAnLW1hJywgJzIwMCcsICctbWV0YWxfYmluZGluZycsICctaW1hZScsICc8aW5maWxlLm1hZT4nLCAnLW9tYWUnLCAnPG91dGZpbGUubWFlPic=

> <r_lp_tautomer_probability>
0.999537

> <r_epik_Ionization_Penalty>
3.07866

> <r_epik_Ionization_Penalty_Charging>
2.6898e-08

> <r_epik_Ionization_Penalty_Neutral>
3.07866

> <r_epik_State_Penalty>
3.07769

> <r_epik_Charging_Adjusted_Penalty>
3.07769

> <i_epik_Tot_Q>
-1

> <i_epik_Tot_abs_Q>
1

> <r_epik_Metal_State_Penalty>
0.459839

> <b_epik_Metal_Only>
1

> <s_lp_Force_Field>
OPLS_2005

> <r_lp_Energy>
26.9978

> <b_lp_Chiralities_Consistent>
1

> <s_lp_Variant>
AV-unprocessed.smi:1131-4

> <Gold.Version>
5.8.1

> <Gold.Id.Protein>
6NUR|6NUR_protein|mol2

> <Gold.PLP.Fitness>
44.9762

> <Gold.PLP.PLP>
-36.5420

> <Gold.PLP.part.hbond>
-2.0000

> <Gold.PLP.part.metal>
0.0000

> <Gold.PLP.part.buried>
-2.0969

> <Gold.PLP.part.nonpolar>
-32.4006

> <Gold.PLP.part.repulsive>
0.3496

> <Gold.PLP.ligand.clash>
0.0000

> <Gold.PLP.ligand.torsion>
0.2881

> <Gold.PLP.Chemscore.Hbond>
2.0000

> <Gold.PLP.Chemscore.CHOScore>
0.9981

> <Gold.PLP.Chemscore.Metal>
0.0000

> <Gold.Chemscore.Hbonds>
donor molecule, donor type, donor heavy atom, donor atom, acceptor molecule, acceptor atom, score
      L1  H    12    23       P1  8028  1.00
      L1  C     5    21       P1  7957  0.70

> <Gold.PLP.Chemscore.Internal.Correction>
0.0162

> <Gold.Rescore>
     Score         DG    S(hbond)    S(metal)    S(lipo)     H(rot)  DE(clash)    DE(int)     intcor
     13.20     -16.03       1.88        0.00      81.31       2.05       1.09       1.74       ----

> <Gold.Chemscore.Fitness>
13.2003

> <Gold.Chemscore.DG>
-16.0270

> <Gold.Chemscore.ZeroCoef>
-5.4800

> <Gold.Chemscore.Hbond>
1.8778

> <Gold.Chemscore.Metal>
0.0000

> <Gold.Chemscore.Lipo>
81.3132

> <Gold.Chemscore.Internal_Hbond>
0.0000

> <Gold.Chemscore.DEClash>
1.0873

> <Gold.Chemscore.DEInternal>
1.7394

> <Gold.Chemscore.Rot>
2.0463

> <Gold.Chemscore.Internal.Correction>
   9.000000E+99

> <Gold.Chemscore.Hbonds>
donor molecule, donor type, donor heavy atom, donor atom, acceptor molecule, acceptor atom, score
      L1  H    12    23       P1  8028  0.98

> <Gold.Chemscore.Hbond.Weighted>
-6.2719

> <Gold.Chemscore.Metal.Weighted>
-0.0000

> <Gold.Chemscore.Lipo.Weighted>
-9.5136

> <Gold.Chemscore.Internal_Hbond.Weighted>
0.0000

> <Gold.Chemscore.DEClash.Weighted>
1.0873

> <Gold.Chemscore.DEInternal.Weighted>
1.7394

> <Gold.Chemscore.Rot.Weighted>
5.2386

> <Gold.Chemscore.Internal.Correction.Weighted>
   9.000000E+99

> <Gold.Protein.RotatedTorsions>
[ 6907 6896 6895 6894 ] final  138.24 input  -60.11 | X-H torsion
[ 7974 7965 7964 7962 ] final -134.93 input  175.53 | X-H torsion
[ 8008 7997 7996 7995 ] final  -70.24 input   59.86 | X-H torsion
[ 10167 10162 10161 10158 ] final   65.19 input  -65.29 | X-H torsion
[ 10718 10713 10712 10709 ] final   44.85 input   66.30 | X-H torsion
[ 10763 10752 10751 10750 ] final   80.41 input  -60.55 | X-H torsion
[ 11005 11000 10999 10996 ] final  155.46 input  -57.11 | X-H torsion

> <Gold.Protein.ActiveResidues>
 VAL166  LYS551  ARG553  GLY616  TRP617  ASP618  TYR619  PRO620  LYS621  CYS622 
 ASP623  PHE694  ASN695  SER759  ASP760  ASP761  ALA762  ILE779  LEU786  VAL792 
 PHE793  MET794  SER795  GLU796  ALA797  LYS798  CYS799  TRP800  GLU811  SER814 

> <Gold.Protein.RotatedAtoms>
  152.2689  133.5364  159.5426 H   0  0  0  0  0  0  0  0  0  0  0  0  # atno 6907 bound_to 6896
  150.7152  134.0725  159.3878 H   0  0  0  0  0  0  0  0  0  0  0  0  # atno 6908 bound_to 6896
  151.8641  135.0513  160.0523 H   0  0  0  0  0  0  0  0  0  0  0  0  # atno 6909 bound_to 6896
  144.9059  140.6832  143.5056 H   0  0  0  0  0  0  0  0  0  0  0  0  # atno 7974 bound_to 7965
  154.4997  140.0838  156.7772 H   0  0  0  0  0  0  0  0  0  0  0  0  # atno 8008 bound_to 7997
  155.4032  140.3438  155.4240 H   0  0  0  0  0  0  0  0  0  0  0  0  # atno 8009 bound_to 7997
  156.1440  140.1538  156.8863 H   0  0  0  0  0  0  0  0  0  0  0  0  # atno 8010 bound_to 7997
  140.1140  144.4792  150.6961 H   0  0  0  0  0  0  0  0  0  0  0  0  # atno 10167 bound_to 10162
  157.4312  130.8026  149.7605 H   0  0  0  0  0  0  0  0  0  0  0  0  # atno 10718 bound_to 10713
  153.1031  135.4804  154.8903 H   0  0  0  0  0  0  0  0  0  0  0  0  # atno 10763 bound_to 10752
  154.7401  135.3080  154.8746 H   0  0  0  0  0  0  0  0  0  0  0  0  # atno 10764 bound_to 10752
  153.9357  135.6839  153.4798 H   0  0  0  0  0  0  0  0  0  0  0  0  # atno 10765 bound_to 10752
  140.1583  134.8627  157.2542 H   0  0  0  0  0  0  0  0  0  0  0  0  # atno 11005 bound_to 11000
  145.3537  139.1699  143.4421 LP  0  0  0  0  0  0  0  0  0  0  0  0  # atno 17320 bound_to 7965
  146.3133  140.3591  142.8663 LP  0  0  0  0  0  0  0  0  0  0  0  0  # atno 17321 bound_to 7965
  140.6910  143.2376  151.5132 LP  0  0  0  0  0  0  0  0  0  0  0  0  # atno 17342 bound_to 10162
  139.5604  144.2171  152.1682 LP  0  0  0  0  0  0  0  0  0  0  0  0  # atno 17343 bound_to 10162
  155.9914  130.3938  150.2986 LP  0  0  0  0  0  0  0  0  0  0  0  0  # atno 17370 bound_to 10713
  157.1143  131.0230  151.3035 LP  0  0  0  0  0  0  0  0  0  0  0  0  # atno 17371 bound_to 10713
  140.2520  134.3671  155.7438 LP  0  0  0  0  0  0  0  0  0  0  0  0  # atno 17394 bound_to 11000
  141.2207  133.7322  156.8950 LP  0  0  0  0  0  0  0  0  0  0  0  0  # atno 17395 bound_to 11000

$$$$
