AV-unprocessed.smi:1517|AV-procd|sdf|6123|dock3
  -GOLD-   22720 6263D 1   1.00000     0.00000
 Structure written by MMmdl.
 41 43  0  0  0  0  0  0  0  0  1 V2000
  153.6855  138.6413  157.5280 O   0  0  0  0  0  0  0  0  0  0  0  0
  153.3120  138.2717  156.2190 C   0  0  0  0  0  0  0  0  0  0  0  0
  152.8730  139.5167  155.4388 C   0  0  0  0  0  0  0  0  0  0  0  0
  151.8565  140.2687  156.1501 N   0  0  0  0  0  0  0  0  0  0  0  0
  150.5891  140.7057  155.7831 C   0  0  0  0  0  0  0  0  0  0  0  0
  150.0429  140.4798  154.5896 N   0  0  0  0  0  0  0  0  0  0  0  0
  148.8086  141.0895  154.7114 C   0  0  0  0  0  0  0  0  0  0  0  0
  147.7464  141.2048  153.7860 C   0  0  0  0  0  0  0  0  0  0  0  0
  146.5620  141.8840  154.1395 C   0  0  0  0  0  0  0  0  0  0  0  0
  146.4216  142.4556  155.4210 C   0  0  0  0  0  0  0  0  0  0  0  0
  147.4672  142.3528  156.3587 C   0  0  0  0  0  0  0  0  0  0  0  0
  148.6483  141.6756  156.0008 C   0  0  0  0  0  0  0  0  0  0  0  0
  149.8387  141.4045  156.6684 N   0  0  0  0  0  0  0  0  0  0  0  0
  150.1725  141.8058  158.0294 C   0  0  0  0  0  0  0  0  0  0  0  0
  151.3085  142.8456  158.0818 C   0  0  1  0  0  0  0  0  0  0  0  0
  150.8876  144.0525  157.4740 O   0  0  0  0  0  0  0  0  0  0  0  0
  151.7953  143.0518  159.5104 C   0  0  0  0  0  0  0  0  0  0  0  0
  151.4850  144.2403  160.2097 C   0  0  0  0  0  0  0  0  0  0  0  0
  151.9274  144.4239  161.5340 C   0  0  0  0  0  0  0  0  0  0  0  0
  152.6793  143.4189  162.1710 C   0  0  0  0  0  0  0  0  0  0  0  0
  153.1038  143.5948  163.4447 F   0  0  0  0  0  0  0  0  0  0  0  0
  152.9858  142.2292  161.4837 C   0  0  0  0  0  0  0  0  0  0  0  0
  152.5438  142.0433  160.1590 C   0  0  0  0  0  0  0  0  0  0  0  0
  152.8379  140.8872  159.5165 F   0  0  0  0  0  0  0  0  0  0  0  0
  152.9277  138.5683  158.0877 H   0  0  0  0  0  0  0  0  0  0  0  0
  154.1594  137.7890  155.7314 H   0  0  0  0  0  0  0  0  0  0  0  0
  152.5041  137.5413  156.2730 H   0  0  0  0  0  0  0  0  0  0  0  0
  153.7273  140.1684  155.2530 H   0  0  0  0  0  0  0  0  0  0  0  0
  152.4725  139.2305  154.4660 H   0  0  0  0  0  0  0  0  0  0  0  0
  152.1238  140.5140  157.0925 H   0  0  0  0  0  0  0  0  0  0  0  0
  147.8434  140.7700  152.8022 H   0  0  0  0  0  0  0  0  0  0  0  0
  145.7572  141.9665  153.4239 H   0  0  0  0  0  0  0  0  0  0  0  0
  145.5106  142.9734  155.6832 H   0  0  0  0  0  0  0  0  0  0  0  0
  147.3627  142.7894  157.3409 H   0  0  0  0  0  0  0  0  0  0  0  0
  149.2793  142.1822  158.5290 H   0  0  0  0  0  0  0  0  0  0  0  0
  150.4674  140.9103  158.5780 H   0  0  0  0  0  0  0  0  0  0  0  0
  152.1439  142.4820  157.4823 H   0  0  0  0  0  0  0  0  0  0  0  0
  151.6112  144.6605  157.4811 H   0  0  0  0  0  0  0  0  0  0  0  0
  150.9023  145.0167  159.7354 H   0  0  0  0  0  0  0  0  0  0  0  0
  151.6872  145.3353  162.0620 H   0  0  0  0  0  0  0  0  0  0  0  0
  153.5589  141.4561  161.9741 H   0  0  0  0  0  0  0  0  0  0  0  0
  1  2  1  0  0  0  0
  1 25  1  0  0  0  0
  2  3  1  0  0  0  0
  2 26  1  0  0  0  0
  2 27  1  0  0  0  0
  3  4  1  0  0  0  0
  3 28  1  0  0  0  0
  3 29  1  0  0  0  0
  4  5  1  0  0  0  0
  4 30  1  0  0  0  0
  5 13  1  0  0  0  0
  5  6  2  0  0  0  0
  6  7  1  0  0  0  0
  7 12  2  0  0  0  0
  7  8  1  0  0  0  0
  8  9  2  0  0  0  0
  8 31  1  0  0  0  0
  9 10  1  0  0  0  0
  9 32  1  0  0  0  0
 10 11  2  0  0  0  0
 10 33  1  0  0  0  0
 11 12  1  0  0  0  0
 11 34  1  0  0  0  0
 12 13  1  0  0  0  0
 13 14  1  0  0  0  0
 14 15  1  0  0  0  0
 14 35  1  0  0  0  0
 14 36  1  0  0  0  0
 15 16  1  0  0  0  0
 15 17  1  0  0  0  0
 15 37  1  0  0  0  0
 16 38  1  0  0  0  0
 17 23  1  0  0  0  0
 17 18  2  0  0  0  0
 18 19  1  0  0  0  0
 18 39  1  0  0  0  0
 19 20  2  0  0  0  0
 19 40  1  0  0  0  0
 20 21  1  0  0  0  0
 20 22  1  0  0  0  0
 22 23  2  0  0  0  0
 22 41  1  0  0  0  0
 23 24  1  0  0  0  0
M  END
> <s_m_source_file>
AV-unprocessed.smi

> <i_m_source_file_index>
1517

> <i_lp_mmshare_version>
43012

> <i_f3d_flags>
0

> <s_epik_input>
W09IXVtDSDJdW0NIMl1bTkhdYyhuMSluKGMoYzEyKVtjSF1bY0hdW2NIXVtjSF0yKVtDSDJdW0NASF0oW09IXSljM1tjSF1bY0hdYyhGKVtjSF1jM0Y=

> <s_epik_cmdline>
J2VwaWtfcHl0aG9uJywgJy1waCcsICc3LjAnLCAnLXRuJywgJzgnLCAnLW1hJywgJzIwMCcsICctbWV0YWxfYmluZGluZycsICctaW1hZScsICc8aW5maWxlLm1hZT4nLCAnLW9tYWUnLCAnPG91dGZpbGUubWFlPic=

> <r_epik_Ionization_Penalty>
1.30972

> <r_epik_Ionization_Penalty_Charging>
0

> <r_epik_Ionization_Penalty_Neutral>
1.30972

> <r_epik_State_Penalty>
1.38438

> <r_epik_Charging_Adjusted_Penalty>
1.38438

> <i_epik_Tot_Q>
0

> <i_epik_Tot_abs_Q>
0

> <r_epik_Metal_State_Penalty>
0.00551145

> <b_epik_Metal_Only>
0

> <s_lp_Force_Field>
OPLS_2005

> <r_lp_Energy>
6.47828

> <b_lp_Chiralities_Consistent>
1

> <s_lp_Variant>
AV-unprocessed.smi:1517-4

> <Gold.Version>
5.8.1

> <Gold.Id.Protein>
6NUR|6NUR_protein|mol2

> <Gold.PLP.Fitness>
57.8244

> <Gold.PLP.PLP>
-53.6401

> <Gold.PLP.part.hbond>
-3.0000

> <Gold.PLP.part.metal>
0.0000

> <Gold.PLP.part.buried>
-1.0861

> <Gold.PLP.part.nonpolar>
-48.4955

> <Gold.PLP.part.repulsive>
0.2713

> <Gold.PLP.ligand.clash>
0.0000

> <Gold.PLP.ligand.torsion>
0.4411

> <Gold.PLP.Chemscore.Hbond>
1.6416

> <Gold.PLP.Chemscore.CHOScore>
0.0000

> <Gold.PLP.Chemscore.Metal>
0.0000

> <Gold.Chemscore.Hbonds>
donor molecule, donor type, donor heavy atom, donor atom, acceptor molecule, acceptor atom, score
      P1  H  7989  7998       L1     6  0.81
      P1  H  7997  8008       L1     1  0.65

> <Gold.PLP.Chemscore.Internal.Correction>
0.1417

> <Gold.Rescore>
     Score         DG    S(hbond)    S(metal)    S(lipo)     H(rot)  DE(clash)    DE(int)     intcor
     10.70     -12.48       0.01        0.00     129.98       3.22       1.41       0.36       ----

> <Gold.Chemscore.Fitness>
10.7034

> <Gold.Chemscore.DG>
-12.4786

> <Gold.Chemscore.ZeroCoef>
-5.4800

> <Gold.Chemscore.Hbond>
0.0099

> <Gold.Chemscore.Metal>
0.0000

> <Gold.Chemscore.Lipo>
129.9756

> <Gold.Chemscore.Internal_Hbond>
0.0000

> <Gold.Chemscore.DEClash>
1.4109

> <Gold.Chemscore.DEInternal>
0.3643

> <Gold.Chemscore.Rot>
3.2194

> <Gold.Chemscore.Internal.Correction>
   9.000000E+99

> <Gold.Chemscore.Hbonds>
donor molecule, donor type, donor heavy atom, donor atom, acceptor molecule, acceptor atom, score
      P1  H  7989  7998       L1     6  0.16
      P1  H  7997  8008       L1     1  0.05

> <Gold.Chemscore.Hbond.Weighted>
-0.0331

> <Gold.Chemscore.Metal.Weighted>
-0.0000

> <Gold.Chemscore.Lipo.Weighted>
-15.2071

> <Gold.Chemscore.Internal_Hbond.Weighted>
0.0000

> <Gold.Chemscore.DEClash.Weighted>
1.4109

> <Gold.Chemscore.DEInternal.Weighted>
0.3643

> <Gold.Chemscore.Rot.Weighted>
8.2416

> <Gold.Chemscore.Internal.Correction.Weighted>
   9.000000E+99

> <Gold.Protein.RotatedTorsions>
[ 6907 6896 6895 6894 ] final   40.89 input  -60.11 | X-H torsion
[ 7974 7965 7964 7962 ] final   93.25 input  175.53 | X-H torsion
[ 8008 7997 7996 7995 ] final  -84.39 input   59.86 | X-H torsion
[ 10167 10162 10161 10158 ] final  -12.94 input  -65.29 | X-H torsion
[ 10718 10713 10712 10709 ] final   90.63 input   66.30 | X-H torsion
[ 10763 10752 10751 10750 ] final   26.91 input  -60.55 | X-H torsion
[ 11005 11000 10999 10996 ] final -110.92 input  -57.11 | X-H torsion

> <Gold.Protein.ActiveResidues>
 VAL166  LYS551  ARG553  GLY616  TRP617  ASP618  TYR619  PRO620  LYS621  CYS622 
 ASP623  PHE694  ASN695  SER759  ASP760  ASP761  ALA762  ILE779  LEU786  VAL792 
 PHE793  MET794  SER795  GLU796  ALA797  LYS798  CYS799  TRP800  GLU811  SER814 

> <Gold.Protein.RotatedAtoms>
  152.1882  134.8695  160.0519 H   0  0  0  0  0  0  0  0  0  0  0  0  # atno 6907 bound_to 6896
  151.9593  133.3685  159.4037 H   0  0  0  0  0  0  0  0  0  0  0  0  # atno 6908 bound_to 6896
  150.6930  134.4181  159.5236 H   0  0  0  0  0  0  0  0  0  0  0  0  # atno 6909 bound_to 6896
  145.4814  139.2278  143.2880 H   0  0  0  0  0  0  0  0  0  0  0  0  # atno 7974 bound_to 7965
  154.6293  140.0605  156.9712 H   0  0  0  0  0  0  0  0  0  0  0  0  # atno 8008 bound_to 7997
  155.1692  140.3289  155.4377 H   0  0  0  0  0  0  0  0  0  0  0  0  # atno 8009 bound_to 7997
  156.2474  140.1917  156.6795 H   0  0  0  0  0  0  0  0  0  0  0  0  # atno 8010 bound_to 7997
  140.7172  143.5479  150.9334 H   0  0  0  0  0  0  0  0  0  0  0  0  # atno 10167 bound_to 10162
  157.6959  131.0378  150.3607 H   0  0  0  0  0  0  0  0  0  0  0  0  # atno 10718 bound_to 10713
  153.0591  135.6549  154.0507 H   0  0  0  0  0  0  0  0  0  0  0  0  # atno 10763 bound_to 10752
  154.0178  135.2922  155.3386 H   0  0  0  0  0  0  0  0  0  0  0  0  # atno 10764 bound_to 10752
  154.6920  135.5279  153.8473 H   0  0  0  0  0  0  0  0  0  0  0  0  # atno 10765 bound_to 10752
  141.0764  133.9294  157.2381 H   0  0  0  0  0  0  0  0  0  0  0  0  # atno 11005 bound_to 11000
  146.2338  140.5601  142.8963 LP  0  0  0  0  0  0  0  0  0  0  0  0  # atno 17320 bound_to 7965
  144.7886  140.5987  143.6556 LP  0  0  0  0  0  0  0  0  0  0  0  0  # atno 17321 bound_to 7965
  139.9203  143.6614  152.3098 LP  0  0  0  0  0  0  0  0  0  0  0  0  # atno 17342 bound_to 10162
  139.7028  144.7632  151.1244 LP  0  0  0  0  0  0  0  0  0  0  0  0  # atno 17343 bound_to 10162
  156.4044  130.3922  149.6937 LP  0  0  0  0  0  0  0  0  0  0  0  0  # atno 17370 bound_to 10713
  156.4243  130.7784  151.2802 LP  0  0  0  0  0  0  0  0  0  0  0  0  # atno 17371 bound_to 10713
  139.9576  135.0162  156.9172 LP  0  0  0  0  0  0  0  0  0  0  0  0  # atno 17394 bound_to 11000
  140.5564  134.0577  155.7385 LP  0  0  0  0  0  0  0  0  0  0  0  0  # atno 17395 bound_to 11000

$$$$
