AV-unprocessed.smi:3306|AV-procd|sdf|12703|dock8
  -GOLD-   2272019 33D 1   1.00000     0.00000
 Structure written by MMmdl.
 44 45  0  0  0  0  0  0  0  0  2 V2000
  146.4754  137.7771  154.0197 C   0  0  0  0  0  0  0  0  0  0  0  0
  146.4869  139.0297  153.1149 C   0  0  0  0  0  0  0  0  0  0  0  0
  146.8038  138.5760  151.6722 C   0  0  0  0  0  0  0  0  0  0  0  0
  147.4441  140.0478  153.5984 N   0  0  0  0  0  0  0  0  0  0  0  0
  148.6775  139.4239  154.1040 C   0  0  0  0  0  0  0  0  0  0  0  0
  149.7113  140.4830  154.5234 C   0  0  0  0  0  0  0  0  0  0  0  0
  149.1564  141.3933  155.6234 C   0  0  0  0  0  0  0  0  0  0  0  0
  150.1391  142.4481  155.9576 N   0  3  0  0  0  0  0  0  0  0  0  0
  150.9796  142.1754  157.1420 C   0  0  0  0  0  0  0  0  0  0  0  0
  151.6085  143.4688  157.6777 C   0  0  0  0  0  0  0  0  0  0  0  0
  152.0391  143.3420  159.1267 C   0  0  0  0  0  0  0  0  0  0  0  0
  152.9353  142.3281  159.5273 C   0  0  0  0  0  0  0  0  0  0  0  0
  153.2988  142.2532  160.8860 C   0  0  0  0  0  0  0  0  0  0  0  0
  152.7542  143.1888  161.7864 C   0  0  0  0  0  0  0  0  0  0  0  0
  151.8658  144.1617  161.2867 C   0  0  0  0  0  0  0  0  0  0  0  0
  151.5092  144.2412  159.9862 N   0  0  0  0  0  0  0  0  0  0  0  0
  147.8261  141.9767  155.1268 C   0  0  0  0  0  0  0  0  0  0  0  0
  146.8648  140.8613  154.6794 C   0  0  0  0  0  0  0  0  0  0  0  0
  145.8908  136.9743  153.5693 H   0  0  0  0  0  0  0  0  0  0  0  0
  146.0169  137.9648  154.9899 H   0  0  0  0  0  0  0  0  0  0  0  0
  147.4830  137.3935  154.1841 H   0  0  0  0  0  0  0  0  0  0  0  0
  145.4844  139.4609  153.1203 H   0  0  0  0  0  0  0  0  0  0  0  0
  146.1979  137.7142  151.3905 H   0  0  0  0  0  0  0  0  0  0  0  0
  147.8501  138.2876  151.5646 H   0  0  0  0  0  0  0  0  0  0  0  0
  146.5813  139.3456  150.9340 H   0  0  0  0  0  0  0  0  0  0  0  0
  148.4476  138.7629  154.9412 H   0  0  0  0  0  0  0  0  0  0  0  0
  149.1492  138.8144  153.3360 H   0  0  0  0  0  0  0  0  0  0  0  0
  150.6190  139.9884  154.8716 H   0  0  0  0  0  0  0  0  0  0  0  0
  149.9966  141.0755  153.6523 H   0  0  0  0  0  0  0  0  0  0  0  0
  148.9790  140.7888  156.5144 H   0  0  0  0  0  0  0  0  0  0  0  0
  150.7576  142.5494  155.1656 H   0  0  0  0  0  0  0  0  0  0  0  0
  150.3757  141.7097  157.9210 H   0  0  0  0  0  0  0  0  0  0  0  0
  151.7651  141.4676  156.8734 H   0  0  0  0  0  0  0  0  0  0  0  0
  152.4721  143.7436  157.0706 H   0  0  0  0  0  0  0  0  0  0  0  0
  150.8991  144.2936  157.5921 H   0  0  0  0  0  0  0  0  0  0  0  0
  153.3361  141.6230  158.8140 H   0  0  0  0  0  0  0  0  0  0  0  0
  153.9828  141.4921  161.2314 H   0  0  0  0  0  0  0  0  0  0  0  0
  153.0109  143.1617  162.8352 H   0  0  0  0  0  0  0  0  0  0  0  0
  151.4295  144.8946  161.9491 H   0  0  0  0  0  0  0  0  0  0  0  0
  147.3472  142.5608  155.9126 H   0  0  0  0  0  0  0  0  0  0  0  0
  148.0025  142.6611  154.2952 H   0  0  0  0  0  0  0  0  0  0  0  0
  145.9505  141.3514  154.3506 H   0  0  0  0  0  0  0  0  0  0  0  0
  146.6000  140.2247  155.5253 H   0  0  0  0  0  0  0  0  0  0  0  0
  149.6483  143.3206  156.0930 H   0  0  0  0  0  0  0  0  0  0  0  0
  1  2  1  0  0  0  0
  1 19  1  0  0  0  0
  1 20  1  0  0  0  0
  1 21  1  0  0  0  0
  2  3  1  0  0  0  0
  2  4  1  0  0  0  0
  2 22  1  0  0  0  0
  3 23  1  0  0  0  0
  3 24  1  0  0  0  0
  3 25  1  0  0  0  0
  4 18  1  0  0  0  0
  4  5  1  0  0  0  0
  5  6  1  0  0  0  0
  5 26  1  0  0  0  0
  5 27  1  0  0  0  0
  6  7  1  0  0  0  0
  6 28  1  0  0  0  0
  6 29  1  0  0  0  0
  7  8  1  0  0  0  0
  7 17  1  0  0  0  0
  7 30  1  0  0  0  0
  8  9  1  0  0  0  0
  8 31  1  0  0  0  0
  8 44  1  0  0  0  0
  9 10  1  0  0  0  0
  9 32  1  0  0  0  0
  9 33  1  0  0  0  0
 10 11  1  0  0  0  0
 10 34  1  0  0  0  0
 10 35  1  0  0  0  0
 11 16  1  0  0  0  0
 11 12  2  0  0  0  0
 12 13  1  0  0  0  0
 12 36  1  0  0  0  0
 13 14  2  0  0  0  0
 13 37  1  0  0  0  0
 14 15  1  0  0  0  0
 14 38  1  0  0  0  0
 15 16  2  0  0  0  0
 15 39  1  0  0  0  0
 17 18  1  0  0  0  0
 17 40  1  0  0  0  0
 17 41  1  0  0  0  0
 18 42  1  0  0  0  0
 18 43  1  0  0  0  0
M  CHG  1   8   1
M  END
> <s_m_source_file>
AV-unprocessed.smi

> <i_m_source_file_index>
3306

> <i_lp_mmshare_version>
43012

> <i_f3d_flags>
0

> <s_epik_input>
W0NIM11bQ0hdKFtDSDNdKU4xW0NIMl1bQ0gyXVtDSF0oW0NIMl1bQ0gyXTEpW05IXVtDSDJdW0NIMl1jMltjSF1bY0hdW2NIXVtjSF1uMg==

> <s_epik_cmdline>
J2VwaWtfcHl0aG9uJywgJy1waCcsICc3LjAnLCAnLXRuJywgJzgnLCAnLW1hJywgJzIwMCcsICctbWV0YWxfYmluZGluZycsICctaW1hZScsICc8aW5maWxlLm1hZT4nLCAnLW9tYWUnLCAnPG91dGZpbGUubWFlPic=

> <r_epik_Ionization_Penalty>
1.34673

> <r_epik_Ionization_Penalty_Charging>
0.000531593

> <r_epik_Ionization_Penalty_Neutral>
1.3462

> <r_epik_State_Penalty>
1.43277

> <r_epik_Charging_Adjusted_Penalty>
1.4333

> <i_epik_Tot_Q>
1

> <i_epik_Tot_abs_Q>
1

> <r_epik_Metal_State_Penalty>
1.43418

> <b_epik_Metal_Only>
0

> <s_lp_Force_Field>
OPLS_2005

> <r_lp_Energy>
21.3297

> <b_lp_Chiralities_Consistent>
1

> <s_lp_Variant>
AV-unprocessed.smi:3306-3

> <Gold.Version>
5.8.1

> <Gold.Id.Protein>
6NUR|6NUR_protein|mol2

> <Gold.PLP.Fitness>
44.5514

> <Gold.PLP.PLP>
-40.8753

> <Gold.PLP.part.hbond>
-1.0000

> <Gold.PLP.part.metal>
0.0000

> <Gold.PLP.part.buried>
0.6112

> <Gold.PLP.part.nonpolar>
-39.7553

> <Gold.PLP.part.repulsive>
0.3758

> <Gold.PLP.ligand.clash>
0.0000

> <Gold.PLP.ligand.torsion>
1.1742

> <Gold.PLP.Chemscore.Hbond>
2.0000

> <Gold.PLP.Chemscore.CHOScore>
0.0000

> <Gold.PLP.Chemscore.Metal>
0.0000

> <Gold.Chemscore.Hbonds>
donor molecule, donor type, donor heavy atom, donor atom, acceptor molecule, acceptor atom, score
      L1  H     8    44       P1  8028  2.00

> <Gold.PLP.Chemscore.Internal.Correction>
0.0246

> <Gold.Rescore>
     Score         DG    S(hbond)    S(metal)    S(lipo)     H(rot)  DE(clash)    DE(int)     intcor
     18.55     -19.85       1.00        0.00     125.14       1.41       0.25       1.05       ----

> <Gold.Chemscore.Fitness>
18.5493

> <Gold.Chemscore.DG>
-19.8498

> <Gold.Chemscore.ZeroCoef>
-5.4800

> <Gold.Chemscore.Hbond>
0.9998

> <Gold.Chemscore.Metal>
0.0000

> <Gold.Chemscore.Lipo>
125.1406

> <Gold.Chemscore.Internal_Hbond>
0.0000

> <Gold.Chemscore.DEClash>
0.2475

> <Gold.Chemscore.DEInternal>
1.0530

> <Gold.Chemscore.Rot>
1.4106

> <Gold.Chemscore.Internal.Correction>
   9.000000E+99

> <Gold.Chemscore.Hbonds>
donor molecule, donor type, donor heavy atom, donor atom, acceptor molecule, acceptor atom, score
      L1  H     8    44       P1  8028  0.99

> <Gold.Chemscore.Hbond.Weighted>
-3.3395

> <Gold.Chemscore.Metal.Weighted>
-0.0000

> <Gold.Chemscore.Lipo.Weighted>
-14.6415

> <Gold.Chemscore.Internal_Hbond.Weighted>
0.0000

> <Gold.Chemscore.DEClash.Weighted>
0.2475

> <Gold.Chemscore.DEInternal.Weighted>
1.0530

> <Gold.Chemscore.Rot.Weighted>
3.6112

> <Gold.Chemscore.Internal.Correction.Weighted>
   9.000000E+99

> <Gold.Protein.RotatedTorsions>
[ 6907 6896 6895 6894 ] final   15.58 input  -60.11 | X-H torsion
[ 7974 7965 7964 7962 ] final -144.70 input  175.53 | X-H torsion
[ 8008 7997 7996 7995 ] final  -45.27 input   59.86 | X-H torsion
[ 10167 10162 10161 10158 ] final  -76.10 input  -65.29 | X-H torsion
[ 10718 10713 10712 10709 ] final   56.73 input   66.30 | X-H torsion
[ 10763 10752 10751 10750 ] final -105.56 input  -60.55 | X-H torsion
[ 11005 11000 10999 10996 ] final -135.39 input  -57.11 | X-H torsion

> <Gold.Protein.ActiveResidues>
 VAL166  LYS551  ARG553  GLY616  TRP617  ASP618  TYR619  PRO620  LYS621  CYS622 
 ASP623  PHE694  ASN695  SER759  ASP760  ASP761  ALA762  ILE779  LEU786  VAL792 
 PHE793  MET794  SER795  GLU796  ALA797  LYS798  CYS799  TRP800  GLU811  SER814 

> <Gold.Protein.RotatedAtoms>
  151.8203  135.0654  160.0423 H   0  0  0  0  0  0  0  0  0  0  0  0  # atno 6907 bound_to 6896
  152.2956  133.5599  159.5593 H   0  0  0  0  0  0  0  0  0  0  0  0  # atno 6908 bound_to 6896
  150.7249  134.0282  159.3766 H   0  0  0  0  0  0  0  0  0  0  0  0  # atno 6909 bound_to 6896
  144.8279  140.5676  143.5535 H   0  0  0  0  0  0  0  0  0  0  0  0  # atno 7974 bound_to 7965
  154.4000  140.1401  156.3820 H   0  0  0  0  0  0  0  0  0  0  0  0  # atno 8008 bound_to 7997
  155.7995  140.3476  155.5374 H   0  0  0  0  0  0  0  0  0  0  0  0  # atno 8009 bound_to 7997
  155.8498  140.0939  157.1672 H   0  0  0  0  0  0  0  0  0  0  0  0  # atno 8010 bound_to 7997
  140.4886  143.2385  151.7943 H   0  0  0  0  0  0  0  0  0  0  0  0  # atno 10167 bound_to 10162
  157.5455  130.8728  149.8885 H   0  0  0  0  0  0  0  0  0  0  0  0  # atno 10718 bound_to 10713
  154.7954  135.4744  154.0150 H   0  0  0  0  0  0  0  0  0  0  0  0  # atno 10763 bound_to 10752
  153.1696  135.6823  153.8633 H   0  0  0  0  0  0  0  0  0  0  0  0  # atno 10764 bound_to 10752
  153.8220  135.3203  155.3389 H   0  0  0  0  0  0  0  0  0  0  0  0  # atno 10765 bound_to 10752
  140.8903  134.1820  157.4532 H   0  0  0  0  0  0  0  0  0  0  0  0  # atno 11005 bound_to 11000
  145.4960  139.1486  143.3683 LP  0  0  0  0  0  0  0  0  0  0  0  0  # atno 17320 bound_to 7965
  146.2583  140.5099  142.8864 LP  0  0  0  0  0  0  0  0  0  0  0  0  # atno 17321 bound_to 7965
  139.4847  144.4679  151.9461 LP  0  0  0  0  0  0  0  0  0  0  0  0  # atno 17342 bound_to 10162
  140.3765  144.2789  150.5913 LP  0  0  0  0  0  0  0  0  0  0  0  0  # atno 17343 bound_to 10162
  156.0532  130.3713  150.1151 LP  0  0  0  0  0  0  0  0  0  0  0  0  # atno 17370 bound_to 10713
  156.9328  130.9719  151.3530 LP  0  0  0  0  0  0  0  0  0  0  0  0  # atno 17371 bound_to 10713
  139.8729  134.9855  156.5286 LP  0  0  0  0  0  0  0  0  0  0  0  0  # atno 17394 bound_to 11000
  140.8355  133.8245  155.9025 LP  0  0  0  0  0  0  0  0  0  0  0  0  # atno 17395 bound_to 11000

$$$$
