AV-unprocessed.smi:1942|AV-procd|sdf|7849|dock3
  -GOLD-   22720 9593D 1   1.00000     0.00000
 Structure written by MMmdl.
 35 37  0  0  0  0  0  0  0  0  1 V2000
  152.7344  140.0493  155.4501 O   0  0  0  0  0  0  0  0  0  0  0  0
  151.5611  139.7563  155.2196 C   0  0  0  0  0  0  0  0  0  0  0  0
  151.1851  138.4850  154.5899 C   0  0  0  0  0  0  0  0  0  0  0  0
  149.8974  138.1701  154.3466 C   0  0  0  0  0  0  0  0  0  0  0  0
  148.8420  139.0883  154.7043 C   0  0  0  0  0  0  0  0  0  0  0  0
  149.1820  140.2534  155.2780 C   0  0  0  0  0  0  0  0  0  0  0  0
  150.5250  140.5927  155.5364 N   0  0  0  0  0  0  0  0  0  0  0  0
  150.7774  141.8985  156.1681 C   0  0  0  0  0  0  0  0  0  0  0  0
  151.5487  141.7452  157.4576 C   0  0  0  0  0  0  0  0  0  0  0  0
  152.1453  140.6048  157.8192 N   0  0  0  0  0  0  0  0  0  0  0  0
  152.7099  140.9220  159.0376 C   0  0  0  0  0  0  0  0  0  0  0  0
  153.4838  140.1387  159.9230 C   0  0  0  0  0  0  0  0  0  0  0  0
  153.9571  140.6864  161.1335 C   0  0  0  0  0  0  0  0  0  0  0  0
  154.9015  139.7162  162.2026 Cl  0  0  0  0  0  0  0  0  0  0  0  0
  153.6616  142.0225  161.4748 C   0  0  0  0  0  0  0  0  0  0  0  0
  152.8911  142.8196  160.6064 C   0  0  0  0  0  0  0  0  0  0  0  0
  152.4232  142.2676  159.3988 C   0  0  0  0  0  0  0  0  0  0  0  0
  151.6589  142.7655  158.3482 N   0  0  0  0  0  0  0  0  0  0  0  0
  151.1043  144.1107  158.2671 C   0  0  0  0  0  0  0  0  0  0  0  0
  150.6023  144.6254  159.6265 C   0  0  0  0  0  0  0  0  0  0  0  0
  149.4842  145.4734  159.4714 O   0  0  0  0  0  0  0  0  0  0  0  0
  151.9611  137.7855  154.3158 H   0  0  0  0  0  0  0  0  0  0  0  0
  149.6534  137.2259  153.8826 H   0  0  0  0  0  0  0  0  0  0  0  0
  147.8068  138.8432  154.5179 H   0  0  0  0  0  0  0  0  0  0  0  0
  148.4536  140.9917  155.5808 H   0  0  0  0  0  0  0  0  0  0  0  0
  151.3229  142.5360  155.4721 H   0  0  0  0  0  0  0  0  0  0  0  0
  149.8449  142.4222  156.3821 H   0  0  0  0  0  0  0  0  0  0  0  0
  153.7134  139.1144  159.6689 H   0  0  0  0  0  0  0  0  0  0  0  0
  154.0262  142.4364  162.4036 H   0  0  0  0  0  0  0  0  0  0  0  0
  152.6636  143.8429  160.8651 H   0  0  0  0  0  0  0  0  0  0  0  0
  151.8411  144.7926  157.8430 H   0  0  0  0  0  0  0  0  0  0  0  0
  150.2761  144.0914  157.5579 H   0  0  0  0  0  0  0  0  0  0  0  0
  150.3215  143.7874  160.2649 H   0  0  0  0  0  0  0  0  0  0  0  0
  151.3909  145.1723  160.1440 H   0  0  0  0  0  0  0  0  0  0  0  0
  149.0517  145.2575  158.6592 H   0  0  0  0  0  0  0  0  0  0  0  0
  1  2  2  0  0  0  0
  2  7  1  0  0  0  0
  2  3  1  0  0  0  0
  3  4  2  0  0  0  0
  3 22  1  0  0  0  0
  4  5  1  0  0  0  0
  4 23  1  0  0  0  0
  5  6  2  0  0  0  0
  5 24  1  0  0  0  0
  6  7  1  0  0  0  0
  6 25  1  0  0  0  0
  7  8  1  0  0  0  0
  8  9  1  0  0  0  0
  8 26  1  0  0  0  0
  8 27  1  0  0  0  0
  9 18  1  0  0  0  0
  9 10  2  0  0  0  0
 10 11  1  0  0  0  0
 11 17  2  0  0  0  0
 11 12  1  0  0  0  0
 12 13  2  0  0  0  0
 12 28  1  0  0  0  0
 13 14  1  0  0  0  0
 13 15  1  0  0  0  0
 15 16  2  0  0  0  0
 15 29  1  0  0  0  0
 16 17  1  0  0  0  0
 16 30  1  0  0  0  0
 17 18  1  0  0  0  0
 18 19  1  0  0  0  0
 19 20  1  0  0  0  0
 19 31  1  0  0  0  0
 19 32  1  0  0  0  0
 20 21  1  0  0  0  0
 20 33  1  0  0  0  0
 20 34  1  0  0  0  0
 21 35  1  0  0  0  0
M  END
> <s_m_source_file>
AV-unprocessed.smi

> <i_m_source_file_index>
1942

> <i_lp_mmshare_version>
43012

> <i_f3d_flags>
0

> <s_epik_input>
Tz1jMVtjSF1bY0hdW2NIXVtjSF1uMVtDSDJdYyhuMiluKFtDSDJdW0NIMl1bT0hdKWMoYzIzKVtjSF1bY0hdYyhDbClbY0hdMw==

> <s_epik_cmdline>
J2VwaWtfcHl0aG9uJywgJy1waCcsICc3LjAnLCAnLXRuJywgJzgnLCAnLW1hJywgJzIwMCcsICctbWV0YWxfYmluZGluZycsICctaW1hZScsICc8aW5maWxlLm1hZT4nLCAnLW9tYWUnLCAnPG91dGZpbGUubWFlPic=

> <r_lp_tautomer_probability>
1

> <r_epik_Ionization_Penalty>
0.0394182

> <r_epik_Ionization_Penalty_Charging>
8.17328e-07

> <r_epik_Ionization_Penalty_Neutral>
0.0394174

> <r_epik_State_Penalty>
0.0331163

> <r_epik_Charging_Adjusted_Penalty>
0.0331171

> <i_epik_Tot_Q>
0

> <i_epik_Tot_abs_Q>
0

> <r_epik_Metal_State_Penalty>
3.40583e-05

> <b_epik_Metal_Only>
0

> <s_lp_Force_Field>
OPLS_2005

> <r_lp_Energy>
18.6161

> <b_lp_Chiralities_Consistent>
1

> <s_lp_Variant>
AV-unprocessed.smi:1942-1

> <Gold.Version>
5.8.1

> <Gold.Id.Protein>
6NUR|6NUR_protein|mol2

> <Gold.PLP.Fitness>
51.4391

> <Gold.PLP.PLP>
-46.8238

> <Gold.PLP.part.hbond>
-3.9838

> <Gold.PLP.part.metal>
0.0000

> <Gold.PLP.part.buried>
-1.8984

> <Gold.PLP.part.nonpolar>
-41.1995

> <Gold.PLP.part.repulsive>
0.0000

> <Gold.PLP.ligand.clash>
0.0000

> <Gold.PLP.ligand.torsion>
0.6850

> <Gold.PLP.Chemscore.Hbond>
1.9920

> <Gold.PLP.Chemscore.CHOScore>
0.0000

> <Gold.PLP.Chemscore.Metal>
0.0000

> <Gold.Chemscore.Hbonds>
donor molecule, donor type, donor heavy atom, donor atom, acceptor molecule, acceptor atom, score
      L1  H    21    35       P1  8029  0.88
      P1  H  7997  8009       L1     1  1.00

> <Gold.PLP.Chemscore.Internal.Correction>
0.0092

> <Gold.Rescore>
     Score         DG    S(hbond)    S(metal)    S(lipo)     H(rot)  DE(clash)    DE(int)     intcor
     12.41     -18.60       1.65        0.00     114.93       2.27       1.14       5.04       ----

> <Gold.Chemscore.Fitness>
12.4108

> <Gold.Chemscore.DG>
-18.5983

> <Gold.Chemscore.ZeroCoef>
-5.4800

> <Gold.Chemscore.Hbond>
1.6455

> <Gold.Chemscore.Metal>
0.0000

> <Gold.Chemscore.Lipo>
114.9252

> <Gold.Chemscore.Internal_Hbond>
0.0000

> <Gold.Chemscore.DEClash>
1.1431

> <Gold.Chemscore.DEInternal>
5.0443

> <Gold.Chemscore.Rot>
2.2750

> <Gold.Chemscore.Internal.Correction>
   9.000000E+99

> <Gold.Chemscore.Hbonds>
donor molecule, donor type, donor heavy atom, donor atom, acceptor molecule, acceptor atom, score
      L1  H    21    35       P1  8029  0.84
      P1  H  7997  8009       L1     1  1.00

> <Gold.Chemscore.Hbond.Weighted>
-5.4960

> <Gold.Chemscore.Metal.Weighted>
-0.0000

> <Gold.Chemscore.Lipo.Weighted>
-13.4462

> <Gold.Chemscore.Internal_Hbond.Weighted>
0.0000

> <Gold.Chemscore.DEClash.Weighted>
1.1431

> <Gold.Chemscore.DEInternal.Weighted>
5.0443

> <Gold.Chemscore.Rot.Weighted>
5.8240

> <Gold.Chemscore.Internal.Correction.Weighted>
   9.000000E+99

> <Gold.Protein.RotatedTorsions>
[ 6907 6896 6895 6894 ] final  127.16 input  -60.11 | X-H torsion
[ 7974 7965 7964 7962 ] final  163.30 input  175.53 | X-H torsion
[ 8008 7997 7996 7995 ] final -153.75 input   59.86 | X-H torsion
[ 10167 10162 10161 10158 ] final  128.83 input  -65.29 | X-H torsion
[ 10718 10713 10712 10709 ] final   35.00 input   66.30 | X-H torsion
[ 10763 10752 10751 10750 ] final -148.08 input  -60.55 | X-H torsion
[ 11005 11000 10999 10996 ] final  126.58 input  -57.11 | X-H torsion

> <Gold.Protein.ActiveResidues>
 VAL166  LYS551  ARG553  GLY616  TRP617  ASP618  TYR619  PRO620  LYS621  CYS622 
 ASP623  PHE694  ASN695  SER759  ASP760  ASP761  ALA762  ILE779  LEU786  VAL792 
 PHE793  MET794  SER795  GLU796  ALA797  LYS798  CYS799  TRP800  GLU811  SER814 

> <Gold.Protein.RotatedAtoms>
  152.3838  133.6583  159.6182 H   0  0  0  0  0  0  0  0  0  0  0  0  # atno 6907 bound_to 6896
  150.7762  133.9069  159.3367 H   0  0  0  0  0  0  0  0  0  0  0  0  # atno 6908 bound_to 6896
  151.6870  135.0954  160.0278 H   0  0  0  0  0  0  0  0  0  0  0  0  # atno 6909 bound_to 6896
  144.7596  139.8163  143.6337 H   0  0  0  0  0  0  0  0  0  0  0  0  # atno 7974 bound_to 7965
  155.6757  140.0738  157.2503 H   0  0  0  0  0  0  0  0  0  0  0  0  # atno 8008 bound_to 7997
  154.4115  140.1691  156.1979 H   0  0  0  0  0  0  0  0  0  0  0  0  # atno 8009 bound_to 7997
  155.9578  140.3372  155.6467 H   0  0  0  0  0  0  0  0  0  0  0  0  # atno 8010 bound_to 7997
  139.5508  144.6811  151.4331 H   0  0  0  0  0  0  0  0  0  0  0  0  # atno 10167 bound_to 10162
  157.3173  130.7430  149.6762 H   0  0  0  0  0  0  0  0  0  0  0  0  # atno 10718 bound_to 10713
  154.8252  135.3343  154.6918 H   0  0  0  0  0  0  0  0  0  0  0  0  # atno 10763 bound_to 10752
  153.7545  135.6937  153.4943 H   0  0  0  0  0  0  0  0  0  0  0  0  # atno 10764 bound_to 10752
  153.2153  135.4468  155.0377 H   0  0  0  0  0  0  0  0  0  0  0  0  # atno 10765 bound_to 10752
  139.9463  134.9629  156.8728 H   0  0  0  0  0  0  0  0  0  0  0  0  # atno 11005 bound_to 11000
  146.1645  139.4771  142.9967 LP  0  0  0  0  0  0  0  0  0  0  0  0  # atno 17320 bound_to 7965
  145.6663  141.0228  143.1681 LP  0  0  0  0  0  0  0  0  0  0  0  0  # atno 17321 bound_to 7965
  140.6769  143.8169  150.7070 LP  0  0  0  0  0  0  0  0  0  0  0  0  # atno 17342 bound_to 10162
  140.1610  143.4275  152.2067 LP  0  0  0  0  0  0  0  0  0  0  0  0  # atno 17343 bound_to 10162
  155.9682  130.4233  150.4558 LP  0  0  0  0  0  0  0  0  0  0  0  0  # atno 17370 bound_to 10713
  157.2568  131.0558  151.2345 LP  0  0  0  0  0  0  0  0  0  0  0  0  # atno 17371 bound_to 10713
  140.5825  134.0338  155.7469 LP  0  0  0  0  0  0  0  0  0  0  0  0  # atno 17394 bound_to 11000
  141.1115  133.9609  157.2902 LP  0  0  0  0  0  0  0  0  0  0  0  0  # atno 17395 bound_to 11000

$$$$
