AV-unprocessed.smi:276|AV-procd|sdf|2076|dock1
  -GOLD-   2262021343D 1   1.00000     0.00000
 Structure written by MMmdl.
 57 61  0  0  0  0  0  0  0  0  1 V2000
  146.8982  132.1640  152.1878 C   0  0  0  0  0  0  0  0  0  0  0  0
  147.0019  132.7253  153.4845 O   0  0  0  0  0  0  0  0  0  0  0  0
  148.0506  133.6751  153.5862 C   0  0  2  0  0  0  0  0  0  0  0  0
  149.3349  133.1321  154.2228 C   0  0  0  0  0  0  0  0  0  0  0  0
  149.4678  134.4906  154.9234 C   0  0  2  0  0  0  0  0  0  0  0  0
  150.0187  134.3829  156.2767 N   0  0  0  0  0  0  0  0  0  0  0  0
  151.2235  133.5746  156.4144 C   0  0  0  0  0  0  0  0  0  0  0  0
  150.1508  135.5414  156.9615 C   0  0  0  0  0  0  0  0  0  0  0  0
  149.4724  135.6433  158.1319 N   0  0  0  0  0  0  0  0  0  0  0  0
  149.5331  136.7711  158.8458 C   0  0  0  0  0  0  0  0  0  0  0  0
  150.2045  137.8931  158.5784 N   0  0  0  0  0  0  0  0  0  0  0  0
  150.9086  137.7830  157.4159 C   0  0  0  0  0  0  0  0  0  0  0  0
  150.9493  136.6493  156.5564 C   0  0  0  0  0  0  0  0  0  0  0  0
  151.7916  136.9040  155.4799 N   0  0  0  0  0  0  0  0  0  0  0  0
  152.2032  138.1261  155.6779 C   0  0  0  0  0  0  0  0  0  0  0  0
  151.7131  138.7313  156.8123 N   0  0  0  0  0  0  0  0  0  0  0  0
  151.9861  140.0817  157.2664 C   0  0  0  0  0  0  0  0  0  0  0  0
  152.2775  140.1605  158.7800 C   0  0  1  0  0  0  0  0  0  0  0  0
  153.6730  140.0076  158.9442 O   0  0  0  0  0  0  0  0  0  0  0  0
  151.8249  141.4785  159.4478 C   0  0  2  0  0  0  0  0  0  0  0  0
  152.1868  142.7436  158.6693 C   0  0  0  0  0  0  0  0  0  0  0  0
  152.1059  143.8250  159.7298 C   0  0  0  0  0  0  0  0  0  0  0  0
  152.3823  143.0711  161.0325 C   0  0  0  0  0  0  0  0  0  0  0  0
  152.5188  141.7023  160.6679 O   0  0  0  0  0  0  0  0  0  0  0  0
  147.9244  134.6154  154.8006 C   0  0  0  0  0  0  0  0  0  0  0  0
  147.2316  135.9767  154.6565 C   0  0  0  0  0  0  0  0  0  0  0  0
  146.5998  135.7779  156.0378 C   0  0  0  0  0  0  0  0  0  0  0  0
  146.9532  134.2891  155.9540 C   0  0  0  0  0  0  0  0  0  0  0  0
  146.0795  131.4451  152.1654 H   0  0  0  0  0  0  0  0  0  0  0  0
  147.8126  131.6402  151.9067 H   0  0  0  0  0  0  0  0  0  0  0  0
  146.6916  132.9328  151.4422 H   0  0  0  0  0  0  0  0  0  0  0  0
  148.2333  134.2266  152.6610 H   0  0  0  0  0  0  0  0  0  0  0  0
  149.1497  132.3034  154.9093 H   0  0  0  0  0  0  0  0  0  0  0  0
  150.1321  132.9023  153.5157 H   0  0  0  0  0  0  0  0  0  0  0  0
  149.9902  135.2022  154.2826 H   0  0  0  0  0  0  0  0  0  0  0  0
  152.0514  134.0192  155.8606 H   0  0  0  0  0  0  0  0  0  0  0  0
  151.0586  132.5686  156.0284 H   0  0  0  0  0  0  0  0  0  0  0  0
  151.5198  133.4806  157.4601 H   0  0  0  0  0  0  0  0  0  0  0  0
  148.9564  136.7773  159.7589 H   0  0  0  0  0  0  0  0  0  0  0  0
  152.8708  138.6264  154.9915 H   0  0  0  0  0  0  0  0  0  0  0  0
  152.8335  140.4662  156.6970 H   0  0  0  0  0  0  0  0  0  0  0  0
  151.1298  140.7086  157.0130 H   0  0  0  0  0  0  0  0  0  0  0  0
  151.7975  139.3227  159.2872 H   0  0  0  0  0  0  0  0  0  0  0  0
  153.8714  140.0458  159.8675 H   0  0  0  0  0  0  0  0  0  0  0  0
  150.7508  141.4602  159.6430 H   0  0  0  0  0  0  0  0  0  0  0  0
  153.2072  142.6732  158.2894 H   0  0  0  0  0  0  0  0  0  0  0  0
  151.5220  142.9301  157.8252 H   0  0  0  0  0  0  0  0  0  0  0  0
  152.8199  144.6294  159.5506 H   0  0  0  0  0  0  0  0  0  0  0  0
  151.1057  144.2600  159.7545 H   0  0  0  0  0  0  0  0  0  0  0  0
  153.2911  143.4203  161.5227 H   0  0  0  0  0  0  0  0  0  0  0  0
  151.5536  143.1858  161.7322 H   0  0  0  0  0  0  0  0  0  0  0  0
  147.9059  136.8297  154.5880 H   0  0  0  0  0  0  0  0  0  0  0  0
  146.4905  135.9881  153.8563 H   0  0  0  0  0  0  0  0  0  0  0  0
  147.1339  136.3045  156.8286 H   0  0  0  0  0  0  0  0  0  0  0  0
  145.5300  135.9845  156.0755 H   0  0  0  0  0  0  0  0  0  0  0  0
  146.0978  133.6892  155.6423 H   0  0  0  0  0  0  0  0  0  0  0  0
  147.4087  133.8784  156.8543 H   0  0  0  0  0  0  0  0  0  0  0  0
  1  2  1  0  0  0  0
  1 29  1  0  0  0  0
  1 30  1  0  0  0  0
  1 31  1  0  0  0  0
  2  3  1  0  0  0  0
  3 25  1  0  0  0  0
  3  4  1  0  0  0  0
  3 32  1  0  0  0  0
  4  5  1  0  0  0  0
  4 33  1  0  0  0  0
  4 34  1  0  0  0  0
  5  6  1  0  0  0  0
  5 25  1  0  0  0  0
  5 35  1  0  0  0  0
  6  7  1  0  0  0  0
  6  8  1  0  0  0  0
  7 36  1  0  0  0  0
  7 37  1  0  0  0  0
  7 38  1  0  0  0  0
  8 13  1  0  0  0  0
  8  9  2  0  0  0  0
  9 10  1  0  0  0  0
 10 11  2  0  0  0  0
 10 39  1  0  0  0  0
 11 12  1  0  0  0  0
 12 16  1  0  0  0  0
 12 13  2  0  0  0  0
 13 14  1  0  0  0  0
 14 15  2  0  0  0  0
 15 16  1  0  0  0  0
 15 40  1  0  0  0  0
 16 17  1  0  0  0  0
 17 18  1  0  0  0  0
 17 41  1  0  0  0  0
 17 42  1  0  0  0  0
 18 19  1  0  0  0  0
 18 20  1  0  0  0  0
 18 43  1  0  0  0  0
 19 44  1  0  0  0  0
 20 24  1  0  0  0  0
 20 21  1  0  0  0  0
 20 45  1  0  0  0  0
 21 22  1  0  0  0  0
 21 46  1  0  0  0  0
 21 47  1  0  0  0  0
 22 23  1  0  0  0  0
 22 48  1  0  0  0  0
 22 49  1  0  0  0  0
 23 24  1  0  0  0  0
 23 50  1  0  0  0  0
 23 51  1  0  0  0  0
 25 28  1  0  0  0  0
 25 26  1  0  0  0  0
 26 27  1  0  0  0  0
 26 52  1  0  0  0  0
 26 53  1  0  0  0  0
 27 28  1  0  0  0  0
 27 54  1  0  0  0  0
 27 55  1  0  0  0  0
 28 56  1  0  0  0  0
 28 57  1  0  0  0  0
M  END
> <s_m_source_file>
AV-unprocessed.smi

> <i_m_source_file_index>
276

> <i_lp_mmshare_version>
43012

> <i_f3d_flags>
0

> <s_epik_input>
W0NIMl0xW0NIMl1bQ0gyXUMxMltDQEhdKE9bQ0gzXSlbQ0gyXVtDQEhdMk4oW0NIM10pYyhuW2NIXW4zKWMoYzM0KW5bY0hdbjRbQ0gyXVtDQEhdKFtPSF0pW0NAQEhdNVtDSDJdW0NIMl1bQ0gyXU81

> <s_epik_cmdline>
J2VwaWtfcHl0aG9uJywgJy1waCcsICc3LjAnLCAnLXRuJywgJzgnLCAnLW1hJywgJzIwMCcsICctbWV0YWxfYmluZGluZycsICctaW1hZScsICc8aW5maWxlLm1hZT4nLCAnLW9tYWUnLCAnPG91dGZpbGUubWFlPic=

> <r_lp_tautomer_probability>
1

> <r_epik_Ionization_Penalty>
0.00204117

> <r_epik_Ionization_Penalty_Charging>
0

> <r_epik_Ionization_Penalty_Neutral>
0.00204117

> <r_epik_State_Penalty>
0.00127401

> <r_epik_Charging_Adjusted_Penalty>
0.00127401

> <i_epik_Tot_Q>
0

> <i_epik_Tot_abs_Q>
0

> <r_epik_Metal_State_Penalty>
-0

> <b_epik_Metal_Only>
0

> <s_lp_Force_Field>
OPLS_2005

> <r_lp_Energy>
54.0539

> <b_lp_Chiralities_Consistent>
1

> <s_lp_Variant>
AV-unprocessed.smi:276-7

> <Gold.Version>
5.8.1

> <Gold.Id.Protein>
6NUR|6NUR_protein|mol2

> <Gold.PLP.Fitness>
42.2687

> <Gold.PLP.PLP>
-37.7948

> <Gold.PLP.part.hbond>
-3.0000

> <Gold.PLP.part.metal>
0.0000

> <Gold.PLP.part.buried>
-4.4392

> <Gold.PLP.part.nonpolar>
-30.2666

> <Gold.PLP.part.repulsive>
0.1379

> <Gold.PLP.ligand.clash>
0.0000

> <Gold.PLP.ligand.torsion>
1.7945

> <Gold.PLP.Chemscore.Hbond>
2.3760

> <Gold.PLP.Chemscore.CHOScore>
0.0000

> <Gold.PLP.Chemscore.Metal>
0.0000

> <Gold.Chemscore.Hbonds>
donor molecule, donor type, donor heavy atom, donor atom, acceptor molecule, acceptor atom, score
      P1  H  6896  6909       L1     9  0.23
      P1  H  7997  8009       L1    19  0.73
      P1  H 10752 10764       L1    14  1.00

> <Gold.PLP.Chemscore.Internal.Correction>
0.9348

> <Gold.Rescore>
     Score         DG    S(hbond)    S(metal)    S(lipo)     H(rot)  DE(clash)    DE(int)     intcor
     13.13     -15.04       1.82        0.00      89.14       2.72       0.03       1.88       ----

> <Gold.Chemscore.Fitness>
13.1289

> <Gold.Chemscore.DG>
-15.0392

> <Gold.Chemscore.ZeroCoef>
-5.4800

> <Gold.Chemscore.Hbond>
1.8220

> <Gold.Chemscore.Metal>
0.0000

> <Gold.Chemscore.Lipo>
89.1427

> <Gold.Chemscore.Internal_Hbond>
0.0000

> <Gold.Chemscore.DEClash>
0.0296

> <Gold.Chemscore.DEInternal>
1.8807

> <Gold.Chemscore.Rot>
2.7172

> <Gold.Chemscore.Internal.Correction>
   9.000000E+99

> <Gold.Chemscore.Hbonds>
donor molecule, donor type, donor heavy atom, donor atom, acceptor molecule, acceptor atom, score
      P1  H  7997  8009       L1    19  0.48
      P1  H 10752 10764       L1    14  0.94

> <Gold.Chemscore.Hbond.Weighted>
-6.0855

> <Gold.Chemscore.Metal.Weighted>
-0.0000

> <Gold.Chemscore.Lipo.Weighted>
-10.4297

> <Gold.Chemscore.Internal_Hbond.Weighted>
0.0000

> <Gold.Chemscore.DEClash.Weighted>
0.0296

> <Gold.Chemscore.DEInternal.Weighted>
1.8807

> <Gold.Chemscore.Rot.Weighted>
6.9560

> <Gold.Chemscore.Internal.Correction.Weighted>
   9.000000E+99

> <Gold.Protein.RotatedTorsions>
[ 6907 6896 6895 6894 ] final   63.22 input  -60.11 | X-H torsion
[ 7974 7965 7964 7962 ] final  -25.44 input  175.53 | X-H torsion
[ 8008 7997 7996 7995 ] final  154.51 input   59.86 | X-H torsion
[ 10167 10162 10161 10158 ] final   87.35 input  -65.29 | X-H torsion
[ 10718 10713 10712 10709 ] final   -5.79 input   66.30 | X-H torsion
[ 10763 10752 10751 10750 ] final  -58.89 input  -60.55 | X-H torsion
[ 11005 11000 10999 10996 ] final   68.35 input  -57.11 | X-H torsion

> <Gold.Protein.ActiveResidues>
 VAL166  LYS551  ARG553  GLY616  TRP617  ASP618  TYR619  PRO620  LYS621  CYS622 
 ASP623  PHE694  ASN695  SER759  ASP760  ASP761  ALA762  ILE779  LEU786  VAL792 
 PHE793  MET794  SER795  GLU796  ALA797  LYS798  CYS799  TRP800  GLU811  SER814 

> <Gold.Protein.RotatedAtoms>
  152.4235  134.5911  159.9974 H   0  0  0  0  0  0  0  0  0  0  0  0  # atno 6907 bound_to 6896
  151.6054  133.3346  159.3064 H   0  0  0  0  0  0  0  0  0  0  0  0  # atno 6908 bound_to 6896
  150.8124  134.7324  159.6765 H   0  0  0  0  0  0  0  0  0  0  0  0  # atno 6909 bound_to 6896
  146.1491  140.4887  142.8619 H   0  0  0  0  0  0  0  0  0  0  0  0  # atno 7974 bound_to 7965
  156.2527  140.1964  156.6657 H   0  0  0  0  0  0  0  0  0  0  0  0  # atno 8008 bound_to 7997
  154.6431  140.0581  156.9894 H   0  0  0  0  0  0  0  0  0  0  0  0  # atno 8009 bound_to 7997
  155.1533  140.3253  155.4429 H   0  0  0  0  0  0  0  0  0  0  0  0  # atno 8010 bound_to 7997
  139.8783  144.6454  150.8872 H   0  0  0  0  0  0  0  0  0  0  0  0  # atno 10167 bound_to 10162
  156.7414  130.5211  149.5823 H   0  0  0  0  0  0  0  0  0  0  0  0  # atno 10718 bound_to 10713
  154.2452  135.6336  153.5221 H   0  0  0  0  0  0  0  0  0  0  0  0  # atno 10763 bound_to 10752
  152.9922  135.5551  154.5867 H   0  0  0  0  0  0  0  0  0  0  0  0  # atno 10764 bound_to 10752
  154.5382  135.2893  155.1094 H   0  0  0  0  0  0  0  0  0  0  0  0  # atno 10765 bound_to 10752
  139.9716  134.6890  156.0435 H   0  0  0  0  0  0  0  0  0  0  0  0  # atno 11005 bound_to 11000
  144.7881  140.5978  143.6560 LP  0  0  0  0  0  0  0  0  0  0  0  0  # atno 17320 bound_to 7965
  145.4867  139.1491  143.3732 LP  0  0  0  0  0  0  0  0  0  0  0  0  # atno 17321 bound_to 7965
  140.7749  143.3607  151.1834 LP  0  0  0  0  0  0  0  0  0  0  0  0  # atno 17342 bound_to 10162
  139.7220  143.9209  152.2989 LP  0  0  0  0  0  0  0  0  0  0  0  0  # atno 17343 bound_to 10162
  156.1462  130.6279  151.0535 LP  0  0  0  0  0  0  0  0  0  0  0  0  # atno 17370 bound_to 10713
  157.6817  131.0836  150.7352 LP  0  0  0  0  0  0  0  0  0  0  0  0  # atno 17371 bound_to 10713
  141.1396  133.6567  156.3691 LP  0  0  0  0  0  0  0  0  0  0  0  0  # atno 17394 bound_to 11000
  140.5281  134.6239  157.5341 LP  0  0  0  0  0  0  0  0  0  0  0  0  # atno 17395 bound_to 11000

$$$$
