AV-unprocessed.smi:3318|AV-procd|sdf|12763|dock2
  -GOLD-   2272019103D 1   1.00000     0.00000
 Structure written by MMmdl.
 45 46  0  0  0  0  0  0  0  0  3 V2000
  149.7373  132.6183  154.3251 C   0  0  0  0  0  0  0  0  0  0  0  0
  149.2269  134.0598  154.4252 C   0  0  0  0  0  0  0  0  0  0  0  0
  150.3300  135.0418  154.8572 C   0  0  0  0  0  0  0  0  0  0  0  0
  149.9908  136.4563  154.5544 N   0  3  2  0  0  0  0  0  0  0  0  0
  151.1743  137.3571  154.5473 C   0  0  0  0  0  0  0  0  0  0  0  0
  150.7890  138.7829  154.1127 C   0  0  0  0  0  0  0  0  0  0  0  0
  149.6685  139.3795  154.9887 C   0  0  2  0  0  0  0  0  0  0  0  0
  150.1289  139.7188  156.3568 N   0  3  0  0  0  0  0  0  0  0  0  0
  151.3235  140.5868  156.4264 C   0  0  0  0  0  0  0  0  0  0  0  0
  151.8655  140.6592  157.8607 C   0  0  0  0  0  0  0  0  0  0  0  0
  151.9133  142.0822  158.3838 C   0  0  0  0  0  0  0  0  0  0  0  0
  152.5525  142.3818  159.6057 C   0  0  0  0  0  0  0  0  0  0  0  0
  152.5711  143.7211  160.0414 C   0  0  0  0  0  0  0  0  0  0  0  0
  151.9553  144.7032  159.2416 C   0  0  0  0  0  0  0  0  0  0  0  0
  151.3452  144.3012  158.0367 C   0  0  0  0  0  0  0  0  0  0  0  0
  151.3221  143.0197  157.6097 N   0  0  0  0  0  0  0  0  0  0  0  0
  148.4859  138.3958  155.0372 C   0  0  0  0  0  0  0  0  0  0  0  0
  148.9205  136.9755  155.4450 C   0  0  0  0  0  0  0  0  0  0  0  0
  148.9388  131.9439  154.0140 H   0  0  0  0  0  0  0  0  0  0  0  0
  150.1141  132.2643  155.2851 H   0  0  0  0  0  0  0  0  0  0  0  0
  150.5441  132.5355  153.5963 H   0  0  0  0  0  0  0  0  0  0  0  0
  148.8133  134.3458  153.4586 H   0  0  0  0  0  0  0  0  0  0  0  0
  148.4025  134.0971  155.1383 H   0  0  0  0  0  0  0  0  0  0  0  0
  150.4694  134.9337  155.9339 H   0  0  0  0  0  0  0  0  0  0  0  0
  151.2840  134.7810  154.3960 H   0  0  0  0  0  0  0  0  0  0  0  0
  151.6289  137.3735  155.5389 H   0  0  0  0  0  0  0  0  0  0  0  0
  151.9327  136.9801  153.8624 H   0  0  0  0  0  0  0  0  0  0  0  0
  151.6700  139.4240  154.1058 H   0  0  0  0  0  0  0  0  0  0  0  0
  150.4450  138.7493  153.0778 H   0  0  0  0  0  0  0  0  0  0  0  0
  149.3133  140.3031  154.5287 H   0  0  0  0  0  0  0  0  0  0  0  0
  149.3787  140.2162  156.8158 H   0  0  0  0  0  0  0  0  0  0  0  0
  152.1004  140.2069  155.7631 H   0  0  0  0  0  0  0  0  0  0  0  0
  151.0609  141.5868  156.0781 H   0  0  0  0  0  0  0  0  0  0  0  0
  151.2437  140.0602  158.5280 H   0  0  0  0  0  0  0  0  0  0  0  0
  152.8666  140.2280  157.9042 H   0  0  0  0  0  0  0  0  0  0  0  0
  153.0174  141.6074  160.1981 H   0  0  0  0  0  0  0  0  0  0  0  0
  153.0492  143.9901  160.9720 H   0  0  0  0  0  0  0  0  0  0  0  0
  151.9502  145.7400  159.5439 H   0  0  0  0  0  0  0  0  0  0  0  0
  150.8639  145.0277  157.3987 H   0  0  0  0  0  0  0  0  0  0  0  0
  147.7154  138.7622  155.7168 H   0  0  0  0  0  0  0  0  0  0  0  0
  148.0201  138.3513  154.0516 H   0  0  0  0  0  0  0  0  0  0  0  0
  148.0536  136.3148  155.4010 H   0  0  0  0  0  0  0  0  0  0  0  0
  149.2699  136.9667  156.4785 H   0  0  0  0  0  0  0  0  0  0  0  0
  149.6076  136.4613  153.6194 H   0  0  0  0  0  0  0  0  0  0  0  0
  150.3079  138.8676  156.8697 H   0  0  0  0  0  0  0  0  0  0  0  0
  1  2  1  0  0  0  0
  1 19  1  0  0  0  0
  1 20  1  0  0  0  0
  1 21  1  0  0  0  0
  2  3  1  0  0  0  0
  2 22  1  0  0  0  0
  2 23  1  0  0  0  0
  3  4  1  0  0  0  0
  3 24  1  0  0  0  0
  3 25  1  0  0  0  0
  4 18  1  0  0  0  0
  4  5  1  0  0  0  0
  4 44  1  0  0  0  0
  5  6  1  0  0  0  0
  5 26  1  0  0  0  0
  5 27  1  0  0  0  0
  6  7  1  0  0  0  0
  6 28  1  0  0  0  0
  6 29  1  0  0  0  0
  7  8  1  0  0  0  0
  7 17  1  0  0  0  0
  7 30  1  0  0  0  0
  8  9  1  0  0  0  0
  8 31  1  0  0  0  0
  8 45  1  0  0  0  0
  9 10  1  0  0  0  0
  9 32  1  0  0  0  0
  9 33  1  0  0  0  0
 10 11  1  0  0  0  0
 10 34  1  0  0  0  0
 10 35  1  0  0  0  0
 11 16  1  0  0  0  0
 11 12  2  0  0  0  0
 12 13  1  0  0  0  0
 12 36  1  0  0  0  0
 13 14  2  0  0  0  0
 13 37  1  0  0  0  0
 14 15  1  0  0  0  0
 14 38  1  0  0  0  0
 15 16  2  0  0  0  0
 15 39  1  0  0  0  0
 17 18  1  0  0  0  0
 17 40  1  0  0  0  0
 17 41  1  0  0  0  0
 18 42  1  0  0  0  0
 18 43  1  0  0  0  0
M  CHG  1   4   1
M  CHG  1   8   1
M  END
> <s_m_source_file>
AV-unprocessed.smi

> <i_m_source_file_index>
3318

> <i_lp_mmshare_version>
43012

> <i_f3d_flags>
0

> <s_epik_input>
W0NIM11bQ0gyXVtDSDJdTjFbQ0gyXVtDSDJdW0NIXShbQ0gyXVtDSDJdMSlbTkhdW0NIMl1bQ0gyXWMyW2NIXVtjSF1bY0hdW2NIXW4y

> <s_epik_cmdline>
J2VwaWtfcHl0aG9uJywgJy1waCcsICc3LjAnLCAnLXRuJywgJzgnLCAnLW1hJywgJzIwMCcsICctbWV0YWxfYmluZGluZycsICctaW1hZScsICc8aW5maWxlLm1hZT4nLCAnLW9tYWUnLCAnPG91dGZpbGUubWFlPic=

> <r_epik_Ionization_Penalty>
0.0638186

> <r_epik_Ionization_Penalty_Charging>
0.0628538

> <r_epik_Ionization_Penalty_Neutral>
0.000964829

> <r_epik_State_Penalty>
0.0518488

> <r_epik_Charging_Adjusted_Penalty>
0.114703

> <i_epik_Tot_Q>
2

> <i_epik_Tot_abs_Q>
2

> <r_epik_Metal_State_Penalty>
0.0535981

> <b_epik_Metal_Only>
0

> <s_lp_Force_Field>
OPLS_2005

> <r_lp_Energy>
29.7366

> <b_lp_Chiralities_Consistent>
1

> <s_lp_Variant>
AV-unprocessed.smi:3318-2

> <Gold.Version>
5.8.1

> <Gold.Id.Protein>
6NUR|6NUR_protein|mol2

> <Gold.PLP.Fitness>
46.9399

> <Gold.PLP.PLP>
-39.1864

> <Gold.PLP.part.hbond>
-1.0000

> <Gold.PLP.part.metal>
0.0000

> <Gold.PLP.part.buried>
-5.1701

> <Gold.PLP.part.nonpolar>
-33.9202

> <Gold.PLP.part.repulsive>
0.1924

> <Gold.PLP.ligand.clash>
0.0000

> <Gold.PLP.ligand.torsion>
0.6840

> <Gold.PLP.Chemscore.Hbond>
2.0000

> <Gold.PLP.Chemscore.CHOScore>
0.9845

> <Gold.PLP.Chemscore.Metal>
0.0000

> <Gold.Chemscore.Hbonds>
donor molecule, donor type, donor heavy atom, donor atom, acceptor molecule, acceptor atom, score
      L1  H     4    44       P1  7948  2.00
      L1  C    15    39       P1  8028  0.82

> <Gold.PLP.Chemscore.Internal.Correction>
0.1679

> <Gold.Rescore>
     Score         DG    S(hbond)    S(metal)    S(lipo)     H(rot)  DE(clash)    DE(int)     intcor
     17.40     -18.14       0.94        0.00     115.44       1.55       0.14       0.60       ----

> <Gold.Chemscore.Fitness>
17.4022

> <Gold.Chemscore.DG>
-18.1424

> <Gold.Chemscore.ZeroCoef>
-5.4800

> <Gold.Chemscore.Hbond>
0.9378

> <Gold.Chemscore.Metal>
0.0000

> <Gold.Chemscore.Lipo>
115.4390

> <Gold.Chemscore.Internal_Hbond>
0.0000

> <Gold.Chemscore.DEClash>
0.1358

> <Gold.Chemscore.DEInternal>
0.6044

> <Gold.Chemscore.Rot>
1.5532

> <Gold.Chemscore.Internal.Correction>
   9.000000E+99

> <Gold.Chemscore.Hbonds>
donor molecule, donor type, donor heavy atom, donor atom, acceptor molecule, acceptor atom, score
      L1  H     4    44       P1  7948  0.60

> <Gold.Chemscore.Hbond.Weighted>
-3.1322

> <Gold.Chemscore.Metal.Weighted>
-0.0000

> <Gold.Chemscore.Lipo.Weighted>
-13.5064

> <Gold.Chemscore.Internal_Hbond.Weighted>
0.0000

> <Gold.Chemscore.DEClash.Weighted>
0.1358

> <Gold.Chemscore.DEInternal.Weighted>
0.6044

> <Gold.Chemscore.Rot.Weighted>
3.9762

> <Gold.Chemscore.Internal.Correction.Weighted>
   9.000000E+99

> <Gold.Protein.RotatedTorsions>
[ 6907 6896 6895 6894 ] final -146.86 input  -60.11 | X-H torsion
[ 7974 7965 7964 7962 ] final  150.89 input  175.53 | X-H torsion
[ 8008 7997 7996 7995 ] final  -80.29 input   59.86 | X-H torsion
[ 10167 10162 10161 10158 ] final   24.27 input  -65.29 | X-H torsion
[ 10718 10713 10712 10709 ] final -126.87 input   66.30 | X-H torsion
[ 10763 10752 10751 10750 ] final  174.35 input  -60.55 | X-H torsion
[ 11005 11000 10999 10996 ] final  167.34 input  -57.11 | X-H torsion

> <Gold.Protein.ActiveResidues>
 VAL166  LYS551  ARG553  GLY616  TRP617  ASP618  TYR619  PRO620  LYS621  CYS622 
 ASP623  PHE694  ASN695  SER759  ASP760  ASP761  ALA762  ILE779  LEU786  VAL792 
 PHE793  MET794  SER795  GLU796  ALA797  LYS798  CYS799  TRP800  GLU811  SER814 

> <Gold.Protein.RotatedAtoms>
  151.1475  133.4930  159.2595 H   0  0  0  0  0  0  0  0  0  0  0  0  # atno 6907 bound_to 6896
  151.1589  135.0263  159.8711 H   0  0  0  0  0  0  0  0  0  0  0  0  # atno 6908 bound_to 6896
  152.5463  134.1351  159.8508 H   0  0  0  0  0  0  0  0  0  0  0  0  # atno 6909 bound_to 6896
  144.8331  139.6467  143.6050 H   0  0  0  0  0  0  0  0  0  0  0  0  # atno 7974 bound_to 7965
  154.5869  140.0665  156.9183 H   0  0  0  0  0  0  0  0  0  0  0  0  # atno 8008 bound_to 7997
  155.2364  140.3341  155.4279 H   0  0  0  0  0  0  0  0  0  0  0  0  # atno 8009 bound_to 7997
  156.2229  140.1806  156.7419 H   0  0  0  0  0  0  0  0  0  0  0  0  # atno 8010 bound_to 7997
  140.5202  144.0016  150.6413 H   0  0  0  0  0  0  0  0  0  0  0  0  # atno 10167 bound_to 10162
  156.1805  130.6728  151.0298 H   0  0  0  0  0  0  0  0  0  0  0  0  # atno 10718 bound_to 10713
  154.4527  135.2765  155.1770 H   0  0  0  0  0  0  0  0  0  0  0  0  # atno 10763 bound_to 10752
  154.3590  135.6133  153.5684 H   0  0  0  0  0  0  0  0  0  0  0  0  # atno 10764 bound_to 10752
  152.9848  135.5830  154.4874 H   0  0  0  0  0  0  0  0  0  0  0  0  # atno 10765 bound_to 10752
  140.2758  134.7790  157.3715 H   0  0  0  0  0  0  0  0  0  0  0  0  # atno 11005 bound_to 11000
  146.2633  139.6460  142.9347 LP  0  0  0  0  0  0  0  0  0  0  0  0  # atno 17320 bound_to 7965
  145.4852  141.0438  143.2624 LP  0  0  0  0  0  0  0  0  0  0  0  0  # atno 17321 bound_to 7965
  140.3362  143.3047  152.0635 LP  0  0  0  0  0  0  0  0  0  0  0  0  # atno 17342 bound_to 10162
  139.4921  144.6474  151.6748 LP  0  0  0  0  0  0  0  0  0  0  0  0  # atno 17343 bound_to 10162
  157.6864  131.0823  150.7229 LP  0  0  0  0  0  0  0  0  0  0  0  0  # atno 17370 bound_to 10713
  156.7287  130.4703  149.5505 LP  0  0  0  0  0  0  0  0  0  0  0  0  # atno 17371 bound_to 10713
  140.1330  134.5070  155.8090 LP  0  0  0  0  0  0  0  0  0  0  0  0  # atno 17394 bound_to 11000
  141.2170  133.6797  156.7074 LP  0  0  0  0  0  0  0  0  0  0  0  0  # atno 17395 bound_to 11000

$$$$
