AV-unprocessed.smi:302|AV-procd|sdf|2272|dock10
  -GOLD-   2262022163D 1   1.00000     0.00000
 Structure written by MMmdl.
 44 45  0  0  0  0  0  0  0  0  1 V2000
  146.5870  133.9456  151.3674 C   0  0  0  0  0  0  0  0  0  0  0  0
  147.6292  132.9999  151.9680 C   0  0  0  0  0  0  0  0  0  0  0  0
  148.0772  133.5414  153.2059 O   0  0  0  0  0  0  0  0  0  0  0  0
  149.3723  133.1208  153.6308 C   0  0  2  0  0  0  0  0  0  0  0  0
  149.2172  131.7037  154.2205 C   0  0  0  0  0  0  0  0  0  0  0  0
  150.5467  131.0214  154.5770 C   0  0  0  0  0  0  0  0  0  0  0  0
  149.9447  134.1250  154.6478 C   0  0  0  0  0  0  0  0  0  0  0  0
  150.3875  133.7194  155.7222 O   0  0  0  0  0  0  0  0  0  0  0  0
  149.8866  135.4196  154.2847 N   0  0  0  0  0  0  0  0  0  0  0  0
  150.3021  136.5637  155.0169 C   0  0  0  0  0  0  0  0  0  0  0  0
  151.2055  136.5300  156.1039 C   0  0  0  0  0  0  0  0  0  0  0  0
  151.5471  137.7367  156.7440 C   0  0  0  0  0  0  0  0  0  0  0  0
  150.9876  138.9508  156.2798 C   0  0  0  0  0  0  0  0  0  0  0  0
  151.3090  140.1708  156.9137 N   0  0  0  0  0  0  0  0  0  0  0  0
  150.4912  141.3224  156.5409 C   0  0  0  0  0  0  0  0  0  0  0  0
  151.1451  142.6241  157.0359 C   0  0  0  0  0  0  0  0  0  0  0  0
  151.3816  142.5440  158.4377 O   0  0  0  0  0  0  0  0  0  0  0  0
  152.2703  141.4811  158.7647 C   0  0  0  0  0  0  0  0  0  0  0  0
  151.6540  140.1396  158.3339 C   0  0  0  0  0  0  0  0  0  0  0  0
  150.1306  138.9790  155.2297 N   0  0  0  0  0  0  0  0  0  0  0  0
  149.8079  137.8209  154.6175 C   0  0  0  0  0  0  0  0  0  0  0  0
  146.2151  133.5624  150.4168 H   0  0  0  0  0  0  0  0  0  0  0  0
  147.0130  134.9330  151.1862 H   0  0  0  0  0  0  0  0  0  0  0  0
  145.7348  134.0650  152.0369 H   0  0  0  0  0  0  0  0  0  0  0  0
  147.1859  132.0158  152.1270 H   0  0  0  0  0  0  0  0  0  0  0  0
  148.4559  132.8804  151.2670 H   0  0  0  0  0  0  0  0  0  0  0  0
  150.0282  133.0590  152.7600 H   0  0  0  0  0  0  0  0  0  0  0  0
  148.5758  131.7318  155.1024 H   0  0  0  0  0  0  0  0  0  0  0  0
  148.6945  131.0799  153.4947 H   0  0  0  0  0  0  0  0  0  0  0  0
  150.3747  130.0052  154.9321 H   0  0  0  0  0  0  0  0  0  0  0  0
  151.0770  131.5574  155.3644 H   0  0  0  0  0  0  0  0  0  0  0  0
  151.2038  130.9623  153.7090 H   0  0  0  0  0  0  0  0  0  0  0  0
  149.4202  135.6109  153.4097 H   0  0  0  0  0  0  0  0  0  0  0  0
  151.6479  135.6101  156.4535 H   0  0  0  0  0  0  0  0  0  0  0  0
  152.2196  137.7130  157.5882 H   0  0  0  0  0  0  0  0  0  0  0  0
  150.3467  141.3863  155.4637 H   0  0  0  0  0  0  0  0  0  0  0  0
  149.5023  141.2094  156.9870 H   0  0  0  0  0  0  0  0  0  0  0  0
  152.0818  142.8129  156.5090 H   0  0  0  0  0  0  0  0  0  0  0  0
  150.4905  143.4722  156.8345 H   0  0  0  0  0  0  0  0  0  0  0  0
  153.2361  141.6382  158.2817 H   0  0  0  0  0  0  0  0  0  0  0  0
  152.4484  141.4844  159.8402 H   0  0  0  0  0  0  0  0  0  0  0  0
  150.7560  139.9357  158.9190 H   0  0  0  0  0  0  0  0  0  0  0  0
  152.3646  139.3366  158.5337 H   0  0  0  0  0  0  0  0  0  0  0  0
  149.1237  137.9019  153.7854 H   0  0  0  0  0  0  0  0  0  0  0  0
  1  2  1  0  0  0  0
  1 22  1  0  0  0  0
  1 23  1  0  0  0  0
  1 24  1  0  0  0  0
  2  3  1  0  0  0  0
  2 25  1  0  0  0  0
  2 26  1  0  0  0  0
  3  4  1  0  0  0  0
  4  5  1  0  0  0  0
  4  7  1  0  0  0  0
  4 27  1  0  0  0  0
  5  6  1  0  0  0  0
  5 28  1  0  0  0  0
  5 29  1  0  0  0  0
  6 30  1  0  0  0  0
  6 31  1  0  0  0  0
  6 32  1  0  0  0  0
  7  8  2  0  0  0  0
  7  9  1  0  0  0  0
  9 10  1  0  0  0  0
  9 33  1  0  0  0  0
 10 21  1  0  0  0  0
 10 11  2  0  0  0  0
 11 12  1  0  0  0  0
 11 34  1  0  0  0  0
 12 13  2  0  0  0  0
 12 35  1  0  0  0  0
 13 14  1  0  0  0  0
 13 20  1  0  0  0  0
 14 19  1  0  0  0  0
 14 15  1  0  0  0  0
 15 16  1  0  0  0  0
 15 36  1  0  0  0  0
 15 37  1  0  0  0  0
 16 17  1  0  0  0  0
 16 38  1  0  0  0  0
 16 39  1  0  0  0  0
 17 18  1  0  0  0  0
 18 19  1  0  0  0  0
 18 40  1  0  0  0  0
 18 41  1  0  0  0  0
 19 42  1  0  0  0  0
 19 43  1  0  0  0  0
 20 21  2  0  0  0  0
 21 44  1  0  0  0  0
M  END
> <s_m_source_file>
AV-unprocessed.smi

> <i_m_source_file_index>
302

> <i_lp_mmshare_version>
43012

> <i_f3d_flags>
0

> <s_epik_input>
W0NIM11bQ0gyXU9bQ0BIXShbQ0gyXVtDSDNdKUMoPU8pW05IXWMxW2NIXVtjSF1jKG5bY0hdMSlOMltDSDJdW0NIMl1PW0NIMl1bQ0gyXTI=

> <s_epik_cmdline>
J2VwaWtfcHl0aG9uJywgJy1waCcsICc3LjAnLCAnLXRuJywgJzgnLCAnLW1hJywgJzIwMCcsICctbWV0YWxfYmluZGluZycsICctaW1hZScsICc8aW5maWxlLm1hZT4nLCAnLW9tYWUnLCAnPG91dGZpbGUubWFlPic=

> <r_lp_tautomer_probability>
1

> <r_epik_Ionization_Penalty>
0.000497413

> <r_epik_Ionization_Penalty_Charging>
0

> <r_epik_Ionization_Penalty_Neutral>
0.000497413

> <r_epik_State_Penalty>
0.000308489

> <r_epik_Charging_Adjusted_Penalty>
0.000308489

> <i_epik_Tot_Q>
0

> <i_epik_Tot_abs_Q>
0

> <r_epik_Metal_State_Penalty>
-0

> <b_epik_Metal_Only>
0

> <s_lp_Force_Field>
OPLS_2005

> <r_lp_Energy>
24.0205

> <b_lp_Chiralities_Consistent>
1

> <s_lp_Variant>
AV-unprocessed.smi:302-1

> <Gold.Version>
5.8.1

> <Gold.Id.Protein>
6NUR|6NUR_protein|mol2

> <Gold.PLP.Fitness>
33.6842

> <Gold.PLP.PLP>
-29.9490

> <Gold.PLP.part.hbond>
-1.2001

> <Gold.PLP.part.metal>
0.0000

> <Gold.PLP.part.buried>
-4.9054

> <Gold.PLP.part.nonpolar>
-24.5943

> <Gold.PLP.part.repulsive>
0.3103

> <Gold.PLP.ligand.clash>
0.0000

> <Gold.PLP.ligand.torsion>
1.0972

> <Gold.PLP.Chemscore.Hbond>
1.0000

> <Gold.PLP.Chemscore.CHOScore>
0.8441

> <Gold.PLP.Chemscore.Metal>
0.0000

> <Gold.Chemscore.Hbonds>
donor molecule, donor type, donor heavy atom, donor atom, acceptor molecule, acceptor atom, score
      L1  H     9    33       P1  7948  0.95
      L1  C    21    44       P1  7948  0.89

> <Gold.PLP.Chemscore.Internal.Correction>
0.3975

> <Gold.Rescore>
     Score         DG    S(hbond)    S(metal)    S(lipo)     H(rot)  DE(clash)    DE(int)     intcor
      9.67     -13.00       0.85        0.00      75.66       1.63       0.02       3.31       ----

> <Gold.Chemscore.Fitness>
9.6713

> <Gold.Chemscore.DG>
-12.9963

> <Gold.Chemscore.ZeroCoef>
-5.4800

> <Gold.Chemscore.Hbond>
0.8461

> <Gold.Chemscore.Metal>
0.0000

> <Gold.Chemscore.Lipo>
75.6648

> <Gold.Chemscore.Internal_Hbond>
0.0000

> <Gold.Chemscore.DEClash>
0.0199

> <Gold.Chemscore.DEInternal>
3.3051

> <Gold.Chemscore.Rot>
1.6260

> <Gold.Chemscore.Internal.Correction>
   9.000000E+99

> <Gold.Chemscore.Hbonds>
donor molecule, donor type, donor heavy atom, donor atom, acceptor molecule, acceptor atom, score
      L1  H     9    33       P1  7948  0.22

> <Gold.Chemscore.Hbond.Weighted>
-2.8261

> <Gold.Chemscore.Metal.Weighted>
-0.0000

> <Gold.Chemscore.Lipo.Weighted>
-8.8528

> <Gold.Chemscore.Internal_Hbond.Weighted>
0.0000

> <Gold.Chemscore.DEClash.Weighted>
0.0199

> <Gold.Chemscore.DEInternal.Weighted>
3.3051

> <Gold.Chemscore.Rot.Weighted>
4.1626

> <Gold.Chemscore.Internal.Correction.Weighted>
   9.000000E+99

> <Gold.Protein.RotatedTorsions>
[ 6907 6896 6895 6894 ] final   58.13 input  -60.11 | X-H torsion
[ 7974 7965 7964 7962 ] final   76.38 input  175.53 | X-H torsion
[ 8008 7997 7996 7995 ] final   51.30 input   59.86 | X-H torsion
[ 10167 10162 10161 10158 ] final -149.62 input  -65.29 | X-H torsion
[ 10718 10713 10712 10709 ] final    7.09 input   66.30 | X-H torsion
[ 10763 10752 10751 10750 ] final -173.18 input  -60.55 | X-H torsion
[ 11005 11000 10999 10996 ] final  124.75 input  -57.11 | X-H torsion

> <Gold.Protein.ActiveResidues>
 VAL166  LYS551  ARG553  GLY616  TRP617  ASP618  TYR619  PRO620  LYS621  CYS622 
 ASP623  PHE694  ASN695  SER759  ASP760  ASP761  ALA762  ILE779  LEU786  VAL792 
 PHE793  MET794  SER795  GLU796  ALA797  LYS798  CYS799  TRP800  GLU811  SER814 

> <Gold.Protein.RotatedAtoms>
  152.3796  134.6611  160.0147 H   0  0  0  0  0  0  0  0  0  0  0  0  # atno 6907 bound_to 6896
  151.6878  133.3306  159.3243 H   0  0  0  0  0  0  0  0  0  0  0  0  # atno 6908 bound_to 6896
  150.7737  134.6661  159.6410 H   0  0  0  0  0  0  0  0  0  0  0  0  # atno 6909 bound_to 6896
  145.7036  139.2591  143.1691 H   0  0  0  0  0  0  0  0  0  0  0  0  # atno 7974 bound_to 7965
  155.4330  140.3451  155.4282 H   0  0  0  0  0  0  0  0  0  0  0  0  # atno 8008 bound_to 7997
  156.1325  140.1518  156.9075 H   0  0  0  0  0  0  0  0  0  0  0  0  # atno 8009 bound_to 7997
  154.4905  140.0842  156.7565 H   0  0  0  0  0  0  0  0  0  0  0  0  # atno 8010 bound_to 7997
  139.7426  143.8639  152.2566 H   0  0  0  0  0  0  0  0  0  0  0  0  # atno 10167 bound_to 10162
  156.9318  130.5828  149.5650 H   0  0  0  0  0  0  0  0  0  0  0  0  # atno 10718 bound_to 10713
  154.6108  135.2864  155.0434 H   0  0  0  0  0  0  0  0  0  0  0  0  # atno 10763 bound_to 10752
  154.1665  135.6479  153.5002 H   0  0  0  0  0  0  0  0  0  0  0  0  # atno 10764 bound_to 10752
  153.0194  135.5390  154.6861 H   0  0  0  0  0  0  0  0  0  0  0  0  # atno 10765 bound_to 10752
  139.9373  134.9638  156.8456 H   0  0  0  0  0  0  0  0  0  0  0  0  # atno 11005 bound_to 11000
  146.0776  140.7800  142.9657 LP  0  0  0  0  0  0  0  0  0  0  0  0  # atno 17320 bound_to 7965
  144.6961  140.3439  143.7194 LP  0  0  0  0  0  0  0  0  0  0  0  0  # atno 17321 bound_to 7965
  139.8594  144.7125  150.9118 LP  0  0  0  0  0  0  0  0  0  0  0  0  # atno 17342 bound_to 10162
  140.7788  143.3831  151.1442 LP  0  0  0  0  0  0  0  0  0  0  0  0  # atno 17343 bound_to 10162
  156.0444  130.5522  150.8846 LP  0  0  0  0  0  0  0  0  0  0  0  0  # atno 17370 bound_to 10713
  157.5842  131.0946  150.9223 LP  0  0  0  0  0  0  0  0  0  0  0  0  # atno 17371 bound_to 10713
  140.6041  134.0144  155.7549 LP  0  0  0  0  0  0  0  0  0  0  0  0  # atno 17394 bound_to 11000
  141.0993  133.9793  157.3106 LP  0  0  0  0  0  0  0  0  0  0  0  0  # atno 17395 bound_to 11000

$$$$
