AV-unprocessed.smi:1959|AV-procd|sdf|7915|dock1
  -GOLD-   2272010 83D 1   1.00000     0.00000
 Structure written by MMmdl.
 45 46  0  0  0  0  0  0  0  0  2 V2000
  151.2536  145.1682  158.6300 C   0  0  0  0  0  0  0  0  0  0  0  0
  151.8301  144.1452  159.5637 C   0  0  0  0  0  0  0  0  0  0  0  0
  152.1902  144.3024  160.9314 C   0  0  0  0  0  0  0  0  0  0  0  0
  152.6562  143.0723  161.3018 C   0  0  0  0  0  0  0  0  0  0  0  0
  153.1775  142.5948  162.6177 C   0  0  0  0  0  0  0  0  0  0  0  0
  152.5634  142.2568  160.1873 N   0  0  0  0  0  0  0  0  0  0  0  0
  152.9159  140.8516  160.0435 C   0  0  0  0  0  0  0  0  0  0  0  0
  152.4477  140.2581  158.7094 C   0  0  0  0  0  0  0  0  0  0  0  0
  153.2243  139.6367  157.9826 O   0  0  0  0  0  0  0  0  0  0  0  0
  151.1637  140.4825  158.3870 N   0  0  0  0  0  0  0  0  0  0  0  0
  150.4888  140.0196  157.1730 C   0  0  1  0  0  0  0  0  0  0  0  0
  151.0788  140.7526  155.9609 C   0  0  0  0  0  0  0  0  0  0  0  0
  150.6033  138.4854  157.0148 C   0  0  0  0  0  0  0  0  0  0  0  0
  149.6390  137.7405  157.8636 N   0  3  0  0  0  0  0  0  0  0  0  0
  150.1569  137.4264  159.2168 C   0  0  0  0  0  0  0  0  0  0  0  0
  149.1372  136.5682  159.9829 C   0  0  0  0  0  0  0  0  0  0  0  0
  147.8979  137.2627  160.0598 O   0  0  0  0  0  0  0  0  0  0  0  0
  147.3467  137.5183  158.7732 C   0  0  0  0  0  0  0  0  0  0  0  0
  148.3131  138.3944  157.9569 C   0  0  0  0  0  0  0  0  0  0  0  0
  152.0572  142.9184  159.1241 N   0  0  0  0  0  0  0  0  0  0  0  0
  151.0640  146.1099  159.1455 H   0  0  0  0  0  0  0  0  0  0  0  0
  150.3089  144.8260  158.2068 H   0  0  0  0  0  0  0  0  0  0  0  0
  151.9350  145.3733  157.8039 H   0  0  0  0  0  0  0  0  0  0  0  0
  152.1148  145.1856  161.5483 H   0  0  0  0  0  0  0  0  0  0  0  0
  153.1292  143.3863  163.3659 H   0  0  0  0  0  0  0  0  0  0  0  0
  154.2172  142.2788  162.5323 H   0  0  0  0  0  0  0  0  0  0  0  0
  152.5935  141.7509  162.9860 H   0  0  0  0  0  0  0  0  0  0  0  0
  153.9983  140.7449  160.1345 H   0  0  0  0  0  0  0  0  0  0  0  0
  152.4716  140.2893  160.8652 H   0  0  0  0  0  0  0  0  0  0  0  0
  150.6006  141.0018  159.0457 H   0  0  0  0  0  0  0  0  0  0  0  0
  149.4343  140.2949  157.2225 H   0  0  0  0  0  0  0  0  0  0  0  0
  150.5727  140.4583  155.0410 H   0  0  0  0  0  0  0  0  0  0  0  0
  152.1408  140.5348  155.8404 H   0  0  0  0  0  0  0  0  0  0  0  0
  150.9699  141.8330  156.0633 H   0  0  0  0  0  0  0  0  0  0  0  0
  150.4768  138.1925  155.9714 H   0  0  0  0  0  0  0  0  0  0  0  0
  151.6180  138.1935  157.2900 H   0  0  0  0  0  0  0  0  0  0  0  0
  151.1041  136.8920  159.1493 H   0  0  0  0  0  0  0  0  0  0  0  0
  150.3514  138.3517  159.7614 H   0  0  0  0  0  0  0  0  0  0  0  0
  148.9985  135.6009  159.4963 H   0  0  0  0  0  0  0  0  0  0  0  0
  149.4954  136.3690  160.9929 H   0  0  0  0  0  0  0  0  0  0  0  0
  147.1458  136.5771  158.2586 H   0  0  0  0  0  0  0  0  0  0  0  0
  146.3897  138.0261  158.8939 H   0  0  0  0  0  0  0  0  0  0  0  0
  148.4193  139.3754  158.4228 H   0  0  0  0  0  0  0  0  0  0  0  0
  147.9050  138.5538  156.9581 H   0  0  0  0  0  0  0  0  0  0  0  0
  149.4831  136.8566  157.3996 H   0  0  0  0  0  0  0  0  0  0  0  0
  1  2  1  0  0  0  0
  1 21  1  0  0  0  0
  1 22  1  0  0  0  0
  1 23  1  0  0  0  0
  2 20  2  0  0  0  0
  2  3  1  0  0  0  0
  3  4  2  0  0  0  0
  3 24  1  0  0  0  0
  4  5  1  0  0  0  0
  4  6  1  0  0  0  0
  5 25  1  0  0  0  0
  5 26  1  0  0  0  0
  5 27  1  0  0  0  0
  6  7  1  0  0  0  0
  6 20  1  0  0  0  0
  7  8  1  0  0  0  0
  7 28  1  0  0  0  0
  7 29  1  0  0  0  0
  8  9  2  0  0  0  0
  8 10  1  0  0  0  0
 10 11  1  0  0  0  0
 10 30  1  0  0  0  0
 11 12  1  0  0  0  0
 11 13  1  0  0  0  0
 11 31  1  0  0  0  0
 12 32  1  0  0  0  0
 12 33  1  0  0  0  0
 12 34  1  0  0  0  0
 13 14  1  0  0  0  0
 13 35  1  0  0  0  0
 13 36  1  0  0  0  0
 14 19  1  0  0  0  0
 14 15  1  0  0  0  0
 14 45  1  0  0  0  0
 15 16  1  0  0  0  0
 15 37  1  0  0  0  0
 15 38  1  0  0  0  0
 16 17  1  0  0  0  0
 16 39  1  0  0  0  0
 16 40  1  0  0  0  0
 17 18  1  0  0  0  0
 18 19  1  0  0  0  0
 18 41  1  0  0  0  0
 18 42  1  0  0  0  0
 19 43  1  0  0  0  0
 19 44  1  0  0  0  0
M  CHG  1  14   1
M  END
> <s_m_source_file>
AV-unprocessed.smi

> <i_m_source_file_index>
1959

> <i_lp_mmshare_version>
43012

> <i_f3d_flags>
0

> <s_epik_input>
W0NIM11jMVtjSF1jKFtDSDNdKW4objEpW0NIMl1DKD1PKVtOSF1bQ0BIXShbQ0gzXSlbQ0gyXU4yW0NIMl1bQ0gyXU9bQ0gyXVtDSDJdMg==

> <s_epik_cmdline>
J2VwaWtfcHl0aG9uJywgJy1waCcsICc3LjAnLCAnLXRuJywgJzgnLCAnLW1hJywgJzIwMCcsICctbWV0YWxfYmluZGluZycsICctaW1hZScsICc8aW5maWxlLm1hZT4nLCAnLW9tYWUnLCAnPG91dGZpbGUubWFlPic=

> <r_lp_tautomer_probability>
1

> <r_epik_Ionization_Penalty>
0.748605

> <r_epik_Ionization_Penalty_Charging>
0.748396

> <r_epik_Ionization_Penalty_Neutral>
0.000208859

> <r_epik_State_Penalty>
0.775162

> <r_epik_Charging_Adjusted_Penalty>
1.52356

> <i_epik_Tot_Q>
1

> <i_epik_Tot_abs_Q>
1

> <r_epik_Metal_State_Penalty>
0.775281

> <b_epik_Metal_Only>
0

> <s_lp_Force_Field>
OPLS_2005

> <r_lp_Energy>
20.6749

> <b_lp_Chiralities_Consistent>
1

> <s_lp_Variant>
AV-unprocessed.smi:1959-4

> <Gold.Version>
5.8.1

> <Gold.Id.Protein>
6NUR|6NUR_protein|mol2

> <Gold.PLP.Fitness>
44.8546

> <Gold.PLP.PLP>
-40.8779

> <Gold.PLP.part.hbond>
-2.4412

> <Gold.PLP.part.metal>
0.0000

> <Gold.PLP.part.buried>
-5.7765

> <Gold.PLP.part.nonpolar>
-32.8624

> <Gold.PLP.part.repulsive>
0.2040

> <Gold.PLP.ligand.clash>
0.0000

> <Gold.PLP.ligand.torsion>
0.6866

> <Gold.PLP.Chemscore.Hbond>
1.7454

> <Gold.PLP.Chemscore.CHOScore>
0.0000

> <Gold.PLP.Chemscore.Metal>
0.0000

> <Gold.Chemscore.Hbonds>
donor molecule, donor type, donor heavy atom, donor atom, acceptor molecule, acceptor atom, score
      P1  H  6934  6947       L1    17  0.51
      P1  H  7997  8009       L1     9  1.00

> <Gold.PLP.Chemscore.Internal.Correction>
0.1135

> <Gold.Rescore>
     Score         DG    S(hbond)    S(metal)    S(lipo)     H(rot)  DE(clash)    DE(int)     intcor
     15.07     -17.85       1.72        0.00      95.44       1.77       0.05       2.73       ----

> <Gold.Chemscore.Fitness>
15.0667

> <Gold.Chemscore.DG>
-17.8493

> <Gold.Chemscore.ZeroCoef>
-5.4800

> <Gold.Chemscore.Hbond>
1.7202

> <Gold.Chemscore.Metal>
0.0000

> <Gold.Chemscore.Lipo>
95.4387

> <Gold.Chemscore.Internal_Hbond>
0.0000

> <Gold.Chemscore.DEClash>
0.0501

> <Gold.Chemscore.DEInternal>
2.7324

> <Gold.Chemscore.Rot>
1.7744

> <Gold.Chemscore.Internal.Correction>
   9.000000E+99

> <Gold.Chemscore.Hbonds>
donor molecule, donor type, donor heavy atom, donor atom, acceptor molecule, acceptor atom, score
      P1  H  6934  6947       L1    17  0.06
      P1  H  7997  8009       L1     9  1.00

> <Gold.Chemscore.Hbond.Weighted>
-5.7453

> <Gold.Chemscore.Metal.Weighted>
-0.0000

> <Gold.Chemscore.Lipo.Weighted>
-11.1663

> <Gold.Chemscore.Internal_Hbond.Weighted>
0.0000

> <Gold.Chemscore.DEClash.Weighted>
0.0501

> <Gold.Chemscore.DEInternal.Weighted>
2.7324

> <Gold.Chemscore.Rot.Weighted>
4.5424

> <Gold.Chemscore.Internal.Correction.Weighted>
   9.000000E+99

> <Gold.Protein.RotatedTorsions>
[ 6907 6896 6895 6894 ] final  -56.14 input  -60.11 | X-H torsion
[ 7974 7965 7964 7962 ] final   15.91 input  175.53 | X-H torsion
[ 8008 7997 7996 7995 ] final  151.85 input   59.86 | X-H torsion
[ 10167 10162 10161 10158 ] final   -5.70 input  -65.29 | X-H torsion
[ 10718 10713 10712 10709 ] final  128.86 input   66.30 | X-H torsion
[ 10763 10752 10751 10750 ] final   52.06 input  -60.55 | X-H torsion
[ 11005 11000 10999 10996 ] final  -60.54 input  -57.11 | X-H torsion

> <Gold.Protein.ActiveResidues>
 VAL166  LYS551  ARG553  GLY616  TRP617  ASP618  TYR619  PRO620  LYS621  CYS622 
 ASP623  PHE694  ASN695  SER759  ASP760  ASP761  ALA762  ILE779  LEU786  VAL792 
 PHE793  MET794  SER795  GLU796  ALA797  LYS798  CYS799  TRP800  GLU811  SER814 

> <Gold.Protein.RotatedAtoms>
  150.8192  134.7391  159.6756 H   0  0  0  0  0  0  0  0  0  0  0  0  # atno 6907 bound_to 6896
  152.4309  134.5776  159.9948 H   0  0  0  0  0  0  0  0  0  0  0  0  # atno 6908 bound_to 6896
  151.5965  133.3323  159.3074 H   0  0  0  0  0  0  0  0  0  0  0  0  # atno 6909 bound_to 6896
  146.2265  139.8825  142.8568 H   0  0  0  0  0  0  0  0  0  0  0  0  # atno 7974 bound_to 7965
  156.2655  140.2036  156.6241 H   0  0  0  0  0  0  0  0  0  0  0  0  # atno 8008 bound_to 7997
  154.6734  140.0547  157.0214 H   0  0  0  0  0  0  0  0  0  0  0  0  # atno 8009 bound_to 7997
  155.1104  140.3215  155.4526 H   0  0  0  0  0  0  0  0  0  0  0  0  # atno 8010 bound_to 7997
  140.6972  143.6279  150.8551 H   0  0  0  0  0  0  0  0  0  0  0  0  # atno 10167 bound_to 10162
  157.5206  131.1098  150.9159 H   0  0  0  0  0  0  0  0  0  0  0  0  # atno 10718 bound_to 10713
  152.9787  135.5825  154.4517 H   0  0  0  0  0  0  0  0  0  0  0  0  # atno 10763 bound_to 10752
  154.4105  135.2770  155.2041 H   0  0  0  0  0  0  0  0  0  0  0  0  # atno 10764 bound_to 10752
  154.3833  135.6142  153.5857 H   0  0  0  0  0  0  0  0  0  0  0  0  # atno 10765 bound_to 10752
  141.1291  133.6623  156.5239 H   0  0  0  0  0  0  0  0  0  0  0  0  # atno 11005 bound_to 11000
  145.2499  141.0040  143.3887 LP  0  0  0  0  0  0  0  0  0  0  0  0  # atno 17320 bound_to 7965
  144.9383  139.4218  143.6461 LP  0  0  0  0  0  0  0  0  0  0  0  0  # atno 17321 bound_to 7965
  139.9998  143.5757  152.2880 LP  0  0  0  0  0  0  0  0  0  0  0  0  # atno 17342 bound_to 10162
  139.6442  144.7657  151.2277 LP  0  0  0  0  0  0  0  0  0  0  0  0  # atno 17343 bound_to 10162
  156.9771  130.5513  149.5294 LP  0  0  0  0  0  0  0  0  0  0  0  0  # atno 17370 bound_to 10713
  156.0351  130.5439  150.8633 LP  0  0  0  0  0  0  0  0  0  0  0  0  # atno 17371 bound_to 10713
  140.4270  134.7136  157.4921 LP  0  0  0  0  0  0  0  0  0  0  0  0  # atno 17394 bound_to 11000
  140.0320  134.6392  155.9094 LP  0  0  0  0  0  0  0  0  0  0  0  0  # atno 17395 bound_to 11000

$$$$
