AV-unprocessed.smi:3197|AV-procd|sdf|12225|dock6
  -GOLD-   2272018 53D 1   1.00000     0.00000
 Structure written by MMmdl.
 33 34  0  0  0  0  0  0  0  0  1 V2000
  144.9515  132.3467  150.7114 C   0  0  0  0  0  0  0  0  0  0  0  0
  144.1330  133.4908  150.7938 C   0  0  0  0  0  0  0  0  0  0  0  0
  144.6261  134.6929  151.1645 N   0  0  0  0  0  0  0  0  0  0  0  0
  145.9290  134.7525  151.4512 C   0  0  0  0  0  0  0  0  0  0  0  0
  146.3990  135.9964  151.8275 N   0  0  0  0  0  0  0  0  0  0  0  0
  145.6027  137.2139  151.7999 C   0  0  0  0  0  0  0  0  0  0  0  0
  146.4788  138.4644  151.9277 C   0  0  0  0  0  0  0  0  0  0  0  0
  146.9936  138.5405  153.2468 O   0  0  0  0  0  0  0  0  0  0  0  0
  147.0734  139.8720  153.7279 C   0  0  0  0  0  0  0  0  0  0  0  0
  148.1283  139.9413  154.8412 C   0  0  2  0  0  0  0  0  0  0  0  0
  148.5005  141.3514  155.2509 C   0  0  0  0  0  0  0  0  0  0  0  0
  149.8338  141.1298  155.9579 C   0  0  0  0  0  0  0  0  0  0  0  0
  150.4419  140.0234  155.2979 O   0  0  0  0  0  0  0  0  0  0  0  0
  149.4956  139.3795  154.4490 C   0  0  0  0  0  0  0  0  0  0  0  0
  146.7964  133.7337  151.4077 N   0  0  0  0  0  0  0  0  0  0  0  0
  146.3102  132.5290  151.0374 C   0  0  0  0  0  0  0  0  0  0  0  0
  144.5602  131.3848  150.4154 H   0  0  0  0  0  0  0  0  0  0  0  0
  143.0795  133.4416  150.5621 H   0  0  0  0  0  0  0  0  0  0  0  0
  147.3417  136.0478  152.1852 H   0  0  0  0  0  0  0  0  0  0  0  0
  145.0604  137.2485  150.8543 H   0  0  0  0  0  0  0  0  0  0  0  0
  144.8586  137.1880  152.5968 H   0  0  0  0  0  0  0  0  0  0  0  0
  147.2864  138.4439  151.1938 H   0  0  0  0  0  0  0  0  0  0  0  0
  145.8763  139.3509  151.7249 H   0  0  0  0  0  0  0  0  0  0  0  0
  147.3309  140.5531  152.9150 H   0  0  0  0  0  0  0  0  0  0  0  0
  146.1028  140.1812  154.1190 H   0  0  0  0  0  0  0  0  0  0  0  0
  147.7646  139.4087  155.7216 H   0  0  0  0  0  0  0  0  0  0  0  0
  148.6450  141.9793  154.3702 H   0  0  0  0  0  0  0  0  0  0  0  0
  147.7548  141.8246  155.8905 H   0  0  0  0  0  0  0  0  0  0  0  0
  150.4730  142.0125  155.9300 H   0  0  0  0  0  0  0  0  0  0  0  0
  149.6699  140.8629  157.0026 H   0  0  0  0  0  0  0  0  0  0  0  0
  149.5438  138.2951  154.5507 H   0  0  0  0  0  0  0  0  0  0  0  0
  149.7367  139.6315  153.4154 H   0  0  0  0  0  0  0  0  0  0  0  0
  147.0088  131.7063  151.0011 H   0  0  0  0  0  0  0  0  0  0  0  0
  1 16  1  0  0  0  0
  1  2  2  0  0  0  0
  1 17  1  0  0  0  0
  2  3  1  0  0  0  0
  2 18  1  0  0  0  0
  3  4  2  0  0  0  0
  4  5  1  0  0  0  0
  4 15  1  0  0  0  0
  5  6  1  0  0  0  0
  5 19  1  0  0  0  0
  6  7  1  0  0  0  0
  6 20  1  0  0  0  0
  6 21  1  0  0  0  0
  7  8  1  0  0  0  0
  7 22  1  0  0  0  0
  7 23  1  0  0  0  0
  8  9  1  0  0  0  0
  9 10  1  0  0  0  0
  9 24  1  0  0  0  0
  9 25  1  0  0  0  0
 10 14  1  0  0  0  0
 10 11  1  0  0  0  0
 10 26  1  0  0  0  0
 11 12  1  0  0  0  0
 11 27  1  0  0  0  0
 11 28  1  0  0  0  0
 12 13  1  0  0  0  0
 12 29  1  0  0  0  0
 12 30  1  0  0  0  0
 13 14  1  0  0  0  0
 14 31  1  0  0  0  0
 14 32  1  0  0  0  0
 15 16  2  0  0  0  0
 16 33  1  0  0  0  0
M  END
> <s_m_source_file>
AV-unprocessed.smi

> <i_m_source_file_index>
3197

> <i_lp_mmshare_version>
43012

> <i_f3d_flags>
0

> <s_epik_input>
bjFbY0hdW2NIXVtjSF1uYzFbTkhdW0NIMl1bQ0gyXU9bQ0gyXVtDQEBIXTJbQ0gyXVtDSDJdT1tDSDJdMg==

> <s_epik_cmdline>
J2VwaWtfcHl0aG9uJywgJy1waCcsICc3LjAnLCAnLXRuJywgJzgnLCAnLW1hJywgJzIwMCcsICctbWV0YWxfYmluZGluZycsICctaW1hZScsICc8aW5maWxlLm1hZT4nLCAnLW9tYWUnLCAnPG91dGZpbGUubWFlPic=

> <r_lp_tautomer_probability>
1

> <r_epik_Ionization_Penalty>
0.000570263

> <r_epik_Ionization_Penalty_Charging>
0

> <r_epik_Ionization_Penalty_Neutral>
0.000570263

> <r_epik_State_Penalty>
0.000357543

> <r_epik_Charging_Adjusted_Penalty>
0.000357543

> <i_epik_Tot_Q>
0

> <i_epik_Tot_abs_Q>
0

> <r_epik_Metal_State_Penalty>
-0

> <b_epik_Metal_Only>
0

> <s_lp_Force_Field>
OPLS_2005

> <r_lp_Energy>
12.4723

> <b_lp_Chiralities_Consistent>
1

> <s_lp_Variant>
AV-unprocessed.smi:3197-1

> <Gold.Version>
5.8.1

> <Gold.Id.Protein>
6NUR|6NUR_protein|mol2

> <Gold.PLP.Fitness>
39.7128

> <Gold.PLP.PLP>
-28.7250

> <Gold.PLP.part.hbond>
-2.0000

> <Gold.PLP.part.metal>
0.0000

> <Gold.PLP.part.buried>
-2.2532

> <Gold.PLP.part.nonpolar>
-26.6866

> <Gold.PLP.part.repulsive>
0.7523

> <Gold.PLP.ligand.clash>
0.0000

> <Gold.PLP.ligand.torsion>
0.5424

> <Gold.PLP.Chemscore.Hbond>
2.0000

> <Gold.PLP.Chemscore.CHOScore>
2.0000

> <Gold.PLP.Chemscore.Metal>
0.0000

> <Gold.Chemscore.Hbonds>
donor molecule, donor type, donor heavy atom, donor atom, acceptor molecule, acceptor atom, score
      L1  H     5    19       P1  7948  0.93
      P1  H  7989  7998       L1    13  0.18
      L1  C     2    18       P1 10186  1.00
      L1  C    16    33       P1 10747  1.00

> <Gold.PLP.Chemscore.Internal.Correction>
0.0726

> <Gold.Rescore>
     Score         DG    S(hbond)    S(metal)    S(lipo)     H(rot)  DE(clash)    DE(int)     intcor
     11.44     -11.98       0.94        0.00      69.97       1.88       0.10       0.44       ----

> <Gold.Chemscore.Fitness>
11.4391

> <Gold.Chemscore.DG>
-11.9830

> <Gold.Chemscore.ZeroCoef>
-5.4800

> <Gold.Chemscore.Hbond>
0.9357

> <Gold.Chemscore.Metal>
0.0000

> <Gold.Chemscore.Lipo>
69.9692

> <Gold.Chemscore.Internal_Hbond>
0.0000

> <Gold.Chemscore.DEClash>
0.0994

> <Gold.Chemscore.DEInternal>
0.4445

> <Gold.Chemscore.Rot>
1.8784

> <Gold.Chemscore.Internal.Correction>
   9.000000E+99

> <Gold.Chemscore.Hbonds>
donor molecule, donor type, donor heavy atom, donor atom, acceptor molecule, acceptor atom, score
      L1  H     5    19       P1  7948  0.89
      P1  H  7989  7998       L1    13  0.01

> <Gold.Chemscore.Hbond.Weighted>
-3.1253

> <Gold.Chemscore.Metal.Weighted>
-0.0000

> <Gold.Chemscore.Lipo.Weighted>
-8.1864

> <Gold.Chemscore.Internal_Hbond.Weighted>
0.0000

> <Gold.Chemscore.DEClash.Weighted>
0.0994

> <Gold.Chemscore.DEInternal.Weighted>
0.4445

> <Gold.Chemscore.Rot.Weighted>
4.8087

> <Gold.Chemscore.Internal.Correction.Weighted>
   9.000000E+99

> <Gold.Protein.RotatedTorsions>
[ 6907 6896 6895 6894 ] final  138.10 input  -60.11 | X-H torsion
[ 7974 7965 7964 7962 ] final  -92.05 input  175.53 | X-H torsion
[ 8008 7997 7996 7995 ] final  -70.45 input   59.86 | X-H torsion
[ 10167 10162 10161 10158 ] final  -91.02 input  -65.29 | X-H torsion
[ 10718 10713 10712 10709 ] final  169.74 input   66.30 | X-H torsion
[ 10763 10752 10751 10750 ] final  -32.43 input  -60.55 | X-H torsion
[ 11005 11000 10999 10996 ] final  -30.18 input  -57.11 | X-H torsion

> <Gold.Protein.ActiveResidues>
 VAL166  LYS551  ARG553  GLY616  TRP617  ASP618  TYR619  PRO620  LYS621  CYS622 
 ASP623  PHE694  ASN695  SER759  ASP760  ASP761  ALA762  ILE779  LEU786  VAL792 
 PHE793  MET794  SER795  GLU796  ALA797  LYS798  CYS799  TRP800  GLU811  SER814 

> <Gold.Protein.RotatedAtoms>
  152.2705  133.5378  159.5435 H   0  0  0  0  0  0  0  0  0  0  0  0  # atno 6907 bound_to 6896
  150.7157  134.0704  159.3871 H   0  0  0  0  0  0  0  0  0  0  0  0  # atno 6908 bound_to 6896
  151.8619  135.0521  160.0521 H   0  0  0  0  0  0  0  0  0  0  0  0  # atno 6909 bound_to 6896
  145.4050  140.9540  143.2266 H   0  0  0  0  0  0  0  0  0  0  0  0  # atno 7974 bound_to 7965
  154.5013  140.0834  156.7803 H   0  0  0  0  0  0  0  0  0  0  0  0  # atno 8008 bound_to 7997
  155.3997  140.3436  155.4238 H   0  0  0  0  0  0  0  0  0  0  0  0  # atno 8009 bound_to 7997
  156.1460  140.1543  156.8834 H   0  0  0  0  0  0  0  0  0  0  0  0  # atno 8010 bound_to 7997
  140.3490  143.2901  151.9747 H   0  0  0  0  0  0  0  0  0  0  0  0  # atno 10167 bound_to 10162
  157.0183  131.0224  151.2782 H   0  0  0  0  0  0  0  0  0  0  0  0  # atno 10718 bound_to 10713
  153.8137  135.6880  153.4837 H   0  0  0  0  0  0  0  0  0  0  0  0  # atno 10763 bound_to 10752
  153.1612  135.4579  154.9773 H   0  0  0  0  0  0  0  0  0  0  0  0  # atno 10764 bound_to 10752
  154.7957  135.3318  154.7615 H   0  0  0  0  0  0  0  0  0  0  0  0  # atno 10765 bound_to 10752
  140.9360  133.7308  156.1006 H   0  0  0  0  0  0  0  0  0  0  0  0  # atno 11005 bound_to 11000
  144.8348  139.5569  143.6927 LP  0  0  0  0  0  0  0  0  0  0  0  0  # atno 17320 bound_to 7965
  146.2733  139.6690  142.9280 LP  0  0  0  0  0  0  0  0  0  0  0  0  # atno 17321 bound_to 7965
  139.4829  144.6092  151.7465 LP  0  0  0  0  0  0  0  0  0  0  0  0  # atno 17342 bound_to 10162
  140.5237  144.0840  150.6030 LP  0  0  0  0  0  0  0  0  0  0  0  0  # atno 17343 bound_to 10162
  157.5269  130.8033  149.7872 LP  0  0  0  0  0  0  0  0  0  0  0  0  # atno 17370 bound_to 10713
  156.0111  130.3833  150.2262 LP  0  0  0  0  0  0  0  0  0  0  0  0  # atno 17371 bound_to 10713
  140.7798  134.3738  157.5490 LP  0  0  0  0  0  0  0  0  0  0  0  0  # atno 17394 bound_to 11000
  139.8808  134.9074  156.2945 LP  0  0  0  0  0  0  0  0  0  0  0  0  # atno 17395 bound_to 11000

$$$$
