AV-unprocessed.smi:970|AV-procd|sdf|4292|dock7
  -GOLD-   22720 2193D 1   1.00000     0.00000
 Structure written by MMmdl.
 31 31  0  0  0  0  0  0  0  0  1 V2000
  144.4602  137.4272  153.4636 C   0  0  0  0  0  0  0  0  0  0  0  0
  145.2332  138.6478  153.2952 N   0  0  0  0  0  0  0  0  0  0  0  0
  146.5545  138.7383  153.5022 C   0  0  0  0  0  0  0  0  0  0  0  0
  147.2447  137.7858  153.8702 O   0  0  0  0  0  0  0  0  0  0  0  0
  147.1858  140.1216  153.2719 C   0  0  1  0  0  0  0  0  0  0  0  0
  146.5335  141.1115  154.2513 C   0  0  0  0  0  0  0  0  0  0  0  0
  148.6181  140.0795  153.5592 N   0  0  0  0  0  0  0  0  0  0  0  0
  149.1662  139.6797  154.7184 C   0  0  0  0  0  0  0  0  0  0  0  0
  148.5026  139.2448  155.6605 O   0  0  0  0  0  0  0  0  0  0  0  0
  150.6939  139.8053  154.8224 C   0  0  2  0  0  0  0  0  0  0  0  0
  151.4052  138.4374  154.8668 C   0  0  0  0  0  0  0  0  0  0  0  0
  151.0464  140.6502  155.9573 N   0  0  0  0  0  0  0  0  0  0  0  0
  150.6735  141.8996  156.2439 C   0  0  0  0  0  0  0  0  0  0  0  0
  151.1421  142.3512  157.3986 N   0  0  0  0  0  0  0  0  0  0  0  0
  151.8329  141.2474  157.8107 C   0  0  0  0  0  0  0  0  0  0  0  0
  151.8005  140.1977  156.9901 N   0  0  0  0  0  0  0  0  0  0  0  0
  143.4122  137.6154  153.2299 H   0  0  0  0  0  0  0  0  0  0  0  0
  144.5216  137.0672  154.4915 H   0  0  0  0  0  0  0  0  0  0  0  0
  144.8225  136.6432  152.7972 H   0  0  0  0  0  0  0  0  0  0  0  0
  144.7352  139.4739  152.9963 H   0  0  0  0  0  0  0  0  0  0  0  0
  147.0156  140.4525  152.2452 H   0  0  0  0  0  0  0  0  0  0  0  0
  145.4581  141.1839  154.0839 H   0  0  0  0  0  0  0  0  0  0  0  0
  146.9478  142.1122  154.1253 H   0  0  0  0  0  0  0  0  0  0  0  0
  146.6898  140.8192  155.2910 H   0  0  0  0  0  0  0  0  0  0  0  0
  149.2340  140.4271  152.8389 H   0  0  0  0  0  0  0  0  0  0  0  0
  151.0393  140.3182  153.9233 H   0  0  0  0  0  0  0  0  0  0  0  0
  151.1743  137.8463  153.9800 H   0  0  0  0  0  0  0  0  0  0  0  0
  151.1142  137.8506  155.7390 H   0  0  0  0  0  0  0  0  0  0  0  0
  152.4876  138.5639  154.9010 H   0  0  0  0  0  0  0  0  0  0  0  0
  150.0412  142.4895  155.5965 H   0  0  0  0  0  0  0  0  0  0  0  0
  152.3720  141.2147  158.7460 H   0  0  0  0  0  0  0  0  0  0  0  0
  1  2  1  0  0  0  0
  1 17  1  0  0  0  0
  1 18  1  0  0  0  0
  1 19  1  0  0  0  0
  2  3  1  0  0  0  0
  2 20  1  0  0  0  0
  3  4  2  0  0  0  0
  3  5  1  0  0  0  0
  5  6  1  0  0  0  0
  5  7  1  0  0  0  0
  5 21  1  0  0  0  0
  6 22  1  0  0  0  0
  6 23  1  0  0  0  0
  6 24  1  0  0  0  0
  7  8  1  0  0  0  0
  7 25  1  0  0  0  0
  8  9  2  0  0  0  0
  8 10  1  0  0  0  0
 10 11  1  0  0  0  0
 10 12  1  0  0  0  0
 10 26  1  0  0  0  0
 11 27  1  0  0  0  0
 11 28  1  0  0  0  0
 11 29  1  0  0  0  0
 12 16  1  0  0  0  0
 12 13  1  0  0  0  0
 13 14  2  0  0  0  0
 13 30  1  0  0  0  0
 14 15  1  0  0  0  0
 15 16  2  0  0  0  0
 15 31  1  0  0  0  0
M  END
> <s_m_source_file>
AV-unprocessed.smi

> <i_m_source_file_index>
970

> <i_lp_mmshare_version>
43012

> <i_f3d_flags>
0

> <s_epik_input>
W0NIM11bTkhdQyg9TylbQ0BIXShbQ0gzXSlbTkhdQyg9TylbQ0BIXShbQ0gzXSluMVtjSF1uW2NIXW4x

> <s_epik_cmdline>
J2VwaWtfcHl0aG9uJywgJy1waCcsICc3LjAnLCAnLXRuJywgJzgnLCAnLW1hJywgJzIwMCcsICctbWV0YWxfYmluZGluZycsICctaW1hZScsICc8aW5maWxlLm1hZT4nLCAnLW9tYWUnLCAnPG91dGZpbGUubWFlPic=

> <r_lp_tautomer_probability>
1

> <r_epik_Ionization_Penalty>
1.07271e-05

> <r_epik_Ionization_Penalty_Charging>
0

> <r_epik_Ionization_Penalty_Neutral>
1.07271e-05

> <r_epik_State_Penalty>
-0

> <r_epik_Charging_Adjusted_Penalty>
0

> <i_epik_Tot_Q>
0

> <i_epik_Tot_abs_Q>
0

> <r_epik_Metal_State_Penalty>
-0

> <b_epik_Metal_Only>
0

> <s_lp_Force_Field>
OPLS_2005

> <r_lp_Energy>
8.21171

> <b_lp_Chiralities_Consistent>
1

> <s_lp_Variant>
AV-unprocessed.smi:970-2

> <Gold.Version>
5.8.1

> <Gold.Id.Protein>
6NUR|6NUR_protein|mol2

> <Gold.PLP.Fitness>
31.9617

> <Gold.PLP.PLP>
-23.7365

> <Gold.PLP.part.hbond>
-1.9488

> <Gold.PLP.part.metal>
0.0000

> <Gold.PLP.part.buried>
-2.5328

> <Gold.PLP.part.nonpolar>
-19.9997

> <Gold.PLP.part.repulsive>
0.4383

> <Gold.PLP.ligand.clash>
0.0000

> <Gold.PLP.ligand.torsion>
0.1232

> <Gold.PLP.Chemscore.Hbond>
1.7840

> <Gold.PLP.Chemscore.CHOScore>
1.0000

> <Gold.PLP.Chemscore.Metal>
0.0000

> <Gold.Chemscore.Hbonds>
donor molecule, donor type, donor heavy atom, donor atom, acceptor molecule, acceptor atom, score
      L1  H     2    20       P1 10175  1.00
      L1  H     7    25       P1  7957  0.75
      L1  C    13    30       P1  8028  1.00

> <Gold.PLP.Chemscore.Internal.Correction>
0.1196

> <Gold.Rescore>
     Score         DG    S(hbond)    S(metal)    S(lipo)     H(rot)  DE(clash)    DE(int)     intcor
      4.46      -8.97       1.99        0.00      29.64       2.59       0.04       4.47       ----

> <Gold.Chemscore.Fitness>
4.4633

> <Gold.Chemscore.DG>
-8.9733

> <Gold.Chemscore.ZeroCoef>
-5.4800

> <Gold.Chemscore.Hbond>
1.9890

> <Gold.Chemscore.Metal>
0.0000

> <Gold.Chemscore.Lipo>
29.6440

> <Gold.Chemscore.Internal_Hbond>
0.0000

> <Gold.Chemscore.DEClash>
0.0407

> <Gold.Chemscore.DEInternal>
4.4694

> <Gold.Chemscore.Rot>
2.5852

> <Gold.Chemscore.Internal.Correction>
   9.000000E+99

> <Gold.Chemscore.Hbonds>
donor molecule, donor type, donor heavy atom, donor atom, acceptor molecule, acceptor atom, score
      L1  H     2    20       P1 10175  0.94
      L1  H     7    25       P1  7957  0.76

> <Gold.Chemscore.Hbond.Weighted>
-6.6432

> <Gold.Chemscore.Metal.Weighted>
-0.0000

> <Gold.Chemscore.Lipo.Weighted>
-3.4683

> <Gold.Chemscore.Internal_Hbond.Weighted>
0.0000

> <Gold.Chemscore.DEClash.Weighted>
0.0407

> <Gold.Chemscore.DEInternal.Weighted>
4.4694

> <Gold.Chemscore.Rot.Weighted>
6.6182

> <Gold.Chemscore.Internal.Correction.Weighted>
   9.000000E+99

> <Gold.Protein.RotatedTorsions>
[ 6907 6896 6895 6894 ] final  -53.03 input  -60.11 | X-H torsion
[ 7974 7965 7964 7962 ] final   80.85 input  175.53 | X-H torsion
[ 8008 7997 7996 7995 ] final  -51.61 input   59.86 | X-H torsion
[ 10167 10162 10161 10158 ] final  160.87 input  -65.29 | X-H torsion
[ 10718 10713 10712 10709 ] final  143.20 input   66.30 | X-H torsion
[ 10763 10752 10751 10750 ] final  179.29 input  -60.55 | X-H torsion
[ 11005 11000 10999 10996 ] final   36.78 input  -57.11 | X-H torsion

> <Gold.Protein.ActiveResidues>
 VAL166  LYS551  ARG553  GLY616  TRP617  ASP618  TYR619  PRO620  LYS621  CYS622 
 ASP623  PHE694  ASN695  SER759  ASP760  ASP761  ALA762  ILE779  LEU786  VAL792 
 PHE793  MET794  SER795  GLU796  ALA797  LYS798  CYS799  TRP800  GLU811  SER814 

> <Gold.Protein.RotatedAtoms>
  150.8464  134.7774  159.6973 H   0  0  0  0  0  0  0  0  0  0  0  0  # atno 6907 bound_to 6896
  152.4540  134.5329  159.9826 H   0  0  0  0  0  0  0  0  0  0  0  0  # atno 6908 bound_to 6896
  151.5459  133.3387  159.2980 H   0  0  0  0  0  0  0  0  0  0  0  0  # atno 6909 bound_to 6896
  145.6459  139.2436  143.2004 H   0  0  0  0  0  0  0  0  0  0  0  0  # atno 7974 bound_to 7965
  154.4087  140.1244  156.4857 H   0  0  0  0  0  0  0  0  0  0  0  0  # atno 8008 bound_to 7997
  155.7041  140.3494  155.4926 H   0  0  0  0  0  0  0  0  0  0  0  0  # atno 8009 bound_to 7997
  155.9359  140.1078  157.1085 H   0  0  0  0  0  0  0  0  0  0  0  0  # atno 8010 bound_to 7997
  139.4844  144.4592  151.8728 H   0  0  0  0  0  0  0  0  0  0  0  0  # atno 10167 bound_to 10162
  157.3717  131.0980  151.0822 H   0  0  0  0  0  0  0  0  0  0  0  0  # atno 10718 bound_to 10713
  154.5187  135.2792  155.1281 H   0  0  0  0  0  0  0  0  0  0  0  0  # atno 10763 bound_to 10752
  154.2847  135.6278  153.5365 H   0  0  0  0  0  0  0  0  0  0  0  0  # atno 10764 bound_to 10752
  152.9932  135.5659  154.5671 H   0  0  0  0  0  0  0  0  0  0  0  0  # atno 10765 bound_to 10752
  140.2291  134.3548  155.7971 H   0  0  0  0  0  0  0  0  0  0  0  0  # atno 11005 bound_to 11000
  146.1243  140.7268  142.9442 LP  0  0  0  0  0  0  0  0  0  0  0  0  # atno 17320 bound_to 7965
  144.7140  140.4144  143.7058 LP  0  0  0  0  0  0  0  0  0  0  0  0  # atno 17321 bound_to 7965
  140.4053  144.2440  150.5891 LP  0  0  0  0  0  0  0  0  0  0  0  0  # atno 17342 bound_to 10162
  140.5018  143.2315  151.8667 LP  0  0  0  0  0  0  0  0  0  0  0  0  # atno 17343 bound_to 10162
  157.1923  130.6357  149.5709 LP  0  0  0  0  0  0  0  0  0  0  0  0  # atno 17370 bound_to 10713
  155.9757  130.4718  150.6477 LP  0  0  0  0  0  0  0  0  0  0  0  0  # atno 17371 bound_to 10713
  141.2219  133.7236  156.8702 LP  0  0  0  0  0  0  0  0  0  0  0  0  # atno 17394 bound_to 11000
  140.1769  134.9061  157.2901 LP  0  0  0  0  0  0  0  0  0  0  0  0  # atno 17395 bound_to 11000

$$$$
