AV-unprocessed.smi:1102|AV-procd|sdf|4767|dock1
  -GOLD-   22720 3303D 1   1.00000     0.00000
 Structure written by MMmdl.
 40 41  0  0  0  0  0  0  0  0  2 V2000
  145.1372  137.6564  152.9293 C   0  0  0  0  0  0  0  0  0  0  0  0
  146.3449  138.1241  152.2658 N   0  0  0  0  0  0  0  0  0  0  0  0
  146.1958  138.5229  150.8742 C   0  0  0  0  0  0  0  0  0  0  0  0
  147.0563  139.0584  153.0309 C   0  0  0  0  0  0  0  0  0  0  0  0
  148.2640  138.7127  153.6715 C   0  0  0  0  0  0  0  0  0  0  0  0
  148.9462  139.6845  154.4316 C   0  0  0  0  0  0  0  0  0  0  0  0
  148.4097  140.9847  154.5523 C   0  0  0  0  0  0  0  0  0  0  0  0
  149.1401  141.9327  155.3187 N   0  0  0  0  0  0  0  0  0  0  0  0
  150.2584  141.7429  156.0397 C   0  0  0  0  0  0  0  0  0  0  0  0
  150.8716  140.6800  156.1332 O   0  0  0  0  0  0  0  0  0  0  0  0
  150.6436  142.8761  156.6428 N   0  0  0  0  0  0  0  0  0  0  0  0
  151.8077  143.0093  157.5114 C   0  0  0  0  0  0  0  0  0  0  0  0
  151.4405  143.6827  158.8439 C   0  0  2  0  0  0  0  0  0  0  0  0
  151.3042  145.2056  158.7493 C   0  0  0  0  0  0  0  0  0  0  0  0
  151.7980  145.7142  160.0977 C   0  0  0  0  0  0  0  0  0  0  0  0
  152.2213  144.4490  160.8421 C   0  0  0  0  0  0  0  0  0  0  0  0
  152.4695  143.5123  159.8072 O   0  0  0  0  0  0  0  0  0  0  0  0
  147.1981  141.2780  153.8788 C   0  0  0  0  0  0  0  0  0  0  0  0
  146.5776  140.3185  153.1584 N   0  3  0  0  0  0  0  0  0  0  0  0
  145.3452  137.3720  153.9616 H   0  0  0  0  0  0  0  0  0  0  0  0
  144.7384  136.7824  152.4135 H   0  0  0  0  0  0  0  0  0  0  0  0
  144.3690  138.4305  152.9329 H   0  0  0  0  0  0  0  0  0  0  0  0
  147.1563  138.8212  150.4518 H   0  0  0  0  0  0  0  0  0  0  0  0
  145.5014  139.3585  150.7777 H   0  0  0  0  0  0  0  0  0  0  0  0
  145.8122  137.6909  150.2828 H   0  0  0  0  0  0  0  0  0  0  0  0
  148.6666  137.7140  153.5818 H   0  0  0  0  0  0  0  0  0  0  0  0
  149.8738  139.4278  154.9224 H   0  0  0  0  0  0  0  0  0  0  0  0
  148.7952  142.8807  155.2803 H   0  0  0  0  0  0  0  0  0  0  0  0
  150.0841  143.7049  156.5050 H   0  0  0  0  0  0  0  0  0  0  0  0
  152.2800  142.0409  157.6845 H   0  0  0  0  0  0  0  0  0  0  0  0
  152.5416  143.6200  156.9851 H   0  0  0  0  0  0  0  0  0  0  0  0
  150.5162  143.2585  159.2415 H   0  0  0  0  0  0  0  0  0  0  0  0
  151.9360  145.6048  157.9550 H   0  0  0  0  0  0  0  0  0  0  0  0
  150.2775  145.5066  158.5396 H   0  0  0  0  0  0  0  0  0  0  0  0
  152.6522  146.3772  159.9549 H   0  0  0  0  0  0  0  0  0  0  0  0
  151.0322  146.2661  160.6436 H   0  0  0  0  0  0  0  0  0  0  0  0
  153.1012  144.6017  161.4672 H   0  0  0  0  0  0  0  0  0  0  0  0
  151.4111  144.0820  161.4741 H   0  0  0  0  0  0  0  0  0  0  0  0
  146.7038  142.2377  153.8734 H   0  0  0  0  0  0  0  0  0  0  0  0
  145.7056  140.5578  152.6859 H   0  0  0  0  0  0  0  0  0  0  0  0
  1  2  1  0  0  0  0
  1 20  1  0  0  0  0
  1 21  1  0  0  0  0
  1 22  1  0  0  0  0
  2  3  1  0  0  0  0
  2  4  1  0  0  0  0
  3 23  1  0  0  0  0
  3 24  1  0  0  0  0
  3 25  1  0  0  0  0
  4 19  1  0  0  0  0
  4  5  2  0  0  0  0
  5  6  1  0  0  0  0
  5 26  1  0  0  0  0
  6  7  2  0  0  0  0
  6 27  1  0  0  0  0
  7  8  1  0  0  0  0
  7 18  1  0  0  0  0
  8  9  1  0  0  0  0
  8 28  1  0  0  0  0
  9 10  2  0  0  0  0
  9 11  1  0  0  0  0
 11 12  1  0  0  0  0
 11 29  1  0  0  0  0
 12 13  1  0  0  0  0
 12 30  1  0  0  0  0
 12 31  1  0  0  0  0
 13 17  1  0  0  0  0
 13 14  1  0  0  0  0
 13 32  1  0  0  0  0
 14 15  1  0  0  0  0
 14 33  1  0  0  0  0
 14 34  1  0  0  0  0
 15 16  1  0  0  0  0
 15 35  1  0  0  0  0
 15 36  1  0  0  0  0
 16 17  1  0  0  0  0
 16 37  1  0  0  0  0
 16 38  1  0  0  0  0
 18 19  2  0  0  0  0
 18 39  1  0  0  0  0
 19 40  1  0  0  0  0
M  CHG  1  19   1
M  END
> <s_m_source_file>
AV-unprocessed.smi

> <i_m_source_file_index>
1102

> <i_lp_mmshare_version>
43012

> <i_f3d_flags>
0

> <s_epik_input>
W0NIM11OKFtDSDNdKWMxW2NIXVtjSF1jKFtjSF1uMSlbTkhdQyg9TylbTkhdW0NIMl1bQ0BASF0yW0NIMl1bQ0gyXVtDSDJdTzI=

> <s_epik_cmdline>
J2VwaWtfcHl0aG9uJywgJy1waCcsICc3LjAnLCAnLXRuJywgJzgnLCAnLW1hJywgJzIwMCcsICctbWV0YWxfYmluZGluZycsICctaW1hZScsICc8aW5maWxlLm1hZT4nLCAnLW9tYWUnLCAnPG91dGZpbGUubWFlPic=

> <r_lp_tautomer_probability>
0.999994

> <r_epik_Ionization_Penalty>
0.265123

> <r_epik_Ionization_Penalty_Charging>
0.265104

> <r_epik_Ionization_Penalty_Neutral>
1.89079e-05

> <r_epik_State_Penalty>
0.257001

> <r_epik_Charging_Adjusted_Penalty>
0.522106

> <i_epik_Tot_Q>
1

> <i_epik_Tot_abs_Q>
1

> <r_epik_Metal_State_Penalty>
0.543599

> <b_epik_Metal_Only>
0

> <s_lp_Force_Field>
OPLS_2005

> <r_lp_Energy>
30.1742

> <b_lp_Chiralities_Consistent>
1

> <s_lp_Variant>
AV-unprocessed.smi:1102-1

> <Gold.Version>
5.8.1

> <Gold.Id.Protein>
6NUR|6NUR_protein|mol2

> <Gold.PLP.Fitness>
47.1112

> <Gold.PLP.PLP>
-35.5828

> <Gold.PLP.part.hbond>
-3.0000

> <Gold.PLP.part.metal>
0.0000

> <Gold.PLP.part.buried>
-0.5519

> <Gold.PLP.part.nonpolar>
-33.0947

> <Gold.PLP.part.repulsive>
0.5674

> <Gold.PLP.ligand.clash>
0.0000

> <Gold.PLP.ligand.torsion>
0.3403

> <Gold.PLP.Chemscore.Hbond>
4.0000

> <Gold.PLP.Chemscore.CHOScore>
0.0000

> <Gold.PLP.Chemscore.Metal>
0.0000

> <Gold.Chemscore.Hbonds>
donor molecule, donor type, donor heavy atom, donor atom, acceptor molecule, acceptor atom, score
      L1  H     8    28       P1  8028  1.00
      L1  H    11    29       P1  8028  1.00
      L1  H    19    40       P1 10175  2.00

> <Gold.PLP.Chemscore.Internal.Correction>
0.2090

> <Gold.Rescore>
     Score         DG    S(hbond)    S(metal)    S(lipo)     H(rot)  DE(clash)    DE(int)     intcor
     19.06     -22.59       2.81        0.00      97.68       1.45       1.74       1.80       ----

> <Gold.Chemscore.Fitness>
19.0606

> <Gold.Chemscore.DG>
-22.5925

> <Gold.Chemscore.ZeroCoef>
-5.4800

> <Gold.Chemscore.Hbond>
2.8109

> <Gold.Chemscore.Metal>
0.0000

> <Gold.Chemscore.Lipo>
97.6775

> <Gold.Chemscore.Internal_Hbond>
0.0000

> <Gold.Chemscore.DEClash>
1.7363

> <Gold.Chemscore.DEInternal>
1.7956

> <Gold.Chemscore.Rot>
1.4469

> <Gold.Chemscore.Internal.Correction>
   9.000000E+99

> <Gold.Chemscore.Hbonds>
donor molecule, donor type, donor heavy atom, donor atom, acceptor molecule, acceptor atom, score
      L1  H     8    28       P1  8028  0.98
      L1  H    11    29       P1  8028  0.99
      L1  H    19    40       P1 10175  0.55

> <Gold.Chemscore.Hbond.Weighted>
-9.3884

> <Gold.Chemscore.Metal.Weighted>
-0.0000

> <Gold.Chemscore.Lipo.Weighted>
-11.4283

> <Gold.Chemscore.Internal_Hbond.Weighted>
0.0000

> <Gold.Chemscore.DEClash.Weighted>
1.7363

> <Gold.Chemscore.DEInternal.Weighted>
1.7956

> <Gold.Chemscore.Rot.Weighted>
3.7042

> <Gold.Chemscore.Internal.Correction.Weighted>
   9.000000E+99

> <Gold.Protein.RotatedTorsions>
[ 6907 6896 6895 6894 ] final  -54.64 input  -60.11 | X-H torsion
[ 7974 7965 7964 7962 ] final  -38.23 input  175.53 | X-H torsion
[ 8008 7997 7996 7995 ] final  142.61 input   59.86 | X-H torsion
[ 10167 10162 10161 10158 ] final   26.01 input  -65.29 | X-H torsion
[ 10718 10713 10712 10709 ] final  118.41 input   66.30 | X-H torsion
[ 10763 10752 10751 10750 ] final  -21.34 input  -60.55 | X-H torsion
[ 11005 11000 10999 10996 ] final -165.43 input  -57.11 | X-H torsion

> <Gold.Protein.ActiveResidues>
 VAL166  LYS551  ARG553  GLY616  TRP617  ASP618  TYR619  PRO620  LYS621  CYS622 
 ASP623  PHE694  ASN695  SER759  ASP760  ASP761  ALA762  ILE779  LEU786  VAL792 
 PHE793  MET794  SER795  GLU796  ALA797  LYS798  CYS799  TRP800  GLU811  SER814 

> <Gold.Protein.RotatedAtoms>
  150.8320  134.7577  159.6861 H   0  0  0  0  0  0  0  0  0  0  0  0  # atno 6907 bound_to 6896
  152.4423  134.5562  159.9891 H   0  0  0  0  0  0  0  0  0  0  0  0  # atno 6908 bound_to 6896
  151.5721  133.3351  159.3027 H   0  0  0  0  0  0  0  0  0  0  0  0  # atno 6909 bound_to 6896
  146.0505  140.6488  142.9044 H   0  0  0  0  0  0  0  0  0  0  0  0  # atno 7974 bound_to 7965
  156.2946  140.2284  156.4756 H   0  0  0  0  0  0  0  0  0  0  0  0  # atno 8008 bound_to 7997
  154.7897  140.0455  157.1212 H   0  0  0  0  0  0  0  0  0  0  0  0  # atno 8009 bound_to 7997
  154.9660  140.3060  155.5013 H   0  0  0  0  0  0  0  0  0  0  0  0  # atno 8010 bound_to 7997
  140.5058  144.0241  150.6351 H   0  0  0  0  0  0  0  0  0  0  0  0  # atno 10167 bound_to 10162
  157.6032  131.1047  150.7752 H   0  0  0  0  0  0  0  0  0  0  0  0  # atno 10718 bound_to 10713
  153.6346  135.6987  153.5263 H   0  0  0  0  0  0  0  0  0  0  0  0  # atno 10763 bound_to 10752
  153.2831  135.4179  155.1097 H   0  0  0  0  0  0  0  0  0  0  0  0  # atno 10764 bound_to 10752
  154.8514  135.3607  154.5890 H   0  0  0  0  0  0  0  0  0  0  0  0  # atno 10765 bound_to 10752
  140.5757  134.5192  157.5170 H   0  0  0  0  0  0  0  0  0  0  0  0  # atno 11005 bound_to 11000
  144.7120  140.4073  143.7073 LP  0  0  0  0  0  0  0  0  0  0  0  0  # atno 17320 bound_to 7965
  145.6733  139.1603  143.2742 LP  0  0  0  0  0  0  0  0  0  0  0  0  # atno 17321 bound_to 7965
  140.3550  143.2941  152.0446 LP  0  0  0  0  0  0  0  0  0  0  0  0  # atno 17342 bound_to 10162
  139.4883  144.6346  151.7001 LP  0  0  0  0  0  0  0  0  0  0  0  0  # atno 17343 bound_to 10162
  156.8146  130.4964  149.5351 LP  0  0  0  0  0  0  0  0  0  0  0  0  # atno 17370 bound_to 10713
  156.1111  130.6040  151.0048 LP  0  0  0  0  0  0  0  0  0  0  0  0  # atno 17371 bound_to 10713
  139.9340  134.7909  156.0852 LP  0  0  0  0  0  0  0  0  0  0  0  0  # atno 17394 bound_to 11000
  141.1028  133.6671  156.2793 LP  0  0  0  0  0  0  0  0  0  0  0  0  # atno 17395 bound_to 11000

$$$$
