AV-unprocessed.smi:1999|AV-procd|sdf|8095|dock8
  -GOLD-   2272010313D 1   1.00000     0.00000
 Structure written by MMmdl.
 39 40  0  0  0  0  0  0  0  0  2 V2000
  145.0916  143.7182  162.2428 C   0  0  0  0  0  0  0  0  0  0  0  0
  146.0554  143.5576  161.1171 C   0  0  0  0  0  0  0  0  0  0  0  0
  147.3677  143.7830  161.2546 N   0  0  0  0  0  0  0  0  0  0  0  0
  148.0644  143.5714  160.0732 N   0  0  0  0  0  0  0  0  0  0  0  0
  147.2538  143.1896  159.0768 C   0  0  0  0  0  0  0  0  0  0  0  0
  147.7019  142.9146  157.7576 N   0  0  0  0  0  0  0  0  0  0  0  0
  147.5045  141.8029  157.0279 C   0  0  0  0  0  0  0  0  0  0  0  0
  146.8431  140.8269  157.3823 O   0  0  0  0  0  0  0  0  0  0  0  0
  148.1343  141.8779  155.8456 N   0  0  0  0  0  0  0  0  0  0  0  0
  148.1133  140.8612  154.7925 C   0  0  1  0  0  0  0  0  0  0  0  0
  147.3237  141.4040  153.5938 C   0  0  0  0  0  0  0  0  0  0  0  0
  149.5433  140.4435  154.3755 C   0  0  0  0  0  0  0  0  0  0  0  0
  150.3982  140.0535  155.5255 N   0  3  0  0  0  0  0  0  0  0  0  0
  151.4111  139.0236  155.1890 C   0  0  0  0  0  0  0  0  0  0  0  0
  152.1916  138.6172  156.4497 C   0  0  0  0  0  0  0  0  0  0  0  0
  152.8012  139.7686  157.0212 O   0  0  0  0  0  0  0  0  0  0  0  0
  151.8402  140.7391  157.4192 C   0  0  0  0  0  0  0  0  0  0  0  0
  151.0393  141.2102  156.1929 C   0  0  0  0  0  0  0  0  0  0  0  0
  145.5560  143.0634  159.5036 S   0  0  0  0  0  0  0  0  0  0  0  0
  145.4454  143.1776  163.1210 H   0  0  0  0  0  0  0  0  0  0  0  0
  144.1130  143.3267  161.9641 H   0  0  0  0  0  0  0  0  0  0  0  0
  144.9873  144.7731  162.4970 H   0  0  0  0  0  0  0  0  0  0  0  0
  148.2461  143.6468  157.3254 H   0  0  0  0  0  0  0  0  0  0  0  0
  148.6528  142.7205  155.6437 H   0  0  0  0  0  0  0  0  0  0  0  0
  147.5721  139.9860  155.1548 H   0  0  0  0  0  0  0  0  0  0  0  0
  147.2529  140.6589  152.8009 H   0  0  0  0  0  0  0  0  0  0  0  0
  147.7965  142.2923  153.1731 H   0  0  0  0  0  0  0  0  0  0  0  0
  146.3066  141.6726  153.8818 H   0  0  0  0  0  0  0  0  0  0  0  0
  149.5123  139.6264  153.6529 H   0  0  0  0  0  0  0  0  0  0  0  0
  150.0042  141.2862  153.8577 H   0  0  0  0  0  0  0  0  0  0  0  0
  150.9333  138.1435  154.7600 H   0  0  0  0  0  0  0  0  0  0  0  0
  152.0969  139.4136  154.4354 H   0  0  0  0  0  0  0  0  0  0  0  0
  151.5353  138.1367  157.1775 H   0  0  0  0  0  0  0  0  0  0  0  0
  152.9676  137.8953  156.1949 H   0  0  0  0  0  0  0  0  0  0  0  0
  151.1777  140.3212  158.1793 H   0  0  0  0  0  0  0  0  0  0  0  0
  152.3581  141.5821  157.8769 H   0  0  0  0  0  0  0  0  0  0  0  0
  151.6956  141.7235  155.4882 H   0  0  0  0  0  0  0  0  0  0  0  0
  150.2792  141.9264  156.5070 H   0  0  0  0  0  0  0  0  0  0  0  0
  149.7805  139.6409  156.2107 H   0  0  0  0  0  0  0  0  0  0  0  0
  1  2  1  0  0  0  0
  1 20  1  0  0  0  0
  1 21  1  0  0  0  0
  1 22  1  0  0  0  0
  2 19  1  0  0  0  0
  2  3  2  0  0  0  0
  3  4  1  0  0  0  0
  4  5  2  0  0  0  0
  5  6  1  0  0  0  0
  5 19  1  0  0  0  0
  6  7  1  0  0  0  0
  6 23  1  0  0  0  0
  7  8  2  0  0  0  0
  7  9  1  0  0  0  0
  9 10  1  0  0  0  0
  9 24  1  0  0  0  0
 10 11  1  0  0  0  0
 10 12  1  0  0  0  0
 10 25  1  0  0  0  0
 11 26  1  0  0  0  0
 11 27  1  0  0  0  0
 11 28  1  0  0  0  0
 12 13  1  0  0  0  0
 12 29  1  0  0  0  0
 12 30  1  0  0  0  0
 13 18  1  0  0  0  0
 13 14  1  0  0  0  0
 13 39  1  0  0  0  0
 14 15  1  0  0  0  0
 14 31  1  0  0  0  0
 14 32  1  0  0  0  0
 15 16  1  0  0  0  0
 15 33  1  0  0  0  0
 15 34  1  0  0  0  0
 16 17  1  0  0  0  0
 17 18  1  0  0  0  0
 17 35  1  0  0  0  0
 17 36  1  0  0  0  0
 18 37  1  0  0  0  0
 18 38  1  0  0  0  0
M  CHG  1  13   1
M  END
> <s_m_source_file>
AV-unprocessed.smi

> <i_m_source_file_index>
1999

> <i_lp_mmshare_version>
43012

> <i_f3d_flags>
0

> <s_epik_input>
W0NIM11jMW5uYyhzMSlbTkhdQyg9TylbTkhdW0NASF0oW0NIM10pW0NIMl1OMltDSDJdW0NIMl1PW0NIMl1bQ0gyXTI=

> <s_epik_cmdline>
J2VwaWtfcHl0aG9uJywgJy1waCcsICc3LjAnLCAnLXRuJywgJzgnLCAnLW1hJywgJzIwMCcsICctbWV0YWxfYmluZGluZycsICctaW1hZScsICc8aW5maWxlLm1hZT4nLCAnLW9tYWUnLCAnPG91dGZpbGUubWFlPic=

> <r_lp_tautomer_probability>
1

> <r_epik_Ionization_Penalty>
0.701298

> <r_epik_Ionization_Penalty_Charging>
0.695697

> <r_epik_Ionization_Penalty_Neutral>
0.00560124

> <r_epik_State_Penalty>
0.717972

> <r_epik_Charging_Adjusted_Penalty>
1.41367

> <i_epik_Tot_Q>
1

> <i_epik_Tot_abs_Q>
1

> <r_epik_Metal_State_Penalty>
1.07748

> <b_epik_Metal_Only>
0

> <s_lp_Force_Field>
OPLS_2005

> <r_lp_Energy>
20.3005

> <b_lp_Chiralities_Consistent>
1

> <s_lp_Variant>
AV-unprocessed.smi:1999-4

> <Gold.Version>
5.8.1

> <Gold.Id.Protein>
6NUR|6NUR_protein|mol2

> <Gold.PLP.Fitness>
37.2912

> <Gold.PLP.PLP>
-31.9989

> <Gold.PLP.part.hbond>
-6.0000

> <Gold.PLP.part.metal>
0.0000

> <Gold.PLP.part.buried>
-3.4356

> <Gold.PLP.part.nonpolar>
-22.1849

> <Gold.PLP.part.repulsive>
0.4031

> <Gold.PLP.ligand.clash>
0.0000

> <Gold.PLP.ligand.torsion>
0.9033

> <Gold.PLP.Chemscore.Hbond>
2.3500

> <Gold.PLP.Chemscore.CHOScore>
0.0000

> <Gold.PLP.Chemscore.Metal>
0.0000

> <Gold.Chemscore.Hbonds>
donor molecule, donor type, donor heavy atom, donor atom, acceptor molecule, acceptor atom, score
      L1  H     6    23       P1  8028  0.33
      L1  H     9    24       P1  8028  1.00
      P1  H  7997  8010       L1    16  1.00

> <Gold.PLP.Chemscore.Internal.Correction>
0.0489

> <Gold.Rescore>
     Score         DG    S(hbond)    S(metal)    S(lipo)     H(rot)  DE(clash)    DE(int)     intcor
     13.56     -15.25       1.96        0.00      63.16       1.63       0.04       1.64       ----

> <Gold.Chemscore.Fitness>
13.5613

> <Gold.Chemscore.DG>
-15.2497

> <Gold.Chemscore.ZeroCoef>
-5.4800

> <Gold.Chemscore.Hbond>
1.9634

> <Gold.Chemscore.Metal>
0.0000

> <Gold.Chemscore.Lipo>
63.1563

> <Gold.Chemscore.Internal_Hbond>
0.0000

> <Gold.Chemscore.DEClash>
0.0449

> <Gold.Chemscore.DEInternal>
1.6435

> <Gold.Chemscore.Rot>
1.6317

> <Gold.Chemscore.Internal.Correction>
   9.000000E+99

> <Gold.Chemscore.Hbonds>
donor molecule, donor type, donor heavy atom, donor atom, acceptor molecule, acceptor atom, score
      L1  H     6    23       P1  8028  0.01
      L1  H     9    24       P1  8028  0.92
      P1  H  7997  8010       L1    16  0.97

> <Gold.Chemscore.Hbond.Weighted>
-6.5577

> <Gold.Chemscore.Metal.Weighted>
-0.0000

> <Gold.Chemscore.Lipo.Weighted>
-7.3893

> <Gold.Chemscore.Internal_Hbond.Weighted>
0.0000

> <Gold.Chemscore.DEClash.Weighted>
0.0449

> <Gold.Chemscore.DEInternal.Weighted>
1.6435

> <Gold.Chemscore.Rot.Weighted>
4.1773

> <Gold.Chemscore.Internal.Correction.Weighted>
   9.000000E+99

> <Gold.Protein.RotatedTorsions>
[ 6907 6896 6895 6894 ] final   81.35 input  -60.11 | X-H torsion
[ 7974 7965 7964 7962 ] final  -19.89 input  175.53 | X-H torsion
[ 8008 7997 7996 7995 ] final   51.21 input   59.86 | X-H torsion
[ 10167 10162 10161 10158 ] final  -97.84 input  -65.29 | X-H torsion
[ 10718 10713 10712 10709 ] final -106.71 input   66.30 | X-H torsion
[ 10763 10752 10751 10750 ] final -125.59 input  -60.55 | X-H torsion
[ 11005 11000 10999 10996 ] final   37.73 input  -57.11 | X-H torsion

> <Gold.Protein.ActiveResidues>
 VAL166  LYS551  ARG553  GLY616  TRP617  ASP618  TYR619  PRO620  LYS621  CYS622 
 ASP623  PHE694  ASN695  SER759  ASP760  ASP761  ALA762  ILE779  LEU786  VAL792 
 PHE793  MET794  SER795  GLU796  ALA797  LYS798  CYS799  TRP800  GLU811  SER814 

> <Gold.Protein.RotatedAtoms>
  152.5265  134.3218  159.9150 H   0  0  0  0  0  0  0  0  0  0  0  0  # atno 6907 bound_to 6896
  151.3167  133.4051  159.2659 H   0  0  0  0  0  0  0  0  0  0  0  0  # atno 6908 bound_to 6896
  150.9993  134.9326  159.8002 H   0  0  0  0  0  0  0  0  0  0  0  0  # atno 6909 bound_to 6896
  146.1817  140.4125  142.8492 H   0  0  0  0  0  0  0  0  0  0  0  0  # atno 7974 bound_to 7965
  155.4315  140.3451  155.4280 H   0  0  0  0  0  0  0  0  0  0  0  0  # atno 8008 bound_to 7997
  156.1333  140.1520  156.9063 H   0  0  0  0  0  0  0  0  0  0  0  0  # atno 8009 bound_to 7997
  154.4912  140.0840  156.7578 H   0  0  0  0  0  0  0  0  0  0  0  0  # atno 8010 bound_to 7997
  140.2792  143.3293  152.0458 H   0  0  0  0  0  0  0  0  0  0  0  0  # atno 10167 bound_to 10162
  156.0403  130.5626  150.7719 H   0  0  0  0  0  0  0  0  0  0  0  0  # atno 10718 bound_to 10713
  154.8737  135.4024  154.3292 H   0  0  0  0  0  0  0  0  0  0  0  0  # atno 10763 bound_to 10752
  153.4108  135.7020  153.6366 H   0  0  0  0  0  0  0  0  0  0  0  0  # atno 10764 bound_to 10752
  153.5069  135.3715  155.2538 H   0  0  0  0  0  0  0  0  0  0  0  0  # atno 10765 bound_to 10752
  140.2196  134.3657  155.8011 H   0  0  0  0  0  0  0  0  0  0  0  0  # atno 11005 bound_to 11000
  144.8327  140.6733  143.6280 LP  0  0  0  0  0  0  0  0  0  0  0  0  # atno 17320 bound_to 7965
  145.4056  139.1589  143.4154 LP  0  0  0  0  0  0  0  0  0  0  0  0  # atno 17321 bound_to 7965
  139.4967  144.6603  151.6478 LP  0  0  0  0  0  0  0  0  0  0  0  0  # atno 17342 bound_to 10162
  140.5826  143.9919  150.6277 LP  0  0  0  0  0  0  0  0  0  0  0  0  # atno 17343 bound_to 10162
  157.5211  131.0931  151.0077 LP  0  0  0  0  0  0  0  0  0  0  0  0  # atno 17370 bound_to 10713
  157.0408  130.5748  149.5356 LP  0  0  0  0  0  0  0  0  0  0  0  0  # atno 17371 bound_to 10713
  141.2223  133.7186  156.8553 LP  0  0  0  0  0  0  0  0  0  0  0  0  # atno 17394 bound_to 11000
  140.1864  134.8997  157.3009 LP  0  0  0  0  0  0  0  0  0  0  0  0  # atno 17395 bound_to 11000

$$$$
