AV-unprocessed.smi:2501|AV-procd|sdf|9843|dock5
  -GOLD-   2272013473D 1   1.00000     0.00000
 Structure written by MMmdl.
 43 44  0  0  0  0  0  0  0  0  1 V2000
  151.9508  144.7778  159.1428 C   0  0  0  0  0  0  0  0  0  0  0  0
  152.4145  143.3448  159.3353 C   0  0  0  0  0  0  0  0  0  0  0  0
  153.3891  143.0496  160.3136 C   0  0  0  0  0  0  0  0  0  0  0  0
  153.8563  141.8061  160.5526 N   0  0  0  0  0  0  0  0  0  0  0  0
  153.3608  140.7941  159.8111 C   0  0  0  0  0  0  0  0  0  0  0  0
  152.3871  140.9743  158.8097 C   0  0  0  0  0  0  0  0  0  0  0  0
  151.8986  142.2745  158.5626 C   0  0  0  0  0  0  0  0  0  0  0  0
  150.8479  142.4841  157.4835 C   0  0  0  0  0  0  0  0  0  0  0  0
  150.5760  141.2058  156.6785 C   0  0  0  0  0  0  0  0  0  0  0  0
  149.1456  141.0333  156.4633 N   0  0  0  0  0  0  0  0  0  0  0  0
  148.4993  141.3187  155.3213 C   0  0  0  0  0  0  0  0  0  0  0  0
  149.0864  141.7547  154.3302 O   0  0  0  0  0  0  0  0  0  0  0  0
  147.1621  141.0867  155.3508 N   0  0  0  0  0  0  0  0  0  0  0  0
  146.4123  140.4172  156.4261 C   0  0  0  0  0  0  0  0  0  0  0  0
  145.6020  141.4748  157.2001 C   0  0  0  0  0  0  0  0  0  0  0  0
  144.6707  142.2996  156.2733 C   0  0  0  0  0  0  0  0  0  0  0  0
  143.6253  141.4453  155.8423 O   0  0  0  0  0  0  0  0  0  0  0  0
  144.0115  143.4777  157.0301 C   0  0  0  0  0  0  0  0  0  0  0  0
  143.3440  144.2560  156.1774 F   0  0  0  0  0  0  0  0  0  0  0  0
  143.1502  143.0290  157.9443 F   0  0  0  0  0  0  0  0  0  0  0  0
  144.9385  144.2232  157.6338 F   0  0  0  0  0  0  0  0  0  0  0  0
  145.4325  142.7835  155.0122 C   0  0  0  0  0  0  0  0  0  0  0  0
  146.2506  141.6563  154.3524 C   0  0  0  0  0  0  0  0  0  0  0  0
  152.5330  145.4661  159.7562 H   0  0  0  0  0  0  0  0  0  0  0  0
  150.9032  144.8802  159.4268 H   0  0  0  0  0  0  0  0  0  0  0  0
  152.0610  145.0865  158.1035 H   0  0  0  0  0  0  0  0  0  0  0  0
  153.8082  143.8344  160.9262 H   0  0  0  0  0  0  0  0  0  0  0  0
  153.7523  139.8098  160.0215 H   0  0  0  0  0  0  0  0  0  0  0  0
  152.0253  140.1285  158.2436 H   0  0  0  0  0  0  0  0  0  0  0  0
  149.9247  142.8227  157.9562 H   0  0  0  0  0  0  0  0  0  0  0  0
  151.1531  143.2931  156.8196 H   0  0  0  0  0  0  0  0  0  0  0  0
  151.0959  141.2513  155.7205 H   0  0  0  0  0  0  0  0  0  0  0  0
  150.9607  140.3347  157.2105 H   0  0  0  0  0  0  0  0  0  0  0  0
  148.6051  140.6753  157.2372 H   0  0  0  0  0  0  0  0  0  0  0  0
  145.7408  139.6782  155.9866 H   0  0  0  0  0  0  0  0  0  0  0  0
  147.0384  139.8533  157.1176 H   0  0  0  0  0  0  0  0  0  0  0  0
  145.0241  140.9937  157.9901 H   0  0  0  0  0  0  0  0  0  0  0  0
  146.3011  142.1442  157.7028 H   0  0  0  0  0  0  0  0  0  0  0  0
  143.7208  141.3015  154.9131 H   0  0  0  0  0  0  0  0  0  0  0  0
  144.7370  143.2092  154.2878 H   0  0  0  0  0  0  0  0  0  0  0  0
  146.1138  143.5899  155.2863 H   0  0  0  0  0  0  0  0  0  0  0  0
  146.7725  142.0422  153.4756 H   0  0  0  0  0  0  0  0  0  0  0  0
  145.5878  140.8757  153.9765 H   0  0  0  0  0  0  0  0  0  0  0  0
  1  2  1  0  0  0  0
  1 24  1  0  0  0  0
  1 25  1  0  0  0  0
  1 26  1  0  0  0  0
  2  7  1  0  0  0  0
  2  3  2  0  0  0  0
  3  4  1  0  0  0  0
  3 27  1  0  0  0  0
  4  5  2  0  0  0  0
  5  6  1  0  0  0  0
  5 28  1  0  0  0  0
  6  7  2  0  0  0  0
  6 29  1  0  0  0  0
  7  8  1  0  0  0  0
  8  9  1  0  0  0  0
  8 30  1  0  0  0  0
  8 31  1  0  0  0  0
  9 10  1  0  0  0  0
  9 32  1  0  0  0  0
  9 33  1  0  0  0  0
 10 11  1  0  0  0  0
 10 34  1  0  0  0  0
 11 12  2  0  0  0  0
 11 13  1  0  0  0  0
 13 23  1  0  0  0  0
 13 14  1  0  0  0  0
 14 15  1  0  0  0  0
 14 35  1  0  0  0  0
 14 36  1  0  0  0  0
 15 16  1  0  0  0  0
 15 37  1  0  0  0  0
 15 38  1  0  0  0  0
 16 17  1  0  0  0  0
 16 18  1  0  0  0  0
 16 22  1  0  0  0  0
 17 39  1  0  0  0  0
 18 19  1  0  0  0  0
 18 20  1  0  0  0  0
 18 21  1  0  0  0  0
 22 23  1  0  0  0  0
 22 40  1  0  0  0  0
 22 41  1  0  0  0  0
 23 42  1  0  0  0  0
 23 43  1  0  0  0  0
M  END
> <s_m_source_file>
AV-unprocessed.smi

> <i_m_source_file_index>
2501

> <i_lp_mmshare_version>
43012

> <i_f3d_flags>
0

> <s_epik_input>
W0NIM11jMVtjSF1uW2NIXVtjSF1jMVtDSDJdW0NIMl1bTkhdQyg9TylOKFtDSDJdW0NIMl0yKVtDSDJdW0NIMl1DMihbT0hdKUMoRikoRilG

> <s_epik_cmdline>
J2VwaWtfcHl0aG9uJywgJy1waCcsICc3LjAnLCAnLXRuJywgJzgnLCAnLW1hJywgJzIwMCcsICctbWV0YWxfYmluZGluZycsICctaW1hZScsICc8aW5maWxlLm1hZT4nLCAnLW9tYWUnLCAnPG91dGZpbGUubWFlPic=

> <r_epik_Ionization_Penalty>
0.105852

> <r_epik_Ionization_Penalty_Charging>
0

> <r_epik_Ionization_Penalty_Neutral>
0.105852

> <r_epik_State_Penalty>
0.0956543

> <r_epik_Charging_Adjusted_Penalty>
0.0956543

> <i_epik_Tot_Q>
0

> <i_epik_Tot_abs_Q>
0

> <r_epik_Metal_State_Penalty>
0.0810448

> <b_epik_Metal_Only>
0

> <s_lp_Force_Field>
OPLS_2005

> <r_lp_Energy>
37.1862

> <b_lp_Chiralities_Consistent>
1

> <s_lp_Variant>
AV-unprocessed.smi:2501-1

> <Gold.Version>
5.8.1

> <Gold.Id.Protein>
6NUR|6NUR_protein|mol2

> <Gold.PLP.Fitness>
45.8894

> <Gold.PLP.PLP>
-42.6484

> <Gold.PLP.part.hbond>
-3.3718

> <Gold.PLP.part.metal>
0.0000

> <Gold.PLP.part.buried>
-4.7233

> <Gold.PLP.part.nonpolar>
-34.4386

> <Gold.PLP.part.repulsive>
0.2506

> <Gold.PLP.ligand.clash>
0.0000

> <Gold.PLP.ligand.torsion>
0.7668

> <Gold.PLP.Chemscore.Hbond>
1.5697

> <Gold.PLP.Chemscore.CHOScore>
0.0000

> <Gold.PLP.Chemscore.Metal>
0.0000

> <Gold.Chemscore.Hbonds>
donor molecule, donor type, donor heavy atom, donor atom, acceptor molecule, acceptor atom, score
      P1  H  8011  8017       L1    12  0.27

> <Gold.PLP.Chemscore.Internal.Correction>
0.0654

> <Gold.Rescore>
     Score         DG    S(hbond)    S(metal)    S(lipo)     H(rot)  DE(clash)    DE(int)     intcor
     18.09     -18.81       1.83        0.00     104.42       1.95       0.17       0.55       ----

> <Gold.Chemscore.Fitness>
18.0875

> <Gold.Chemscore.DG>
-18.8123

> <Gold.Chemscore.ZeroCoef>
-5.4800

> <Gold.Chemscore.Hbond>
1.8279

> <Gold.Chemscore.Metal>
0.0000

> <Gold.Chemscore.Lipo>
104.4249

> <Gold.Chemscore.Internal_Hbond>
0.0000

> <Gold.Chemscore.DEClash>
0.1743

> <Gold.Chemscore.DEInternal>
0.5505

> <Gold.Chemscore.Rot>
1.9495

> <Gold.Chemscore.Internal.Correction>
   9.000000E+99

> <Gold.Chemscore.Hbonds>
donor molecule, donor type, donor heavy atom, donor atom, acceptor molecule, acceptor atom, score
      P1  H  8011  8017       L1    12  0.27

> <Gold.Chemscore.Hbond.Weighted>
-6.1052

> <Gold.Chemscore.Metal.Weighted>
-0.0000

> <Gold.Chemscore.Lipo.Weighted>
-12.2177

> <Gold.Chemscore.Internal_Hbond.Weighted>
0.0000

> <Gold.Chemscore.DEClash.Weighted>
0.1743

> <Gold.Chemscore.DEInternal.Weighted>
0.5505

> <Gold.Chemscore.Rot.Weighted>
4.9907

> <Gold.Chemscore.Internal.Correction.Weighted>
   9.000000E+99

> <Gold.Protein.RotatedTorsions>
[ 6907 6896 6895 6894 ] final  -92.70 input  -60.11 | X-H torsion
[ 7974 7965 7964 7962 ] final    7.18 input  175.53 | X-H torsion
[ 8008 7997 7996 7995 ] final   68.23 input   59.86 | X-H torsion
[ 10167 10162 10161 10158 ] final  -58.14 input  -65.29 | X-H torsion
[ 10718 10713 10712 10709 ] final   68.39 input   66.30 | X-H torsion
[ 10763 10752 10751 10750 ] final   25.60 input  -60.55 | X-H torsion
[ 11005 11000 10999 10996 ] final   32.69 input  -57.11 | X-H torsion

> <Gold.Protein.ActiveResidues>
 VAL166  LYS551  ARG553  GLY616  TRP617  ASP618  TYR619  PRO620  LYS621  CYS622 
 ASP623  PHE694  ASN695  SER759  ASP760  ASP761  ALA762  ILE779  LEU786  VAL792 
 PHE793  MET794  SER795  GLU796  ALA797  LYS798  CYS799  TRP800  GLU811  SER814 

> <Gold.Protein.RotatedAtoms>
  150.6910  134.2081  159.4348 H   0  0  0  0  0  0  0  0  0  0  0  0  # atno 6907 bound_to 6896
  152.0044  134.9908  160.0575 H   0  0  0  0  0  0  0  0  0  0  0  0  # atno 6908 bound_to 6896
  152.1548  133.4509  159.4868 H   0  0  0  0  0  0  0  0  0  0  0  0  # atno 6909 bound_to 6896
  146.2429  140.0122  142.8405 H   0  0  0  0  0  0  0  0  0  0  0  0  # atno 7974 bound_to 7965
  155.7051  140.3495  155.4949 H   0  0  0  0  0  0  0  0  0  0  0  0  # atno 8008 bound_to 7997
  155.9406  140.1101  157.1081 H   0  0  0  0  0  0  0  0  0  0  0  0  # atno 8009 bound_to 7997
  154.4102  140.1213  156.4908 H   0  0  0  0  0  0  0  0  0  0  0  0  # atno 8010 bound_to 7997
  140.6215  143.2421  151.5468 H   0  0  0  0  0  0  0  0  0  0  0  0  # atno 10167 bound_to 10162
  157.6286  130.9371  150.0371 H   0  0  0  0  0  0  0  0  0  0  0  0  # atno 10718 bound_to 10713
  153.0680  135.6579  154.0310 H   0  0  0  0  0  0  0  0  0  0  0  0  # atno 10763 bound_to 10752
  153.9962  135.2941  155.3408 H   0  0  0  0  0  0  0  0  0  0  0  0  # atno 10764 bound_to 10752
  154.7045  135.5231  153.8644 H   0  0  0  0  0  0  0  0  0  0  0  0  # atno 10765 bound_to 10752
  140.2709  134.3084  155.7828 H   0  0  0  0  0  0  0  0  0  0  0  0  # atno 11005 bound_to 11000
  145.1317  140.9521  143.4540 LP  0  0  0  0  0  0  0  0  0  0  0  0  # atno 17320 bound_to 7965
  145.0381  139.3283  143.5990 LP  0  0  0  0  0  0  0  0  0  0  0  0  # atno 17321 bound_to 7965
  139.5443  144.2564  152.1411 LP  0  0  0  0  0  0  0  0  0  0  0  0  # atno 17342 bound_to 10162
  140.1785  144.4867  150.6541 LP  0  0  0  0  0  0  0  0  0  0  0  0  # atno 17343 bound_to 10162
  156.1475  130.3642  149.9488 LP  0  0  0  0  0  0  0  0  0  0  0  0  # atno 17370 bound_to 10713
  156.7515  130.9117  151.3637 LP  0  0  0  0  0  0  0  0  0  0  0  0  # atno 17371 bound_to 10713
  141.2177  133.7466  156.9332 LP  0  0  0  0  0  0  0  0  0  0  0  0  # atno 17394 bound_to 11000
  140.1374  134.9316  157.2421 LP  0  0  0  0  0  0  0  0  0  0  0  0  # atno 17395 bound_to 11000

$$$$
