AV-unprocessed.smi:977|AV-procd|sdf|4307|dock1
  -GOLD-   22720 2213D 1   1.00000     0.00000
 Structure written by MMmdl.
 37 38  0  0  0  0  0  0  0  0  1 V2000
  147.4300  141.3876  154.2327 C   0  0  0  0  0  0  0  0  0  0  0  0
  148.7580  140.6961  154.3700 C   0  0  0  0  0  0  0  0  0  0  0  0
  149.7774  141.3597  154.8955 N   0  0  0  0  0  0  0  0  0  0  0  0
  150.8524  140.4600  154.9648 O   0  0  0  0  0  0  0  0  0  0  0  0
  150.4526  139.2585  154.4723 C   0  0  0  0  0  0  0  0  0  0  0  0
  151.4561  138.1554  154.4769 C   0  0  0  0  0  0  0  0  0  0  0  0
  149.1570  139.3624  154.0600 C   0  0  0  0  0  0  0  0  0  0  0  0
  148.3966  138.2972  153.5163 N   0  0  0  0  0  0  0  0  0  0  0  0
  147.1474  137.9461  153.8556 C   0  0  0  0  0  0  0  0  0  0  0  0
  146.4477  138.5427  154.6733 O   0  0  0  0  0  0  0  0  0  0  0  0
  146.7432  136.8643  153.1745 N   0  0  0  0  0  0  0  0  0  0  0  0
  145.4375  136.2168  153.2922 C   0  0  1  0  0  0  0  0  0  0  0  0
  144.3681  137.1599  152.7222 C   0  0  0  0  0  0  0  0  0  0  0  0
  145.4411  134.8520  152.5713 C   0  0  1  0  0  0  0  0  0  0  0  0
  145.6783  134.9136  151.0609 C   0  0  0  0  0  0  0  0  0  0  0  0
  146.1755  133.5161  150.7733 C   0  0  0  0  0  0  0  0  0  0  0  0
  147.0300  133.2256  152.0043 C   0  0  0  0  0  0  0  0  0  0  0  0
  146.5011  134.0311  153.0556 O   0  0  0  0  0  0  0  0  0  0  0  0
  146.6047  140.6912  154.3819 H   0  0  0  0  0  0  0  0  0  0  0  0
  147.3207  141.8328  153.2438 H   0  0  0  0  0  0  0  0  0  0  0  0
  147.3174  142.1855  154.9672 H   0  0  0  0  0  0  0  0  0  0  0  0
  150.9852  137.1959  154.2629 H   0  0  0  0  0  0  0  0  0  0  0  0
  151.9448  138.0812  155.4485 H   0  0  0  0  0  0  0  0  0  0  0  0
  152.2243  138.3306  153.7238 H   0  0  0  0  0  0  0  0  0  0  0  0
  148.8136  137.8056  152.7395 H   0  0  0  0  0  0  0  0  0  0  0  0
  147.3921  136.4498  152.5218 H   0  0  0  0  0  0  0  0  0  0  0  0
  145.2015  136.0520  154.3452 H   0  0  0  0  0  0  0  0  0  0  0  0
  143.3700  136.7338  152.8270 H   0  0  0  0  0  0  0  0  0  0  0  0
  144.5353  137.3573  151.6627 H   0  0  0  0  0  0  0  0  0  0  0  0
  144.3701  138.1173  153.2443 H   0  0  0  0  0  0  0  0  0  0  0  0
  144.5030  134.3266  152.7598 H   0  0  0  0  0  0  0  0  0  0  0  0
  144.7815  135.1714  150.4968 H   0  0  0  0  0  0  0  0  0  0  0  0
  146.4554  135.6414  150.8224 H   0  0  0  0  0  0  0  0  0  0  0  0
  145.3339  132.8237  150.7271 H   0  0  0  0  0  0  0  0  0  0  0  0
  146.7326  133.4410  149.8392 H   0  0  0  0  0  0  0  0  0  0  0  0
  147.0200  132.1684  152.2710 H   0  0  0  0  0  0  0  0  0  0  0  0
  148.0654  133.5212  151.8311 H   0  0  0  0  0  0  0  0  0  0  0  0
  1  2  1  0  0  0  0
  1 19  1  0  0  0  0
  1 20  1  0  0  0  0
  1 21  1  0  0  0  0
  2  7  1  0  0  0  0
  2  3  2  0  0  0  0
  3  4  1  0  0  0  0
  4  5  1  0  0  0  0
  5  6  1  0  0  0  0
  5  7  2  0  0  0  0
  6 22  1  0  0  0  0
  6 23  1  0  0  0  0
  6 24  1  0  0  0  0
  7  8  1  0  0  0  0
  8  9  1  0  0  0  0
  8 25  1  0  0  0  0
  9 10  2  0  0  0  0
  9 11  1  0  0  0  0
 11 12  1  0  0  0  0
 11 26  1  0  0  0  0
 12 13  1  0  0  0  0
 12 14  1  0  0  0  0
 12 27  1  0  0  0  0
 13 28  1  0  0  0  0
 13 29  1  0  0  0  0
 13 30  1  0  0  0  0
 14 18  1  0  0  0  0
 14 15  1  0  0  0  0
 14 31  1  0  0  0  0
 15 16  1  0  0  0  0
 15 32  1  0  0  0  0
 15 33  1  0  0  0  0
 16 17  1  0  0  0  0
 16 34  1  0  0  0  0
 16 35  1  0  0  0  0
 17 18  1  0  0  0  0
 17 36  1  0  0  0  0
 17 37  1  0  0  0  0
M  END
> <s_m_source_file>
AV-unprocessed.smi

> <i_m_source_file_index>
977

> <i_lp_mmshare_version>
43012

> <i_f3d_flags>
0

> <s_epik_input>
W0NIM11jMW5vYyhbQ0gzXSljMVtOSF1DKD1PKVtOSF1bQ0BIXShbQ0gzXSlbQ0BASF0yW0NIMl1bQ0gyXVtDSDJdTzI=

> <s_epik_cmdline>
J2VwaWtfcHl0aG9uJywgJy1waCcsICc3LjAnLCAnLXRuJywgJzgnLCAnLW1hJywgJzIwMCcsICctbWV0YWxfYmluZGluZycsICctaW1hZScsICc8aW5maWxlLm1hZT4nLCAnLW9tYWUnLCAnPG91dGZpbGUubWFlPic=

> <r_lp_tautomer_probability>
1

> <r_epik_Ionization_Penalty>
3.41601e-05

> <r_epik_Ionization_Penalty_Charging>
0

> <r_epik_Ionization_Penalty_Neutral>
3.41601e-05

> <r_epik_State_Penalty>
-0

> <r_epik_Charging_Adjusted_Penalty>
0

> <i_epik_Tot_Q>
0

> <i_epik_Tot_abs_Q>
0

> <r_epik_Metal_State_Penalty>
-0

> <b_epik_Metal_Only>
0

> <s_lp_Force_Field>
OPLS_2005

> <r_lp_Energy>
19.4669

> <b_lp_Chiralities_Consistent>
1

> <s_lp_Variant>
AV-unprocessed.smi:977-4

> <Gold.Version>
5.8.1

> <Gold.Id.Protein>
6NUR|6NUR_protein|mol2

> <Gold.PLP.Fitness>
36.5592

> <Gold.PLP.PLP>
-29.2720

> <Gold.PLP.part.hbond>
-4.4508

> <Gold.PLP.part.metal>
0.0000

> <Gold.PLP.part.buried>
-2.4221

> <Gold.PLP.part.nonpolar>
-23.1402

> <Gold.PLP.part.repulsive>
0.4111

> <Gold.PLP.ligand.clash>
0.0000

> <Gold.PLP.ligand.torsion>
0.4795

> <Gold.PLP.Chemscore.Hbond>
2.6100

> <Gold.PLP.Chemscore.CHOScore>
0.0000

> <Gold.PLP.Chemscore.Metal>
0.0000

> <Gold.Chemscore.Hbonds>
donor molecule, donor type, donor heavy atom, donor atom, acceptor molecule, acceptor atom, score
      L1  H     8    25       P1  7948  0.96
      L1  H    11    26       P1  7948  1.00
      P1  H  7989  7998       L1     4  0.58

> <Gold.PLP.Chemscore.Internal.Correction>
0.4161

> <Gold.Rescore>
     Score         DG    S(hbond)    S(metal)    S(lipo)     H(rot)  DE(clash)    DE(int)     intcor
     15.59     -16.19       1.90        0.00      64.00       1.22       0.03       0.58       ----

> <Gold.Chemscore.Fitness>
15.5863

> <Gold.Chemscore.DG>
-16.1921

> <Gold.Chemscore.ZeroCoef>
-5.4800

> <Gold.Chemscore.Hbond>
1.9005

> <Gold.Chemscore.Metal>
0.0000

> <Gold.Chemscore.Lipo>
63.9974

> <Gold.Chemscore.Internal_Hbond>
0.0000

> <Gold.Chemscore.DEClash>
0.0269

> <Gold.Chemscore.DEInternal>
0.5789

> <Gold.Chemscore.Rot>
1.2200

> <Gold.Chemscore.Internal.Correction>
   9.000000E+99

> <Gold.Chemscore.Hbonds>
donor molecule, donor type, donor heavy atom, donor atom, acceptor molecule, acceptor atom, score
      L1  H     8    25       P1  7948  0.92
      L1  H    11    26       P1  7948  0.98
      P1  H  7989  7998       L1     4  0.01

> <Gold.Chemscore.Hbond.Weighted>
-6.3476

> <Gold.Chemscore.Metal.Weighted>
-0.0000

> <Gold.Chemscore.Lipo.Weighted>
-7.4877

> <Gold.Chemscore.Internal_Hbond.Weighted>
0.0000

> <Gold.Chemscore.DEClash.Weighted>
0.0269

> <Gold.Chemscore.DEInternal.Weighted>
0.5789

> <Gold.Chemscore.Rot.Weighted>
3.1232

> <Gold.Chemscore.Internal.Correction.Weighted>
   9.000000E+99

> <Gold.Protein.RotatedTorsions>
[ 6907 6896 6895 6894 ] final  -65.45 input  -60.11 | X-H torsion
[ 7974 7965 7964 7962 ] final  169.35 input  175.53 | X-H torsion
[ 8008 7997 7996 7995 ] final -123.78 input   59.86 | X-H torsion
[ 10167 10162 10161 10158 ] final -141.53 input  -65.29 | X-H torsion
[ 10718 10713 10712 10709 ] final   84.02 input   66.30 | X-H torsion
[ 10763 10752 10751 10750 ] final  -75.50 input  -60.55 | X-H torsion
[ 11005 11000 10999 10996 ] final  102.11 input  -57.11 | X-H torsion

> <Gold.Protein.ActiveResidues>
 VAL166  LYS551  ARG553  GLY616  TRP617  ASP618  TYR619  PRO620  LYS621  CYS622 
 ASP623  PHE694  ASN695  SER759  ASP760  ASP761  ALA762  ILE779  LEU786  VAL792 
 PHE793  MET794  SER795  GLU796  ALA797  LYS798  CYS799  TRP800  GLU811  SER814 

> <Gold.Protein.RotatedAtoms>
  150.7523  134.6158  159.6109 H   0  0  0  0  0  0  0  0  0  0  0  0  # atno 6907 bound_to 6896
  152.3479  134.7043  160.0254 H   0  0  0  0  0  0  0  0  0  0  0  0  # atno 6908 bound_to 6896
  151.7473  133.3289  159.3418 H   0  0  0  0  0  0  0  0  0  0  0  0  # atno 6909 bound_to 6896
  144.7358  139.9042  143.6411 H   0  0  0  0  0  0  0  0  0  0  0  0  # atno 7974 bound_to 7965
  155.1862  140.0412  157.2891 H   0  0  0  0  0  0  0  0  0  0  0  0  # atno 8008 bound_to 7997
  154.6170  140.2491  155.7569 H   0  0  0  0  0  0  0  0  0  0  0  0  # atno 8009 bound_to 7997
  156.2412  140.2903  156.0459 H   0  0  0  0  0  0  0  0  0  0  0  0  # atno 8010 bound_to 7997
  139.8176  143.7617  152.2665 H   0  0  0  0  0  0  0  0  0  0  0  0  # atno 10167 bound_to 10162
  157.6890  131.0115  150.2610 H   0  0  0  0  0  0  0  0  0  0  0  0  # atno 10718 bound_to 10713
  154.4874  135.5829  153.6434 H   0  0  0  0  0  0  0  0  0  0  0  0  # atno 10763 bound_to 10752
  152.9857  135.6104  154.3168 H   0  0  0  0  0  0  0  0  0  0  0  0  # atno 10764 bound_to 10752
  154.3065  135.2846  155.2566 H   0  0  0  0  0  0  0  0  0  0  0  0  # atno 10765 bound_to 10752
  139.8776  134.9211  156.5009 H   0  0  0  0  0  0  0  0  0  0  0  0  # atno 11005 bound_to 11000
  146.1049  139.4048  143.0324 LP  0  0  0  0  0  0  0  0  0  0  0  0  # atno 17320 bound_to 7965
  145.7526  140.9966  143.1242 LP  0  0  0  0  0  0  0  0  0  0  0  0  # atno 17321 bound_to 7965
  139.7786  144.7452  151.0121 LP  0  0  0  0  0  0  0  0  0  0  0  0  # atno 17342 bound_to 10162
  140.7815  143.4567  151.0336 LP  0  0  0  0  0  0  0  0  0  0  0  0  # atno 17343 bound_to 10162
  156.3190  130.3783  149.7592 LP  0  0  0  0  0  0  0  0  0  0  0  0  # atno 17370 bound_to 10713
  156.5169  130.8197  151.3189 LP  0  0  0  0  0  0  0  0  0  0  0  0  # atno 17371 bound_to 10713
  140.8590  133.8074  155.9246 LP  0  0  0  0  0  0  0  0  0  0  0  0  # atno 17394 bound_to 11000
  140.9068  134.2310  157.5009 LP  0  0  0  0  0  0  0  0  0  0  0  0  # atno 17395 bound_to 11000

$$$$
