AV-unprocessed.smi:2159|AV-procd|sdf|8795|dock6
  -GOLD-   2272011573D 1   1.00000     0.00000
 Structure written by MMmdl.
 48 50  0  0  0  0  0  0  0  0  2 V2000
  149.3409  138.0527  156.3004 O   0  0  0  0  0  0  0  0  0  0  0  0
  149.4998  137.6128  155.1622 C   0  0  0  0  0  0  0  0  0  0  0  0
  150.9018  137.2683  154.6582 C   0  0  0  0  0  0  0  0  0  0  0  0
  151.8258  138.5027  154.6504 C   0  0  0  0  0  0  0  0  0  0  0  0
  151.5562  139.3817  155.7920 N   0  0  0  0  0  0  0  0  0  0  0  0
  150.7472  140.4488  155.7368 C   0  0  0  0  0  0  0  0  0  0  0  0
  150.1382  140.8470  154.7428 O   0  0  0  0  0  0  0  0  0  0  0  0
  150.6484  141.1347  157.0969 C   0  0  2  0  0  0  0  0  0  0  0  0
  151.0475  142.6239  157.0320 C   0  0  0  0  0  0  0  0  0  0  0  0
  151.2782  143.1982  158.4402 C   0  0  0  0  0  0  0  0  0  0  0  0
  152.2575  142.3615  159.2937 C   0  0  0  0  0  0  0  0  0  0  0  0
  152.7526  141.0844  158.5916 C   0  0  0  0  0  0  0  0  0  0  0  0
  151.5843  140.2820  157.9809 C   0  0  2  0  0  0  0  0  0  0  0  0
  152.0753  139.2061  157.0150 C   0  0  0  0  0  0  0  0  0  0  0  0
  152.8442  138.3071  157.3550 O   0  0  0  0  0  0  0  0  0  0  0  0
  148.4872  137.3764  154.3143 N   0  0  0  0  0  0  0  0  0  0  0  0
  147.0698  137.5186  154.6344 C   0  0  0  0  0  0  0  0  0  0  0  0
  146.2613  138.1848  153.5005 C   0  0  0  0  0  0  0  0  0  0  0  0
  145.6021  137.1923  152.5572 C   0  0  0  0  0  0  0  0  0  0  0  0
  144.2167  136.9218  152.6021 C   0  0  0  0  0  0  0  0  0  0  0  0
  143.6702  135.9700  151.7169 C   0  0  0  0  0  0  0  0  0  0  0  0
  144.5186  135.3130  150.8020 C   0  0  0  0  0  0  0  0  0  0  0  0
  145.8935  135.6250  150.7961 C   0  0  0  0  0  0  0  0  0  0  0  0
  146.3799  136.5406  151.6628 N   0  3  0  0  0  0  0  0  0  0  0  0
  151.3236  136.4909  155.2979 H   0  0  0  0  0  0  0  0  0  0  0  0
  150.8327  136.8412  153.6573 H   0  0  0  0  0  0  0  0  0  0  0  0
  152.8700  138.1848  154.6530 H   0  0  0  0  0  0  0  0  0  0  0  0
  151.7009  139.0704  153.7263 H   0  0  0  0  0  0  0  0  0  0  0  0
  149.6234  141.0463  157.4600 H   0  0  0  0  0  0  0  0  0  0  0  0
  151.9551  142.7495  156.4388 H   0  0  0  0  0  0  0  0  0  0  0  0
  150.2714  143.1975  156.5238 H   0  0  0  0  0  0  0  0  0  0  0  0
  151.6375  144.2246  158.3630 H   0  0  0  0  0  0  0  0  0  0  0  0
  150.3200  143.2563  158.9581 H   0  0  0  0  0  0  0  0  0  0  0  0
  153.1147  142.9723  159.5783 H   0  0  0  0  0  0  0  0  0  0  0  0
  151.7652  142.0868  160.2275 H   0  0  0  0  0  0  0  0  0  0  0  0
  153.4671  141.3591  157.8135 H   0  0  0  0  0  0  0  0  0  0  0  0
  153.3034  140.4657  159.3011 H   0  0  0  0  0  0  0  0  0  0  0  0
  151.0083  139.8073  158.7764 H   0  0  0  0  0  0  0  0  0  0  0  0
  148.7143  137.0265  153.3946 H   0  0  0  0  0  0  0  0  0  0  0  0
  146.6403  136.5496  154.8930 H   0  0  0  0  0  0  0  0  0  0  0  0
  147.0050  138.1335  155.5325 H   0  0  0  0  0  0  0  0  0  0  0  0
  145.4876  138.8228  153.9292 H   0  0  0  0  0  0  0  0  0  0  0  0
  146.9094  138.8481  152.9266 H   0  0  0  0  0  0  0  0  0  0  0  0
  143.5809  137.4289  153.3133 H   0  0  0  0  0  0  0  0  0  0  0  0
  142.6139  135.7452  151.7421 H   0  0  0  0  0  0  0  0  0  0  0  0
  144.1197  134.5802  150.1158 H   0  0  0  0  0  0  0  0  0  0  0  0
  146.6141  135.1712  150.1312 H   0  0  0  0  0  0  0  0  0  0  0  0
  147.3788  136.7478  151.6427 H   0  0  0  0  0  0  0  0  0  0  0  0
  1  2  2  0  0  0  0
  2  3  1  0  0  0  0
  2 16  1  0  0  0  0
  3  4  1  0  0  0  0
  3 25  1  0  0  0  0
  3 26  1  0  0  0  0
  4  5  1  0  0  0  0
  4 27  1  0  0  0  0
  4 28  1  0  0  0  0
  5 14  1  0  0  0  0
  5  6  1  0  0  0  0
  6  7  2  0  0  0  0
  6  8  1  0  0  0  0
  8 13  1  0  0  0  0
  8  9  1  0  0  0  0
  8 29  1  0  0  0  0
  9 10  1  0  0  0  0
  9 30  1  0  0  0  0
  9 31  1  0  0  0  0
 10 11  1  0  0  0  0
 10 32  1  0  0  0  0
 10 33  1  0  0  0  0
 11 12  1  0  0  0  0
 11 34  1  0  0  0  0
 11 35  1  0  0  0  0
 12 13  1  0  0  0  0
 12 36  1  0  0  0  0
 12 37  1  0  0  0  0
 13 14  1  0  0  0  0
 13 38  1  0  0  0  0
 14 15  2  0  0  0  0
 16 17  1  0  0  0  0
 16 39  1  0  0  0  0
 17 18  1  0  0  0  0
 17 40  1  0  0  0  0
 17 41  1  0  0  0  0
 18 19  1  0  0  0  0
 18 42  1  0  0  0  0
 18 43  1  0  0  0  0
 19 24  1  0  0  0  0
 19 20  2  0  0  0  0
 20 21  1  0  0  0  0
 20 44  1  0  0  0  0
 21 22  2  0  0  0  0
 21 45  1  0  0  0  0
 22 23  1  0  0  0  0
 22 46  1  0  0  0  0
 23 24  2  0  0  0  0
 23 47  1  0  0  0  0
 24 48  1  0  0  0  0
M  CHG  1  24   1
M  END
> <s_m_source_file>
AV-unprocessed.smi

> <i_m_source_file_index>
2159

> <i_lp_mmshare_version>
43012

> <i_f3d_flags>
0

> <s_epik_input>
bjFbY0hdW2NIXVtjSF1bY0hdYzFbQ0gyXVtDSDJdW05IXUMoPU8pW0NIMl1bQ0gyXU4oQzI9TylDKD1PKVtDQEhdKFtDQEBIXTIzKVtDSDJdW0NIMl1bQ0gyXVtDSDJdMw==

> <s_epik_cmdline>
J2VwaWtfcHl0aG9uJywgJy1waCcsICc3LjAnLCAnLXRuJywgJzgnLCAnLW1hJywgJzIwMCcsICctbWV0YWxfYmluZGluZycsICctaW1hZScsICc8aW5maWxlLm1hZT4nLCAnLW9tYWUnLCAnPG91dGZpbGUubWFlPic=

> <r_lp_tautomer_probability>
1

> <r_epik_Ionization_Penalty>
1.85146

> <r_epik_Ionization_Penalty_Charging>
1.85146

> <r_epik_Ionization_Penalty_Neutral>
2.95922e-08

> <r_epik_State_Penalty>
1.96899

> <r_epik_Charging_Adjusted_Penalty>
3.82044

> <i_epik_Tot_Q>
1

> <i_epik_Tot_abs_Q>
1

> <r_epik_Metal_State_Penalty>
1.99467

> <b_epik_Metal_Only>
0

> <s_lp_Force_Field>
OPLS_2005

> <r_lp_Energy>
31.2596

> <b_lp_Chiralities_Consistent>
1

> <s_lp_Variant>
AV-unprocessed.smi:2159-5

> <Gold.Version>
5.8.1

> <Gold.Id.Protein>
6NUR|6NUR_protein|mol2

> <Gold.PLP.Fitness>
50.5890

> <Gold.PLP.PLP>
-41.1180

> <Gold.PLP.part.hbond>
-3.0000

> <Gold.PLP.part.metal>
0.0000

> <Gold.PLP.part.buried>
-5.7475

> <Gold.PLP.part.nonpolar>
-32.2036

> <Gold.PLP.part.repulsive>
0.1944

> <Gold.PLP.ligand.clash>
0.0000

> <Gold.PLP.ligand.torsion>
1.0083

> <Gold.PLP.Chemscore.Hbond>
3.7680

> <Gold.PLP.Chemscore.CHOScore>
0.0000

> <Gold.PLP.Chemscore.Metal>
0.0000

> <Gold.Chemscore.Hbonds>
donor molecule, donor type, donor heavy atom, donor atom, acceptor molecule, acceptor atom, score
      L1  H    16    39       P1  7948  1.00
      L1  H    24    48       P1  7948  1.98
      P1  H  7989  7998       L1     7  0.71

> <Gold.PLP.Chemscore.Internal.Correction>
0.1835

> <Gold.Rescore>
     Score         DG    S(hbond)    S(metal)    S(lipo)     H(rot)  DE(clash)    DE(int)     intcor
     14.61     -18.52       2.19        0.00      94.84       2.10       0.05       3.85       ----

> <Gold.Chemscore.Fitness>
14.6131

> <Gold.Chemscore.DG>
-18.5151

> <Gold.Chemscore.ZeroCoef>
-5.4800

> <Gold.Chemscore.Hbond>
2.1871

> <Gold.Chemscore.Metal>
0.0000

> <Gold.Chemscore.Lipo>
94.8358

> <Gold.Chemscore.Internal_Hbond>
0.0000

> <Gold.Chemscore.DEClash>
0.0503

> <Gold.Chemscore.DEInternal>
3.8518

> <Gold.Chemscore.Rot>
2.0959

> <Gold.Chemscore.Internal.Correction>
   9.000000E+99

> <Gold.Chemscore.Hbonds>
donor molecule, donor type, donor heavy atom, donor atom, acceptor molecule, acceptor atom, score
      L1  H    16    39       P1  7948  1.00
      L1  H    24    48       P1  7948  0.93
      P1  H  7989  7998       L1     7  0.16

> <Gold.Chemscore.Hbond.Weighted>
-7.3048

> <Gold.Chemscore.Metal.Weighted>
-0.0000

> <Gold.Chemscore.Lipo.Weighted>
-11.0958

> <Gold.Chemscore.Internal_Hbond.Weighted>
0.0000

> <Gold.Chemscore.DEClash.Weighted>
0.0503

> <Gold.Chemscore.DEInternal.Weighted>
3.8518

> <Gold.Chemscore.Rot.Weighted>
5.3655

> <Gold.Chemscore.Internal.Correction.Weighted>
   9.000000E+99

> <Gold.Protein.RotatedTorsions>
[ 6907 6896 6895 6894 ] final  -53.58 input  -60.11 | X-H torsion
[ 7974 7965 7964 7962 ] final  -28.42 input  175.53 | X-H torsion
[ 8008 7997 7996 7995 ] final  136.64 input   59.86 | X-H torsion
[ 10167 10162 10161 10158 ] final  156.46 input  -65.29 | X-H torsion
[ 10718 10713 10712 10709 ] final   48.13 input   66.30 | X-H torsion
[ 10763 10752 10751 10750 ] final  160.89 input  -60.55 | X-H torsion
[ 11005 11000 10999 10996 ] final   24.56 input  -57.11 | X-H torsion

> <Gold.Protein.ActiveResidues>
 VAL166  LYS551  ARG553  GLY616  TRP617  ASP618  TYR619  PRO620  LYS621  CYS622 
 ASP623  PHE694  ASN695  SER759  ASP760  ASP761  ALA762  ILE779  LEU786  VAL792 
 PHE793  MET794  SER795  GLU796  ALA797  LYS798  CYS799  TRP800  GLU811  SER814 

> <Gold.Protein.RotatedAtoms>
  150.8414  134.7708  159.6935 H   0  0  0  0  0  0  0  0  0  0  0  0  # atno 6907 bound_to 6896
  152.4501  134.5409  159.9848 H   0  0  0  0  0  0  0  0  0  0  0  0  # atno 6908 bound_to 6896
  151.5548  133.3374  159.2995 H   0  0  0  0  0  0  0  0  0  0  0  0  # atno 6909 bound_to 6896
  146.1289  140.5281  142.8702 H   0  0  0  0  0  0  0  0  0  0  0  0  # atno 7974 bound_to 7965
  156.3004  140.2440  156.3778 H   0  0  0  0  0  0  0  0  0  0  0  0  # atno 8008 bound_to 7997
  154.8729  140.0415  157.1755 H   0  0  0  0  0  0  0  0  0  0  0  0  # atno 8009 bound_to 7997
  154.8776  140.2944  155.5448 H   0  0  0  0  0  0  0  0  0  0  0  0  # atno 8010 bound_to 7997
  139.4821  144.5007  151.8173 H   0  0  0  0  0  0  0  0  0  0  0  0  # atno 10167 bound_to 10162
  157.4655  130.8223  149.7932 H   0  0  0  0  0  0  0  0  0  0  0  0  # atno 10718 bound_to 10713
  154.2544  135.2770  155.2803 H   0  0  0  0  0  0  0  0  0  0  0  0  # atno 10763 bound_to 10752
  154.5437  135.5695  153.6865 H   0  0  0  0  0  0  0  0  0  0  0  0  # atno 10764 bound_to 10752
  152.9974  135.6257  154.2692 H   0  0  0  0  0  0  0  0  0  0  0  0  # atno 10765 bound_to 10752
  140.3574  134.2163  155.7675 H   0  0  0  0  0  0  0  0  0  0  0  0  # atno 11005 bound_to 11000
  144.7670  140.5553  143.6696 LP  0  0  0  0  0  0  0  0  0  0  0  0  # atno 17320 bound_to 7965
  145.5304  139.1475  143.3502 LP  0  0  0  0  0  0  0  0  0  0  0  0  # atno 17321 bound_to 7965
  140.4500  144.1869  150.5897 LP  0  0  0  0  0  0  0  0  0  0  0  0  # atno 17342 bound_to 10162
  140.4595  143.2454  151.9239 LP  0  0  0  0  0  0  0  0  0  0  0  0  # atno 17343 bound_to 10162
  156.0048  130.3861  150.2470 LP  0  0  0  0  0  0  0  0  0  0  0  0  # atno 17370 bound_to 10713
  157.0650  131.0100  151.3210 LP  0  0  0  0  0  0  0  0  0  0  0  0  # atno 17371 bound_to 10713
  141.1994  133.8012  157.0537 LP  0  0  0  0  0  0  0  0  0  0  0  0  # atno 17394 bound_to 11000
  140.0654  134.9732  157.1377 LP  0  0  0  0  0  0  0  0  0  0  0  0  # atno 17395 bound_to 11000

$$$$
