AV-unprocessed.smi:2940|AV-procd|sdf|11262|dock5
  -GOLD-   2272016153D 1   1.00000     0.00000
 Structure written by MMmdl.
 26 27  0  0  0  0  0  0  0  0  1 V2000
  149.0170  138.7782  153.4148 N   0  0  0  0  0  0  0  0  0  0  0  0
  149.7207  139.5013  154.3744 C   0  0  0  0  0  0  0  0  0  0  0  0
  150.9734  139.0415  154.8274 C   0  0  0  0  0  0  0  0  0  0  0  0
  151.6552  139.7996  155.7986 C   0  0  0  0  0  0  0  0  0  0  0  0
  151.0607  140.9879  156.2810 C   0  0  0  0  0  0  0  0  0  0  0  0
  151.6758  141.7949  157.2486 N   0  0  0  0  0  0  0  0  0  0  0  0
  151.2864  143.1968  157.1639 C   0  0  0  0  0  0  0  0  0  0  0  0
  152.0924  144.0295  158.1765 C   0  0  0  0  0  0  0  0  0  0  0  0
  151.9138  143.4947  159.4851 O   0  0  0  0  0  0  0  0  0  0  0  0
  152.3665  142.1468  159.5780 C   0  0  0  0  0  0  0  0  0  0  0  0
  151.5669  141.2655  158.6022 C   0  0  0  0  0  0  0  0  0  0  0  0
  149.8025  141.3554  155.7585 C   0  0  0  0  0  0  0  0  0  0  0  0
  149.1423  140.6338  154.8268 N   0  0  0  0  0  0  0  0  0  0  0  0
  148.1179  139.0859  153.0738 H   0  0  0  0  0  0  0  0  0  0  0  0
  149.3853  137.9199  153.0311 H   0  0  0  0  0  0  0  0  0  0  0  0
  151.4050  138.1292  154.4420 H   0  0  0  0  0  0  0  0  0  0  0  0
  152.6167  139.4701  156.1643 H   0  0  0  0  0  0  0  0  0  0  0  0
  151.4593  143.5690  156.1533 H   0  0  0  0  0  0  0  0  0  0  0  0
  150.2198  143.2983  157.3691 H   0  0  0  0  0  0  0  0  0  0  0  0
  153.1525  144.0379  157.9175 H   0  0  0  0  0  0  0  0  0  0  0  0
  151.7534  145.0652  158.1665 H   0  0  0  0  0  0  0  0  0  0  0  0
  153.4352  142.0955  159.3627 H   0  0  0  0  0  0  0  0  0  0  0  0
  152.2300  141.7957  160.6007 H   0  0  0  0  0  0  0  0  0  0  0  0
  150.5198  141.2360  158.9065 H   0  0  0  0  0  0  0  0  0  0  0  0
  151.9421  140.2417  158.6307 H   0  0  0  0  0  0  0  0  0  0  0  0
  149.3093  142.2549  156.0970 H   0  0  0  0  0  0  0  0  0  0  0  0
  1  2  1  0  0  0  0
  1 14  1  0  0  0  0
  1 15  1  0  0  0  0
  2 13  1  0  0  0  0
  2  3  2  0  0  0  0
  3  4  1  0  0  0  0
  3 16  1  0  0  0  0
  4  5  2  0  0  0  0
  4 17  1  0  0  0  0
  5  6  1  0  0  0  0
  5 12  1  0  0  0  0
  6 11  1  0  0  0  0
  6  7  1  0  0  0  0
  7  8  1  0  0  0  0
  7 18  1  0  0  0  0
  7 19  1  0  0  0  0
  8  9  1  0  0  0  0
  8 20  1  0  0  0  0
  8 21  1  0  0  0  0
  9 10  1  0  0  0  0
 10 11  1  0  0  0  0
 10 22  1  0  0  0  0
 10 23  1  0  0  0  0
 11 24  1  0  0  0  0
 11 25  1  0  0  0  0
 12 13  2  0  0  0  0
 12 26  1  0  0  0  0
M  END
> <s_m_source_file>
AV-unprocessed.smi

> <i_m_source_file_index>
2940

> <i_lp_mmshare_version>
43012

> <i_f3d_flags>
0

> <s_epik_input>
W05IMl1jMVtjSF1bY0hdYyhbY0hdbjEpTjJbQ0gyXVtDSDJdT1tDSDJdW0NIMl0y

> <s_epik_cmdline>
J2VwaWtfcHl0aG9uJywgJy1waCcsICc3LjAnLCAnLXRuJywgJzgnLCAnLW1hJywgJzIwMCcsICctbWV0YWxfYmluZGluZycsICctaW1hZScsICc8aW5maWxlLm1hZT4nLCAnLW9tYWUnLCAnPG91dGZpbGUubWFlPic=

> <r_lp_tautomer_probability>
1

> <r_epik_Ionization_Penalty>
0.109499

> <r_epik_Ionization_Penalty_Charging>
0

> <r_epik_Ionization_Penalty_Neutral>
0.109499

> <r_epik_State_Penalty>
0.0992404

> <r_epik_Charging_Adjusted_Penalty>
0.0992404

> <i_epik_Tot_Q>
0

> <i_epik_Tot_abs_Q>
0

> <r_epik_Metal_State_Penalty>
0.000108026

> <b_epik_Metal_Only>
0

> <s_lp_Force_Field>
OPLS_2005

> <r_lp_Energy>
21.5337

> <b_lp_Chiralities_Consistent>
1

> <s_lp_Variant>
AV-unprocessed.smi:2940-1

> <Gold.Version>
5.8.1

> <Gold.Id.Protein>
6NUR|6NUR_protein|mol2

> <Gold.PLP.Fitness>
32.4985

> <Gold.PLP.PLP>
-28.0139

> <Gold.PLP.part.hbond>
-2.0000

> <Gold.PLP.part.metal>
0.0000

> <Gold.PLP.part.buried>
-2.3858

> <Gold.PLP.part.nonpolar>
-24.2278

> <Gold.PLP.part.repulsive>
0.2204

> <Gold.PLP.ligand.clash>
0.0000

> <Gold.PLP.ligand.torsion>
0.5987

> <Gold.PLP.Chemscore.Hbond>
0.8596

> <Gold.PLP.Chemscore.CHOScore>
1.0000

> <Gold.PLP.Chemscore.Metal>
0.0000

> <Gold.Chemscore.Hbonds>
donor molecule, donor type, donor heavy atom, donor atom, acceptor molecule, acceptor atom, score
      L1  H     1    15       P1  7948  0.86
      L1  C    12    26       P1  8028  0.98

> <Gold.PLP.Chemscore.Internal.Correction>
0.1032

> <Gold.Rescore>
     Score         DG    S(hbond)    S(metal)    S(lipo)     H(rot)  DE(clash)    DE(int)     intcor
     12.94     -13.60       0.88        0.00      66.27       1.00       0.02       0.65       ----

> <Gold.Chemscore.Fitness>
12.9367

> <Gold.Chemscore.DG>
-13.6005

> <Gold.Chemscore.ZeroCoef>
-5.4800

> <Gold.Chemscore.Hbond>
0.8762

> <Gold.Chemscore.Metal>
0.0000

> <Gold.Chemscore.Lipo>
66.2723

> <Gold.Chemscore.Internal_Hbond>
0.0000

> <Gold.Chemscore.DEClash>
0.0174

> <Gold.Chemscore.DEInternal>
0.6464

> <Gold.Chemscore.Rot>
1.0000

> <Gold.Chemscore.Internal.Correction>
   9.000000E+99

> <Gold.Chemscore.Hbonds>
donor molecule, donor type, donor heavy atom, donor atom, acceptor molecule, acceptor atom, score
      L1  H     1    15       P1  7948  0.75

> <Gold.Chemscore.Hbond.Weighted>
-2.9267

> <Gold.Chemscore.Metal.Weighted>
-0.0000

> <Gold.Chemscore.Lipo.Weighted>
-7.7539

> <Gold.Chemscore.Internal_Hbond.Weighted>
0.0000

> <Gold.Chemscore.DEClash.Weighted>
0.0174

> <Gold.Chemscore.DEInternal.Weighted>
0.6464

> <Gold.Chemscore.Rot.Weighted>
2.5600

> <Gold.Chemscore.Internal.Correction.Weighted>
   9.000000E+99

> <Gold.Protein.RotatedTorsions>
[ 6907 6896 6895 6894 ] final  -72.24 input  -60.11 | X-H torsion
[ 7974 7965 7964 7962 ] final  -98.17 input  175.53 | X-H torsion
[ 8008 7997 7996 7995 ] final   61.12 input   59.86 | X-H torsion
[ 10167 10162 10161 10158 ] final   89.57 input  -65.29 | X-H torsion
[ 10718 10713 10712 10709 ] final  -95.91 input   66.30 | X-H torsion
[ 10763 10752 10751 10750 ] final   25.21 input  -60.55 | X-H torsion
[ 11005 11000 10999 10996 ] final  -78.12 input  -57.11 | X-H torsion

> <Gold.Protein.ActiveResidues>
 VAL166  LYS551  ARG553  GLY616  TRP617  ASP618  TYR619  PRO620  LYS621  CYS622 
 ASP623  PHE694  ASN695  SER759  ASP760  ASP761  ALA762  ILE779  LEU786  VAL792 
 PHE793  MET794  SER795  GLU796  ALA797  LYS798  CYS799  TRP800  GLU811  SER814 

> <Gold.Protein.RotatedAtoms>
  150.7178  134.5192  159.5644 H   0  0  0  0  0  0  0  0  0  0  0  0  # atno 6907 bound_to 6896
  152.2751  134.7887  160.0416 H   0  0  0  0  0  0  0  0  0  0  0  0  # atno 6908 bound_to 6896
  151.8554  133.3412  159.3723 H   0  0  0  0  0  0  0  0  0  0  0  0  # atno 6909 bound_to 6896
  145.3241  140.9428  143.2699 H   0  0  0  0  0  0  0  0  0  0  0  0  # atno 7974 bound_to 7965
  155.5932  140.3493  155.4572 H   0  0  0  0  0  0  0  0  0  0  0  0  # atno 8008 bound_to 7997
  156.0285  140.1269  157.0308 H   0  0  0  0  0  0  0  0  0  0  0  0  # atno 8009 bound_to 7997
  154.4343  140.1048  156.6051 H   0  0  0  0  0  0  0  0  0  0  0  0  # atno 8010 bound_to 7997
  139.8560  144.6569  150.9114 H   0  0  0  0  0  0  0  0  0  0  0  0  # atno 10167 bound_to 10162
  156.0052  130.5129  150.6147 H   0  0  0  0  0  0  0  0  0  0  0  0  # atno 10718 bound_to 10713
  153.0708  135.6588  154.0252 H   0  0  0  0  0  0  0  0  0  0  0  0  # atno 10763 bound_to 10752
  153.9898  135.2947  155.3414 H   0  0  0  0  0  0  0  0  0  0  0  0  # atno 10764 bound_to 10752
  154.7082  135.5216  153.8696 H   0  0  0  0  0  0  0  0  0  0  0  0  # atno 10765 bound_to 10752
  141.1663  133.7050  156.7923 H   0  0  0  0  0  0  0  0  0  0  0  0  # atno 11005 bound_to 11000
  144.8916  139.4767  143.6675 LP  0  0  0  0  0  0  0  0  0  0  0  0  # atno 17320 bound_to 7965
  146.3071  139.7617  142.9048 LP  0  0  0  0  0  0  0  0  0  0  0  0  # atno 17321 bound_to 7965
  140.7781  143.3786  151.1518 LP  0  0  0  0  0  0  0  0  0  0  0  0  # atno 17342 bound_to 10162
  139.7420  143.8910  152.3052 LP  0  0  0  0  0  0  0  0  0  0  0  0  # atno 17343 bound_to 10162
  157.3973  131.0804  151.1340 LP  0  0  0  0  0  0  0  0  0  0  0  0  # atno 17370 bound_to 10713
  157.2013  130.6396  149.5739 LP  0  0  0  0  0  0  0  0  0  0  0  0  # atno 17371 bound_to 10713
  140.2316  134.8681  157.3482 LP  0  0  0  0  0  0  0  0  0  0  0  0  # atno 17394 bound_to 11000
  140.1885  134.4401  155.7729 LP  0  0  0  0  0  0  0  0  0  0  0  0  # atno 17395 bound_to 11000

$$$$
