AV-unprocessed.smi:2293|AV-procd|sdf|9214|dock9
  -GOLD-   2272012433D 1   1.00000     0.00000
 Structure written by MMmdl.
 34 35  0  0  0  0  0  0  0  0  1 V2000
  153.4652  142.5890  163.2297 C   0  0  0  0  0  0  0  0  0  0  0  0
  153.1136  142.2942  161.7820 C   0  0  0  0  0  0  0  0  0  0  0  0
  152.1930  143.1667  161.1943 N   0  0  0  0  0  0  0  0  0  0  0  0
  151.8366  142.9950  159.9634 C   0  0  0  0  0  0  0  0  0  0  0  0
  152.3496  141.9433  159.1865 N   0  0  0  0  0  0  0  0  0  0  0  0
  151.8711  141.8649  157.7960 C   0  0  0  0  0  0  0  0  0  0  0  0
  150.3637  141.5353  157.7141 C   0  0  2  0  0  0  0  0  0  0  0  0
  150.0412  140.6291  158.7506 O   0  0  0  0  0  0  0  0  0  0  0  0
  150.0025  140.9674  156.3499 C   0  0  0  0  0  0  0  0  0  0  0  0
  149.0009  141.5884  155.5730 C   0  0  0  0  0  0  0  0  0  0  0  0
  148.6631  141.0735  154.3061 C   0  0  0  0  0  0  0  0  0  0  0  0
  149.3272  139.9365  153.8073 C   0  0  0  0  0  0  0  0  0  0  0  0
  150.3314  139.3158  154.5750 C   0  0  0  0  0  0  0  0  0  0  0  0
  150.9730  138.2243  154.0950 F   0  0  0  0  0  0  0  0  0  0  0  0
  150.6695  139.8304  155.8417 C   0  0  0  0  0  0  0  0  0  0  0  0
  153.2536  141.0485  159.6809 C   0  0  0  0  0  0  0  0  0  0  0  0
  153.7042  140.1343  158.9873 O   0  0  0  0  0  0  0  0  0  0  0  0
  153.6499  141.2567  161.0831 C   0  0  0  0  0  0  0  0  0  0  0  0
  154.6579  140.2760  161.6694 C   0  0  0  0  0  0  0  0  0  0  0  0
  153.2197  141.7369  163.8642 H   0  0  0  0  0  0  0  0  0  0  0  0
  152.9151  143.4532  163.6041 H   0  0  0  0  0  0  0  0  0  0  0  0
  154.5299  142.8025  163.3277 H   0  0  0  0  0  0  0  0  0  0  0  0
  151.1270  143.6513  159.4563 H   0  0  0  0  0  0  0  0  0  0  0  0
  152.0522  142.8333  157.3251 H   0  0  0  0  0  0  0  0  0  0  0  0
  152.4506  141.1621  157.1935 H   0  0  0  0  0  0  0  0  0  0  0  0
  149.7715  142.4375  157.8724 H   0  0  0  0  0  0  0  0  0  0  0  0
  149.2234  140.8988  159.1401 H   0  0  0  0  0  0  0  0  0  0  0  0
  148.4884  142.4636  155.9450 H   0  0  0  0  0  0  0  0  0  0  0  0
  147.8949  141.5521  153.7168 H   0  0  0  0  0  0  0  0  0  0  0  0
  149.0681  139.5423  152.8357 H   0  0  0  0  0  0  0  0  0  0  0  0
  151.4444  139.3502  156.4214 H   0  0  0  0  0  0  0  0  0  0  0  0
  155.5818  140.2960  161.0904 H   0  0  0  0  0  0  0  0  0  0  0  0
  154.2587  139.2616  161.6360 H   0  0  0  0  0  0  0  0  0  0  0  0
  154.9162  140.4928  162.7047 H   0  0  0  0  0  0  0  0  0  0  0  0
  1  2  1  0  0  0  0
  1 20  1  0  0  0  0
  1 21  1  0  0  0  0
  1 22  1  0  0  0  0
  2 18  2  0  0  0  0
  2  3  1  0  0  0  0
  3  4  2  0  0  0  0
  4  5  1  0  0  0  0
  4 23  1  0  0  0  0
  5  6  1  0  0  0  0
  5 16  1  0  0  0  0
  6  7  1  0  0  0  0
  6 24  1  0  0  0  0
  6 25  1  0  0  0  0
  7  8  1  0  0  0  0
  7  9  1  0  0  0  0
  7 26  1  0  0  0  0
  8 27  1  0  0  0  0
  9 15  1  0  0  0  0
  9 10  2  0  0  0  0
 10 11  1  0  0  0  0
 10 28  1  0  0  0  0
 11 12  2  0  0  0  0
 11 29  1  0  0  0  0
 12 13  1  0  0  0  0
 12 30  1  0  0  0  0
 13 14  1  0  0  0  0
 13 15  2  0  0  0  0
 15 31  1  0  0  0  0
 16 17  2  0  0  0  0
 16 18  1  0  0  0  0
 18 19  1  0  0  0  0
 19 32  1  0  0  0  0
 19 33  1  0  0  0  0
 19 34  1  0  0  0  0
M  END
> <s_m_source_file>
AV-unprocessed.smi

> <i_m_source_file_index>
2293

> <i_lp_mmshare_version>
43012

> <i_f3d_flags>
0

> <s_epik_input>
W0NIM11jMW5bY0hdbihjKD1PKWMxW0NIM10pW0NIMl1bQ0BIXShbT0hdKWMyW2NIXVtjSF1bY0hdYyhGKVtjSF0y

> <s_epik_cmdline>
J2VwaWtfcHl0aG9uJywgJy1waCcsICc3LjAnLCAnLXRuJywgJzgnLCAnLW1hJywgJzIwMCcsICctbWV0YWxfYmluZGluZycsICctaW1hZScsICc8aW5maWxlLm1hZT4nLCAnLW9tYWUnLCAnPG91dGZpbGUubWFlPic=

> <r_lp_tautomer_probability>
1

> <r_epik_Ionization_Penalty>
5.08222e-05

> <r_epik_Ionization_Penalty_Charging>
7.56727e-08

> <r_epik_Ionization_Penalty_Neutral>
5.07465e-05

> <r_epik_State_Penalty>
-0

> <r_epik_Charging_Adjusted_Penalty>
7.56727e-08

> <i_epik_Tot_Q>
0

> <i_epik_Tot_abs_Q>
0

> <r_epik_Metal_State_Penalty>
-0

> <b_epik_Metal_Only>
0

> <s_lp_Force_Field>
OPLS_2005

> <r_lp_Energy>
18.7837

> <b_lp_Chiralities_Consistent>
1

> <s_lp_Variant>
AV-unprocessed.smi:2293-1

> <Gold.Version>
5.8.1

> <Gold.Id.Protein>
6NUR|6NUR_protein|mol2

> <Gold.PLP.Fitness>
43.0287

> <Gold.PLP.PLP>
-40.9136

> <Gold.PLP.part.hbond>
-1.2775

> <Gold.PLP.part.metal>
0.0000

> <Gold.PLP.part.buried>
-0.1551

> <Gold.PLP.part.nonpolar>
-38.8148

> <Gold.PLP.part.repulsive>
0.0989

> <Gold.PLP.ligand.clash>
0.0000

> <Gold.PLP.ligand.torsion>
0.3027

> <Gold.PLP.Chemscore.Hbond>
0.9048

> <Gold.PLP.Chemscore.CHOScore>
0.0000

> <Gold.PLP.Chemscore.Metal>
0.0000

> <Gold.Chemscore.Hbonds>
donor molecule, donor type, donor heavy atom, donor atom, acceptor molecule, acceptor atom, score
      P1  H  7997  8008       L1    17  0.82

> <Gold.PLP.Chemscore.Internal.Correction>
0.0062

> <Gold.Rescore>
     Score         DG    S(hbond)    S(metal)    S(lipo)     H(rot)  DE(clash)    DE(int)     intcor
     12.66     -14.18       0.88        0.00      93.52       2.02       1.35       0.17       ----

> <Gold.Chemscore.Fitness>
12.6587

> <Gold.Chemscore.DG>
-14.1818

> <Gold.Chemscore.ZeroCoef>
-5.4800

> <Gold.Chemscore.Hbond>
0.8762

> <Gold.Chemscore.Metal>
0.0000

> <Gold.Chemscore.Lipo>
93.5190

> <Gold.Chemscore.Internal_Hbond>
0.0000

> <Gold.Chemscore.DEClash>
1.3536

> <Gold.Chemscore.DEInternal>
0.1695

> <Gold.Chemscore.Rot>
2.0181

> <Gold.Chemscore.Internal.Correction>
   9.000000E+99

> <Gold.Chemscore.Hbonds>
donor molecule, donor type, donor heavy atom, donor atom, acceptor molecule, acceptor atom, score
      P1  H  7997  8008       L1    17  0.78

> <Gold.Chemscore.Hbond.Weighted>
-2.9264

> <Gold.Chemscore.Metal.Weighted>
-0.0000

> <Gold.Chemscore.Lipo.Weighted>
-10.9417

> <Gold.Chemscore.Internal_Hbond.Weighted>
0.0000

> <Gold.Chemscore.DEClash.Weighted>
1.3536

> <Gold.Chemscore.DEInternal.Weighted>
0.1695

> <Gold.Chemscore.Rot.Weighted>
5.1663

> <Gold.Chemscore.Internal.Correction.Weighted>
   9.000000E+99

> <Gold.Protein.RotatedTorsions>
[ 6907 6896 6895 6894 ] final -158.81 input  -60.11 | X-H torsion
[ 7974 7965 7964 7962 ] final  -67.19 input  175.53 | X-H torsion
[ 8008 7997 7996 7995 ] final -104.22 input   59.86 | X-H torsion
[ 10167 10162 10161 10158 ] final   39.51 input  -65.29 | X-H torsion
[ 10718 10713 10712 10709 ] final -112.17 input   66.30 | X-H torsion
[ 10763 10752 10751 10750 ] final  -82.72 input  -60.55 | X-H torsion
[ 11005 11000 10999 10996 ] final -177.48 input  -57.11 | X-H torsion

> <Gold.Protein.ActiveResidues>
 VAL166  LYS551  ARG553  GLY616  TRP617  ASP618  TYR619  PRO620  LYS621  CYS622 
 ASP623  PHE694  ASN695  SER759  ASP760  ASP761  ALA762  ILE779  LEU786  VAL792 
 PHE793  MET794  SER795  GLU796  ALA797  LYS798  CYS799  TRP800  GLU811  SER814 

> <Gold.Protein.RotatedAtoms>
  151.3238  133.4029  159.2656 H   0  0  0  0  0  0  0  0  0  0  0  0  # atno 6907 bound_to 6896
  151.0012  134.9324  159.7965 H   0  0  0  0  0  0  0  0  0  0  0  0  # atno 6908 bound_to 6896
  152.5275  134.3203  159.9198 H   0  0  0  0  0  0  0  0  0  0  0  0  # atno 6909 bound_to 6896
  145.7322  140.8991  143.0574 H   0  0  0  0  0  0  0  0  0  0  0  0  # atno 7974 bound_to 7965
  154.8822  140.0419  157.1789 H   0  0  0  0  0  0  0  0  0  0  0  0  # atno 8008 bound_to 7997
  154.8628  140.2946  155.5508 H   0  0  0  0  0  0  0  0  0  0  0  0  # atno 8009 bound_to 7997
  156.2998  140.2444  156.3604 H   0  0  0  0  0  0  0  0  0  0  0  0  # atno 8010 bound_to 7997
  140.3833  144.1951  150.6130 H   0  0  0  0  0  0  0  0  0  0  0  0  # atno 10167 bound_to 10162
  156.0690  130.5906  150.8473 H   0  0  0  0  0  0  0  0  0  0  0  0  # atno 10718 bound_to 10713
  154.5791  135.5581  153.7168 H   0  0  0  0  0  0  0  0  0  0  0  0  # atno 10763 bound_to 10752
  153.0075  135.6316  154.2007 H   0  0  0  0  0  0  0  0  0  0  0  0  # atno 10764 bound_to 10752
  154.1948  135.2880  155.2990 H   0  0  0  0  0  0  0  0  0  0  0  0  # atno 10765 bound_to 10752
  140.4404  134.6436  157.4755 H   0  0  0  0  0  0  0  0  0  0  0  0  # atno 11005 bound_to 11000
  144.6890  139.9347  143.7473 LP  0  0  0  0  0  0  0  0  0  0  0  0  # atno 17320 bound_to 7965
  146.0526  139.3526  143.0630 LP  0  0  0  0  0  0  0  0  0  0  0  0  # atno 17321 bound_to 7965
  140.4915  143.2346  151.8811 LP  0  0  0  0  0  0  0  0  0  0  0  0  # atno 17342 bound_to 10162
  139.4794  144.5160  151.8867 LP  0  0  0  0  0  0  0  0  0  0  0  0  # atno 17343 bound_to 10162
  157.5750  131.0946  150.9360 LP  0  0  0  0  0  0  0  0  0  0  0  0  # atno 17370 bound_to 10713
  156.9568  130.5440  149.5284 LP  0  0  0  0  0  0  0  0  0  0  0  0  # atno 17371 bound_to 10713
  140.0073  134.6744  155.9435 LP  0  0  0  0  0  0  0  0  0  0  0  0  # atno 17394 bound_to 11000
  141.1708  133.6537  156.4644 LP  0  0  0  0  0  0  0  0  0  0  0  0  # atno 17395 bound_to 11000

$$$$
