AV-unprocessed.smi:2919|AV-procd|sdf|11193|dock3
  -GOLD-   2272016 83D 1   1.00000     0.00000
 Structure written by MMmdl.
 34 36  0  0  0  0  0  0  0  0  1 V2000
  151.9047  144.4863  160.6872 C   0  0  0  0  0  0  0  0  0  0  0  0
  152.1180  143.2576  159.8211 C   0  0  0  0  0  0  0  0  0  0  0  0
  151.4519  143.2662  158.6457 N   0  0  0  0  0  0  0  0  0  0  0  0
  151.5611  142.2415  157.7989 N   0  0  0  0  0  0  0  0  0  0  0  0
  152.3367  141.1712  158.0967 C   0  0  0  0  0  0  0  0  0  0  0  0
  152.4019  140.1302  157.1525 N   0  0  0  0  0  0  0  0  0  0  0  0
  151.9208  140.3255  155.7881 C   0  0  1  0  0  0  0  0  0  0  0  0
  152.1226  139.0935  154.9027 C   0  0  0  0  0  0  0  0  0  0  0  0
  150.7053  138.8571  154.3620 C   0  0  1  0  0  0  0  0  0  0  0  0
  149.7874  138.2534  155.4328 C   0  0  0  0  0  0  0  0  0  0  0  0
  149.5606  139.4484  156.3562 C   0  0  0  0  0  0  0  0  0  0  0  0
  150.3982  140.5429  155.6726 C   0  0  2  0  0  0  0  0  0  0  0  0
  150.2089  140.1842  154.3141 O   0  0  0  0  0  0  0  0  0  0  0  0
  153.0655  141.0964  159.3120 C   0  0  0  0  0  0  0  0  0  0  0  0
  153.8995  139.9382  159.6279 C   0  0  0  0  0  0  0  0  0  0  0  0
  154.5593  139.0214  159.8785 N   0  0  0  0  0  0  0  0  0  0  0  0
  152.9522  142.1832  160.2150 C   0  0  0  0  0  0  0  0  0  0  0  0
  153.6976  142.1880  161.5473 C   0  0  0  0  0  0  0  0  0  0  0  0
  152.8536  144.9894  160.8753 H   0  0  0  0  0  0  0  0  0  0  0  0
  151.4611  144.2066  161.6430 H   0  0  0  0  0  0  0  0  0  0  0  0
  151.2369  145.2035  160.2075 H   0  0  0  0  0  0  0  0  0  0  0  0
  152.4529  139.1815  157.4948 H   0  0  0  0  0  0  0  0  0  0  0  0
  152.4465  141.1666  155.3335 H   0  0  0  0  0  0  0  0  0  0  0  0
  152.8153  139.3219  154.0920 H   0  0  0  0  0  0  0  0  0  0  0  0
  152.5053  138.2233  155.4379 H   0  0  0  0  0  0  0  0  0  0  0  0
  150.6775  138.3303  153.4078 H   0  0  0  0  0  0  0  0  0  0  0  0
  148.8441  137.9229  154.9964 H   0  0  0  0  0  0  0  0  0  0  0  0
  150.2450  137.4046  155.9421 H   0  0  0  0  0  0  0  0  0  0  0  0
  148.5056  139.7244  156.3640 H   0  0  0  0  0  0  0  0  0  0  0  0
  149.8630  139.2558  157.3857 H   0  0  0  0  0  0  0  0  0  0  0  0
  150.0761  141.5566  155.9119 H   0  0  0  0  0  0  0  0  0  0  0  0
  153.4119  141.3198  162.1423 H   0  0  0  0  0  0  0  0  0  0  0  0
  153.4994  143.0721  162.1506 H   0  0  0  0  0  0  0  0  0  0  0  0
  154.7738  142.1453  161.3757 H   0  0  0  0  0  0  0  0  0  0  0  0
  1  2  1  0  0  0  0
  1 19  1  0  0  0  0
  1 20  1  0  0  0  0
  1 21  1  0  0  0  0
  2 17  1  0  0  0  0
  2  3  2  0  0  0  0
  3  4  1  0  0  0  0
  4  5  2  0  0  0  0
  5  6  1  0  0  0  0
  5 14  1  0  0  0  0
  6  7  1  0  0  0  0
  6 22  1  0  0  0  0
  7 12  1  0  0  0  0
  7  8  1  0  0  0  0
  7 23  1  0  0  0  0
  8  9  1  0  0  0  0
  8 24  1  0  0  0  0
  8 25  1  0  0  0  0
  9 13  1  0  0  0  0
  9 10  1  0  0  0  0
  9 26  1  0  0  0  0
 10 11  1  0  0  0  0
 10 27  1  0  0  0  0
 10 28  1  0  0  0  0
 11 12  1  0  0  0  0
 11 29  1  0  0  0  0
 11 30  1  0  0  0  0
 12 13  1  0  0  0  0
 12 31  1  0  0  0  0
 14 15  1  0  0  0  0
 14 17  2  0  0  0  0
 15 16  3  0  0  0  0
 17 18  1  0  0  0  0
 18 32  1  0  0  0  0
 18 33  1  0  0  0  0
 18 34  1  0  0  0  0
M  END
> <s_m_source_file>
AV-unprocessed.smi

> <i_m_source_file_index>
2919

> <i_lp_mmshare_version>
43012

> <i_f3d_flags>
0

> <s_epik_input>
W0NIM11jMW5uYyhjKEMjTiljMVtDSDNdKVtOSF1bQ0BIXShbQ0gyXVtDQEBIXTIzKVtDQEBIXShPMylbQ0gyXVtDSDJdMg==

> <s_epik_cmdline>
J2VwaWtfcHl0aG9uJywgJy1waCcsICc3LjAnLCAnLXRuJywgJzgnLCAnLW1hJywgJzIwMCcsICctbWV0YWxfYmluZGluZycsICctaW1hZScsICc8aW5maWxlLm1hZT4nLCAnLW9tYWUnLCAnPG91dGZpbGUubWFlPic=

> <r_lp_tautomer_probability>
1

> <r_epik_Ionization_Penalty>
0.00143865

> <r_epik_Ionization_Penalty_Charging>
0

> <r_epik_Ionization_Penalty_Neutral>
0.00143865

> <r_epik_State_Penalty>
-0

> <r_epik_Charging_Adjusted_Penalty>
0

> <i_epik_Tot_Q>
0

> <i_epik_Tot_abs_Q>
0

> <r_epik_Metal_State_Penalty>
-0

> <b_epik_Metal_Only>
0

> <s_lp_Force_Field>
OPLS_2005

> <r_lp_Energy>
49.159

> <b_lp_Chiralities_Consistent>
1

> <s_lp_Variant>
AV-unprocessed.smi:2919-2

> <Gold.Version>
5.8.1

> <Gold.Id.Protein>
6NUR|6NUR_protein|mol2

> <Gold.PLP.Fitness>
39.7174

> <Gold.PLP.PLP>
-36.8459

> <Gold.PLP.part.hbond>
-1.0000

> <Gold.PLP.part.metal>
0.0000

> <Gold.PLP.part.buried>
-6.2690

> <Gold.PLP.part.nonpolar>
-30.4094

> <Gold.PLP.part.repulsive>
0.3214

> <Gold.PLP.ligand.clash>
0.0000

> <Gold.PLP.ligand.torsion>
0.0694

> <Gold.PLP.Chemscore.Hbond>
1.0000

> <Gold.PLP.Chemscore.CHOScore>
0.0000

> <Gold.PLP.Chemscore.Metal>
0.0000

> <Gold.Chemscore.Hbonds>
donor molecule, donor type, donor heavy atom, donor atom, acceptor molecule, acceptor atom, score
      P1  H  7989  7998       L1    13  0.80

> <Gold.PLP.Chemscore.Internal.Correction>
0.0102

> <Gold.Rescore>
     Score         DG    S(hbond)    S(metal)    S(lipo)     H(rot)  DE(clash)    DE(int)     intcor
     15.88     -16.05       0.83        0.00      88.42       1.00       0.00       0.16       ----

> <Gold.Chemscore.Fitness>
15.8816

> <Gold.Chemscore.DG>
-16.0474

> <Gold.Chemscore.ZeroCoef>
-5.4800

> <Gold.Chemscore.Hbond>
0.8329

> <Gold.Chemscore.Metal>
0.0000

> <Gold.Chemscore.Lipo>
88.4234

> <Gold.Chemscore.Internal_Hbond>
0.0000

> <Gold.Chemscore.DEClash>
0.0021

> <Gold.Chemscore.DEInternal>
0.1636

> <Gold.Chemscore.Rot>
1.0000

> <Gold.Chemscore.Internal.Correction>
   9.000000E+99

> <Gold.Chemscore.Hbonds>
donor molecule, donor type, donor heavy atom, donor atom, acceptor molecule, acceptor atom, score
      P1  H  7989  7998       L1    13  0.05

> <Gold.Chemscore.Hbond.Weighted>
-2.7819

> <Gold.Chemscore.Metal.Weighted>
-0.0000

> <Gold.Chemscore.Lipo.Weighted>
-10.3455

> <Gold.Chemscore.Internal_Hbond.Weighted>
0.0000

> <Gold.Chemscore.DEClash.Weighted>
0.0021

> <Gold.Chemscore.DEInternal.Weighted>
0.1636

> <Gold.Chemscore.Rot.Weighted>
2.5600

> <Gold.Chemscore.Internal.Correction.Weighted>
   9.000000E+99

> <Gold.Protein.RotatedTorsions>
[ 6907 6896 6895 6894 ] final   65.28 input  -60.11 | X-H torsion
[ 7974 7965 7964 7962 ] final  -31.96 input  175.53 | X-H torsion
[ 8008 7997 7996 7995 ] final  -30.10 input   59.86 | X-H torsion
[ 10167 10162 10161 10158 ] final  -69.41 input  -65.29 | X-H torsion
[ 10718 10713 10712 10709 ] final -144.15 input   66.30 | X-H torsion
[ 10763 10752 10751 10750 ] final   74.15 input  -60.55 | X-H torsion
[ 11005 11000 10999 10996 ] final -157.10 input  -57.11 | X-H torsion

> <Gold.Protein.ActiveResidues>
 VAL166  LYS551  ARG553  GLY616  TRP617  ASP618  TYR619  PRO620  LYS621  CYS622 
 ASP623  PHE694  ASN695  SER759  ASP760  ASP761  ALA762  ILE779  LEU786  VAL792 
 PHE793  MET794  SER795  GLU796  ALA797  LYS798  CYS799  TRP800  GLU811  SER814 

> <Gold.Protein.RotatedAtoms>
  152.4396  134.5618  159.9896 H   0  0  0  0  0  0  0  0  0  0  0  0  # atno 6907 bound_to 6896
  151.5719  133.3383  159.2999 H   0  0  0  0  0  0  0  0  0  0  0  0  # atno 6908 bound_to 6896
  150.8299  134.7582  159.6909 H   0  0  0  0  0  0  0  0  0  0  0  0  # atno 6909 bound_to 6896
  146.1027  140.5733  142.8813 H   0  0  0  0  0  0  0  0  0  0  0  0  # atno 7974 bound_to 7965
  154.4264  140.1800  156.1353 H   0  0  0  0  0  0  0  0  0  0  0  0  # atno 8008 bound_to 7997
  156.0035  140.3357  155.6844 H   0  0  0  0  0  0  0  0  0  0  0  0  # atno 8009 bound_to 7997
  155.6210  140.0660  157.2669 H   0  0  0  0  0  0  0  0  0  0  0  0  # atno 8010 bound_to 7997
  140.5433  143.2314  151.7049 H   0  0  0  0  0  0  0  0  0  0  0  0  # atno 10167 bound_to 10162
  156.3666  130.7766  151.1941 H   0  0  0  0  0  0  0  0  0  0  0  0  # atno 10718 bound_to 10713
  153.0568  135.5036  154.7999 H   0  0  0  0  0  0  0  0  0  0  0  0  # atno 10763 bound_to 10752
  154.6819  135.2970  154.9603 H   0  0  0  0  0  0  0  0  0  0  0  0  # atno 10764 bound_to 10752
  154.0386  135.6720  153.4840 H   0  0  0  0  0  0  0  0  0  0  0  0  # atno 10765 bound_to 10752
  140.6683  134.4275  157.5232 H   0  0  0  0  0  0  0  0  0  0  0  0  # atno 11005 bound_to 11000
  144.7446  140.5033  143.6845 LP  0  0  0  0  0  0  0  0  0  0  0  0  # atno 17320 bound_to 7965
  145.5822  139.1489  143.3229 LP  0  0  0  0  0  0  0  0  0  0  0  0  # atno 17321 bound_to 7965
  139.4997  144.3934  152.0256 LP  0  0  0  0  0  0  0  0  0  0  0  0  # atno 17342 bound_to 10162
  140.3045  144.3608  150.6051 LP  0  0  0  0  0  0  0  0  0  0  0  0  # atno 17343 bound_to 10162
  157.7479  131.0384  150.4503 LP  0  0  0  0  0  0  0  0  0  0  0  0  # atno 17370 bound_to 10713
  156.4723  130.4055  149.6511 LP  0  0  0  0  0  0  0  0  0  0  0  0  # atno 17371 bound_to 10713
  139.8990  134.8601  156.1979 LP  0  0  0  0  0  0  0  0  0  0  0  0  # atno 17394 bound_to 11000
  141.0412  133.6937  156.1601 LP  0  0  0  0  0  0  0  0  0  0  0  0  # atno 17395 bound_to 11000

$$$$
