AV-unprocessed.smi:2865|AV-procd|sdf|11018|dock7
  -GOLD-   2272015483D 1   1.00000     0.00000
 Structure written by MMmdl.
 38 41  0  0  0  0  0  0  0  0  1 V2000
  145.7818  138.5231  153.9833 O   0  0  0  0  0  0  0  0  0  0  0  0
  146.6380  137.9324  153.3294 C   0  0  0  0  0  0  0  0  0  0  0  0
  147.9607  138.1823  153.3904 N   0  0  0  0  0  0  0  0  0  0  0  0
  148.6448  139.1828  154.1319 C   0  0  0  0  0  0  0  0  0  0  0  0
  150.0404  139.0669  154.3023 C   0  0  0  0  0  0  0  0  0  0  0  0
  150.7589  139.9876  154.9802 N   0  0  0  0  0  0  0  0  0  0  0  0
  150.0847  141.0211  155.4914 C   0  0  0  0  0  0  0  0  0  0  0  0
  150.8891  142.0611  156.2076 C   0  0  0  0  0  0  0  0  0  0  0  0
  151.6471  141.7204  157.4745 C   0  0  0  0  0  0  0  0  0  0  0  0
  150.4356  142.6076  157.5460 C   0  0  0  0  0  0  0  0  0  0  0  0
  148.7739  141.2506  155.3768 N   0  0  0  0  0  0  0  0  0  0  0  0
  148.0469  140.3342  154.7016 C   0  0  0  0  0  0  0  0  0  0  0  0
  146.3063  136.9331  152.4935 N   0  0  0  0  0  0  0  0  0  0  0  0
  144.9708  136.4121  152.1964 C   0  0  1  0  0  0  0  0  0  0  0  0
  144.9867  135.2839  151.1564 C   0  0  0  0  0  0  0  0  0  0  0  0
  144.3427  134.1277  151.9331 C   0  0  2  0  0  0  0  0  0  0  0  0
  142.8471  134.3642  152.1901 C   0  0  0  0  0  0  0  0  0  0  0  0
  142.8795  135.4536  153.2624 C   0  0  0  0  0  0  0  0  0  0  0  0
  144.3877  135.6869  153.4212 C   0  0  1  0  0  0  0  0  0  0  0  0
  144.8704  134.3680  153.2248 O   0  0  0  0  0  0  0  0  0  0  0  0
  148.5505  137.5626  152.8544 H   0  0  0  0  0  0  0  0  0  0  0  0
  150.5877  138.2311  153.8914 H   0  0  0  0  0  0  0  0  0  0  0  0
  151.3535  142.7528  155.5071 H   0  0  0  0  0  0  0  0  0  0  0  0
  151.5513  140.7105  157.8691 H   0  0  0  0  0  0  0  0  0  0  0  0
  152.6200  142.1860  157.6172 H   0  0  0  0  0  0  0  0  0  0  0  0
  150.5982  143.6665  157.7363 H   0  0  0  0  0  0  0  0  0  0  0  0
  149.5338  142.1880  157.9880 H   0  0  0  0  0  0  0  0  0  0  0  0
  146.9952  140.5549  154.6128 H   0  0  0  0  0  0  0  0  0  0  0  0
  147.0703  136.4634  152.0292 H   0  0  0  0  0  0  0  0  0  0  0  0
  144.3123  137.2302  151.8990 H   0  0  0  0  0  0  0  0  0  0  0  0
  144.4311  135.5367  150.2527 H   0  0  0  0  0  0  0  0  0  0  0  0
  146.0043  135.0211  150.8640 H   0  0  0  0  0  0  0  0  0  0  0  0
  144.5728  133.1414  151.5294 H   0  0  0  0  0  0  0  0  0  0  0  0
  142.3155  134.6713  151.2889 H   0  0  0  0  0  0  0  0  0  0  0  0
  142.3716  133.4623  152.5774 H   0  0  0  0  0  0  0  0  0  0  0  0
  142.3440  136.3569  152.9682 H   0  0  0  0  0  0  0  0  0  0  0  0
  142.4451  135.0869  154.1930 H   0  0  0  0  0  0  0  0  0  0  0  0
  144.6611  136.1288  154.3801 H   0  0  0  0  0  0  0  0  0  0  0  0
  1  2  2  0  0  0  0
  2  3  1  0  0  0  0
  2 13  1  0  0  0  0
  3  4  1  0  0  0  0
  3 21  1  0  0  0  0
  4 12  1  0  0  0  0
  4  5  2  0  0  0  0
  5  6  1  0  0  0  0
  5 22  1  0  0  0  0
  6  7  2  0  0  0  0
  7  8  1  0  0  0  0
  7 11  1  0  0  0  0
  8 10  1  0  0  0  0
  8  9  1  0  0  0  0
  8 23  1  0  0  0  0
  9 10  1  0  0  0  0
  9 24  1  0  0  0  0
  9 25  1  0  0  0  0
 10 26  1  0  0  0  0
 10 27  1  0  0  0  0
 11 12  2  0  0  0  0
 12 28  1  0  0  0  0
 13 14  1  0  0  0  0
 13 29  1  0  0  0  0
 14 19  1  0  0  0  0
 14 15  1  0  0  0  0
 14 30  1  0  0  0  0
 15 16  1  0  0  0  0
 15 31  1  0  0  0  0
 15 32  1  0  0  0  0
 16 20  1  0  0  0  0
 16 17  1  0  0  0  0
 16 33  1  0  0  0  0
 17 18  1  0  0  0  0
 17 34  1  0  0  0  0
 17 35  1  0  0  0  0
 18 19  1  0  0  0  0
 18 36  1  0  0  0  0
 18 37  1  0  0  0  0
 19 20  1  0  0  0  0
 19 38  1  0  0  0  0
M  END
> <s_m_source_file>
AV-unprocessed.smi

> <i_m_source_file_index>
2865

> <i_lp_mmshare_version>
43012

> <i_f3d_flags>
0

> <s_epik_input>
W0NIMl0xW0NIMl1bQ0BIXShPMilbQ0BASF0oW0NIMl1bQ0BASF0xMilbTkhdQyg9TylbTkhdYzNbY0hdbmMobltjSF0zKVtDSF00W0NIMl1bQ0gyXTQ=

> <s_epik_cmdline>
J2VwaWtfcHl0aG9uJywgJy1waCcsICc3LjAnLCAnLXRuJywgJzgnLCAnLW1hJywgJzIwMCcsICctbWV0YWxfYmluZGluZycsICctaW1hZScsICc8aW5maWxlLm1hZT4nLCAnLW9tYWUnLCAnPG91dGZpbGUubWFlPic=

> <r_lp_tautomer_probability>
1

> <r_epik_Ionization_Penalty>
2.43104e-05

> <r_epik_Ionization_Penalty_Charging>
0

> <r_epik_Ionization_Penalty_Neutral>
2.43104e-05

> <r_epik_State_Penalty>
-0

> <r_epik_Charging_Adjusted_Penalty>
0

> <i_epik_Tot_Q>
0

> <i_epik_Tot_abs_Q>
0

> <r_epik_Metal_State_Penalty>
-0

> <b_epik_Metal_Only>
0

> <s_lp_Force_Field>
OPLS_2005

> <r_lp_Energy>
45.9934

> <b_lp_Chiralities_Consistent>
1

> <s_lp_Variant>
AV-unprocessed.smi:2865-4

> <Gold.Version>
5.8.1

> <Gold.Id.Protein>
6NUR|6NUR_protein|mol2

> <Gold.PLP.Fitness>
37.8542

> <Gold.PLP.PLP>
-29.2425

> <Gold.PLP.part.hbond>
-3.0000

> <Gold.PLP.part.metal>
0.0000

> <Gold.PLP.part.buried>
-6.3627

> <Gold.PLP.part.nonpolar>
-20.6265

> <Gold.PLP.part.repulsive>
0.4233

> <Gold.PLP.ligand.clash>
0.0000

> <Gold.PLP.ligand.torsion>
0.2555

> <Gold.PLP.Chemscore.Hbond>
2.9920

> <Gold.PLP.Chemscore.CHOScore>
0.0000

> <Gold.PLP.Chemscore.Metal>
0.0000

> <Gold.Chemscore.Hbonds>
donor molecule, donor type, donor heavy atom, donor atom, acceptor molecule, acceptor atom, score
      L1  H     3    21       P1  7948  1.00
      L1  H    13    29       P1  7948  0.98
      P1  H  7989  7998       L1     6  1.00

> <Gold.PLP.Chemscore.Internal.Correction>
0.1467

> <Gold.Rescore>
     Score         DG    S(hbond)    S(metal)    S(lipo)     H(rot)  DE(clash)    DE(int)     intcor
     16.05     -17.58       2.18        0.00      67.44       1.20       0.13       1.41       ----

> <Gold.Chemscore.Fitness>
16.0473

> <Gold.Chemscore.DG>
-17.5827

> <Gold.Chemscore.ZeroCoef>
-5.4800

> <Gold.Chemscore.Hbond>
2.1820

> <Gold.Chemscore.Metal>
0.0000

> <Gold.Chemscore.Lipo>
67.4358

> <Gold.Chemscore.Internal_Hbond>
0.0000

> <Gold.Chemscore.DEClash>
0.1260

> <Gold.Chemscore.DEInternal>
1.4095

> <Gold.Chemscore.Rot>
1.2012

> <Gold.Chemscore.Internal.Correction>
   9.000000E+99

> <Gold.Chemscore.Hbonds>
donor molecule, donor type, donor heavy atom, donor atom, acceptor molecule, acceptor atom, score
      L1  H     3    21       P1  7948  0.99
      L1  H    13    29       P1  7948  0.93
      P1  H  7989  7998       L1     6  0.07

> <Gold.Chemscore.Hbond.Weighted>
-7.2879

> <Gold.Chemscore.Metal.Weighted>
-0.0000

> <Gold.Chemscore.Lipo.Weighted>
-7.8900

> <Gold.Chemscore.Internal_Hbond.Weighted>
0.0000

> <Gold.Chemscore.DEClash.Weighted>
0.1260

> <Gold.Chemscore.DEInternal.Weighted>
1.4095

> <Gold.Chemscore.Rot.Weighted>
3.0752

> <Gold.Chemscore.Internal.Correction.Weighted>
   9.000000E+99

> <Gold.Protein.RotatedTorsions>
[ 6907 6896 6895 6894 ] final  -13.99 input  -60.11 | X-H torsion
[ 7974 7965 7964 7962 ] final -145.54 input  175.53 | X-H torsion
[ 8008 7997 7996 7995 ] final  123.19 input   59.86 | X-H torsion
[ 10167 10162 10161 10158 ] final  -31.30 input  -65.29 | X-H torsion
[ 10718 10713 10712 10709 ] final   19.72 input   66.30 | X-H torsion
[ 10763 10752 10751 10750 ] final  -29.46 input  -60.55 | X-H torsion
[ 11005 11000 10999 10996 ] final   31.01 input  -57.11 | X-H torsion

> <Gold.Protein.ActiveResidues>
 VAL166  LYS551  ARG553  GLY616  TRP617  ASP618  TYR619  PRO620  LYS621  CYS622 
 ASP623  PHE694  ASN695  SER759  ASP760  ASP761  ALA762  ILE779  LEU786  VAL792 
 PHE793  MET794  SER795  GLU796  ALA797  LYS798  CYS799  TRP800  GLU811  SER814 

> <Gold.Protein.RotatedAtoms>
  151.3464  135.0875  159.9387 H   0  0  0  0  0  0  0  0  0  0  0  0  # atno 6907 bound_to 6896
  152.5198  133.9396  159.7630 H   0  0  0  0  0  0  0  0  0  0  0  0  # atno 6908 bound_to 6896
  150.9763  133.6238  159.2759 H   0  0  0  0  0  0  0  0  0  0  0  0  # atno 6909 bound_to 6896
  144.8220  140.5570  143.5572 H   0  0  0  0  0  0  0  0  0  0  0  0  # atno 7974 bound_to 7965
  156.2756  140.2768  156.1587 H   0  0  0  0  0  0  0  0  0  0  0  0  # atno 8008 bound_to 7997
  155.0776  140.0387  157.2646 H   0  0  0  0  0  0  0  0  0  0  0  0  # atno 8009 bound_to 7997
  154.6990  140.2645  155.6744 H   0  0  0  0  0  0  0  0  0  0  0  0  # atno 8010 bound_to 7997
  140.7238  143.3781  151.1651 H   0  0  0  0  0  0  0  0  0  0  0  0  # atno 10167 bound_to 10162
  157.1144  130.6522  149.5906 H   0  0  0  0  0  0  0  0  0  0  0  0  # atno 10718 bound_to 10713
  153.7650  135.6916  153.4918 H   0  0  0  0  0  0  0  0  0  0  0  0  # atno 10763 bound_to 10752
  153.1913  135.4470  155.0151 H   0  0  0  0  0  0  0  0  0  0  0  0  # atno 10764 bound_to 10752
  154.8139  135.3390  154.7163 H   0  0  0  0  0  0  0  0  0  0  0  0  # atno 10765 bound_to 10752
  140.2883  134.2893  155.7782 H   0  0  0  0  0  0  0  0  0  0  0  0  # atno 11005 bound_to 11000
  145.5083  139.1480  143.3619 LP  0  0  0  0  0  0  0  0  0  0  0  0  # atno 17320 bound_to 7965
  146.2526  140.5224  142.8887 LP  0  0  0  0  0  0  0  0  0  0  0  0  # atno 17321 bound_to 7965
  139.7365  143.8991  152.3036 LP  0  0  0  0  0  0  0  0  0  0  0  0  # atno 17342 bound_to 10162
  139.8797  144.7024  150.8891 LP  0  0  0  0  0  0  0  0  0  0  0  0  # atno 17343 bound_to 10162
  155.9843  130.4867  150.6975 LP  0  0  0  0  0  0  0  0  0  0  0  0  # atno 17370 bound_to 10713
  157.4531  131.0875  151.0825 LP  0  0  0  0  0  0  0  0  0  0  0  0  # atno 17371 bound_to 10713
  141.2151  133.7569  156.9586 LP  0  0  0  0  0  0  0  0  0  0  0  0  # atno 17394 bound_to 11000
  140.1219  134.9412  157.2215 LP  0  0  0  0  0  0  0  0  0  0  0  0  # atno 17395 bound_to 11000

$$$$
