AV-unprocessed.smi:249|AV-procd|sdf|1924|dock8
  -GOLD-   2262021 33D 1   1.00000     0.00000
 Structure written by MMmdl.
 64 67  0  0  0  0  0  0  0  0  2 V2000
  146.1902  130.2832  153.3969 C   0  0  0  0  0  0  0  0  0  0  0  0
  145.5522  131.3111  152.4499 C   0  0  0  0  0  0  0  0  0  0  0  0
  146.5561  132.1201  151.6971 N   0  3  2  0  0  0  0  0  0  0  0  0
  147.3734  133.0269  152.5526 C   0  0  0  0  0  0  0  0  0  0  0  0
  146.5607  134.2377  153.0503 C   0  0  0  0  0  0  0  0  0  0  0  0
  145.9499  135.0107  151.8649 C   0  0  2  0  0  0  0  0  0  0  0  0
  145.1682  136.1754  152.2966 N   0  0  0  0  0  0  0  0  0  0  0  0
  143.7068  136.1258  152.2593 C   0  0  0  0  0  0  0  0  0  0  0  0
  145.7270  136.9159  153.2893 C   0  0  0  0  0  0  0  0  0  0  0  0
  145.6416  136.4879  154.5774 N   0  0  0  0  0  0  0  0  0  0  0  0
  146.2035  137.1942  155.5628 C   0  0  0  0  0  0  0  0  0  0  0  0
  146.8904  138.3351  155.4840 N   0  0  0  0  0  0  0  0  0  0  0  0
  146.9763  138.7732  154.1958 C   0  0  0  0  0  0  0  0  0  0  0  0
  146.4224  138.1353  153.0501 C   0  0  0  0  0  0  0  0  0  0  0  0
  146.6938  138.8883  151.9131 N   0  0  0  0  0  0  0  0  0  0  0  0
  147.3797  139.9048  152.3593 C   0  0  0  0  0  0  0  0  0  0  0  0
  147.6184  139.9014  153.7152 N   0  0  0  0  0  0  0  0  0  0  0  0
  148.3500  140.9048  154.4690 C   0  0  0  0  0  0  0  0  0  0  0  0
  148.7386  140.4847  155.9150 C   0  0  2  0  0  0  0  0  0  0  0  0
  147.7860  141.1805  156.9172 C   0  0  0  0  0  0  0  0  0  0  0  0
  147.7039  142.5695  156.6718 O   0  0  0  0  0  0  0  0  0  0  0  0
  150.2311  140.7722  156.2601 C   0  0  1  0  0  0  0  0  0  0  0  0
  150.6207  140.4981  157.7055 C   0  0  0  0  0  0  0  0  0  0  0  0
  152.1382  140.4169  157.6268 C   0  0  0  0  0  0  0  0  0  0  0  0
  152.3976  139.7687  156.3918 O   0  0  0  0  0  0  0  0  0  0  0  0
  151.2693  139.9007  155.5324 C   0  0  0  0  0  0  0  0  0  0  0  0
  145.1467  134.0591  150.9563 C   0  0  0  0  0  0  0  0  0  0  0  0
  146.0170  132.8632  150.5163 C   0  0  2  0  0  0  0  0  0  0  0  0
  145.3050  131.9615  149.4919 C   0  0  0  0  0  0  0  0  0  0  0  0
  145.4289  129.6152  153.8002 H   0  0  0  0  0  0  0  0  0  0  0  0
  146.6789  130.7546  154.2487 H   0  0  0  0  0  0  0  0  0  0  0  0
  146.9255  129.6679  152.8777 H   0  0  0  0  0  0  0  0  0  0  0  0
  144.9401  130.7443  151.7511 H   0  0  0  0  0  0  0  0  0  0  0  0
  144.8668  131.9530  153.0027 H   0  0  0  0  0  0  0  0  0  0  0  0
  147.8158  132.4926  153.3915 H   0  0  0  0  0  0  0  0  0  0  0  0
  148.2191  133.3835  151.9623 H   0  0  0  0  0  0  0  0  0  0  0  0
  145.7820  133.9046  153.7361 H   0  0  0  0  0  0  0  0  0  0  0  0
  147.2105  134.8971  153.6271 H   0  0  0  0  0  0  0  0  0  0  0  0
  146.7899  135.3595  151.2658 H   0  0  0  0  0  0  0  0  0  0  0  0
  143.2819  137.1153  152.4339 H   0  0  0  0  0  0  0  0  0  0  0  0
  143.3191  135.4495  153.0214 H   0  0  0  0  0  0  0  0  0  0  0  0
  143.3450  135.7896  151.2887 H   0  0  0  0  0  0  0  0  0  0  0  0
  146.0904  136.7844  156.5557 H   0  0  0  0  0  0  0  0  0  0  0  0
  147.7445  140.6828  151.7042 H   0  0  0  0  0  0  0  0  0  0  0  0
  149.2469  141.1730  153.9091 H   0  0  0  0  0  0  0  0  0  0  0  0
  147.7253  141.7980  154.4841 H   0  0  0  0  0  0  0  0  0  0  0  0
  148.5789  139.4111  156.0212 H   0  0  0  0  0  0  0  0  0  0  0  0
  146.7706  140.7955  156.8373 H   0  0  0  0  0  0  0  0  0  0  0  0
  148.1128  141.0129  157.9439 H   0  0  0  0  0  0  0  0  0  0  0  0
  148.3534  142.8000  156.0252 H   0  0  0  0  0  0  0  0  0  0  0  0
  150.4494  141.8205  156.0495 H   0  0  0  0  0  0  0  0  0  0  0  0
  150.2907  141.2727  158.3982 H   0  0  0  0  0  0  0  0  0  0  0  0
  150.2130  139.5417  158.0373 H   0  0  0  0  0  0  0  0  0  0  0  0
  152.5736  141.4166  157.6000 H   0  0  0  0  0  0  0  0  0  0  0  0
  152.5760  139.8750  158.4653 H   0  0  0  0  0  0  0  0  0  0  0  0
  150.8794  138.9009  155.3383 H   0  0  0  0  0  0  0  0  0  0  0  0
  151.5791  140.3344  154.5825 H   0  0  0  0  0  0  0  0  0  0  0  0
  144.2533  133.6936  151.4613 H   0  0  0  0  0  0  0  0  0  0  0  0
  144.8012  134.6056  150.0777 H   0  0  0  0  0  0  0  0  0  0  0  0
  146.8865  133.2682  149.9956 H   0  0  0  0  0  0  0  0  0  0  0  0
  145.1212  132.5073  148.5660 H   0  0  0  0  0  0  0  0  0  0  0  0
  144.3360  131.6140  149.8503 H   0  0  0  0  0  0  0  0  0  0  0  0
  145.9103  131.0898  149.2417 H   0  0  0  0  0  0  0  0  0  0  0  0
  147.2032  131.4446  151.3163 H   0  0  0  0  0  0  0  0  0  0  0  0
  1  2  1  0  0  0  0
  1 30  1  0  0  0  0
  1 31  1  0  0  0  0
  1 32  1  0  0  0  0
  2  3  1  0  0  0  0
  2 33  1  0  0  0  0
  2 34  1  0  0  0  0
  3 28  1  0  0  0  0
  3  4  1  0  0  0  0
  3 64  1  0  0  0  0
  4  5  1  0  0  0  0
  4 35  1  0  0  0  0
  4 36  1  0  0  0  0
  5  6  1  0  0  0  0
  5 37  1  0  0  0  0
  5 38  1  0  0  0  0
  6  7  1  0  0  0  0
  6 27  1  0  0  0  0
  6 39  1  0  0  0  0
  7  8  1  0  0  0  0
  7  9  1  0  0  0  0
  8 40  1  0  0  0  0
  8 41  1  0  0  0  0
  8 42  1  0  0  0  0
  9 14  1  0  0  0  0
  9 10  2  0  0  0  0
 10 11  1  0  0  0  0
 11 12  2  0  0  0  0
 11 43  1  0  0  0  0
 12 13  1  0  0  0  0
 13 17  1  0  0  0  0
 13 14  2  0  0  0  0
 14 15  1  0  0  0  0
 15 16  2  0  0  0  0
 16 17  1  0  0  0  0
 16 44  1  0  0  0  0
 17 18  1  0  0  0  0
 18 19  1  0  0  0  0
 18 45  1  0  0  0  0
 18 46  1  0  0  0  0
 19 20  1  0  0  0  0
 19 22  1  0  0  0  0
 19 47  1  0  0  0  0
 20 21  1  0  0  0  0
 20 48  1  0  0  0  0
 20 49  1  0  0  0  0
 21 50  1  0  0  0  0
 22 26  1  0  0  0  0
 22 23  1  0  0  0  0
 22 51  1  0  0  0  0
 23 24  1  0  0  0  0
 23 52  1  0  0  0  0
 23 53  1  0  0  0  0
 24 25  1  0  0  0  0
 24 54  1  0  0  0  0
 24 55  1  0  0  0  0
 25 26  1  0  0  0  0
 26 56  1  0  0  0  0
 26 57  1  0  0  0  0
 27 28  1  0  0  0  0
 27 58  1  0  0  0  0
 27 59  1  0  0  0  0
 28 29  1  0  0  0  0
 28 60  1  0  0  0  0
 29 61  1  0  0  0  0
 29 62  1  0  0  0  0
 29 63  1  0  0  0  0
M  CHG  1   3   1
M  END
> <s_m_source_file>
AV-unprocessed.smi

> <i_m_source_file_index>
249

> <i_lp_mmshare_version>
43012

> <i_f3d_flags>
0

> <s_epik_input>
W0NIM11bQ0gyXU4xW0NIMl1bQ0gyXVtDQEhdKFtDSDJdW0NASF0xW0NIM10pTihbQ0gzXSljKG5bY0hdbjIpYyhjMjMpbltjSF1uM1tDSDJdW0NASF0oW0NIMl1bT0hdKVtDQEBIXTRbQ0gyXVtDSDJdT1tDSDJdNA==

> <s_epik_cmdline>
J2VwaWtfcHl0aG9uJywgJy1waCcsICc3LjAnLCAnLXRuJywgJzgnLCAnLW1hJywgJzIwMCcsICctbWV0YWxfYmluZGluZycsICctaW1hZScsICc8aW5maWxlLm1hZT4nLCAnLW9tYWUnLCAnPG91dGZpbGUubWFlPic=

> <r_lp_tautomer_probability>
1

> <r_epik_Ionization_Penalty>
0.00294688

> <r_epik_Ionization_Penalty_Charging>
0.00169971

> <r_epik_Ionization_Penalty_Neutral>
0.00124717

> <r_epik_State_Penalty>
-0

> <r_epik_Charging_Adjusted_Penalty>
0.00169971

> <i_epik_Tot_Q>
1

> <i_epik_Tot_abs_Q>
1

> <r_epik_Metal_State_Penalty>
-0

> <b_epik_Metal_Only>
0

> <s_lp_Force_Field>
OPLS_2005

> <r_lp_Energy>
54.5526

> <b_lp_Chiralities_Consistent>
1

> <s_lp_Variant>
AV-unprocessed.smi:249-27

> <Gold.Version>
5.8.1

> <Gold.Id.Protein>
6NUR|6NUR_protein|mol2

> <Gold.PLP.Fitness>
44.9524

> <Gold.PLP.PLP>
-40.7810

> <Gold.PLP.part.hbond>
-3.0000

> <Gold.PLP.part.metal>
0.0000

> <Gold.PLP.part.buried>
1.6435

> <Gold.PLP.part.nonpolar>
-37.5939

> <Gold.PLP.part.repulsive>
0.4252

> <Gold.PLP.ligand.clash>
0.0000

> <Gold.PLP.ligand.torsion>
2.8676

> <Gold.PLP.Chemscore.Hbond>
2.5278

> <Gold.PLP.Chemscore.CHOScore>
0.4022

> <Gold.PLP.Chemscore.Metal>
0.0000

> <Gold.Chemscore.Hbonds>
donor molecule, donor type, donor heavy atom, donor atom, acceptor molecule, acceptor atom, score
      L1  H     3    64       P1 10747  0.73
      L1  H    21    50       P1  8028  0.43
      P1  H  7997  8009       L1    25  1.00
      L1  C    16    44       P1  7957  0.47

> <Gold.PLP.Chemscore.Internal.Correction>
1.1166

> <Gold.Rescore>
     Score         DG    S(hbond)    S(metal)    S(lipo)     H(rot)  DE(clash)    DE(int)     intcor
      8.90     -17.06       2.16        0.00      95.38       2.65       2.80       5.36       ----

> <Gold.Chemscore.Fitness>
8.9032

> <Gold.Chemscore.DG>
-17.0580

> <Gold.Chemscore.ZeroCoef>
-5.4800

> <Gold.Chemscore.Hbond>
2.1577

> <Gold.Chemscore.Metal>
0.0000

> <Gold.Chemscore.Lipo>
95.3795

> <Gold.Chemscore.Internal_Hbond>
0.0000

> <Gold.Chemscore.DEClash>
2.7956

> <Gold.Chemscore.DEInternal>
5.3591

> <Gold.Chemscore.Rot>
2.6515

> <Gold.Chemscore.Internal.Correction>
   9.000000E+99

> <Gold.Chemscore.Hbonds>
donor molecule, donor type, donor heavy atom, donor atom, acceptor molecule, acceptor atom, score
      L1  H     3    64       P1 10747  0.71
      L1  H    21    50       P1  8028  0.39
      P1  H  7997  8009       L1    25  0.28

> <Gold.Chemscore.Hbond.Weighted>
-7.2066

> <Gold.Chemscore.Metal.Weighted>
-0.0000

> <Gold.Chemscore.Lipo.Weighted>
-11.1594

> <Gold.Chemscore.Internal_Hbond.Weighted>
0.0000

> <Gold.Chemscore.DEClash.Weighted>
2.7956

> <Gold.Chemscore.DEInternal.Weighted>
5.3591

> <Gold.Chemscore.Rot.Weighted>
6.7880

> <Gold.Chemscore.Internal.Correction.Weighted>
   9.000000E+99

> <Gold.Protein.RotatedTorsions>
[ 6907 6896 6895 6894 ] final -147.20 input  -60.11 | X-H torsion
[ 7974 7965 7964 7962 ] final  167.07 input  175.53 | X-H torsion
[ 8008 7997 7996 7995 ] final -150.02 input   59.86 | X-H torsion
[ 10167 10162 10161 10158 ] final  175.60 input  -65.29 | X-H torsion
[ 10718 10713 10712 10709 ] final   81.77 input   66.30 | X-H torsion
[ 10763 10752 10751 10750 ] final    3.81 input  -60.55 | X-H torsion
[ 11005 11000 10999 10996 ] final   90.53 input  -57.11 | X-H torsion

> <Gold.Protein.ActiveResidues>
 VAL166  LYS551  ARG553  GLY616  TRP617  ASP618  TYR619  PRO620  LYS621  CYS622 
 ASP623  PHE694  ASN695  SER759  ASP760  ASP761  ALA762  ILE779  LEU786  VAL792 
 PHE793  MET794  SER795  GLU796  ALA797  LYS798  CYS799  TRP800  GLU811  SER814 

> <Gold.Protein.RotatedAtoms>
  151.1523  133.4899  159.2594 H   0  0  0  0  0  0  0  0  0  0  0  0  # atno 6907 bound_to 6896
  151.1541  135.0241  159.8691 H   0  0  0  0  0  0  0  0  0  0  0  0  # atno 6908 bound_to 6896
  152.5463  134.1404  159.8529 H   0  0  0  0  0  0  0  0  0  0  0  0  # atno 6909 bound_to 6896
  144.7438  139.8708  143.6388 H   0  0  0  0  0  0  0  0  0  0  0  0  # atno 7974 bound_to 7965
  155.6169  140.0677  157.2690 H   0  0  0  0  0  0  0  0  0  0  0  0  # atno 8008 bound_to 7997
  154.4239  140.1791  156.1379 H   0  0  0  0  0  0  0  0  0  0  0  0  # atno 8009 bound_to 7997
  156.0040  140.3333  155.6877 H   0  0  0  0  0  0  0  0  0  0  0  0  # atno 8010 bound_to 7997
  139.5183  144.3013  152.0376 H   0  0  0  0  0  0  0  0  0  0  0  0  # atno 10167 bound_to 10162
  157.6841  131.0019  150.2276 H   0  0  0  0  0  0  0  0  0  0  0  0  # atno 10718 bound_to 10713
  153.2789  135.6939  153.7406 H   0  0  0  0  0  0  0  0  0  0  0  0  # atno 10763 bound_to 10752
  153.6401  135.3395  155.3069 H   0  0  0  0  0  0  0  0  0  0  0  0  # atno 10764 bound_to 10752
  154.8488  135.4429  154.1835 H   0  0  0  0  0  0  0  0  0  0  0  0  # atno 10765 bound_to 10752
  139.8854  134.8619  156.3298 H   0  0  0  0  0  0  0  0  0  0  0  0  # atno 11005 bound_to 11000
  146.1282  139.4312  143.0185 LP  0  0  0  0  0  0  0  0  0  0  0  0  # atno 17320 bound_to 7965
  145.7203  141.0077  143.1406 LP  0  0  0  0  0  0  0  0  0  0  0  0  # atno 17321 bound_to 7965
  140.2460  144.4219  150.6240 LP  0  0  0  0  0  0  0  0  0  0  0  0  # atno 17342 bound_to 10162
  140.6258  143.2181  151.6600 LP  0  0  0  0  0  0  0  0  0  0  0  0  # atno 17343 bound_to 10162
  156.2915  130.3746  149.7837 LP  0  0  0  0  0  0  0  0  0  0  0  0  # atno 17370 bound_to 10713
  156.5495  130.8335  151.3295 LP  0  0  0  0  0  0  0  0  0  0  0  0  # atno 17371 bound_to 10713
  140.9731  133.7315  156.0563 LP  0  0  0  0  0  0  0  0  0  0  0  0  # atno 17394 bound_to 11000
  140.7846  134.3687  157.5479 LP  0  0  0  0  0  0  0  0  0  0  0  0  # atno 17395 bound_to 11000

$$$$
