AV-unprocessed.smi:1946|AV-procd|sdf|7862|dock6
  -GOLD-   2272010 13D 1   1.00000     0.00000
 Structure written by MMmdl.
 38 40  0  0  0  0  0  0  0  0  1 V2000
  148.8062  133.8651  154.4036 C   0  0  0  0  0  0  0  0  0  0  0  0
  149.3826  134.5893  155.9923 S   0  0  0  0  0  0  0  0  0  0  0  0
  148.2776  134.5042  156.9598 O   0  0  0  0  0  0  0  0  0  0  0  0
  150.6853  133.9896  156.3212 O   0  0  0  0  0  0  0  0  0  0  0  0
  149.6483  136.3143  155.5991 C   0  0  0  0  0  0  0  0  0  0  0  0
  150.8858  136.7246  155.0653 C   0  0  0  0  0  0  0  0  0  0  0  0
  151.0855  138.0779  154.7304 C   0  0  0  0  0  0  0  0  0  0  0  0
  150.0500  139.0206  154.9203 C   0  0  0  0  0  0  0  0  0  0  0  0
  150.2629  140.4824  154.5584 C   0  0  1  0  0  0  0  0  0  0  0  0
  149.4031  140.9016  153.5159 O   0  0  0  0  0  0  0  0  0  0  0  0
  150.0858  141.3970  155.7869 C   0  0  0  0  0  0  0  0  0  0  0  0
  151.1697  141.2634  156.7445 N   0  0  0  0  0  0  0  0  0  0  0  0
  151.8930  140.1565  157.0004 C   0  0  0  0  0  0  0  0  0  0  0  0
  152.8472  140.2507  157.9221 N   0  0  0  0  0  0  0  0  0  0  0  0
  152.7305  141.5747  158.3099 C   0  0  0  0  0  0  0  0  0  0  0  0
  153.4604  142.3178  159.2651 C   0  0  0  0  0  0  0  0  0  0  0  0
  153.1603  143.6769  159.4940 C   0  0  0  0  0  0  0  0  0  0  0  0
  152.1289  144.3130  158.7729 C   0  0  0  0  0  0  0  0  0  0  0  0
  151.3875  143.5928  157.8166 C   0  0  0  0  0  0  0  0  0  0  0  0
  151.6892  142.2365  157.5918 C   0  0  0  0  0  0  0  0  0  0  0  0
  148.8070  138.5944  155.4376 C   0  0  0  0  0  0  0  0  0  0  0  0
  148.6020  137.2418  155.7733 C   0  0  0  0  0  0  0  0  0  0  0  0
  148.6151  132.8009  154.5393 H   0  0  0  0  0  0  0  0  0  0  0  0
  149.5731  134.0012  153.6412 H   0  0  0  0  0  0  0  0  0  0  0  0
  147.8884  134.3610  154.0886 H   0  0  0  0  0  0  0  0  0  0  0  0
  151.6810  136.0100  154.9118 H   0  0  0  0  0  0  0  0  0  0  0  0
  152.0364  138.3907  154.3244 H   0  0  0  0  0  0  0  0  0  0  0  0
  151.2810  140.5969  154.1838 H   0  0  0  0  0  0  0  0  0  0  0  0
  149.2447  140.1661  152.9441 H   0  0  0  0  0  0  0  0  0  0  0  0
  150.0186  142.4421  155.4817 H   0  0  0  0  0  0  0  0  0  0  0  0
  149.1510  141.1620  156.2975 H   0  0  0  0  0  0  0  0  0  0  0  0
  151.7092  139.2282  156.4794 H   0  0  0  0  0  0  0  0  0  0  0  0
  154.2536  141.8415  159.8221 H   0  0  0  0  0  0  0  0  0  0  0  0
  153.7256  144.2348  160.2261 H   0  0  0  0  0  0  0  0  0  0  0  0
  151.9078  145.3548  158.9533 H   0  0  0  0  0  0  0  0  0  0  0  0
  150.5992  144.0771  157.2598 H   0  0  0  0  0  0  0  0  0  0  0  0
  148.0040  139.3033  155.5776 H   0  0  0  0  0  0  0  0  0  0  0  0
  147.6463  136.9239  156.1633 H   0  0  0  0  0  0  0  0  0  0  0  0
  1  2  1  0  0  0  0
  1 23  1  0  0  0  0
  1 24  1  0  0  0  0
  1 25  1  0  0  0  0
  2  3  2  0  0  0  0
  2  4  2  0  0  0  0
  2  5  1  0  0  0  0
  5 22  1  0  0  0  0
  5  6  2  0  0  0  0
  6  7  1  0  0  0  0
  6 26  1  0  0  0  0
  7  8  2  0  0  0  0
  7 27  1  0  0  0  0
  8  9  1  0  0  0  0
  8 21  1  0  0  0  0
  9 10  1  0  0  0  0
  9 11  1  0  0  0  0
  9 28  1  0  0  0  0
 10 29  1  0  0  0  0
 11 12  1  0  0  0  0
 11 30  1  0  0  0  0
 11 31  1  0  0  0  0
 12 20  1  0  0  0  0
 12 13  1  0  0  0  0
 13 14  2  0  0  0  0
 13 32  1  0  0  0  0
 14 15  1  0  0  0  0
 15 20  2  0  0  0  0
 15 16  1  0  0  0  0
 16 17  2  0  0  0  0
 16 33  1  0  0  0  0
 17 18  1  0  0  0  0
 17 34  1  0  0  0  0
 18 19  2  0  0  0  0
 18 35  1  0  0  0  0
 19 20  1  0  0  0  0
 19 36  1  0  0  0  0
 21 22  2  0  0  0  0
 21 37  1  0  0  0  0
 22 38  1  0  0  0  0
M  END
> <s_m_source_file>
AV-unprocessed.smi

> <i_m_source_file_index>
1946

> <i_lp_mmshare_version>
43012

> <i_f3d_flags>
0

> <s_epik_input>
W0NIM11TKD1PKSg9TyljMVtjSF1bY0hdYyhbY0hdW2NIXTEpW0NASF0oW09IXSlbQ0gyXW4oW2NIXW4yKWMoYzIzKVtjSF1bY0hdW2NIXVtjSF0z

> <s_epik_cmdline>
J2VwaWtfcHl0aG9uJywgJy1waCcsICc3LjAnLCAnLXRuJywgJzgnLCAnLW1hJywgJzIwMCcsICctbWV0YWxfYmluZGluZycsICctaW1hZScsICc8aW5maWxlLm1hZT4nLCAnLW9tYWUnLCAnPG91dGZpbGUubWFlPic=

> <r_epik_Ionization_Penalty>
0.0696512

> <r_epik_Ionization_Penalty_Charging>
0

> <r_epik_Ionization_Penalty_Neutral>
0.0696512

> <r_epik_State_Penalty>
0.0610247

> <r_epik_Charging_Adjusted_Penalty>
0.0610247

> <i_epik_Tot_Q>
0

> <i_epik_Tot_abs_Q>
0

> <r_epik_Metal_State_Penalty>
6.42746e-05

> <b_epik_Metal_Only>
0

> <s_lp_Force_Field>
OPLS_2005

> <r_lp_Energy>
10.2228

> <b_lp_Chiralities_Consistent>
1

> <s_lp_Variant>
AV-unprocessed.smi:1946-2

> <Gold.Version>
5.8.1

> <Gold.Id.Protein>
6NUR|6NUR_protein|mol2

> <Gold.PLP.Fitness>
48.6536

> <Gold.PLP.PLP>
-41.4058

> <Gold.PLP.part.hbond>
-4.0000

> <Gold.PLP.part.metal>
0.0000

> <Gold.PLP.part.buried>
-0.0822

> <Gold.PLP.part.nonpolar>
-35.2639

> <Gold.PLP.part.repulsive>
0.0035

> <Gold.PLP.ligand.clash>
0.0000

> <Gold.PLP.ligand.torsion>
1.4830

> <Gold.PLP.Chemscore.Hbond>
2.7200

> <Gold.PLP.Chemscore.CHOScore>
0.0000

> <Gold.PLP.Chemscore.Metal>
0.0000

> <Gold.Chemscore.Hbonds>
donor molecule, donor type, donor heavy atom, donor atom, acceptor molecule, acceptor atom, score
      L1  H    10    29       P1  7957  0.54
      P1  H  7997  8008       L1    14  0.96
      P1  H  8011  8017       L1    10  1.00

> <Gold.PLP.Chemscore.Internal.Correction>
2.0538

> <Gold.Rescore>
     Score         DG    S(hbond)    S(metal)    S(lipo)     H(rot)  DE(clash)    DE(int)     intcor
     16.27     -19.54       1.48        0.00     121.28       1.98       1.79       1.49       ----

> <Gold.Chemscore.Fitness>
16.2705

> <Gold.Chemscore.DG>
-19.5416

> <Gold.Chemscore.ZeroCoef>
-5.4800

> <Gold.Chemscore.Hbond>
1.4821

> <Gold.Chemscore.Metal>
0.0000

> <Gold.Chemscore.Lipo>
121.2849

> <Gold.Chemscore.Internal_Hbond>
0.0000

> <Gold.Chemscore.DEClash>
1.7854

> <Gold.Chemscore.DEInternal>
1.4856

> <Gold.Chemscore.Rot>
1.9840

> <Gold.Chemscore.Internal.Correction>
   9.000000E+99

> <Gold.Chemscore.Hbonds>
donor molecule, donor type, donor heavy atom, donor atom, acceptor molecule, acceptor atom, score
      L1  H    10    29       P1  7957  0.56
      P1  H  7997  8008       L1    14  0.30
      P1  H  8011  8017       L1    10  0.48

> <Gold.Chemscore.Hbond.Weighted>
-4.9503

> <Gold.Chemscore.Metal.Weighted>
-0.0000

> <Gold.Chemscore.Lipo.Weighted>
-14.1903

> <Gold.Chemscore.Internal_Hbond.Weighted>
0.0000

> <Gold.Chemscore.DEClash.Weighted>
1.7854

> <Gold.Chemscore.DEInternal.Weighted>
1.4856

> <Gold.Chemscore.Rot.Weighted>
5.0791

> <Gold.Chemscore.Internal.Correction.Weighted>
   9.000000E+99

> <Gold.Protein.RotatedTorsions>
[ 6907 6896 6895 6894 ] final   64.42 input  -60.11 | X-H torsion
[ 7974 7965 7964 7962 ] final   51.00 input  175.53 | X-H torsion
[ 8008 7997 7996 7995 ] final  -78.33 input   59.86 | X-H torsion
[ 10167 10162 10161 10158 ] final  -26.35 input  -65.29 | X-H torsion
[ 10718 10713 10712 10709 ] final  132.12 input   66.30 | X-H torsion
[ 10763 10752 10751 10750 ] final  -16.23 input  -60.55 | X-H torsion
[ 11005 11000 10999 10996 ] final  -13.99 input  -57.11 | X-H torsion

> <Gold.Protein.ActiveResidues>
 VAL166  LYS551  ARG553  GLY616  TRP617  ASP618  TYR619  PRO620  LYS621  CYS622 
 ASP623  PHE694  ASN695  SER759  ASP760  ASP761  ALA762  ILE779  LEU786  VAL792 
 PHE793  MET794  SER795  GLU796  ALA797  LYS798  CYS799  TRP800  GLU811  SER814 

> <Gold.Protein.RotatedAtoms>
  152.4330  134.5740  159.9929 H   0  0  0  0  0  0  0  0  0  0  0  0  # atno 6907 bound_to 6896
  151.5858  133.3366  159.3025 H   0  0  0  0  0  0  0  0  0  0  0  0  # atno 6908 bound_to 6896
  150.8225  134.7475  159.6849 H   0  0  0  0  0  0  0  0  0  0  0  0  # atno 6909 bound_to 6896
  145.9956  139.4385  143.0046 H   0  0  0  0  0  0  0  0  0  0  0  0  # atno 7974 bound_to 7965
  154.5680  140.0696  156.8920 H   0  0  0  0  0  0  0  0  0  0  0  0  # atno 8008 bound_to 7997
  155.2688  140.3363  155.4249 H   0  0  0  0  0  0  0  0  0  0  0  0  # atno 8009 bound_to 7997
  156.2095  140.1753  156.7711 H   0  0  0  0  0  0  0  0  0  0  0  0  # atno 8010 bound_to 7997
  140.7283  143.4186  151.0988 H   0  0  0  0  0  0  0  0  0  0  0  0  # atno 10167 bound_to 10162
  157.4902  131.1090  150.9566 H   0  0  0  0  0  0  0  0  0  0  0  0  # atno 10718 bound_to 10713
  153.5554  135.7011  153.5572 H   0  0  0  0  0  0  0  0  0  0  0  0  # atno 10763 bound_to 10752
  153.3477  135.4003  155.1622 H   0  0  0  0  0  0  0  0  0  0  0  0  # atno 10764 bound_to 10752
  154.8655  135.3758  154.5067 H   0  0  0  0  0  0  0  0  0  0  0  0  # atno 10765 bound_to 10752
  140.7818  133.8357  155.9299 H   0  0  0  0  0  0  0  0  0  0  0  0  # atno 11005 bound_to 11000
  145.7564  140.9952  143.1223 LP  0  0  0  0  0  0  0  0  0  0  0  0  # atno 17320 bound_to 7965
  144.6903  139.9277  143.7470 LP  0  0  0  0  0  0  0  0  0  0  0  0  # atno 17321 bound_to 7965
  139.7828  143.8330  152.3140 LP  0  0  0  0  0  0  0  0  0  0  0  0  # atno 17342 bound_to 10162
  139.8287  144.7263  150.9478 LP  0  0  0  0  0  0  0  0  0  0  0  0  # atno 17343 bound_to 10162
  157.0270  130.5696  149.5338 LP  0  0  0  0  0  0  0  0  0  0  0  0  # atno 17370 bound_to 10713
  156.0169  130.5263  150.8162 LP  0  0  0  0  0  0  0  0  0  0  0  0  # atno 17371 bound_to 10713
  140.9475  134.1822  157.4752 LP  0  0  0  0  0  0  0  0  0  0  0  0  # atno 17394 bound_to 11000
  139.8741  134.9896  156.5465 LP  0  0  0  0  0  0  0  0  0  0  0  0  # atno 17395 bound_to 11000

$$$$
