AV-unprocessed.smi:1464|AV-procd|sdf|5946|dock4
  -GOLD-   22720 6 23D 1   1.00000     0.00000
 Structure written by MMmdl.
 41 42  0  0  0  0  0  0  0  0  1 V2000
  152.0328  144.8683  160.3132 C   0  0  0  0  0  0  0  0  0  0  0  0
  152.9772  143.9175  159.5493 C   0  0  1  0  0  0  0  0  0  0  0  0
  153.3835  142.7057  160.4127 C   0  0  0  0  0  0  0  0  0  0  0  0
  152.2307  141.7046  160.5860 C   0  0  0  0  0  0  0  0  0  0  0  0
  151.6938  141.2381  159.2262 C   0  0  0  0  0  0  0  0  0  0  0  0
  151.2718  142.4249  158.3345 C   0  0  2  0  0  0  0  0  0  0  0  0
  150.8490  141.9274  157.0269 N   0  0  0  0  0  0  0  0  0  0  0  0
  149.5779  141.7587  156.6317 C   0  0  0  0  0  0  0  0  0  0  0  0
  148.6089  141.9934  157.3555 O   0  0  0  0  0  0  0  0  0  0  0  0
  149.3855  141.2222  155.2058 C   0  0  0  0  0  0  0  0  0  0  0  0
  149.9712  139.8899  154.9989 N   0  0  0  0  0  0  0  0  0  0  0  0
  151.3435  139.8382  155.1916 N   0  0  0  0  0  0  0  0  0  0  0  0
  151.9719  138.7197  155.0560 C   0  0  0  0  0  0  0  0  0  0  0  0
  153.3301  138.7120  155.2604 O   0  0  0  0  0  0  0  0  0  0  0  0
  151.2710  137.5056  154.6987 C   0  0  0  0  0  0  0  0  0  0  0  0
  149.9350  137.5673  154.5071 C   0  0  0  0  0  0  0  0  0  0  0  0
  149.1909  138.8197  154.6539 C   0  0  0  0  0  0  0  0  0  0  0  0
  147.9746  138.9049  154.4844 O   0  0  0  0  0  0  0  0  0  0  0  0
  152.4293  143.4450  158.1754 C   0  0  1  0  0  0  0  0  0  0  0  0
  152.0673  144.6247  157.2508 C   0  0  0  0  0  0  0  0  0  0  0  0
  153.6992  138.3161  154.4862 H   0  0  0  0  0  0  0  0  0  0  0  0
  151.0591  144.4180  160.5037 H   0  0  0  0  0  0  0  0  0  0  0  0
  151.8666  145.7946  159.7637 H   0  0  0  0  0  0  0  0  0  0  0  0
  152.4592  145.1456  161.2776 H   0  0  0  0  0  0  0  0  0  0  0  0
  153.8893  144.4847  159.3578 H   0  0  0  0  0  0  0  0  0  0  0  0
  154.2266  142.1972  159.9431 H   0  0  0  0  0  0  0  0  0  0  0  0
  153.7392  143.0376  161.3887 H   0  0  0  0  0  0  0  0  0  0  0  0
  152.5725  140.8439  161.1615 H   0  0  0  0  0  0  0  0  0  0  0  0
  151.4250  142.1569  161.1647 H   0  0  0  0  0  0  0  0  0  0  0  0
  152.4631  140.6533  158.7196 H   0  0  0  0  0  0  0  0  0  0  0  0
  150.8498  140.5649  159.3820 H   0  0  0  0  0  0  0  0  0  0  0  0
  150.4284  142.9343  158.8035 H   0  0  0  0  0  0  0  0  0  0  0  0
  151.5815  141.7037  156.3688 H   0  0  0  0  0  0  0  0  0  0  0  0
  148.3210  141.2013  154.9638 H   0  0  0  0  0  0  0  0  0  0  0  0
  149.8286  141.9405  154.5138 H   0  0  0  0  0  0  0  0  0  0  0  0
  151.8105  136.5764  154.5890 H   0  0  0  0  0  0  0  0  0  0  0  0
  149.3988  136.6687  154.2396 H   0  0  0  0  0  0  0  0  0  0  0  0
  153.2504  142.9191  157.6851 H   0  0  0  0  0  0  0  0  0  0  0  0
  151.1725  145.1440  157.5941 H   0  0  0  0  0  0  0  0  0  0  0  0
  151.8781  144.2903  156.2306 H   0  0  0  0  0  0  0  0  0  0  0  0
  152.8794  145.3506  157.2046 H   0  0  0  0  0  0  0  0  0  0  0  0
  1  2  1  0  0  0  0
  1 22  1  0  0  0  0
  1 23  1  0  0  0  0
  1 24  1  0  0  0  0
  2 19  1  0  0  0  0
  2  3  1  0  0  0  0
  2 25  1  0  0  0  0
  3  4  1  0  0  0  0
  3 26  1  0  0  0  0
  3 27  1  0  0  0  0
  4  5  1  0  0  0  0
  4 28  1  0  0  0  0
  4 29  1  0  0  0  0
  5  6  1  0  0  0  0
  5 30  1  0  0  0  0
  5 31  1  0  0  0  0
  6  7  1  0  0  0  0
  6 19  1  0  0  0  0
  6 32  1  0  0  0  0
  7  8  1  0  0  0  0
  7 33  1  0  0  0  0
  8  9  2  0  0  0  0
  8 10  1  0  0  0  0
 10 34  1  0  0  0  0
 10 35  1  0  0  0  0
 10 11  1  0  0  0  0
 11 12  1  0  0  0  0
 11 17  1  0  0  0  0
 12 13  2  0  0  0  0
 13 14  1  0  0  0  0
 13 15  1  0  0  0  0
 14 21  1  0  0  0  0
 15 36  1  0  0  0  0
 15 16  2  0  0  0  0
 16 37  1  0  0  0  0
 16 17  1  0  0  0  0
 17 18  2  0  0  0  0
 19 20  1  0  0  0  0
 19 38  1  0  0  0  0
 20 39  1  0  0  0  0
 20 40  1  0  0  0  0
 20 41  1  0  0  0  0
M  END
> <s_m_source_file>
AV-unprocessed.smi

> <i_m_source_file_index>
1464

> <i_lp_mmshare_version>
43012

> <i_f3d_flags>
0

> <s_epik_input>
W0NIM11bQ0BASF0xW0NIMl1bQ0gyXVtDSDJdW0NASF0oW0NASF0xW0NIM10pW05IXUMoPU8pW0NIMl1uMltuSF1jKD1PKVtjSF1bY0hdYzI9Tw==

> <s_epik_cmdline>
J2VwaWtfcHl0aG9uJywgJy1waCcsICc3LjAnLCAnLXRuJywgJzgnLCAnLW1hJywgJzIwMCcsICctbWV0YWxfYmluZGluZycsICctaW1hZScsICc8aW5maWxlLm1hZT4nLCAnLW9tYWUnLCAnPG91dGZpbGUubWFlPic=

> <r_lp_tautomer_probability>
0.9996

> <r_epik_Ionization_Penalty>
2.10335

> <r_epik_Ionization_Penalty_Charging>
3.98079e-08

> <r_epik_Ionization_Penalty_Neutral>
2.10335

> <r_epik_State_Penalty>
1.67957

> <r_epik_Charging_Adjusted_Penalty>
1.67957

> <i_epik_Tot_Q>
0

> <i_epik_Tot_abs_Q>
0

> <r_epik_Metal_State_Penalty>
1.67957

> <b_epik_Metal_Only>
0

> <s_lp_Force_Field>
OPLS_2005

> <r_lp_Energy>
23.4663

> <b_lp_Chiralities_Consistent>
1

> <s_lp_Variant>
AV-unprocessed.smi:1464-12

> <Gold.Version>
5.8.1

> <Gold.Id.Protein>
6NUR|6NUR_protein|mol2

> <Gold.PLP.Fitness>
46.0627

> <Gold.PLP.PLP>
-42.3500

> <Gold.PLP.part.hbond>
-2.0000

> <Gold.PLP.part.metal>
0.0000

> <Gold.PLP.part.buried>
-4.4730

> <Gold.PLP.part.nonpolar>
-37.1846

> <Gold.PLP.part.repulsive>
0.3512

> <Gold.PLP.ligand.clash>
0.0000

> <Gold.PLP.ligand.torsion>
0.2540

> <Gold.PLP.Chemscore.Hbond>
1.4040

> <Gold.PLP.Chemscore.CHOScore>
0.0000

> <Gold.PLP.Chemscore.Metal>
0.0000

> <Gold.Chemscore.Hbonds>
donor molecule, donor type, donor heavy atom, donor atom, acceptor molecule, acceptor atom, score
      P1  H  7989  7998       L1    12  0.55
      P1  H  7997  8010       L1    14  0.85

> <Gold.PLP.Chemscore.Internal.Correction>
0.0087

> <Gold.Rescore>
     Score         DG    S(hbond)    S(metal)    S(lipo)     H(rot)  DE(clash)    DE(int)     intcor
     10.76     -15.76       0.86        0.00     111.81       2.22       2.94       2.05       ----

> <Gold.Chemscore.Fitness>
10.7648

> <Gold.Chemscore.DG>
-15.7608

> <Gold.Chemscore.ZeroCoef>
-5.4800

> <Gold.Chemscore.Hbond>
0.8649

> <Gold.Chemscore.Metal>
0.0000

> <Gold.Chemscore.Lipo>
111.8052

> <Gold.Chemscore.Internal_Hbond>
0.0000

> <Gold.Chemscore.DEClash>
2.9425

> <Gold.Chemscore.DEInternal>
2.0535

> <Gold.Chemscore.Rot>
2.2224

> <Gold.Chemscore.Internal.Correction>
   9.000000E+99

> <Gold.Chemscore.Hbonds>
donor molecule, donor type, donor heavy atom, donor atom, acceptor molecule, acceptor atom, score
      P1  H  7989  7998       L1    12  0.02
      P1  H  7997  8010       L1    14  0.80

> <Gold.Chemscore.Hbond.Weighted>
-2.8889

> <Gold.Chemscore.Metal.Weighted>
-0.0000

> <Gold.Chemscore.Lipo.Weighted>
-13.0812

> <Gold.Chemscore.Internal_Hbond.Weighted>
0.0000

> <Gold.Chemscore.DEClash.Weighted>
2.9425

> <Gold.Chemscore.DEInternal.Weighted>
2.0535

> <Gold.Chemscore.Rot.Weighted>
5.6893

> <Gold.Chemscore.Internal.Correction.Weighted>
   9.000000E+99

> <Gold.Protein.RotatedTorsions>
[ 6907 6896 6895 6894 ] final  -81.15 input  -60.11 | X-H torsion
[ 7974 7965 7964 7962 ] final   -6.63 input  175.53 | X-H torsion
[ 8008 7997 7996 7995 ] final   80.16 input   59.86 | X-H torsion
[ 10167 10162 10161 10158 ] final -108.38 input  -65.29 | X-H torsion
[ 10718 10713 10712 10709 ] final  -74.39 input   66.30 | X-H torsion
[ 10763 10752 10751 10750 ] final  149.30 input  -60.55 | X-H torsion
[ 11005 11000 10999 10996 ] final  -75.53 input  -57.11 | X-H torsion

> <Gold.Protein.ActiveResidues>
 VAL166  LYS551  ARG553  GLY616  TRP617  ASP618  TYR619  PRO620  LYS621  CYS622 
 ASP623  PHE694  ASN695  SER759  ASP760  ASP761  ALA762  ILE779  LEU786  VAL792 
 PHE793  MET794  SER795  GLU796  ALA797  LYS798  CYS799  TRP800  GLU811  SER814 

> <Gold.Protein.RotatedAtoms>
  150.6917  134.3861  159.5055 H   0  0  0  0  0  0  0  0  0  0  0  0  # atno 6907 bound_to 6896
  152.1656  134.8873  160.0547 H   0  0  0  0  0  0  0  0  0  0  0  0  # atno 6908 bound_to 6896
  151.9919  133.3759  159.4184 H   0  0  0  0  0  0  0  0  0  0  0  0  # atno 6909 bound_to 6896
  146.2326  140.2200  142.8337 H   0  0  0  0  0  0  0  0  0  0  0  0  # atno 7974 bound_to 7965
  155.8796  140.3445  155.5878 H   0  0  0  0  0  0  0  0  0  0  0  0  # atno 8008 bound_to 7997
  155.7735  140.0848  157.2115 H   0  0  0  0  0  0  0  0  0  0  0  0  # atno 8009 bound_to 7997
  154.4023  140.1514  156.2956 H   0  0  0  0  0  0  0  0  0  0  0  0  # atno 8010 bound_to 7997
  140.1668  143.4075  152.1384 H   0  0  0  0  0  0  0  0  0  0  0  0  # atno 10167 bound_to 10162
  156.0244  130.4416  150.2885 H   0  0  0  0  0  0  0  0  0  0  0  0  # atno 10718 bound_to 10713
  154.0689  135.2868  155.3311 H   0  0  0  0  0  0  0  0  0  0  0  0  # atno 10763 bound_to 10752
  154.6759  135.5281  153.8203 H   0  0  0  0  0  0  0  0  0  0  0  0  # atno 10764 bound_to 10752
  153.0493  135.6569  154.0872 H   0  0  0  0  0  0  0  0  0  0  0  0  # atno 10765 bound_to 10752
  141.1646  133.6950  156.7531 H   0  0  0  0  0  0  0  0  0  0  0  0  # atno 11005 bound_to 11000
  144.9640  140.8303  143.5496 LP  0  0  0  0  0  0  0  0  0  0  0  0  # atno 17320 bound_to 7965
  145.2173  139.2175  143.5111 LP  0  0  0  0  0  0  0  0  0  0  0  0  # atno 17321 bound_to 7965
  139.5356  144.7206  151.4905 LP  0  0  0  0  0  0  0  0  0  0  0  0  # atno 17342 bound_to 10162
  140.6608  143.8503  150.6885 LP  0  0  0  0  0  0  0  0  0  0  0  0  # atno 17343 bound_to 10162
  157.0988  131.0190  151.3093 LP  0  0  0  0  0  0  0  0  0  0  0  0  # atno 17370 bound_to 10713
  157.4796  130.7757  149.7401 LP  0  0  0  0  0  0  0  0  0  0  0  0  # atno 17371 bound_to 10713
  140.2589  134.8482  157.3740 LP  0  0  0  0  0  0  0  0  0  0  0  0  # atno 17394 bound_to 11000
  140.1630  134.4704  155.7882 LP  0  0  0  0  0  0  0  0  0  0  0  0  # atno 17395 bound_to 11000

$$$$
