AV-unprocessed.smi:232|AV-procd|sdf|1775|dock8
  -GOLD-   2262020313D 1   1.00000     0.00000
 Structure written by MMmdl.
 52 55  0  0  0  0  0  0  0  0  1 V2000
  147.9215  141.9860  154.1178 C   0  0  0  0  0  0  0  0  0  0  0  0
  147.7972  141.6744  155.6152 C   0  0  0  0  0  0  0  0  0  0  0  0
  148.7242  140.5398  156.0897 C   0  0  2  0  0  0  0  0  0  0  0  0
  150.0305  141.0534  156.7169 C   0  0  0  0  0  0  0  0  0  0  0  0
  151.0549  139.9910  156.3348 C   0  0  0  0  0  0  0  0  0  0  0  0
  150.5872  139.6108  154.9332 C   0  0  1  0  0  0  0  0  0  0  0  0
  151.2282  138.3236  154.3750 C   0  0  0  0  0  0  0  0  0  0  0  0
  149.1229  139.6473  154.9944 N   0  0  0  0  0  0  0  0  0  0  0  0
  148.4492  138.4776  154.8774 C   0  0  0  0  0  0  0  0  0  0  0  0
  148.7644  137.4164  155.6666 N   0  0  0  0  0  0  0  0  0  0  0  0
  148.1051  136.2619  155.5274 C   0  0  0  0  0  0  0  0  0  0  0  0
  147.1214  135.9584  154.6770 N   0  0  0  0  0  0  0  0  0  0  0  0
  146.8111  137.0213  153.8804 C   0  0  0  0  0  0  0  0  0  0  0  0
  147.4216  138.3052  153.9136 C   0  0  0  0  0  0  0  0  0  0  0  0
  146.8497  139.1320  152.9551 N   0  0  0  0  0  0  0  0  0  0  0  0
  145.9499  138.3775  152.3846 C   0  0  0  0  0  0  0  0  0  0  0  0
  145.8615  137.0950  152.8778 N   0  0  0  0  0  0  0  0  0  0  0  0
  144.9608  136.0471  152.4320 C   0  0  0  0  0  0  0  0  0  0  0  0
  145.4804  135.3255  151.1728 C   0  0  2  0  0  0  0  0  0  0  0  0
  144.7980  135.8258  150.0382 O   0  0  0  0  0  0  0  0  0  0  0  0
  145.2785  133.8006  151.2443 C   0  0  1  0  0  0  0  0  0  0  0  0
  143.8252  133.3499  151.0752 C   0  0  0  0  0  0  0  0  0  0  0  0
  143.9950  131.9467  150.5413 C   0  0  0  0  0  0  0  0  0  0  0  0
  145.1892  132.1194  149.6099 C   0  0  0  0  0  0  0  0  0  0  0  0
  145.9834  133.1532  150.1854 O   0  0  0  0  0  0  0  0  0  0  0  0
  147.1967  142.7437  153.8194 H   0  0  0  0  0  0  0  0  0  0  0  0
  147.7406  141.0963  153.5140 H   0  0  0  0  0  0  0  0  0  0  0  0
  148.9124  142.3656  153.8692 H   0  0  0  0  0  0  0  0  0  0  0  0
  147.9875  142.5785  156.1949 H   0  0  0  0  0  0  0  0  0  0  0  0
  146.7639  141.3931  155.8206 H   0  0  0  0  0  0  0  0  0  0  0  0
  148.1984  139.9785  156.8627 H   0  0  0  0  0  0  0  0  0  0  0  0
  150.3184  142.0074  156.2721 H   0  0  0  0  0  0  0  0  0  0  0  0
  149.9524  141.1984  157.7947 H   0  0  0  0  0  0  0  0  0  0  0  0
  152.0803  140.3610  156.3561 H   0  0  0  0  0  0  0  0  0  0  0  0
  150.9818  139.1365  157.0095 H   0  0  0  0  0  0  0  0  0  0  0  0
  150.8670  140.4209  154.2581 H   0  0  0  0  0  0  0  0  0  0  0  0
  152.3126  138.4252  154.3269 H   0  0  0  0  0  0  0  0  0  0  0  0
  150.8770  138.1100  153.3650 H   0  0  0  0  0  0  0  0  0  0  0  0
  151.0118  137.4568  155.0001 H   0  0  0  0  0  0  0  0  0  0  0  0
  148.4117  135.4660  156.1900 H   0  0  0  0  0  0  0  0  0  0  0  0
  145.3256  138.7370  151.5797 H   0  0  0  0  0  0  0  0  0  0  0  0
  144.8373  135.3395  153.2526 H   0  0  0  0  0  0  0  0  0  0  0  0
  143.9783  136.4837  152.2470 H   0  0  0  0  0  0  0  0  0  0  0  0
  146.5428  135.5397  151.0485 H   0  0  0  0  0  0  0  0  0  0  0  0
  145.2703  135.5619  149.2637 H   0  0  0  0  0  0  0  0  0  0  0  0
  145.6681  133.4096  152.1858 H   0  0  0  0  0  0  0  0  0  0  0  0
  143.2569  133.3871  152.0049 H   0  0  0  0  0  0  0  0  0  0  0  0
  143.3125  133.9684  150.3369 H   0  0  0  0  0  0  0  0  0  0  0  0
  144.2447  131.2630  151.3538 H   0  0  0  0  0  0  0  0  0  0  0  0
  143.1077  131.5683  150.0330 H   0  0  0  0  0  0  0  0  0  0  0  0
  145.7589  131.1982  149.4868 H   0  0  0  0  0  0  0  0  0  0  0  0
  144.8583  132.4480  148.6240 H   0  0  0  0  0  0  0  0  0  0  0  0
  1  2  1  0  0  0  0
  1 26  1  0  0  0  0
  1 27  1  0  0  0  0
  1 28  1  0  0  0  0
  2  3  1  0  0  0  0
  2 29  1  0  0  0  0
  2 30  1  0  0  0  0
  3  8  1  0  0  0  0
  3  4  1  0  0  0  0
  3 31  1  0  0  0  0
  4  5  1  0  0  0  0
  4 32  1  0  0  0  0
  4 33  1  0  0  0  0
  5  6  1  0  0  0  0
  5 34  1  0  0  0  0
  5 35  1  0  0  0  0
  6  7  1  0  0  0  0
  6  8  1  0  0  0  0
  6 36  1  0  0  0  0
  7 37  1  0  0  0  0
  7 38  1  0  0  0  0
  7 39  1  0  0  0  0
  8  9  1  0  0  0  0
  9 14  1  0  0  0  0
  9 10  2  0  0  0  0
 10 11  1  0  0  0  0
 11 12  2  0  0  0  0
 11 40  1  0  0  0  0
 12 13  1  0  0  0  0
 13 17  1  0  0  0  0
 13 14  2  0  0  0  0
 14 15  1  0  0  0  0
 15 16  2  0  0  0  0
 16 17  1  0  0  0  0
 16 41  1  0  0  0  0
 17 18  1  0  0  0  0
 18 19  1  0  0  0  0
 18 42  1  0  0  0  0
 18 43  1  0  0  0  0
 19 20  1  0  0  0  0
 19 21  1  0  0  0  0
 19 44  1  0  0  0  0
 20 45  1  0  0  0  0
 21 25  1  0  0  0  0
 21 22  1  0  0  0  0
 21 46  1  0  0  0  0
 22 23  1  0  0  0  0
 22 47  1  0  0  0  0
 22 48  1  0  0  0  0
 23 24  1  0  0  0  0
 23 49  1  0  0  0  0
 23 50  1  0  0  0  0
 24 25  1  0  0  0  0
 24 51  1  0  0  0  0
 24 52  1  0  0  0  0
M  END
> <s_m_source_file>
AV-unprocessed.smi

> <i_m_source_file_index>
232

> <i_lp_mmshare_version>
43012

> <i_f3d_flags>
0

> <s_epik_input>
W0NIM11bQ0gyXVtDQEBIXTFbQ0gyXVtDSDJdW0NAQEhdKFtDSDNdKU4xYyhuW2NIXW4yKWMoYzIzKW5bY0hdbjNbQ0gyXVtDQEhdKFtPSF0pW0NAQEhdNFtDSDJdW0NIMl1bQ0gyXU80

> <s_epik_cmdline>
J2VwaWtfcHl0aG9uJywgJy1waCcsICc3LjAnLCAnLXRuJywgJzgnLCAnLW1hJywgJzIwMCcsICctbWV0YWxfYmluZGluZycsICctaW1hZScsICc8aW5maWxlLm1hZT4nLCAnLW9tYWUnLCAnPG91dGZpbGUubWFlPic=

> <r_lp_tautomer_probability>
1

> <r_epik_Ionization_Penalty>
0.00258048

> <r_epik_Ionization_Penalty_Charging>
0

> <r_epik_Ionization_Penalty_Neutral>
0.00258048

> <r_epik_State_Penalty>
0.00168551

> <r_epik_Charging_Adjusted_Penalty>
0.00168551

> <i_epik_Tot_Q>
0

> <i_epik_Tot_abs_Q>
0

> <r_epik_Metal_State_Penalty>
-0

> <b_epik_Metal_Only>
0

> <s_lp_Force_Field>
OPLS_2005

> <r_lp_Energy>
56.7631

> <b_lp_Chiralities_Consistent>
1

> <s_lp_Variant>
AV-unprocessed.smi:232-9

> <Gold.Version>
5.8.1

> <Gold.Id.Protein>
6NUR|6NUR_protein|mol2

> <Gold.PLP.Fitness>
40.3646

> <Gold.PLP.PLP>
-36.0931

> <Gold.PLP.part.hbond>
-2.0000

> <Gold.PLP.part.metal>
0.0000

> <Gold.PLP.part.buried>
-3.3007

> <Gold.PLP.part.nonpolar>
-32.0690

> <Gold.PLP.part.repulsive>
1.1663

> <Gold.PLP.ligand.clash>
0.0000

> <Gold.PLP.ligand.torsion>
1.8556

> <Gold.PLP.Chemscore.Hbond>
1.0000

> <Gold.PLP.Chemscore.CHOScore>
1.5850

> <Gold.PLP.Chemscore.Metal>
0.0000

> <Gold.Chemscore.Hbonds>
donor molecule, donor type, donor heavy atom, donor atom, acceptor molecule, acceptor atom, score
      L1  H    20    45       P1  7921  1.00
      L1  C    16    41       P1 10171  1.00
      L1  C    16    41       P1 10175  0.62

> <Gold.PLP.Chemscore.Internal.Correction>
0.2277

> <Gold.Rescore>
     Score         DG    S(hbond)    S(metal)    S(lipo)     H(rot)  DE(clash)    DE(int)     intcor
     10.43     -12.91       0.98        0.00      88.53       2.43       0.12       2.37       ----

> <Gold.Chemscore.Fitness>
10.4259

> <Gold.Chemscore.DG>
-12.9138

> <Gold.Chemscore.ZeroCoef>
-5.4800

> <Gold.Chemscore.Hbond>
0.9841

> <Gold.Chemscore.Metal>
0.0000

> <Gold.Chemscore.Lipo>
88.5275

> <Gold.Chemscore.Internal_Hbond>
0.0000

> <Gold.Chemscore.DEClash>
0.1191

> <Gold.Chemscore.DEInternal>
2.3688

> <Gold.Chemscore.Rot>
2.4260

> <Gold.Chemscore.Internal.Correction>
   9.000000E+99

> <Gold.Chemscore.Hbonds>
donor molecule, donor type, donor heavy atom, donor atom, acceptor molecule, acceptor atom, score
      L1  H    20    45       P1  7921  0.97

> <Gold.Chemscore.Hbond.Weighted>
-3.2868

> <Gold.Chemscore.Metal.Weighted>
-0.0000

> <Gold.Chemscore.Lipo.Weighted>
-10.3577

> <Gold.Chemscore.Internal_Hbond.Weighted>
0.0000

> <Gold.Chemscore.DEClash.Weighted>
0.1191

> <Gold.Chemscore.DEInternal.Weighted>
2.3688

> <Gold.Chemscore.Rot.Weighted>
6.2107

> <Gold.Chemscore.Internal.Correction.Weighted>
   9.000000E+99

> <Gold.Protein.RotatedTorsions>
[ 6907 6896 6895 6894 ] final  -54.43 input  -60.11 | X-H torsion
[ 7974 7965 7964 7962 ] final  162.21 input  175.53 | X-H torsion
[ 8008 7997 7996 7995 ] final  171.48 input   59.86 | X-H torsion
[ 10167 10162 10161 10158 ] final    6.55 input  -65.29 | X-H torsion
[ 10718 10713 10712 10709 ] final -148.85 input   66.30 | X-H torsion
[ 10763 10752 10751 10750 ] final  -76.23 input  -60.55 | X-H torsion
[ 11005 11000 10999 10996 ] final  -59.28 input  -57.11 | X-H torsion

> <Gold.Protein.ActiveResidues>
 VAL166  LYS551  ARG553  GLY616  TRP617  ASP618  TYR619  PRO620  LYS621  CYS622 
 ASP623  PHE694  ASN695  SER759  ASP760  ASP761  ALA762  ILE779  LEU786  VAL792 
 PHE793  MET794  SER795  GLU796  ALA797  LYS798  CYS799  TRP800  GLU811  SER814 

> <Gold.Protein.RotatedAtoms>
  150.8339  134.7604  159.6876 H   0  0  0  0  0  0  0  0  0  0  0  0  # atno 6907 bound_to 6896
  152.4439  134.5532  159.9882 H   0  0  0  0  0  0  0  0  0  0  0  0  # atno 6908 bound_to 6896
  151.5686  133.3355  159.3021 H   0  0  0  0  0  0  0  0  0  0  0  0  # atno 6909 bound_to 6896
  144.7648  139.8007  143.6319 H   0  0  0  0  0  0  0  0  0  0  0  0  # atno 7974 bound_to 7965
  156.1266  140.1510  156.9126 H   0  0  0  0  0  0  0  0  0  0  0  0  # atno 8008 bound_to 7997
  154.4877  140.0860  156.7564 H   0  0  0  0  0  0  0  0  0  0  0  0  # atno 8009 bound_to 7997
  155.4331  140.3428  155.4284 H   0  0  0  0  0  0  0  0  0  0  0  0  # atno 8010 bound_to 7997
  140.6422  143.7748  150.7444 H   0  0  0  0  0  0  0  0  0  0  0  0  # atno 10167 bound_to 10162
  156.4255  130.8050  151.2275 H   0  0  0  0  0  0  0  0  0  0  0  0  # atno 10718 bound_to 10713
  154.4971  135.5804  153.6503 H   0  0  0  0  0  0  0  0  0  0  0  0  # atno 10763 bound_to 10752
  152.9872  135.6127  154.3050 H   0  0  0  0  0  0  0  0  0  0  0  0  # atno 10764 bound_to 10752
  154.2954  135.2848  155.2615 H   0  0  0  0  0  0  0  0  0  0  0  0  # atno 10765 bound_to 10752
  141.1242  133.6615  156.5047 H   0  0  0  0  0  0  0  0  0  0  0  0  # atno 11005 bound_to 11000
  146.1745  139.4909  142.9906 LP  0  0  0  0  0  0  0  0  0  0  0  0  # atno 17320 bound_to 7965
  145.6506  141.0264  143.1762 LP  0  0  0  0  0  0  0  0  0  0  0  0  # atno 17321 bound_to 7965
  140.1382  143.4465  152.2211 LP  0  0  0  0  0  0  0  0  0  0  0  0  # atno 17342 bound_to 10162
  139.5631  144.7418  151.4099 LP  0  0  0  0  0  0  0  0  0  0  0  0  # atno 17343 bound_to 10162
  157.7508  131.0214  150.3751 LP  0  0  0  0  0  0  0  0  0  0  0  0  # atno 17370 bound_to 10713
  156.4077  130.3928  149.6914 LP  0  0  0  0  0  0  0  0  0  0  0  0  # atno 17371 bound_to 10713
  140.4417  134.7009  157.4995 LP  0  0  0  0  0  0  0  0  0  0  0  0  # atno 17394 bound_to 11000
  140.0225  134.6526  155.9220 LP  0  0  0  0  0  0  0  0  0  0  0  0  # atno 17395 bound_to 11000

$$$$
