AV-unprocessed.smi:885|AV-procd|sdf|4046|dock9
  -GOLD-   22720 1533D 1   1.00000     0.00000
 Structure written by MMmdl.
 39 41  0  0  0  0  0  0  0  0  1 V2000
  151.7256  144.7198  160.1780 C   0  0  0  0  0  0  0  0  0  0  0  0
  152.3218  143.6683  161.1311 C   0  0  0  0  0  0  0  0  0  0  0  0
  152.7612  142.3359  160.4988 C   0  0  0  0  0  0  0  0  0  0  0  0
  151.8187  141.7756  159.4200 C   0  0  0  0  0  0  0  0  0  0  0  0
  152.1130  142.3220  158.0060 C   0  0  0  0  0  0  0  0  0  0  0  0
  151.4878  141.4568  156.9531 C   0  0  0  0  0  0  0  0  0  0  0  0
  152.2253  140.6689  156.1790 N   0  0  0  0  0  0  0  0  0  0  0  0
  151.2804  140.0567  155.3435 O   0  0  0  0  0  0  0  0  0  0  0  0
  150.0746  140.5388  155.7299 C   0  0  0  0  0  0  0  0  0  0  0  0
  148.8561  140.1062  154.9793 C   0  0  2  0  0  0  0  0  0  0  0  0
  149.1585  138.9742  153.9785 C   0  0  0  0  0  0  0  0  0  0  0  0
  147.9592  138.6430  153.2110 N   0  0  0  0  0  0  0  0  0  0  0  0
  147.4114  139.8270  152.5510 C   0  0  0  0  0  0  0  0  0  0  0  0
  147.1590  140.9451  153.5787 C   0  0  0  0  0  0  0  0  0  0  0  0
  148.3676  141.2421  154.2696 O   0  0  0  0  0  0  0  0  0  0  0  0
  150.1464  141.4299  156.7168 N   0  0  0  0  0  0  0  0  0  0  0  0
  151.7443  143.8027  157.7854 C   0  0  0  0  0  0  0  0  0  0  0  0
  152.3716  144.7904  158.7847 C   0  0  0  0  0  0  0  0  0  0  0  0
  151.8131  145.6948  160.6590 H   0  0  0  0  0  0  0  0  0  0  0  0
  150.6534  144.5501  160.0717 H   0  0  0  0  0  0  0  0  0  0  0  0
  153.1837  144.0991  161.6419 H   0  0  0  0  0  0  0  0  0  0  0  0
  151.5904  143.4672  161.9146 H   0  0  0  0  0  0  0  0  0  0  0  0
  153.7667  142.4385  160.0892 H   0  0  0  0  0  0  0  0  0  0  0  0
  152.8551  141.6028  161.3006 H   0  0  0  0  0  0  0  0  0  0  0  0
  151.9702  140.6954  159.3967 H   0  0  0  0  0  0  0  0  0  0  0  0
  150.7729  141.9227  159.6930 H   0  0  0  0  0  0  0  0  0  0  0  0
  153.1922  142.2485  157.8608 H   0  0  0  0  0  0  0  0  0  0  0  0
  148.1084  139.7804  155.7051 H   0  0  0  0  0  0  0  0  0  0  0  0
  149.9558  139.2844  153.3015 H   0  0  0  0  0  0  0  0  0  0  0  0
  149.5209  138.0914  154.5055 H   0  0  0  0  0  0  0  0  0  0  0  0
  148.1844  137.9395  152.5150 H   0  0  0  0  0  0  0  0  0  0  0  0
  148.1062  140.1814  151.7888 H   0  0  0  0  0  0  0  0  0  0  0  0
  146.4842  139.5736  152.0370 H   0  0  0  0  0  0  0  0  0  0  0  0
  146.8124  141.8466  153.0733 H   0  0  0  0  0  0  0  0  0  0  0  0
  146.3803  140.6577  154.2871 H   0  0  0  0  0  0  0  0  0  0  0  0
  152.0623  144.0868  156.7814 H   0  0  0  0  0  0  0  0  0  0  0  0
  150.6600  143.9215  157.7944 H   0  0  0  0  0  0  0  0  0  0  0  0
  152.2133  145.7958  158.3931 H   0  0  0  0  0  0  0  0  0  0  0  0
  153.4530  144.6618  158.8437 H   0  0  0  0  0  0  0  0  0  0  0  0
  1 18  1  0  0  0  0
  1  2  1  0  0  0  0
  1 19  1  0  0  0  0
  1 20  1  0  0  0  0
  2  3  1  0  0  0  0
  2 21  1  0  0  0  0
  2 22  1  0  0  0  0
  3  4  1  0  0  0  0
  3 23  1  0  0  0  0
  3 24  1  0  0  0  0
  4  5  1  0  0  0  0
  4 25  1  0  0  0  0
  4 26  1  0  0  0  0
  5  6  1  0  0  0  0
  5 17  1  0  0  0  0
  5 27  1  0  0  0  0
  6 16  1  0  0  0  0
  6  7  2  0  0  0  0
  7  8  1  0  0  0  0
  8  9  1  0  0  0  0
  9 10  1  0  0  0  0
  9 16  2  0  0  0  0
 10 15  1  0  0  0  0
 10 11  1  0  0  0  0
 10 28  1  0  0  0  0
 11 12  1  0  0  0  0
 11 29  1  0  0  0  0
 11 30  1  0  0  0  0
 12 13  1  0  0  0  0
 12 31  1  0  0  0  0
 13 14  1  0  0  0  0
 13 32  1  0  0  0  0
 13 33  1  0  0  0  0
 14 15  1  0  0  0  0
 14 34  1  0  0  0  0
 14 35  1  0  0  0  0
 17 18  1  0  0  0  0
 17 36  1  0  0  0  0
 17 37  1  0  0  0  0
 18 38  1  0  0  0  0
 18 39  1  0  0  0  0
M  END
> <s_m_source_file>
AV-unprocessed.smi

> <i_m_source_file_index>
885

> <i_lp_mmshare_version>
43012

> <i_f3d_flags>
0

> <s_epik_input>
W0NIMl0xW0NIMl1bQ0gyXVtDSDJdW0NIMl1bQ0gyXVtDSF0xYzJub2MobjIpW0NAQEhdM1tDSDJdW05IXVtDSDJdW0NIMl1PMw==

> <s_epik_cmdline>
J2VwaWtfcHl0aG9uJywgJy1waCcsICc3LjAnLCAnLXRuJywgJzgnLCAnLW1hJywgJzIwMCcsICctbWV0YWxfYmluZGluZycsICctaW1hZScsICc8aW5maWxlLm1hZT4nLCAnLW9tYWUnLCAnPG91dGZpbGUubWFlPic=

> <r_lp_tautomer_probability>
1

> <r_epik_Ionization_Penalty>
0.861744

> <r_epik_Ionization_Penalty_Charging>
0

> <r_epik_Ionization_Penalty_Neutral>
0.861744

> <r_epik_State_Penalty>
0.898282

> <r_epik_Charging_Adjusted_Penalty>
0.898282

> <i_epik_Tot_Q>
0

> <i_epik_Tot_abs_Q>
0

> <r_epik_Metal_State_Penalty>
0.898282

> <b_epik_Metal_Only>
0

> <s_lp_Force_Field>
OPLS_2005

> <r_lp_Energy>
20.6019

> <b_lp_Chiralities_Consistent>
1

> <s_lp_Variant>
AV-unprocessed.smi:885-3

> <Gold.Version>
5.8.1

> <Gold.Id.Protein>
6NUR|6NUR_protein|mol2

> <Gold.PLP.Fitness>
42.5091

> <Gold.PLP.PLP>
-35.3898

> <Gold.PLP.part.hbond>
-3.8364

> <Gold.PLP.part.metal>
0.0000

> <Gold.PLP.part.buried>
1.7869

> <Gold.PLP.part.nonpolar>
-33.1363

> <Gold.PLP.part.repulsive>
0.2427

> <Gold.PLP.ligand.clash>
0.0000

> <Gold.PLP.ligand.torsion>
0.2447

> <Gold.PLP.Chemscore.Hbond>
2.5005

> <Gold.PLP.Chemscore.CHOScore>
0.0000

> <Gold.PLP.Chemscore.Metal>
0.0000

> <Gold.Chemscore.Hbonds>
donor molecule, donor type, donor heavy atom, donor atom, acceptor molecule, acceptor atom, score
      L1  H    12    31       P1  7948  1.00
      P1  H  7989  7998       L1     8  0.98
      P1  H  7997  8009       L1     7  0.58

> <Gold.PLP.Chemscore.Internal.Correction>
0.1073

> <Gold.Rescore>
     Score         DG    S(hbond)    S(metal)    S(lipo)     H(rot)  DE(clash)    DE(int)     intcor
     18.40     -21.74       2.00        0.00     108.27       1.21       3.03       0.31       ----

> <Gold.Chemscore.Fitness>
18.4009

> <Gold.Chemscore.DG>
-21.7396

> <Gold.Chemscore.ZeroCoef>
-5.4800

> <Gold.Chemscore.Hbond>
2.0018

> <Gold.Chemscore.Metal>
0.0000

> <Gold.Chemscore.Lipo>
108.2746

> <Gold.Chemscore.Internal_Hbond>
0.0000

> <Gold.Chemscore.DEClash>
3.0310

> <Gold.Chemscore.DEInternal>
0.3078

> <Gold.Chemscore.Rot>
1.2088

> <Gold.Chemscore.Internal.Correction>
   9.000000E+99

> <Gold.Chemscore.Hbonds>
donor molecule, donor type, donor heavy atom, donor atom, acceptor molecule, acceptor atom, score
      L1  H    12    31       P1  7948  0.97
      P1  H  7989  7998       L1     8  0.22
      P1  H  7997  8009       L1     7  0.57

> <Gold.Chemscore.Hbond.Weighted>
-6.6861

> <Gold.Chemscore.Metal.Weighted>
-0.0000

> <Gold.Chemscore.Lipo.Weighted>
-12.6681

> <Gold.Chemscore.Internal_Hbond.Weighted>
0.0000

> <Gold.Chemscore.DEClash.Weighted>
3.0310

> <Gold.Chemscore.DEInternal.Weighted>
0.3078

> <Gold.Chemscore.Rot.Weighted>
3.0946

> <Gold.Chemscore.Internal.Correction.Weighted>
   9.000000E+99

> <Gold.Protein.RotatedTorsions>
[ 6907 6896 6895 6894 ] final  -81.09 input  -60.11 | X-H torsion
[ 7974 7965 7964 7962 ] final  -46.48 input  175.53 | X-H torsion
[ 8008 7997 7996 7995 ] final -158.09 input   59.86 | X-H torsion
[ 10167 10162 10161 10158 ] final   34.99 input  -65.29 | X-H torsion
[ 10718 10713 10712 10709 ] final   71.44 input   66.30 | X-H torsion
[ 10763 10752 10751 10750 ] final   83.67 input  -60.55 | X-H torsion
[ 11005 11000 10999 10996 ] final  173.08 input  -57.11 | X-H torsion

> <Gold.Protein.ActiveResidues>
 VAL166  LYS551  ARG553  GLY616  TRP617  ASP618  TYR619  PRO620  LYS621  CYS622 
 ASP623  PHE694  ASN695  SER759  ASP760  ASP761  ALA762  ILE779  LEU786  VAL792 
 PHE793  MET794  SER795  GLU796  ALA797  LYS798  CYS799  TRP800  GLU811  SER814 

> <Gold.Protein.RotatedAtoms>
  150.6918  134.3870  159.5059 H   0  0  0  0  0  0  0  0  0  0  0  0  # atno 6907 bound_to 6896
  152.1664  134.8867  160.0547 H   0  0  0  0  0  0  0  0  0  0  0  0  # atno 6908 bound_to 6896
  151.9910  133.3756  159.4181 H   0  0  0  0  0  0  0  0  0  0  0  0  # atno 6909 bound_to 6896
  145.9714  140.7379  142.9408 H   0  0  0  0  0  0  0  0  0  0  0  0  # atno 7974 bound_to 7965
  155.7423  140.0816  157.2240 H   0  0  0  0  0  0  0  0  0  0  0  0  # atno 8008 bound_to 7997
  154.4020  140.1575  156.2685 H   0  0  0  0  0  0  0  0  0  0  0  0  # atno 8009 bound_to 7997
  155.9009  140.3410  155.6028 H   0  0  0  0  0  0  0  0  0  0  0  0  # atno 8010 bound_to 7997
  140.4264  144.1387  150.6154 H   0  0  0  0  0  0  0  0  0  0  0  0  # atno 10167 bound_to 10162
  157.6451  130.9528  150.0789 H   0  0  0  0  0  0  0  0  0  0  0  0  # atno 10718 bound_to 10713
  153.1312  135.4682  154.9352 H   0  0  0  0  0  0  0  0  0  0  0  0  # atno 10763 bound_to 10752
  154.7666  135.3146  154.8276 H   0  0  0  0  0  0  0  0  0  0  0  0  # atno 10764 bound_to 10752
  153.8818  135.6893  153.4820 H   0  0  0  0  0  0  0  0  0  0  0  0  # atno 10765 bound_to 10752
  140.3367  134.7311  157.4173 H   0  0  0  0  0  0  0  0  0  0  0  0  # atno 11005 bound_to 11000
  144.6838  140.2756  143.7299 LP  0  0  0  0  0  0  0  0  0  0  0  0  # atno 17320 bound_to 7965
  145.7900  139.1923  143.2108 LP  0  0  0  0  0  0  0  0  0  0  0  0  # atno 17321 bound_to 7965
  140.4477  143.2500  151.9390 LP  0  0  0  0  0  0  0  0  0  0  0  0  # atno 17342 bound_to 10162
  139.4783  144.5593  151.8264 LP  0  0  0  0  0  0  0  0  0  0  0  0  # atno 17343 bound_to 10162
  156.1771  130.3648  149.9085 LP  0  0  0  0  0  0  0  0  0  0  0  0  # atno 17370 bound_to 10713
  156.7047  130.8947  151.3603 LP  0  0  0  0  0  0  0  0  0  0  0  0  # atno 17371 bound_to 10713
  140.0815  134.5724  155.8535 LP  0  0  0  0  0  0  0  0  0  0  0  0  # atno 17394 bound_to 11000
  141.2049  133.6643  156.6150 LP  0  0  0  0  0  0  0  0  0  0  0  0  # atno 17395 bound_to 11000

$$$$
