AV-unprocessed.smi:682|AV-procd|sdf|3328|dock8
  -GOLD-   22720 0293D 1   1.00000     0.00000
 Structure written by MMmdl.
 41 42  0  0  0  0  0  0  0  0  1 V2000
  151.0343  141.1931  156.7054 C   0  0  0  0  0  0  0  0  0  0  0  0
  150.9327  139.8474  156.2558 O   0  0  0  0  0  0  0  0  0  0  0  0
  150.6259  139.6368  154.8706 C   0  0  1  0  0  0  0  0  0  0  0  0
  151.4442  140.5878  153.9883 C   0  0  0  0  0  0  0  0  0  0  0  0
  150.6147  138.1296  154.5494 C   0  0  0  0  0  0  0  0  0  0  0  0
  149.1831  138.1034  155.0809 C   0  0  2  0  0  0  0  0  0  0  0  0
  148.3151  137.2109  154.3204 N   0  0  0  0  0  0  0  0  0  0  0  0
  147.2439  136.5879  154.8289 C   0  0  0  0  0  0  0  0  0  0  0  0
  146.8821  136.7043  155.9998 O   0  0  0  0  0  0  0  0  0  0  0  0
  146.6298  135.8370  153.9010 N   0  0  0  0  0  0  0  0  0  0  0  0
  145.4627  135.0516  154.0704 C   0  0  0  0  0  0  0  0  0  0  0  0
  144.5171  135.0586  155.1348 C   0  0  0  0  0  0  0  0  0  0  0  0
  143.5565  134.1715  154.9224 N   0  0  0  0  0  0  0  0  0  0  0  0
  143.8680  133.5922  153.7377 N   0  0  0  0  0  0  0  0  0  0  0  0
  143.0048  132.5593  153.2060 C   0  0  0  0  0  0  0  0  0  0  0  0
  145.0255  134.1081  153.1902 C   0  0  0  0  0  0  0  0  0  0  0  0
  149.0706  139.6044  154.7084 C   0  0  0  0  0  0  0  0  0  0  0  0
  148.2616  140.4757  155.6757 C   0  0  0  0  0  0  0  0  0  0  0  0
  148.5322  139.9315  153.3025 C   0  0  0  0  0  0  0  0  0  0  0  0
  151.4201  141.1988  157.7246 H   0  0  0  0  0  0  0  0  0  0  0  0
  150.0615  141.6839  156.7278 H   0  0  0  0  0  0  0  0  0  0  0  0
  151.7122  141.7870  156.0935 H   0  0  0  0  0  0  0  0  0  0  0  0
  151.1553  140.5187  152.9402 H   0  0  0  0  0  0  0  0  0  0  0  0
  152.5091  140.3602  154.0227 H   0  0  0  0  0  0  0  0  0  0  0  0
  151.3116  141.6253  154.2953 H   0  0  0  0  0  0  0  0  0  0  0  0
  150.6886  137.9247  153.4799 H   0  0  0  0  0  0  0  0  0  0  0  0
  151.3111  137.5104  155.1135 H   0  0  0  0  0  0  0  0  0  0  0  0
  149.1581  137.9301  156.1595 H   0  0  0  0  0  0  0  0  0  0  0  0
  148.5449  137.0614  153.3488 H   0  0  0  0  0  0  0  0  0  0  0  0
  147.0378  135.8280  152.9778 H   0  0  0  0  0  0  0  0  0  0  0  0
  144.4855  135.6570  156.0331 H   0  0  0  0  0  0  0  0  0  0  0  0
  143.4564  132.1146  152.3186 H   0  0  0  0  0  0  0  0  0  0  0  0
  142.0399  132.9894  152.9361 H   0  0  0  0  0  0  0  0  0  0  0  0
  142.8545  131.7804  153.9543 H   0  0  0  0  0  0  0  0  0  0  0  0
  145.4257  133.7669  152.2467 H   0  0  0  0  0  0  0  0  0  0  0  0
  147.1886  140.3377  155.5388 H   0  0  0  0  0  0  0  0  0  0  0  0
  148.4796  141.5346  155.5349 H   0  0  0  0  0  0  0  0  0  0  0  0
  148.4752  140.2352  156.7172 H   0  0  0  0  0  0  0  0  0  0  0  0
  147.4652  139.7225  153.2209 H   0  0  0  0  0  0  0  0  0  0  0  0
  149.0295  139.3512  152.5251 H   0  0  0  0  0  0  0  0  0  0  0  0
  148.6726  140.9845  153.0566 H   0  0  0  0  0  0  0  0  0  0  0  0
  1  2  1  0  0  0  0
  1 20  1  0  0  0  0
  1 21  1  0  0  0  0
  1 22  1  0  0  0  0
  2  3  1  0  0  0  0
  3 17  1  0  0  0  0
  3  4  1  0  0  0  0
  3  5  1  0  0  0  0
  4 23  1  0  0  0  0
  4 24  1  0  0  0  0
  4 25  1  0  0  0  0
  5  6  1  0  0  0  0
  5 26  1  0  0  0  0
  5 27  1  0  0  0  0
  6  7  1  0  0  0  0
  6 17  1  0  0  0  0
  6 28  1  0  0  0  0
  7  8  1  0  0  0  0
  7 29  1  0  0  0  0
  8  9  2  0  0  0  0
  8 10  1  0  0  0  0
 10 11  1  0  0  0  0
 10 30  1  0  0  0  0
 11 16  2  0  0  0  0
 11 12  1  0  0  0  0
 12 13  2  0  0  0  0
 12 31  1  0  0  0  0
 13 14  1  0  0  0  0
 14 15  1  0  0  0  0
 14 16  1  0  0  0  0
 15 32  1  0  0  0  0
 15 33  1  0  0  0  0
 15 34  1  0  0  0  0
 16 35  1  0  0  0  0
 17 18  1  0  0  0  0
 17 19  1  0  0  0  0
 18 36  1  0  0  0  0
 18 37  1  0  0  0  0
 18 38  1  0  0  0  0
 19 39  1  0  0  0  0
 19 40  1  0  0  0  0
 19 41  1  0  0  0  0
M  END
> <s_m_source_file>
AV-unprocessed.smi

> <i_m_source_file_index>
682

> <i_lp_mmshare_version>
43012

> <i_f3d_flags>
0

> <s_epik_input>
W0NIM11PW0NAQF0xKFtDSDNdKVtDSDJdW0NASF0oQzEoW0NIM10pW0NIM10pW05IXUMoPU8pW05IXWMyW2NIXW5uKFtDSDNdKVtjSF0y

> <s_epik_cmdline>
J2VwaWtfcHl0aG9uJywgJy1waCcsICc3LjAnLCAnLXRuJywgJzgnLCAnLW1hJywgJzIwMCcsICctbWV0YWxfYmluZGluZycsICctaW1hZScsICc8aW5maWxlLm1hZT4nLCAnLW9tYWUnLCAnPG91dGZpbGUubWFlPic=

> <r_lp_tautomer_probability>
1

> <r_epik_Ionization_Penalty>
0.000192302

> <r_epik_Ionization_Penalty_Charging>
0

> <r_epik_Ionization_Penalty_Neutral>
0.000192302

> <r_epik_State_Penalty>
-0

> <r_epik_Charging_Adjusted_Penalty>
0

> <i_epik_Tot_Q>
0

> <i_epik_Tot_abs_Q>
0

> <r_epik_Metal_State_Penalty>
-0

> <b_epik_Metal_Only>
0

> <s_lp_Force_Field>
OPLS_2005

> <r_lp_Energy>
24.1869

> <b_lp_Chiralities_Consistent>
1

> <s_lp_Variant>
AV-unprocessed.smi:682-3

> <Gold.Version>
5.8.1

> <Gold.Id.Protein>
6NUR|6NUR_protein|mol2

> <Gold.PLP.Fitness>
36.6737

> <Gold.PLP.PLP>
-28.8937

> <Gold.PLP.part.hbond>
-2.1059

> <Gold.PLP.part.metal>
0.0000

> <Gold.PLP.part.buried>
-3.6897

> <Gold.PLP.part.nonpolar>
-22.9057

> <Gold.PLP.part.repulsive>
0.1037

> <Gold.PLP.ligand.clash>
0.0000

> <Gold.PLP.ligand.torsion>
0.5221

> <Gold.PLP.Chemscore.Hbond>
1.8584

> <Gold.PLP.Chemscore.CHOScore>
0.9584

> <Gold.PLP.Chemscore.Metal>
0.0000

> <Gold.Chemscore.Hbonds>
donor molecule, donor type, donor heavy atom, donor atom, acceptor molecule, acceptor atom, score
      L1  H     7    29       P1  7948  1.00
      L1  H    10    30       P1  7948  0.41

> <Gold.PLP.Chemscore.Internal.Correction>
0.3738

> <Gold.Rescore>
     Score         DG    S(hbond)    S(metal)    S(lipo)     H(rot)  DE(clash)    DE(int)     intcor
     12.33     -13.96       1.36        0.00      60.72       1.23       0.00       1.63       ----

> <Gold.Chemscore.Fitness>
12.3317

> <Gold.Chemscore.DG>
-13.9638

> <Gold.Chemscore.ZeroCoef>
-5.4800

> <Gold.Chemscore.Hbond>
1.3585

> <Gold.Chemscore.Metal>
0.0000

> <Gold.Chemscore.Lipo>
60.7219

> <Gold.Chemscore.Internal_Hbond>
0.0000

> <Gold.Chemscore.DEClash>
0.0015

> <Gold.Chemscore.DEInternal>
1.6306

> <Gold.Chemscore.Rot>
1.2336

> <Gold.Chemscore.Internal.Correction>
   9.000000E+99

> <Gold.Chemscore.Hbonds>
donor molecule, donor type, donor heavy atom, donor atom, acceptor molecule, acceptor atom, score
      L1  H     7    29       P1  7948  1.00
      L1  H    10    30       P1  7948  0.41

> <Gold.Chemscore.Hbond.Weighted>
-4.5374

> <Gold.Chemscore.Metal.Weighted>
-0.0000

> <Gold.Chemscore.Lipo.Weighted>
-7.1045

> <Gold.Chemscore.Internal_Hbond.Weighted>
0.0000

> <Gold.Chemscore.DEClash.Weighted>
0.0015

> <Gold.Chemscore.DEInternal.Weighted>
1.6306

> <Gold.Chemscore.Rot.Weighted>
3.1581

> <Gold.Chemscore.Internal.Correction.Weighted>
   9.000000E+99

> <Gold.Protein.RotatedTorsions>
[ 6907 6896 6895 6894 ] final   57.93 input  -60.11 | X-H torsion
[ 7974 7965 7964 7962 ] final -108.57 input  175.53 | X-H torsion
[ 8008 7997 7996 7995 ] final   36.67 input   59.86 | X-H torsion
[ 10167 10162 10161 10158 ] final   89.29 input  -65.29 | X-H torsion
[ 10718 10713 10712 10709 ] final  100.58 input   66.30 | X-H torsion
[ 10763 10752 10751 10750 ] final   92.67 input  -60.55 | X-H torsion
[ 11005 11000 10999 10996 ] final  152.57 input  -57.11 | X-H torsion

> <Gold.Protein.ActiveResidues>
 VAL166  LYS551  ARG553  GLY616  TRP617  ASP618  TYR619  PRO620  LYS621  CYS622 
 ASP623  PHE694  ASN695  SER759  ASP760  ASP761  ALA762  ILE779  LEU786  VAL792 
 PHE793  MET794  SER795  GLU796  ALA797  LYS798  CYS799  TRP800  GLU811  SER814 

> <Gold.Protein.RotatedAtoms>
  152.3778  134.6637  160.0153 H   0  0  0  0  0  0  0  0  0  0  0  0  # atno 6907 bound_to 6896
  151.6910  133.3305  159.3251 H   0  0  0  0  0  0  0  0  0  0  0  0  # atno 6908 bound_to 6896
  150.7723  134.6634  159.6397 H   0  0  0  0  0  0  0  0  0  0  0  0  # atno 6909 bound_to 6896
  145.1912  140.9015  143.3423 H   0  0  0  0  0  0  0  0  0  0  0  0  # atno 7974 bound_to 7965
  155.1913  140.3308  155.4358 H   0  0  0  0  0  0  0  0  0  0  0  0  # atno 8008 bound_to 7997
  156.2441  140.1910  156.6955 H   0  0  0  0  0  0  0  0  0  0  0  0  # atno 8009 bound_to 7997
  154.6204  140.0596  156.9593 H   0  0  0  0  0  0  0  0  0  0  0  0  # atno 8010 bound_to 7997
  139.8587  144.6555  150.9084 H   0  0  0  0  0  0  0  0  0  0  0  0  # atno 10167 bound_to 10162
  157.6850  131.0702  150.5121 H   0  0  0  0  0  0  0  0  0  0  0  0  # atno 10718 bound_to 10713
  153.2217  135.4353  155.0497 H   0  0  0  0  0  0  0  0  0  0  0  0  # atno 10763 bound_to 10752
  154.8253  135.3358  154.6917 H   0  0  0  0  0  0  0  0  0  0  0  0  # atno 10764 bound_to 10752
  153.7349  135.7008  153.5036 H   0  0  0  0  0  0  0  0  0  0  0  0  # atno 10765 bound_to 10752
  140.1319  134.8796  157.2215 H   0  0  0  0  0  0  0  0  0  0  0  0  # atno 11005 bound_to 11000
  145.0039  139.3572  143.6153 LP  0  0  0  0  0  0  0  0  0  0  0  0  # atno 17320 bound_to 7965
  146.3436  139.9274  142.8758 LP  0  0  0  0  0  0  0  0  0  0  0  0  # atno 17321 bound_to 7965
  140.7778  143.3763  151.1557 LP  0  0  0  0  0  0  0  0  0  0  0  0  # atno 17342 bound_to 10162
  139.7395  143.8947  152.3045 LP  0  0  0  0  0  0  0  0  0  0  0  0  # atno 17343 bound_to 10162
  156.5438  130.4214  149.6141 LP  0  0  0  0  0  0  0  0  0  0  0  0  # atno 17370 bound_to 10713
  156.2962  130.7151  151.2012 LP  0  0  0  0  0  0  0  0  0  0  0  0  # atno 17371 bound_to 10713
  140.2831  134.3327  155.7337 LP  0  0  0  0  0  0  0  0  0  0  0  0  # atno 17394 bound_to 11000
  141.2172  133.7490  156.9393 LP  0  0  0  0  0  0  0  0  0  0  0  0  # atno 17395 bound_to 11000

$$$$
