AV-unprocessed.smi:2257|AV-procd|sdf|9128|dock3
  -GOLD-   2272012333D 1   1.00000     0.00000
 Structure written by MMmdl.
 40 42  0  0  0  0  0  0  0  0  1 V2000
  146.9563  130.3007  152.9126 C   0  0  0  0  0  0  0  0  0  0  0  0
  148.1118  130.9139  153.4725 O   0  0  0  0  0  0  0  0  0  0  0  0
  148.0447  132.3270  153.6664 C   0  0  0  0  0  0  0  0  0  0  0  0
  149.3290  132.8742  154.3139 C   0  0  0  0  0  0  0  0  0  0  0  0
  149.5089  134.2964  154.0395 N   0  0  0  0  0  0  0  0  0  0  0  0
  149.9503  135.2122  154.9121 C   0  0  0  0  0  0  0  0  0  0  0  0
  150.2401  134.9586  156.0806 O   0  0  0  0  0  0  0  0  0  0  0  0
  150.0090  136.4286  154.3448 N   0  0  0  0  0  0  0  0  0  0  0  0
  150.4469  137.6502  154.9219 C   0  0  0  0  0  0  0  0  0  0  0  0
  150.9479  137.6417  156.2405 C   0  0  0  0  0  0  0  0  0  0  0  0
  151.3643  138.7689  156.8559 N   0  0  0  0  0  0  0  0  0  0  0  0
  151.2624  139.9065  156.1632 C   0  0  0  0  0  0  0  0  0  0  0  0
  151.7598  141.1498  156.8331 C   0  0  0  0  0  0  0  0  0  0  0  0
  151.4073  141.4513  158.2757 C   0  0  0  0  0  0  0  0  0  0  0  0
  150.8079  142.2785  157.1730 C   0  0  0  0  0  0  0  0  0  0  0  0
  150.8073  140.0400  154.9144 N   0  0  0  0  0  0  0  0  0  0  0  0
  150.3909  138.9169  154.2898 C   0  0  0  0  0  0  0  0  0  0  0  0
  147.5787  132.9660  152.3428 C   0  0  0  0  0  0  0  0  0  0  0  0
  146.6095  133.8329  153.1481 C   0  0  0  0  0  0  0  0  0  0  0  0
  146.6801  132.7643  154.2399 C   0  0  0  0  0  0  0  0  0  0  0  0
  147.1415  129.2329  152.7985 H   0  0  0  0  0  0  0  0  0  0  0  0
  146.7190  130.6975  151.9258 H   0  0  0  0  0  0  0  0  0  0  0  0
  146.0793  130.4102  153.5484 H   0  0  0  0  0  0  0  0  0  0  0  0
  149.2717  132.7680  155.3974 H   0  0  0  0  0  0  0  0  0  0  0  0
  150.2099  132.3033  154.0203 H   0  0  0  0  0  0  0  0  0  0  0  0
  149.2934  134.6036  153.1025 H   0  0  0  0  0  0  0  0  0  0  0  0
  149.6615  136.4957  153.3993 H   0  0  0  0  0  0  0  0  0  0  0  0
  151.0209  136.7243  156.8062 H   0  0  0  0  0  0  0  0  0  0  0  0
  152.7572  141.4132  156.4865 H   0  0  0  0  0  0  0  0  0  0  0  0
  150.7488  140.7575  158.7945 H   0  0  0  0  0  0  0  0  0  0  0  0
  152.1747  141.9144  158.8926 H   0  0  0  0  0  0  0  0  0  0  0  0
  151.1726  143.2964  157.0521 H   0  0  0  0  0  0  0  0  0  0  0  0
  149.7510  142.1335  156.9577 H   0  0  0  0  0  0  0  0  0  0  0  0
  149.9996  139.0563  153.2941 H   0  0  0  0  0  0  0  0  0  0  0  0
  148.3412  133.5274  151.8025 H   0  0  0  0  0  0  0  0  0  0  0  0
  147.0616  132.2650  151.6849 H   0  0  0  0  0  0  0  0  0  0  0  0
  147.0443  134.7853  153.4556 H   0  0  0  0  0  0  0  0  0  0  0  0
  145.6260  133.9616  152.6953 H   0  0  0  0  0  0  0  0  0  0  0  0
  145.8961  132.0134  154.1267 H   0  0  0  0  0  0  0  0  0  0  0  0
  146.7141  133.1572  155.2564 H   0  0  0  0  0  0  0  0  0  0  0  0
  1  2  1  0  0  0  0
  1 21  1  0  0  0  0
  1 22  1  0  0  0  0
  1 23  1  0  0  0  0
  2  3  1  0  0  0  0
  3 20  1  0  0  0  0
  3  4  1  0  0  0  0
  3 18  1  0  0  0  0
  4  5  1  0  0  0  0
  4 24  1  0  0  0  0
  4 25  1  0  0  0  0
  5  6  1  0  0  0  0
  5 26  1  0  0  0  0
  6  7  2  0  0  0  0
  6  8  1  0  0  0  0
  8  9  1  0  0  0  0
  8 27  1  0  0  0  0
  9 17  1  0  0  0  0
  9 10  2  0  0  0  0
 10 11  1  0  0  0  0
 10 28  1  0  0  0  0
 11 12  2  0  0  0  0
 12 13  1  0  0  0  0
 12 16  1  0  0  0  0
 13 15  1  0  0  0  0
 13 14  1  0  0  0  0
 13 29  1  0  0  0  0
 14 15  1  0  0  0  0
 14 30  1  0  0  0  0
 14 31  1  0  0  0  0
 15 32  1  0  0  0  0
 15 33  1  0  0  0  0
 16 17  2  0  0  0  0
 17 34  1  0  0  0  0
 18 19  1  0  0  0  0
 18 35  1  0  0  0  0
 18 36  1  0  0  0  0
 19 20  1  0  0  0  0
 19 37  1  0  0  0  0
 19 38  1  0  0  0  0
 20 39  1  0  0  0  0
 20 40  1  0  0  0  0
M  END
> <s_m_source_file>
AV-unprocessed.smi

> <i_m_source_file_index>
2257

> <i_lp_mmshare_version>
43012

> <i_f3d_flags>
0

> <s_epik_input>
W0NIMl0xW0NIMl1bQ0gyXUMxKE9bQ0gzXSlbQ0gyXVtOSF1DKD1PKVtOSF1jMltjSF1uYyhuW2NIXTIpW0NIXTNbQ0gyXVtDSDJdMw==

> <s_epik_cmdline>
J2VwaWtfcHl0aG9uJywgJy1waCcsICc3LjAnLCAnLXRuJywgJzgnLCAnLW1hJywgJzIwMCcsICctbWV0YWxfYmluZGluZycsICctaW1hZScsICc8aW5maWxlLm1hZT4nLCAnLW9tYWUnLCAnPG91dGZpbGUubWFlPic=

> <r_lp_tautomer_probability>
1

> <r_epik_Ionization_Penalty>
2.49679e-05

> <r_epik_Ionization_Penalty_Charging>
0

> <r_epik_Ionization_Penalty_Neutral>
2.49679e-05

> <r_epik_State_Penalty>
-0

> <r_epik_Charging_Adjusted_Penalty>
0

> <i_epik_Tot_Q>
0

> <i_epik_Tot_abs_Q>
0

> <r_epik_Metal_State_Penalty>
-0

> <b_epik_Metal_Only>
0

> <s_lp_Force_Field>
OPLS_2005

> <r_lp_Energy>
15.4086

> <b_lp_Chiralities_Consistent>
1

> <s_lp_Variant>
AV-unprocessed.smi:2257-1

> <Gold.Version>
5.8.1

> <Gold.Id.Protein>
6NUR|6NUR_protein|mol2

> <Gold.PLP.Fitness>
39.0116

> <Gold.PLP.PLP>
-30.0353

> <Gold.PLP.part.hbond>
-3.6472

> <Gold.PLP.part.metal>
0.0000

> <Gold.PLP.part.buried>
-5.0976

> <Gold.PLP.part.nonpolar>
-22.8078

> <Gold.PLP.part.repulsive>
0.2420

> <Gold.PLP.ligand.clash>
0.0000

> <Gold.PLP.ligand.torsion>
0.7837

> <Gold.PLP.Chemscore.Hbond>
2.3776

> <Gold.PLP.Chemscore.CHOScore>
1.0000

> <Gold.PLP.Chemscore.Metal>
0.0000

> <Gold.Chemscore.Hbonds>
donor molecule, donor type, donor heavy atom, donor atom, acceptor molecule, acceptor atom, score
      L1  H     5    26       P1  7948  0.28
      L1  H     8    27       P1  7948  1.00
      P1  H  7989  7998       L1    16  0.95
      L1  C    17    34       P1  7957  1.00

> <Gold.PLP.Chemscore.Internal.Correction>
0.4109

> <Gold.Rescore>
     Score         DG    S(hbond)    S(metal)    S(lipo)     H(rot)  DE(clash)    DE(int)     intcor
     10.31     -14.18       1.57        0.00      64.93       1.62       1.45       2.43       ----

> <Gold.Chemscore.Fitness>
10.3057

> <Gold.Chemscore.DG>
-14.1786

> <Gold.Chemscore.ZeroCoef>
-5.4800

> <Gold.Chemscore.Hbond>
1.5739

> <Gold.Chemscore.Metal>
0.0000

> <Gold.Chemscore.Lipo>
64.9257

> <Gold.Chemscore.Internal_Hbond>
0.0000

> <Gold.Chemscore.DEClash>
1.4465

> <Gold.Chemscore.DEInternal>
2.4264

> <Gold.Chemscore.Rot>
1.6229

> <Gold.Chemscore.Internal.Correction>
   9.000000E+99

> <Gold.Chemscore.Hbonds>
donor molecule, donor type, donor heavy atom, donor atom, acceptor molecule, acceptor atom, score
      L1  H     8    27       P1  7948  0.45
      P1  H  7989  7998       L1    16  0.22

> <Gold.Chemscore.Hbond.Weighted>
-5.2568

> <Gold.Chemscore.Metal.Weighted>
-0.0000

> <Gold.Chemscore.Lipo.Weighted>
-7.5963

> <Gold.Chemscore.Internal_Hbond.Weighted>
0.0000

> <Gold.Chemscore.DEClash.Weighted>
1.4465

> <Gold.Chemscore.DEInternal.Weighted>
2.4264

> <Gold.Chemscore.Rot.Weighted>
4.1545

> <Gold.Chemscore.Internal.Correction.Weighted>
   9.000000E+99

> <Gold.Protein.RotatedTorsions>
[ 6907 6896 6895 6894 ] final  140.07 input  -60.11 | X-H torsion
[ 7974 7965 7964 7962 ] final  124.30 input  175.53 | X-H torsion
[ 8008 7997 7996 7995 ] final   24.77 input   59.86 | X-H torsion
[ 10167 10162 10161 10158 ] final  175.58 input  -65.29 | X-H torsion
[ 10718 10713 10712 10709 ] final  -22.67 input   66.30 | X-H torsion
[ 10763 10752 10751 10750 ] final  -37.28 input  -60.55 | X-H torsion
[ 11005 11000 10999 10996 ] final   51.00 input  -57.11 | X-H torsion

> <Gold.Protein.ActiveResidues>
 VAL166  LYS551  ARG553  GLY616  TRP617  ASP618  TYR619  PRO620  LYS621  CYS622 
 ASP623  PHE694  ASN695  SER759  ASP760  ASP761  ALA762  ILE779  LEU786  VAL792 
 PHE793  MET794  SER795  GLU796  ALA797  LYS798  CYS799  TRP800  GLU811  SER814 

> <Gold.Protein.RotatedAtoms>
  152.2474  133.5186  159.5305 H   0  0  0  0  0  0  0  0  0  0  0  0  # atno 6907 bound_to 6896
  150.7083  134.1006  159.3973 H   0  0  0  0  0  0  0  0  0  0  0  0  # atno 6908 bound_to 6896
  151.8926  135.0410  160.0550 H   0  0  0  0  0  0  0  0  0  0  0  0  # atno 6909 bound_to 6896
  145.0860  139.3622  143.4885 H   0  0  0  0  0  0  0  0  0  0  0  0  # atno 7974 bound_to 7965
  155.0013  140.3125  155.4866 H   0  0  0  0  0  0  0  0  0  0  0  0  # atno 8008 bound_to 7997
  156.2924  140.2231  156.5064 H   0  0  0  0  0  0  0  0  0  0  0  0  # atno 8009 bound_to 7997
  154.7616  140.0458  157.0966 H   0  0  0  0  0  0  0  0  0  0  0  0  # atno 8010 bound_to 7997
  139.5182  144.3015  152.0374 H   0  0  0  0  0  0  0  0  0  0  0  0  # atno 10167 bound_to 10162
  156.5014  130.4589  149.6699 H   0  0  0  0  0  0  0  0  0  0  0  0  # atno 10718 bound_to 10713
  153.8937  135.6809  153.4759 H   0  0  0  0  0  0  0  0  0  0  0  0  # atno 10763 bound_to 10752
  153.1167  135.4758  154.9124 H   0  0  0  0  0  0  0  0  0  0  0  0  # atno 10764 bound_to 10752
  154.7609  135.3210  154.8333 H   0  0  0  0  0  0  0  0  0  0  0  0  # atno 10765 bound_to 10752
  140.0970  134.5132  155.8798 H   0  0  0  0  0  0  0  0  0  0  0  0  # atno 11005 bound_to 11000
  146.3531  140.0672  142.8625 LP  0  0  0  0  0  0  0  0  0  0  0  0  # atno 17320 bound_to 7965
  145.1122  140.9412  143.4649 LP  0  0  0  0  0  0  0  0  0  0  0  0  # atno 17321 bound_to 7965
  140.2463  144.4217  150.6240 LP  0  0  0  0  0  0  0  0  0  0  0  0  # atno 17342 bound_to 10162
  140.6256  143.2181  151.6603 LP  0  0  0  0  0  0  0  0  0  0  0  0  # atno 17343 bound_to 10162
  156.3329  130.7341  151.2274 LP  0  0  0  0  0  0  0  0  0  0  0  0  # atno 17370 bound_to 10713
  157.7462  131.0425  150.4696 LP  0  0  0  0  0  0  0  0  0  0  0  0  # atno 17371 bound_to 10713
  141.2095  133.6684  156.6442 LP  0  0  0  0  0  0  0  0  0  0  0  0  # atno 17394 bound_to 11000
  140.3273  134.7958  157.4299 LP  0  0  0  0  0  0  0  0  0  0  0  0  # atno 17395 bound_to 11000

$$$$
