AV-unprocessed.smi:2532|AV-procd|sdf|9970|dock8
  -GOLD-   2272014 13D 1   1.00000     0.00000
 Structure written by MMmdl.
 37 39  0  0  0  0  0  0  0  0  2 V2000
  151.3418  138.2621  159.6361 O   0  0  0  0  0  0  0  0  0  0  0  0
  150.5067  138.3905  158.5025 C   0  0  2  0  0  0  0  0  0  0  0  0
  150.1158  136.9820  158.0290 C   0  0  0  0  0  0  0  0  0  0  0  0
  149.5847  136.2589  159.1267 O   0  0  0  0  0  0  0  0  0  0  0  0
  148.3728  136.8123  159.6147 C   0  0  0  0  0  0  0  0  0  0  0  0
  147.8888  135.9535  160.7410 C   0  0  0  0  0  0  0  0  0  0  0  0
  147.6334  134.6064  160.6923 C   0  0  0  0  0  0  0  0  0  0  0  0
  147.1963  134.0685  161.9385 C   0  0  0  0  0  0  0  0  0  0  0  0
  147.1281  135.0112  162.9291 C   0  0  0  0  0  0  0  0  0  0  0  0
  147.6036  136.5835  162.3486 S   0  0  0  0  0  0  0  0  0  0  0  0
  151.2520  139.1780  157.4067 C   0  0  0  0  0  0  0  0  0  0  0  0
  151.0399  140.6299  157.5001 N   0  0  0  0  0  0  0  0  0  0  0  0
  150.2662  141.4436  156.7312 C   0  0  0  0  0  0  0  0  0  0  0  0
  150.4013  142.7120  157.2079 N   0  3  0  0  0  0  0  0  0  0  0  0
  151.2727  142.7098  158.2990 C   0  0  0  0  0  0  0  0  0  0  0  0
  151.7182  143.7492  159.1100 C   0  0  0  0  0  0  0  0  0  0  0  0
  152.6091  143.4049  160.1478 C   0  0  0  0  0  0  0  0  0  0  0  0
  153.0226  142.0720  160.3486 C   0  0  0  0  0  0  0  0  0  0  0  0
  152.5654  141.0266  159.5194 C   0  0  0  0  0  0  0  0  0  0  0  0
  151.6864  141.3747  158.4941 C   0  0  0  0  0  0  0  0  0  0  0  0
  150.8121  138.3811  160.4101 H   0  0  0  0  0  0  0  0  0  0  0  0
  149.6096  138.9426  158.7860 H   0  0  0  0  0  0  0  0  0  0  0  0
  149.3436  137.0533  157.2613 H   0  0  0  0  0  0  0  0  0  0  0  0
  150.9673  136.4640  157.5839 H   0  0  0  0  0  0  0  0  0  0  0  0
  148.5355  137.8331  159.9632 H   0  0  0  0  0  0  0  0  0  0  0  0
  147.6230  136.8436  158.8231 H   0  0  0  0  0  0  0  0  0  0  0  0
  147.7440  133.9927  159.8105 H   0  0  0  0  0  0  0  0  0  0  0  0
  146.9525  133.0237  162.0631 H   0  0  0  0  0  0  0  0  0  0  0  0
  146.8320  134.8792  163.9594 H   0  0  0  0  0  0  0  0  0  0  0  0
  152.3213  138.9658  157.4221 H   0  0  0  0  0  0  0  0  0  0  0  0
  150.8955  138.8695  156.4231 H   0  0  0  0  0  0  0  0  0  0  0  0
  149.6560  141.1383  155.8935 H   0  0  0  0  0  0  0  0  0  0  0  0
  151.4012  144.7708  158.9599 H   0  0  0  0  0  0  0  0  0  0  0  0
  152.9814  144.1784  160.8038 H   0  0  0  0  0  0  0  0  0  0  0  0
  153.7033  141.8456  161.1565 H   0  0  0  0  0  0  0  0  0  0  0  0
  152.8839  140.0085  159.6871 H   0  0  0  0  0  0  0  0  0  0  0  0
  149.9313  143.5179  156.8159 H   0  0  0  0  0  0  0  0  0  0  0  0
  1  2  1  0  0  0  0
  1 21  1  0  0  0  0
  2  3  1  0  0  0  0
  2 11  1  0  0  0  0
  2 22  1  0  0  0  0
  3  4  1  0  0  0  0
  3 23  1  0  0  0  0
  3 24  1  0  0  0  0
  4  5  1  0  0  0  0
  5  6  1  0  0  0  0
  5 25  1  0  0  0  0
  5 26  1  0  0  0  0
  6 10  1  0  0  0  0
  6  7  2  0  0  0  0
  7  8  1  0  0  0  0
  7 27  1  0  0  0  0
  8  9  2  0  0  0  0
  8 28  1  0  0  0  0
  9 10  1  0  0  0  0
  9 29  1  0  0  0  0
 11 12  1  0  0  0  0
 11 30  1  0  0  0  0
 11 31  1  0  0  0  0
 12 20  1  0  0  0  0
 12 13  1  0  0  0  0
 13 14  2  0  0  0  0
 13 32  1  0  0  0  0
 14 15  1  0  0  0  0
 14 37  1  0  0  0  0
 15 20  2  0  0  0  0
 15 16  1  0  0  0  0
 16 17  2  0  0  0  0
 16 33  1  0  0  0  0
 17 18  1  0  0  0  0
 17 34  1  0  0  0  0
 18 19  2  0  0  0  0
 18 35  1  0  0  0  0
 19 20  1  0  0  0  0
 19 36  1  0  0  0  0
M  CHG  1  14   1
M  END
> <s_m_source_file>
AV-unprocessed.smi

> <i_m_source_file_index>
2532

> <i_lp_mmshare_version>
43012

> <i_f3d_flags>
0

> <s_epik_input>
W2NIXTFbY0hdW2NIXVtjSF1jKGMxMiluKFtjSF1uMilbQ0gyXVtDQEhdKFtPSF0pW0NIMl1PW0NIMl1jM1tjSF1bY0hdW2NIXXMz

> <s_epik_cmdline>
J2VwaWtfcHl0aG9uJywgJy1waCcsICc3LjAnLCAnLXRuJywgJzgnLCAnLW1hJywgJzIwMCcsICctbWV0YWxfYmluZGluZycsICctaW1hZScsICc8aW5maWxlLm1hZT4nLCAnLW9tYWUnLCAnPG91dGZpbGUubWFlPic=

> <r_epik_Ionization_Penalty>
1.31758

> <r_epik_Ionization_Penalty_Charging>
1.31758

> <r_epik_Ionization_Penalty_Neutral>
1.26231e-06

> <r_epik_State_Penalty>
1.39289

> <r_epik_Charging_Adjusted_Penalty>
2.71047

> <i_epik_Tot_Q>
1

> <i_epik_Tot_abs_Q>
1

> <r_epik_Metal_State_Penalty>
5.42637

> <b_epik_Metal_Only>
0

> <s_lp_Force_Field>
OPLS_2005

> <r_lp_Energy>
15.3098

> <b_lp_Chiralities_Consistent>
1

> <s_lp_Variant>
AV-unprocessed.smi:2532-3

> <Gold.Version>
5.8.1

> <Gold.Id.Protein>
6NUR|6NUR_protein|mol2

> <Gold.PLP.Fitness>
52.7749

> <Gold.PLP.PLP>
-44.9019

> <Gold.PLP.part.hbond>
-2.4610

> <Gold.PLP.part.metal>
0.0000

> <Gold.PLP.part.buried>
-4.0954

> <Gold.PLP.part.nonpolar>
-39.0498

> <Gold.PLP.part.repulsive>
0.0138

> <Gold.PLP.ligand.clash>
0.0000

> <Gold.PLP.ligand.torsion>
0.5982

> <Gold.PLP.Chemscore.Hbond>
3.0000

> <Gold.PLP.Chemscore.CHOScore>
0.0000

> <Gold.PLP.Chemscore.Metal>
0.0000

> <Gold.Chemscore.Hbonds>
donor molecule, donor type, donor heavy atom, donor atom, acceptor molecule, acceptor atom, score
      L1  H    14    37       P1  8028  2.00
      P1  H  6896  6908       L1     4  1.00

> <Gold.PLP.Chemscore.Internal.Correction>
0.0695

> <Gold.Rescore>
     Score         DG    S(hbond)    S(metal)    S(lipo)     H(rot)  DE(clash)    DE(int)     intcor
     18.52     -19.42       1.96        0.00     117.05       2.46       0.06       0.85       ----

> <Gold.Chemscore.Fitness>
18.5168

> <Gold.Chemscore.DG>
-19.4216

> <Gold.Chemscore.ZeroCoef>
-5.4800

> <Gold.Chemscore.Hbond>
1.9600

> <Gold.Chemscore.Metal>
0.0000

> <Gold.Chemscore.Lipo>
117.0511

> <Gold.Chemscore.Internal_Hbond>
0.0000

> <Gold.Chemscore.DEClash>
0.0589

> <Gold.Chemscore.DEInternal>
0.8460

> <Gold.Chemscore.Rot>
2.4608

> <Gold.Chemscore.Internal.Correction>
   9.000000E+99

> <Gold.Chemscore.Hbonds>
donor molecule, donor type, donor heavy atom, donor atom, acceptor molecule, acceptor atom, score
      L1  H    14    37       P1  8028  0.99
      P1  H  6896  6908       L1     4  0.73

> <Gold.Chemscore.Hbond.Weighted>
-6.5463

> <Gold.Chemscore.Metal.Weighted>
-0.0000

> <Gold.Chemscore.Lipo.Weighted>
-13.6950

> <Gold.Chemscore.Internal_Hbond.Weighted>
0.0000

> <Gold.Chemscore.DEClash.Weighted>
0.0589

> <Gold.Chemscore.DEInternal.Weighted>
0.8460

> <Gold.Chemscore.Rot.Weighted>
6.2996

> <Gold.Chemscore.Internal.Correction.Weighted>
   9.000000E+99

> <Gold.Protein.RotatedTorsions>
[ 6907 6896 6895 6894 ] final -167.49 input  -60.11 | X-H torsion
[ 7974 7965 7964 7962 ] final -118.69 input  175.53 | X-H torsion
[ 8008 7997 7996 7995 ] final  140.55 input   59.86 | X-H torsion
[ 10167 10162 10161 10158 ] final  -83.39 input  -65.29 | X-H torsion
[ 10718 10713 10712 10709 ] final -168.27 input   66.30 | X-H torsion
[ 10763 10752 10751 10750 ] final  -88.25 input  -60.55 | X-H torsion
[ 11005 11000 10999 10996 ] final   -6.47 input  -57.11 | X-H torsion

> <Gold.Protein.ActiveResidues>
 VAL166  LYS551  ARG553  GLY616  TRP617  ASP618  TYR619  PRO620  LYS621  CYS622 
 ASP623  PHE694  ASN695  SER759  ASP760  ASP761  ALA762  ILE779  LEU786  VAL792 
 PHE793  MET794  SER795  GLU796  ALA797  LYS798  CYS799  TRP800  GLU811  SER814 

> <Gold.Protein.RotatedAtoms>
  151.4603  133.3594  159.2807 H   0  0  0  0  0  0  0  0  0  0  0  0  # atno 6907 bound_to 6896
  150.9030  134.8445  159.7384 H   0  0  0  0  0  0  0  0  0  0  0  0  # atno 6908 bound_to 6896
  152.4890  134.4526  159.9631 H   0  0  0  0  0  0  0  0  0  0  0  0  # atno 6909 bound_to 6896
  145.0710  140.8359  143.4095 H   0  0  0  0  0  0  0  0  0  0  0  0  # atno 7974 bound_to 7965
  156.2977  140.2338  156.4420 H   0  0  0  0  0  0  0  0  0  0  0  0  # atno 8008 bound_to 7997
  154.8177  140.0439  157.1409 H   0  0  0  0  0  0  0  0  0  0  0  0  # atno 8009 bound_to 7997
  154.9350  140.3022  155.5152 H   0  0  0  0  0  0  0  0  0  0  0  0  # atno 8010 bound_to 7997
  140.4231  143.2577  151.8863 H   0  0  0  0  0  0  0  0  0  0  0  0  # atno 10167 bound_to 10162
  156.6945  130.9172  151.3073 H   0  0  0  0  0  0  0  0  0  0  0  0  # atno 10718 bound_to 10713
  154.6426  135.5384  153.7806 H   0  0  0  0  0  0  0  0  0  0  0  0  # atno 10763 bound_to 10752
  153.0342  135.6463  154.1138 H   0  0  0  0  0  0  0  0  0  0  0  0  # atno 10764 bound_to 10752
  154.1061  135.2930  155.3221 H   0  0  0  0  0  0  0  0  0  0  0  0  # atno 10765 bound_to 10752
  140.7023  133.8979  155.8692 H   0  0  0  0  0  0  0  0  0  0  0  0  # atno 11005 bound_to 11000
  145.1292  139.2643  143.5548 LP  0  0  0  0  0  0  0  0  0  0  0  0  # atno 17320 bound_to 7965
  146.3528  140.0939  142.8611 LP  0  0  0  0  0  0  0  0  0  0  0  0  # atno 17321 bound_to 7965
  139.4783  144.5416  151.8520 LP  0  0  0  0  0  0  0  0  0  0  0  0  # atno 17342 bound_to 10162
  140.4511  144.1853  150.5897 LP  0  0  0  0  0  0  0  0  0  0  0  0  # atno 17343 bound_to 10162
  157.6996  130.9319  150.0746 LP  0  0  0  0  0  0  0  0  0  0  0  0  # atno 17370 bound_to 10713
  156.1773  130.3648  149.9083 LP  0  0  0  0  0  0  0  0  0  0  0  0  # atno 17371 bound_to 10713
  141.0153  134.0964  157.4178 LP  0  0  0  0  0  0  0  0  0  0  0  0  # atno 17394 bound_to 11000
  139.8893  135.0104  156.6673 LP  0  0  0  0  0  0  0  0  0  0  0  0  # atno 17395 bound_to 11000

$$$$
