AV-unprocessed.smi:703|AV-procd|sdf|3441|dock8
  -GOLD-   22720 0433D 1   1.00000     0.00000
 Structure written by MMmdl.
 37 38  0  0  0  0  0  0  0  0  3 V2000
  146.8169  132.8353  152.2557 C   0  0  0  0  0  0  0  0  0  0  0  0
  146.5628  133.8113  153.4126 C   0  0  0  0  0  0  0  0  0  0  0  0
  147.7663  134.6115  153.7478 N   0  3  2  0  0  0  0  0  0  0  0  0
  148.9506  133.8136  154.1468 C   0  0  0  0  0  0  0  0  0  0  0  0
  149.6791  134.6586  155.1967 C   0  0  2  0  0  0  0  0  0  0  0  0
  150.7070  133.8811  156.0446 C   0  0  0  0  0  0  0  0  0  0  0  0
  148.5318  135.3811  155.9306 C   0  0  2  0  0  0  0  0  0  0  0  0
  147.8967  134.5121  156.9147 N   0  5  0  0  0  0  0  0  0  0  0  0
  148.5642  134.3238  158.3814 S   0  0  0  0  0  0  0  0  0  0  0  0
  149.1028  132.9707  158.5954 O   0  0  0  0  0  0  0  0  0  0  0  0
  149.4332  135.4568  158.7368 O   0  0  0  0  0  0  0  0  0  0  0  0
  147.0725  134.4688  159.4600 C   0  0  0  0  0  0  0  0  0  0  0  0
  147.3624  135.3485  160.6456 C   0  0  0  0  0  0  0  0  0  0  0  0
  147.3675  134.9962  162.0244 C   0  0  0  0  0  0  0  0  0  0  0  0
  147.6969  136.1628  162.6510 C   0  0  0  0  0  0  0  0  0  0  0  0
  147.8692  137.1570  161.7440 O   0  0  0  0  0  0  0  0  0  0  0  0
  147.6487  136.6288  160.4669 N   0  0  0  0  0  0  0  0  0  0  0  0
  147.5380  135.6480  154.7885 C   0  0  0  0  0  0  0  0  0  0  0  0
  145.9025  132.3021  151.9951 H   0  0  0  0  0  0  0  0  0  0  0  0
  147.5673  132.0883  152.5153 H   0  0  0  0  0  0  0  0  0  0  0  0
  147.1595  133.3612  151.3641 H   0  0  0  0  0  0  0  0  0  0  0  0
  145.7605  134.4914  153.1238 H   0  0  0  0  0  0  0  0  0  0  0  0
  146.2161  133.2738  154.2968 H   0  0  0  0  0  0  0  0  0  0  0  0
  148.6423  132.8543  154.5714 H   0  0  0  0  0  0  0  0  0  0  0  0
  149.5826  133.5976  153.2847 H   0  0  0  0  0  0  0  0  0  0  0  0
  150.2351  135.4272  154.6573 H   0  0  0  0  0  0  0  0  0  0  0  0
  150.2550  133.0560  156.5974 H   0  0  0  0  0  0  0  0  0  0  0  0
  151.2111  134.5295  156.7629 H   0  0  0  0  0  0  0  0  0  0  0  0
  151.4786  133.4514  155.4058 H   0  0  0  0  0  0  0  0  0  0  0  0
  148.8734  136.3216  156.3643 H   0  0  0  0  0  0  0  0  0  0  0  0
  146.2666  134.8854  158.8556 H   0  0  0  0  0  0  0  0  0  0  0  0
  146.7665  133.4697  159.7682 H   0  0  0  0  0  0  0  0  0  0  0  0
  147.1716  134.0359  162.4773 H   0  0  0  0  0  0  0  0  0  0  0  0
  147.8394  136.4342  163.6866 H   0  0  0  0  0  0  0  0  0  0  0  0
  147.7565  136.6154  154.3351 H   0  0  0  0  0  0  0  0  0  0  0  0
  146.5020  135.6907  155.1309 H   0  0  0  0  0  0  0  0  0  0  0  0
  148.0237  135.1177  152.9130 H   0  0  0  0  0  0  0  0  0  0  0  0
  1  2  1  0  0  0  0
  1 19  1  0  0  0  0
  1 20  1  0  0  0  0
  1 21  1  0  0  0  0
  2  3  1  0  0  0  0
  2 22  1  0  0  0  0
  2 23  1  0  0  0  0
  3 18  1  0  0  0  0
  3  4  1  0  0  0  0
  3 37  1  0  0  0  0
  4  5  1  0  0  0  0
  4 24  1  0  0  0  0
  4 25  1  0  0  0  0
  5  6  1  0  0  0  0
  5  7  1  0  0  0  0
  5 26  1  0  0  0  0
  6 27  1  0  0  0  0
  6 28  1  0  0  0  0
  6 29  1  0  0  0  0
  7  8  1  0  0  0  0
  7 18  1  0  0  0  0
  7 30  1  0  0  0  0
  8  9  1  0  0  0  0
  9 10  2  0  0  0  0
  9 11  2  0  0  0  0
  9 12  1  0  0  0  0
 12 13  1  0  0  0  0
 12 31  1  0  0  0  0
 12 32  1  0  0  0  0
 13 17  2  0  0  0  0
 13 14  1  0  0  0  0
 14 15  2  0  0  0  0
 14 33  1  0  0  0  0
 15 16  1  0  0  0  0
 15 34  1  0  0  0  0
 16 17  1  0  0  0  0
 18 35  1  0  0  0  0
 18 36  1  0  0  0  0
M  CHG  1   3   1
M  CHG  1   8  -1
M  END
> <s_m_source_file>
AV-unprocessed.smi

> <i_m_source_file_index>
703

> <i_lp_mmshare_version>
43012

> <i_f3d_flags>
0

> <s_epik_input>
W0NIM11bQ0gyXU4xW0NIMl1bQ0BASF0oW0NIM10pW0NASF0oW0NIMl0xKVtOSF1TKD1PKSg9TylbQ0gyXWMyW2NIXVtjSF1vbjI=

> <s_epik_cmdline>
J2VwaWtfcHl0aG9uJywgJy1waCcsICc3LjAnLCAnLXRuJywgJzgnLCAnLW1hJywgJzIwMCcsICctbWV0YWxfYmluZGluZycsICctaW1hZScsICc8aW5maWxlLm1hZT4nLCAnLW9tYWUnLCAnPG91dGZpbGUubWFlPic=

> <r_epik_Ionization_Penalty>
3.62494

> <r_epik_Ionization_Penalty_Charging>
3.62494

> <r_epik_Ionization_Penalty_Neutral>
2.0321e-10

> <r_epik_State_Penalty>
3.62558

> <r_epik_Charging_Adjusted_Penalty>
7.25052

> <i_epik_Tot_Q>
0

> <i_epik_Tot_abs_Q>
2

> <r_epik_Metal_State_Penalty>
0.530836

> <b_epik_Metal_Only>
1

> <s_lp_Force_Field>
OPLS_2005

> <r_lp_Energy>
19.3254

> <b_lp_Chiralities_Consistent>
1

> <s_lp_Variant>
AV-unprocessed.smi:703-16

> <Gold.Version>
5.8.1

> <Gold.Id.Protein>
6NUR|6NUR_protein|mol2

> <Gold.PLP.Fitness>
39.7971

> <Gold.PLP.PLP>
-27.7020

> <Gold.PLP.part.hbond>
-5.0000

> <Gold.PLP.part.metal>
0.0000

> <Gold.PLP.part.buried>
-2.4553

> <Gold.PLP.part.nonpolar>
-19.1670

> <Gold.PLP.part.repulsive>
0.0000

> <Gold.PLP.ligand.clash>
0.0000

> <Gold.PLP.ligand.torsion>
1.1383

> <Gold.PLP.Chemscore.Hbond>
4.4428

> <Gold.PLP.Chemscore.CHOScore>
0.0000

> <Gold.PLP.Chemscore.Metal>
0.0000

> <Gold.Chemscore.Hbonds>
donor molecule, donor type, donor heavy atom, donor atom, acceptor molecule, acceptor atom, score
      L1  H     3    37       P1  7948  2.00
      P1  H  6896  6907       L1    10  0.70
      P1  H  6896  6908       L1    11  0.07
      P1  H  6931  6943       L1    16  1.00
      P1  H  6934  6947       L1    16  0.16

> <Gold.PLP.Chemscore.Internal.Correction>
1.0432

> <Gold.Rescore>
     Score         DG    S(hbond)    S(metal)    S(lipo)     H(rot)  DE(clash)    DE(int)     intcor
     13.95     -16.76       2.63        0.00      57.21       1.63       0.15       2.66       ----

> <Gold.Chemscore.Fitness>
13.9541

> <Gold.Chemscore.DG>
-16.7617

> <Gold.Chemscore.ZeroCoef>
-5.4800

> <Gold.Chemscore.Hbond>
2.6259

> <Gold.Chemscore.Metal>
0.0000

> <Gold.Chemscore.Lipo>
57.2123

> <Gold.Chemscore.Internal_Hbond>
0.0000

> <Gold.Chemscore.DEClash>
0.1459

> <Gold.Chemscore.DEInternal>
2.6618

> <Gold.Chemscore.Rot>
1.6338

> <Gold.Chemscore.Internal.Correction>
   9.000000E+99

> <Gold.Chemscore.Hbonds>
donor molecule, donor type, donor heavy atom, donor atom, acceptor molecule, acceptor atom, score
      L1  H     3    37       P1  7948  0.97
      P1  H  6896  6907       L1    10  0.07
      P1  H  6896  6908       L1    11  0.07
      P1  H  6931  6943       L1    16  0.92

> <Gold.Chemscore.Hbond.Weighted>
-8.7704

> <Gold.Chemscore.Metal.Weighted>
-0.0000

> <Gold.Chemscore.Lipo.Weighted>
-6.6938

> <Gold.Chemscore.Internal_Hbond.Weighted>
0.0000

> <Gold.Chemscore.DEClash.Weighted>
0.1459

> <Gold.Chemscore.DEInternal.Weighted>
2.6618

> <Gold.Chemscore.Rot.Weighted>
4.1825

> <Gold.Chemscore.Internal.Correction.Weighted>
   9.000000E+99

> <Gold.Protein.RotatedTorsions>
[ 6907 6896 6895 6894 ] final -132.22 input  -60.11 | X-H torsion
[ 7974 7965 7964 7962 ] final -172.69 input  175.53 | X-H torsion
[ 8008 7997 7996 7995 ] final -175.97 input   59.86 | X-H torsion
[ 10167 10162 10161 10158 ] final -124.26 input  -65.29 | X-H torsion
[ 10718 10713 10712 10709 ] final  -82.23 input   66.30 | X-H torsion
[ 10763 10752 10751 10750 ] final   19.91 input  -60.55 | X-H torsion
[ 11005 11000 10999 10996 ] final   45.58 input  -57.11 | X-H torsion

> <Gold.Protein.ActiveResidues>
 VAL166  LYS551  ARG553  GLY616  TRP617  ASP618  TYR619  PRO620  LYS621  CYS622 
 ASP623  PHE694  ASN695  SER759  ASP760  ASP761  ALA762  ILE779  LEU786  VAL792 
 PHE793  MET794  SER795  GLU796  ALA797  LYS798  CYS799  TRP800  GLU811  SER814 

> <Gold.Protein.RotatedAtoms>
  150.9598  133.6457  159.2756 H   0  0  0  0  0  0  0  0  0  0  0  0  # atno 6907 bound_to 6896
  151.3784  135.0934  159.9497 H   0  0  0  0  0  0  0  0  0  0  0  0  # atno 6908 bound_to 6896
  152.5143  133.9138  159.7555 H   0  0  0  0  0  0  0  0  0  0  0  0  # atno 6909 bound_to 6896
  144.7144  140.1735  143.6365 H   0  0  0  0  0  0  0  0  0  0  0  0  # atno 7974 bound_to 7965
  155.9892  140.1197  157.0654 H   0  0  0  0  0  0  0  0  0  0  0  0  # atno 8008 bound_to 7997
  154.4206  140.1129  156.5610 H   0  0  0  0  0  0  0  0  0  0  0  0  # atno 8009 bound_to 7997
  155.6366  140.3473  155.4703 H   0  0  0  0  0  0  0  0  0  0  0  0  # atno 8010 bound_to 7997
  139.9947  143.5603  152.2328 H   0  0  0  0  0  0  0  0  0  0  0  0  # atno 10167 bound_to 10162
  156.0036  130.4628  150.4073 H   0  0  0  0  0  0  0  0  0  0  0  0  # atno 10718 bound_to 10713
  153.1121  135.6699  153.9481 H   0  0  0  0  0  0  0  0  0  0  0  0  # atno 10763 bound_to 10752
  153.9022  135.3034  155.3450 H   0  0  0  0  0  0  0  0  0  0  0  0  # atno 10764 bound_to 10752
  154.7540  135.5021  153.9418 H   0  0  0  0  0  0  0  0  0  0  0  0  # atno 10765 bound_to 10752
  140.1447  134.4538  155.8424 H   0  0  0  0  0  0  0  0  0  0  0  0  # atno 11005 bound_to 11000
  145.8922  139.2382  143.1543 LP  0  0  0  0  0  0  0  0  0  0  0  0  # atno 17320 bound_to 7965
  145.9892  140.8617  143.0075 LP  0  0  0  0  0  0  0  0  0  0  0  0  # atno 17321 bound_to 7965
  139.6314  144.7645  151.2527 LP  0  0  0  0  0  0  0  0  0  0  0  0  # atno 17342 bound_to 10162
  140.7441  143.6472  150.8281 LP  0  0  0  0  0  0  0  0  0  0  0  0  # atno 17343 bound_to 10162
  157.2138  131.0466  151.2584 LP  0  0  0  0  0  0  0  0  0  0  0  0  # atno 17370 bound_to 10713
  157.3864  130.7258  149.6666 LP  0  0  0  0  0  0  0  0  0  0  0  0  # atno 17371 bound_to 10713
  141.2191  133.6847  156.7311 LP  0  0  0  0  0  0  0  0  0  0  0  0  # atno 17394 bound_to 11000
  140.2679  134.8415  157.3819 LP  0  0  0  0  0  0  0  0  0  0  0  0  # atno 17395 bound_to 11000

$$$$
