AV-unprocessed.smi:828|AV-procd|sdf|3860|dock1
  -GOLD-   22720 1313D 1   1.00000     0.00000
 Structure written by MMmdl.
 35 36  0  0  0  0  0  0  0  0  2 V2000
  152.6688  137.2060  158.3870 C   0  0  0  0  0  0  0  0  0  0  0  0
  152.0752  136.7819  157.0874 C   0  0  0  0  0  0  0  0  0  0  0  0
  152.6556  137.0396  155.9089 N   0  0  0  0  0  0  0  0  0  0  0  0
  151.9157  136.5524  154.8402 N   0  0  0  0  0  0  0  0  0  0  0  0
  150.7949  135.9403  155.2467 C   0  0  0  0  0  0  0  0  0  0  0  0
  149.8501  135.3559  154.3626 N   0  0  0  0  0  0  0  0  0  0  0  0
  149.1639  134.2100  154.5156 C   0  0  0  0  0  0  0  0  0  0  0  0
  149.2222  133.4676  155.4963 O   0  0  0  0  0  0  0  0  0  0  0  0
  148.3903  133.9608  153.4494 N   0  0  0  0  0  0  0  0  0  0  0  0
  147.5211  132.7978  153.2995 C   0  0  0  0  0  0  0  0  0  0  0  0
  147.0008  132.6374  151.8484 C   0  0  2  0  0  0  0  0  0  0  0  0
  145.8153  133.5616  151.5226 C   0  0  0  0  0  0  0  0  0  0  0  0
  145.0342  132.8011  150.4602 C   0  0  0  0  0  0  0  0  0  0  0  0
  145.2023  131.3524  150.9053 C   0  0  0  0  0  0  0  0  0  0  0  0
  146.5729  131.2621  151.4534 N   0  3  2  0  0  0  0  0  0  0  0  0
  146.7449  130.1676  152.4369 C   0  0  0  0  0  0  0  0  0  0  0  0
  150.5500  135.9106  156.9845 S   0  0  0  0  0  0  0  0  0  0  0  0
  153.7571  137.1567  158.3419 H   0  0  0  0  0  0  0  0  0  0  0  0
  152.3246  136.5544  159.1902 H   0  0  0  0  0  0  0  0  0  0  0  0
  152.3724  138.2299  158.6146 H   0  0  0  0  0  0  0  0  0  0  0  0
  149.6850  135.8679  153.5084 H   0  0  0  0  0  0  0  0  0  0  0  0
  148.4002  134.6241  152.6882 H   0  0  0  0  0  0  0  0  0  0  0  0
  148.0678  131.9100  153.6204 H   0  0  0  0  0  0  0  0  0  0  0  0
  146.6884  132.9244  153.9914 H   0  0  0  0  0  0  0  0  0  0  0  0
  147.8124  132.8830  151.1623 H   0  0  0  0  0  0  0  0  0  0  0  0
  145.1863  133.6962  152.4036 H   0  0  0  0  0  0  0  0  0  0  0  0
  146.1315  134.5494  151.1859 H   0  0  0  0  0  0  0  0  0  0  0  0
  143.9895  133.1075  150.3985 H   0  0  0  0  0  0  0  0  0  0  0  0
  145.4915  132.9497  149.4809 H   0  0  0  0  0  0  0  0  0  0  0  0
  144.4763  131.1294  151.6890 H   0  0  0  0  0  0  0  0  0  0  0  0
  145.0474  130.6427  150.0921 H   0  0  0  0  0  0  0  0  0  0  0  0
  146.1511  130.3372  153.3356 H   0  0  0  0  0  0  0  0  0  0  0  0
  147.7915  130.0555  152.7206 H   0  0  0  0  0  0  0  0  0  0  0  0
  146.4247  129.2212  152.0000 H   0  0  0  0  0  0  0  0  0  0  0  0
  147.1637  131.0238  150.6691 H   0  0  0  0  0  0  0  0  0  0  0  0
  1  2  1  0  0  0  0
  1 18  1  0  0  0  0
  1 19  1  0  0  0  0
  1 20  1  0  0  0  0
  2 17  1  0  0  0  0
  2  3  2  0  0  0  0
  3  4  1  0  0  0  0
  4  5  2  0  0  0  0
  5  6  1  0  0  0  0
  5 17  1  0  0  0  0
  6  7  1  0  0  0  0
  6 21  1  0  0  0  0
  7  8  2  0  0  0  0
  7  9  1  0  0  0  0
  9 10  1  0  0  0  0
  9 22  1  0  0  0  0
 10 11  1  0  0  0  0
 10 23  1  0  0  0  0
 10 24  1  0  0  0  0
 11 15  1  0  0  0  0
 11 12  1  0  0  0  0
 11 25  1  0  0  0  0
 12 13  1  0  0  0  0
 12 26  1  0  0  0  0
 12 27  1  0  0  0  0
 13 14  1  0  0  0  0
 13 28  1  0  0  0  0
 13 29  1  0  0  0  0
 14 15  1  0  0  0  0
 14 30  1  0  0  0  0
 14 31  1  0  0  0  0
 15 16  1  0  0  0  0
 15 35  1  0  0  0  0
 16 32  1  0  0  0  0
 16 33  1  0  0  0  0
 16 34  1  0  0  0  0
M  CHG  1  15   1
M  END
> <s_m_source_file>
AV-unprocessed.smi

> <i_m_source_file_index>
828

> <i_lp_mmshare_version>
43012

> <i_f3d_flags>
0

> <s_epik_input>
W0NIM11jMW5uYyhzMSlbTkhdQyg9TylbTkhdW0NIMl1bQ0BASF0yW0NIMl1bQ0gyXVtDSDJdTjJbQ0gzXQ==

> <s_epik_cmdline>
J2VwaWtfcHl0aG9uJywgJy1waCcsICc3LjAnLCAnLXRuJywgJzgnLCAnLW1hJywgJzIwMCcsICctbWV0YWxfYmluZGluZycsICctaW1hZScsICc8aW5maWxlLm1hZT4nLCAnLW9tYWUnLCAnPG91dGZpbGUubWFlPic=

> <r_lp_tautomer_probability>
1

> <r_epik_Ionization_Penalty>
0.00466477

> <r_epik_Ionization_Penalty_Charging>
0.00372199

> <r_epik_Ionization_Penalty_Neutral>
0.000942783

> <r_epik_State_Penalty>
-0

> <r_epik_Charging_Adjusted_Penalty>
0.00372199

> <i_epik_Tot_Q>
1

> <i_epik_Tot_abs_Q>
1

> <r_epik_Metal_State_Penalty>
0.28212

> <b_epik_Metal_Only>
0

> <s_lp_Force_Field>
OPLS_2005

> <r_lp_Energy>
27.2564

> <b_lp_Chiralities_Consistent>
1

> <s_lp_Variant>
AV-unprocessed.smi:828-3

> <Gold.Version>
5.8.1

> <Gold.Id.Protein>
6NUR|6NUR_protein|mol2

> <Gold.PLP.Fitness>
36.2304

> <Gold.PLP.PLP>
-25.6596

> <Gold.PLP.part.hbond>
-5.0727

> <Gold.PLP.part.metal>
0.0000

> <Gold.PLP.part.buried>
-4.1669

> <Gold.PLP.part.nonpolar>
-16.5144

> <Gold.PLP.part.repulsive>
0.1918

> <Gold.PLP.ligand.clash>
0.0000

> <Gold.PLP.ligand.torsion>
0.5842

> <Gold.PLP.Chemscore.Hbond>
3.9120

> <Gold.PLP.Chemscore.CHOScore>
0.0000

> <Gold.PLP.Chemscore.Metal>
0.0000

> <Gold.Chemscore.Hbonds>
donor molecule, donor type, donor heavy atom, donor atom, acceptor molecule, acceptor atom, score
      L1  H     6    21       P1  7948  0.85
      L1  H     9    22       P1  7948  1.00
      L1  H    15    35       P1 10747  0.80
      P1  H 10752 10764       L1     4  0.69

> <Gold.PLP.Chemscore.Internal.Correction>
0.0032

> <Gold.Rescore>
     Score         DG    S(hbond)    S(metal)    S(lipo)     H(rot)  DE(clash)    DE(int)     intcor
     17.33     -18.17       3.03        0.00      51.12       1.33       0.00       0.84       ----

> <Gold.Chemscore.Fitness>
17.3302

> <Gold.Chemscore.DG>
-18.1713

> <Gold.Chemscore.ZeroCoef>
-5.4800

> <Gold.Chemscore.Hbond>
3.0279

> <Gold.Chemscore.Metal>
0.0000

> <Gold.Chemscore.Lipo>
51.1221

> <Gold.Chemscore.Internal_Hbond>
0.0000

> <Gold.Chemscore.DEClash>
0.0000

> <Gold.Chemscore.DEInternal>
0.8411

> <Gold.Chemscore.Rot>
1.3294

> <Gold.Chemscore.Internal.Correction>
   9.000000E+99

> <Gold.Chemscore.Hbonds>
donor molecule, donor type, donor heavy atom, donor atom, acceptor molecule, acceptor atom, score
      L1  H     6    21       P1  7948  0.15
      L1  H     9    22       P1  7948  0.25
      L1  H    15    35       P1 10747  0.80
      P1  H 10752 10764       L1     4  0.10

> <Gold.Chemscore.Hbond.Weighted>
-10.1133

> <Gold.Chemscore.Metal.Weighted>
-0.0000

> <Gold.Chemscore.Lipo.Weighted>
-5.9813

> <Gold.Chemscore.Internal_Hbond.Weighted>
0.0000

> <Gold.Chemscore.DEClash.Weighted>
0.0000

> <Gold.Chemscore.DEInternal.Weighted>
0.8411

> <Gold.Chemscore.Rot.Weighted>
3.4033

> <Gold.Chemscore.Internal.Correction.Weighted>
   9.000000E+99

> <Gold.Protein.RotatedTorsions>
[ 6907 6896 6895 6894 ] final   49.90 input  -60.11 | X-H torsion
[ 7974 7965 7964 7962 ] final  -51.14 input  175.53 | X-H torsion
[ 8008 7997 7996 7995 ] final   63.97 input   59.86 | X-H torsion
[ 10167 10162 10161 10158 ] final -101.96 input  -65.29 | X-H torsion
[ 10718 10713 10712 10709 ] final  -33.82 input   66.30 | X-H torsion
[ 10763 10752 10751 10750 ] final  -76.76 input  -60.55 | X-H torsion
[ 11005 11000 10999 10996 ] final  119.87 input  -57.11 | X-H torsion

> <Gold.Protein.ActiveResidues>
 VAL166  LYS551  ARG553  GLY616  TRP617  ASP618  TYR619  PRO620  LYS621  CYS622 
 ASP623  PHE694  ASN695  SER759  ASP760  ASP761  ALA762  ILE779  LEU786  VAL792 
 PHE793  MET794  SER795  GLU796  ALA797  LYS798  CYS799  TRP800  GLU811  SER814 

> <Gold.Protein.RotatedAtoms>
  152.2959  134.7668  160.0367 H   0  0  0  0  0  0  0  0  0  0  0  0  # atno 6907 bound_to 6896
  151.8198  133.3388  159.3588 H   0  0  0  0  0  0  0  0  0  0  0  0  # atno 6908 bound_to 6896
  150.7251  134.5514  159.5841 H   0  0  0  0  0  0  0  0  0  0  0  0  # atno 6909 bound_to 6896
  145.9222  140.7823  142.9641 H   0  0  0  0  0  0  0  0  0  0  0  0  # atno 7974 bound_to 7965
  155.6386  140.3496  155.4707 H   0  0  0  0  0  0  0  0  0  0  0  0  # atno 8008 bound_to 7997
  155.9944  140.1200  157.0631 H   0  0  0  0  0  0  0  0  0  0  0  0  # atno 8009 bound_to 7997
  154.4229  140.1113  156.5596 H   0  0  0  0  0  0  0  0  0  0  0  0  # atno 8010 bound_to 7997
  140.2358  143.3574  152.0846 H   0  0  0  0  0  0  0  0  0  0  0  0  # atno 10167 bound_to 10162
  156.3580  130.4319  149.7648 H   0  0  0  0  0  0  0  0  0  0  0  0  # atno 10718 bound_to 10713
  154.5041  135.5787  153.6554 H   0  0  0  0  0  0  0  0  0  0  0  0  # atno 10763 bound_to 10752
  152.9884  135.6143  154.2964 H   0  0  0  0  0  0  0  0  0  0  0  0  # atno 10764 bound_to 10752
  154.2874  135.2849  155.2649 H   0  0  0  0  0  0  0  0  0  0  0  0  # atno 10765 bound_to 10752
  139.9163  134.9631  156.7720 H   0  0  0  0  0  0  0  0  0  0  0  0  # atno 11005 bound_to 11000
  144.6754  140.1994  143.7388 LP  0  0  0  0  0  0  0  0  0  0  0  0  # atno 17320 bound_to 7965
  145.8535  139.2187  143.1758 LP  0  0  0  0  0  0  0  0  0  0  0  0  # atno 17321 bound_to 7965
  139.5094  144.6867  151.5869 LP  0  0  0  0  0  0  0  0  0  0  0  0  # atno 17342 bound_to 10162
  140.6151  143.9364  150.6482 LP  0  0  0  0  0  0  0  0  0  0  0  0  # atno 17343 bound_to 10162
  156.4823  130.8046  151.3060 LP  0  0  0  0  0  0  0  0  0  0  0  0  # atno 17370 bound_to 10713
  157.7470  131.0002  150.2917 LP  0  0  0  0  0  0  0  0  0  0  0  0  # atno 17371 bound_to 10713
  140.6613  133.9643  155.7806 LP  0  0  0  0  0  0  0  0  0  0  0  0  # atno 17394 bound_to 11000
  141.0641  134.0302  157.3617 LP  0  0  0  0  0  0  0  0  0  0  0  0  # atno 17395 bound_to 11000

$$$$
