AV-unprocessed.smi:1224|AV-procd|sdf|5135|dock10
  -GOLD-   22720 4193D 1   1.00000     0.00000
 Structure written by MMmdl.
 44 46  0  0  0  0  0  0  0  0  2 V2000
  152.5555  143.6962  160.0910 C   0  0  0  0  0  0  0  0  0  0  0  0
  152.1116  142.7366  158.9999 C   0  0  0  0  0  0  0  0  0  0  0  0
  151.2143  143.2055  158.0137 C   0  0  0  0  0  0  0  0  0  0  0  0
  150.8287  142.3053  157.0275 C   0  0  0  0  0  0  0  0  0  0  0  0
  149.9738  142.4553  155.9331 N   0  3  0  0  0  0  0  0  0  0  0  0
  149.9087  141.2828  155.2430 C   0  0  0  0  0  0  0  0  0  0  0  0
  150.7049  140.3856  155.8851 N   0  0  0  0  0  0  0  0  0  0  0  0
  150.9947  138.9807  155.5688 C   0  0  0  0  0  0  0  0  0  0  0  0
  150.3235  138.5092  154.2614 C   0  0  1  0  0  0  0  0  0  0  0  0
  150.6320  137.1459  154.0535 O   0  0  0  0  0  0  0  0  0  0  0  0
  148.7942  138.6512  154.2980 C   0  0  0  0  0  0  0  0  0  0  0  0
  148.2161  138.5363  152.9600 N   0  0  0  0  0  0  0  0  0  0  0  0
  146.7576  138.6077  152.9338 C   0  0  0  0  0  0  0  0  0  0  0  0
  146.1337  137.4498  152.2250 C   0  0  0  0  0  0  0  0  0  0  0  0
  145.3176  136.4813  152.7527 C   0  0  0  0  0  0  0  0  0  0  0  0
  144.9018  135.5138  151.7918 C   0  0  0  0  0  0  0  0  0  0  0  0
  145.4065  135.7565  150.5419 C   0  0  0  0  0  0  0  0  0  0  0  0
  146.4058  137.1834  150.5213 S   0  0  0  0  0  0  0  0  0  0  0  0
  151.3030  140.9799  157.0005 C   0  0  0  0  0  0  0  0  0  0  0  0
  152.1875  140.5010  157.9634 C   0  0  0  0  0  0  0  0  0  0  0  0
  152.5915  141.4011  158.9754 C   0  0  0  0  0  0  0  0  0  0  0  0
  153.5559  140.9080  160.0407 C   0  0  0  0  0  0  0  0  0  0  0  0
  152.1061  144.6814  159.9631 H   0  0  0  0  0  0  0  0  0  0  0  0
  153.6385  143.8196  160.0750 H   0  0  0  0  0  0  0  0  0  0  0  0
  152.2636  143.3218  161.0724 H   0  0  0  0  0  0  0  0  0  0  0  0
  150.8451  144.2206  158.0257 H   0  0  0  0  0  0  0  0  0  0  0  0
  149.3279  141.0972  154.3508 H   0  0  0  0  0  0  0  0  0  0  0  0
  152.0784  138.8778  155.4966 H   0  0  0  0  0  0  0  0  0  0  0  0
  150.6831  138.3691  156.4165 H   0  0  0  0  0  0  0  0  0  0  0  0
  150.7190  139.0674  153.4117 H   0  0  0  0  0  0  0  0  0  0  0  0
  151.0247  137.0552  153.1990 H   0  0  0  0  0  0  0  0  0  0  0  0
  148.3759  137.8721  154.9367 H   0  0  0  0  0  0  0  0  0  0  0  0
  148.5222  139.6043  154.7536 H   0  0  0  0  0  0  0  0  0  0  0  0
  148.5243  137.6750  152.5208 H   0  0  0  0  0  0  0  0  0  0  0  0
  146.3855  138.6220  153.9585 H   0  0  0  0  0  0  0  0  0  0  0  0
  146.4331  139.5478  152.4861 H   0  0  0  0  0  0  0  0  0  0  0  0
  145.0095  136.4342  153.7867 H   0  0  0  0  0  0  0  0  0  0  0  0
  144.2568  134.6861  152.0472 H   0  0  0  0  0  0  0  0  0  0  0  0
  145.2534  135.1879  149.6366 H   0  0  0  0  0  0  0  0  0  0  0  0
  152.5521  139.4844  157.9417 H   0  0  0  0  0  0  0  0  0  0  0  0
  153.8019  139.8550  159.8995 H   0  0  0  0  0  0  0  0  0  0  0  0
  153.1197  141.0167  161.0339 H   0  0  0  0  0  0  0  0  0  0  0  0
  154.4861  141.4755  160.0063 H   0  0  0  0  0  0  0  0  0  0  0  0
  149.4728  143.2953  155.6726 H   0  0  0  0  0  0  0  0  0  0  0  0
  1  2  1  0  0  0  0
  1 23  1  0  0  0  0
  1 24  1  0  0  0  0
  1 25  1  0  0  0  0
  2 21  1  0  0  0  0
  2  3  2  0  0  0  0
  3  4  1  0  0  0  0
  3 26  1  0  0  0  0
  4 19  2  0  0  0  0
  4  5  1  0  0  0  0
  5  6  2  0  0  0  0
  5 44  1  0  0  0  0
  6  7  1  0  0  0  0
  6 27  1  0  0  0  0
  7  8  1  0  0  0  0
  7 19  1  0  0  0  0
  8  9  1  0  0  0  0
  8 28  1  0  0  0  0
  8 29  1  0  0  0  0
  9 10  1  0  0  0  0
  9 11  1  0  0  0  0
  9 30  1  0  0  0  0
 10 31  1  0  0  0  0
 11 12  1  0  0  0  0
 11 32  1  0  0  0  0
 11 33  1  0  0  0  0
 12 13  1  0  0  0  0
 12 34  1  0  0  0  0
 13 14  1  0  0  0  0
 13 35  1  0  0  0  0
 13 36  1  0  0  0  0
 14 18  1  0  0  0  0
 14 15  2  0  0  0  0
 15 16  1  0  0  0  0
 15 37  1  0  0  0  0
 16 17  2  0  0  0  0
 16 38  1  0  0  0  0
 17 18  1  0  0  0  0
 17 39  1  0  0  0  0
 19 20  1  0  0  0  0
 20 21  2  0  0  0  0
 20 40  1  0  0  0  0
 21 22  1  0  0  0  0
 22 41  1  0  0  0  0
 22 42  1  0  0  0  0
 22 43  1  0  0  0  0
M  CHG  1   5   1
M  END
> <s_m_source_file>
AV-unprocessed.smi

> <i_m_source_file_index>
1224

> <i_lp_mmshare_version>
43012

> <i_f3d_flags>
0

> <s_epik_input>
W0NIM11jKFtjSF0xKWMoW0NIM10pW2NIXWMoYzEyKW4oW2NIXW4yKVtDSDJdW0NASF0oW09IXSlbQ0gyXVtOSF1bQ0gyXWMzW2NIXVtjSF1bY0hdczM=

> <s_epik_cmdline>
J2VwaWtfcHl0aG9uJywgJy1waCcsICc3LjAnLCAnLXRuJywgJzgnLCAnLW1hJywgJzIwMCcsICctbWV0YWxfYmluZGluZycsICctaW1hZScsICc8aW5maWxlLm1hZT4nLCAnLW9tYWUnLCAnPG91dGZpbGUubWFlPic=

> <r_epik_Ionization_Penalty>
2.3772

> <r_epik_Ionization_Penalty_Charging>
0.996291

> <r_epik_Ionization_Penalty_Neutral>
1.38091

> <r_epik_State_Penalty>
2.60954

> <r_epik_Charging_Adjusted_Penalty>
3.60583

> <i_epik_Tot_Q>
1

> <i_epik_Tot_abs_Q>
1

> <r_epik_Metal_State_Penalty>
6.5861

> <b_epik_Metal_Only>
0

> <s_lp_Force_Field>
OPLS_2005

> <r_lp_Energy>
14.7648

> <b_lp_Chiralities_Consistent>
1

> <s_lp_Variant>
AV-unprocessed.smi:1224-8

> <Gold.Version>
5.8.1

> <Gold.Id.Protein>
6NUR|6NUR_protein|mol2

> <Gold.PLP.Fitness>
59.9787

> <Gold.PLP.PLP>
-46.2344

> <Gold.PLP.part.hbond>
-4.9603

> <Gold.PLP.part.metal>
0.0000

> <Gold.PLP.part.buried>
-1.5433

> <Gold.PLP.part.nonpolar>
-41.9612

> <Gold.PLP.part.repulsive>
0.1385

> <Gold.PLP.ligand.clash>
0.0000

> <Gold.PLP.ligand.torsion>
0.5007

> <Gold.PLP.Chemscore.Hbond>
3.8921

> <Gold.PLP.Chemscore.CHOScore>
1.0000

> <Gold.PLP.Chemscore.Metal>
0.0000

> <Gold.Chemscore.Hbonds>
donor molecule, donor type, donor heavy atom, donor atom, acceptor molecule, acceptor atom, score
      L1  H     5    44       P1  8028  2.00
      L1  H    10    31       P1  7949  0.96
      L1  H    12    34       P1  7948  1.00
      L1  C    17    39       P1  7921  1.00

> <Gold.PLP.Chemscore.Internal.Correction>
0.0693

> <Gold.Rescore>
     Score         DG    S(hbond)    S(metal)    S(lipo)     H(rot)  DE(clash)    DE(int)     intcor
     19.94     -21.69       2.29        0.00     125.55       2.40       1.21       0.53       ----

> <Gold.Chemscore.Fitness>
19.9444

> <Gold.Chemscore.DG>
-21.6912

> <Gold.Chemscore.ZeroCoef>
-5.4800

> <Gold.Chemscore.Hbond>
2.2944

> <Gold.Chemscore.Metal>
0.0000

> <Gold.Chemscore.Lipo>
125.5517

> <Gold.Chemscore.Internal_Hbond>
0.0000

> <Gold.Chemscore.DEClash>
1.2148

> <Gold.Chemscore.DEInternal>
0.5321

> <Gold.Chemscore.Rot>
2.3990

> <Gold.Chemscore.Internal.Correction>
   9.000000E+99

> <Gold.Chemscore.Hbonds>
donor molecule, donor type, donor heavy atom, donor atom, acceptor molecule, acceptor atom, score
      L1  H     5    44       P1  8028  0.94
      L1  H    10    31       P1  7949  0.26
      L1  H    12    34       P1  7948  0.99

> <Gold.Chemscore.Hbond.Weighted>
-7.6632

> <Gold.Chemscore.Metal.Weighted>
-0.0000

> <Gold.Chemscore.Lipo.Weighted>
-14.6895

> <Gold.Chemscore.Internal_Hbond.Weighted>
0.0000

> <Gold.Chemscore.DEClash.Weighted>
1.2148

> <Gold.Chemscore.DEInternal.Weighted>
0.5321

> <Gold.Chemscore.Rot.Weighted>
6.1415

> <Gold.Chemscore.Internal.Correction.Weighted>
   9.000000E+99

> <Gold.Protein.RotatedTorsions>
[ 6907 6896 6895 6894 ] final -147.49 input  -60.11 | X-H torsion
[ 7974 7965 7964 7962 ] final    0.38 input  175.53 | X-H torsion
[ 8008 7997 7996 7995 ] final   47.25 input   59.86 | X-H torsion
[ 10167 10162 10161 10158 ] final  168.38 input  -65.29 | X-H torsion
[ 10718 10713 10712 10709 ] final  147.04 input   66.30 | X-H torsion
[ 10763 10752 10751 10750 ] final  -55.88 input  -60.55 | X-H torsion
[ 11005 11000 10999 10996 ] final -178.15 input  -57.11 | X-H torsion

> <Gold.Protein.ActiveResidues>
 VAL166  LYS551  ARG553  GLY616  TRP617  ASP618  TYR619  PRO620  LYS621  CYS622 
 ASP623  PHE694  ASN695  SER759  ASP760  ASP761  ALA762  ILE779  LEU786  VAL792 
 PHE793  MET794  SER795  GLU796  ALA797  LYS798  CYS799  TRP800  GLU811  SER814 

> <Gold.Protein.RotatedAtoms>
  151.1563  133.4874  159.2594 H   0  0  0  0  0  0  0  0  0  0  0  0  # atno 6907 bound_to 6896
  151.1500  135.0222  159.8674 H   0  0  0  0  0  0  0  0  0  0  0  0  # atno 6908 bound_to 6896
  152.5463  134.1448  159.8547 H   0  0  0  0  0  0  0  0  0  0  0  0  # atno 6909 bound_to 6896
  146.2434  140.1146  142.8342 H   0  0  0  0  0  0  0  0  0  0  0  0  # atno 7974 bound_to 7965
  155.3659  140.3421  155.4242 H   0  0  0  0  0  0  0  0  0  0  0  0  # atno 8008 bound_to 7997
  156.1688  140.1625  156.8518 H   0  0  0  0  0  0  0  0  0  0  0  0  # atno 8009 bound_to 7997
  154.5212  140.0766  156.8158 H   0  0  0  0  0  0  0  0  0  0  0  0  # atno 8010 bound_to 7997
  139.4966  144.3821  151.9611 H   0  0  0  0  0  0  0  0  0  0  0  0  # atno 10167 bound_to 10162
  157.3258  131.0912  151.1203 H   0  0  0  0  0  0  0  0  0  0  0  0  # atno 10718 bound_to 10713
  154.1978  135.6416  153.5078 H   0  0  0  0  0  0  0  0  0  0  0  0  # atno 10763 bound_to 10752
  153.0019  135.5444  154.6347 H   0  0  0  0  0  0  0  0  0  0  0  0  # atno 10764 bound_to 10752
  154.5752  135.2920  155.0761 H   0  0  0  0  0  0  0  0  0  0  0  0  # atno 10765 bound_to 10752
  140.4330  134.6501  157.4721 H   0  0  0  0  0  0  0  0  0  0  0  0  # atno 11005 bound_to 11000
  145.0458  140.8980  143.5025 LP  0  0  0  0  0  0  0  0  0  0  0  0  # atno 17320 bound_to 7965
  145.1235  139.2678  143.5576 LP  0  0  0  0  0  0  0  0  0  0  0  0  # atno 17321 bound_to 7965
  140.3257  144.3375  150.5999 LP  0  0  0  0  0  0  0  0  0  0  0  0  # atno 17342 bound_to 10162
  140.5686  143.2183  151.7639 LP  0  0  0  0  0  0  0  0  0  0  0  0  # atno 17343 bound_to 10162
  157.2470  130.6596  149.5914 LP  0  0  0  0  0  0  0  0  0  0  0  0  # atno 17370 bound_to 10713
  155.9690  130.4550  150.5872 LP  0  0  0  0  0  0  0  0  0  0  0  0  # atno 17371 bound_to 10713
  140.0121  134.6674  155.9365 LP  0  0  0  0  0  0  0  0  0  0  0  0  # atno 17394 bound_to 11000
  141.1737  133.6539  156.4749 LP  0  0  0  0  0  0  0  0  0  0  0  0  # atno 17395 bound_to 11000

$$$$
