AV-unprocessed.smi:1116|AV-procd|sdf|4808|dock6
  -GOLD-   22720 3353D 1   1.00000     0.00000
 Structure written by MMmdl.
 36 37  0  0  0  0  0  0  0  0  1 V2000
  154.8289  140.2212  163.0409 C   0  0  0  0  0  0  0  0  0  0  0  0
  153.9893  141.2587  162.3774 C   0  0  0  0  0  0  0  0  0  0  0  0
  153.6672  141.2321  161.0815 N   0  0  0  0  0  0  0  0  0  0  0  0
  152.8681  142.3153  160.7025 C   0  0  0  0  0  0  0  0  0  0  0  0
  152.4109  142.4478  159.2813 C   0  0  0  0  0  0  0  0  0  0  0  0
  152.0071  141.0957  158.6694 C   0  0  0  0  0  0  0  0  0  0  0  0
  151.1013  141.2668  157.5389 N   0  0  0  0  0  0  0  0  0  0  0  0
  151.2685  140.7187  156.3257 C   0  0  0  0  0  0  0  0  0  0  0  0
  152.2314  140.0085  156.0349 O   0  0  0  0  0  0  0  0  0  0  0  0
  150.1716  141.0127  155.2968 C   0  0  0  0  0  0  0  0  0  0  0  0
  149.5566  139.7413  154.6788 C   0  0  0  0  0  0  0  0  0  0  0  0
  148.8666  139.9998  153.3252 C   0  0  1  0  0  0  0  0  0  0  0  0
  148.2276  138.8140  152.7799 N   0  0  0  0  0  0  0  0  0  0  0  0
  146.9094  138.9775  152.6032 C   0  0  0  0  0  0  0  0  0  0  0  0
  146.1322  138.1386  152.1541 O   0  0  0  0  0  0  0  0  0  0  0  0
  146.5896  140.2133  153.0018 N   0  0  0  0  0  0  0  0  0  0  0  0
  147.6443  140.8925  153.4490 C   0  0  0  0  0  0  0  0  0  0  0  0
  147.6528  142.0398  153.8907 O   0  0  0  0  0  0  0  0  0  0  0  0
  152.5888  143.1702  161.7397 C   0  0  0  0  0  0  0  0  0  0  0  0
  153.3209  142.6443  163.2307 S   0  0  0  0  0  0  0  0  0  0  0  0
  155.1491  139.4669  162.3215 H   0  0  0  0  0  0  0  0  0  0  0  0
  154.2596  139.7314  163.8311 H   0  0  0  0  0  0  0  0  0  0  0  0
  155.7133  140.6828  163.4800 H   0  0  0  0  0  0  0  0  0  0  0  0
  151.5705  143.1414  159.2295 H   0  0  0  0  0  0  0  0  0  0  0  0
  153.2027  142.8948  158.6792 H   0  0  0  0  0  0  0  0  0  0  0  0
  152.8941  140.5718  158.3126 H   0  0  0  0  0  0  0  0  0  0  0  0
  151.5495  140.4529  159.4236 H   0  0  0  0  0  0  0  0  0  0  0  0
  150.2830  141.8380  157.6928 H   0  0  0  0  0  0  0  0  0  0  0  0
  149.3936  141.5986  155.7874 H   0  0  0  0  0  0  0  0  0  0  0  0
  150.5875  141.6418  154.5086 H   0  0  0  0  0  0  0  0  0  0  0  0
  150.3317  138.9813  154.5624 H   0  0  0  0  0  0  0  0  0  0  0  0
  148.8210  139.3224  155.3677 H   0  0  0  0  0  0  0  0  0  0  0  0
  149.5626  140.4184  152.5971 H   0  0  0  0  0  0  0  0  0  0  0  0
  148.7342  137.9705  152.5533 H   0  0  0  0  0  0  0  0  0  0  0  0
  145.6522  140.5866  152.9752 H   0  0  0  0  0  0  0  0  0  0  0  0
  151.9990  144.0745  161.7173 H   0  0  0  0  0  0  0  0  0  0  0  0
  1  2  1  0  0  0  0
  1 21  1  0  0  0  0
  1 22  1  0  0  0  0
  1 23  1  0  0  0  0
  2 20  1  0  0  0  0
  2  3  2  0  0  0  0
  3  4  1  0  0  0  0
  4  5  1  0  0  0  0
  4 19  2  0  0  0  0
  5  6  1  0  0  0  0
  5 24  1  0  0  0  0
  5 25  1  0  0  0  0
  6  7  1  0  0  0  0
  6 26  1  0  0  0  0
  6 27  1  0  0  0  0
  7  8  1  0  0  0  0
  7 28  1  0  0  0  0
  8  9  2  0  0  0  0
  8 10  1  0  0  0  0
 10 11  1  0  0  0  0
 10 29  1  0  0  0  0
 10 30  1  0  0  0  0
 11 12  1  0  0  0  0
 11 31  1  0  0  0  0
 11 32  1  0  0  0  0
 12 17  1  0  0  0  0
 12 13  1  0  0  0  0
 12 33  1  0  0  0  0
 13 14  1  0  0  0  0
 13 34  1  0  0  0  0
 14 15  2  0  0  0  0
 14 16  1  0  0  0  0
 16 17  1  0  0  0  0
 16 35  1  0  0  0  0
 17 18  2  0  0  0  0
 19 20  1  0  0  0  0
 19 36  1  0  0  0  0
M  END
> <s_m_source_file>
AV-unprocessed.smi

> <i_m_source_file_index>
1116

> <i_lp_mmshare_version>
43012

> <i_f3d_flags>
0

> <s_epik_input>
W0NIM11jMW5jKFtjSF1zMSlbQ0gyXVtDSDJdW05IXUMoPU8pW0NIMl1bQ0gyXVtDQEBIXTJbTkhdQyg9TylbTkhdQzI9Tw==

> <s_epik_cmdline>
J2VwaWtfcHl0aG9uJywgJy1waCcsICc3LjAnLCAnLXRuJywgJzgnLCAnLW1hJywgJzIwMCcsICctbWV0YWxfYmluZGluZycsICctaW1hZScsICc8aW5maWxlLm1hZT4nLCAnLW9tYWUnLCAnPG91dGZpbGUubWFlPic=

> <r_lp_tautomer_probability>
1

> <r_epik_Ionization_Penalty>
0.00889251

> <r_epik_Ionization_Penalty_Charging>
0

> <r_epik_Ionization_Penalty_Neutral>
0.00889251

> <r_epik_State_Penalty>
0.00583796

> <r_epik_Charging_Adjusted_Penalty>
0.00583796

> <i_epik_Tot_Q>
0

> <i_epik_Tot_abs_Q>
0

> <r_epik_Metal_State_Penalty>
0.408839

> <b_epik_Metal_Only>
0

> <s_lp_Force_Field>
OPLS_2005

> <r_lp_Energy>
13.0769

> <b_lp_Chiralities_Consistent>
1

> <s_lp_Variant>
AV-unprocessed.smi:1116-2

> <Gold.Version>
5.8.1

> <Gold.Id.Protein>
6NUR|6NUR_protein|mol2

> <Gold.PLP.Fitness>
48.4231

> <Gold.PLP.PLP>
-40.9773

> <Gold.PLP.part.hbond>
-3.8761

> <Gold.PLP.part.metal>
0.0000

> <Gold.PLP.part.buried>
0.8478

> <Gold.PLP.part.nonpolar>
-37.1226

> <Gold.PLP.part.repulsive>
0.5891

> <Gold.PLP.ligand.clash>
0.0000

> <Gold.PLP.ligand.torsion>
0.5762

> <Gold.PLP.Chemscore.Hbond>
2.8450

> <Gold.PLP.Chemscore.CHOScore>
0.0000

> <Gold.PLP.Chemscore.Metal>
0.0000

> <Gold.Chemscore.Hbonds>
donor molecule, donor type, donor heavy atom, donor atom, acceptor molecule, acceptor atom, score
      L1  H    13    34       P1  7948  1.00
      L1  H    16    35       P1 10175  1.00
      P1  H  7997  8009       L1     9  0.78

> <Gold.PLP.Chemscore.Internal.Correction>
0.0632

> <Gold.Rescore>
     Score         DG    S(hbond)    S(metal)    S(lipo)     H(rot)  DE(clash)    DE(int)     intcor
     15.74     -18.16       2.77        0.00      91.13       2.83       1.89       0.53       ----

> <Gold.Chemscore.Fitness>
15.7378

> <Gold.Chemscore.DG>
-18.1573

> <Gold.Chemscore.ZeroCoef>
-5.4800

> <Gold.Chemscore.Hbond>
2.7743

> <Gold.Chemscore.Metal>
0.0000

> <Gold.Chemscore.Lipo>
91.1300

> <Gold.Chemscore.Internal_Hbond>
0.0000

> <Gold.Chemscore.DEClash>
1.8940

> <Gold.Chemscore.DEInternal>
0.5254

> <Gold.Chemscore.Rot>
2.8324

> <Gold.Chemscore.Internal.Correction>
   9.000000E+99

> <Gold.Chemscore.Hbonds>
donor molecule, donor type, donor heavy atom, donor atom, acceptor molecule, acceptor atom, score
      L1  H    13    34       P1  7948  0.98
      L1  H    16    35       P1 10175  0.67
      P1  H  7997  8009       L1     9  0.77

> <Gold.Chemscore.Hbond.Weighted>
-9.2660

> <Gold.Chemscore.Metal.Weighted>
-0.0000

> <Gold.Chemscore.Lipo.Weighted>
-10.6622

> <Gold.Chemscore.Internal_Hbond.Weighted>
0.0000

> <Gold.Chemscore.DEClash.Weighted>
1.8940

> <Gold.Chemscore.DEInternal.Weighted>
0.5254

> <Gold.Chemscore.Rot.Weighted>
7.2510

> <Gold.Chemscore.Internal.Correction.Weighted>
   9.000000E+99

> <Gold.Protein.RotatedTorsions>
[ 6907 6896 6895 6894 ] final  169.45 input  -60.11 | X-H torsion
[ 7974 7965 7964 7962 ] final   31.91 input  175.53 | X-H torsion
[ 8008 7997 7996 7995 ] final -155.36 input   59.86 | X-H torsion
[ 10167 10162 10161 10158 ] final  129.18 input  -65.29 | X-H torsion
[ 10718 10713 10712 10709 ] final  134.71 input   66.30 | X-H torsion
[ 10763 10752 10751 10750 ] final  129.88 input  -60.55 | X-H torsion
[ 11005 11000 10999 10996 ] final  -65.53 input  -57.11 | X-H torsion

> <Gold.Protein.ActiveResidues>
 VAL166  LYS551  ARG553  GLY616  TRP617  ASP618  TYR619  PRO620  LYS621  CYS622 
 ASP623  PHE694  ASN695  SER759  ASP760  ASP761  ALA762  ILE779  LEU786  VAL792 
 PHE793  MET794  SER795  GLU796  ALA797  LYS798  CYS799  TRP800  GLU811  SER814 

> <Gold.Protein.RotatedAtoms>
  151.8318  133.3409  159.3615 H   0  0  0  0  0  0  0  0  0  0  0  0  # atno 6907 bound_to 6896
  150.7262  134.5476  159.5788 H   0  0  0  0  0  0  0  0  0  0  0  0  # atno 6908 bound_to 6896
  152.2930  134.7700  160.0425 H   0  0  0  0  0  0  0  0  0  0  0  0  # atno 6909 bound_to 6896
  146.1520  139.6594  142.9092 H   0  0  0  0  0  0  0  0  0  0  0  0  # atno 7974 bound_to 7965
  155.7006  140.0766  157.2412 H   0  0  0  0  0  0  0  0  0  0  0  0  # atno 8008 bound_to 7997
  154.4074  140.1648  156.2239 H   0  0  0  0  0  0  0  0  0  0  0  0  # atno 8009 bound_to 7997
  155.9371  140.3387  155.6300 H   0  0  0  0  0  0  0  0  0  0  0  0  # atno 8010 bound_to 7997
  139.5490  144.6797  151.4382 H   0  0  0  0  0  0  0  0  0  0  0  0  # atno 10167 bound_to 10162
  157.4645  131.1076  150.9879 H   0  0  0  0  0  0  0  0  0  0  0  0  # atno 10718 bound_to 10713
  153.7490  135.3213  155.3318 H   0  0  0  0  0  0  0  0  0  0  0  0  # atno 10763 bound_to 10752
  154.8269  135.4563  154.0951 H   0  0  0  0  0  0  0  0  0  0  0  0  # atno 10764 bound_to 10752
  153.2148  135.6940  153.8153 H   0  0  0  0  0  0  0  0  0  0  0  0  # atno 10765 bound_to 10752
  141.1457  133.6683  156.6000 H   0  0  0  0  0  0  0  0  0  0  0  0  # atno 11005 bound_to 11000
  145.4801  141.0438  143.2651 LP  0  0  0  0  0  0  0  0  0  0  0  0  # atno 17320 bound_to 7965
  144.7915  139.6318  143.7111 LP  0  0  0  0  0  0  0  0  0  0  0  0  # atno 17321 bound_to 7965
  140.6747  143.8216  150.7043 LP  0  0  0  0  0  0  0  0  0  0  0  0  # atno 17342 bound_to 10162
  140.1651  143.4242  152.2040 LP  0  0  0  0  0  0  0  0  0  0  0  0  # atno 17343 bound_to 10162
  157.0665  130.5847  149.5395 LP  0  0  0  0  0  0  0  0  0  0  0  0  # atno 17370 bound_to 10713
  156.0044  130.5128  150.7777 LP  0  0  0  0  0  0  0  0  0  0  0  0  # atno 17371 bound_to 10713
  140.3696  134.7617  157.4589 LP  0  0  0  0  0  0  0  0  0  0  0  0  # atno 17394 bound_to 11000
  140.0721  134.5848  155.8631 LP  0  0  0  0  0  0  0  0  0  0  0  0  # atno 17395 bound_to 11000

$$$$
