AV-unprocessed.smi:2021|AV-procd|sdf|8183|dock3
  -GOLD-   2272010433D 1   1.00000     0.00000
 Structure written by MMmdl.
 41 42  0  0  0  0  0  0  0  0  3 V2000
  152.6443  143.1075  159.0070 C   0  0  0  0  0  0  0  0  0  0  0  0
  151.5196  143.5862  158.0736 C   0  0  0  0  0  0  0  0  0  0  0  0
  151.1704  145.0533  158.3645 C   0  0  0  0  0  0  0  0  0  0  0  0
  150.2622  142.6977  158.1859 C   0  0  0  0  0  0  0  0  0  0  0  0
  149.8146  142.1582  156.8731 N   0  3  1  0  0  0  0  0  0  0  0  0
  150.9290  141.8644  155.9398 C   0  0  0  0  0  0  0  0  0  0  0  0
  151.6224  140.5400  156.3036 C   0  0  0  0  0  0  0  0  0  0  0  0
  150.6610  139.4930  156.3020 O   0  0  0  0  0  0  0  0  0  0  0  0
  149.6395  139.6864  157.2762 C   0  0  2  0  0  0  0  0  0  0  0  0
  148.7026  138.4717  157.2410 C   0  0  0  0  0  0  0  0  0  0  0  0
  148.1669  138.2003  158.5678 N   0  0  0  0  0  0  0  0  0  0  0  0
  148.6079  137.2464  159.3966 C   0  0  0  0  0  0  0  0  0  0  0  0
  149.5370  136.5136  159.0499 O   0  0  0  0  0  0  0  0  0  0  0  0
  147.9442  137.2017  160.5735 N   0  5  0  0  0  0  0  0  0  0  0  0
  147.6499  136.0171  161.1347 C   0  0  0  0  0  0  0  0  0  0  0  0
  147.4871  134.8996  160.4082 N   0  0  0  0  0  0  0  0  0  0  0  0
  147.1935  133.7841  161.1810 N   0  0  0  0  0  0  0  0  0  0  0  0
  147.1489  134.0892  162.4775 C   0  0  0  0  0  0  0  0  0  0  0  0
  147.4663  135.7652  162.8730 S   0  0  0  0  0  0  0  0  0  0  0  0
  148.8887  140.9989  156.9576 C   0  0  0  0  0  0  0  0  0  0  0  0
  152.3288  143.1268  160.0507 H   0  0  0  0  0  0  0  0  0  0  0  0
  153.5259  143.7427  158.9158 H   0  0  0  0  0  0  0  0  0  0  0  0
  152.9542  142.0892  158.7715 H   0  0  0  0  0  0  0  0  0  0  0  0
  151.8951  143.5502  157.0515 H   0  0  0  0  0  0  0  0  0  0  0  0
  150.7850  145.1768  159.3773 H   0  0  0  0  0  0  0  0  0  0  0  0
  150.4123  145.4220  157.6728 H   0  0  0  0  0  0  0  0  0  0  0  0
  152.0464  145.6945  158.2618 H   0  0  0  0  0  0  0  0  0  0  0  0
  150.4932  141.8703  158.8585 H   0  0  0  0  0  0  0  0  0  0  0  0
  149.4493  143.2470  158.6608 H   0  0  0  0  0  0  0  0  0  0  0  0
  150.5207  141.7904  154.9310 H   0  0  0  0  0  0  0  0  0  0  0  0
  151.6446  142.6868  155.9194 H   0  0  0  0  0  0  0  0  0  0  0  0
  152.3944  140.3081  155.5697 H   0  0  0  0  0  0  0  0  0  0  0  0
  152.1161  140.6021  157.2745 H   0  0  0  0  0  0  0  0  0  0  0  0
  150.0909  139.7441  158.2679 H   0  0  0  0  0  0  0  0  0  0  0  0
  147.8730  138.6615  156.5581 H   0  0  0  0  0  0  0  0  0  0  0  0
  149.2324  137.5927  156.8704 H   0  0  0  0  0  0  0  0  0  0  0  0
  147.4085  138.7838  158.8889 H   0  0  0  0  0  0  0  0  0  0  0  0
  146.9315  133.3220  163.2055 H   0  0  0  0  0  0  0  0  0  0  0  0
  148.1024  141.1780  157.6897 H   0  0  0  0  0  0  0  0  0  0  0  0
  148.3867  140.9011  155.9941 H   0  0  0  0  0  0  0  0  0  0  0  0
  149.2939  142.9118  156.4475 H   0  0  0  0  0  0  0  0  0  0  0  0
  1  2  1  0  0  0  0
  1 21  1  0  0  0  0
  1 22  1  0  0  0  0
  1 23  1  0  0  0  0
  2  3  1  0  0  0  0
  2  4  1  0  0  0  0
  2 24  1  0  0  0  0
  3 25  1  0  0  0  0
  3 26  1  0  0  0  0
  3 27  1  0  0  0  0
  4  5  1  0  0  0  0
  4 28  1  0  0  0  0
  4 29  1  0  0  0  0
  5 20  1  0  0  0  0
  5  6  1  0  0  0  0
  5 41  1  0  0  0  0
  6  7  1  0  0  0  0
  6 30  1  0  0  0  0
  6 31  1  0  0  0  0
  7  8  1  0  0  0  0
  7 32  1  0  0  0  0
  7 33  1  0  0  0  0
  8  9  1  0  0  0  0
  9 10  1  0  0  0  0
  9 20  1  0  0  0  0
  9 34  1  0  0  0  0
 10 11  1  0  0  0  0
 10 35  1  0  0  0  0
 10 36  1  0  0  0  0
 11 12  1  0  0  0  0
 11 37  1  0  0  0  0
 12 13  2  0  0  0  0
 12 14  1  0  0  0  0
 14 15  1  0  0  0  0
 15 19  1  0  0  0  0
 15 16  2  0  0  0  0
 16 17  1  0  0  0  0
 17 18  2  0  0  0  0
 18 19  1  0  0  0  0
 18 38  1  0  0  0  0
 20 39  1  0  0  0  0
 20 40  1  0  0  0  0
M  CHG  1   5   1
M  CHG  1  14  -1
M  END
> <s_m_source_file>
AV-unprocessed.smi

> <i_m_source_file_index>
2021

> <i_lp_mmshare_version>
43012

> <i_f3d_flags>
0

> <s_epik_input>
W0NIM11bQ0hdKFtDSDNdKVtDSDJdTjFbQ0gyXVtDSDJdT1tDQEhdKFtDSDJdMSlbQ0gyXVtOSF1DKD1PKVtOSF1jMm5uW2NIXXMy

> <s_epik_cmdline>
J2VwaWtfcHl0aG9uJywgJy1waCcsICc3LjAnLCAnLXRuJywgJzgnLCAnLW1hJywgJzIwMCcsICctbWV0YWxfYmluZGluZycsICctaW1hZScsICc8aW5maWxlLm1hZT4nLCAnLW9tYWUnLCAnPG91dGZpbGUubWFlPic=

> <r_lp_tautomer_probability>
1

> <r_epik_Ionization_Penalty>
3.15762

> <r_epik_Ionization_Penalty_Charging>
3.12229

> <r_epik_Ionization_Penalty_Neutral>
0.0353298

> <r_epik_State_Penalty>
3.11266

> <r_epik_Charging_Adjusted_Penalty>
6.23495

> <i_epik_Tot_Q>
0

> <i_epik_Tot_abs_Q>
2

> <r_epik_Metal_State_Penalty>
0.541462

> <b_epik_Metal_Only>
1

> <s_lp_Force_Field>
OPLS_2005

> <r_lp_Energy>
12.7344

> <b_lp_Chiralities_Consistent>
1

> <s_lp_Variant>
AV-unprocessed.smi:2021-9

> <Gold.Version>
5.8.1

> <Gold.Id.Protein>
6NUR|6NUR_protein|mol2

> <Gold.PLP.Fitness>
49.9710

> <Gold.PLP.PLP>
-36.3639

> <Gold.PLP.part.hbond>
-3.4576

> <Gold.PLP.part.metal>
0.0000

> <Gold.PLP.part.buried>
-5.9195

> <Gold.PLP.part.nonpolar>
-27.3906

> <Gold.PLP.part.repulsive>
0.4444

> <Gold.PLP.ligand.clash>
0.0000

> <Gold.PLP.ligand.torsion>
1.9593

> <Gold.PLP.Chemscore.Hbond>
5.7193

> <Gold.PLP.Chemscore.CHOScore>
0.0000

> <Gold.PLP.Chemscore.Metal>
0.0000

> <Gold.Chemscore.Hbonds>
donor molecule, donor type, donor heavy atom, donor atom, acceptor molecule, acceptor atom, score
      L1  H     5    41       P1  8028  2.00
      P1  H  6896  6907       L1    13  0.54
      P1  H  6931  6943       L1    14  1.57
      P1  H  6934  6947       L1    14  1.57

> <Gold.PLP.Chemscore.Internal.Correction>
0.3681

> <Gold.Rescore>
     Score         DG    S(hbond)    S(metal)    S(lipo)     H(rot)  DE(clash)    DE(int)     intcor
     16.45     -18.53       2.50        0.00      80.69       1.85       0.06       2.02       ----

> <Gold.Chemscore.Fitness>
16.4524

> <Gold.Chemscore.DG>
-18.5342

> <Gold.Chemscore.ZeroCoef>
-5.4800

> <Gold.Chemscore.Hbond>
2.4971

> <Gold.Chemscore.Metal>
0.0000

> <Gold.Chemscore.Lipo>
80.6926

> <Gold.Chemscore.Internal_Hbond>
0.0000

> <Gold.Chemscore.DEClash>
0.0569

> <Gold.Chemscore.DEInternal>
2.0250

> <Gold.Chemscore.Rot>
1.8466

> <Gold.Chemscore.Internal.Correction>
   9.000000E+99

> <Gold.Chemscore.Hbonds>
donor molecule, donor type, donor heavy atom, donor atom, acceptor molecule, acceptor atom, score
      L1  H     5    41       P1  8028  0.95
      P1  H  6896  6907       L1    13  0.54
      P1  H  6931  6943       L1    14  0.27
      P1  H  6934  6947       L1    14  0.49

> <Gold.Chemscore.Hbond.Weighted>
-8.3404

> <Gold.Chemscore.Metal.Weighted>
-0.0000

> <Gold.Chemscore.Lipo.Weighted>
-9.4410

> <Gold.Chemscore.Internal_Hbond.Weighted>
0.0000

> <Gold.Chemscore.DEClash.Weighted>
0.0569

> <Gold.Chemscore.DEInternal.Weighted>
2.0250

> <Gold.Chemscore.Rot.Weighted>
4.7272

> <Gold.Chemscore.Internal.Correction.Weighted>
   9.000000E+99

> <Gold.Protein.RotatedTorsions>
[ 6907 6896 6895 6894 ] final  -58.59 input  -60.11 | X-H torsion
[ 7974 7965 7964 7962 ] final -121.15 input  175.53 | X-H torsion
[ 8008 7997 7996 7995 ] final  -13.07 input   59.86 | X-H torsion
[ 10167 10162 10161 10158 ] final   14.48 input  -65.29 | X-H torsion
[ 10718 10713 10712 10709 ] final  115.97 input   66.30 | X-H torsion
[ 10763 10752 10751 10750 ] final  -68.67 input  -60.55 | X-H torsion
[ 11005 11000 10999 10996 ] final -105.47 input  -57.11 | X-H torsion

> <Gold.Protein.ActiveResidues>
 VAL166  LYS551  ARG553  GLY616  TRP617  ASP618  TYR619  PRO620  LYS621  CYS622 
 ASP623  PHE694  ASN695  SER759  ASP760  ASP761  ALA762  ILE779  LEU786  VAL792 
 PHE793  MET794  SER795  GLU796  ALA797  LYS798  CYS799  TRP800  GLU811  SER814 

> <Gold.Protein.RotatedAtoms>
  150.7995  134.7078  159.6586 H   0  0  0  0  0  0  0  0  0  0  0  0  # atno 6907 bound_to 6896
  152.4110  134.6120  160.0038 H   0  0  0  0  0  0  0  0  0  0  0  0  # atno 6908 bound_to 6896
  151.6363  133.3292  159.3156 H   0  0  0  0  0  0  0  0  0  0  0  0  # atno 6909 bound_to 6896
  145.0435  140.8163  143.4252 H   0  0  0  0  0  0  0  0  0  0  0  0  # atno 7974 bound_to 7965
  154.5323  140.2259  155.8783 H   0  0  0  0  0  0  0  0  0  0  0  0  # atno 8008 bound_to 7997
  156.1776  140.3107  155.9052 H   0  0  0  0  0  0  0  0  0  0  0  0  # atno 8009 bound_to 7997
  155.3426  140.0451  157.3036 H   0  0  0  0  0  0  0  0  0  0  0  0  # atno 8010 bound_to 7997
  140.5933  143.8752  150.6894 H   0  0  0  0  0  0  0  0  0  0  0  0  # atno 10167 bound_to 10162
  157.6189  131.1019  150.7405 H   0  0  0  0  0  0  0  0  0  0  0  0  # atno 10718 bound_to 10713
  154.3924  135.6050  153.5850 H   0  0  0  0  0  0  0  0  0  0  0  0  # atno 10763 bound_to 10752
  152.9787  135.5887  154.4282 H   0  0  0  0  0  0  0  0  0  0  0  0  # atno 10764 bound_to 10752
  154.4068  135.2843  155.2040 H   0  0  0  0  0  0  0  0  0  0  0  0  # atno 10765 bound_to 10752
  141.1052  133.8810  157.1738 H   0  0  0  0  0  0  0  0  0  0  0  0  # atno 11005 bound_to 11000
  145.1618  139.2454  143.5388 LP  0  0  0  0  0  0  0  0  0  0  0  0  # atno 17320 bound_to 7965
  146.3511  140.1347  142.8596 LP  0  0  0  0  0  0  0  0  0  0  0  0  # atno 17321 bound_to 7965
  140.2280  143.3757  152.1589 LP  0  0  0  0  0  0  0  0  0  0  0  0  # atno 17342 bound_to 10162
  139.5241  144.7080  151.5294 LP  0  0  0  0  0  0  0  0  0  0  0  0  # atno 17343 bound_to 10162
  156.7767  130.4846  149.5408 LP  0  0  0  0  0  0  0  0  0  0  0  0  # atno 17370 bound_to 10713
  156.1325  130.6188  151.0354 LP  0  0  0  0  0  0  0  0  0  0  0  0  # atno 17371 bound_to 10713
  139.9919  135.0061  156.9994 LP  0  0  0  0  0  0  0  0  0  0  0  0  # atno 17394 bound_to 11000
  140.4921  134.1182  155.7234 LP  0  0  0  0  0  0  0  0  0  0  0  0  # atno 17395 bound_to 11000

$$$$
