AV-unprocessed.smi:102|AV-procd|sdf|953|dock5
  -GOLD-   2262017483D 1   1.00000     0.00000
 Structure written by MMmdl.
 44 45  0  0  0  0  0  0  0  0  1 V2000
  146.7873  135.0532  161.6931 C   0  0  0  0  0  0  0  0  0  0  0  0
  147.8814  136.0862  161.4542 C   0  0  0  0  0  0  0  0  0  0  0  0
  148.2278  136.8687  162.3392 O   0  0  0  0  0  0  0  0  0  0  0  0
  148.3865  136.0267  160.2122 O   0  0  0  0  0  0  0  0  0  0  0  0
  149.5136  136.8195  159.8775 C   0  0  0  0  0  0  0  0  0  0  0  0
  149.8295  136.6592  158.3840 C   0  0  2  0  0  0  0  0  0  0  0  0
  149.6384  135.3096  157.9660 O   0  0  0  0  0  0  0  0  0  0  0  0
  150.5329  134.9773  156.9457 C   0  0  1  0  0  0  0  0  0  0  0  0
  149.7652  134.5482  155.7048 N   0  0  0  0  0  0  0  0  0  0  0  0
  149.8157  133.2205  155.2992 C   0  0  0  0  0  0  0  0  0  0  0  0
  149.1488  132.7470  154.2203 C   0  0  0  0  0  0  0  0  0  0  0  0
  149.2570  131.4490  153.8901 F   0  0  0  0  0  0  0  0  0  0  0  0
  148.3130  133.6316  153.4154 C   0  0  0  0  0  0  0  0  0  0  0  0
  147.6750  133.2988  152.4187 O   0  0  0  0  0  0  0  0  0  0  0  0
  148.2738  134.9530  153.8667 N   0  0  0  0  0  0  0  0  0  0  0  0
  148.9540  135.4533  154.9785 C   0  0  0  0  0  0  0  0  0  0  0  0
  148.8340  136.6388  155.2754 O   0  0  0  0  0  0  0  0  0  0  0  0
  151.5312  136.1451  156.7629 C   0  0  1  0  0  0  0  0  0  0  0  0
  151.3416  136.9055  155.5739 O   0  0  0  0  0  0  0  0  0  0  0  0
  152.1968  137.8930  155.2501 C   0  0  0  0  0  0  0  0  0  0  0  0
  151.5287  138.9934  154.4375 C   0  0  0  0  0  0  0  0  0  0  0  0
  153.3932  137.9398  155.5356 O   0  0  0  0  0  0  0  0  0  0  0  0
  151.2685  137.0090  157.9883 C   0  0  2  0  0  0  0  0  0  0  0  0
  152.1892  136.6814  159.0252 O   0  0  0  0  0  0  0  0  0  0  0  0
  153.4451  137.1624  158.9961 C   0  0  0  0  0  0  0  0  0  0  0  0
  154.2862  136.6605  160.1623 C   0  0  0  0  0  0  0  0  0  0  0  0
  153.9119  137.9180  158.1438 O   0  0  0  0  0  0  0  0  0  0  0  0
  147.7025  135.6015  153.3446 H   0  0  0  0  0  0  0  0  0  0  0  0
  146.6264  134.4409  160.8054 H   0  0  0  0  0  0  0  0  0  0  0  0
  145.8498  135.5495  161.9440 H   0  0  0  0  0  0  0  0  0  0  0  0
  147.0624  134.3971  162.5191 H   0  0  0  0  0  0  0  0  0  0  0  0
  149.2844  137.8636  160.0953 H   0  0  0  0  0  0  0  0  0  0  0  0
  150.3751  136.5372  160.4845 H   0  0  0  0  0  0  0  0  0  0  0  0
  149.1632  137.3041  157.8126 H   0  0  0  0  0  0  0  0  0  0  0  0
  151.0528  134.0826  157.2893 H   0  0  0  0  0  0  0  0  0  0  0  0
  150.4211  132.5194  155.8554 H   0  0  0  0  0  0  0  0  0  0  0  0
  152.5471  135.7474  156.7921 H   0  0  0  0  0  0  0  0  0  0  0  0
  150.9473  138.5628  153.6218 H   0  0  0  0  0  0  0  0  0  0  0  0
  152.2763  139.6632  154.0123 H   0  0  0  0  0  0  0  0  0  0  0  0
  150.8606  139.5773  155.0705 H   0  0  0  0  0  0  0  0  0  0  0  0
  151.3439  138.0736  157.7594 H   0  0  0  0  0  0  0  0  0  0  0  0
  153.7686  136.8330  161.1059 H   0  0  0  0  0  0  0  0  0  0  0  0
  155.2442  137.1801  160.1947 H   0  0  0  0  0  0  0  0  0  0  0  0
  154.4757  135.5920  160.0598 H   0  0  0  0  0  0  0  0  0  0  0  0
  1  2  1  0  0  0  0
  1 29  1  0  0  0  0
  1 30  1  0  0  0  0
  1 31  1  0  0  0  0
  2  3  2  0  0  0  0
  2  4  1  0  0  0  0
  4  5  1  0  0  0  0
  5  6  1  0  0  0  0
  5 32  1  0  0  0  0
  5 33  1  0  0  0  0
  6 23  1  0  0  0  0
  6  7  1  0  0  0  0
  6 34  1  0  0  0  0
  7  8  1  0  0  0  0
  8  9  1  0  0  0  0
  8 18  1  0  0  0  0
  8 35  1  0  0  0  0
  9 16  1  0  0  0  0
  9 10  1  0  0  0  0
 10 11  2  0  0  0  0
 10 36  1  0  0  0  0
 11 12  1  0  0  0  0
 11 13  1  0  0  0  0
 13 14  2  0  0  0  0
 13 15  1  0  0  0  0
 15 28  1  0  0  0  0
 15 16  1  0  0  0  0
 16 17  2  0  0  0  0
 18 19  1  0  0  0  0
 18 23  1  0  0  0  0
 18 37  1  0  0  0  0
 19 20  1  0  0  0  0
 20 21  1  0  0  0  0
 20 22  2  0  0  0  0
 21 38  1  0  0  0  0
 21 39  1  0  0  0  0
 21 40  1  0  0  0  0
 23 24  1  0  0  0  0
 23 41  1  0  0  0  0
 24 25  1  0  0  0  0
 25 26  1  0  0  0  0
 25 27  2  0  0  0  0
 26 42  1  0  0  0  0
 26 43  1  0  0  0  0
 26 44  1  0  0  0  0
M  END
> <s_m_source_file>
AV-unprocessed.smi

> <i_m_source_file_index>
102

> <i_lp_mmshare_version>
43012

> <i_f3d_flags>
0

> <s_epik_input>
W0NIM11DKD1PKU9bQ0gyXVtDQEBIXTFPW0NASF0oW0NAQEhdKE9DKD1PKVtDSDNdKVtDQEhdMU9DKD1PKVtDSDNdKW4yW2NIXWMoRiljKD1PKVtuSF1jMj1P

> <s_epik_cmdline>
J2VwaWtfcHl0aG9uJywgJy1waCcsICc3LjAnLCAnLXRuJywgJzgnLCAnLW1hJywgJzIwMCcsICctbWV0YWxfYmluZGluZycsICctaW1hZScsICc8aW5maWxlLm1hZT4nLCAnLW9tYWUnLCAnPG91dGZpbGUubWFlPic=

> <r_lp_tautomer_probability>
0.999537

> <r_epik_Ionization_Penalty>
0.058267

> <r_epik_Ionization_Penalty_Charging>
0.058267

> <r_epik_Ionization_Penalty_Neutral>
6.57791e-16

> <r_epik_State_Penalty>
0.0503774

> <r_epik_Charging_Adjusted_Penalty>
0.108644

> <i_epik_Tot_Q>
0

> <i_epik_Tot_abs_Q>
0

> <r_epik_Metal_State_Penalty>
2.6644

> <b_epik_Metal_Only>
0

> <s_epik_Chemistry_Notes>
This compound has an ester and may undergo hydrolysis at high or low pH. This compound contains an acetal/aminal-like group ( X-CH(R)-Y where X, Y are N, S, or O) that may be acid/base labile, releasing an aldehyde.

> <s_lp_Force_Field>
OPLS_2005

> <r_lp_Energy>
10.5548

> <b_lp_Chiralities_Consistent>
1

> <s_lp_Variant>
AV-unprocessed.smi:102-9

> <Gold.Version>
5.8.1

> <Gold.Id.Protein>
6NUR|6NUR_protein|mol2

> <Gold.PLP.Fitness>
45.7404

> <Gold.PLP.PLP>
-38.2951

> <Gold.PLP.part.hbond>
-4.3069

> <Gold.PLP.part.metal>
0.0000

> <Gold.PLP.part.buried>
-6.3184

> <Gold.PLP.part.nonpolar>
-26.8763

> <Gold.PLP.part.repulsive>
0.3834

> <Gold.PLP.ligand.clash>
0.0000

> <Gold.PLP.ligand.torsion>
0.8766

> <Gold.PLP.Chemscore.Hbond>
3.0000

> <Gold.PLP.Chemscore.CHOScore>
0.0000

> <Gold.PLP.Chemscore.Metal>
0.0000

> <Gold.Chemscore.Hbonds>
donor molecule, donor type, donor heavy atom, donor atom, acceptor molecule, acceptor atom, score
      L1  H    15    28       P1  7948  0.05
      P1  H  6896  6909       L1     7  0.57
      P1  H  6931  6943       L1     3  1.00

> <Gold.PLP.Chemscore.Internal.Correction>
0.1985

> <Gold.Rescore>
     Score         DG    S(hbond)    S(metal)    S(lipo)     H(rot)  DE(clash)    DE(int)     intcor
      2.73      -8.26       2.24        0.00      48.46       4.05       0.18       5.35       ----

> <Gold.Chemscore.Fitness>
2.7303

> <Gold.Chemscore.DG>
-8.2562

> <Gold.Chemscore.ZeroCoef>
-5.4800

> <Gold.Chemscore.Hbond>
2.2394

> <Gold.Chemscore.Metal>
0.0000

> <Gold.Chemscore.Lipo>
48.4595

> <Gold.Chemscore.Internal_Hbond>
0.0000

> <Gold.Chemscore.DEClash>
0.1774

> <Gold.Chemscore.DEInternal>
5.3484

> <Gold.Chemscore.Rot>
4.0520

> <Gold.Chemscore.Internal.Correction>
   9.000000E+99

> <Gold.Chemscore.Hbonds>
donor molecule, donor type, donor heavy atom, donor atom, acceptor molecule, acceptor atom, score
      L1  H    15    28       P1  7948  0.08
      P1  H  6896  6909       L1     7  0.01
      P1  H  6931  6943       L1     3  0.97

> <Gold.Chemscore.Hbond.Weighted>
-7.4796

> <Gold.Chemscore.Metal.Weighted>
-0.0000

> <Gold.Chemscore.Lipo.Weighted>
-5.6698

> <Gold.Chemscore.Internal_Hbond.Weighted>
0.0000

> <Gold.Chemscore.DEClash.Weighted>
0.1774

> <Gold.Chemscore.DEInternal.Weighted>
5.3484

> <Gold.Chemscore.Rot.Weighted>
10.3732

> <Gold.Chemscore.Internal.Correction.Weighted>
   9.000000E+99

> <Gold.Protein.RotatedTorsions>
[ 6907 6896 6895 6894 ] final   51.41 input  -60.11 | X-H torsion
[ 7974 7965 7964 7962 ] final  -59.18 input  175.53 | X-H torsion
[ 8008 7997 7996 7995 ] final  -73.42 input   59.86 | X-H torsion
[ 10167 10162 10161 10158 ] final   42.04 input  -65.29 | X-H torsion
[ 10718 10713 10712 10709 ] final   66.00 input   66.30 | X-H torsion
[ 10763 10752 10751 10750 ] final  141.46 input  -60.55 | X-H torsion
[ 11005 11000 10999 10996 ] final   61.63 input  -57.11 | X-H torsion

> <Gold.Protein.ActiveResidues>
 VAL166  LYS551  ARG553  GLY616  TRP617  ASP618  TYR619  PRO620  LYS621  CYS622 
 ASP623  PHE694  ASN695  SER759  ASP760  ASP761  ALA762  ILE779  LEU786  VAL792 
 PHE793  MET794  SER795  GLU796  ALA797  LYS798  CYS799  TRP800  GLU811  SER814 

> <Gold.Protein.RotatedAtoms>
  152.3123  134.7482  160.0333 H   0  0  0  0  0  0  0  0  0  0  0  0  # atno 6907 bound_to 6896
  151.7959  133.3359  159.3520 H   0  0  0  0  0  0  0  0  0  0  0  0  # atno 6908 bound_to 6896
  150.7326  134.5730  159.5944 H   0  0  0  0  0  0  0  0  0  0  0  0  # atno 6909 bound_to 6896
  145.8305  140.8482  143.0086 H   0  0  0  0  0  0  0  0  0  0  0  0  # atno 7974 bound_to 7965
  154.5246  140.0779  156.8234 H   0  0  0  0  0  0  0  0  0  0  0  0  # atno 8008 bound_to 7997
  155.3503  140.3412  155.4221 H   0  0  0  0  0  0  0  0  0  0  0  0  # atno 8009 bound_to 7997
  156.1718  140.1622  156.8421 H   0  0  0  0  0  0  0  0  0  0  0  0  # atno 8010 bound_to 7997
  140.3583  144.2261  150.6140 H   0  0  0  0  0  0  0  0  0  0  0  0  # atno 10167 bound_to 10162
  157.6142  130.9244  150.0051 H   0  0  0  0  0  0  0  0  0  0  0  0  # atno 10718 bound_to 10713
  153.9396  135.2981  155.3443 H   0  0  0  0  0  0  0  0  0  0  0  0  # atno 10763 bound_to 10752
  154.7484  135.4992  153.9248 H   0  0  0  0  0  0  0  0  0  0  0  0  # atno 10764 bound_to 10752
  153.1049  135.6744  153.9710 H   0  0  0  0  0  0  0  0  0  0  0  0  # atno 10765 bound_to 10752
  140.0148  134.6242  155.9727 H   0  0  0  0  0  0  0  0  0  0  0  0  # atno 11005 bound_to 11000
  144.6740  140.0666  143.7474 LP  0  0  0  0  0  0  0  0  0  0  0  0  # atno 17320 bound_to 7965
  145.9576  139.2777  143.1175 LP  0  0  0  0  0  0  0  0  0  0  0  0  # atno 17321 bound_to 7965
  140.5152  143.2280  151.8474 LP  0  0  0  0  0  0  0  0  0  0  0  0  # atno 17342 bound_to 10162
  139.4817  144.4903  151.9194 LP  0  0  0  0  0  0  0  0  0  0  0  0  # atno 17343 bound_to 10162
  156.1257  130.3644  149.9814 LP  0  0  0  0  0  0  0  0  0  0  0  0  # atno 17370 bound_to 10713
  156.7885  130.9247  151.3646 LP  0  0  0  0  0  0  0  0  0  0  0  0  # atno 17371 bound_to 10713
  141.1735  133.6538  156.4740 LP  0  0  0  0  0  0  0  0  0  0  0  0  # atno 17394 bound_to 11000
  140.4491  134.6945  157.5030 LP  0  0  0  0  0  0  0  0  0  0  0  0  # atno 17395 bound_to 11000

$$$$
