AV-unprocessed.smi:2473|AV-procd|sdf|9744|dock4
  -GOLD-   2272013383D 1   1.00000     0.00000
 Structure written by MMmdl.
 48 49  0  0  0  0  0  0  0  0  2 V2000
  153.8838  141.4200  160.4407 C   0  0  0  0  0  0  0  0  0  0  0  0
  153.0587  142.2468  159.4442 C   0  0  1  0  0  0  0  0  0  0  0  0
  152.1564  141.3447  158.5851 C   0  0  0  0  0  0  0  0  0  0  0  0
  151.3291  142.1661  157.5780 C   0  0  1  0  0  0  0  0  0  0  0  0
  150.4394  141.2398  156.7389 C   0  0  0  0  0  0  0  0  0  0  0  0
  150.3596  140.0402  157.0046 O   0  0  0  0  0  0  0  0  0  0  0  0
  149.7929  141.8063  155.7090 N   0  0  0  0  0  0  0  0  0  0  0  0
  148.9570  141.0935  154.7480 C   0  0  0  0  0  0  0  0  0  0  0  0
  147.9262  142.0080  154.0549 C   0  0  0  0  0  0  0  0  0  0  0  0
  146.7181  142.3125  154.8932 C   0  0  0  0  0  0  0  0  0  0  0  0
  146.4649  141.7856  156.0973 N   0  3  0  0  0  0  0  0  0  0  0  0
  145.2911  142.2780  156.5981 C   0  0  0  0  0  0  0  0  0  0  0  0
  144.8020  143.1440  155.6560 C   0  0  0  0  0  0  0  0  0  0  0  0
  145.6971  143.1431  154.6172 N   0  0  0  0  0  0  0  0  0  0  0  0
  145.5845  143.9156  153.3781 C   0  0  0  0  0  0  0  0  0  0  0  0
  150.4915  143.2350  158.3160 C   0  0  0  0  0  0  0  0  0  0  0  0
  151.3386  144.1710  159.2138 C   0  0  0  0  0  0  0  0  0  0  0  0
  152.2073  145.1211  158.3605 C   0  0  0  0  0  0  0  0  0  0  0  0
  150.3875  145.0398  160.0603 C   0  0  0  0  0  0  0  0  0  0  0  0
  152.2163  143.3194  160.1657 C   0  0  0  0  0  0  0  0  0  0  0  0
  153.2415  140.8808  161.1376 H   0  0  0  0  0  0  0  0  0  0  0  0
  154.5472  142.0579  161.0253 H   0  0  0  0  0  0  0  0  0  0  0  0
  154.5040  140.6868  159.9243 H   0  0  0  0  0  0  0  0  0  0  0  0
  153.7667  142.7468  158.7831 H   0  0  0  0  0  0  0  0  0  0  0  0
  152.7706  140.6168  158.0525 H   0  0  0  0  0  0  0  0  0  0  0  0
  151.4924  140.7710  159.2344 H   0  0  0  0  0  0  0  0  0  0  0  0
  152.0173  142.6703  156.8986 H   0  0  0  0  0  0  0  0  0  0  0  0
  149.9061  142.8000  155.5693 H   0  0  0  0  0  0  0  0  0  0  0  0
  149.5784  140.5885  154.0068 H   0  0  0  0  0  0  0  0  0  0  0  0
  148.4340  140.3095  155.2963 H   0  0  0  0  0  0  0  0  0  0  0  0
  148.3866  142.9526  153.7675 H   0  0  0  0  0  0  0  0  0  0  0  0
  147.5634  141.5446  153.1371 H   0  0  0  0  0  0  0  0  0  0  0  0
  144.9017  141.9825  157.5614 H   0  0  0  0  0  0  0  0  0  0  0  0
  143.9033  143.7439  155.6474 H   0  0  0  0  0  0  0  0  0  0  0  0
  144.7061  144.5595  153.4272 H   0  0  0  0  0  0  0  0  0  0  0  0
  145.4838  143.2313  152.5354 H   0  0  0  0  0  0  0  0  0  0  0  0
  146.4723  144.5330  153.2490 H   0  0  0  0  0  0  0  0  0  0  0  0
  149.9276  143.8274  157.5936 H   0  0  0  0  0  0  0  0  0  0  0  0
  149.7459  142.7353  158.9372 H   0  0  0  0  0  0  0  0  0  0  0  0
  152.7829  145.8000  158.9906 H   0  0  0  0  0  0  0  0  0  0  0  0
  151.5900  145.7337  157.7023 H   0  0  0  0  0  0  0  0  0  0  0  0
  152.9190  144.5901  157.7301 H   0  0  0  0  0  0  0  0  0  0  0  0
  150.9411  145.7160  160.7129 H   0  0  0  0  0  0  0  0  0  0  0  0
  149.7441  144.4288  160.6945 H   0  0  0  0  0  0  0  0  0  0  0  0
  149.7394  145.6495  159.4299 H   0  0  0  0  0  0  0  0  0  0  0  0
  151.5739  142.8200  160.8928 H   0  0  0  0  0  0  0  0  0  0  0  0
  152.8707  143.9713  160.7463 H   0  0  0  0  0  0  0  0  0  0  0  0
  147.0608  141.1170  156.5690 H   0  0  0  0  0  0  0  0  0  0  0  0
  1  2  1  0  0  0  0
  1 21  1  0  0  0  0
  1 22  1  0  0  0  0
  1 23  1  0  0  0  0
  2 20  1  0  0  0  0
  2  3  1  0  0  0  0
  2 24  1  0  0  0  0
  3  4  1  0  0  0  0
  3 25  1  0  0  0  0
  3 26  1  0  0  0  0
  4  5  1  0  0  0  0
  4 16  1  0  0  0  0
  4 27  1  0  0  0  0
  5  6  2  0  0  0  0
  5  7  1  0  0  0  0
  7  8  1  0  0  0  0
  7 28  1  0  0  0  0
  8  9  1  0  0  0  0
  8 29  1  0  0  0  0
  8 30  1  0  0  0  0
  9 10  1  0  0  0  0
  9 31  1  0  0  0  0
  9 32  1  0  0  0  0
 10 14  1  0  0  0  0
 10 11  2  0  0  0  0
 11 12  1  0  0  0  0
 11 48  1  0  0  0  0
 12 13  2  0  0  0  0
 12 33  1  0  0  0  0
 13 14  1  0  0  0  0
 13 34  1  0  0  0  0
 14 15  1  0  0  0  0
 15 35  1  0  0  0  0
 15 36  1  0  0  0  0
 15 37  1  0  0  0  0
 16 17  1  0  0  0  0
 16 38  1  0  0  0  0
 16 39  1  0  0  0  0
 17 18  1  0  0  0  0
 17 19  1  0  0  0  0
 17 20  1  0  0  0  0
 18 40  1  0  0  0  0
 18 41  1  0  0  0  0
 18 42  1  0  0  0  0
 19 43  1  0  0  0  0
 19 44  1  0  0  0  0
 19 45  1  0  0  0  0
 20 46  1  0  0  0  0
 20 47  1  0  0  0  0
M  CHG  1  11   1
M  END
> <s_m_source_file>
AV-unprocessed.smi

> <i_m_source_file_index>
2473

> <i_lp_mmshare_version>
43012

> <i_f3d_flags>
0

> <s_epik_input>
W0NIM11bQ0BASF0oW0NIMl0xKVtDSDJdW0NASF0oW0NIMl1DMShbQ0gzXSlbQ0gzXSlDKD1PKVtOSF1bQ0gyXVtDSDJdYzJuW2NIXVtjSF1uMltDSDNd

> <s_epik_cmdline>
J2VwaWtfcHl0aG9uJywgJy1waCcsICc3LjAnLCAnLXRuJywgJzgnLCAnLW1hJywgJzIwMCcsICctbWV0YWxfYmluZGluZycsICctaW1hZScsICc8aW5maWxlLm1hZT4nLCAnLW9tYWUnLCAnPG91dGZpbGUubWFlPic=

> <r_lp_tautomer_probability>
1

> <r_epik_Ionization_Penalty>
0.0796112

> <r_epik_Ionization_Penalty_Charging>
0

> <r_epik_Ionization_Penalty_Neutral>
0.0796112

> <r_epik_State_Penalty>
0.0704541

> <r_epik_Charging_Adjusted_Penalty>
0.0704541

> <i_epik_Tot_Q>
1

> <i_epik_Tot_abs_Q>
1

> <r_epik_Metal_State_Penalty>
0.409899

> <b_epik_Metal_Only>
0

> <s_lp_Force_Field>
OPLS_2005

> <r_lp_Energy>
16.0975

> <b_lp_Chiralities_Consistent>
1

> <s_lp_Variant>
AV-unprocessed.smi:2473-2

> <Gold.Version>
5.8.1

> <Gold.Id.Protein>
6NUR|6NUR_protein|mol2

> <Gold.PLP.Fitness>
49.0184

> <Gold.PLP.PLP>
-47.9457

> <Gold.PLP.part.hbond>
-0.9326

> <Gold.PLP.part.metal>
0.0000

> <Gold.PLP.part.buried>
-6.2611

> <Gold.PLP.part.nonpolar>
-40.9579

> <Gold.PLP.part.repulsive>
0.1339

> <Gold.PLP.ligand.clash>
0.0000

> <Gold.PLP.ligand.torsion>
0.3496

> <Gold.PLP.Chemscore.Hbond>
0.5824

> <Gold.PLP.Chemscore.CHOScore>
0.0000

> <Gold.PLP.Chemscore.Metal>
0.0000

> <Gold.Chemscore.Hbonds>
donor molecule, donor type, donor heavy atom, donor atom, acceptor molecule, acceptor atom, score
      L1  H     7    28       P1  8028  0.58

> <Gold.PLP.Chemscore.Internal.Correction>
0.0246

> <Gold.Rescore>
     Score         DG    S(hbond)    S(metal)    S(lipo)     H(rot)  DE(clash)    DE(int)     intcor
     17.70     -18.15       0.97        0.00     115.25       1.58       0.23       0.22       ----

> <Gold.Chemscore.Fitness>
17.6971

> <Gold.Chemscore.DG>
-18.1531

> <Gold.Chemscore.ZeroCoef>
-5.4800

> <Gold.Chemscore.Hbond>
0.9694

> <Gold.Chemscore.Metal>
0.0000

> <Gold.Chemscore.Lipo>
115.2548

> <Gold.Chemscore.Internal_Hbond>
0.0000

> <Gold.Chemscore.DEClash>
0.2344

> <Gold.Chemscore.DEInternal>
0.2215

> <Gold.Chemscore.Rot>
1.5818

> <Gold.Chemscore.Internal.Correction>
   9.000000E+99

> <Gold.Chemscore.Hbonds>
donor molecule, donor type, donor heavy atom, donor atom, acceptor molecule, acceptor atom, score
      L1  H     7    28       P1  8028  0.56

> <Gold.Chemscore.Hbond.Weighted>
-3.2377

> <Gold.Chemscore.Metal.Weighted>
-0.0000

> <Gold.Chemscore.Lipo.Weighted>
-13.4848

> <Gold.Chemscore.Internal_Hbond.Weighted>
0.0000

> <Gold.Chemscore.DEClash.Weighted>
0.2344

> <Gold.Chemscore.DEInternal.Weighted>
0.2215

> <Gold.Chemscore.Rot.Weighted>
4.0495

> <Gold.Chemscore.Internal.Correction.Weighted>
   9.000000E+99

> <Gold.Protein.RotatedTorsions>
[ 6907 6896 6895 6894 ] final -140.95 input  -60.11 | X-H torsion
[ 7974 7965 7964 7962 ] final  -98.40 input  175.53 | X-H torsion
[ 8008 7997 7996 7995 ] final  179.34 input   59.86 | X-H torsion
[ 10167 10162 10161 10158 ] final  118.85 input  -65.29 | X-H torsion
[ 10718 10713 10712 10709 ] final   -7.06 input   66.30 | X-H torsion
[ 10763 10752 10751 10750 ] final -127.25 input  -60.55 | X-H torsion
[ 11005 11000 10999 10996 ] final  -72.34 input  -57.11 | X-H torsion

> <Gold.Protein.ActiveResidues>
 VAL166  LYS551  ARG553  GLY616  TRP617  ASP618  TYR619  PRO620  LYS621  CYS622 
 ASP623  PHE694  ASN695  SER759  ASP760  ASP761  ALA762  ILE779  LEU786  VAL792 
 PHE793  MET794  SER795  GLU796  ALA797  LYS798  CYS799  TRP800  GLU811  SER814 

> <Gold.Protein.RotatedAtoms>
  151.0674  133.5494  159.2629 H   0  0  0  0  0  0  0  0  0  0  0  0  # atno 6907 bound_to 6896
  151.2447  135.0600  159.9048 H   0  0  0  0  0  0  0  0  0  0  0  0  # atno 6908 bound_to 6896
  152.5406  134.0443  159.8135 H   0  0  0  0  0  0  0  0  0  0  0  0  # atno 6909 bound_to 6896
  145.3211  140.9422  143.2715 H   0  0  0  0  0  0  0  0  0  0  0  0  # atno 7974 bound_to 7965
  156.0445  140.1311  157.0119 H   0  0  0  0  0  0  0  0  0  0  0  0  # atno 8008 bound_to 7997
  154.4406  140.1023  156.6356 H   0  0  0  0  0  0  0  0  0  0  0  0  # atno 8009 bound_to 7997
  155.5617  140.3465  155.4495 H   0  0  0  0  0  0  0  0  0  0  0  0  # atno 8010 bound_to 7997
  139.6084  144.7076  151.2900 H   0  0  0  0  0  0  0  0  0  0  0  0  # atno 10167 bound_to 10162
  156.7227  130.5156  149.5864 H   0  0  0  0  0  0  0  0  0  0  0  0  # atno 10718 bound_to 10713
  154.8751  135.3968  154.3564 H   0  0  0  0  0  0  0  0  0  0  0  0  # atno 10763 bound_to 10752
  153.4342  135.7025  153.6216 H   0  0  0  0  0  0  0  0  0  0  0  0  # atno 10764 bound_to 10752
  153.4824  135.3766  155.2419 H   0  0  0  0  0  0  0  0  0  0  0  0  # atno 10765 bound_to 10752
  141.1607  133.6844  156.7044 H   0  0  0  0  0  0  0  0  0  0  0  0  # atno 11005 bound_to 11000
  144.8939  139.4738  143.6665 LP  0  0  0  0  0  0  0  0  0  0  0  0  # atno 17320 bound_to 7965
  146.3082  139.7653  142.9040 LP  0  0  0  0  0  0  0  0  0  0  0  0  # atno 17321 bound_to 7965
  140.7302  143.6888  150.7940 LP  0  0  0  0  0  0  0  0  0  0  0  0  # atno 17342 bound_to 10162
  140.0478  143.5281  152.2688 LP  0  0  0  0  0  0  0  0  0  0  0  0  # atno 17343 bound_to 10162
  156.1583  130.6357  151.0686 LP  0  0  0  0  0  0  0  0  0  0  0  0  # atno 17370 bound_to 10713
  157.6891  131.0815  150.7158 LP  0  0  0  0  0  0  0  0  0  0  0  0  # atno 17371 bound_to 10713
  140.2934  134.8222  157.4036 LP  0  0  0  0  0  0  0  0  0  0  0  0  # atno 17394 bound_to 11000
  140.1326  134.5075  155.8094 LP  0  0  0  0  0  0  0  0  0  0  0  0  # atno 17395 bound_to 11000

$$$$
