AV-unprocessed.smi:1297|AV-procd|sdf|5416|dock7
  -GOLD-   22720 4573D 1   1.00000     0.00000
 Structure written by MMmdl.
 26 27  0  0  0  0  0  0  0  0  1 V2000
  151.1453  137.6280  159.2220 C   0  0  0  0  0  0  0  0  0  0  0  0
  152.5705  138.4766  159.9606 S   0  0  0  0  0  0  0  0  0  0  0  0
  152.2892  140.1251  159.3800 C   0  0  0  0  0  0  0  0  0  0  0  0
  151.3701  140.4584  158.4680 N   0  0  0  0  0  0  0  0  0  0  0  0
  151.4918  141.8175  158.2931 N   0  0  0  0  0  0  0  0  0  0  0  0
  152.4603  142.1959  159.1290 C   0  0  0  0  0  0  0  0  0  0  0  0
  152.9489  143.6060  159.2406 C   0  0  0  0  0  0  0  0  0  0  0  0
  152.0435  144.7046  159.7518 C   0  0  0  0  0  0  0  0  0  0  0  0
  152.4561  144.6886  158.3041 C   0  0  0  0  0  0  0  0  0  0  0  0
  153.0076  141.1784  159.8269 N   0  0  0  0  0  0  0  0  0  0  0  0
  154.0962  141.2115  160.7979 C   0  0  0  0  0  0  0  0  0  0  0  0
  155.3307  140.4532  160.3027 C   0  0  0  0  0  0  0  0  0  0  0  0
  156.4229  140.4849  161.0704 N   0  0  0  0  0  0  0  0  0  0  0  0
  155.2948  139.8339  159.2422 O   0  0  0  0  0  0  0  0  0  0  0  0
  151.1610  136.5722  159.4920 H   0  0  0  0  0  0  0  0  0  0  0  0
  151.1739  137.7019  158.1345 H   0  0  0  0  0  0  0  0  0  0  0  0
  150.2100  138.0584  159.5814 H   0  0  0  0  0  0  0  0  0  0  0  0
  153.9967  143.6285  159.5337 H   0  0  0  0  0  0  0  0  0  0  0  0
  151.0100  144.4484  159.9764 H   0  0  0  0  0  0  0  0  0  0  0  0
  152.4879  145.4599  160.3964 H   0  0  0  0  0  0  0  0  0  0  0  0
  153.1765  145.4363  157.9789 H   0  0  0  0  0  0  0  0  0  0  0  0
  151.6949  144.4254  157.5720 H   0  0  0  0  0  0  0  0  0  0  0  0
  154.3599  142.2463  161.0174 H   0  0  0  0  0  0  0  0  0  0  0  0
  153.7488  140.7789  161.7369 H   0  0  0  0  0  0  0  0  0  0  0  0
  157.2583  139.9968  160.7802 H   0  0  0  0  0  0  0  0  0  0  0  0
  156.4094  140.9970  161.9405 H   0  0  0  0  0  0  0  0  0  0  0  0
  1  2  1  0  0  0  0
  1 15  1  0  0  0  0
  1 16  1  0  0  0  0
  1 17  1  0  0  0  0
  2  3  1  0  0  0  0
  3 10  1  0  0  0  0
  3  4  2  0  0  0  0
  4  5  1  0  0  0  0
  5  6  2  0  0  0  0
  6  7  1  0  0  0  0
  6 10  1  0  0  0  0
  7  9  1  0  0  0  0
  7  8  1  0  0  0  0
  7 18  1  0  0  0  0
  8  9  1  0  0  0  0
  8 19  1  0  0  0  0
  8 20  1  0  0  0  0
  9 21  1  0  0  0  0
  9 22  1  0  0  0  0
 10 11  1  0  0  0  0
 11 12  1  0  0  0  0
 11 23  1  0  0  0  0
 11 24  1  0  0  0  0
 12 13  1  0  0  0  0
 12 14  2  0  0  0  0
 13 25  1  0  0  0  0
 13 26  1  0  0  0  0
M  END
> <s_m_source_file>
AV-unprocessed.smi

> <i_m_source_file_index>
1297

> <i_lp_mmshare_version>
43012

> <i_f3d_flags>
0

> <s_epik_input>
W0NIM11TYzFubmMoW0NIXTJbQ0gyXVtDSDJdMiluMVtDSDJdQyg9TylbTkgyXQ==

> <s_epik_cmdline>
J2VwaWtfcHl0aG9uJywgJy1waCcsICc3LjAnLCAnLXRuJywgJzgnLCAnLW1hJywgJzIwMCcsICctbWV0YWxfYmluZGluZycsICctaW1hZScsICc8aW5maWxlLm1hZT4nLCAnLW9tYWUnLCAnPG91dGZpbGUubWFlPic=

> <r_lp_tautomer_probability>
1

> <r_epik_Ionization_Penalty>
2.14715e-06

> <r_epik_Ionization_Penalty_Charging>
0

> <r_epik_Ionization_Penalty_Neutral>
2.14715e-06

> <r_epik_State_Penalty>
-0

> <r_epik_Charging_Adjusted_Penalty>
0

> <i_epik_Tot_Q>
0

> <i_epik_Tot_abs_Q>
0

> <r_epik_Metal_State_Penalty>
-0

> <b_epik_Metal_Only>
0

> <s_lp_Force_Field>
OPLS_2005

> <r_lp_Energy>
5.16146

> <b_lp_Chiralities_Consistent>
1

> <s_lp_Variant>
AV-unprocessed.smi:1297-1

> <Gold.Version>
5.8.1

> <Gold.Id.Protein>
6NUR|6NUR_protein|mol2

> <Gold.PLP.Fitness>
36.2225

> <Gold.PLP.PLP>
-33.4944

> <Gold.PLP.part.hbond>
-2.0000

> <Gold.PLP.part.metal>
0.0000

> <Gold.PLP.part.buried>
-3.9025

> <Gold.PLP.part.nonpolar>
-27.8981

> <Gold.PLP.part.repulsive>
0.0281

> <Gold.PLP.ligand.clash>
0.0000

> <Gold.PLP.ligand.torsion>
0.2038

> <Gold.PLP.Chemscore.Hbond>
1.0000

> <Gold.PLP.Chemscore.CHOScore>
0.0000

> <Gold.PLP.Chemscore.Metal>
0.0000

> <Gold.Chemscore.Hbonds>
donor molecule, donor type, donor heavy atom, donor atom, acceptor molecule, acceptor atom, score
      P1  H  7997  8008       L1    14  1.00

> <Gold.PLP.Chemscore.Internal.Correction>
0.1356

> <Gold.Rescore>
     Score         DG    S(hbond)    S(metal)    S(lipo)     H(rot)  DE(clash)    DE(int)     intcor
     10.17     -10.34       1.00        0.00      60.91       2.19       0.00       0.16       ----

> <Gold.Chemscore.Fitness>
10.1729

> <Gold.Chemscore.DG>
-10.3361

> <Gold.Chemscore.ZeroCoef>
-5.4800

> <Gold.Chemscore.Hbond>
0.9985

> <Gold.Chemscore.Metal>
0.0000

> <Gold.Chemscore.Lipo>
60.9117

> <Gold.Chemscore.Internal_Hbond>
0.0000

> <Gold.Chemscore.DEClash>
0.0000

> <Gold.Chemscore.DEInternal>
0.1632

> <Gold.Chemscore.Rot>
2.1897

> <Gold.Chemscore.Internal.Correction>
   9.000000E+99

> <Gold.Chemscore.Hbonds>
donor molecule, donor type, donor heavy atom, donor atom, acceptor molecule, acceptor atom, score
      P1  H  7997  8008       L1    14  0.97

> <Gold.Chemscore.Hbond.Weighted>
-3.3351

> <Gold.Chemscore.Metal.Weighted>
-0.0000

> <Gold.Chemscore.Lipo.Weighted>
-7.1267

> <Gold.Chemscore.Internal_Hbond.Weighted>
0.0000

> <Gold.Chemscore.DEClash.Weighted>
0.0000

> <Gold.Chemscore.DEInternal.Weighted>
0.1632

> <Gold.Chemscore.Rot.Weighted>
5.6057

> <Gold.Chemscore.Internal.Correction.Weighted>
   9.000000E+99

> <Gold.Protein.RotatedTorsions>
[ 6907 6896 6895 6894 ] final  -32.19 input  -60.11 | X-H torsion
[ 7974 7965 7964 7962 ] final  -86.25 input  175.53 | X-H torsion
[ 8008 7997 7996 7995 ] final -143.07 input   59.86 | X-H torsion
[ 10167 10162 10161 10158 ] final  -58.52 input  -65.29 | X-H torsion
[ 10718 10713 10712 10709 ] final -112.16 input   66.30 | X-H torsion
[ 10763 10752 10751 10750 ] final  -88.68 input  -60.55 | X-H torsion
[ 11005 11000 10999 10996 ] final  159.42 input  -57.11 | X-H torsion

> <Gold.Protein.ActiveResidues>
 VAL166  LYS551  ARG553  GLY616  TRP617  ASP618  TYR619  PRO620  LYS621  CYS622 
 ASP623  PHE694  ASN695  SER759  ASP760  ASP761  ALA762  ILE779  LEU786  VAL792 
 PHE793  MET794  SER795  GLU796  ALA797  LYS798  CYS799  TRP800  GLU811  SER814 

> <Gold.Protein.RotatedAtoms>
  151.0821  134.9864  159.8360 H   0  0  0  0  0  0  0  0  0  0  0  0  # atno 6907 bound_to 6896
  152.5420  134.2169  159.8782 H   0  0  0  0  0  0  0  0  0  0  0  0  # atno 6908 bound_to 6896
  151.2200  133.4464  159.2634 H   0  0  0  0  0  0  0  0  0  0  0  0  # atno 6909 bound_to 6896
  145.4824  140.9556  143.1857 H   0  0  0  0  0  0  0  0  0  0  0  0  # atno 7974 bound_to 7965
  155.5045  140.0578  157.2933 H   0  0  0  0  0  0  0  0  0  0  0  0  # atno 8008 bound_to 7997
  154.4574  140.1980  156.0289 H   0  0  0  0  0  0  0  0  0  0  0  0  # atno 8009 bound_to 7997
  156.0826  140.3245  155.7717 H   0  0  0  0  0  0  0  0  0  0  0  0  # atno 8010 bound_to 7997
  140.6192  143.2413  151.5522 H   0  0  0  0  0  0  0  0  0  0  0  0  # atno 10167 bound_to 10162
  156.0689  130.5905  150.8471 H   0  0  0  0  0  0  0  0  0  0  0  0  # atno 10718 bound_to 10713
  154.6471  135.5368  153.7857 H   0  0  0  0  0  0  0  0  0  0  0  0  # atno 10763 bound_to 10752
  153.0365  135.6473  154.1073 H   0  0  0  0  0  0  0  0  0  0  0  0  # atno 10764 bound_to 10752
  154.0993  135.2934  155.3235 H   0  0  0  0  0  0  0  0  0  0  0  0  # atno 10765 bound_to 10752
  140.1960  134.8372  157.2965 H   0  0  0  0  0  0  0  0  0  0  0  0  # atno 11005 bound_to 11000
  144.7881  139.6385  143.7125 LP  0  0  0  0  0  0  0  0  0  0  0  0  # atno 17320 bound_to 7965
  146.2333  139.5856  142.9541 LP  0  0  0  0  0  0  0  0  0  0  0  0  # atno 17321 bound_to 7965
  139.5424  144.2611  152.1377 LP  0  0  0  0  0  0  0  0  0  0  0  0  # atno 17342 bound_to 10162
  140.1827  144.4828  150.6519 LP  0  0  0  0  0  0  0  0  0  0  0  0  # atno 17343 bound_to 10162
  157.5748  131.0946  150.9362 LP  0  0  0  0  0  0  0  0  0  0  0  0  # atno 17370 bound_to 10713
  156.9571  130.5441  149.5284 LP  0  0  0  0  0  0  0  0  0  0  0  0  # atno 17371 bound_to 10713
  140.2107  134.4142  155.7614 LP  0  0  0  0  0  0  0  0  0  0  0  0  # atno 17394 bound_to 11000
  141.2227  133.7117  156.8333 LP  0  0  0  0  0  0  0  0  0  0  0  0  # atno 17395 bound_to 11000

$$$$
