AV-unprocessed.smi:2044|AV-procd|sdf|8304|dock6
  -GOLD-   2272010573D 1   1.00000     0.00000
 Structure written by MMmdl.
 39 40  0  0  0  0  0  0  0  0  3 V2000
  153.9699  141.6069  160.1380 C   0  0  0  0  0  0  0  0  0  0  0  0
  152.9974  141.3445  159.0390 C   0  0  0  0  0  0  0  0  0  0  0  0
  151.9428  142.0573  158.5430 C   0  0  0  0  0  0  0  0  0  0  0  0
  151.4569  141.2303  157.4933 C   0  0  0  0  0  0  0  0  0  0  0  0
  150.4077  141.4937  156.6990 N   0  5  0  0  0  0  0  0  0  0  0  0
  150.1596  140.7174  155.6198 C   0  0  0  0  0  0  0  0  0  0  0  0
  150.9765  140.0196  155.0144 O   0  0  0  0  0  0  0  0  0  0  0  0
  148.8827  140.7490  155.2165 N   0  0  0  0  0  0  0  0  0  0  0  0
  148.3365  139.9933  154.0950 C   0  0  0  0  0  0  0  0  0  0  0  0
  146.9262  140.4879  153.6777 C   0  0  2  0  0  0  0  0  0  0  0  0
  146.1458  140.9896  154.9181 C   0  0  0  0  0  0  0  0  0  0  0  0
  146.1501  139.4397  152.9333 N   0  3  0  0  0  0  0  0  0  0  0  0
  146.8137  138.9939  151.6758 C   0  0  0  0  0  0  0  0  0  0  0  0
  145.9706  137.9432  150.9348 C   0  0  0  0  0  0  0  0  0  0  0  0
  145.7314  136.8350  151.7870 O   0  0  0  0  0  0  0  0  0  0  0  0
  144.9879  137.2209  152.9317 C   0  0  0  0  0  0  0  0  0  0  0  0
  145.7848  138.2492  153.7520 C   0  0  0  0  0  0  0  0  0  0  0  0
  152.1440  140.1066  157.3759 N   0  0  0  0  0  0  0  0  0  0  0  0
  153.1384  140.1750  158.3589 O   0  0  0  0  0  0  0  0  0  0  0  0
  153.4498  141.7745  161.0811 H   0  0  0  0  0  0  0  0  0  0  0  0
  154.5683  142.4913  159.9193 H   0  0  0  0  0  0  0  0  0  0  0  0
  154.6488  140.7646  160.2724 H   0  0  0  0  0  0  0  0  0  0  0  0
  151.5794  143.0188  158.8733 H   0  0  0  0  0  0  0  0  0  0  0  0
  148.2443  141.3326  155.7372 H   0  0  0  0  0  0  0  0  0  0  0  0
  149.0558  140.1117  153.2854 H   0  0  0  0  0  0  0  0  0  0  0  0
  148.2973  138.9321  154.3475 H   0  0  0  0  0  0  0  0  0  0  0  0
  147.0637  141.3350  153.0034 H   0  0  0  0  0  0  0  0  0  0  0  0
  146.7254  141.6934  155.5148 H   0  0  0  0  0  0  0  0  0  0  0  0
  145.8686  140.1620  155.5714 H   0  0  0  0  0  0  0  0  0  0  0  0
  145.2389  141.5282  154.6486 H   0  0  0  0  0  0  0  0  0  0  0  0
  146.9635  139.8270  150.9920 H   0  0  0  0  0  0  0  0  0  0  0  0
  147.7982  138.5848  151.9079 H   0  0  0  0  0  0  0  0  0  0  0  0
  145.0261  138.3700  150.5930 H   0  0  0  0  0  0  0  0  0  0  0  0
  146.5004  137.5960  150.0476 H   0  0  0  0  0  0  0  0  0  0  0  0
  144.0193  137.6262  152.6343 H   0  0  0  0  0  0  0  0  0  0  0  0
  144.7875  136.3355  153.5354 H   0  0  0  0  0  0  0  0  0  0  0  0
  146.6893  137.7898  154.1540 H   0  0  0  0  0  0  0  0  0  0  0  0
  145.1578  138.5305  154.5962 H   0  0  0  0  0  0  0  0  0  0  0  0
  145.2787  139.8723  152.6618 H   0  0  0  0  0  0  0  0  0  0  0  0
  1  2  1  0  0  0  0
  1 20  1  0  0  0  0
  1 21  1  0  0  0  0
  1 22  1  0  0  0  0
  2 19  1  0  0  0  0
  2  3  2  0  0  0  0
  3  4  1  0  0  0  0
  3 23  1  0  0  0  0
  4  5  1  0  0  0  0
  4 18  2  0  0  0  0
  5  6  1  0  0  0  0
  6  7  2  0  0  0  0
  6  8  1  0  0  0  0
  8  9  1  0  0  0  0
  8 24  1  0  0  0  0
  9 10  1  0  0  0  0
  9 25  1  0  0  0  0
  9 26  1  0  0  0  0
 10 11  1  0  0  0  0
 10 12  1  0  0  0  0
 10 27  1  0  0  0  0
 11 28  1  0  0  0  0
 11 29  1  0  0  0  0
 11 30  1  0  0  0  0
 12 17  1  0  0  0  0
 12 13  1  0  0  0  0
 12 39  1  0  0  0  0
 13 14  1  0  0  0  0
 13 31  1  0  0  0  0
 13 32  1  0  0  0  0
 14 15  1  0  0  0  0
 14 33  1  0  0  0  0
 14 34  1  0  0  0  0
 15 16  1  0  0  0  0
 16 17  1  0  0  0  0
 16 35  1  0  0  0  0
 16 36  1  0  0  0  0
 17 37  1  0  0  0  0
 17 38  1  0  0  0  0
 18 19  1  0  0  0  0
M  CHG  1   5  -1
M  CHG  1  12   1
M  END
> <s_m_source_file>
AV-unprocessed.smi

> <i_m_source_file_index>
2044

> <i_lp_mmshare_version>
43012

> <i_f3d_flags>
0

> <s_epik_input>
W0NIM11jMVtjSF1jKG5vMSlbTkhdQyg9TylbTkhdW0NIMl1bQ0BIXShbQ0gzXSlOMltDSDJdW0NIMl1PW0NIMl1bQ0gyXTI=

> <s_epik_cmdline>
J2VwaWtfcHl0aG9uJywgJy1waCcsICc3LjAnLCAnLXRuJywgJzgnLCAnLW1hJywgJzIwMCcsICctbWV0YWxfYmluZGluZycsICctaW1hZScsICc8aW5maWxlLm1hZT4nLCAnLW9tYWUnLCAnPG91dGZpbGUubWFlPic=

> <r_epik_Ionization_Penalty>
6.73014

> <r_epik_Ionization_Penalty_Charging>
6.73004

> <r_epik_Ionization_Penalty_Neutral>
9.51297e-05

> <r_epik_State_Penalty>
6.93052

> <r_epik_Charging_Adjusted_Penalty>
13.6606

> <i_epik_Tot_Q>
0

> <i_epik_Tot_abs_Q>
2

> <r_epik_Metal_State_Penalty>
2.86736

> <b_epik_Metal_Only>
1

> <s_lp_Force_Field>
OPLS_2005

> <r_lp_Energy>
9.04271

> <b_lp_Chiralities_Consistent>
1

> <s_lp_Variant>
AV-unprocessed.smi:2044-7

> <Gold.Version>
5.8.1

> <Gold.Id.Protein>
6NUR|6NUR_protein|mol2

> <Gold.PLP.Fitness>
38.3095

> <Gold.PLP.PLP>
-27.6841

> <Gold.PLP.part.hbond>
-3.1148

> <Gold.PLP.part.metal>
0.0000

> <Gold.PLP.part.buried>
1.3637

> <Gold.PLP.part.nonpolar>
-27.0415

> <Gold.PLP.part.repulsive>
0.4507

> <Gold.PLP.ligand.clash>
0.0000

> <Gold.PLP.ligand.torsion>
0.5042

> <Gold.PLP.Chemscore.Hbond>
3.8512

> <Gold.PLP.Chemscore.CHOScore>
0.0000

> <Gold.PLP.Chemscore.Metal>
0.0000

> <Gold.Chemscore.Hbonds>
donor molecule, donor type, donor heavy atom, donor atom, acceptor molecule, acceptor atom, score
      L1  H    12    39       P1 10175  2.00
      P1  H  7989  7998       L1     7  1.00
      P1  H  7997  8008       L1    19  0.84

> <Gold.PLP.Chemscore.Internal.Correction>
0.0803

> <Gold.Rescore>
     Score         DG    S(hbond)    S(metal)    S(lipo)     H(rot)  DE(clash)    DE(int)     intcor
     13.48     -17.55       2.25        0.00      73.63       1.59       1.97       2.10       ----

> <Gold.Chemscore.Fitness>
13.4834

> <Gold.Chemscore.DG>
-17.5467

> <Gold.Chemscore.ZeroCoef>
-5.4800

> <Gold.Chemscore.Hbond>
2.2546

> <Gold.Chemscore.Metal>
0.0000

> <Gold.Chemscore.Lipo>
73.6268

> <Gold.Chemscore.Internal_Hbond>
0.0000

> <Gold.Chemscore.DEClash>
1.9653

> <Gold.Chemscore.DEInternal>
2.0980

> <Gold.Chemscore.Rot>
1.5930

> <Gold.Chemscore.Internal.Correction>
   9.000000E+99

> <Gold.Chemscore.Hbonds>
donor molecule, donor type, donor heavy atom, donor atom, acceptor molecule, acceptor atom, score
      L1  H    12    39       P1 10175  1.00
      P1  H  7989  7998       L1     7  0.82
      P1  H  7997  8008       L1    19  0.17

> <Gold.Chemscore.Hbond.Weighted>
-7.5304

> <Gold.Chemscore.Metal.Weighted>
-0.0000

> <Gold.Chemscore.Lipo.Weighted>
-8.6143

> <Gold.Chemscore.Internal_Hbond.Weighted>
0.0000

> <Gold.Chemscore.DEClash.Weighted>
1.9653

> <Gold.Chemscore.DEInternal.Weighted>
2.0980

> <Gold.Chemscore.Rot.Weighted>
4.0781

> <Gold.Chemscore.Internal.Correction.Weighted>
   9.000000E+99

> <Gold.Protein.RotatedTorsions>
[ 6907 6896 6895 6894 ] final   59.63 input  -60.11 | X-H torsion
[ 7974 7965 7964 7962 ] final   11.67 input  175.53 | X-H torsion
[ 8008 7997 7996 7995 ] final  -98.22 input   59.86 | X-H torsion
[ 10167 10162 10161 10158 ] final -113.94 input  -65.29 | X-H torsion
[ 10718 10713 10712 10709 ] final  -47.01 input   66.30 | X-H torsion
[ 10763 10752 10751 10750 ] final  142.92 input  -60.55 | X-H torsion
[ 11005 11000 10999 10996 ] final  155.99 input  -57.11 | X-H torsion

> <Gold.Protein.ActiveResidues>
 VAL166  LYS551  ARG553  GLY616  TRP617  ASP618  TYR619  PRO620  LYS621  CYS622 
 ASP623  PHE694  ASN695  SER759  ASP760  ASP761  ALA762  ILE779  LEU786  VAL792 
 PHE793  MET794  SER795  GLU796  ALA797  LYS798  CYS799  TRP800  GLU811  SER814 

> <Gold.Protein.RotatedAtoms>
  152.3932  134.6408  160.0099 H   0  0  0  0  0  0  0  0  0  0  0  0  # atno 6907 bound_to 6896
  151.6636  133.3310  159.3188 H   0  0  0  0  0  0  0  0  0  0  0  0  # atno 6908 bound_to 6896
  150.7844  134.6860  159.6515 H   0  0  0  0  0  0  0  0  0  0  0  0  # atno 6909 bound_to 6896
  146.2366  139.9450  142.8478 H   0  0  0  0  0  0  0  0  0  0  0  0  # atno 7974 bound_to 7965
  154.7982  140.0457  157.1253 H   0  0  0  0  0  0  0  0  0  0  0  0  # atno 8008 bound_to 7997
  154.9510  140.3065  155.5055 H   0  0  0  0  0  0  0  0  0  0  0  0  # atno 8009 bound_to 7997
  156.2958  140.2288  156.4587 H   0  0  0  0  0  0  0  0  0  0  0  0  # atno 8010 bound_to 7997
  140.1064  143.4567  152.1780 H   0  0  0  0  0  0  0  0  0  0  0  0  # atno 10167 bound_to 10162
  156.2126  130.4161  149.9095 H   0  0  0  0  0  0  0  0  0  0  0  0  # atno 10718 bound_to 10713
  153.9637  135.2957  155.3432 H   0  0  0  0  0  0  0  0  0  0  0  0  # atno 10763 bound_to 10752
  154.7360  135.5046  153.9046 H   0  0  0  0  0  0  0  0  0  0  0  0  # atno 10764 bound_to 10752
  153.0934  135.6714  153.9921 H   0  0  0  0  0  0  0  0  0  0  0  0  # atno 10765 bound_to 10752
  140.1633  134.8594  157.2601 H   0  0  0  0  0  0  0  0  0  0  0  0  # atno 11005 bound_to 11000
  145.1916  140.9814  143.4208 LP  0  0  0  0  0  0  0  0  0  0  0  0  # atno 17320 bound_to 7965
  144.9852  139.3743  143.6242 LP  0  0  0  0  0  0  0  0  0  0  0  0  # atno 17321 bound_to 7965
  139.5643  144.7425  151.4066 LP  0  0  0  0  0  0  0  0  0  0  0  0  # atno 17342 bound_to 10162
  140.6950  143.7771  150.7313 LP  0  0  0  0  0  0  0  0  0  0  0  0  # atno 17343 bound_to 10162
  156.6768  130.8842  151.3570 LP  0  0  0  0  0  0  0  0  0  0  0  0  # atno 17370 bound_to 10713
  157.7046  130.9371  150.0892 LP  0  0  0  0  0  0  0  0  0  0  0  0  # atno 17371 bound_to 10713
  140.2464  134.3735  155.7459 LP  0  0  0  0  0  0  0  0  0  0  0  0  # atno 17394 bound_to 11000
  141.2211  133.7293  156.8868 LP  0  0  0  0  0  0  0  0  0  0  0  0  # atno 17395 bound_to 11000

$$$$
