AV-unprocessed.smi:2074|AV-procd|sdf|8453|dock7
  -GOLD-   2272011153D 1   1.00000     0.00000
 Structure written by MMmdl.
 43 44  0  0  0  0  0  0  0  0  1 V2000
  142.9953  134.7329  152.8382 C   0  0  0  0  0  0  0  0  0  0  0  0
  143.8989  135.9321  152.8365 C   0  0  0  0  0  0  0  0  0  0  0  0
  143.5846  136.9920  153.5626 N   0  0  0  0  0  0  0  0  0  0  0  0
  144.6056  137.9221  153.3437 O   0  0  0  0  0  0  0  0  0  0  0  0
  145.5046  137.3789  152.4842 C   0  0  0  0  0  0  0  0  0  0  0  0
  146.6744  138.2272  152.1171 C   0  0  0  0  0  0  0  0  0  0  0  0
  145.1197  136.1160  152.1265 C   0  0  0  0  0  0  0  0  0  0  0  0
  145.8098  135.1439  151.2009 C   0  0  0  0  0  0  0  0  0  0  0  0
  146.2008  133.8468  151.9201 C   0  0  0  0  0  0  0  0  0  0  0  0
  145.3735  132.9610  152.1411 O   0  0  0  0  0  0  0  0  0  0  0  0
  147.4895  133.7493  152.2797 N   0  0  0  0  0  0  0  0  0  0  0  0
  148.0903  132.6015  152.9542 C   0  0  0  0  0  0  0  0  0  0  0  0
  149.3545  132.9618  153.7886 C   0  0  1  0  0  0  0  0  0  0  0  0
  149.1163  134.3183  154.5002 C   0  0  0  0  0  0  0  0  0  0  0  0
  149.7626  131.8879  154.7244 N   0  0  0  0  0  0  0  0  0  0  0  0
  151.0983  132.1117  155.2902 C   0  0  0  0  0  0  0  0  0  0  0  0
  151.5417  130.9870  156.2418 C   0  0  0  0  0  0  0  0  0  0  0  0
  151.5060  129.7418  155.5590 O   0  0  0  0  0  0  0  0  0  0  0  0
  150.2092  129.4452  155.0603 C   0  0  0  0  0  0  0  0  0  0  0  0
  149.7533  130.5588  154.1015 C   0  0  0  0  0  0  0  0  0  0  0  0
  142.6534  134.5037  151.8286 H   0  0  0  0  0  0  0  0  0  0  0  0
  142.1127  134.8905  153.4591 H   0  0  0  0  0  0  0  0  0  0  0  0
  143.5158  133.8545  153.2194 H   0  0  0  0  0  0  0  0  0  0  0  0
  147.1108  137.9018  151.1725 H   0  0  0  0  0  0  0  0  0  0  0  0
  147.4465  138.1723  152.8844 H   0  0  0  0  0  0  0  0  0  0  0  0
  146.3781  139.2705  152.0075 H   0  0  0  0  0  0  0  0  0  0  0  0
  145.1675  134.8895  150.3571 H   0  0  0  0  0  0  0  0  0  0  0  0
  146.7104  135.5849  150.7725 H   0  0  0  0  0  0  0  0  0  0  0  0
  148.1022  134.5218  152.0627 H   0  0  0  0  0  0  0  0  0  0  0  0
  147.3342  132.1566  153.6019 H   0  0  0  0  0  0  0  0  0  0  0  0
  148.3057  131.8635  152.1827 H   0  0  0  0  0  0  0  0  0  0  0  0
  150.1722  133.1149  153.0826 H   0  0  0  0  0  0  0  0  0  0  0  0
  148.7682  135.0925  153.8172 H   0  0  0  0  0  0  0  0  0  0  0  0
  150.0288  134.7201  154.9385 H   0  0  0  0  0  0  0  0  0  0  0  0
  148.3736  134.2225  155.2928 H   0  0  0  0  0  0  0  0  0  0  0  0
  151.8283  132.2139  154.4859 H   0  0  0  0  0  0  0  0  0  0  0  0
  151.1237  133.0384  155.8607 H   0  0  0  0  0  0  0  0  0  0  0  0
  152.5563  131.1693  156.5958 H   0  0  0  0  0  0  0  0  0  0  0  0
  150.8979  130.9481  157.1218 H   0  0  0  0  0  0  0  0  0  0  0  0
  150.2391  128.4877  154.5404 H   0  0  0  0  0  0  0  0  0  0  0  0
  149.5075  129.3372  155.8889 H   0  0  0  0  0  0  0  0  0  0  0  0
  148.7517  130.2948  153.7689 H   0  0  0  0  0  0  0  0  0  0  0  0
  150.3924  130.5597  153.2173 H   0  0  0  0  0  0  0  0  0  0  0  0
  1  2  1  0  0  0  0
  1 21  1  0  0  0  0
  1 22  1  0  0  0  0
  1 23  1  0  0  0  0
  2  7  1  0  0  0  0
  2  3  2  0  0  0  0
  3  4  1  0  0  0  0
  4  5  1  0  0  0  0
  5  6  1  0  0  0  0
  5  7  2  0  0  0  0
  6 24  1  0  0  0  0
  6 25  1  0  0  0  0
  6 26  1  0  0  0  0
  7  8  1  0  0  0  0
  8  9  1  0  0  0  0
  8 27  1  0  0  0  0
  8 28  1  0  0  0  0
  9 10  2  0  0  0  0
  9 11  1  0  0  0  0
 11 12  1  0  0  0  0
 11 29  1  0  0  0  0
 12 13  1  0  0  0  0
 12 30  1  0  0  0  0
 12 31  1  0  0  0  0
 13 14  1  0  0  0  0
 13 15  1  0  0  0  0
 13 32  1  0  0  0  0
 14 33  1  0  0  0  0
 14 34  1  0  0  0  0
 14 35  1  0  0  0  0
 15 20  1  0  0  0  0
 15 16  1  0  0  0  0
 16 17  1  0  0  0  0
 16 36  1  0  0  0  0
 16 37  1  0  0  0  0
 17 18  1  0  0  0  0
 17 38  1  0  0  0  0
 17 39  1  0  0  0  0
 18 19  1  0  0  0  0
 19 20  1  0  0  0  0
 19 40  1  0  0  0  0
 19 41  1  0  0  0  0
 20 42  1  0  0  0  0
 20 43  1  0  0  0  0
M  END
> <s_m_source_file>
AV-unprocessed.smi

> <i_m_source_file_index>
2074

> <i_lp_mmshare_version>
43012

> <i_f3d_flags>
0

> <s_epik_input>
W0NIM11jMW5vYyhbQ0gzXSljMVtDSDJdQyg9TylbTkhdW0NIMl1bQ0BIXShbQ0gzXSlOMltDSDJdW0NIMl1PW0NIMl1bQ0gyXTI=

> <s_epik_cmdline>
J2VwaWtfcHl0aG9uJywgJy1waCcsICc3LjAnLCAnLXRuJywgJzgnLCAnLW1hJywgJzIwMCcsICctbWV0YWxfYmluZGluZycsICctaW1hZScsICc8aW5maWxlLm1hZT4nLCAnLW9tYWUnLCAnPG91dGZpbGUubWFlPic=

> <r_epik_Ionization_Penalty>
0.234179

> <r_epik_Ionization_Penalty_Charging>
0

> <r_epik_Ionization_Penalty_Neutral>
0.234179

> <r_epik_State_Penalty>
0.224936

> <r_epik_Charging_Adjusted_Penalty>
0.224936

> <i_epik_Tot_Q>
0

> <i_epik_Tot_abs_Q>
0

> <r_epik_Metal_State_Penalty>
0.224936

> <b_epik_Metal_Only>
0

> <s_lp_Force_Field>
OPLS_2005

> <r_lp_Energy>
23.5804

> <b_lp_Chiralities_Consistent>
1

> <s_lp_Variant>
AV-unprocessed.smi:2074-2

> <Gold.Version>
5.8.1

> <Gold.Id.Protein>
6NUR|6NUR_protein|mol2

> <Gold.PLP.Fitness>
33.6905

> <Gold.PLP.PLP>
-32.0781

> <Gold.PLP.part.hbond>
-1.0000

> <Gold.PLP.part.metal>
0.0000

> <Gold.PLP.part.buried>
-5.2863

> <Gold.PLP.part.nonpolar>
-26.5892

> <Gold.PLP.part.repulsive>
0.9577

> <Gold.PLP.ligand.clash>
0.0000

> <Gold.PLP.ligand.torsion>
0.7245

> <Gold.PLP.Chemscore.Hbond>
1.0000

> <Gold.PLP.Chemscore.CHOScore>
0.0000

> <Gold.PLP.Chemscore.Metal>
0.0000

> <Gold.Chemscore.Hbonds>
donor molecule, donor type, donor heavy atom, donor atom, acceptor molecule, acceptor atom, score
      L1  H    11    29       P1  7948  0.80

> <Gold.PLP.Chemscore.Internal.Correction>
0.0612

> <Gold.Rescore>
     Score         DG    S(hbond)    S(metal)    S(lipo)     H(rot)  DE(clash)    DE(int)     intcor
     10.73     -11.54       0.93        0.00      63.00       1.72       0.17       0.64       ----

> <Gold.Chemscore.Fitness>
10.7297

> <Gold.Chemscore.DG>
-11.5399

> <Gold.Chemscore.ZeroCoef>
-5.4800

> <Gold.Chemscore.Hbond>
0.9255

> <Gold.Chemscore.Metal>
0.0000

> <Gold.Chemscore.Lipo>
62.9973

> <Gold.Chemscore.Internal_Hbond>
0.0000

> <Gold.Chemscore.DEClash>
0.1731

> <Gold.Chemscore.DEInternal>
0.6370

> <Gold.Chemscore.Rot>
1.7195

> <Gold.Chemscore.Internal.Correction>
   9.000000E+99

> <Gold.Chemscore.Hbonds>
donor molecule, donor type, donor heavy atom, donor atom, acceptor molecule, acceptor atom, score
      L1  H    11    29       P1  7948  0.12

> <Gold.Chemscore.Hbond.Weighted>
-3.0910

> <Gold.Chemscore.Metal.Weighted>
-0.0000

> <Gold.Chemscore.Lipo.Weighted>
-7.3707

> <Gold.Chemscore.Internal_Hbond.Weighted>
0.0000

> <Gold.Chemscore.DEClash.Weighted>
0.1731

> <Gold.Chemscore.DEInternal.Weighted>
0.6370

> <Gold.Chemscore.Rot.Weighted>
4.4018

> <Gold.Chemscore.Internal.Correction.Weighted>
   9.000000E+99

> <Gold.Protein.RotatedTorsions>
[ 6907 6896 6895 6894 ] final   53.47 input  -60.11 | X-H torsion
[ 7974 7965 7964 7962 ] final -173.48 input  175.53 | X-H torsion
[ 8008 7997 7996 7995 ] final  156.66 input   59.86 | X-H torsion
[ 10167 10162 10161 10158 ] final  116.36 input  -65.29 | X-H torsion
[ 10718 10713 10712 10709 ] final   56.92 input   66.30 | X-H torsion
[ 10763 10752 10751 10750 ] final   78.27 input  -60.55 | X-H torsion
[ 11005 11000 10999 10996 ] final  -81.52 input  -57.11 | X-H torsion

> <Gold.Protein.ActiveResidues>
 VAL166  LYS551  ARG553  GLY616  TRP617  ASP618  TYR619  PRO620  LYS621  CYS622 
 ASP623  PHE694  ASN695  SER759  ASP760  ASP761  ALA762  ILE779  LEU786  VAL792 
 PHE793  MET794  SER795  GLU796  ALA797  LYS798  CYS799  TRP800  GLU811  SER814 

> <Gold.Protein.RotatedAtoms>
  152.3340  134.7222  160.0281 H   0  0  0  0  0  0  0  0  0  0  0  0  # atno 6907 bound_to 6896
  151.7629  133.3330  159.3431 H   0  0  0  0  0  0  0  0  0  0  0  0  # atno 6908 bound_to 6896
  150.7439  134.6021  159.6086 H   0  0  0  0  0  0  0  0  0  0  0  0  # atno 6909 bound_to 6896
  144.7137  140.1615  143.6375 H   0  0  0  0  0  0  0  0  0  0  0  0  # atno 7974 bound_to 7965
  156.2409  140.1906  156.6990 H   0  0  0  0  0  0  0  0  0  0  0  0  # atno 8008 bound_to 7997
  154.6196  140.0610  156.9625 H   0  0  0  0  0  0  0  0  0  0  0  0  # atno 8009 bound_to 7997
  155.1883  140.3282  155.4365 H   0  0  0  0  0  0  0  0  0  0  0  0  # atno 8010 bound_to 7997
  139.6252  144.7107  151.2548 H   0  0  0  0  0  0  0  0  0  0  0  0  # atno 10167 bound_to 10162
  157.5471  130.8739  149.8908 H   0  0  0  0  0  0  0  0  0  0  0  0  # atno 10718 bound_to 10713
  153.0861  135.4883  154.8600 H   0  0  0  0  0  0  0  0  0  0  0  0  # atno 10763 bound_to 10752
  154.7212  135.3040  154.9046 H   0  0  0  0  0  0  0  0  0  0  0  0  # atno 10764 bound_to 10752
  153.9710  135.6801  153.4800 H   0  0  0  0  0  0  0  0  0  0  0  0  # atno 10765 bound_to 10752
  141.1666  133.7200  156.8434 H   0  0  0  0  0  0  0  0  0  0  0  0  # atno 11005 bound_to 11000
  145.9026  139.2439  143.1484 LP  0  0  0  0  0  0  0  0  0  0  0  0  # atno 17320 bound_to 7965
  145.9795  140.8694  143.0121 LP  0  0  0  0  0  0  0  0  0  0  0  0  # atno 17321 bound_to 7965
  140.7407  143.6580  150.8189 LP  0  0  0  0  0  0  0  0  0  0  0  0  # atno 17342 bound_to 10162
  140.0197  143.5555  152.2805 LP  0  0  0  0  0  0  0  0  0  0  0  0  # atno 17343 bound_to 10162
  156.0545  130.3711  150.1123 LP  0  0  0  0  0  0  0  0  0  0  0  0  # atno 17370 bound_to 10713
  156.9299  130.9710  151.3534 LP  0  0  0  0  0  0  0  0  0  0  0  0  # atno 17371 bound_to 10713
  140.1967  134.8927  157.3122 LP  0  0  0  0  0  0  0  0  0  0  0  0  # atno 17394 bound_to 11000
  140.2232  134.3998  155.7556 LP  0  0  0  0  0  0  0  0  0  0  0  0  # atno 17395 bound_to 11000

$$$$
