AV-unprocessed.smi:1627|AV-procd|sdf|6517|dock1
  -GOLD-   22720 7183D 1   1.00000     0.00000
 Structure written by MMmdl.
 43 44  0  0  0  0  0  0  0  0  1 V2000
  155.6154  135.0078  160.2143 C   0  0  0  0  0  0  0  0  0  0  0  0
  154.5360  135.2719  161.2745 C   0  0  1  0  0  0  0  0  0  0  0  0
  155.1866  135.3315  162.5417 O   0  0  0  0  0  0  0  0  0  0  0  0
  154.3356  135.5667  163.6593 C   0  0  0  0  0  0  0  0  0  0  0  0
  154.8008  136.8300  164.3934 C   0  0  0  0  0  0  0  0  0  0  0  0
  156.0194  136.6248  164.8916 F   0  0  0  0  0  0  0  0  0  0  0  0
  154.8518  137.8609  163.5505 F   0  0  0  0  0  0  0  0  0  0  0  0
  153.9701  137.1120  165.3967 F   0  0  0  0  0  0  0  0  0  0  0  0
  153.7866  136.5848  160.9930 C   0  0  0  0  0  0  0  0  0  0  0  0
  152.5967  136.5508  160.6802 O   0  0  0  0  0  0  0  0  0  0  0  0
  154.5242  137.7076  161.0767 N   0  0  0  0  0  0  0  0  0  0  0  0
  154.1194  139.0548  160.8742 C   0  0  0  0  0  0  0  0  0  0  0  0
  154.6001  140.1550  161.6204 C   0  0  0  0  0  0  0  0  0  0  0  0
  154.1344  141.4472  161.3103 C   0  0  0  0  0  0  0  0  0  0  0  0
  153.2021  141.6162  160.2555 C   0  0  0  0  0  0  0  0  0  0  0  0
  152.7016  142.8865  159.8883 N   0  0  0  0  0  0  0  0  0  0  0  0
  151.8593  142.9297  158.6886 C   0  0  0  0  0  0  0  0  0  0  0  0
  151.7525  144.3584  158.1289 C   0  0  0  0  0  0  0  0  0  0  0  0
  151.2940  145.3442  159.2124 C   0  0  0  0  0  0  0  0  0  0  0  0
  152.2374  145.2656  160.4205 C   0  0  0  0  0  0  0  0  0  0  0  0
  152.3415  143.8260  160.9523 C   0  0  0  0  0  0  0  0  0  0  0  0
  152.7563  140.5579  159.5365 N   0  0  0  0  0  0  0  0  0  0  0  0
  153.2059  139.3219  159.8363 C   0  0  0  0  0  0  0  0  0  0  0  0
  155.1856  134.9627  159.2131 H   0  0  0  0  0  0  0  0  0  0  0  0
  156.1147  134.0568  160.4007 H   0  0  0  0  0  0  0  0  0  0  0  0
  156.3802  135.7856  160.2169 H   0  0  0  0  0  0  0  0  0  0  0  0
  153.8362  134.4339  161.2658 H   0  0  0  0  0  0  0  0  0  0  0  0
  153.2994  135.6918  163.3423 H   0  0  0  0  0  0  0  0  0  0  0  0
  154.3685  134.7131  164.3380 H   0  0  0  0  0  0  0  0  0  0  0  0
  155.5089  137.5753  161.2572 H   0  0  0  0  0  0  0  0  0  0  0  0
  155.3226  140.0395  162.4131 H   0  0  0  0  0  0  0  0  0  0  0  0
  154.4991  142.2793  161.8930 H   0  0  0  0  0  0  0  0  0  0  0  0
  152.2397  142.2783  157.9021 H   0  0  0  0  0  0  0  0  0  0  0  0
  150.8675  142.5580  158.9488 H   0  0  0  0  0  0  0  0  0  0  0  0
  152.7225  144.6696  157.7384 H   0  0  0  0  0  0  0  0  0  0  0  0
  151.0592  144.3778  157.2878 H   0  0  0  0  0  0  0  0  0  0  0  0
  151.2727  146.3593  158.8152 H   0  0  0  0  0  0  0  0  0  0  0  0
  150.2757  145.1061  159.5224 H   0  0  0  0  0  0  0  0  0  0  0  0
  153.2282  145.6193  160.1320 H   0  0  0  0  0  0  0  0  0  0  0  0
  151.8897  145.9303  161.2114 H   0  0  0  0  0  0  0  0  0  0  0  0
  151.3912  143.5197  161.3920 H   0  0  0  0  0  0  0  0  0  0  0  0
  153.0906  143.8045  161.7444 H   0  0  0  0  0  0  0  0  0  0  0  0
  152.8168  138.5186  159.2276 H   0  0  0  0  0  0  0  0  0  0  0  0
  1  2  1  0  0  0  0
  1 24  1  0  0  0  0
  1 25  1  0  0  0  0
  1 26  1  0  0  0  0
  2  3  1  0  0  0  0
  2  9  1  0  0  0  0
  2 27  1  0  0  0  0
  3  4  1  0  0  0  0
  4  5  1  0  0  0  0
  4 28  1  0  0  0  0
  4 29  1  0  0  0  0
  5  6  1  0  0  0  0
  5  7  1  0  0  0  0
  5  8  1  0  0  0  0
  9 10  2  0  0  0  0
  9 11  1  0  0  0  0
 11 12  1  0  0  0  0
 11 30  1  0  0  0  0
 12 23  1  0  0  0  0
 12 13  2  0  0  0  0
 13 14  1  0  0  0  0
 13 31  1  0  0  0  0
 14 15  2  0  0  0  0
 14 32  1  0  0  0  0
 15 16  1  0  0  0  0
 15 22  1  0  0  0  0
 16 21  1  0  0  0  0
 16 17  1  0  0  0  0
 17 18  1  0  0  0  0
 17 33  1  0  0  0  0
 17 34  1  0  0  0  0
 18 19  1  0  0  0  0
 18 35  1  0  0  0  0
 18 36  1  0  0  0  0
 19 20  1  0  0  0  0
 19 37  1  0  0  0  0
 19 38  1  0  0  0  0
 20 21  1  0  0  0  0
 20 39  1  0  0  0  0
 20 40  1  0  0  0  0
 21 41  1  0  0  0  0
 21 42  1  0  0  0  0
 22 23  2  0  0  0  0
 23 43  1  0  0  0  0
M  END
> <s_m_source_file>
AV-unprocessed.smi

> <i_m_source_file_index>
1627

> <i_lp_mmshare_version>
43012

> <i_f3d_flags>
0

> <s_epik_input>
RkMoRikoRilbQ0gyXU9bQ0BASF0oW0NIM10pQyg9TylbTkhdYzFbY0hdW2NIXWMobltjSF0xKU4yW0NIMl1bQ0gyXVtDSDJdW0NIMl1bQ0gyXTI=

> <s_epik_cmdline>
J2VwaWtfcHl0aG9uJywgJy1waCcsICc3LjAnLCAnLXRuJywgJzgnLCAnLW1hJywgJzIwMCcsICctbWV0YWxfYmluZGluZycsICctaW1hZScsICc8aW5maWxlLm1hZT4nLCAnLW9tYWUnLCAnPG91dGZpbGUubWFlPic=

> <r_lp_tautomer_probability>
1

> <r_epik_Ionization_Penalty>
0.0254771

> <r_epik_Ionization_Penalty_Charging>
0

> <r_epik_Ionization_Penalty_Neutral>
0.0254771

> <r_epik_State_Penalty>
0.0187406

> <r_epik_Charging_Adjusted_Penalty>
0.0187406

> <i_epik_Tot_Q>
0

> <i_epik_Tot_abs_Q>
0

> <r_epik_Metal_State_Penalty>
0.017939

> <b_epik_Metal_Only>
0

> <s_lp_Force_Field>
OPLS_2005

> <r_lp_Energy>
25.1621

> <b_lp_Chiralities_Consistent>
1

> <s_lp_Variant>
AV-unprocessed.smi:1627-2

> <Gold.Version>
5.8.1

> <Gold.Id.Protein>
6NUR|6NUR_protein|mol2

> <Gold.PLP.Fitness>
51.7117

> <Gold.PLP.PLP>
-50.5179

> <Gold.PLP.part.hbond>
-1.0000

> <Gold.PLP.part.metal>
0.0000

> <Gold.PLP.part.buried>
-3.9242

> <Gold.PLP.part.nonpolar>
-45.7680

> <Gold.PLP.part.repulsive>
0.0000

> <Gold.PLP.ligand.clash>
0.0000

> <Gold.PLP.ligand.torsion>
1.0828

> <Gold.PLP.Chemscore.Hbond>
1.0000

> <Gold.PLP.Chemscore.CHOScore>
0.0000

> <Gold.PLP.Chemscore.Metal>
0.0000

> <Gold.Chemscore.Hbonds>
donor molecule, donor type, donor heavy atom, donor atom, acceptor molecule, acceptor atom, score
      P1  H  6896  6908       L1    10  1.00

> <Gold.PLP.Chemscore.Internal.Correction>
0.3593

> <Gold.Rescore>
     Score         DG    S(hbond)    S(metal)    S(lipo)     H(rot)  DE(clash)    DE(int)     intcor
     14.56     -17.01       1.00        0.00     105.68       1.63       0.43       2.02       ----

> <Gold.Chemscore.Fitness>
14.5589

> <Gold.Chemscore.DG>
-17.0059

> <Gold.Chemscore.ZeroCoef>
-5.4800

> <Gold.Chemscore.Hbond>
0.9952

> <Gold.Chemscore.Metal>
0.0000

> <Gold.Chemscore.Lipo>
105.6773

> <Gold.Chemscore.Internal_Hbond>
0.0000

> <Gold.Chemscore.DEClash>
0.4290

> <Gold.Chemscore.DEInternal>
2.0180

> <Gold.Chemscore.Rot>
1.6260

> <Gold.Chemscore.Internal.Correction>
   9.000000E+99

> <Gold.Chemscore.Hbonds>
donor molecule, donor type, donor heavy atom, donor atom, acceptor molecule, acceptor atom, score
      P1  H  6896  6908       L1    10  0.77

> <Gold.Chemscore.Hbond.Weighted>
-3.3241

> <Gold.Chemscore.Metal.Weighted>
-0.0000

> <Gold.Chemscore.Lipo.Weighted>
-12.3642

> <Gold.Chemscore.Internal_Hbond.Weighted>
0.0000

> <Gold.Chemscore.DEClash.Weighted>
0.4290

> <Gold.Chemscore.DEInternal.Weighted>
2.0180

> <Gold.Chemscore.Rot.Weighted>
4.1625

> <Gold.Chemscore.Internal.Correction.Weighted>
   9.000000E+99

> <Gold.Protein.RotatedTorsions>
[ 6907 6896 6895 6894 ] final  -84.33 input  -60.11 | X-H torsion
[ 7974 7965 7964 7962 ] final  -28.81 input  175.53 | X-H torsion
[ 8008 7997 7996 7995 ] final  105.64 input   59.86 | X-H torsion
[ 10167 10162 10161 10158 ] final   10.06 input  -65.29 | X-H torsion
[ 10718 10713 10712 10709 ] final  108.85 input   66.30 | X-H torsion
[ 10763 10752 10751 10750 ] final   68.01 input  -60.55 | X-H torsion
[ 11005 11000 10999 10996 ] final  -95.69 input  -57.11 | X-H torsion

> <Gold.Protein.ActiveResidues>
 VAL166  LYS551  ARG553  GLY616  TRP617  ASP618  TYR619  PRO620  LYS621  CYS622 
 ASP623  PHE694  ASN695  SER759  ASP760  ASP761  ALA762  ILE779  LEU786  VAL792 
 PHE793  MET794  SER795  GLU796  ALA797  LYS798  CYS799  TRP800  GLU811  SER814 

> <Gold.Protein.RotatedAtoms>
  150.6877  134.3375  159.4853 H   0  0  0  0  0  0  0  0  0  0  0  0  # atno 6907 bound_to 6896
  152.1232  134.9187  160.0571 H   0  0  0  0  0  0  0  0  0  0  0  0  # atno 6908 bound_to 6896
  152.0385  133.3933  159.4364 H   0  0  0  0  0  0  0  0  0  0  0  0  # atno 6909 bound_to 6896
  146.1262  140.5330  142.8713 H   0  0  0  0  0  0  0  0  0  0  0  0  # atno 7974 bound_to 7965
  156.1676  140.3127  155.8917 H   0  0  0  0  0  0  0  0  0  0  0  0  # atno 8008 bound_to 7997
  155.3653  140.0479  157.3063 H   0  0  0  0  0  0  0  0  0  0  0  0  # atno 8009 bound_to 7997
  154.5208  140.2197  155.8990 H   0  0  0  0  0  0  0  0  0  0  0  0  # atno 8010 bound_to 7997
  140.6217  143.8189  150.7183 H   0  0  0  0  0  0  0  0  0  0  0  0  # atno 10167 bound_to 10162
  157.6568  131.0902  150.6367 H   0  0  0  0  0  0  0  0  0  0  0  0  # atno 10718 bound_to 10713
  153.0214  135.5263  154.7068 H   0  0  0  0  0  0  0  0  0  0  0  0  # atno 10763 bound_to 10752
  154.6161  135.2883  155.0380 H   0  0  0  0  0  0  0  0  0  0  0  0  # atno 10764 bound_to 10752
  154.1384  135.6582  153.4989 H   0  0  0  0  0  0  0  0  0  0  0  0  # atno 10765 bound_to 10752
  141.1434  133.8044  157.0470 H   0  0  0  0  0  0  0  0  0  0  0  0  # atno 11005 bound_to 11000
  144.7644  140.5497  143.6713 LP  0  0  0  0  0  0  0  0  0  0  0  0  # atno 17320 bound_to 7965
  145.5360  139.1475  143.3473 LP  0  0  0  0  0  0  0  0  0  0  0  0  # atno 17321 bound_to 7965
  140.1781  143.4138  152.1953 LP  0  0  0  0  0  0  0  0  0  0  0  0  # atno 17342 bound_to 10162
  139.5445  144.7286  151.4628 LP  0  0  0  0  0  0  0  0  0  0  0  0  # atno 17343 bound_to 10162
  156.6672  130.4529  149.5668 LP  0  0  0  0  0  0  0  0  0  0  0  0  # atno 17370 bound_to 10713
  156.2023  130.6628  151.1181 LP  0  0  0  0  0  0  0  0  0  0  0  0  # atno 17371 bound_to 10713
  140.0656  134.9731  157.1380 LP  0  0  0  0  0  0  0  0  0  0  0  0  # atno 17394 bound_to 11000
  140.3785  134.2313  155.7172 LP  0  0  0  0  0  0  0  0  0  0  0  0  # atno 17395 bound_to 11000

$$$$
