AV-unprocessed.smi:1225|AV-procd|sdf|5137|dock2
  -GOLD-   22720 4203D 1   1.00000     0.00000
 Structure written by MMmdl.
 48 50  0  0  0  0  0  0  0  0  1 V2000
  144.9651  145.6253  151.9599 C   0  0  0  0  0  0  0  0  0  0  0  0
  144.8975  144.8142  153.2085 C   0  0  0  0  0  0  0  0  0  0  0  0
  144.0972  145.1048  154.2369 N   0  0  0  0  0  0  0  0  0  0  0  0
  144.2222  144.1896  155.2845 C   0  0  0  0  0  0  0  0  0  0  0  0
  145.1334  143.1910  155.0428 C   0  0  0  0  0  0  0  0  0  0  0  0
  145.5064  142.0607  155.9469 C   0  0  0  0  0  0  0  0  0  0  0  0
  146.9496  141.8092  155.9999 N   0  0  0  0  0  0  0  0  0  0  0  0
  147.2790  141.0210  157.1852 C   0  0  0  0  0  0  0  0  0  0  0  0
  147.4331  141.1414  154.7881 C   0  0  0  0  0  0  0  0  0  0  0  0
  148.9685  141.0274  154.6585 C   0  0  1  0  0  0  0  0  0  0  0  0
  149.2752  141.1360  153.2819 O   0  0  0  0  0  0  0  0  0  0  0  0
  149.7826  142.0786  155.4427 C   0  0  0  0  0  0  0  0  0  0  0  0
  150.7865  141.4844  156.3081 N   0  0  0  0  0  0  0  0  0  0  0  0
  151.4806  140.3506  156.0917 C   0  0  0  0  0  0  0  0  0  0  0  0
  152.3630  139.9905  157.0190 N   0  0  0  0  0  0  0  0  0  0  0  0
  152.2279  141.0117  157.9439 C   0  0  0  0  0  0  0  0  0  0  0  0
  152.8901  141.2298  159.1717 C   0  0  0  0  0  0  0  0  0  0  0  0
  152.5907  142.3597  159.9658 C   0  0  0  0  0  0  0  0  0  0  0  0
  153.3288  142.5555  161.2784 C   0  0  0  0  0  0  0  0  0  0  0  0
  151.6127  143.2921  159.5351 C   0  0  0  0  0  0  0  0  0  0  0  0
  151.2719  144.5114  160.3735 C   0  0  0  0  0  0  0  0  0  0  0  0
  150.9438  143.0905  158.3097 C   0  0  0  0  0  0  0  0  0  0  0  0
  151.2509  141.9627  157.5283 C   0  0  0  0  0  0  0  0  0  0  0  0
  145.8728  143.3743  153.4736 S   0  0  0  0  0  0  0  0  0  0  0  0
  144.1538  146.3533  151.9301 H   0  0  0  0  0  0  0  0  0  0  0  0
  144.8830  144.9758  151.0882 H   0  0  0  0  0  0  0  0  0  0  0  0
  145.9149  146.1578  151.9134 H   0  0  0  0  0  0  0  0  0  0  0  0
  143.6204  144.3227  156.1716 H   0  0  0  0  0  0  0  0  0  0  0  0
  145.1307  142.2545  156.9528 H   0  0  0  0  0  0  0  0  0  0  0  0
  144.9719  141.1760  155.6116 H   0  0  0  0  0  0  0  0  0  0  0  0
  148.3559  140.8671  157.2611 H   0  0  0  0  0  0  0  0  0  0  0  0
  146.7974  140.0425  157.1548 H   0  0  0  0  0  0  0  0  0  0  0  0
  146.9632  141.5268  158.0979 H   0  0  0  0  0  0  0  0  0  0  0  0
  147.0540  140.1180  154.7776 H   0  0  0  0  0  0  0  0  0  0  0  0
  147.0055  141.6115  153.9011 H   0  0  0  0  0  0  0  0  0  0  0  0
  149.2737  140.0296  154.9763 H   0  0  0  0  0  0  0  0  0  0  0  0
  149.3363  140.2662  152.9180 H   0  0  0  0  0  0  0  0  0  0  0  0
  150.2767  142.7691  154.7576 H   0  0  0  0  0  0  0  0  0  0  0  0
  149.1227  142.6703  156.0768 H   0  0  0  0  0  0  0  0  0  0  0  0
  151.3289  139.7551  155.2032 H   0  0  0  0  0  0  0  0  0  0  0  0
  153.6344  140.5192  159.4999 H   0  0  0  0  0  0  0  0  0  0  0  0
  152.6341  142.5062  162.1169 H   0  0  0  0  0  0  0  0  0  0  0  0
  153.8282  143.5243  161.2975 H   0  0  0  0  0  0  0  0  0  0  0  0
  154.0881  141.7870  161.4263 H   0  0  0  0  0  0  0  0  0  0  0  0
  150.4544  145.0820  159.9318 H   0  0  0  0  0  0  0  0  0  0  0  0
  152.1362  145.1707  160.4550 H   0  0  0  0  0  0  0  0  0  0  0  0
  150.9663  144.2144  161.3770 H   0  0  0  0  0  0  0  0  0  0  0  0
  150.1982  143.7934  157.9679 H   0  0  0  0  0  0  0  0  0  0  0  0
  1  2  1  0  0  0  0
  1 25  1  0  0  0  0
  1 26  1  0  0  0  0
  1 27  1  0  0  0  0
  2 24  1  0  0  0  0
  2  3  2  0  0  0  0
  3  4  1  0  0  0  0
  4  5  2  0  0  0  0
  4 28  1  0  0  0  0
  5  6  1  0  0  0  0
  5 24  1  0  0  0  0
  6  7  1  0  0  0  0
  6 29  1  0  0  0  0
  6 30  1  0  0  0  0
  7  8  1  0  0  0  0
  7  9  1  0  0  0  0
  8 31  1  0  0  0  0
  8 32  1  0  0  0  0
  8 33  1  0  0  0  0
  9 10  1  0  0  0  0
  9 34  1  0  0  0  0
  9 35  1  0  0  0  0
 10 11  1  0  0  0  0
 10 12  1  0  0  0  0
 10 36  1  0  0  0  0
 11 37  1  0  0  0  0
 12 13  1  0  0  0  0
 12 38  1  0  0  0  0
 12 39  1  0  0  0  0
 13 23  1  0  0  0  0
 13 14  1  0  0  0  0
 14 15  2  0  0  0  0
 14 40  1  0  0  0  0
 15 16  1  0  0  0  0
 16 23  2  0  0  0  0
 16 17  1  0  0  0  0
 17 18  2  0  0  0  0
 17 41  1  0  0  0  0
 18 19  1  0  0  0  0
 18 20  1  0  0  0  0
 19 42  1  0  0  0  0
 19 43  1  0  0  0  0
 19 44  1  0  0  0  0
 20 21  1  0  0  0  0
 20 22  2  0  0  0  0
 21 45  1  0  0  0  0
 21 46  1  0  0  0  0
 21 47  1  0  0  0  0
 22 23  1  0  0  0  0
 22 48  1  0  0  0  0
M  END
> <s_m_source_file>
AV-unprocessed.smi

> <i_m_source_file_index>
1225

> <i_lp_mmshare_version>
43012

> <i_f3d_flags>
0

> <s_epik_input>
W0NIM11jMW5bY0hdYyhzMSlbQ0gyXU4oW0NIM10pW0NIMl1bQ0BIXShbT0hdKVtDSDJdbihbY0hdbjIpYyhjMjMpW2NIXWMoW0NIM10pYyhbY0hdMylbQ0gzXQ==

> <s_epik_cmdline>
J2VwaWtfcHl0aG9uJywgJy1waCcsICc3LjAnLCAnLXRuJywgJzgnLCAnLW1hJywgJzIwMCcsICctbWV0YWxfYmluZGluZycsICctaW1hZScsICc8aW5maWxlLm1hZT4nLCAnLW9tYWUnLCAnPG91dGZpbGUubWFlPic=

> <r_epik_Ionization_Penalty>
0.12717

> <r_epik_Ionization_Penalty_Charging>
0

> <r_epik_Ionization_Penalty_Neutral>
0.12717

> <r_epik_State_Penalty>
0.11216

> <r_epik_Charging_Adjusted_Penalty>
0.11216

> <i_epik_Tot_Q>
0

> <i_epik_Tot_abs_Q>
0

> <r_epik_Metal_State_Penalty>
0.099641

> <b_epik_Metal_Only>
0

> <s_lp_Force_Field>
OPLS_2005

> <r_lp_Energy>
16.9623

> <b_lp_Chiralities_Consistent>
1

> <s_lp_Variant>
AV-unprocessed.smi:1225-2

> <Gold.Version>
5.8.1

> <Gold.Id.Protein>
6NUR|6NUR_protein|mol2

> <Gold.PLP.Fitness>
55.8617

> <Gold.PLP.PLP>
-52.3938

> <Gold.PLP.part.hbond>
-3.6100

> <Gold.PLP.part.metal>
0.0000

> <Gold.PLP.part.buried>
-4.2465

> <Gold.PLP.part.nonpolar>
-45.0358

> <Gold.PLP.part.repulsive>
0.1960

> <Gold.PLP.ligand.clash>
0.0000

> <Gold.PLP.ligand.torsion>
1.9475

> <Gold.PLP.Chemscore.Hbond>
2.3754

> <Gold.PLP.Chemscore.CHOScore>
0.0000

> <Gold.PLP.Chemscore.Metal>
0.0000

> <Gold.Chemscore.Hbonds>
donor molecule, donor type, donor heavy atom, donor atom, acceptor molecule, acceptor atom, score
      L1  H    11    37       P1  7957  0.40
      P1  H  7997  8010       L1    15  0.94
      P1  H  8011  8017       L1    11  1.00

> <Gold.PLP.Chemscore.Internal.Correction>
0.2366

> <Gold.Rescore>
     Score         DG    S(hbond)    S(metal)    S(lipo)     H(rot)  DE(clash)    DE(int)     intcor
     17.94     -21.41       1.75        0.00     136.28       2.28       1.34       2.13       ----

> <Gold.Chemscore.Fitness>
17.9365

> <Gold.Chemscore.DG>
-21.4066

> <Gold.Chemscore.ZeroCoef>
-5.4800

> <Gold.Chemscore.Hbond>
1.7453

> <Gold.Chemscore.Metal>
0.0000

> <Gold.Chemscore.Lipo>
136.2839

> <Gold.Chemscore.Internal_Hbond>
0.0000

> <Gold.Chemscore.DEClash>
1.3422

> <Gold.Chemscore.DEInternal>
2.1279

> <Gold.Chemscore.Rot>
2.2844

> <Gold.Chemscore.Internal.Correction>
   9.000000E+99

> <Gold.Chemscore.Hbonds>
donor molecule, donor type, donor heavy atom, donor atom, acceptor molecule, acceptor atom, score
      L1  H    11    37       P1  7957  0.40
      P1  H  7997  8010       L1    15  0.22
      P1  H  8011  8017       L1    11  0.93

> <Gold.Chemscore.Hbond.Weighted>
-5.8294

> <Gold.Chemscore.Metal.Weighted>
-0.0000

> <Gold.Chemscore.Lipo.Weighted>
-15.9452

> <Gold.Chemscore.Internal_Hbond.Weighted>
0.0000

> <Gold.Chemscore.DEClash.Weighted>
1.3422

> <Gold.Chemscore.DEInternal.Weighted>
2.1279

> <Gold.Chemscore.Rot.Weighted>
5.8480

> <Gold.Chemscore.Internal.Correction.Weighted>
   9.000000E+99

> <Gold.Protein.RotatedTorsions>
[ 6907 6896 6895 6894 ] final   26.09 input  -60.11 | X-H torsion
[ 7974 7965 7964 7962 ] final -159.67 input  175.53 | X-H torsion
[ 8008 7997 7996 7995 ] final   57.58 input   59.86 | X-H torsion
[ 10167 10162 10161 10158 ] final   43.94 input  -65.29 | X-H torsion
[ 10718 10713 10712 10709 ] final   53.07 input   66.30 | X-H torsion
[ 10763 10752 10751 10750 ] final   36.57 input  -60.55 | X-H torsion
[ 11005 11000 10999 10996 ] final   82.43 input  -57.11 | X-H torsion

> <Gold.Protein.ActiveResidues>
 VAL166  LYS551  ARG553  GLY616  TRP617  ASP618  TYR619  PRO620  LYS621  CYS622 
 ASP623  PHE694  ASN695  SER759  ASP760  ASP761  ALA762  ILE779  LEU786  VAL792 
 PHE793  MET794  SER795  GLU796  ALA797  LYS798  CYS799  TRP800  GLU811  SER814 

> <Gold.Protein.RotatedAtoms>
  151.9822  135.0022  160.0557 H   0  0  0  0  0  0  0  0  0  0  0  0  # atno 6907 bound_to 6896
  152.1685  133.4623  159.4905 H   0  0  0  0  0  0  0  0  0  0  0  0  # atno 6908 bound_to 6896
  150.6898  134.1900  159.4324 H   0  0  0  0  0  0  0  0  0  0  0  0  # atno 6909 bound_to 6896
  144.7456  140.3652  143.6088 H   0  0  0  0  0  0  0  0  0  0  0  0  # atno 7974 bound_to 7965
  155.5360  140.3483  155.4436 H   0  0  0  0  0  0  0  0  0  0  0  0  # atno 8008 bound_to 7997
  156.0685  140.1357  156.9884 H   0  0  0  0  0  0  0  0  0  0  0  0  # atno 8009 bound_to 7997
  154.4515  140.0970  156.6608 H   0  0  0  0  0  0  0  0  0  0  0  0  # atno 8010 bound_to 7997
  140.3393  144.2490  150.6157 H   0  0  0  0  0  0  0  0  0  0  0  0  # atno 10167 bound_to 10162
  157.5133  130.8515  149.8463 H   0  0  0  0  0  0  0  0  0  0  0  0  # atno 10718 bound_to 10713
  153.0071  135.6302  154.2007 H   0  0  0  0  0  0  0  0  0  0  0  0  # atno 10763 bound_to 10752
  154.1750  135.2816  155.3071 H   0  0  0  0  0  0  0  0  0  0  0  0  # atno 10764 bound_to 10752
  154.5879  135.5627  153.7309 H   0  0  0  0  0  0  0  0  0  0  0  0  # atno 10765 bound_to 10752
  139.9064  134.8070  156.2173 H   0  0  0  0  0  0  0  0  0  0  0  0  # atno 11005 bound_to 11000
  145.7136  139.1691  143.2525 LP  0  0  0  0  0  0  0  0  0  0  0  0  # atno 17320 bound_to 7965
  146.1329  140.7161  142.9403 LP  0  0  0  0  0  0  0  0  0  0  0  0  # atno 17321 bound_to 7965
  140.5324  143.2240  151.8218 LP  0  0  0  0  0  0  0  0  0  0  0  0  # atno 17342 bound_to 10162
  139.4843  144.4704  151.9432 LP  0  0  0  0  0  0  0  0  0  0  0  0  # atno 17343 bound_to 10162
  156.0303  130.3766  150.1705 LP  0  0  0  0  0  0  0  0  0  0  0  0  # atno 17370 bound_to 10713
  156.9894  130.9889  151.3418 LP  0  0  0  0  0  0  0  0  0  0  0  0  # atno 17371 bound_to 10713
  141.0428  133.6929  156.1628 LP  0  0  0  0  0  0  0  0  0  0  0  0  # atno 17394 bound_to 11000
  140.6930  134.4645  157.5588 LP  0  0  0  0  0  0  0  0  0  0  0  0  # atno 17395 bound_to 11000

$$$$
