AV-unprocessed.smi:2807|AV-procd|sdf|10820|dock6
  -GOLD-   2272015253D 1   1.00000     0.00000
 Structure written by MMmdl.
 31 32  0  0  0  0  0  0  0  0  2 V2000
  148.7242  141.9530  158.7998 O   0  0  0  0  0  0  0  0  0  0  0  0
  149.3266  141.6183  157.7727 C   0  0  0  0  0  0  0  0  0  0  0  0
  148.8665  140.9701  156.6642 N   0  5  0  0  0  0  0  0  0  0  0  0
  148.3332  141.6472  155.4829 C   0  0  2  0  0  0  0  0  0  0  0  0
  146.8221  141.8884  155.5974 C   0  0  0  0  0  0  0  0  0  0  0  0
  146.3011  141.9483  154.1515 C   0  0  0  0  0  0  0  0  0  0  0  0
  147.4052  141.3513  153.2630 C   0  0  0  0  0  0  0  0  0  0  0  0
  148.4399  140.7666  154.2334 C   0  0  1  0  0  0  0  0  0  0  0  0
  149.7429  140.7781  153.6894 O   0  0  0  0  0  0  0  0  0  0  0  0
  150.8361  141.9255  157.6773 C   0  0  0  0  0  0  0  0  0  0  0  0
  151.5313  140.7868  157.5802 F   0  0  0  0  0  0  0  0  0  0  0  0
  151.0622  142.6256  156.5628 F   0  0  0  0  0  0  0  0  0  0  0  0
  151.2908  142.7493  158.8813 C   0  0  0  0  0  0  0  0  0  0  0  0
  150.7480  144.0327  159.1207 C   0  0  0  0  0  0  0  0  0  0  0  0
  151.1780  144.7485  160.2541 C   0  0  0  0  0  0  0  0  0  0  0  0
  152.1322  144.1610  161.1061 C   0  0  0  0  0  0  0  0  0  0  0  0
  152.6151  142.8773  160.7844 C   0  0  0  0  0  0  0  0  0  0  0  0
  152.2103  142.1835  159.6999 N   0  0  0  0  0  0  0  0  0  0  0  0
  148.8252  142.6016  155.2844 H   0  0  0  0  0  0  0  0  0  0  0  0
  146.3425  141.0547  156.1136 H   0  0  0  0  0  0  0  0  0  0  0  0
  146.5912  142.7941  156.1590 H   0  0  0  0  0  0  0  0  0  0  0  0
  145.3706  141.3876  154.0566 H   0  0  0  0  0  0  0  0  0  0  0  0
  146.0895  142.9762  153.8526 H   0  0  0  0  0  0  0  0  0  0  0  0
  147.0204  140.5943  152.5789 H   0  0  0  0  0  0  0  0  0  0  0  0
  147.8453  142.1419  152.6508 H   0  0  0  0  0  0  0  0  0  0  0  0
  148.1635  139.7383  154.4744 H   0  0  0  0  0  0  0  0  0  0  0  0
  149.6815  140.4780  152.7949 H   0  0  0  0  0  0  0  0  0  0  0  0
  150.0095  144.4538  158.4545 H   0  0  0  0  0  0  0  0  0  0  0  0
  150.7803  145.7295  160.4675 H   0  0  0  0  0  0  0  0  0  0  0  0
  152.4837  144.6799  161.9855 H   0  0  0  0  0  0  0  0  0  0  0  0
  153.3467  142.3950  161.4155 H   0  0  0  0  0  0  0  0  0  0  0  0
  1  2  2  0  0  0  0
  2  3  1  0  0  0  0
  2 10  1  0  0  0  0
  3  4  1  0  0  0  0
  4  8  1  0  0  0  0
  4  5  1  0  0  0  0
  4 19  1  0  0  0  0
  5  6  1  0  0  0  0
  5 20  1  0  0  0  0
  5 21  1  0  0  0  0
  6  7  1  0  0  0  0
  6 22  1  0  0  0  0
  6 23  1  0  0  0  0
  7  8  1  0  0  0  0
  7 24  1  0  0  0  0
  7 25  1  0  0  0  0
  8  9  1  0  0  0  0
  8 26  1  0  0  0  0
  9 27  1  0  0  0  0
 10 11  1  0  0  0  0
 10 12  1  0  0  0  0
 10 13  1  0  0  0  0
 13 18  1  0  0  0  0
 13 14  2  0  0  0  0
 14 15  1  0  0  0  0
 14 28  1  0  0  0  0
 15 16  2  0  0  0  0
 15 29  1  0  0  0  0
 16 17  1  0  0  0  0
 16 30  1  0  0  0  0
 17 18  2  0  0  0  0
 17 31  1  0  0  0  0
M  CHG  1   3  -1
M  END
> <s_m_source_file>
AV-unprocessed.smi

> <i_m_source_file_index>
2807

> <i_lp_mmshare_version>
43012

> <i_f3d_flags>
0

> <s_epik_input>
bjFbY0hdW2NIXVtjSF1bY0hdYzFDKEYpKEYpQyg9TylbTkhdW0NAQEhdMltDSDJdW0NIMl1bQ0gyXVtDQEhdMltPSF0=

> <s_epik_cmdline>
J2VwaWtfcHl0aG9uJywgJy1waCcsICc3LjAnLCAnLXRuJywgJzgnLCAnLW1hJywgJzIwMCcsICctbWV0YWxfYmluZGluZycsICctaW1hZScsICc8aW5maWxlLm1hZT4nLCAnLW9tYWUnLCAnPG91dGZpbGUubWFlPic=

> <r_lp_tautomer_probability>
1

> <r_epik_Ionization_Penalty>
5.72231

> <r_epik_Ionization_Penalty_Charging>
5.72231

> <r_epik_Ionization_Penalty_Neutral>
5.49816e-06

> <r_epik_State_Penalty>
5.72227

> <r_epik_Charging_Adjusted_Penalty>
11.4446

> <i_epik_Tot_Q>
-1

> <i_epik_Tot_abs_Q>
1

> <r_epik_Metal_State_Penalty>
1.70075

> <b_epik_Metal_Only>
1

> <s_lp_Force_Field>
OPLS_2005

> <r_lp_Energy>
34.3832

> <b_lp_Chiralities_Consistent>
1

> <s_lp_Variant>
AV-unprocessed.smi:2807-5

> <Gold.Version>
5.8.1

> <Gold.Id.Protein>
6NUR|6NUR_protein|mol2

> <Gold.PLP.Fitness>
39.5459

> <Gold.PLP.PLP>
-37.9654

> <Gold.PLP.part.hbond>
-2.7249

> <Gold.PLP.part.metal>
0.0000

> <Gold.PLP.part.buried>
-6.4919

> <Gold.PLP.part.nonpolar>
-28.9983

> <Gold.PLP.part.repulsive>
0.1712

> <Gold.PLP.ligand.clash>
0.0000

> <Gold.PLP.ligand.torsion>
1.1938

> <Gold.PLP.Chemscore.Hbond>
1.3058

> <Gold.PLP.Chemscore.CHOScore>
0.0000

> <Gold.PLP.Chemscore.Metal>
0.0000

> <Gold.Chemscore.Hbonds>
donor molecule, donor type, donor heavy atom, donor atom, acceptor molecule, acceptor atom, score
      L1  H     9    27       P1  7957  1.00
      P1  H  7989  7998       L1     9  0.17

> <Gold.PLP.Chemscore.Internal.Correction>
0.0508

> <Gold.Rescore>
     Score         DG    S(hbond)    S(metal)    S(lipo)     H(rot)  DE(clash)    DE(int)     intcor
     11.93     -14.37       1.00        0.00      91.07       2.00       0.02       2.42       ----

> <Gold.Chemscore.Fitness>
11.9272

> <Gold.Chemscore.DG>
-14.3681

> <Gold.Chemscore.ZeroCoef>
-5.4800

> <Gold.Chemscore.Hbond>
1.0011

> <Gold.Chemscore.Metal>
0.0000

> <Gold.Chemscore.Lipo>
91.0699

> <Gold.Chemscore.Internal_Hbond>
0.0000

> <Gold.Chemscore.DEClash>
0.0237

> <Gold.Chemscore.DEInternal>
2.4172

> <Gold.Chemscore.Rot>
1.9964

> <Gold.Chemscore.Internal.Correction>
   9.000000E+99

> <Gold.Chemscore.Hbonds>
donor molecule, donor type, donor heavy atom, donor atom, acceptor molecule, acceptor atom, score
      L1  H     9    27       P1  7957  1.00

> <Gold.Chemscore.Hbond.Weighted>
-3.3437

> <Gold.Chemscore.Metal.Weighted>
-0.0000

> <Gold.Chemscore.Lipo.Weighted>
-10.6552

> <Gold.Chemscore.Internal_Hbond.Weighted>
0.0000

> <Gold.Chemscore.DEClash.Weighted>
0.0237

> <Gold.Chemscore.DEInternal.Weighted>
2.4172

> <Gold.Chemscore.Rot.Weighted>
5.1108

> <Gold.Chemscore.Internal.Correction.Weighted>
   9.000000E+99

> <Gold.Protein.RotatedTorsions>
[ 6907 6896 6895 6894 ] final   57.55 input  -60.11 | X-H torsion
[ 7974 7965 7964 7962 ] final   69.05 input  175.53 | X-H torsion
[ 8008 7997 7996 7995 ] final   37.95 input   59.86 | X-H torsion
[ 10167 10162 10161 10158 ] final  -89.34 input  -65.29 | X-H torsion
[ 10718 10713 10712 10709 ] final  -44.84 input   66.30 | X-H torsion
[ 10763 10752 10751 10750 ] final   96.68 input  -60.55 | X-H torsion
[ 11005 11000 10999 10996 ] final  106.57 input  -57.11 | X-H torsion

> <Gold.Protein.ActiveResidues>
 VAL166  LYS551  ARG553  GLY616  TRP617  ASP618  TYR619  PRO620  LYS621  CYS622 
 ASP623  PHE694  ASN695  SER759  ASP760  ASP761  ALA762  ILE779  LEU786  VAL792 
 PHE793  MET794  SER795  GLU796  ALA797  LYS798  CYS799  TRP800  GLU811  SER814 

> <Gold.Protein.RotatedAtoms>
  152.3741  134.6689  160.0165 H   0  0  0  0  0  0  0  0  0  0  0  0  # atno 6907 bound_to 6896
  151.6973  133.3305  159.3266 H   0  0  0  0  0  0  0  0  0  0  0  0  # atno 6908 bound_to 6896
  150.7696  134.6582  159.6369 H   0  0  0  0  0  0  0  0  0  0  0  0  # atno 6909 bound_to 6896
  145.7951  139.2953  143.1187 H   0  0  0  0  0  0  0  0  0  0  0  0  # atno 7974 bound_to 7965
  155.2121  140.3324  155.4327 H   0  0  0  0  0  0  0  0  0  0  0  0  # atno 8008 bound_to 7997
  156.2366  140.1875  156.7151 H   0  0  0  0  0  0  0  0  0  0  0  0  # atno 8009 bound_to 7997
  154.6071  140.0614  156.9430 H   0  0  0  0  0  0  0  0  0  0  0  0  # atno 8010 bound_to 7997
  140.3658  143.2819  151.9560 H   0  0  0  0  0  0  0  0  0  0  0  0  # atno 10167 bound_to 10162
  156.2345  130.4175  149.8835 H   0  0  0  0  0  0  0  0  0  0  0  0  # atno 10718 bound_to 10713
  153.2678  135.4210  155.0958 H   0  0  0  0  0  0  0  0  0  0  0  0  # atno 10763 bound_to 10752
  154.8445  135.3465  154.6286 H   0  0  0  0  0  0  0  0  0  0  0  0  # atno 10764 bound_to 10752
  153.6706  135.7044  153.5205 H   0  0  0  0  0  0  0  0  0  0  0  0  # atno 10765 bound_to 10752
  139.8816  134.9373  156.5686 H   0  0  0  0  0  0  0  0  0  0  0  0  # atno 11005 bound_to 11000
  145.9936  140.8581  143.0054 LP  0  0  0  0  0  0  0  0  0  0  0  0  # atno 17320 bound_to 7965
  144.6776  140.2251  143.7362 LP  0  0  0  0  0  0  0  0  0  0  0  0  # atno 17321 bound_to 7965
  139.4809  144.5952  151.7703 LP  0  0  0  0  0  0  0  0  0  0  0  0  # atno 17342 bound_to 10162
  140.5082  144.1065  150.5988 LP  0  0  0  0  0  0  0  0  0  0  0  0  # atno 17343 bound_to 10162
  156.6438  130.8715  151.3519 LP  0  0  0  0  0  0  0  0  0  0  0  0  # atno 17370 bound_to 10713
  157.7148  130.9483  150.1215 LP  0  0  0  0  0  0  0  0  0  0  0  0  # atno 17371 bound_to 10713
  140.8115  133.8425  155.8814 LP  0  0  0  0  0  0  0  0  0  0  0  0  # atno 17394 bound_to 11000
  140.9502  134.1789  157.4733 LP  0  0  0  0  0  0  0  0  0  0  0  0  # atno 17395 bound_to 11000

$$$$
