AV-unprocessed.smi:2177|AV-procd|sdf|8851|dock5
  -GOLD-   2272012 43D 1   1.00000     0.00000
 Structure written by MMmdl.
 42 43  0  0  0  0  0  0  0  0  1 V2000
  153.5464  142.5199  162.9021 C   0  0  0  0  0  0  0  0  0  0  0  0
  152.8896  143.0739  161.6702 C   0  0  0  0  0  0  0  0  0  0  0  0
  151.8865  143.9263  161.7975 N   0  0  0  0  0  0  0  0  0  0  0  0
  151.5158  144.2132  160.5334 N   0  0  0  0  0  0  0  0  0  0  0  0
  150.4171  145.1311  160.3049 C   0  0  0  0  0  0  0  0  0  0  0  0
  152.2881  143.5426  159.6055 C   0  0  0  0  0  0  0  0  0  0  0  0
  152.0684  143.6844  158.1341 C   0  0  0  0  0  0  0  0  0  0  0  0
  153.1910  142.7877  160.3058 C   0  0  0  0  0  0  0  0  0  0  0  0
  154.2444  141.8454  159.7750 C   0  0  0  0  0  0  0  0  0  0  0  0
  153.5893  140.5228  159.3745 C   0  0  0  0  0  0  0  0  0  0  0  0
  153.8638  139.4886  159.9818 O   0  0  0  0  0  0  0  0  0  0  0  0
  152.7446  140.5741  158.3331 N   0  0  0  0  0  0  0  0  0  0  0  0
  152.1350  139.4297  157.6643 C   0  0  1  0  0  0  0  0  0  0  0  0
  151.0584  138.8126  158.5691 C   0  0  0  0  0  0  0  0  0  0  0  0
  151.5661  139.8830  156.3063 C   0  0  1  0  0  0  0  0  0  0  0  0
  151.1236  138.7419  155.3852 C   0  0  0  0  0  0  0  0  0  0  0  0
  150.0554  139.3772  154.5084 C   0  0  0  0  0  0  0  0  0  0  0  0
  149.7390  140.7041  155.2045 C   0  0  0  0  0  0  0  0  0  0  0  0
  150.3613  140.6120  156.4780 O   0  0  0  0  0  0  0  0  0  0  0  0
  153.3441  141.4534  163.0034 H   0  0  0  0  0  0  0  0  0  0  0  0
  153.1901  143.0120  163.8077 H   0  0  0  0  0  0  0  0  0  0  0  0
  154.6275  142.6507  162.8598 H   0  0  0  0  0  0  0  0  0  0  0  0
  150.7921  146.0398  159.8338 H   0  0  0  0  0  0  0  0  0  0  0  0
  149.9322  145.3944  161.2461 H   0  0  0  0  0  0  0  0  0  0  0  0
  149.6805  144.6665  159.6487 H   0  0  0  0  0  0  0  0  0  0  0  0
  152.8254  143.1432  157.5668 H   0  0  0  0  0  0  0  0  0  0  0  0
  152.1113  144.7313  157.8332 H   0  0  0  0  0  0  0  0  0  0  0  0
  151.0931  143.2888  157.8505 H   0  0  0  0  0  0  0  0  0  0  0  0
  154.7583  142.2707  158.9121 H   0  0  0  0  0  0  0  0  0  0  0  0
  155.0163  141.6431  160.5180 H   0  0  0  0  0  0  0  0  0  0  0  0
  152.5803  141.4774  157.9132 H   0  0  0  0  0  0  0  0  0  0  0  0
  152.8972  138.6724  157.4708 H   0  0  0  0  0  0  0  0  0  0  0  0
  150.5988  137.9447  158.0958 H   0  0  0  0  0  0  0  0  0  0  0  0
  150.2667  139.5291  158.7908 H   0  0  0  0  0  0  0  0  0  0  0  0
  151.4849  138.4816  159.5166 H   0  0  0  0  0  0  0  0  0  0  0  0
  152.2883  140.5141  155.7841 H   0  0  0  0  0  0  0  0  0  0  0  0
  151.9494  138.3226  154.8092 H   0  0  0  0  0  0  0  0  0  0  0  0
  150.6813  137.9339  155.9700 H   0  0  0  0  0  0  0  0  0  0  0  0
  150.4168  139.5494  153.4940 H   0  0  0  0  0  0  0  0  0  0  0  0
  149.1753  138.7360  154.4468 H   0  0  0  0  0  0  0  0  0  0  0  0
  150.1744  141.5387  154.6533 H   0  0  0  0  0  0  0  0  0  0  0  0
  148.6677  140.8822  155.3014 H   0  0  0  0  0  0  0  0  0  0  0  0
  1  2  1  0  0  0  0
  1 20  1  0  0  0  0
  1 21  1  0  0  0  0
  1 22  1  0  0  0  0
  2  8  1  0  0  0  0
  2  3  2  0  0  0  0
  3  4  1  0  0  0  0
  4  5  1  0  0  0  0
  4  6  1  0  0  0  0
  5 23  1  0  0  0  0
  5 24  1  0  0  0  0
  5 25  1  0  0  0  0
  6  7  1  0  0  0  0
  6  8  2  0  0  0  0
  7 26  1  0  0  0  0
  7 27  1  0  0  0  0
  7 28  1  0  0  0  0
  8  9  1  0  0  0  0
  9 10  1  0  0  0  0
  9 29  1  0  0  0  0
  9 30  1  0  0  0  0
 10 11  2  0  0  0  0
 10 12  1  0  0  0  0
 12 13  1  0  0  0  0
 12 31  1  0  0  0  0
 13 14  1  0  0  0  0
 13 15  1  0  0  0  0
 13 32  1  0  0  0  0
 14 33  1  0  0  0  0
 14 34  1  0  0  0  0
 14 35  1  0  0  0  0
 15 19  1  0  0  0  0
 15 16  1  0  0  0  0
 15 36  1  0  0  0  0
 16 17  1  0  0  0  0
 16 37  1  0  0  0  0
 16 38  1  0  0  0  0
 17 18  1  0  0  0  0
 17 39  1  0  0  0  0
 17 40  1  0  0  0  0
 18 19  1  0  0  0  0
 18 41  1  0  0  0  0
 18 42  1  0  0  0  0
M  END
> <s_m_source_file>
AV-unprocessed.smi

> <i_m_source_file_index>
2177

> <i_lp_mmshare_version>
43012

> <i_f3d_flags>
0

> <s_epik_input>
W0NIM11jMW5uKFtDSDNdKWMoW0NIM10pYzFbQ0gyXUMoPU8pW05IXVtDQEhdKFtDSDNdKVtDQEBIXTJbQ0gyXVtDSDJdW0NIMl1PMg==

> <s_epik_cmdline>
J2VwaWtfcHl0aG9uJywgJy1waCcsICc3LjAnLCAnLXRuJywgJzgnLCAnLW1hJywgJzIwMCcsICctbWV0YWxfYmluZGluZycsICctaW1hZScsICc8aW5maWxlLm1hZT4nLCAnLW9tYWUnLCAnPG91dGZpbGUubWFlPic=

> <r_lp_tautomer_probability>
1

> <r_epik_Ionization_Penalty>
0.00310467

> <r_epik_Ionization_Penalty_Charging>
0

> <r_epik_Ionization_Penalty_Neutral>
0.00310467

> <r_epik_State_Penalty>
0.00218493

> <r_epik_Charging_Adjusted_Penalty>
0.00218493

> <i_epik_Tot_Q>
0

> <i_epik_Tot_abs_Q>
0

> <r_epik_Metal_State_Penalty>
-0

> <b_epik_Metal_Only>
0

> <s_lp_Force_Field>
OPLS_2005

> <r_lp_Energy>
11.3681

> <b_lp_Chiralities_Consistent>
1

> <s_lp_Variant>
AV-unprocessed.smi:2177-4

> <Gold.Version>
5.8.1

> <Gold.Id.Protein>
6NUR|6NUR_protein|mol2

> <Gold.PLP.Fitness>
43.5086

> <Gold.PLP.PLP>
-44.7044

> <Gold.PLP.part.hbond>
0.0000

> <Gold.PLP.part.metal>
0.0000

> <Gold.PLP.part.buried>
-5.6638

> <Gold.PLP.part.nonpolar>
-38.8289

> <Gold.PLP.part.repulsive>
0.3106

> <Gold.PLP.ligand.clash>
0.0000

> <Gold.PLP.ligand.torsion>
0.6219

> <Gold.PLP.Chemscore.Hbond>
0.0000

> <Gold.PLP.Chemscore.CHOScore>
0.0000

> <Gold.PLP.Chemscore.Metal>
0.0000

> <Gold.PLP.Chemscore.Internal.Correction>
0.0480

> <Gold.Rescore>
     Score         DG    S(hbond)    S(metal)    S(lipo)     H(rot)  DE(clash)    DE(int)     intcor
     14.79     -15.46       0.00        0.00     117.35       1.46       0.02       0.66       ----

> <Gold.Chemscore.Fitness>
14.7916

> <Gold.Chemscore.DG>
-15.4649

> <Gold.Chemscore.ZeroCoef>
-5.4800

> <Gold.Chemscore.Hbond>
0.0000

> <Gold.Chemscore.Metal>
0.0000

> <Gold.Chemscore.Lipo>
117.3452

> <Gold.Chemscore.Internal_Hbond>
0.0000

> <Gold.Chemscore.DEClash>
0.0155

> <Gold.Chemscore.DEInternal>
0.6579

> <Gold.Chemscore.Rot>
1.4627

> <Gold.Chemscore.Internal.Correction>
   9.000000E+99

> <Gold.Chemscore.Hbond.Weighted>
-0.0000

> <Gold.Chemscore.Metal.Weighted>
-0.0000

> <Gold.Chemscore.Lipo.Weighted>
-13.7294

> <Gold.Chemscore.Internal_Hbond.Weighted>
0.0000

> <Gold.Chemscore.DEClash.Weighted>
0.0155

> <Gold.Chemscore.DEInternal.Weighted>
0.6579

> <Gold.Chemscore.Rot.Weighted>
3.7445

> <Gold.Chemscore.Internal.Correction.Weighted>
   9.000000E+99

> <Gold.Protein.RotatedTorsions>
[ 6907 6896 6895 6894 ] final  164.97 input  -60.11 | X-H torsion
[ 7974 7965 7964 7962 ] final   40.03 input  175.53 | X-H torsion
[ 8008 7997 7996 7995 ] final  159.88 input   59.86 | X-H torsion
[ 10167 10162 10161 10158 ] final   95.24 input  -65.29 | X-H torsion
[ 10718 10713 10712 10709 ] final   53.77 input   66.30 | X-H torsion
[ 10763 10752 10751 10750 ] final  146.70 input  -60.55 | X-H torsion
[ 11005 11000 10999 10996 ] final  -83.26 input  -57.11 | X-H torsion

> <Gold.Protein.ActiveResidues>
 VAL166  LYS551  ARG553  GLY616  TRP617  ASP618  TYR619  PRO620  LYS621  CYS622 
 ASP623  PHE694  ASN695  SER759  ASP760  ASP761  ALA762  ILE779  LEU786  VAL792 
 PHE793  MET794  SER795  GLU796  ALA797  LYS798  CYS799  TRP800  GLU811  SER814 

> <Gold.Protein.RotatedAtoms>
  151.9016  133.3539  159.3832 H   0  0  0  0  0  0  0  0  0  0  0  0  # atno 6907 bound_to 6896
  150.7079  134.4822  159.5485 H   0  0  0  0  0  0  0  0  0  0  0  0  # atno 6908 bound_to 6896
  152.2412  134.8227  160.0511 H   0  0  0  0  0  0  0  0  0  0  0  0  # atno 6909 bound_to 6896
  146.0938  139.5582  142.9459 H   0  0  0  0  0  0  0  0  0  0  0  0  # atno 7974 bound_to 7965
  156.2210  140.1819  156.7477 H   0  0  0  0  0  0  0  0  0  0  0  0  # atno 8008 bound_to 7997
  154.5865  140.0657  156.9207 H   0  0  0  0  0  0  0  0  0  0  0  0  # atno 8009 bound_to 7997
  155.2411  140.3322  155.4294 H   0  0  0  0  0  0  0  0  0  0  0  0  # atno 8010 bound_to 7997
  139.8007  144.6815  150.9768 H   0  0  0  0  0  0  0  0  0  0  0  0  # atno 10167 bound_to 10162
  157.5197  130.8556  149.8542 H   0  0  0  0  0  0  0  0  0  0  0  0  # atno 10718 bound_to 10713
  154.0262  135.2901  155.3374 H   0  0  0  0  0  0  0  0  0  0  0  0  # atno 10763 bound_to 10752
  154.7016  135.5186  153.8538 H   0  0  0  0  0  0  0  0  0  0  0  0  # atno 10764 bound_to 10752
  153.0659  135.6631  154.0479 H   0  0  0  0  0  0  0  0  0  0  0  0  # atno 10765 bound_to 10752
  141.1659  133.7286  156.8694 H   0  0  0  0  0  0  0  0  0  0  0  0  # atno 11005 bound_to 11000
  145.5989  141.0358  143.2029 LP  0  0  0  0  0  0  0  0  0  0  0  0  # atno 17320 bound_to 7965
  144.7379  139.7531  143.7322 LP  0  0  0  0  0  0  0  0  0  0  0  0  # atno 17321 bound_to 7965
  140.7820  143.4284  151.0732 LP  0  0  0  0  0  0  0  0  0  0  0  0  # atno 17342 bound_to 10162
  139.7956  143.8156  152.3157 LP  0  0  0  0  0  0  0  0  0  0  0  0  # atno 17343 bound_to 10162
  156.0345  130.3755  150.1598 LP  0  0  0  0  0  0  0  0  0  0  0  0  # atno 17370 bound_to 10713
  156.9786  130.9857  151.3442 LP  0  0  0  0  0  0  0  0  0  0  0  0  # atno 17371 bound_to 10713
  140.1792  134.9045  157.2928 LP  0  0  0  0  0  0  0  0  0  0  0  0  # atno 17394 bound_to 11000
  140.2414  134.3791  155.7479 LP  0  0  0  0  0  0  0  0  0  0  0  0  # atno 17395 bound_to 11000

$$$$
