AV-unprocessed.smi:2165|AV-procd|sdf|8813|dock2
  -GOLD-   2272012 03D 1   1.00000     0.00000
 Structure written by MMmdl.
 36 37  0  0  0  0  0  0  0  0  1 V2000
  152.6181  138.9123  154.9729 C   0  0  0  0  0  0  0  0  0  0  0  0
  151.8283  139.7015  155.8949 N   0  0  0  0  0  0  0  0  0  0  0  0
  152.2493  139.8163  157.2420 C   0  0  0  0  0  0  0  0  0  0  0  0
  153.2688  139.2735  157.6688 O   0  0  0  0  0  0  0  0  0  0  0  0
  151.3725  140.6253  158.0804 C   0  0  0  0  0  0  0  0  0  0  0  0
  150.2573  141.1945  157.5730 C   0  0  0  0  0  0  0  0  0  0  0  0
  149.8656  141.0607  156.2535 N   0  0  0  0  0  0  0  0  0  0  0  0
  148.6280  141.7022  155.7917 C   0  0  0  0  0  0  0  0  0  0  0  0
  147.4966  141.6360  156.8264 C   0  0  0  0  0  0  0  0  0  0  0  0
  147.1658  140.5613  157.3298 O   0  0  0  0  0  0  0  0  0  0  0  0
  146.9214  142.8049  157.1455 N   0  0  0  0  0  0  0  0  0  0  0  0
  145.8177  142.9668  158.0845 C   0  0  0  0  0  0  0  0  0  0  0  0
  146.2850  143.6186  159.3967 C   0  0  1  0  0  0  0  0  0  0  0  0
  145.2585  144.5688  160.0102 C   0  0  0  0  0  0  0  0  0  0  0  0
  145.6640  144.5541  161.4658 C   0  0  0  0  0  0  0  0  0  0  0  0
  146.0498  143.0914  161.6657 C   0  0  0  0  0  0  0  0  0  0  0  0
  146.5093  142.6283  160.3980 O   0  0  0  0  0  0  0  0  0  0  0  0
  150.6579  140.2941  155.3724 C   0  0  0  0  0  0  0  0  0  0  0  0
  150.3287  140.1503  154.1920 O   0  0  0  0  0  0  0  0  0  0  0  0
  153.5570  138.5953  155.4257 H   0  0  0  0  0  0  0  0  0  0  0  0
  152.8327  139.5378  154.1045 H   0  0  0  0  0  0  0  0  0  0  0  0
  152.0156  138.0445  154.6996 H   0  0  0  0  0  0  0  0  0  0  0  0
  151.6182  140.7678  159.1226 H   0  0  0  0  0  0  0  0  0  0  0  0
  149.6385  141.7806  158.2370 H   0  0  0  0  0  0  0  0  0  0  0  0
  148.8155  142.7515  155.5604 H   0  0  0  0  0  0  0  0  0  0  0  0
  148.3003  141.2472  154.8549 H   0  0  0  0  0  0  0  0  0  0  0  0
  147.2544  143.6397  156.6854 H   0  0  0  0  0  0  0  0  0  0  0  0
  145.0261  143.5621  157.6265 H   0  0  0  0  0  0  0  0  0  0  0  0
  145.3894  141.9845  158.2860 H   0  0  0  0  0  0  0  0  0  0  0  0
  147.2195  144.1616  159.2454 H   0  0  0  0  0  0  0  0  0  0  0  0
  145.2840  145.5651  159.5683 H   0  0  0  0  0  0  0  0  0  0  0  0
  144.2486  144.1704  159.9012 H   0  0  0  0  0  0  0  0  0  0  0  0
  146.5320  145.1971  161.6188 H   0  0  0  0  0  0  0  0  0  0  0  0
  144.8708  144.8828  162.1378 H   0  0  0  0  0  0  0  0  0  0  0  0
  146.8107  142.9648  162.4359 H   0  0  0  0  0  0  0  0  0  0  0  0
  145.1774  142.5028  161.9516 H   0  0  0  0  0  0  0  0  0  0  0  0
  1  2  1  0  0  0  0
  1 20  1  0  0  0  0
  1 21  1  0  0  0  0
  1 22  1  0  0  0  0
  2 18  1  0  0  0  0
  2  3  1  0  0  0  0
  3  4  2  0  0  0  0
  3  5  1  0  0  0  0
  5  6  2  0  0  0  0
  5 23  1  0  0  0  0
  6  7  1  0  0  0  0
  6 24  1  0  0  0  0
  7  8  1  0  0  0  0
  7 18  1  0  0  0  0
  8  9  1  0  0  0  0
  8 25  1  0  0  0  0
  8 26  1  0  0  0  0
  9 10  2  0  0  0  0
  9 11  1  0  0  0  0
 11 12  1  0  0  0  0
 11 27  1  0  0  0  0
 12 13  1  0  0  0  0
 12 28  1  0  0  0  0
 12 29  1  0  0  0  0
 13 17  1  0  0  0  0
 13 14  1  0  0  0  0
 13 30  1  0  0  0  0
 14 15  1  0  0  0  0
 14 31  1  0  0  0  0
 14 32  1  0  0  0  0
 15 16  1  0  0  0  0
 15 33  1  0  0  0  0
 15 34  1  0  0  0  0
 16 17  1  0  0  0  0
 16 35  1  0  0  0  0
 16 36  1  0  0  0  0
 18 19  2  0  0  0  0
M  END
> <s_m_source_file>
AV-unprocessed.smi

> <i_m_source_file_index>
2165

> <i_lp_mmshare_version>
43012

> <i_f3d_flags>
0

> <s_epik_input>
W0NIM11uMWMoPU8pW2NIXVtjSF1uKGMxPU8pW0NIMl1DKD1PKVtOSF1bQ0gyXVtDQEBIXTJbQ0gyXVtDSDJdW0NIMl1PMg==

> <s_epik_cmdline>
J2VwaWtfcHl0aG9uJywgJy1waCcsICc3LjAnLCAnLXRuJywgJzgnLCAnLW1hJywgJzIwMCcsICctbWV0YWxfYmluZGluZycsICctaW1hZScsICc8aW5maWxlLm1hZT4nLCAnLW9tYWUnLCAnPG91dGZpbGUubWFlPic=

> <r_lp_tautomer_probability>
1

> <r_epik_Ionization_Penalty>
3.89869e-08

> <r_epik_Ionization_Penalty_Charging>
1.21279e-08

> <r_epik_Ionization_Penalty_Neutral>
2.6859e-08

> <r_epik_State_Penalty>
-0

> <r_epik_Charging_Adjusted_Penalty>
1.21279e-08

> <i_epik_Tot_Q>
0

> <i_epik_Tot_abs_Q>
0

> <r_epik_Metal_State_Penalty>
-0

> <b_epik_Metal_Only>
0

> <s_lp_Force_Field>
OPLS_2005

> <r_lp_Energy>
24.234

> <b_lp_Chiralities_Consistent>
1

> <s_lp_Variant>
AV-unprocessed.smi:2165-2

> <Gold.Version>
5.8.1

> <Gold.Id.Protein>
6NUR|6NUR_protein|mol2

> <Gold.PLP.Fitness>
36.5280

> <Gold.PLP.PLP>
-29.1099

> <Gold.PLP.part.hbond>
-4.8186

> <Gold.PLP.part.metal>
0.0000

> <Gold.PLP.part.buried>
-0.8632

> <Gold.PLP.part.nonpolar>
-24.1463

> <Gold.PLP.part.repulsive>
0.1977

> <Gold.PLP.ligand.clash>
0.0000

> <Gold.PLP.ligand.torsion>
0.9311

> <Gold.PLP.Chemscore.Hbond>
3.0825

> <Gold.PLP.Chemscore.CHOScore>
0.0000

> <Gold.PLP.Chemscore.Metal>
0.0000

> <Gold.Chemscore.Hbonds>
donor molecule, donor type, donor heavy atom, donor atom, acceptor molecule, acceptor atom, score
      P1  H  6933  6944       L1    17  0.09
      P1  H  6934  6946       L1    17  1.00
      P1  H  7989  7998       L1    19  0.95
      P1  H  7997  8010       L1     4  0.95

> <Gold.PLP.Chemscore.Internal.Correction>
0.0328

> <Gold.Rescore>
     Score         DG    S(hbond)    S(metal)    S(lipo)     H(rot)  DE(clash)    DE(int)     intcor
     12.88     -13.94       2.48        0.00      42.34       1.87       0.15       0.92       ----

> <Gold.Chemscore.Fitness>
12.8796

> <Gold.Chemscore.DG>
-13.9441

> <Gold.Chemscore.ZeroCoef>
-5.4800

> <Gold.Chemscore.Hbond>
2.4829

> <Gold.Chemscore.Metal>
0.0000

> <Gold.Chemscore.Lipo>
42.3358

> <Gold.Chemscore.Internal_Hbond>
0.0000

> <Gold.Chemscore.DEClash>
0.1476

> <Gold.Chemscore.DEInternal>
0.9169

> <Gold.Chemscore.Rot>
1.8681

> <Gold.Chemscore.Internal.Correction>
   9.000000E+99

> <Gold.Chemscore.Hbonds>
donor molecule, donor type, donor heavy atom, donor atom, acceptor molecule, acceptor atom, score
      P1  H  6934  6946       L1    17  0.39
      P1  H  7989  7998       L1    19  0.21
      P1  H  7997  8010       L1     4  0.21

> <Gold.Chemscore.Hbond.Weighted>
-8.2930

> <Gold.Chemscore.Metal.Weighted>
-0.0000

> <Gold.Chemscore.Lipo.Weighted>
-4.9533

> <Gold.Chemscore.Internal_Hbond.Weighted>
0.0000

> <Gold.Chemscore.DEClash.Weighted>
0.1476

> <Gold.Chemscore.DEInternal.Weighted>
0.9169

> <Gold.Chemscore.Rot.Weighted>
4.7822

> <Gold.Chemscore.Internal.Correction.Weighted>
   9.000000E+99

> <Gold.Protein.RotatedTorsions>
[ 6907 6896 6895 6894 ] final  -59.21 input  -60.11 | X-H torsion
[ 7974 7965 7964 7962 ] final   53.09 input  175.53 | X-H torsion
[ 8008 7997 7996 7995 ] final   56.84 input   59.86 | X-H torsion
[ 10167 10162 10161 10158 ] final  152.78 input  -65.29 | X-H torsion
[ 10718 10713 10712 10709 ] final   -2.68 input   66.30 | X-H torsion
[ 10763 10752 10751 10750 ] final   71.38 input  -60.55 | X-H torsion
[ 11005 11000 10999 10996 ] final   90.48 input  -57.11 | X-H torsion

> <Gold.Protein.ActiveResidues>
 VAL166  LYS551  ARG553  GLY616  TRP617  ASP618  TYR619  PRO620  LYS621  CYS622 
 ASP623  PHE694  ASN695  SER759  ASP760  ASP761  ALA762  ILE779  LEU786  VAL792 
 PHE793  MET794  SER795  GLU796  ALA797  LYS798  CYS799  TRP800  GLU811  SER814 

> <Gold.Protein.RotatedAtoms>
  150.7947  134.6998  159.6543 H   0  0  0  0  0  0  0  0  0  0  0  0  # atno 6907 bound_to 6896
  152.4058  134.6206  160.0059 H   0  0  0  0  0  0  0  0  0  0  0  0  # atno 6908 bound_to 6896
  151.6464  133.3286  159.3178 H   0  0  0  0  0  0  0  0  0  0  0  0  # atno 6909 bound_to 6896
  145.9747  139.4183  143.0168 H   0  0  0  0  0  0  0  0  0  0  0  0  # atno 7974 bound_to 7965
  155.5241  140.3480  155.4412 H   0  0  0  0  0  0  0  0  0  0  0  0  # atno 8008 bound_to 7997
  156.0764  140.1375  156.9793 H   0  0  0  0  0  0  0  0  0  0  0  0  # atno 8009 bound_to 7997
  154.4556  140.0955  156.6722 H   0  0  0  0  0  0  0  0  0  0  0  0  # atno 8010 bound_to 7997
  139.4831  144.5329  151.7693 H   0  0  0  0  0  0  0  0  0  0  0  0  # atno 10167 bound_to 10162
  156.7873  130.5350  149.5741 H   0  0  0  0  0  0  0  0  0  0  0  0  # atno 10718 bound_to 10713
  153.0396  135.5139  154.7585 H   0  0  0  0  0  0  0  0  0  0  0  0  # atno 10763 bound_to 10752
  154.6533  135.2928  154.9961 H   0  0  0  0  0  0  0  0  0  0  0  0  # atno 10764 bound_to 10752
  154.0838  135.6660  153.4894 H   0  0  0  0  0  0  0  0  0  0  0  0  # atno 10765 bound_to 10752
  139.8855  134.8616  156.3291 H   0  0  0  0  0  0  0  0  0  0  0  0  # atno 11005 bound_to 11000
  145.7855  140.9837  143.1076 LP  0  0  0  0  0  0  0  0  0  0  0  0  # atno 17320 bound_to 7965
  144.6846  139.9618  143.7480 LP  0  0  0  0  0  0  0  0  0  0  0  0  # atno 17321 bound_to 7965
  140.4857  144.1384  150.5940 LP  0  0  0  0  0  0  0  0  0  0  0  0  # atno 17342 bound_to 10162
  140.4227  143.2604  151.9695 LP  0  0  0  0  0  0  0  0  0  0  0  0  # atno 17343 bound_to 10162
  156.1181  130.6090  151.0151 LP  0  0  0  0  0  0  0  0  0  0  0  0  # atno 17370 bound_to 10713
  157.6618  131.0879  150.7821 LP  0  0  0  0  0  0  0  0  0  0  0  0  # atno 17371 bound_to 10713
  140.9735  133.7312  156.0569 LP  0  0  0  0  0  0  0  0  0  0  0  0  # atno 17394 bound_to 11000
  140.7840  134.3693  157.5480 LP  0  0  0  0  0  0  0  0  0  0  0  0  # atno 17395 bound_to 11000

$$$$
