AV-unprocessed.smi:189|AV-procd|sdf|1485|dock2
  -GOLD-   2262019303D 1   1.00000     0.00000
 Structure written by MMmdl.
 53 57  0  0  0  0  0  0  0  0  1 V2000
  152.0020  139.1381  159.2584 C   0  0  0  0  0  0  0  0  0  0  0  0
  152.9151  140.3655  159.0568 C   0  0  2  0  0  0  0  0  0  0  0  0
  152.9895  141.2142  160.3500 C   0  0  0  0  0  0  0  0  0  0  0  0
  152.8439  142.6478  159.8488 C   0  0  2  0  0  0  0  0  0  0  0  0
  152.2938  143.7117  160.8062 C   0  0  0  0  0  0  0  0  0  0  0  0
  152.1656  145.0504  160.0494 C   0  0  0  0  0  0  0  0  0  0  0  0
  151.3530  144.9124  158.7413 C   0  0  0  0  0  0  0  0  0  0  0  0
  151.8725  143.7726  157.8394 C   0  0  0  0  0  0  0  0  0  0  0  0
  151.9167  142.4678  158.6564 C   0  0  1  0  0  0  0  0  0  0  0  0
  152.4646  141.2882  158.0044 N   0  0  0  0  0  0  0  0  0  0  0  0
  151.9400  140.7825  156.8595 C   0  0  0  0  0  0  0  0  0  0  0  0
  152.6506  139.8868  156.1253 N   0  0  0  0  0  0  0  0  0  0  0  0
  152.1478  139.3981  154.9881 C   0  0  0  0  0  0  0  0  0  0  0  0
  150.9754  139.6674  154.4103 N   0  0  0  0  0  0  0  0  0  0  0  0
  150.2574  140.5660  155.1431 C   0  0  0  0  0  0  0  0  0  0  0  0
  150.6626  141.1690  156.3673 C   0  0  0  0  0  0  0  0  0  0  0  0
  149.6727  142.0324  156.8209 N   0  0  0  0  0  0  0  0  0  0  0  0
  148.7376  141.9476  155.9144 C   0  0  0  0  0  0  0  0  0  0  0  0
  149.0030  141.0854  154.8744 N   0  0  0  0  0  0  0  0  0  0  0  0
  148.1396  140.8017  153.7383 C   0  0  0  0  0  0  0  0  0  0  0  0
  147.8568  139.2940  153.5428 C   0  0  2  0  0  0  0  0  0  0  0  0
  149.0579  138.6439  153.1630 O   0  0  0  0  0  0  0  0  0  0  0  0
  146.7880  138.9907  152.4965 C   0  0  0  0  0  0  0  0  0  0  0  0
  146.1419  137.7197  153.0294 C   0  0  0  0  0  0  0  0  0  0  0  0
  146.1028  137.9564  154.4262 O   0  0  0  0  0  0  0  0  0  0  0  0
  147.3114  138.6049  154.8097 C   0  0  0  0  0  0  0  0  0  0  0  0
  152.3374  138.5427  160.1077 H   0  0  0  0  0  0  0  0  0  0  0  0
  152.0042  138.4816  158.3885 H   0  0  0  0  0  0  0  0  0  0  0  0
  150.9706  139.4369  159.4495 H   0  0  0  0  0  0  0  0  0  0  0  0
  153.9202  140.0327  158.7966 H   0  0  0  0  0  0  0  0  0  0  0  0
  152.1621  140.9755  161.0202 H   0  0  0  0  0  0  0  0  0  0  0  0
  153.9177  141.0575  160.9002 H   0  0  0  0  0  0  0  0  0  0  0  0
  153.8236  142.9737  159.4926 H   0  0  0  0  0  0  0  0  0  0  0  0
  151.3203  143.4056  161.1913 H   0  0  0  0  0  0  0  0  0  0  0  0
  152.9534  143.8257  161.6668 H   0  0  0  0  0  0  0  0  0  0  0  0
  151.7059  145.7993  160.6947 H   0  0  0  0  0  0  0  0  0  0  0  0
  153.1626  145.4233  159.8110 H   0  0  0  0  0  0  0  0  0  0  0  0
  150.3082  144.7214  158.9897 H   0  0  0  0  0  0  0  0  0  0  0  0
  151.3694  145.8552  158.1938 H   0  0  0  0  0  0  0  0  0  0  0  0
  151.2257  143.6757  156.9681 H   0  0  0  0  0  0  0  0  0  0  0  0
  152.8671  144.0165  157.4642 H   0  0  0  0  0  0  0  0  0  0  0  0
  150.9104  142.2254  159.0040 H   0  0  0  0  0  0  0  0  0  0  0  0
  152.7756  138.6911  154.4662 H   0  0  0  0  0  0  0  0  0  0  0  0
  147.8188  142.5121  155.9822 H   0  0  0  0  0  0  0  0  0  0  0  0
  147.2050  141.3479  153.8726 H   0  0  0  0  0  0  0  0  0  0  0  0
  148.6071  141.2144  152.8434 H   0  0  0  0  0  0  0  0  0  0  0  0
  148.8365  137.8201  152.7561 H   0  0  0  0  0  0  0  0  0  0  0  0
  146.0375  139.7818  152.4836 H   0  0  0  0  0  0  0  0  0  0  0  0
  147.1778  138.8865  151.4830 H   0  0  0  0  0  0  0  0  0  0  0  0
  145.1456  137.5485  152.6212 H   0  0  0  0  0  0  0  0  0  0  0  0
  146.7593  136.8451  152.8187 H   0  0  0  0  0  0  0  0  0  0  0  0
  148.0101  137.8684  155.2101 H   0  0  0  0  0  0  0  0  0  0  0  0
  147.0957  139.3153  155.6085 H   0  0  0  0  0  0  0  0  0  0  0  0
  1  2  1  0  0  0  0
  1 27  1  0  0  0  0
  1 28  1  0  0  0  0
  1 29  1  0  0  0  0
  2 10  1  0  0  0  0
  2  3  1  0  0  0  0
  2 30  1  0  0  0  0
  3  4  1  0  0  0  0
  3 31  1  0  0  0  0
  3 32  1  0  0  0  0
  4  9  1  0  0  0  0
  4  5  1  0  0  0  0
  4 33  1  0  0  0  0
  5  6  1  0  0  0  0
  5 34  1  0  0  0  0
  5 35  1  0  0  0  0
  6  7  1  0  0  0  0
  6 36  1  0  0  0  0
  6 37  1  0  0  0  0
  7  8  1  0  0  0  0
  7 38  1  0  0  0  0
  7 39  1  0  0  0  0
  8  9  1  0  0  0  0
  8 40  1  0  0  0  0
  8 41  1  0  0  0  0
  9 10  1  0  0  0  0
  9 42  1  0  0  0  0
 10 11  1  0  0  0  0
 11 16  1  0  0  0  0
 11 12  2  0  0  0  0
 12 13  1  0  0  0  0
 13 14  2  0  0  0  0
 13 43  1  0  0  0  0
 14 15  1  0  0  0  0
 15 19  1  0  0  0  0
 15 16  2  0  0  0  0
 16 17  1  0  0  0  0
 17 18  2  0  0  0  0
 18 19  1  0  0  0  0
 18 44  1  0  0  0  0
 19 20  1  0  0  0  0
 20 21  1  0  0  0  0
 20 45  1  0  0  0  0
 20 46  1  0  0  0  0
 21 26  1  0  0  0  0
 21 22  1  0  0  0  0
 21 23  1  0  0  0  0
 22 47  1  0  0  0  0
 23 24  1  0  0  0  0
 23 48  1  0  0  0  0
 23 49  1  0  0  0  0
 24 25  1  0  0  0  0
 24 50  1  0  0  0  0
 24 51  1  0  0  0  0
 25 26  1  0  0  0  0
 26 52  1  0  0  0  0
 26 53  1  0  0  0  0
M  END
> <s_m_source_file>
AV-unprocessed.smi

> <i_m_source_file_index>
189

> <i_lp_mmshare_version>
43012

> <i_f3d_flags>
0

> <s_epik_input>
W0NIMl0xW0NIMl1bQ0gyXVtDSDJdW0NASF0oW0NASF0xMilOKFtDQEhdKFtDSDNdKVtDSDJdMiljKG5bY0hdbjMpYyhjMzQpbltjSF1uNFtDSDJdW0NAQF01KFtPSF0pW0NIMl1bQ0gyXU9bQ0gyXTU=

> <s_epik_cmdline>
J2VwaWtfcHl0aG9uJywgJy1waCcsICc3LjAnLCAnLXRuJywgJzgnLCAnLW1hJywgJzIwMCcsICctbWV0YWxfYmluZGluZycsICctaW1hZScsICc8aW5maWxlLm1hZT4nLCAnLW9tYWUnLCAnPG91dGZpbGUubWFlPic=

> <r_lp_tautomer_probability>
1

> <r_epik_Ionization_Penalty>
0.00594261

> <r_epik_Ionization_Penalty_Charging>
0

> <r_epik_Ionization_Penalty_Neutral>
0.00594261

> <r_epik_State_Penalty>
0.00429776

> <r_epik_Charging_Adjusted_Penalty>
0.00429776

> <i_epik_Tot_Q>
0

> <i_epik_Tot_abs_Q>
0

> <r_epik_Metal_State_Penalty>
-0

> <b_epik_Metal_Only>
0

> <s_lp_Force_Field>
OPLS_2005

> <r_lp_Energy>
58.6518

> <b_lp_Chiralities_Consistent>
1

> <s_lp_Variant>
AV-unprocessed.smi:189-11

> <Gold.Version>
5.8.1

> <Gold.Id.Protein>
6NUR|6NUR_protein|mol2

> <Gold.PLP.Fitness>
58.3006

> <Gold.PLP.PLP>
-50.4830

> <Gold.PLP.part.hbond>
-4.0000

> <Gold.PLP.part.metal>
0.0000

> <Gold.PLP.part.buried>
1.1728

> <Gold.PLP.part.nonpolar>
-45.8412

> <Gold.PLP.part.repulsive>
0.5001

> <Gold.PLP.ligand.clash>
0.0000

> <Gold.PLP.ligand.torsion>
0.2880

> <Gold.PLP.Chemscore.Hbond>
2.4200

> <Gold.PLP.Chemscore.CHOScore>
0.2521

> <Gold.PLP.Chemscore.Metal>
0.0000

> <Gold.Chemscore.Hbonds>
donor molecule, donor type, donor heavy atom, donor atom, acceptor molecule, acceptor atom, score
      L1  H    22    47       P1  7948  1.00
      P1  H  7989  7998       L1    14  0.36
      P1  H  7997  8009       L1    12  1.00
      L1  C    18    44       P1  8028  0.33

> <Gold.PLP.Chemscore.Internal.Correction>
0.3772

> <Gold.Rescore>
     Score         DG    S(hbond)    S(metal)    S(lipo)     H(rot)  DE(clash)    DE(int)     intcor
     18.73     -20.55       1.80        0.00     121.81       2.03       0.20       1.62       ----

> <Gold.Chemscore.Fitness>
18.7312

> <Gold.Chemscore.DG>
-20.5515

> <Gold.Chemscore.ZeroCoef>
-5.4800

> <Gold.Chemscore.Hbond>
1.8012

> <Gold.Chemscore.Metal>
0.0000

> <Gold.Chemscore.Lipo>
121.8082

> <Gold.Chemscore.Internal_Hbond>
0.0000

> <Gold.Chemscore.DEClash>
0.2023

> <Gold.Chemscore.DEInternal>
1.6179

> <Gold.Chemscore.Rot>
2.0297

> <Gold.Chemscore.Internal.Correction>
   9.000000E+99

> <Gold.Chemscore.Hbonds>
donor molecule, donor type, donor heavy atom, donor atom, acceptor molecule, acceptor atom, score
      L1  H    22    47       P1  7948  1.00
      P1  H  7997  8009       L1    12  0.79

> <Gold.Chemscore.Hbond.Weighted>
-6.0159

> <Gold.Chemscore.Metal.Weighted>
-0.0000

> <Gold.Chemscore.Lipo.Weighted>
-14.2516

> <Gold.Chemscore.Internal_Hbond.Weighted>
0.0000

> <Gold.Chemscore.DEClash.Weighted>
0.2023

> <Gold.Chemscore.DEInternal.Weighted>
1.6179

> <Gold.Chemscore.Rot.Weighted>
5.1960

> <Gold.Chemscore.Internal.Correction.Weighted>
   9.000000E+99

> <Gold.Protein.RotatedTorsions>
[ 6907 6896 6895 6894 ] final   91.38 input  -60.11 | X-H torsion
[ 7974 7965 7964 7962 ] final -178.58 input  175.53 | X-H torsion
[ 8008 7997 7996 7995 ] final -146.15 input   59.86 | X-H torsion
[ 10167 10162 10161 10158 ] final  -77.98 input  -65.29 | X-H torsion
[ 10718 10713 10712 10709 ] final   70.38 input   66.30 | X-H torsion
[ 10763 10752 10751 10750 ] final  100.72 input  -60.55 | X-H torsion
[ 11005 11000 10999 10996 ] final -119.55 input  -57.11 | X-H torsion

> <Gold.Protein.ActiveResidues>
 VAL166  LYS551  ARG553  GLY616  TRP617  ASP618  TYR619  PRO620  LYS621  CYS622 
 ASP623  PHE694  ASN695  SER759  ASP760  ASP761  ALA762  ILE779  LEU786  VAL792 
 PHE793  MET794  SER795  GLU796  ALA797  LYS798  CYS799  TRP800  GLU811  SER814 

> <Gold.Protein.RotatedAtoms>
  152.5449  134.1666  159.8579 H   0  0  0  0  0  0  0  0  0  0  0  0  # atno 6907 bound_to 6896
  151.1680  133.4795  159.2601 H   0  0  0  0  0  0  0  0  0  0  0  0  # atno 6908 bound_to 6896
  151.1304  135.0138  159.8635 H   0  0  0  0  0  0  0  0  0  0  0  0  # atno 6909 bound_to 6896
  144.7131  140.0847  143.6424 H   0  0  0  0  0  0  0  0  0  0  0  0  # atno 7974 bound_to 7965
  155.5548  140.0620  157.2842 H   0  0  0  0  0  0  0  0  0  0  0  0  # atno 8008 bound_to 7997
  154.4409  140.1896  156.0767 H   0  0  0  0  0  0  0  0  0  0  0  0  # atno 8009 bound_to 7997
  156.0490  140.3286  155.7333 H   0  0  0  0  0  0  0  0  0  0  0  0  # atno 8010 bound_to 7997
  140.4723  143.2423  151.8187 H   0  0  0  0  0  0  0  0  0  0  0  0  # atno 10167 bound_to 10162
  157.6396  130.9474  150.0642 H   0  0  0  0  0  0  0  0  0  0  0  0  # atno 10718 bound_to 10713
  153.3176  135.4069  155.1389 H   0  0  0  0  0  0  0  0  0  0  0  0  # atno 10763 bound_to 10752
  154.8592  135.3579  154.5640 H   0  0  0  0  0  0  0  0  0  0  0  0  # atno 10764 bound_to 10752
  153.6072  135.7069  153.5420 H   0  0  0  0  0  0  0  0  0  0  0  0  # atno 10765 bound_to 10752
  141.0207  134.0128  157.3286 H   0  0  0  0  0  0  0  0  0  0  0  0  # atno 11005 bound_to 11000
  145.9672  139.2843  143.1120 LP  0  0  0  0  0  0  0  0  0  0  0  0  # atno 17320 bound_to 7965
  145.9156  140.9150  143.0431 LP  0  0  0  0  0  0  0  0  0  0  0  0  # atno 17321 bound_to 7965
  139.4820  144.4877  151.9225 LP  0  0  0  0  0  0  0  0  0  0  0  0  # atno 17342 bound_to 10162
  140.3962  144.2552  150.5896 LP  0  0  0  0  0  0  0  0  0  0  0  0  # atno 17343 bound_to 10162
  156.1666  130.3645  149.9224 LP  0  0  0  0  0  0  0  0  0  0  0  0  # atno 17370 bound_to 10713
  156.7210  130.9006  151.3618 LP  0  0  0  0  0  0  0  0  0  0  0  0  # atno 17371 bound_to 10713
  139.9144  135.0195  156.7824 LP  0  0  0  0  0  0  0  0  0  0  0  0  # atno 17394 bound_to 11000
  140.6577  133.9673  155.7788 LP  0  0  0  0  0  0  0  0  0  0  0  0  # atno 17395 bound_to 11000

$$$$
