AV-unprocessed.smi:3154|AV-procd|sdf|12024|dock1
  -GOLD-   2272017433D 1   1.00000     0.00000
 Structure written by MMmdl.
 34 35  0  0  0  0  0  0  0  0  1 V2000
  152.4652  138.4955  155.2896 C   0  0  0  0  0  0  0  0  0  0  0  0
  151.3092  139.5019  155.1537 C   0  0  1  0  0  0  0  0  0  0  0  0
  149.9259  138.8137  155.0536 C   0  0  0  0  0  0  0  0  0  0  0  0
  148.8849  139.7007  154.5656 N   0  0  0  0  0  0  0  0  0  0  0  0
  148.9343  141.0680  154.3920 C   0  0  0  0  0  0  0  0  0  0  0  0
  147.7211  141.4598  153.9028 C   0  0  0  0  0  0  0  0  0  0  0  0
  146.9888  140.2439  153.8024 C   0  0  0  0  0  0  0  0  0  0  0  0
  147.6894  139.1924  154.1951 N   0  0  0  0  0  0  0  0  0  0  0  0
  151.3704  140.3868  156.3130 N   0  0  0  0  0  0  0  0  0  0  0  0
  151.4844  139.6564  157.5822 C   0  0  0  0  0  0  0  0  0  0  0  0
  152.6066  140.2265  158.4462 C   0  0  0  0  0  0  0  0  0  0  0  0
  153.5920  139.5375  158.7090 O   0  0  0  0  0  0  0  0  0  0  0  0
  152.4428  141.4863  158.8766 N   0  0  0  0  0  0  0  0  0  0  0  0
  153.3649  142.2124  159.6881 C   0  0  0  0  0  0  0  0  0  0  0  0
  152.9275  142.5838  161.0883 C   0  0  0  0  0  0  0  0  0  0  0  0
  153.0217  143.6467  160.0287 C   0  0  0  0  0  0  0  0  0  0  0  0
  152.5413  137.8534  154.4119 H   0  0  0  0  0  0  0  0  0  0  0  0
  152.3325  137.8526  156.1607 H   0  0  0  0  0  0  0  0  0  0  0  0
  153.4231  139.0063  155.3948 H   0  0  0  0  0  0  0  0  0  0  0  0
  151.4913  140.0878  154.2513 H   0  0  0  0  0  0  0  0  0  0  0  0
  149.9825  137.9543  154.3839 H   0  0  0  0  0  0  0  0  0  0  0  0
  149.6028  138.4320  156.0219 H   0  0  0  0  0  0  0  0  0  0  0  0
  149.8174  141.6420  154.6310 H   0  0  0  0  0  0  0  0  0  0  0  0
  147.4052  142.4619  153.6528 H   0  0  0  0  0  0  0  0  0  0  0  0
  145.9766  140.0948  153.4567 H   0  0  0  0  0  0  0  0  0  0  0  0
  150.5439  140.9670  156.3112 H   0  0  0  0  0  0  0  0  0  0  0  0
  150.5432  139.7111  158.1317 H   0  0  0  0  0  0  0  0  0  0  0  0
  151.6919  138.6023  157.4003 H   0  0  0  0  0  0  0  0  0  0  0  0
  151.5976  141.9687  158.6073 H   0  0  0  0  0  0  0  0  0  0  0  0
  154.4239  141.9921  159.5616 H   0  0  0  0  0  0  0  0  0  0  0  0
  151.9323  142.2810  161.4088 H   0  0  0  0  0  0  0  0  0  0  0  0
  153.6872  142.5823  161.8673 H   0  0  0  0  0  0  0  0  0  0  0  0
  153.8441  144.3557  160.1000 H   0  0  0  0  0  0  0  0  0  0  0  0
  152.0894  144.0534  159.6415 H   0  0  0  0  0  0  0  0  0  0  0  0
  1  2  1  0  0  0  0
  1 17  1  0  0  0  0
  1 18  1  0  0  0  0
  1 19  1  0  0  0  0
  2  3  1  0  0  0  0
  2  9  1  0  0  0  0
  2 20  1  0  0  0  0
  3  4  1  0  0  0  0
  3 21  1  0  0  0  0
  3 22  1  0  0  0  0
  4  8  1  0  0  0  0
  4  5  1  0  0  0  0
  5  6  2  0  0  0  0
  5 23  1  0  0  0  0
  6  7  1  0  0  0  0
  6 24  1  0  0  0  0
  7  8  2  0  0  0  0
  7 25  1  0  0  0  0
  9 10  1  0  0  0  0
  9 26  1  0  0  0  0
 10 11  1  0  0  0  0
 10 27  1  0  0  0  0
 10 28  1  0  0  0  0
 11 12  2  0  0  0  0
 11 13  1  0  0  0  0
 13 14  1  0  0  0  0
 13 29  1  0  0  0  0
 14 16  1  0  0  0  0
 14 15  1  0  0  0  0
 14 30  1  0  0  0  0
 15 16  1  0  0  0  0
 15 31  1  0  0  0  0
 15 32  1  0  0  0  0
 16 33  1  0  0  0  0
 16 34  1  0  0  0  0
M  END
> <s_m_source_file>
AV-unprocessed.smi

> <i_m_source_file_index>
3154

> <i_lp_mmshare_version>
43012

> <i_f3d_flags>
0

> <s_epik_input>
bjFbY0hdW2NIXVtjSF1uMVtDSDJdW0NAQEhdKFtDSDNdKVtOSF1bQ0gyXUMoPU8pW05IXVtDSF0yW0NIMl1bQ0gyXTI=

> <s_epik_cmdline>
J2VwaWtfcHl0aG9uJywgJy1waCcsICc3LjAnLCAnLXRuJywgJzgnLCAnLW1hJywgJzIwMCcsICctbWV0YWxfYmluZGluZycsICctaW1hZScsICc8aW5maWxlLm1hZT4nLCAnLW9tYWUnLCAnPG91dGZpbGUubWFlPic=

> <r_lp_tautomer_probability>
1

> <r_epik_Ionization_Penalty>
1.00229

> <r_epik_Ionization_Penalty_Charging>
0

> <r_epik_Ionization_Penalty_Neutral>
1.00229

> <r_epik_State_Penalty>
1.0509

> <r_epik_Charging_Adjusted_Penalty>
1.0509

> <i_epik_Tot_Q>
0

> <i_epik_Tot_abs_Q>
0

> <r_epik_Metal_State_Penalty>
1.05084

> <b_epik_Metal_Only>
0

> <s_lp_Force_Field>
OPLS_2005

> <r_lp_Energy>
18.1237

> <b_lp_Chiralities_Consistent>
1

> <s_lp_Variant>
AV-unprocessed.smi:3154-4

> <Gold.Version>
5.8.1

> <Gold.Id.Protein>
6NUR|6NUR_protein|mol2

> <Gold.PLP.Fitness>
39.6642

> <Gold.PLP.PLP>
-34.9018

> <Gold.PLP.part.hbond>
-1.0000

> <Gold.PLP.part.metal>
0.0000

> <Gold.PLP.part.buried>
-2.5268

> <Gold.PLP.part.nonpolar>
-32.1978

> <Gold.PLP.part.repulsive>
0.2750

> <Gold.PLP.ligand.clash>
0.0000

> <Gold.PLP.ligand.torsion>
0.7037

> <Gold.PLP.Chemscore.Hbond>
1.0000

> <Gold.PLP.Chemscore.CHOScore>
1.0000

> <Gold.PLP.Chemscore.Metal>
0.0000

> <Gold.Chemscore.Hbonds>
donor molecule, donor type, donor heavy atom, donor atom, acceptor molecule, acceptor atom, score
      P1  H  7997  8009       L1    12  1.00
      L1  C     7    25       P1 10175  1.00

> <Gold.PLP.Chemscore.Internal.Correction>
0.1699

> <Gold.Rescore>
     Score         DG    S(hbond)    S(metal)    S(lipo)     H(rot)  DE(clash)    DE(int)     intcor
     12.06     -12.78       0.96        0.00      81.45       2.12       0.08       0.64       ----

> <Gold.Chemscore.Fitness>
12.0556

> <Gold.Chemscore.DG>
-12.7762

> <Gold.Chemscore.ZeroCoef>
-5.4800

> <Gold.Chemscore.Hbond>
0.9583

> <Gold.Chemscore.Metal>
0.0000

> <Gold.Chemscore.Lipo>
81.4452

> <Gold.Chemscore.Internal_Hbond>
0.0000

> <Gold.Chemscore.DEClash>
0.0850

> <Gold.Chemscore.DEInternal>
0.6356

> <Gold.Chemscore.Rot>
2.1225

> <Gold.Chemscore.Internal.Correction>
   9.000000E+99

> <Gold.Chemscore.Hbonds>
donor molecule, donor type, donor heavy atom, donor atom, acceptor molecule, acceptor atom, score
      P1  H  7997  8009       L1    12  0.25

> <Gold.Chemscore.Hbond.Weighted>
-3.2008

> <Gold.Chemscore.Metal.Weighted>
-0.0000

> <Gold.Chemscore.Lipo.Weighted>
-9.5291

> <Gold.Chemscore.Internal_Hbond.Weighted>
0.0000

> <Gold.Chemscore.DEClash.Weighted>
0.0850

> <Gold.Chemscore.DEInternal.Weighted>
0.6356

> <Gold.Chemscore.Rot.Weighted>
5.4337

> <Gold.Chemscore.Internal.Correction.Weighted>
   9.000000E+99

> <Gold.Protein.RotatedTorsions>
[ 6907 6896 6895 6894 ] final -174.23 input  -60.11 | X-H torsion
[ 7974 7965 7964 7962 ] final   -6.62 input  175.53 | X-H torsion
[ 8008 7997 7996 7995 ] final  141.65 input   59.86 | X-H torsion
[ 10167 10162 10161 10158 ] final  128.70 input  -65.29 | X-H torsion
[ 10718 10713 10712 10709 ] final -128.11 input   66.30 | X-H torsion
[ 10763 10752 10751 10750 ] final   56.33 input  -60.55 | X-H torsion
[ 11005 11000 10999 10996 ] final  166.10 input  -57.11 | X-H torsion

> <Gold.Protein.ActiveResidues>
 VAL166  LYS551  ARG553  GLY616  TRP617  ASP618  TYR619  PRO620  LYS621  CYS622 
 ASP623  PHE694  ASN695  SER759  ASP760  ASP761  ALA762  ILE779  LEU786  VAL792 
 PHE793  MET794  SER795  GLU796  ALA797  LYS798  CYS799  TRP800  GLU811  SER814 

> <Gold.Protein.RotatedAtoms>
  151.5690  133.3392  159.2985 H   0  0  0  0  0  0  0  0  0  0  0  0  # atno 6907 bound_to 6896
  150.8379  134.7662  159.6919 H   0  0  0  0  0  0  0  0  0  0  0  0  # atno 6908 bound_to 6896
  152.4452  134.5517  159.9920 H   0  0  0  0  0  0  0  0  0  0  0  0  # atno 6909 bound_to 6896
  146.2327  140.2197  142.8337 H   0  0  0  0  0  0  0  0  0  0  0  0  # atno 7974 bound_to 7965
  156.2962  140.2309  156.4599 H   0  0  0  0  0  0  0  0  0  0  0  0  # atno 8008 bound_to 7997
  154.8028  140.0447  157.1306 H   0  0  0  0  0  0  0  0  0  0  0  0  # atno 8009 bound_to 7997
  154.9514  140.3042  155.5077 H   0  0  0  0  0  0  0  0  0  0  0  0  # atno 8010 bound_to 7997
  139.5514  144.6816  151.4313 H   0  0  0  0  0  0  0  0  0  0  0  0  # atno 10167 bound_to 10162
  156.1920  130.6801  151.0436 H   0  0  0  0  0  0  0  0  0  0  0  0  # atno 10718 bound_to 10713
  152.9830  135.5680  154.5211 H   0  0  0  0  0  0  0  0  0  0  0  0  # atno 10763 bound_to 10752
  154.4699  135.2784  155.1652 H   0  0  0  0  0  0  0  0  0  0  0  0  # atno 10764 bound_to 10752
  154.3205  135.6270  153.5559 H   0  0  0  0  0  0  0  0  0  0  0  0  # atno 10765 bound_to 10752
  140.2629  134.7888  157.3606 H   0  0  0  0  0  0  0  0  0  0  0  0  # atno 11005 bound_to 11000
  144.9642  140.8305  143.5495 LP  0  0  0  0  0  0  0  0  0  0  0  0  # atno 17320 bound_to 7965
  145.2171  139.2177  143.5112 LP  0  0  0  0  0  0  0  0  0  0  0  0  # atno 17321 bound_to 7965
  140.6777  143.8152  150.7080 LP  0  0  0  0  0  0  0  0  0  0  0  0  # atno 17342 bound_to 10162
  140.1596  143.4287  152.2076 LP  0  0  0  0  0  0  0  0  0  0  0  0  # atno 17343 bound_to 10162
  157.6935  131.0802  150.7039 LP  0  0  0  0  0  0  0  0  0  0  0  0  # atno 17370 bound_to 10713
  156.7096  130.4647  149.5551 LP  0  0  0  0  0  0  0  0  0  0  0  0  # atno 17371 bound_to 10713
  140.1447  134.4926  155.8005 LP  0  0  0  0  0  0  0  0  0  0  0  0  # atno 17394 bound_to 11000
  141.2188  133.6839  156.7273 LP  0  0  0  0  0  0  0  0  0  0  0  0  # atno 17395 bound_to 11000

$$$$
