AV-unprocessed.smi:2007|AV-procd|sdf|8138|dock9
  -GOLD-   2272010373D 1   1.00000     0.00000
 Structure written by MMmdl.
 35 36  0  0  0  0  0  0  0  0  2 V2000
  147.4347  135.2015  155.7547 C   0  0  0  0  0  0  0  0  0  0  0  0
  148.7877  135.8657  156.0427 C   0  0  1  0  0  0  0  0  0  0  0  0
  148.7451  137.3769  155.7311 C   0  0  0  0  0  0  0  0  0  0  0  0
  150.0232  138.0843  155.8284 N   0  0  0  0  0  0  0  0  0  0  0  0
  150.9673  137.6974  154.7827 C   0  0  0  0  0  0  0  0  0  0  0  0
  152.2960  138.4640  154.9011 C   0  0  0  0  0  0  0  0  0  0  0  0
  152.0452  139.8654  154.8655 O   0  0  0  0  0  0  0  0  0  0  0  0
  151.1622  140.2895  155.8990 C   0  0  0  0  0  0  0  0  0  0  0  0
  149.8300  139.5290  155.7834 C   0  0  0  0  0  0  0  0  0  0  0  0
  149.1349  135.6490  157.4474 N   0  0  0  0  0  0  0  0  0  0  0  0
  148.3870  135.9572  158.5176 C   0  0  0  0  0  0  0  0  0  0  0  0
  147.2880  136.4973  158.3727 O   0  0  0  0  0  0  0  0  0  0  0  0
  148.9600  135.6156  159.6945 N   0  5  0  0  0  0  0  0  0  0  0  0
  148.2564  135.7044  160.8348 C   0  0  0  0  0  0  0  0  0  0  0  0
  148.1107  136.8480  161.5140 N   0  0  0  0  0  0  0  0  0  0  0  0
  147.3461  136.7113  162.6740 C   0  0  0  0  0  0  0  0  0  0  0  0
  146.9061  135.4319  162.8877 C   0  0  0  0  0  0  0  0  0  0  0  0
  147.4438  134.3536  161.6315 S   0  0  0  0  0  0  0  0  0  0  0  0
  147.1505  135.3284  154.7099 H   0  0  0  0  0  0  0  0  0  0  0  0
  146.6422  135.6288  156.3703 H   0  0  0  0  0  0  0  0  0  0  0  0
  147.4731  134.1305  155.9575 H   0  0  0  0  0  0  0  0  0  0  0  0
  149.5145  135.3843  155.3880 H   0  0  0  0  0  0  0  0  0  0  0  0
  148.3246  137.5270  154.7356 H   0  0  0  0  0  0  0  0  0  0  0  0
  148.0375  137.8365  156.4229 H   0  0  0  0  0  0  0  0  0  0  0  0
  151.1783  136.6304  154.8364 H   0  0  0  0  0  0  0  0  0  0  0  0
  150.5288  137.8809  153.8009 H   0  0  0  0  0  0  0  0  0  0  0  0
  152.8099  138.2023  155.8275 H   0  0  0  0  0  0  0  0  0  0  0  0
  152.9617  138.1991  154.0797 H   0  0  0  0  0  0  0  0  0  0  0  0
  151.6218  140.1171  156.8735 H   0  0  0  0  0  0  0  0  0  0  0  0
  150.9952  141.3628  155.8076 H   0  0  0  0  0  0  0  0  0  0  0  0
  149.3353  139.8077  154.8518 H   0  0  0  0  0  0  0  0  0  0  0  0
  149.1686  139.8391  156.5934 H   0  0  0  0  0  0  0  0  0  0  0  0
  150.0231  135.2051  157.6273 H   0  0  0  0  0  0  0  0  0  0  0  0
  147.1656  137.5797  163.2902 H   0  0  0  0  0  0  0  0  0  0  0  0
  146.3040  135.0590  163.7022 H   0  0  0  0  0  0  0  0  0  0  0  0
  1  2  1  0  0  0  0
  1 19  1  0  0  0  0
  1 20  1  0  0  0  0
  1 21  1  0  0  0  0
  2  3  1  0  0  0  0
  2 10  1  0  0  0  0
  2 22  1  0  0  0  0
  3  4  1  0  0  0  0
  3 23  1  0  0  0  0
  3 24  1  0  0  0  0
  4  9  1  0  0  0  0
  4  5  1  0  0  0  0
  5  6  1  0  0  0  0
  5 25  1  0  0  0  0
  5 26  1  0  0  0  0
  6  7  1  0  0  0  0
  6 27  1  0  0  0  0
  6 28  1  0  0  0  0
  7  8  1  0  0  0  0
  8  9  1  0  0  0  0
  8 29  1  0  0  0  0
  8 30  1  0  0  0  0
  9 31  1  0  0  0  0
  9 32  1  0  0  0  0
 10 11  1  0  0  0  0
 10 33  1  0  0  0  0
 11 12  2  0  0  0  0
 11 13  1  0  0  0  0
 13 14  1  0  0  0  0
 14 18  1  0  0  0  0
 14 15  2  0  0  0  0
 15 16  1  0  0  0  0
 16 17  2  0  0  0  0
 16 34  1  0  0  0  0
 17 18  1  0  0  0  0
 17 35  1  0  0  0  0
M  CHG  1  13  -1
M  END
> <s_m_source_file>
AV-unprocessed.smi

> <i_m_source_file_index>
2007

> <i_lp_mmshare_version>
43012

> <i_f3d_flags>
0

> <s_epik_input>
W0NIMl0xW0NIMl1PW0NIMl1bQ0gyXU4xW0NIMl1bQ0BASF0oW0NIM10pW05IXUMoPU8pW05IXWMybltjSF1bY0hdczI=

> <s_epik_cmdline>
J2VwaWtfcHl0aG9uJywgJy1waCcsICc3LjAnLCAnLXRuJywgJzgnLCAnLW1hJywgJzIwMCcsICctbWV0YWxfYmluZGluZycsICctaW1hZScsICc8aW5maWxlLm1hZT4nLCAnLW9tYWUnLCAnPG91dGZpbGUubWFlPic=

> <r_lp_tautomer_probability>
0.999

> <r_epik_Ionization_Penalty>
7.09127

> <r_epik_Ionization_Penalty_Charging>
5.74083

> <r_epik_Ionization_Penalty_Neutral>
1.35044

> <r_epik_State_Penalty>
5.95014

> <r_epik_Charging_Adjusted_Penalty>
11.691

> <i_epik_Tot_Q>
-1

> <i_epik_Tot_abs_Q>
1

> <r_epik_Metal_State_Penalty>
1.93831

> <b_epik_Metal_Only>
1

> <s_lp_Force_Field>
OPLS_2005

> <r_lp_Energy>
21.094

> <b_lp_Chiralities_Consistent>
1

> <s_lp_Variant>
AV-unprocessed.smi:2007-6

> <Gold.Version>
5.8.1

> <Gold.Id.Protein>
6NUR|6NUR_protein|mol2

> <Gold.PLP.Fitness>
39.7607

> <Gold.PLP.PLP>
-28.6861

> <Gold.PLP.part.hbond>
-3.6908

> <Gold.PLP.part.metal>
0.0000

> <Gold.PLP.part.buried>
-4.4149

> <Gold.PLP.part.nonpolar>
-21.7709

> <Gold.PLP.part.repulsive>
0.1818

> <Gold.PLP.ligand.clash>
0.0000

> <Gold.PLP.ligand.torsion>
0.8633

> <Gold.PLP.Chemscore.Hbond>
4.2556

> <Gold.PLP.Chemscore.CHOScore>
0.0000

> <Gold.PLP.Chemscore.Metal>
0.0000

> <Gold.Chemscore.Hbonds>
donor molecule, donor type, donor heavy atom, donor atom, acceptor molecule, acceptor atom, score
      P1  H  6896  6908       L1    13  2.00
      P1  H  6931  6943       L1    15  1.00
      P1  H  6934  6947       L1    15  0.01
      P1  H  7989  7998       L1     7  0.85

> <Gold.PLP.Chemscore.Internal.Correction>
0.0346

> <Gold.Rescore>
     Score         DG    S(hbond)    S(metal)    S(lipo)     H(rot)  DE(clash)    DE(int)     intcor
     14.88     -17.02       2.65        0.00      56.81       1.55       0.01       2.13       ----

> <Gold.Chemscore.Fitness>
14.8751

> <Gold.Chemscore.DG>
-17.0157

> <Gold.Chemscore.ZeroCoef>
-5.4800

> <Gold.Chemscore.Hbond>
2.6527

> <Gold.Chemscore.Metal>
0.0000

> <Gold.Chemscore.Lipo>
56.8054

> <Gold.Chemscore.Internal_Hbond>
0.0000

> <Gold.Chemscore.DEClash>
0.0110

> <Gold.Chemscore.DEInternal>
2.1296

> <Gold.Chemscore.Rot>
1.5510

> <Gold.Chemscore.Internal.Correction>
   9.000000E+99

> <Gold.Chemscore.Hbonds>
donor molecule, donor type, donor heavy atom, donor atom, acceptor molecule, acceptor atom, score
      P1  H  6896  6908       L1    13  0.90
      P1  H  6931  6943       L1    15  0.26
      P1  H  7989  7998       L1     7  0.46

> <Gold.Chemscore.Hbond.Weighted>
-8.8600

> <Gold.Chemscore.Metal.Weighted>
-0.0000

> <Gold.Chemscore.Lipo.Weighted>
-6.6462

> <Gold.Chemscore.Internal_Hbond.Weighted>
0.0000

> <Gold.Chemscore.DEClash.Weighted>
0.0110

> <Gold.Chemscore.DEInternal.Weighted>
2.1296

> <Gold.Chemscore.Rot.Weighted>
3.9706

> <Gold.Chemscore.Internal.Correction.Weighted>
   9.000000E+99

> <Gold.Protein.RotatedTorsions>
[ 6907 6896 6895 6894 ] final  173.42 input  -60.11 | X-H torsion
[ 7974 7965 7964 7962 ] final -142.73 input  175.53 | X-H torsion
[ 8008 7997 7996 7995 ] final  144.62 input   59.86 | X-H torsion
[ 10167 10162 10161 10158 ] final   69.75 input  -65.29 | X-H torsion
[ 10718 10713 10712 10709 ] final  -54.52 input   66.30 | X-H torsion
[ 10763 10752 10751 10750 ] final  133.06 input  -60.55 | X-H torsion
[ 11005 11000 10999 10996 ] final  157.42 input  -57.11 | X-H torsion

> <Gold.Protein.ActiveResidues>
 VAL166  LYS551  ARG553  GLY616  TRP617  ASP618  TYR619  PRO620  LYS621  CYS622 
 ASP623  PHE694  ASN695  SER759  ASP760  ASP761  ALA762  ILE779  LEU786  VAL792 
 PHE793  MET794  SER795  GLU796  ALA797  LYS798  CYS799  TRP800  GLU811  SER814 

> <Gold.Protein.RotatedAtoms>
  151.7686  133.3339  159.3437 H   0  0  0  0  0  0  0  0  0  0  0  0  # atno 6907 bound_to 6896
  150.7470  134.6040  159.6061 H   0  0  0  0  0  0  0  0  0  0  0  0  # atno 6908 bound_to 6896
  152.3357  134.7203  160.0329 H   0  0  0  0  0  0  0  0  0  0  0  0  # atno 6909 bound_to 6896
  144.8422  140.5922  143.5445 H   0  0  0  0  0  0  0  0  0  0  0  0  # atno 7974 bound_to 7965
  156.2904  140.2231  156.5082 H   0  0  0  0  0  0  0  0  0  0  0  0  # atno 8008 bound_to 7997
  154.7631  140.0472  157.1012 H   0  0  0  0  0  0  0  0  0  0  0  0  # atno 8009 bound_to 7997
  154.9966  140.3096  155.4887 H   0  0  0  0  0  0  0  0  0  0  0  0  # atno 8010 bound_to 7997
  140.0644  144.5206  150.7271 H   0  0  0  0  0  0  0  0  0  0  0  0  # atno 10167 bound_to 10162
  156.1444  130.4153  150.0049 H   0  0  0  0  0  0  0  0  0  0  0  0  # atno 10718 bound_to 10713
  153.8010  135.3142  155.3390 H   0  0  0  0  0  0  0  0  0  0  0  0  # atno 10763 bound_to 10752
  154.8089  135.4680  154.0467 H   0  0  0  0  0  0  0  0  0  0  0  0  # atno 10764 bound_to 10752
  153.1815  135.6894  153.8559 H   0  0  0  0  0  0  0  0  0  0  0  0  # atno 10765 bound_to 10752
  140.1768  134.8504  157.2756 H   0  0  0  0  0  0  0  0  0  0  0  0  # atno 11005 bound_to 11000
  145.4671  139.1507  143.3834 LP  0  0  0  0  0  0  0  0  0  0  0  0  # atno 17320 bound_to 7965
  146.2712  140.4803  142.8813 LP  0  0  0  0  0  0  0  0  0  0  0  0  # atno 17321 bound_to 7965
  140.7156  143.2542  151.4444 LP  0  0  0  0  0  0  0  0  0  0  0  0  # atno 17342 bound_to 10162
  139.5874  144.1574  152.2046 LP  0  0  0  0  0  0  0  0  0  0  0  0  # atno 17343 bound_to 10162
  156.7925  130.9261  151.3646 LP  0  0  0  0  0  0  0  0  0  0  0  0  # atno 17370 bound_to 10713
  157.6604  130.8961  149.9817 LP  0  0  0  0  0  0  0  0  0  0  0  0  # atno 17371 bound_to 10713
  140.2313  134.3905  155.7520 LP  0  0  0  0  0  0  0  0  0  0  0  0  # atno 17394 bound_to 11000
  141.2221  133.7216  156.8645 LP  0  0  0  0  0  0  0  0  0  0  0  0  # atno 17395 bound_to 11000

$$$$
