AV-unprocessed.smi:1380|AV-procd|sdf|5600|dock2
  -GOLD-   22720 5203D 1   1.00000     0.00000
 Structure written by MMmdl.
 33 34  0  0  0  0  0  0  0  0  1 V2000
  148.6922  140.7586  157.3531 O   0  0  0  0  0  0  0  0  0  0  0  0
  148.7689  141.8861  156.8647 C   0  0  0  0  0  0  0  0  0  0  0  0
  148.0817  142.2840  155.7856 N   0  0  0  0  0  0  0  0  0  0  0  0
  147.1816  141.4354  155.0107 C   0  0  0  0  0  0  0  0  0  0  0  0
  145.7002  141.8240  155.1862 C   0  0  0  0  0  0  0  0  0  0  0  0
  145.3199  143.0981  154.4520 C   0  0  0  0  0  0  0  0  0  0  0  0
  145.8800  143.4003  153.1940 C   0  0  0  0  0  0  0  0  0  0  0  0
  145.4910  144.5884  152.5461 C   0  0  0  0  0  0  0  0  0  0  0  0
  144.5562  145.4263  153.1864 C   0  0  0  0  0  0  0  0  0  0  0  0
  144.0129  145.1473  154.3909 N   0  0  0  0  0  0  0  0  0  0  0  0
  144.3926  144.0069  155.0063 C   0  0  0  0  0  0  0  0  0  0  0  0
  149.5613  142.8582  157.3360 N   0  0  0  0  0  0  0  0  0  0  0  0
  150.4698  142.7141  158.4654 C   0  0  0  0  0  0  0  0  0  0  0  0
  150.9837  144.0213  159.0384 C   0  0  0  0  0  0  0  0  0  0  0  0
  152.2866  144.6245  158.5657 C   0  0  0  0  0  0  0  0  0  0  0  0
  152.1876  144.0344  159.9512 C   0  0  0  0  0  0  0  0  0  0  0  0
  148.2123  143.2297  155.4575 H   0  0  0  0  0  0  0  0  0  0  0  0
  147.4582  141.4564  153.9555 H   0  0  0  0  0  0  0  0  0  0  0  0
  147.3302  140.4091  155.3471 H   0  0  0  0  0  0  0  0  0  0  0  0
  145.0607  141.0114  154.8385 H   0  0  0  0  0  0  0  0  0  0  0  0
  145.4768  141.9474  156.2464 H   0  0  0  0  0  0  0  0  0  0  0  0
  146.5923  142.7329  152.7318 H   0  0  0  0  0  0  0  0  0  0  0  0
  145.8989  144.8514  151.5813 H   0  0  0  0  0  0  0  0  0  0  0  0
  144.2355  146.3448  152.7176 H   0  0  0  0  0  0  0  0  0  0  0  0
  143.9358  143.8104  155.9654 H   0  0  0  0  0  0  0  0  0  0  0  0
  149.5553  143.7512  156.8651 H   0  0  0  0  0  0  0  0  0  0  0  0
  149.9328  142.1862  159.2535 H   0  0  0  0  0  0  0  0  0  0  0  0
  151.3113  142.0761  158.1893 H   0  0  0  0  0  0  0  0  0  0  0  0
  150.1948  144.7246  159.2986 H   0  0  0  0  0  0  0  0  0  0  0  0
  152.8617  144.0732  157.8244 H   0  0  0  0  0  0  0  0  0  0  0  0
  152.3352  145.7082  158.4808 H   0  0  0  0  0  0  0  0  0  0  0  0
  152.1730  144.7249  160.7920 H   0  0  0  0  0  0  0  0  0  0  0  0
  152.7000  143.0914  160.1307 H   0  0  0  0  0  0  0  0  0  0  0  0
  1  2  2  0  0  0  0
  2  3  1  0  0  0  0
  2 12  1  0  0  0  0
  3  4  1  0  0  0  0
  3 17  1  0  0  0  0
  4  5  1  0  0  0  0
  4 18  1  0  0  0  0
  4 19  1  0  0  0  0
  5  6  1  0  0  0  0
  5 20  1  0  0  0  0
  5 21  1  0  0  0  0
  6 11  1  0  0  0  0
  6  7  2  0  0  0  0
  7  8  1  0  0  0  0
  7 22  1  0  0  0  0
  8  9  2  0  0  0  0
  8 23  1  0  0  0  0
  9 10  1  0  0  0  0
  9 24  1  0  0  0  0
 10 11  2  0  0  0  0
 11 25  1  0  0  0  0
 12 13  1  0  0  0  0
 12 26  1  0  0  0  0
 13 14  1  0  0  0  0
 13 27  1  0  0  0  0
 13 28  1  0  0  0  0
 14 16  1  0  0  0  0
 14 15  1  0  0  0  0
 14 29  1  0  0  0  0
 15 16  1  0  0  0  0
 15 30  1  0  0  0  0
 15 31  1  0  0  0  0
 16 32  1  0  0  0  0
 16 33  1  0  0  0  0
M  END
> <s_m_source_file>
AV-unprocessed.smi

> <i_m_source_file_index>
1380

> <i_lp_mmshare_version>
43012

> <i_f3d_flags>
0

> <s_epik_input>
W0NIMl0xW0NIMl1bQ0hdMVtDSDJdW05IXUMoPU8pW05IXVtDSDJdW0NIMl1jMltjSF1bY0hdW2NIXW5bY0hdMg==

> <s_epik_cmdline>
J2VwaWtfcHl0aG9uJywgJy1waCcsICc3LjAnLCAnLXRuJywgJzgnLCAnLW1hJywgJzIwMCcsICctbWV0YWxfYmluZGluZycsICctaW1hZScsICc8aW5maWxlLm1hZT4nLCAnLW9tYWUnLCAnPG91dGZpbGUubWFlPic=

> <r_epik_Ionization_Penalty>
0.0144004

> <r_epik_Ionization_Penalty_Charging>
0

> <r_epik_Ionization_Penalty_Neutral>
0.0144004

> <r_epik_State_Penalty>
0.0112076

> <r_epik_Charging_Adjusted_Penalty>
0.0112076

> <i_epik_Tot_Q>
0

> <i_epik_Tot_abs_Q>
0

> <r_epik_Metal_State_Penalty>
0.0109423

> <b_epik_Metal_Only>
0

> <s_lp_Force_Field>
OPLS_2005

> <r_lp_Energy>
8.98924

> <b_lp_Chiralities_Consistent>
1

> <s_lp_Variant>
AV-unprocessed.smi:1380-1

> <Gold.Version>
5.8.1

> <Gold.Id.Protein>
6NUR|6NUR_protein|mol2

> <Gold.PLP.Fitness>
40.1940

> <Gold.PLP.PLP>
-35.3480

> <Gold.PLP.part.hbond>
-2.0000

> <Gold.PLP.part.metal>
0.0000

> <Gold.PLP.part.buried>
-4.0562

> <Gold.PLP.part.nonpolar>
-29.6721

> <Gold.PLP.part.repulsive>
0.1922

> <Gold.PLP.ligand.clash>
0.0000

> <Gold.PLP.ligand.torsion>
0.8062

> <Gold.PLP.Chemscore.Hbond>
1.9600

> <Gold.PLP.Chemscore.CHOScore>
0.0000

> <Gold.PLP.Chemscore.Metal>
0.0000

> <Gold.Chemscore.Hbonds>
donor molecule, donor type, donor heavy atom, donor atom, acceptor molecule, acceptor atom, score
      L1  H     3    17       P1  8028  1.00
      L1  H    12    26       P1  8028  0.98

> <Gold.PLP.Chemscore.Internal.Correction>
0.5784

> <Gold.Rescore>
     Score         DG    S(hbond)    S(metal)    S(lipo)     H(rot)  DE(clash)    DE(int)     intcor
     17.14     -17.96       1.87        0.00      90.37       1.70       0.04       0.77       ----

> <Gold.Chemscore.Fitness>
17.1439

> <Gold.Chemscore.DG>
-17.9561

> <Gold.Chemscore.ZeroCoef>
-5.4800

> <Gold.Chemscore.Hbond>
1.8730

> <Gold.Chemscore.Metal>
0.0000

> <Gold.Chemscore.Lipo>
90.3731

> <Gold.Chemscore.Internal_Hbond>
0.0000

> <Gold.Chemscore.DEClash>
0.0433

> <Gold.Chemscore.DEInternal>
0.7688

> <Gold.Chemscore.Rot>
1.7006

> <Gold.Chemscore.Internal.Correction>
   9.000000E+99

> <Gold.Chemscore.Hbonds>
donor molecule, donor type, donor heavy atom, donor atom, acceptor molecule, acceptor atom, score
      L1  H     3    17       P1  8028  0.86
      L1  H    12    26       P1  8028  0.88

> <Gold.Chemscore.Hbond.Weighted>
-6.2559

> <Gold.Chemscore.Metal.Weighted>
-0.0000

> <Gold.Chemscore.Lipo.Weighted>
-10.5736

> <Gold.Chemscore.Internal_Hbond.Weighted>
0.0000

> <Gold.Chemscore.DEClash.Weighted>
0.0433

> <Gold.Chemscore.DEInternal.Weighted>
0.7688

> <Gold.Chemscore.Rot.Weighted>
4.3534

> <Gold.Chemscore.Internal.Correction.Weighted>
   9.000000E+99

> <Gold.Protein.RotatedTorsions>
[ 6907 6896 6895 6894 ] final  -47.85 input  -60.11 | X-H torsion
[ 7974 7965 7964 7962 ] final   17.71 input  175.53 | X-H torsion
[ 8008 7997 7996 7995 ] final  154.40 input   59.86 | X-H torsion
[ 10167 10162 10161 10158 ] final -165.00 input  -65.29 | X-H torsion
[ 10718 10713 10712 10709 ] final  119.09 input   66.30 | X-H torsion
[ 10763 10752 10751 10750 ] final -154.86 input  -60.55 | X-H torsion
[ 11005 11000 10999 10996 ] final -122.51 input  -57.11 | X-H torsion

> <Gold.Protein.ActiveResidues>
 VAL166  LYS551  ARG553  GLY616  TRP617  ASP618  TYR619  PRO620  LYS621  CYS622 
 ASP623  PHE694  ASN695  SER759  ASP760  ASP761  ALA762  ILE779  LEU786  VAL792 
 PHE793  MET794  SER795  GLU796  ALA797  LYS798  CYS799  TRP800  GLU811  SER814 

> <Gold.Protein.RotatedAtoms>
  150.8965  134.8374  159.7330 H   0  0  0  0  0  0  0  0  0  0  0  0  # atno 6907 bound_to 6896
  152.4868  134.4567  159.9602 H   0  0  0  0  0  0  0  0  0  0  0  0  # atno 6908 bound_to 6896
  151.4624  133.3550  159.2846 H   0  0  0  0  0  0  0  0  0  0  0  0  # atno 6909 bound_to 6896
  146.2209  139.8562  142.8613 H   0  0  0  0  0  0  0  0  0  0  0  0  # atno 7974 bound_to 7965
  156.2533  140.1967  156.6641 H   0  0  0  0  0  0  0  0  0  0  0  0  # atno 8008 bound_to 7997
  154.6442  140.0580  156.9907 H   0  0  0  0  0  0  0  0  0  0  0  0  # atno 8009 bound_to 7997
  155.1516  140.3252  155.4433 H   0  0  0  0  0  0  0  0  0  0  0  0  # atno 8010 bound_to 7997
  139.6212  144.0621  152.1934 H   0  0  0  0  0  0  0  0  0  0  0  0  # atno 10167 bound_to 10162
  157.5986  131.1054  150.7847 H   0  0  0  0  0  0  0  0  0  0  0  0  # atno 10718 bound_to 10713
  154.7828  135.3180  154.7951 H   0  0  0  0  0  0  0  0  0  0  0  0  # atno 10763 bound_to 10752
  153.8658  135.6849  153.4783 H   0  0  0  0  0  0  0  0  0  0  0  0  # atno 10764 bound_to 10752
  153.1470  135.4715  154.9519 H   0  0  0  0  0  0  0  0  0  0  0  0  # atno 10765 bound_to 10752
  140.9990  134.0430  157.3561 H   0  0  0  0  0  0  0  0  0  0  0  0  # atno 11005 bound_to 11000
  145.2751  141.0121  143.3749 LP  0  0  0  0  0  0  0  0  0  0  0  0  # atno 17320 bound_to 7965
  144.9193  139.4431  143.6549 LP  0  0  0  0  0  0  0  0  0  0  0  0  # atno 17321 bound_to 7965
  140.0263  144.6115  150.7524 LP  0  0  0  0  0  0  0  0  0  0  0  0  # atno 17342 bound_to 10162
  140.7383  143.2776  151.3694 LP  0  0  0  0  0  0  0  0  0  0  0  0  # atno 17343 bound_to 10162
  156.8251  130.4997  149.5338 LP  0  0  0  0  0  0  0  0  0  0  0  0  # atno 17370 bound_to 10713
  156.1054  130.6000  150.9962 LP  0  0  0  0  0  0  0  0  0  0  0  0  # atno 17371 bound_to 10713
  139.9029  135.0170  156.7353 LP  0  0  0  0  0  0  0  0  0  0  0  0  # atno 17394 bound_to 11000
  140.6920  133.9382  155.7972 LP  0  0  0  0  0  0  0  0  0  0  0  0  # atno 17395 bound_to 11000

$$$$
