AV-unprocessed.smi:2253|AV-procd|sdf|9116|dock3
  -GOLD-   2272012323D 1   1.00000     0.00000
 Structure written by MMmdl.
 52 54  0  0  0  0  0  0  0  0  3 V2000
  146.3302  129.8820  152.2153 C   0  0  0  0  0  0  0  0  0  0  0  0
  146.3131  131.2199  151.5853 N   0  3  2  0  0  0  0  0  0  0  0  0
  146.6491  132.3008  152.5448 C   0  0  0  0  0  0  0  0  0  0  0  0
  146.7163  133.6677  151.8390 C   0  0  0  0  0  0  0  0  0  0  0  0
  145.3879  134.0180  151.1245 C   0  0  2  0  0  0  0  0  0  0  0  0
  144.2837  134.3308  152.0951 N   0  3  2  0  0  0  0  0  0  0  0  0
  142.9391  133.8048  151.7146 C   0  0  0  0  0  0  0  0  0  0  0  0
  141.8908  134.0632  152.8106 C   0  0  0  0  0  0  0  0  0  0  0  0
  141.7889  135.5544  153.1537 C   0  0  1  0  0  0  0  0  0  0  0  0
  140.8477  135.7497  154.2526 N   0  0  0  0  0  0  0  0  0  0  0  0
  139.7902  136.5742  154.2249 C   0  0  0  0  0  0  0  0  0  0  0  0
  139.4998  137.2658  153.2494 O   0  0  0  0  0  0  0  0  0  0  0  0
  139.1081  136.5247  155.3820 N   0  0  0  0  0  0  0  0  0  0  0  0
  137.9370  137.2343  155.7673 C   0  0  0  0  0  0  0  0  0  0  0  0
  137.1087  137.9594  154.8759 C   0  0  0  0  0  0  0  0  0  0  0  0
  135.9838  138.6310  155.3956 C   0  0  0  0  0  0  0  0  0  0  0  0
  135.6531  138.6280  156.7043 N   0  0  0  0  0  0  0  0  0  0  0  0
  136.4509  137.9458  157.5525 C   0  0  0  0  0  0  0  0  0  0  0  0
  137.5984  137.2407  157.1370 C   0  0  0  0  0  0  0  0  0  0  0  0
  138.3589  136.5788  158.0425 F   0  0  0  0  0  0  0  0  0  0  0  0
  143.1850  136.0757  153.5260 C   0  0  0  0  0  0  0  0  0  0  0  0
  144.1972  135.7878  152.4063 C   0  0  0  0  0  0  0  0  0  0  0  0
  145.0962  132.8524  150.1455 C   0  0  0  0  0  0  0  0  0  0  0  0
  145.0466  131.4881  150.8598 C   0  0  0  0  0  0  0  0  0  0  0  0
  145.5619  129.8012  152.9854 H   0  0  0  0  0  0  0  0  0  0  0  0
  147.2988  129.6859  152.6762 H   0  0  0  0  0  0  0  0  0  0  0  0
  146.1534  129.1037  151.4722 H   0  0  0  0  0  0  0  0  0  0  0  0
  145.9114  132.3237  153.3485 H   0  0  0  0  0  0  0  0  0  0  0  0
  147.6128  132.0844  153.0078 H   0  0  0  0  0  0  0  0  0  0  0  0
  147.0260  134.4354  152.5449 H   0  0  0  0  0  0  0  0  0  0  0  0
  147.5159  133.6345  151.0973 H   0  0  0  0  0  0  0  0  0  0  0  0
  145.5428  134.9139  150.5209 H   0  0  0  0  0  0  0  0  0  0  0  0
  142.6227  134.2540  150.7718 H   0  0  0  0  0  0  0  0  0  0  0  0
  142.9658  132.7273  151.5661 H   0  0  0  0  0  0  0  0  0  0  0  0
  140.9194  133.6886  152.4845 H   0  0  0  0  0  0  0  0  0  0  0  0
  142.1563  133.4946  153.7034 H   0  0  0  0  0  0  0  0  0  0  0  0
  141.4269  136.0882  152.2724 H   0  0  0  0  0  0  0  0  0  0  0  0
  141.0084  135.2141  155.0933 H   0  0  0  0  0  0  0  0  0  0  0  0
  139.4412  135.8574  156.0624 H   0  0  0  0  0  0  0  0  0  0  0  0
  137.3119  138.0258  153.8190 H   0  0  0  0  0  0  0  0  0  0  0  0
  135.3337  139.1919  154.7407 H   0  0  0  0  0  0  0  0  0  0  0  0
  136.1675  137.9634  158.5944 H   0  0  0  0  0  0  0  0  0  0  0  0
  143.1480  137.1494  153.7154 H   0  0  0  0  0  0  0  0  0  0  0  0
  143.5240  135.6105  154.4529 H   0  0  0  0  0  0  0  0  0  0  0  0
  145.1588  136.1843  152.7235 H   0  0  0  0  0  0  0  0  0  0  0  0
  143.9187  136.3363  151.5048 H   0  0  0  0  0  0  0  0  0  0  0  0
  144.1952  133.0217  149.5567 H   0  0  0  0  0  0  0  0  0  0  0  0
  145.8955  132.8179  149.4035 H   0  0  0  0  0  0  0  0  0  0  0  0
  144.8787  130.7002  150.1246 H   0  0  0  0  0  0  0  0  0  0  0  0
  144.2098  131.4509  151.5585 H   0  0  0  0  0  0  0  0  0  0  0  0
  144.5246  133.8652  152.9583 H   0  0  0  0  0  0  0  0  0  0  0  0
  147.0467  131.2147  150.8906 H   0  0  0  0  0  0  0  0  0  0  0  0
  1  2  1  0  0  0  0
  1 25  1  0  0  0  0
  1 26  1  0  0  0  0
  1 27  1  0  0  0  0
  2 24  1  0  0  0  0
  2  3  1  0  0  0  0
  2 52  1  0  0  0  0
  3  4  1  0  0  0  0
  3 28  1  0  0  0  0
  3 29  1  0  0  0  0
  4  5  1  0  0  0  0
  4 30  1  0  0  0  0
  4 31  1  0  0  0  0
  5  6  1  0  0  0  0
  5 23  1  0  0  0  0
  5 32  1  0  0  0  0
  6 22  1  0  0  0  0
  6  7  1  0  0  0  0
  6 51  1  0  0  0  0
  7  8  1  0  0  0  0
  7 33  1  0  0  0  0
  7 34  1  0  0  0  0
  8  9  1  0  0  0  0
  8 35  1  0  0  0  0
  8 36  1  0  0  0  0
  9 10  1  0  0  0  0
  9 21  1  0  0  0  0
  9 37  1  0  0  0  0
 10 11  1  0  0  0  0
 10 38  1  0  0  0  0
 11 12  2  0  0  0  0
 11 13  1  0  0  0  0
 13 14  1  0  0  0  0
 13 39  1  0  0  0  0
 14 19  1  0  0  0  0
 14 15  2  0  0  0  0
 15 16  1  0  0  0  0
 15 40  1  0  0  0  0
 16 17  2  0  0  0  0
 16 41  1  0  0  0  0
 17 18  1  0  0  0  0
 18 19  2  0  0  0  0
 18 42  1  0  0  0  0
 19 20  1  0  0  0  0
 21 22  1  0  0  0  0
 21 43  1  0  0  0  0
 21 44  1  0  0  0  0
 22 45  1  0  0  0  0
 22 46  1  0  0  0  0
 23 24  1  0  0  0  0
 23 47  1  0  0  0  0
 23 48  1  0  0  0  0
 24 49  1  0  0  0  0
 24 50  1  0  0  0  0
M  CHG  1   2   1
M  CHG  1   6   1
M  END
> <s_m_source_file>
AV-unprocessed.smi

> <i_m_source_file_index>
2253

> <i_lp_mmshare_version>
43012

> <i_f3d_flags>
0

> <s_epik_input>
W0NIM11OMVtDSDJdW0NIMl1bQ0hdKFtDSDJdW0NIMl0xKU4yW0NIMl1bQ0gyXVtDSF0oW0NIMl1bQ0gyXTIpW05IXUMoPU8pW05IXWMzW2NIXVtjSF1uW2NIXWMzRg==

> <s_epik_cmdline>
J2VwaWtfcHl0aG9uJywgJy1waCcsICc3LjAnLCAnLXRuJywgJzgnLCAnLW1hJywgJzIwMCcsICctbWV0YWxfYmluZGluZycsICctaW1hZScsICc8aW5maWxlLm1hZT4nLCAnLW9tYWUnLCAnPG91dGZpbGUubWFlPic=

> <r_epik_Ionization_Penalty>
0.183544

> <r_epik_Ionization_Penalty_Charging>
0.180787

> <r_epik_Ionization_Penalty_Neutral>
0.00275649

> <r_epik_State_Penalty>
0.153592

> <r_epik_Charging_Adjusted_Penalty>
0.334379

> <i_epik_Tot_Q>
2

> <i_epik_Tot_abs_Q>
2

> <r_epik_Metal_State_Penalty>
0.153693

> <b_epik_Metal_Only>
0

> <s_lp_Force_Field>
OPLS_2005

> <r_lp_Energy>
49.9485

> <b_lp_Chiralities_Consistent>
1

> <s_lp_Variant>
AV-unprocessed.smi:2253-2

> <Gold.Version>
5.8.1

> <Gold.Id.Protein>
6NUR|6NUR_protein|mol2

> <Gold.PLP.Fitness>
43.6498

> <Gold.PLP.PLP>
-36.8029

> <Gold.PLP.part.hbond>
-3.0000

> <Gold.PLP.part.metal>
0.0000

> <Gold.PLP.part.buried>
-5.1789

> <Gold.PLP.part.nonpolar>
-30.1869

> <Gold.PLP.part.repulsive>
0.5164

> <Gold.PLP.ligand.clash>
0.0000

> <Gold.PLP.ligand.torsion>
1.0800

> <Gold.PLP.Chemscore.Hbond>
2.9920

> <Gold.PLP.Chemscore.CHOScore>
0.0000

> <Gold.PLP.Chemscore.Metal>
0.0000

> <Gold.Chemscore.Hbonds>
donor molecule, donor type, donor heavy atom, donor atom, acceptor molecule, acceptor atom, score
      L1  H     2    52       P1 10747  0.94
      L1  H    10    38       P1 11000  1.00
      L1  H    13    39       P1 11000  1.00

> <Gold.PLP.Chemscore.Internal.Correction>
0.0309

> <Gold.Rescore>
     Score         DG    S(hbond)    S(metal)    S(lipo)     H(rot)  DE(clash)    DE(int)     intcor
     18.95     -21.05       2.50        0.00      89.23       1.26       0.37       1.73       ----

> <Gold.Chemscore.Fitness>
18.9539

> <Gold.Chemscore.DG>
-21.0540

> <Gold.Chemscore.ZeroCoef>
-5.4800

> <Gold.Chemscore.Hbond>
2.4997

> <Gold.Chemscore.Metal>
0.0000

> <Gold.Chemscore.Lipo>
89.2318

> <Gold.Chemscore.Internal_Hbond>
0.0000

> <Gold.Chemscore.DEClash>
0.3660

> <Gold.Chemscore.DEInternal>
1.7342

> <Gold.Chemscore.Rot>
1.2559

> <Gold.Chemscore.Internal.Correction>
   9.000000E+99

> <Gold.Chemscore.Hbonds>
donor molecule, donor type, donor heavy atom, donor atom, acceptor molecule, acceptor atom, score
      L1  H     2    52       P1 10747  0.87
      L1  H    10    38       P1 11000  0.71
      L1  H    13    39       P1 11000  0.68

> <Gold.Chemscore.Hbond.Weighted>
-8.3490

> <Gold.Chemscore.Metal.Weighted>
-0.0000

> <Gold.Chemscore.Lipo.Weighted>
-10.4401

> <Gold.Chemscore.Internal_Hbond.Weighted>
0.0000

> <Gold.Chemscore.DEClash.Weighted>
0.3660

> <Gold.Chemscore.DEInternal.Weighted>
1.7342

> <Gold.Chemscore.Rot.Weighted>
3.2151

> <Gold.Chemscore.Internal.Correction.Weighted>
   9.000000E+99

> <Gold.Protein.RotatedTorsions>
[ 6907 6896 6895 6894 ] final -175.72 input  -60.11 | X-H torsion
[ 7974 7965 7964 7962 ] final  -71.07 input  175.53 | X-H torsion
[ 8008 7997 7996 7995 ] final  169.55 input   59.86 | X-H torsion
[ 10167 10162 10161 10158 ] final  168.02 input  -65.29 | X-H torsion
[ 10718 10713 10712 10709 ] final    1.10 input   66.30 | X-H torsion
[ 10763 10752 10751 10750 ] final  -39.05 input  -60.55 | X-H torsion
[ 11005 11000 10999 10996 ] final -136.42 input  -57.11 | X-H torsion

> <Gold.Protein.ActiveResidues>
 VAL166  LYS551  ARG553  GLY616  TRP617  ASP618  TYR619  PRO620  LYS621  CYS622 
 ASP623  PHE694  ASN695  SER759  ASP760  ASP761  ALA762  ILE779  LEU786  VAL792 
 PHE793  MET794  SER795  GLU796  ALA797  LYS798  CYS799  TRP800  GLU811  SER814 

> <Gold.Protein.RotatedAtoms>
  151.5931  133.3364  159.3031 H   0  0  0  0  0  0  0  0  0  0  0  0  # atno 6907 bound_to 6896
  150.8249  134.7478  159.6815 H   0  0  0  0  0  0  0  0  0  0  0  0  # atno 6908 bound_to 6896
  152.4339  134.5730  159.9978 H   0  0  0  0  0  0  0  0  0  0  0  0  # atno 6909 bound_to 6896
  145.6829  140.9181  143.0823 H   0  0  0  0  0  0  0  0  0  0  0  0  # atno 7974 bound_to 7965
  156.1447  140.1561  156.8866 H   0  0  0  0  0  0  0  0  0  0  0  0  # atno 8008 bound_to 7997
  154.5017  140.0823  156.7850 H   0  0  0  0  0  0  0  0  0  0  0  0  # atno 8009 bound_to 7997
  155.4012  140.3414  155.4259 H   0  0  0  0  0  0  0  0  0  0  0  0  # atno 8010 bound_to 7997
  139.4958  144.3859  151.9570 H   0  0  0  0  0  0  0  0  0  0  0  0  # atno 10167 bound_to 10162
  156.8431  130.5528  149.5676 H   0  0  0  0  0  0  0  0  0  0  0  0  # atno 10718 bound_to 10713
  153.9229  135.6780  153.4747 H   0  0  0  0  0  0  0  0  0  0  0  0  # atno 10763 bound_to 10752
  153.1019  135.4824  154.8879 H   0  0  0  0  0  0  0  0  0  0  0  0  # atno 10764 bound_to 10752
  154.7468  135.3174  154.8586 H   0  0  0  0  0  0  0  0  0  0  0  0  # atno 10765 bound_to 10752
  140.8807  134.1936  157.4593 H   0  0  0  0  0  0  0  0  0  0  0  0  # atno 11005 bound_to 11000
  144.7020  139.8720  143.7441 LP  0  0  0  0  0  0  0  0  0  0  0  0  # atno 17320 bound_to 7965
  146.0949  139.3941  143.0383 LP  0  0  0  0  0  0  0  0  0  0  0  0  # atno 17321 bound_to 7965
  140.3296  144.3331  150.5990 LP  0  0  0  0  0  0  0  0  0  0  0  0  # atno 17342 bound_to 10162
  140.5656  143.2186  151.7690 LP  0  0  0  0  0  0  0  0  0  0  0  0  # atno 17343 bound_to 10162
  156.0869  130.5865  150.9664 LP  0  0  0  0  0  0  0  0  0  0  0  0  # atno 17370 bound_to 10713
  157.6344  131.0917  150.8377 LP  0  0  0  0  0  0  0  0  0  0  0  0  # atno 17371 bound_to 10713
  139.8719  134.9816  156.5121 LP  0  0  0  0  0  0  0  0  0  0  0  0  # atno 17394 bound_to 11000
  140.8465  133.8165  155.9126 LP  0  0  0  0  0  0  0  0  0  0  0  0  # atno 17395 bound_to 11000

$$$$
