AV-unprocessed.smi:1995|AV-procd|sdf|8080|dock5
  -GOLD-   2272010293D 1   1.00000     0.00000
 Structure written by MMmdl.
 41 42  0  0  0  0  0  0  0  0  2 V2000
  149.6537  136.3905  157.7361 C   0  0  0  0  0  0  0  0  0  0  0  0
  150.0594  135.3657  156.6609 C   0  0  0  0  0  0  0  0  0  0  0  0
  149.5040  135.6341  155.2259 C   0  0  1  0  0  0  0  0  0  0  0  0
  150.0194  134.4718  154.3346 C   0  0  0  0  0  0  0  0  0  0  0  0
  147.9427  135.5593  155.2657 C   0  0  0  0  0  0  0  0  0  0  0  0
  147.3217  135.4005  153.9497 N   0  0  0  0  0  0  0  0  0  0  0  0
  146.3167  134.5709  153.6330 C   0  0  0  0  0  0  0  0  0  0  0  0
  145.8150  133.8490  154.4978 O   0  0  0  0  0  0  0  0  0  0  0  0
  145.9636  134.6209  152.3284 N   0  5  0  0  0  0  0  0  0  0  0  0
  145.3169  133.5862  151.7675 C   0  0  0  0  0  0  0  0  0  0  0  0
  144.0563  133.6657  151.3261 N   0  0  0  0  0  0  0  0  0  0  0  0
  143.5860  132.4735  150.7726 C   0  0  0  0  0  0  0  0  0  0  0  0
  144.5124  131.4648  150.7858 C   0  0  0  0  0  0  0  0  0  0  0  0
  146.0130  131.9856  151.4975 S   0  0  0  0  0  0  0  0  0  0  0  0
  149.9875  136.9462  154.7078 N   0  0  0  0  0  0  0  0  0  0  0  0
  149.2259  138.1174  155.1564 C   0  0  0  0  0  0  0  0  0  0  0  0
  149.6952  139.4078  154.4629 C   0  0  0  0  0  0  0  0  0  0  0  0
  151.0861  139.5990  154.6928 O   0  0  0  0  0  0  0  0  0  0  0  0
  151.8692  138.5071  154.2249 C   0  0  0  0  0  0  0  0  0  0  0  0
  151.4164  137.2104  154.9171 C   0  0  0  0  0  0  0  0  0  0  0  0
  150.0877  136.1222  158.6994 H   0  0  0  0  0  0  0  0  0  0  0  0
  148.5729  136.4350  157.8690 H   0  0  0  0  0  0  0  0  0  0  0  0
  150.0041  137.3928  157.4922 H   0  0  0  0  0  0  0  0  0  0  0  0
  151.1492  135.3396  156.6391 H   0  0  0  0  0  0  0  0  0  0  0  0
  149.7718  134.3694  156.9968 H   0  0  0  0  0  0  0  0  0  0  0  0
  149.8836  133.5000  154.8104 H   0  0  0  0  0  0  0  0  0  0  0  0
  151.0816  134.5741  154.1116 H   0  0  0  0  0  0  0  0  0  0  0  0
  149.4902  134.4228  153.3829 H   0  0  0  0  0  0  0  0  0  0  0  0
  147.6051  134.7645  155.9308 H   0  0  0  0  0  0  0  0  0  0  0  0
  147.5289  136.4793  155.6767 H   0  0  0  0  0  0  0  0  0  0  0  0
  147.6970  135.9682  153.2042 H   0  0  0  0  0  0  0  0  0  0  0  0
  142.5768  132.4327  150.3910 H   0  0  0  0  0  0  0  0  0  0  0  0
  144.4059  130.4544  150.4211 H   0  0  0  0  0  0  0  0  0  0  0  0
  148.1646  137.9965  154.9469 H   0  0  0  0  0  0  0  0  0  0  0  0
  149.3251  138.2442  156.2342 H   0  0  0  0  0  0  0  0  0  0  0  0
  149.4994  139.3620  153.3904 H   0  0  0  0  0  0  0  0  0  0  0  0
  149.1488  140.2671  154.8518 H   0  0  0  0  0  0  0  0  0  0  0  0
  151.7755  138.4195  153.1415 H   0  0  0  0  0  0  0  0  0  0  0  0
  152.9193  138.7045  154.4407 H   0  0  0  0  0  0  0  0  0  0  0  0
  151.6345  137.2914  155.9819 H   0  0  0  0  0  0  0  0  0  0  0  0
  152.0263  136.3956  154.5319 H   0  0  0  0  0  0  0  0  0  0  0  0
  1  2  1  0  0  0  0
  1 21  1  0  0  0  0
  1 22  1  0  0  0  0
  1 23  1  0  0  0  0
  2  3  1  0  0  0  0
  2 24  1  0  0  0  0
  2 25  1  0  0  0  0
  3  4  1  0  0  0  0
  3  5  1  0  0  0  0
  3 15  1  0  0  0  0
  4 26  1  0  0  0  0
  4 27  1  0  0  0  0
  4 28  1  0  0  0  0
  5  6  1  0  0  0  0
  5 29  1  0  0  0  0
  5 30  1  0  0  0  0
  6  7  1  0  0  0  0
  6 31  1  0  0  0  0
  7  8  2  0  0  0  0
  7  9  1  0  0  0  0
  9 10  1  0  0  0  0
 10 14  1  0  0  0  0
 10 11  2  0  0  0  0
 11 12  1  0  0  0  0
 12 13  2  0  0  0  0
 12 32  1  0  0  0  0
 13 14  1  0  0  0  0
 13 33  1  0  0  0  0
 15 20  1  0  0  0  0
 15 16  1  0  0  0  0
 16 17  1  0  0  0  0
 16 34  1  0  0  0  0
 16 35  1  0  0  0  0
 17 18  1  0  0  0  0
 17 36  1  0  0  0  0
 17 37  1  0  0  0  0
 18 19  1  0  0  0  0
 19 20  1  0  0  0  0
 19 38  1  0  0  0  0
 19 39  1  0  0  0  0
 20 40  1  0  0  0  0
 20 41  1  0  0  0  0
M  CHG  1   9  -1
M  END
> <s_m_source_file>
AV-unprocessed.smi

> <i_m_source_file_index>
1995

> <i_lp_mmshare_version>
43012

> <i_f3d_flags>
0

> <s_epik_input>
W0NIMl0xW0NIMl1PW0NIMl1bQ0gyXU4xW0NAQF0oW0NIM10pKFtDSDJdW0NIM10pW0NIMl1bTkhdQyg9TylbTkhdYzJuW2NIXVtjSF1zMg==

> <s_epik_cmdline>
J2VwaWtfcHl0aG9uJywgJy1waCcsICc3LjAnLCAnLXRuJywgJzgnLCAnLW1hJywgJzIwMCcsICctbWV0YWxfYmluZGluZycsICctaW1hZScsICc8aW5maWxlLm1hZT4nLCAnLW9tYWUnLCAnPG91dGZpbGUubWFlPic=

> <r_lp_tautomer_probability>
0.999

> <r_epik_Ionization_Penalty>
8.86479

> <r_epik_Ionization_Penalty_Charging>
6.76546

> <r_epik_Ionization_Penalty_Neutral>
2.09933

> <r_epik_State_Penalty>
7.05418

> <r_epik_Charging_Adjusted_Penalty>
13.8196

> <i_epik_Tot_Q>
-1

> <i_epik_Tot_abs_Q>
1

> <r_epik_Metal_State_Penalty>
2.97744

> <b_epik_Metal_Only>
1

> <s_lp_Force_Field>
OPLS_2005

> <r_lp_Energy>
37.7031

> <b_lp_Chiralities_Consistent>
1

> <s_lp_Variant>
AV-unprocessed.smi:1995-5

> <Gold.Version>
5.8.1

> <Gold.Id.Protein>
6NUR|6NUR_protein|mol2

> <Gold.PLP.Fitness>
34.8791

> <Gold.PLP.PLP>
-27.7273

> <Gold.PLP.part.hbond>
-2.0000

> <Gold.PLP.part.metal>
0.0000

> <Gold.PLP.part.buried>
-5.9257

> <Gold.PLP.part.nonpolar>
-20.6909

> <Gold.PLP.part.repulsive>
0.9264

> <Gold.PLP.ligand.clash>
0.0000

> <Gold.PLP.ligand.torsion>
1.4423

> <Gold.PLP.Chemscore.Hbond>
2.0000

> <Gold.PLP.Chemscore.CHOScore>
1.2848

> <Gold.PLP.Chemscore.Metal>
0.0000

> <Gold.Chemscore.Hbonds>
donor molecule, donor type, donor heavy atom, donor atom, acceptor molecule, acceptor atom, score
      L1  H     6    31       P1  7948  0.99
      P1  H  7989  7998       L1    18  0.90
      L1  C    12    32       P1 10186  0.67
      L1  C    12    32       P1 10952  0.23

> <Gold.PLP.Chemscore.Internal.Correction>
0.1821

> <Gold.Rescore>
     Score         DG    S(hbond)    S(metal)    S(lipo)     H(rot)  DE(clash)    DE(int)     intcor
     11.70     -13.09       1.14        0.00      69.63       1.70       0.10       1.29       ----

> <Gold.Chemscore.Fitness>
11.6985

> <Gold.Chemscore.DG>
-13.0864

> <Gold.Chemscore.ZeroCoef>
-5.4800

> <Gold.Chemscore.Hbond>
1.1402

> <Gold.Chemscore.Metal>
0.0000

> <Gold.Chemscore.Lipo>
69.6264

> <Gold.Chemscore.Internal_Hbond>
0.0000

> <Gold.Chemscore.DEClash>
0.1012

> <Gold.Chemscore.DEInternal>
1.2867

> <Gold.Chemscore.Rot>
1.6985

> <Gold.Chemscore.Internal.Correction>
   9.000000E+99

> <Gold.Chemscore.Hbonds>
donor molecule, donor type, donor heavy atom, donor atom, acceptor molecule, acceptor atom, score
      L1  H     6    31       P1  7948  0.93
      P1  H  7989  7998       L1    18  0.11

> <Gold.Chemscore.Hbond.Weighted>
-3.8083

> <Gold.Chemscore.Metal.Weighted>
-0.0000

> <Gold.Chemscore.Lipo.Weighted>
-8.1463

> <Gold.Chemscore.Internal_Hbond.Weighted>
0.0000

> <Gold.Chemscore.DEClash.Weighted>
0.1012

> <Gold.Chemscore.DEInternal.Weighted>
1.2867

> <Gold.Chemscore.Rot.Weighted>
4.3482

> <Gold.Chemscore.Internal.Correction.Weighted>
   9.000000E+99

> <Gold.Protein.RotatedTorsions>
[ 6907 6896 6895 6894 ] final   69.62 input  -60.11 | X-H torsion
[ 7974 7965 7964 7962 ] final  -80.09 input  175.53 | X-H torsion
[ 8008 7997 7996 7995 ] final -145.22 input   59.86 | X-H torsion
[ 10167 10162 10161 10158 ] final  160.15 input  -65.29 | X-H torsion
[ 10718 10713 10712 10709 ] final -134.31 input   66.30 | X-H torsion
[ 10763 10752 10751 10750 ] final -128.95 input  -60.55 | X-H torsion
[ 11005 11000 10999 10996 ] final  -96.71 input  -57.11 | X-H torsion

> <Gold.Protein.ActiveResidues>
 VAL166  LYS551  ARG553  GLY616  TRP617  ASP618  TYR619  PRO620  LYS621  CYS622 
 ASP623  PHE694  ASN695  SER759  ASP760  ASP761  ALA762  ILE779  LEU786  VAL792 
 PHE793  MET794  SER795  GLU796  ALA797  LYS798  CYS799  TRP800  GLU811  SER814 

> <Gold.Protein.RotatedAtoms>
  152.4698  134.4989  159.9718 H   0  0  0  0  0  0  0  0  0  0  0  0  # atno 6907 bound_to 6896
  151.5018  133.3497  159.2878 H   0  0  0  0  0  0  0  0  0  0  0  0  # atno 6908 bound_to 6896
  150.8701  134.8101  159.7210 H   0  0  0  0  0  0  0  0  0  0  0  0  # atno 6909 bound_to 6896
  145.5645  140.9476  143.1429 H   0  0  0  0  0  0  0  0  0  0  0  0  # atno 7974 bound_to 7965
  155.5396  140.0607  157.2872 H   0  0  0  0  0  0  0  0  0  0  0  0  # atno 8008 bound_to 7997
  154.4456  140.1921  156.0622 H   0  0  0  0  0  0  0  0  0  0  0  0  # atno 8009 bound_to 7997
  156.0594  140.3274  155.7447 H   0  0  0  0  0  0  0  0  0  0  0  0  # atno 8010 bound_to 7997
  139.4837  144.4662  151.8638 H   0  0  0  0  0  0  0  0  0  0  0  0  # atno 10167 bound_to 10162
  156.2541  130.7171  151.1081 H   0  0  0  0  0  0  0  0  0  0  0  0  # atno 10718 bound_to 10713
  154.8757  135.3911  154.3841 H   0  0  0  0  0  0  0  0  0  0  0  0  # atno 10763 bound_to 10752
  153.4584  135.7029  153.6070 H   0  0  0  0  0  0  0  0  0  0  0  0  # atno 10764 bound_to 10752
  153.4579  135.3818  155.2290 H   0  0  0  0  0  0  0  0  0  0  0  0  # atno 10765 bound_to 10752
  141.1402  133.8118  157.0609 H   0  0  0  0  0  0  0  0  0  0  0  0  # atno 11005 bound_to 11000
  144.7467  139.7302  143.7289 LP  0  0  0  0  0  0  0  0  0  0  0  0  # atno 17320 bound_to 7965
  146.1828  139.5028  142.9856 LP  0  0  0  0  0  0  0  0  0  0  0  0  # atno 17321 bound_to 7965
  140.4128  144.2347  150.5888 LP  0  0  0  0  0  0  0  0  0  0  0  0  # atno 17342 bound_to 10162
  140.4950  143.2335  151.8763 LP  0  0  0  0  0  0  0  0  0  0  0  0  # atno 17343 bound_to 10162
  157.7226  131.0672  150.6072 LP  0  0  0  0  0  0  0  0  0  0  0  0  # atno 17370 bound_to 10713
  156.6154  130.4391  149.5843 LP  0  0  0  0  0  0  0  0  0  0  0  0  # atno 17371 bound_to 10713
  140.0572  134.9774  157.1241 LP  0  0  0  0  0  0  0  0  0  0  0  0  # atno 17394 bound_to 11000
  140.3902  134.2193  155.7166 LP  0  0  0  0  0  0  0  0  0  0  0  0  # atno 17395 bound_to 11000

$$$$
