AV-unprocessed.smi:2690|AV-procd|sdf|10389|dock8
  -GOLD-   2272014423D 1   1.00000     0.00000
 Structure written by MMmdl.
 47 49  0  0  0  0  0  0  0  0  1 V2000
  149.9174  141.0047  156.1174 C   0  0  0  0  0  0  0  0  0  0  0  0
  149.2636  140.6507  154.7743 C   0  0  2  0  0  0  0  0  0  0  0  0
  147.9009  141.3502  154.6117 C   0  0  0  0  0  0  0  0  0  0  0  0
  147.2301  140.9824  153.2764 C   0  0  0  0  0  0  0  0  0  0  0  0
  147.0725  139.4561  153.0902 C   0  0  2  0  0  0  0  0  0  0  0  0
  146.6793  139.2532  151.7455 O   0  0  0  0  0  0  0  0  0  0  0  0
  145.9522  138.8770  153.9981 C   0  0  0  0  0  0  0  0  0  0  0  0
  145.5431  137.5223  153.6534 N   0  0  0  0  0  0  0  0  0  0  0  0
  144.6770  137.1518  152.6479 C   0  0  0  0  0  0  0  0  0  0  0  0
  144.4642  135.8688  152.5369 N   0  0  0  0  0  0  0  0  0  0  0  0
  145.2344  135.3129  153.5498 C   0  0  0  0  0  0  0  0  0  0  0  0
  145.4659  133.9845  153.9923 C   0  0  0  0  0  0  0  0  0  0  0  0
  144.8705  132.9343  153.3837 N   0  0  0  0  0  0  0  0  0  0  0  0
  145.0983  132.6416  151.9711 C   0  0  0  0  0  0  0  0  0  0  0  0
  143.7880  132.7023  151.1683 C   0  0  0  0  0  0  0  0  0  0  0  0
  145.7669  131.2687  151.8235 C   0  0  0  0  0  0  0  0  0  0  0  0
  146.3000  133.8077  155.0507 N   0  0  0  0  0  0  0  0  0  0  0  0
  146.8728  134.8639  155.6363 C   0  0  0  0  0  0  0  0  0  0  0  0
  146.7493  136.1571  155.3295 N   0  0  0  0  0  0  0  0  0  0  0  0
  145.9138  136.3374  154.2668 C   0  0  0  0  0  0  0  0  0  0  0  0
  148.4453  138.7646  153.2692 C   0  0  0  0  0  0  0  0  0  0  0  0
  149.1128  139.1271  154.6077 C   0  0  0  0  0  0  0  0  0  0  0  0
  149.3053  140.6716  156.9560 H   0  0  0  0  0  0  0  0  0  0  0  0
  150.0574  142.0817  156.2141 H   0  0  0  0  0  0  0  0  0  0  0  0
  150.8967  140.5352  156.2132 H   0  0  0  0  0  0  0  0  0  0  0  0
  149.9226  141.0107  153.9829 H   0  0  0  0  0  0  0  0  0  0  0  0
  147.2460  141.0874  155.4427 H   0  0  0  0  0  0  0  0  0  0  0  0
  148.0328  142.4316  154.6624 H   0  0  0  0  0  0  0  0  0  0  0  0
  146.2609  141.4770  153.2007 H   0  0  0  0  0  0  0  0  0  0  0  0
  147.8391  141.3876  152.4665 H   0  0  0  0  0  0  0  0  0  0  0  0
  145.7693  139.4929  151.6598 H   0  0  0  0  0  0  0  0  0  0  0  0
  146.2654  138.8770  155.0418 H   0  0  0  0  0  0  0  0  0  0  0  0
  145.0679  139.5143  153.9546 H   0  0  0  0  0  0  0  0  0  0  0  0
  144.2071  137.8686  151.9903 H   0  0  0  0  0  0  0  0  0  0  0  0
  144.2068  132.3357  153.8538 H   0  0  0  0  0  0  0  0  0  0  0  0
  145.7904  133.3803  151.5653 H   0  0  0  0  0  0  0  0  0  0  0  0
  143.9658  132.4886  150.1141 H   0  0  0  0  0  0  0  0  0  0  0  0
  143.3258  133.6879  151.2258 H   0  0  0  0  0  0  0  0  0  0  0  0
  143.0641  131.9749  151.5366 H   0  0  0  0  0  0  0  0  0  0  0  0
  145.9810  131.0474  150.7774 H   0  0  0  0  0  0  0  0  0  0  0  0
  145.1299  130.4717  152.2087 H   0  0  0  0  0  0  0  0  0  0  0  0
  146.7119  131.2324  152.3663 H   0  0  0  0  0  0  0  0  0  0  0  0
  147.5230  134.6403  156.4691 H   0  0  0  0  0  0  0  0  0  0  0  0
  148.3549  137.6820  153.1777 H   0  0  0  0  0  0  0  0  0  0  0  0
  149.1129  139.0718  152.4625 H   0  0  0  0  0  0  0  0  0  0  0  0
  150.0915  138.6493  154.6635 H   0  0  0  0  0  0  0  0  0  0  0  0
  148.5306  138.7244  155.4360 H   0  0  0  0  0  0  0  0  0  0  0  0
  1  2  1  0  0  0  0
  1 23  1  0  0  0  0
  1 24  1  0  0  0  0
  1 25  1  0  0  0  0
  2 22  1  0  0  0  0
  2  3  1  0  0  0  0
  2 26  1  0  0  0  0
  3  4  1  0  0  0  0
  3 27  1  0  0  0  0
  3 28  1  0  0  0  0
  4  5  1  0  0  0  0
  4 29  1  0  0  0  0
  4 30  1  0  0  0  0
  5  6  1  0  0  0  0
  5  7  1  0  0  0  0
  5 21  1  0  0  0  0
  6 31  1  0  0  0  0
  7  8  1  0  0  0  0
  7 32  1  0  0  0  0
  7 33  1  0  0  0  0
  8 20  1  0  0  0  0
  8  9  1  0  0  0  0
  9 10  2  0  0  0  0
  9 34  1  0  0  0  0
 10 11  1  0  0  0  0
 11 20  2  0  0  0  0
 11 12  1  0  0  0  0
 12 13  1  0  0  0  0
 12 17  2  0  0  0  0
 13 14  1  0  0  0  0
 13 35  1  0  0  0  0
 14 15  1  0  0  0  0
 14 16  1  0  0  0  0
 14 36  1  0  0  0  0
 15 37  1  0  0  0  0
 15 38  1  0  0  0  0
 15 39  1  0  0  0  0
 16 40  1  0  0  0  0
 16 41  1  0  0  0  0
 16 42  1  0  0  0  0
 17 18  1  0  0  0  0
 18 19  2  0  0  0  0
 18 43  1  0  0  0  0
 19 20  1  0  0  0  0
 21 22  1  0  0  0  0
 21 44  1  0  0  0  0
 21 45  1  0  0  0  0
 22 46  1  0  0  0  0
 22 47  1  0  0  0  0
M  END
> <s_m_source_file>
AV-unprocessed.smi

> <i_m_source_file_index>
2690

> <i_lp_mmshare_version>
43012

> <i_f3d_flags>
0

> <s_epik_input>
W0NIMl0xW0NIMl1bQ0BIXShbQ0gzXSlbQ0gyXVtDSDJdW0NAQF0xKFtPSF0pW0NIMl1uKFtjSF1uMiljKGMyMyluW2NIXW5jM1tOSF1bQ0hdKFtDSDNdKVtDSDNd

> <s_epik_cmdline>
J2VwaWtfcHl0aG9uJywgJy1waCcsICc3LjAnLCAnLXRuJywgJzgnLCAnLW1hJywgJzIwMCcsICctbWV0YWxfYmluZGluZycsICctaW1hZScsICc8aW5maWxlLm1hZT4nLCAnLW9tYWUnLCAnPG91dGZpbGUubWFlPic=

> <r_lp_tautomer_probability>
1

> <r_epik_Ionization_Penalty>
0.00225104

> <r_epik_Ionization_Penalty_Charging>
0

> <r_epik_Ionization_Penalty_Neutral>
0.00225104

> <r_epik_State_Penalty>
-0

> <r_epik_Charging_Adjusted_Penalty>
0

> <i_epik_Tot_Q>
0

> <i_epik_Tot_abs_Q>
0

> <r_epik_Metal_State_Penalty>
-0

> <b_epik_Metal_Only>
0

> <s_lp_Force_Field>
OPLS_2005

> <r_lp_Energy>
15.1009

> <b_lp_Chiralities_Consistent>
1

> <s_lp_Variant>
AV-unprocessed.smi:2690-2

> <Gold.Version>
5.8.1

> <Gold.Id.Protein>
6NUR|6NUR_protein|mol2

> <Gold.PLP.Fitness>
35.9526

> <Gold.PLP.PLP>
-25.7994

> <Gold.PLP.part.hbond>
-2.3099

> <Gold.PLP.part.metal>
0.0000

> <Gold.PLP.part.buried>
1.1951

> <Gold.PLP.part.nonpolar>
-26.0760

> <Gold.PLP.part.repulsive>
0.2170

> <Gold.PLP.ligand.clash>
0.0000

> <Gold.PLP.ligand.torsion>
0.9423

> <Gold.PLP.Chemscore.Hbond>
2.0000

> <Gold.PLP.Chemscore.CHOScore>
2.0000

> <Gold.PLP.Chemscore.Metal>
0.0000

> <Gold.Chemscore.Hbonds>
donor molecule, donor type, donor heavy atom, donor atom, acceptor molecule, acceptor atom, score
      L1  H     6    31       P1 10175  0.02
      L1  H    13    35       P1 10957  1.00
      L1  C     9    34       P1 10171  1.00
      L1  C     9    34       P1 10175  0.65

> <Gold.PLP.Chemscore.Internal.Correction>
0.0378

> <Gold.Rescore>
     Score         DG    S(hbond)    S(metal)    S(lipo)     H(rot)  DE(clash)    DE(int)     intcor
     12.54     -13.83       1.94        0.00      60.97       2.05       0.17       1.12       ----

> <Gold.Chemscore.Fitness>
12.5412

> <Gold.Chemscore.DG>
-13.8320

> <Gold.Chemscore.ZeroCoef>
-5.4800

> <Gold.Chemscore.Hbond>
1.9379

> <Gold.Chemscore.Metal>
0.0000

> <Gold.Chemscore.Lipo>
60.9739

> <Gold.Chemscore.Internal_Hbond>
0.0000

> <Gold.Chemscore.DEClash>
0.1743

> <Gold.Chemscore.DEInternal>
1.1165

> <Gold.Chemscore.Rot>
2.0526

> <Gold.Chemscore.Internal.Correction>
   9.000000E+99

> <Gold.Chemscore.Hbonds>
donor molecule, donor type, donor heavy atom, donor atom, acceptor molecule, acceptor atom, score
      L1  H     6    31       P1 10175  0.05
      L1  H    13    35       P1 10957  0.30

> <Gold.Chemscore.Hbond.Weighted>
-6.4727

> <Gold.Chemscore.Metal.Weighted>
-0.0000

> <Gold.Chemscore.Lipo.Weighted>
-7.1339

> <Gold.Chemscore.Internal_Hbond.Weighted>
0.0000

> <Gold.Chemscore.DEClash.Weighted>
0.1743

> <Gold.Chemscore.DEInternal.Weighted>
1.1165

> <Gold.Chemscore.Rot.Weighted>
5.2546

> <Gold.Chemscore.Internal.Correction.Weighted>
   9.000000E+99

> <Gold.Protein.RotatedTorsions>
[ 6907 6896 6895 6894 ] final  111.91 input  -60.11 | X-H torsion
[ 7974 7965 7964 7962 ] final   14.93 input  175.53 | X-H torsion
[ 8008 7997 7996 7995 ] final  163.08 input   59.86 | X-H torsion
[ 10167 10162 10161 10158 ] final  152.83 input  -65.29 | X-H torsion
[ 10718 10713 10712 10709 ] final   25.61 input   66.30 | X-H torsion
[ 10763 10752 10751 10750 ] final -100.69 input  -60.55 | X-H torsion
[ 11005 11000 10999 10996 ] final  117.51 input  -57.11 | X-H torsion

> <Gold.Protein.ActiveResidues>
 VAL166  LYS551  ARG553  GLY616  TRP617  ASP618  TYR619  PRO620  LYS621  CYS622 
 ASP623  PHE694  ASN695  SER759  ASP760  ASP761  ALA762  ILE779  LEU786  VAL792 
 PHE793  MET794  SER795  GLU796  ALA797  LYS798  CYS799  TRP800  GLU811  SER814 

> <Gold.Protein.RotatedAtoms>
  152.4944  133.8590  159.7240 H   0  0  0  0  0  0  0  0  0  0  0  0  # atno 6907 bound_to 6896
  150.9107  133.6992  159.2862 H   0  0  0  0  0  0  0  0  0  0  0  0  # atno 6908 bound_to 6896
  151.4403  135.1023  159.9720 H   0  0  0  0  0  0  0  0  0  0  0  0  # atno 6909 bound_to 6896
  146.2292  139.8968  142.8545 H   0  0  0  0  0  0  0  0  0  0  0  0  # atno 7974 bound_to 7965
  156.1983  140.1733  156.7951 H   0  0  0  0  0  0  0  0  0  0  0  0  # atno 8008 bound_to 7997
  154.5559  140.0709  156.8773 H   0  0  0  0  0  0  0  0  0  0  0  0  # atno 8009 bound_to 7997
  155.2940  140.3357  155.4253 H   0  0  0  0  0  0  0  0  0  0  0  0  # atno 8010 bound_to 7997
  139.4830  144.5324  151.7700 H   0  0  0  0  0  0  0  0  0  0  0  0  # atno 10167 bound_to 10162
  157.1957  130.6867  149.6168 H   0  0  0  0  0  0  0  0  0  0  0  0  # atno 10718 bound_to 10713
  154.7599  135.4925  153.9445 H   0  0  0  0  0  0  0  0  0  0  0  0  # atno 10763 bound_to 10752
  153.1239  135.6738  153.9297 H   0  0  0  0  0  0  0  0  0  0  0  0  # atno 10764 bound_to 10752
  153.9020  135.3108  155.3427 H   0  0  0  0  0  0  0  0  0  0  0  0  # atno 10765 bound_to 10752
  139.9077  134.9611  156.7362 H   0  0  0  0  0  0  0  0  0  0  0  0  # atno 11005 bound_to 11000
  145.2362  140.9992  143.3962 LP  0  0  0  0  0  0  0  0  0  0  0  0  # atno 17320 bound_to 7965
  144.9489  139.4105  143.6412 LP  0  0  0  0  0  0  0  0  0  0  0  0  # atno 17321 bound_to 7965
  140.4852  144.1391  150.5940 LP  0  0  0  0  0  0  0  0  0  0  0  0  # atno 17342 bound_to 10162
  140.4233  143.2601  151.9688 LP  0  0  0  0  0  0  0  0  0  0  0  0  # atno 17343 bound_to 10162
  155.9706  130.4599  150.6055 LP  0  0  0  0  0  0  0  0  0  0  0  0  # atno 17370 bound_to 10713
  157.3816  131.0782  151.1471 LP  0  0  0  0  0  0  0  0  0  0  0  0  # atno 17371 bound_to 10713
  140.6885  133.9411  155.7952 LP  0  0  0  0  0  0  0  0  0  0  0  0  # atno 17394 bound_to 11000
  141.0458  134.0555  157.3845 LP  0  0  0  0  0  0  0  0  0  0  0  0  # atno 17395 bound_to 11000

$$$$
