AV-unprocessed.smi:1986|AV-procd|sdf|8053|dock9
  -GOLD-   2272010253D 1   1.00000     0.00000
 Structure written by MMmdl.
 48 49  0  0  0  0  0  0  0  0  2 V2000
  145.6160  137.9489  153.6814 C   0  0  0  0  0  0  0  0  0  0  0  0
  146.8389  137.3634  154.4119 C   0  0  0  0  0  0  0  0  0  0  0  0
  146.8238  135.8303  154.7312 C   0  0  2  0  0  0  0  0  0  0  0  0
  145.5250  135.4958  155.5049 C   0  0  0  0  0  0  0  0  0  0  0  0
  148.0497  135.4837  155.6312 C   0  0  0  0  0  0  0  0  0  0  0  0
  147.8454  135.9114  157.0124 N   0  0  0  0  0  0  0  0  0  0  0  0
  148.5305  135.4920  158.0891 C   0  0  0  0  0  0  0  0  0  0  0  0
  149.3647  134.5894  158.0452 O   0  0  0  0  0  0  0  0  0  0  0  0
  148.2890  136.2332  159.4150 C   0  0  0  0  0  0  0  0  0  0  0  0
  147.8395  135.3680  160.5194 N   0  0  0  0  0  0  0  0  0  0  0  0
  147.7958  134.0195  160.2023 N   0  0  0  0  0  0  0  0  0  0  0  0
  147.4005  133.1622  161.0818 C   0  0  0  0  0  0  0  0  0  0  0  0
  147.3696  131.8366  160.7244 O   0  0  0  0  0  0  0  0  0  0  0  0
  146.9991  133.5807  162.4071 C   0  0  0  0  0  0  0  0  0  0  0  0
  147.0448  134.8971  162.7076 C   0  0  0  0  0  0  0  0  0  0  0  0
  147.4825  135.8961  161.7318 C   0  0  0  0  0  0  0  0  0  0  0  0
  147.5056  137.1041  161.9676 O   0  0  0  0  0  0  0  0  0  0  0  0
  146.9072  135.0280  153.4509 N   0  3  0  0  0  0  0  0  0  0  0  0
  147.1702  133.5706  153.6220 C   0  0  0  0  0  0  0  0  0  0  0  0
  147.4803  132.9195  152.2669 C   0  0  0  0  0  0  0  0  0  0  0  0
  146.3652  133.0960  151.4058 O   0  0  0  0  0  0  0  0  0  0  0  0
  146.1123  134.4703  151.1528 C   0  0  0  0  0  0  0  0  0  0  0  0
  145.8015  135.2107  152.4670 C   0  0  0  0  0  0  0  0  0  0  0  0
  148.0176  131.4130  161.2662 H   0  0  0  0  0  0  0  0  0  0  0  0
  145.7895  138.9982  153.4424 H   0  0  0  0  0  0  0  0  0  0  0  0
  144.7160  137.9132  154.2949 H   0  0  0  0  0  0  0  0  0  0  0  0
  145.4107  137.4362  152.7426 H   0  0  0  0  0  0  0  0  0  0  0  0
  147.7046  137.5956  153.7912 H   0  0  0  0  0  0  0  0  0  0  0  0
  146.9701  137.9300  155.3347 H   0  0  0  0  0  0  0  0  0  0  0  0
  145.4340  136.0890  156.4140 H   0  0  0  0  0  0  0  0  0  0  0  0
  145.4911  134.4545  155.8245 H   0  0  0  0  0  0  0  0  0  0  0  0
  144.6361  135.6884  154.9039 H   0  0  0  0  0  0  0  0  0  0  0  0
  148.2311  134.4096  155.6377 H   0  0  0  0  0  0  0  0  0  0  0  0
  148.9753  135.8972  155.2322 H   0  0  0  0  0  0  0  0  0  0  0  0
  147.1679  136.6468  157.1560 H   0  0  0  0  0  0  0  0  0  0  0  0
  149.2149  136.7438  159.6859 H   0  0  0  0  0  0  0  0  0  0  0  0
  147.5564  137.0253  159.2504 H   0  0  0  0  0  0  0  0  0  0  0  0
  146.6732  132.8512  163.1338 H   0  0  0  0  0  0  0  0  0  0  0  0
  146.7480  135.2230  163.6936 H   0  0  0  0  0  0  0  0  0  0  0  0
  148.0065  133.3848  154.2916 H   0  0  0  0  0  0  0  0  0  0  0  0
  146.3000  133.0782  154.0570 H   0  0  0  0  0  0  0  0  0  0  0  0
  148.3817  133.3453  151.8225 H   0  0  0  0  0  0  0  0  0  0  0  0
  147.6599  131.8518  152.3951 H   0  0  0  0  0  0  0  0  0  0  0  0
  146.9697  134.9175  150.6482 H   0  0  0  0  0  0  0  0  0  0  0  0
  145.2673  134.5516  150.4690 H   0  0  0  0  0  0  0  0  0  0  0  0
  144.8642  134.8482  152.8904 H   0  0  0  0  0  0  0  0  0  0  0  0
  145.6572  136.2571  152.2054 H   0  0  0  0  0  0  0  0  0  0  0  0
  147.7251  135.3926  152.9829 H   0  0  0  0  0  0  0  0  0  0  0  0
  1  2  1  0  0  0  0
  1 25  1  0  0  0  0
  1 26  1  0  0  0  0
  1 27  1  0  0  0  0
  2  3  1  0  0  0  0
  2 28  1  0  0  0  0
  2 29  1  0  0  0  0
  3  4  1  0  0  0  0
  3  5  1  0  0  0  0
  3 18  1  0  0  0  0
  4 30  1  0  0  0  0
  4 31  1  0  0  0  0
  4 32  1  0  0  0  0
  5  6  1  0  0  0  0
  5 33  1  0  0  0  0
  5 34  1  0  0  0  0
  6  7  1  0  0  0  0
  6 35  1  0  0  0  0
  7  8  2  0  0  0  0
  7  9  1  0  0  0  0
  9 36  1  0  0  0  0
  9 37  1  0  0  0  0
  9 10  1  0  0  0  0
 10 11  1  0  0  0  0
 10 16  1  0  0  0  0
 11 12  2  0  0  0  0
 12 13  1  0  0  0  0
 12 14  1  0  0  0  0
 13 24  1  0  0  0  0
 14 38  1  0  0  0  0
 14 15  2  0  0  0  0
 15 39  1  0  0  0  0
 15 16  1  0  0  0  0
 16 17  2  0  0  0  0
 18 23  1  0  0  0  0
 18 19  1  0  0  0  0
 18 48  1  0  0  0  0
 19 20  1  0  0  0  0
 19 40  1  0  0  0  0
 19 41  1  0  0  0  0
 20 21  1  0  0  0  0
 20 42  1  0  0  0  0
 20 43  1  0  0  0  0
 21 22  1  0  0  0  0
 22 23  1  0  0  0  0
 22 44  1  0  0  0  0
 22 45  1  0  0  0  0
 23 46  1  0  0  0  0
 23 47  1  0  0  0  0
M  CHG  1  18   1
M  END
> <s_m_source_file>
AV-unprocessed.smi

> <i_m_source_file_index>
1986

> <i_lp_mmshare_version>
43012

> <i_f3d_flags>
0

> <s_epik_input>
W0NIMl0xW0NIMl1PW0NIMl1bQ0gyXU4xW0NAQF0oW0NIM10pKFtDSDJdW0NIM10pW0NIMl1bTkhdQyg9TylbQ0gyXW4yW25IXWMoPU8pW2NIXVtjSF1jMj1P

> <s_epik_cmdline>
J2VwaWtfcHl0aG9uJywgJy1waCcsICc3LjAnLCAnLXRuJywgJzgnLCAnLW1hJywgJzIwMCcsICctbWV0YWxfYmluZGluZycsICctaW1hZScsICc8aW5maWxlLm1hZT4nLCAnLW9tYWUnLCAnPG91dGZpbGUubWFlPic=

> <r_lp_tautomer_probability>
0.9996

> <r_epik_Ionization_Penalty>
2.73198

> <r_epik_Ionization_Penalty_Charging>
0.519658

> <r_epik_Ionization_Penalty_Neutral>
2.21233

> <r_epik_State_Penalty>
2.2852

> <r_epik_Charging_Adjusted_Penalty>
2.80486

> <i_epik_Tot_Q>
1

> <i_epik_Tot_abs_Q>
1

> <r_epik_Metal_State_Penalty>
2.2852

> <b_epik_Metal_Only>
0

> <s_lp_Force_Field>
OPLS_2005

> <r_lp_Energy>
41.4304

> <b_lp_Chiralities_Consistent>
1

> <s_lp_Variant>
AV-unprocessed.smi:1986-8

> <Gold.Version>
5.8.1

> <Gold.Id.Protein>
6NUR|6NUR_protein|mol2

> <Gold.PLP.Fitness>
45.7089

> <Gold.PLP.PLP>
-32.8934

> <Gold.PLP.part.hbond>
-4.0000

> <Gold.PLP.part.metal>
0.0000

> <Gold.PLP.part.buried>
-3.5195

> <Gold.PLP.part.nonpolar>
-25.1450

> <Gold.PLP.part.repulsive>
0.1711

> <Gold.PLP.ligand.clash>
0.0000

> <Gold.PLP.ligand.torsion>
0.4772

> <Gold.PLP.Chemscore.Hbond>
4.5200

> <Gold.PLP.Chemscore.CHOScore>
0.0000

> <Gold.PLP.Chemscore.Metal>
0.0000

> <Gold.Chemscore.Hbonds>
donor molecule, donor type, donor heavy atom, donor atom, acceptor molecule, acceptor atom, score
      L1  H    18    48       P1  7948  2.00
      P1  H  6896  6908       L1     8  1.00
      P1  H  6931  6943       L1    17  0.98
      P1  H  6934  6947       L1    17  0.42

> <Gold.PLP.Chemscore.Internal.Correction>
0.2098

> <Gold.Rescore>
     Score         DG    S(hbond)    S(metal)    S(lipo)     H(rot)  DE(clash)    DE(int)     intcor
     12.52     -15.52       3.64        0.00      50.88       3.15       0.04       2.97       ----

> <Gold.Chemscore.Fitness>
12.5152

> <Gold.Chemscore.DG>
-15.5245

> <Gold.Chemscore.ZeroCoef>
-5.4800

> <Gold.Chemscore.Hbond>
3.6382

> <Gold.Chemscore.Metal>
0.0000

> <Gold.Chemscore.Lipo>
50.8801

> <Gold.Chemscore.Internal_Hbond>
0.0000

> <Gold.Chemscore.DEClash>
0.0403

> <Gold.Chemscore.DEInternal>
2.9689

> <Gold.Chemscore.Rot>
3.1485

> <Gold.Chemscore.Internal.Correction>
   9.000000E+99

> <Gold.Chemscore.Hbonds>
donor molecule, donor type, donor heavy atom, donor atom, acceptor molecule, acceptor atom, score
      L1  H    18    48       P1  7948  1.00
      P1  H  6896  6908       L1     8  1.00
      P1  H  6931  6943       L1    17  0.93
      P1  H  6934  6947       L1    17  0.42

> <Gold.Chemscore.Hbond.Weighted>
-12.1516

> <Gold.Chemscore.Metal.Weighted>
-0.0000

> <Gold.Chemscore.Lipo.Weighted>
-5.9530

> <Gold.Chemscore.Internal_Hbond.Weighted>
0.0000

> <Gold.Chemscore.DEClash.Weighted>
0.0403

> <Gold.Chemscore.DEInternal.Weighted>
2.9689

> <Gold.Chemscore.Rot.Weighted>
8.0601

> <Gold.Chemscore.Internal.Correction.Weighted>
   9.000000E+99

> <Gold.Protein.RotatedTorsions>
[ 6907 6896 6895 6894 ] final  147.56 input  -60.11 | X-H torsion
[ 7974 7965 7964 7962 ] final  -37.90 input  175.53 | X-H torsion
[ 8008 7997 7996 7995 ] final   47.59 input   59.86 | X-H torsion
[ 10167 10162 10161 10158 ] final -126.76 input  -65.29 | X-H torsion
[ 10718 10713 10712 10709 ] final  -61.46 input   66.30 | X-H torsion
[ 10763 10752 10751 10750 ] final   57.54 input  -60.55 | X-H torsion
[ 11005 11000 10999 10996 ] final  123.52 input  -57.11 | X-H torsion

> <Gold.Protein.ActiveResidues>
 VAL166  LYS551  ARG553  GLY616  TRP617  ASP618  TYR619  PRO620  LYS621  CYS622 
 ASP623  PHE694  ASN695  SER759  ASP760  ASP761  ALA762  ILE779  LEU786  VAL792 
 PHE793  MET794  SER795  GLU796  ALA797  LYS798  CYS799  TRP800  GLU811  SER814 

> <Gold.Protein.RotatedAtoms>
  152.1532  133.4535  159.4823 H   0  0  0  0  0  0  0  0  0  0  0  0  # atno 6907 bound_to 6896
  150.6898  134.2163  159.4388 H   0  0  0  0  0  0  0  0  0  0  0  0  # atno 6908 bound_to 6896
  152.0061  134.9901  160.0617 H   0  0  0  0  0  0  0  0  0  0  0  0  # atno 6909 bound_to 6896
  146.0534  140.6450  142.9031 H   0  0  0  0  0  0  0  0  0  0  0  0  # atno 7974 bound_to 7965
  155.3716  140.3424  155.4243 H   0  0  0  0  0  0  0  0  0  0  0  0  # atno 8008 bound_to 7997
  156.1659  140.1616  156.8566 H   0  0  0  0  0  0  0  0  0  0  0  0  # atno 8009 bound_to 7997
  154.5185  140.0772  156.8109 H   0  0  0  0  0  0  0  0  0  0  0  0  # atno 8010 bound_to 7997
  139.9680  143.5876  152.2422 H   0  0  0  0  0  0  0  0  0  0  0  0  # atno 10167 bound_to 10162
  156.0920  130.4198  150.0998 H   0  0  0  0  0  0  0  0  0  0  0  0  # atno 10718 bound_to 10713
  152.9852  135.5638  154.5408 H   0  0  0  0  0  0  0  0  0  0  0  0  # atno 10763 bound_to 10752
  154.4863  135.2791  155.1534 H   0  0  0  0  0  0  0  0  0  0  0  0  # atno 10764 bound_to 10752
  154.3022  135.6305  153.5482 H   0  0  0  0  0  0  0  0  0  0  0  0  # atno 10765 bound_to 10752
  139.9316  134.9641  156.8271 H   0  0  0  0  0  0  0  0  0  0  0  0  # atno 11005 bound_to 11000
  144.7135  140.4125  143.7062 LP  0  0  0  0  0  0  0  0  0  0  0  0  # atno 17320 bound_to 7965
  145.6685  139.1594  143.2768 LP  0  0  0  0  0  0  0  0  0  0  0  0  # atno 17321 bound_to 7965
  139.6502  144.7660  151.2162 LP  0  0  0  0  0  0  0  0  0  0  0  0  # atno 17342 bound_to 10162
  140.7531  143.6173  150.8548 LP  0  0  0  0  0  0  0  0  0  0  0  0  # atno 17343 bound_to 10162
  156.9005  130.9619  151.3577 LP  0  0  0  0  0  0  0  0  0  0  0  0  # atno 17370 bound_to 10713
  157.6072  130.8555  149.8893 LP  0  0  0  0  0  0  0  0  0  0  0  0  # atno 17371 bound_to 10713
  140.6186  134.0015  155.7608 LP  0  0  0  0  0  0  0  0  0  0  0  0  # atno 17394 bound_to 11000
  141.0908  133.9920  157.3240 LP  0  0  0  0  0  0  0  0  0  0  0  0  # atno 17395 bound_to 11000

$$$$
