AV-unprocessed.smi:221|AV-procd|sdf|1700|dock8
  -GOLD-   2262020153D 1   1.00000     0.00000
 Structure written by MMmdl.
 50 53  0  0  0  0  0  0  0  0  1 V2000
  151.6827  138.5545  158.9636 N   0  0  0  0  0  0  0  0  0  0  0  0
  152.2045  139.6469  158.3962 C   0  0  0  0  0  0  0  0  0  0  0  0
  152.8330  139.5839  157.3419 O   0  0  0  0  0  0  0  0  0  0  0  0
  152.0023  141.0110  159.0816 C   0  0  2  0  0  0  0  0  0  0  0  0
  151.1947  141.9771  158.2006 C   0  0  0  0  0  0  0  0  0  0  0  0
  151.6121  143.3417  158.7290 C   0  0  2  0  0  0  0  0  0  0  0  0
  151.3860  144.3225  157.8556 F   0  0  0  0  0  0  0  0  0  0  0  0
  153.0964  143.1449  159.0232 C   0  0  0  0  0  0  0  0  0  0  0  0
  153.2496  141.7347  159.3720 N   0  0  0  0  0  0  0  0  0  0  0  0
  153.8046  141.5068  160.5844 C   0  0  0  0  0  0  0  0  0  0  0  0
  154.7256  140.5190  160.7387 N   0  0  0  0  0  0  0  0  0  0  0  0
  155.2676  140.2954  161.9403 C   0  0  0  0  0  0  0  0  0  0  0  0
  155.0321  140.9259  163.0936 N   0  0  0  0  0  0  0  0  0  0  0  0
  154.1035  141.9130  162.9378 C   0  0  0  0  0  0  0  0  0  0  0  0
  153.4428  142.2642  161.7284 C   0  0  0  0  0  0  0  0  0  0  0  0
  152.5584  143.3118  161.9527 N   0  0  0  0  0  0  0  0  0  0  0  0
  152.6920  143.5694  163.2256 C   0  0  0  0  0  0  0  0  0  0  0  0
  153.6047  142.7819  163.8914 N   0  0  0  0  0  0  0  0  0  0  0  0
  153.9533  142.8488  165.2993 C   0  0  0  0  0  0  0  0  0  0  0  0
  155.4815  142.8776  165.5705 C   0  0  1  0  0  0  0  0  0  0  0  0
  156.1382  144.2028  165.1054 C   0  0  0  0  0  0  0  0  0  0  0  0
  157.5491  144.1280  165.1156 O   0  0  0  0  0  0  0  0  0  0  0  0
  155.7692  142.6115  167.0714 C   0  0  1  0  0  0  0  0  0  0  0  0
  155.0659  143.5531  168.0354 C   0  0  0  0  0  0  0  0  0  0  0  0
  155.1448  142.7883  169.3504 C   0  0  0  0  0  0  0  0  0  0  0  0
  155.0424  141.4158  168.9938 O   0  0  0  0  0  0  0  0  0  0  0  0
  155.2686  141.2583  167.5960 C   0  0  0  0  0  0  0  0  0  0  0  0
  151.4426  140.8364  160.0021 H   0  0  0  0  0  0  0  0  0  0  0  0
  151.0687  143.5760  159.6454 H   0  0  0  0  0  0  0  0  0  0  0  0
  151.8046  137.6538  158.5244 H   0  0  0  0  0  0  0  0  0  0  0  0
  151.1660  138.6344  159.8280 H   0  0  0  0  0  0  0  0  0  0  0  0
  151.4835  141.8825  157.1519 H   0  0  0  0  0  0  0  0  0  0  0  0
  150.1187  141.8137  158.2697 H   0  0  0  0  0  0  0  0  0  0  0  0
  153.6900  143.3302  158.1270 H   0  0  0  0  0  0  0  0  0  0  0  0
  153.4475  143.8342  159.7935 H   0  0  0  0  0  0  0  0  0  0  0  0
  155.9944  139.4977  161.9838 H   0  0  0  0  0  0  0  0  0  0  0  0
  152.1298  144.3511  163.7154 H   0  0  0  0  0  0  0  0  0  0  0  0
  153.4802  143.7319  165.7308 H   0  0  0  0  0  0  0  0  0  0  0  0
  153.4917  141.9872  165.7811 H   0  0  0  0  0  0  0  0  0  0  0  0
  155.9402  142.0625  165.0083 H   0  0  0  0  0  0  0  0  0  0  0  0
  155.7928  144.4775  164.1083 H   0  0  0  0  0  0  0  0  0  0  0  0
  155.8746  145.0283  165.7648 H   0  0  0  0  0  0  0  0  0  0  0  0
  157.8019  143.2302  165.2686 H   0  0  0  0  0  0  0  0  0  0  0  0
  156.8437  142.6775  167.2514 H   0  0  0  0  0  0  0  0  0  0  0  0
  155.5353  144.5348  168.1023 H   0  0  0  0  0  0  0  0  0  0  0  0
  154.0235  143.6907  167.7441 H   0  0  0  0  0  0  0  0  0  0  0  0
  156.1116  142.9528  169.8282 H   0  0  0  0  0  0  0  0  0  0  0  0
  154.3644  143.0801  170.0535 H   0  0  0  0  0  0  0  0  0  0  0  0
  154.3216  140.9862  167.1277 H   0  0  0  0  0  0  0  0  0  0  0  0
  155.9786  140.4517  167.4124 H   0  0  0  0  0  0  0  0  0  0  0  0
  1  2  1  0  0  0  0
  1 30  1  0  0  0  0
  1 31  1  0  0  0  0
  2  3  2  0  0  0  0
  2  4  1  0  0  0  0
  4 28  1  0  0  0  0
  4  9  1  0  0  0  0
  4  5  1  0  0  0  0
  5  6  1  0  0  0  0
  5 32  1  0  0  0  0
  5 33  1  0  0  0  0
  6 29  1  0  0  0  0
  6  7  1  0  0  0  0
  6  8  1  0  0  0  0
  8  9  1  0  0  0  0
  8 34  1  0  0  0  0
  8 35  1  0  0  0  0
  9 10  1  0  0  0  0
 10 15  1  0  0  0  0
 10 11  2  0  0  0  0
 11 12  1  0  0  0  0
 12 13  2  0  0  0  0
 12 36  1  0  0  0  0
 13 14  1  0  0  0  0
 14 18  1  0  0  0  0
 14 15  2  0  0  0  0
 15 16  1  0  0  0  0
 16 17  2  0  0  0  0
 17 18  1  0  0  0  0
 17 37  1  0  0  0  0
 18 19  1  0  0  0  0
 19 20  1  0  0  0  0
 19 38  1  0  0  0  0
 19 39  1  0  0  0  0
 20 21  1  0  0  0  0
 20 23  1  0  0  0  0
 20 40  1  0  0  0  0
 21 22  1  0  0  0  0
 21 41  1  0  0  0  0
 21 42  1  0  0  0  0
 22 43  1  0  0  0  0
 23 27  1  0  0  0  0
 23 24  1  0  0  0  0
 23 44  1  0  0  0  0
 24 25  1  0  0  0  0
 24 45  1  0  0  0  0
 24 46  1  0  0  0  0
 25 26  1  0  0  0  0
 25 47  1  0  0  0  0
 25 48  1  0  0  0  0
 26 27  1  0  0  0  0
 27 49  1  0  0  0  0
 27 50  1  0  0  0  0
M  END
> <s_m_source_file>
AV-unprocessed.smi

> <i_m_source_file_index>
221

> <i_lp_mmshare_version>
43012

> <i_f3d_flags>
0

> <s_epik_input>
W05IMl1DKD1PKVtDQEBIXTFbQ0gyXVtDQEBIXShGKVtDSDJdTjFjKG5bY0hdbjIpYyhjMjMpbltjSF1uM1tDSDJdW0NASF0oW0NIMl1bT0hdKVtDQEBIXTRbQ0gyXVtDSDJdT1tDSDJdNA==

> <s_epik_cmdline>
J2VwaWtfcHl0aG9uJywgJy1waCcsICc3LjAnLCAnLXRuJywgJzgnLCAnLW1hJywgJzIwMCcsICctbWV0YWxfYmluZGluZycsICctaW1hZScsICc8aW5maWxlLm1hZT4nLCAnLW9tYWUnLCAnPG91dGZpbGUubWFlPic=

> <r_lp_tautomer_probability>
1

> <r_epik_Ionization_Penalty>
0.000818822

> <r_epik_Ionization_Penalty_Charging>
0

> <r_epik_Ionization_Penalty_Neutral>
0.000818822

> <r_epik_State_Penalty>
0.000440551

> <r_epik_Charging_Adjusted_Penalty>
0.000440551

> <i_epik_Tot_Q>
0

> <i_epik_Tot_abs_Q>
0

> <r_epik_Metal_State_Penalty>
-0

> <b_epik_Metal_Only>
0

> <s_lp_Force_Field>
OPLS_2005

> <r_lp_Energy>
51.3471

> <b_lp_Chiralities_Consistent>
1

> <s_lp_Variant>
AV-unprocessed.smi:221-15

> <Gold.Version>
5.8.1

> <Gold.Id.Protein>
6NUR|6NUR_protein|mol2

> <Gold.PLP.Fitness>
49.3900

> <Gold.PLP.PLP>
-47.9396

> <Gold.PLP.part.hbond>
-4.0000

> <Gold.PLP.part.metal>
0.0000

> <Gold.PLP.part.buried>
3.8955

> <Gold.PLP.part.nonpolar>
-45.5863

> <Gold.PLP.part.repulsive>
0.3964

> <Gold.PLP.ligand.clash>
0.0000

> <Gold.PLP.ligand.torsion>
0.9012

> <Gold.PLP.Chemscore.Hbond>
1.0000

> <Gold.PLP.Chemscore.CHOScore>
0.0000

> <Gold.PLP.Chemscore.Metal>
0.0000

> <Gold.Chemscore.Hbonds>
donor molecule, donor type, donor heavy atom, donor atom, acceptor molecule, acceptor atom, score
      P1  H  7997  8010       L1     3  1.00

> <Gold.PLP.Chemscore.Internal.Correction>
0.2528

> <Gold.Rescore>
     Score         DG    S(hbond)    S(metal)    S(lipo)     H(rot)  DE(clash)    DE(int)     intcor
      5.35     -10.42       0.99        0.00      95.28       3.72       2.31       2.76       ----

> <Gold.Chemscore.Fitness>
5.3496

> <Gold.Chemscore.DG>
-10.4157

> <Gold.Chemscore.ZeroCoef>
-5.4800

> <Gold.Chemscore.Hbond>
0.9915

> <Gold.Chemscore.Metal>
0.0000

> <Gold.Chemscore.Lipo>
95.2804

> <Gold.Chemscore.Internal_Hbond>
0.0000

> <Gold.Chemscore.DEClash>
2.3100

> <Gold.Chemscore.DEInternal>
2.7561

> <Gold.Chemscore.Rot>
3.7202

> <Gold.Chemscore.Internal.Correction>
   9.000000E+99

> <Gold.Chemscore.Hbonds>
donor molecule, donor type, donor heavy atom, donor atom, acceptor molecule, acceptor atom, score
      P1  H  7997  8010       L1     3  1.00

> <Gold.Chemscore.Hbond.Weighted>
-3.3116

> <Gold.Chemscore.Metal.Weighted>
-0.0000

> <Gold.Chemscore.Lipo.Weighted>
-11.1478

> <Gold.Chemscore.Internal_Hbond.Weighted>
0.0000

> <Gold.Chemscore.DEClash.Weighted>
2.3100

> <Gold.Chemscore.DEInternal.Weighted>
2.7561

> <Gold.Chemscore.Rot.Weighted>
9.5237

> <Gold.Chemscore.Internal.Correction.Weighted>
   9.000000E+99

> <Gold.Protein.RotatedTorsions>
[ 6907 6896 6895 6894 ] final  154.27 input  -60.11 | X-H torsion
[ 7974 7965 7964 7962 ] final  114.25 input  175.53 | X-H torsion
[ 8008 7997 7996 7995 ] final   46.11 input   59.86 | X-H torsion
[ 10167 10162 10161 10158 ] final  -69.43 input  -65.29 | X-H torsion
[ 10718 10713 10712 10709 ] final -142.92 input   66.30 | X-H torsion
[ 10763 10752 10751 10750 ] final  -65.35 input  -60.55 | X-H torsion
[ 11005 11000 10999 10996 ] final -166.87 input  -57.11 | X-H torsion

> <Gold.Protein.ActiveResidues>
 VAL166  LYS551  ARG553  GLY616  TRP617  ASP618  TYR619  PRO620  LYS621  CYS622 
 ASP623  PHE694  ASN695  SER759  ASP760  ASP761  ALA762  ILE779  LEU786  VAL792 
 PHE793  MET794  SER795  GLU796  ALA797  LYS798  CYS799  TRP800  GLU811  SER814 

> <Gold.Protein.RotatedAtoms>
  152.0609  133.4061  159.4417 H   0  0  0  0  0  0  0  0  0  0  0  0  # atno 6907 bound_to 6896
  150.6866  134.3201  159.4792 H   0  0  0  0  0  0  0  0  0  0  0  0  # atno 6908 bound_to 6896
  152.1022  134.9333  160.0620 H   0  0  0  0  0  0  0  0  0  0  0  0  # atno 6909 bound_to 6896
  145.2067  139.2926  143.4290 H   0  0  0  0  0  0  0  0  0  0  0  0  # atno 7974 bound_to 7965
  155.3470  140.3411  155.4239 H   0  0  0  0  0  0  0  0  0  0  0  0  # atno 8008 bound_to 7997
  156.1784  140.1655  156.8356 H   0  0  0  0  0  0  0  0  0  0  0  0  # atno 8009 bound_to 7997
  154.5306  140.0746  156.8321 H   0  0  0  0  0  0  0  0  0  0  0  0  # atno 8010 bound_to 7997
  140.5431  143.2314  151.7052 H   0  0  0  0  0  0  0  0  0  0  0  0  # atno 10167 bound_to 10162
  156.3517  130.7691  151.1845 H   0  0  0  0  0  0  0  0  0  0  0  0  # atno 10718 bound_to 10713
  154.3436  135.6151  153.5608 H   0  0  0  0  0  0  0  0  0  0  0  0  # atno 10763 bound_to 10752
  152.9802  135.5775  154.4824 H   0  0  0  0  0  0  0  0  0  0  0  0  # atno 10764 bound_to 10752
  154.4532  135.2853  155.1743 H   0  0  0  0  0  0  0  0  0  0  0  0  # atno 10765 bound_to 10752
  140.5596  134.5346  157.5140 H   0  0  0  0  0  0  0  0  0  0  0  0  # atno 11005 bound_to 11000
  146.3406  140.2330  142.8594 LP  0  0  0  0  0  0  0  0  0  0  0  0  # atno 17320 bound_to 7965
  144.9895  140.8534  143.5348 LP  0  0  0  0  0  0  0  0  0  0  0  0  # atno 17321 bound_to 7965
  139.4996  144.3937  152.0253 LP  0  0  0  0  0  0  0  0  0  0  0  0  # atno 17342 bound_to 10162
  140.3048  144.3606  150.6050 LP  0  0  0  0  0  0  0  0  0  0  0  0  # atno 17343 bound_to 10162
  157.7462  131.0425  150.4701 LP  0  0  0  0  0  0  0  0  0  0  0  0  # atno 17370 bound_to 10713
  156.4897  130.4092  149.6414 LP  0  0  0  0  0  0  0  0  0  0  0  0  # atno 17371 bound_to 10713
  139.9414  134.7780  156.0669 LP  0  0  0  0  0  0  0  0  0  0  0  0  # atno 17394 bound_to 11000
  141.1122  133.6639  156.3007 LP  0  0  0  0  0  0  0  0  0  0  0  0  # atno 17395 bound_to 11000

$$$$
