AV-unprocessed.smi:1783|AV-procd|sdf|7195|dock1
  -GOLD-   22720 8433D 1   1.00000     0.00000
 Structure written by MMmdl.
 29 30  0  0  0  0  0  0  0  0  2 V2000
  152.8900  139.0234  156.0526 O   0  0  0  0  0  0  0  0  0  0  0  0
  151.6769  139.2291  156.0863 C   0  0  0  0  0  0  0  0  0  0  0  0
  151.0554  140.0432  156.9628 N   0  0  0  0  0  0  0  0  0  0  0  0
  151.5932  140.8269  157.9977 C   0  0  0  0  0  0  0  0  0  0  0  0
  151.3643  142.1589  158.1657 C   0  0  0  0  0  0  0  0  0  0  0  0
  151.9426  142.9169  159.2680 C   0  0  0  0  0  0  0  0  0  0  0  0
  151.7916  144.4195  159.4268 C   0  0  0  0  0  0  0  0  0  0  0  0
  152.3624  144.8151  160.5637 F   0  0  0  0  0  0  0  0  0  0  0  0
  152.3753  145.0702  158.4201 F   0  0  0  0  0  0  0  0  0  0  0  0
  150.5057  144.7689  159.4641 F   0  0  0  0  0  0  0  0  0  0  0  0
  152.7318  142.1325  160.0865 C   0  0  0  0  0  0  0  0  0  0  0  0
  152.9857  140.8078  160.0081 N   0  5  0  0  0  0  0  0  0  0  0  0
  152.4403  140.1088  158.9728 C   0  0  0  0  0  0  0  0  0  0  0  0
  152.6376  138.9008  158.8364 O   0  0  0  0  0  0  0  0  0  0  0  0
  150.7581  138.5206  155.0700 C   0  0  1  0  0  0  0  0  0  0  0  0
  149.5115  137.8773  155.6865 C   0  0  0  0  0  0  0  0  0  0  0  0
  148.5417  139.0402  155.8226 C   0  0  0  0  0  0  0  0  0  0  0  0
  149.0179  140.0424  154.7655 C   0  0  0  0  0  0  0  0  0  0  0  0
  150.1789  139.4637  154.1714 O   0  0  0  0  0  0  0  0  0  0  0  0
  150.0468  140.0628  156.9083 H   0  0  0  0  0  0  0  0  0  0  0  0
  150.7214  142.7001  157.4914 H   0  0  0  0  0  0  0  0  0  0  0  0
  153.2403  142.6482  160.9290 H   0  0  0  0  0  0  0  0  0  0  0  0
  151.3507  137.7899  154.5190 H   0  0  0  0  0  0  0  0  0  0  0  0
  149.1063  137.1399  154.9926 H   0  0  0  0  0  0  0  0  0  0  0  0
  149.6930  137.3670  156.6330 H   0  0  0  0  0  0  0  0  0  0  0  0
  147.5081  138.7297  155.6683 H   0  0  0  0  0  0  0  0  0  0  0  0
  148.6147  139.4829  156.8167 H   0  0  0  0  0  0  0  0  0  0  0  0
  148.2607  140.2258  154.0028 H   0  0  0  0  0  0  0  0  0  0  0  0
  149.2731  140.9982  155.2253 H   0  0  0  0  0  0  0  0  0  0  0  0
  1  2  2  0  0  0  0
  2  3  1  0  0  0  0
  2 15  1  0  0  0  0
  3  4  1  0  0  0  0
  3 20  1  0  0  0  0
  4 13  1  0  0  0  0
  4  5  2  0  0  0  0
  5  6  1  0  0  0  0
  5 21  1  0  0  0  0
  6  7  1  0  0  0  0
  6 11  2  0  0  0  0
  7  8  1  0  0  0  0
  7  9  1  0  0  0  0
  7 10  1  0  0  0  0
 11 12  1  0  0  0  0
 11 22  1  0  0  0  0
 12 13  1  0  0  0  0
 13 14  2  0  0  0  0
 15 19  1  0  0  0  0
 15 16  1  0  0  0  0
 15 23  1  0  0  0  0
 16 17  1  0  0  0  0
 16 24  1  0  0  0  0
 16 25  1  0  0  0  0
 17 18  1  0  0  0  0
 17 26  1  0  0  0  0
 17 27  1  0  0  0  0
 18 19  1  0  0  0  0
 18 28  1  0  0  0  0
 18 29  1  0  0  0  0
M  CHG  1  12  -1
M  END
> <s_m_source_file>
AV-unprocessed.smi

> <i_m_source_file_index>
1783

> <i_lp_mmshare_version>
43012

> <i_f3d_flags>
0

> <s_epik_input>
TzFbQ0gyXVtDSDJdW0NIMl1bQ0BIXTFDKD1PKVtOSF1jMltjSF1jKEMoRikoRilGKVtjSF1bbkhdYzI9Tw==

> <s_epik_cmdline>
J2VwaWtfcHl0aG9uJywgJy1waCcsICc3LjAnLCAnLXRuJywgJzgnLCAnLW1hJywgJzIwMCcsICctbWV0YWxfYmluZGluZycsICctaW1hZScsICc8aW5maWxlLm1hZT4nLCAnLW9tYWUnLCAnPG91dGZpbGUubWFlPic=

> <r_epik_Ionization_Penalty>
2.55264

> <r_epik_Ionization_Penalty_Charging>
0.0580859

> <r_epik_Ionization_Penalty_Neutral>
2.49455

> <r_epik_State_Penalty>
2.65913

> <r_epik_Charging_Adjusted_Penalty>
2.71721

> <i_epik_Tot_Q>
-1

> <i_epik_Tot_abs_Q>
1

> <r_epik_Metal_State_Penalty>
0.516671

> <b_epik_Metal_Only>
0

> <s_lp_Force_Field>
OPLS_2005

> <r_lp_Energy>
34.221

> <b_lp_Chiralities_Consistent>
1

> <s_lp_Variant>
AV-unprocessed.smi:1783-4

> <Gold.Version>
5.8.1

> <Gold.Id.Protein>
6NUR|6NUR_protein|mol2

> <Gold.PLP.Fitness>
41.3769

> <Gold.PLP.PLP>
-39.0999

> <Gold.PLP.part.hbond>
-2.0000

> <Gold.PLP.part.metal>
0.0000

> <Gold.PLP.part.buried>
-7.2274

> <Gold.PLP.part.nonpolar>
-31.6280

> <Gold.PLP.part.repulsive>
1.8774

> <Gold.PLP.ligand.clash>
2.2112

> <Gold.PLP.ligand.torsion>
0.8101

> <Gold.PLP.Chemscore.Hbond>
2.0000

> <Gold.PLP.Chemscore.CHOScore>
0.0000

> <Gold.PLP.Chemscore.Metal>
0.0000

> <Gold.Chemscore.Hbonds>
donor molecule, donor type, donor heavy atom, donor atom, acceptor molecule, acceptor atom, score
      P1  H  7989  7998       L1    19  0.76
      P1  H  7997  8008       L1     1  1.00

> <Gold.PLP.Chemscore.Internal.Correction>
0.1084

> <Gold.Rescore>
     Score         DG    S(hbond)    S(metal)    S(lipo)     H(rot)  DE(clash)    DE(int)     intcor
     10.75     -16.31       1.75        0.00      64.41       1.00       0.08       5.48       ----

> <Gold.Chemscore.Fitness>
10.7508

> <Gold.Chemscore.DG>
-16.3102

> <Gold.Chemscore.ZeroCoef>
-5.4800

> <Gold.Chemscore.Hbond>
1.7527

> <Gold.Chemscore.Metal>
0.0000

> <Gold.Chemscore.Lipo>
64.4126

> <Gold.Chemscore.Internal_Hbond>
0.0000

> <Gold.Chemscore.DEClash>
0.0844

> <Gold.Chemscore.DEInternal>
5.4751

> <Gold.Chemscore.Rot>
1.0000

> <Gold.Chemscore.Internal.Correction>
   9.000000E+99

> <Gold.Chemscore.Hbonds>
donor molecule, donor type, donor heavy atom, donor atom, acceptor molecule, acceptor atom, score
      P1  H  7989  7998       L1    19  0.56
      P1  H  7997  8008       L1     1  1.00

> <Gold.Chemscore.Hbond.Weighted>
-5.8540

> <Gold.Chemscore.Metal.Weighted>
-0.0000

> <Gold.Chemscore.Lipo.Weighted>
-7.5363

> <Gold.Chemscore.Internal_Hbond.Weighted>
0.0000

> <Gold.Chemscore.DEClash.Weighted>
0.0844

> <Gold.Chemscore.DEInternal.Weighted>
5.4751

> <Gold.Chemscore.Rot.Weighted>
2.5600

> <Gold.Chemscore.Internal.Correction.Weighted>
   9.000000E+99

> <Gold.Protein.RotatedTorsions>
[ 6907 6896 6895 6894 ] final  151.81 input  -60.11 | X-H torsion
[ 7974 7965 7964 7962 ] final  173.99 input  175.53 | X-H torsion
[ 8008 7997 7996 7995 ] final  -36.44 input   59.86 | X-H torsion
[ 10167 10162 10161 10158 ] final  -46.54 input  -65.29 | X-H torsion
[ 10718 10713 10712 10709 ] final   -6.01 input   66.30 | X-H torsion
[ 10763 10752 10751 10750 ] final -170.20 input  -60.55 | X-H torsion
[ 11005 11000 10999 10996 ] final  -98.20 input  -57.11 | X-H torsion

> <Gold.Protein.ActiveResidues>
 VAL166  LYS551  ARG553  GLY616  TRP617  ASP618  TYR619  PRO620  LYS621  CYS622 
 ASP623  PHE694  ASN695  SER759  ASP760  ASP761  ALA762  ILE779  LEU786  VAL792 
 PHE793  MET794  SER795  GLU796  ALA797  LYS798  CYS799  TRP800  GLU811  SER814 

> <Gold.Protein.RotatedAtoms>
  152.0955  133.4222  159.4562 H   0  0  0  0  0  0  0  0  0  0  0  0  # atno 6907 bound_to 6896
  150.6863  134.2822  159.4641 H   0  0  0  0  0  0  0  0  0  0  0  0  # atno 6908 bound_to 6896
  152.0677  134.9553  160.0625 H   0  0  0  0  0  0  0  0  0  0  0  0  # atno 6909 bound_to 6896
  144.7231  139.9729  143.6437 H   0  0  0  0  0  0  0  0  0  0  0  0  # atno 7974 bound_to 7965
  154.4073  140.1630  156.2375 H   0  0  0  0  0  0  0  0  0  0  0  0  # atno 8008 bound_to 7997
  155.9230  140.3420  155.6165 H   0  0  0  0  0  0  0  0  0  0  0  0  # atno 8009 bound_to 7997
  155.7199  140.0767  157.2326 H   0  0  0  0  0  0  0  0  0  0  0  0  # atno 8010 bound_to 7997
  140.6813  143.2826  151.3798 H   0  0  0  0  0  0  0  0  0  0  0  0  # atno 10167 bound_to 10162
  156.7381  130.5201  149.5830 H   0  0  0  0  0  0  0  0  0  0  0  0  # atno 10718 bound_to 10713
  154.6441  135.2902  155.0068 H   0  0  0  0  0  0  0  0  0  0  0  0  # atno 10763 bound_to 10752
  154.1184  135.6552  153.4902 H   0  0  0  0  0  0  0  0  0  0  0  0  # atno 10764 bound_to 10752
  153.0341  135.5282  154.7320 H   0  0  0  0  0  0  0  0  0  0  0  0  # atno 10765 bound_to 10752
  141.1353  133.8227  157.0808 H   0  0  0  0  0  0  0  0  0  0  0  0  # atno 11005 bound_to 11000
  146.0548  139.3546  143.0617 LP  0  0  0  0  0  0  0  0  0  0  0  0  # atno 17320 bound_to 7965
  145.8168  140.9699  143.0919 LP  0  0  0  0  0  0  0  0  0  0  0  0  # atno 17321 bound_to 7965
  139.6138  144.1045  152.2325 LP  0  0  0  0  0  0  0  0  0  0  0  0  # atno 17342 bound_to 10162
  140.0468  144.5964  150.7368 LP  0  0  0  0  0  0  0  0  0  0  0  0  # atno 17343 bound_to 10162
  156.1483  130.6292  151.0561 LP  0  0  0  0  0  0  0  0  0  0  0  0  # atno 17370 bound_to 10713
  157.6830  131.0833  150.7318 LP  0  0  0  0  0  0  0  0  0  0  0  0  # atno 17371 bound_to 10713
  140.0453  134.9833  157.1037 LP  0  0  0  0  0  0  0  0  0  0  0  0  # atno 17394 bound_to 11000
  140.4073  134.2019  155.7163 LP  0  0  0  0  0  0  0  0  0  0  0  0  # atno 17395 bound_to 11000

$$$$
