AV-unprocessed.smi:1648|AV-procd|sdf|6633|dock1
  -GOLD-   22720 7333D 1   1.00000     0.00000
 Structure written by MMmdl.
 41 41  0  0  0  0  0  0  0  0  1 V2000
  146.6922  138.9211  152.2726 C   0  0  0  0  0  0  0  0  0  0  0  0
  147.5594  139.0576  153.5256 C   0  0  0  0  0  0  0  0  0  0  0  0
  147.2348  139.8576  154.4001 O   0  0  0  0  0  0  0  0  0  0  0  0
  148.6652  138.3024  153.6470 N   0  0  0  0  0  0  0  0  0  0  0  0
  149.6175  138.2876  154.7612 C   0  0  2  0  0  0  0  0  0  0  0  0
  149.9470  139.7423  155.1473 C   0  0  0  0  0  0  0  0  0  0  0  0
  150.3457  140.5416  154.2986 O   0  0  0  0  0  0  0  0  0  0  0  0
  149.7817  140.0631  156.4399 N   0  0  0  0  0  0  0  0  0  0  0  0
  150.0285  141.3765  157.0264 C   0  0  1  0  0  0  0  0  0  0  0  0
  148.7417  141.9145  157.6807 C   0  0  0  0  0  0  0  0  0  0  0  0
  151.2124  141.2705  158.0083 C   0  0  0  0  0  0  0  0  0  0  0  0
  151.7327  142.5646  158.4075 N   0  0  0  0  0  0  0  0  0  0  0  0
  151.4683  143.7941  157.8179 C   0  0  0  0  0  0  0  0  0  0  0  0
  152.1752  144.7334  158.5340 C   0  0  0  0  0  0  0  0  0  0  0  0
  152.8729  144.1091  159.5654 N   0  0  0  0  0  0  0  0  0  0  0  0
  152.5599  142.8271  159.4287 C   0  0  0  0  0  0  0  0  0  0  0  0
  150.9136  137.5547  154.3042 C   0  0  0  0  0  0  0  0  0  0  0  0
  150.8287  136.0338  154.5419 C   0  0  0  0  0  0  0  0  0  0  0  0
  152.1870  138.0985  154.9857 C   0  0  0  0  0  0  0  0  0  0  0  0
  147.2570  139.1937  151.3809 H   0  0  0  0  0  0  0  0  0  0  0  0
  145.8253  139.5800  152.3326 H   0  0  0  0  0  0  0  0  0  0  0  0
  146.3275  137.9000  152.1600 H   0  0  0  0  0  0  0  0  0  0  0  0
  148.8794  137.6836  152.8783 H   0  0  0  0  0  0  0  0  0  0  0  0
  149.1921  137.7583  155.6157 H   0  0  0  0  0  0  0  0  0  0  0  0
  149.4549  139.3413  157.0659 H   0  0  0  0  0  0  0  0  0  0  0  0
  150.3187  142.0643  156.2297 H   0  0  0  0  0  0  0  0  0  0  0  0
  148.8795  142.9267  158.0615 H   0  0  0  0  0  0  0  0  0  0  0  0
  148.4285  141.2843  158.5136 H   0  0  0  0  0  0  0  0  0  0  0  0
  147.9194  141.9521  156.9654 H   0  0  0  0  0  0  0  0  0  0  0  0
  150.9124  140.7288  158.9068 H   0  0  0  0  0  0  0  0  0  0  0  0
  152.0270  140.7014  157.5578 H   0  0  0  0  0  0  0  0  0  0  0  0
  150.8200  143.8963  156.9600 H   0  0  0  0  0  0  0  0  0  0  0  0
  152.2337  145.8019  158.3883 H   0  0  0  0  0  0  0  0  0  0  0  0
  152.9437  142.0600  160.0855 H   0  0  0  0  0  0  0  0  0  0  0  0
  151.0347  137.7023  153.2293 H   0  0  0  0  0  0  0  0  0  0  0  0
  150.6682  135.8078  155.5965 H   0  0  0  0  0  0  0  0  0  0  0  0
  151.7485  135.5361  154.2332 H   0  0  0  0  0  0  0  0  0  0  0  0
  150.0173  135.5755  153.9760 H   0  0  0  0  0  0  0  0  0  0  0  0
  152.1150  138.0257  156.0713 H   0  0  0  0  0  0  0  0  0  0  0  0
  152.3773  139.1416  154.7328 H   0  0  0  0  0  0  0  0  0  0  0  0
  153.0680  137.5356  154.6755 H   0  0  0  0  0  0  0  0  0  0  0  0
  1  2  1  0  0  0  0
  1 20  1  0  0  0  0
  1 21  1  0  0  0  0
  1 22  1  0  0  0  0
  2  3  2  0  0  0  0
  2  4  1  0  0  0  0
  4  5  1  0  0  0  0
  4 23  1  0  0  0  0
  5  6  1  0  0  0  0
  5 17  1  0  0  0  0
  5 24  1  0  0  0  0
  6  7  2  0  0  0  0
  6  8  1  0  0  0  0
  8  9  1  0  0  0  0
  8 25  1  0  0  0  0
  9 10  1  0  0  0  0
  9 11  1  0  0  0  0
  9 26  1  0  0  0  0
 10 27  1  0  0  0  0
 10 28  1  0  0  0  0
 10 29  1  0  0  0  0
 11 12  1  0  0  0  0
 11 30  1  0  0  0  0
 11 31  1  0  0  0  0
 12 16  1  0  0  0  0
 12 13  1  0  0  0  0
 13 14  2  0  0  0  0
 13 32  1  0  0  0  0
 14 15  1  0  0  0  0
 14 33  1  0  0  0  0
 15 16  2  0  0  0  0
 16 34  1  0  0  0  0
 17 18  1  0  0  0  0
 17 19  1  0  0  0  0
 17 35  1  0  0  0  0
 18 36  1  0  0  0  0
 18 37  1  0  0  0  0
 18 38  1  0  0  0  0
 19 39  1  0  0  0  0
 19 40  1  0  0  0  0
 19 41  1  0  0  0  0
M  END
> <s_m_source_file>
AV-unprocessed.smi

> <i_m_source_file_index>
1648

> <i_lp_mmshare_version>
43012

> <i_f3d_flags>
0

> <s_epik_input>
W0NIM11DKD1PKVtOSF1bQ0BASF0oW0NIXShbQ0gzXSlbQ0gzXSlDKD1PKVtOSF1bQ0BIXShbQ0gzXSlbQ0gyXW4xW2NIXVtjSF1uW2NIXTE=

> <s_epik_cmdline>
J2VwaWtfcHl0aG9uJywgJy1waCcsICc3LjAnLCAnLXRuJywgJzgnLCAnLW1hJywgJzIwMCcsICctbWV0YWxfYmluZGluZycsICctaW1hZScsICc8aW5maWxlLm1hZT4nLCAnLW9tYWUnLCAnPG91dGZpbGUubWFlPic=

> <r_lp_tautomer_probability>
1

> <r_epik_Ionization_Penalty>
0.628885

> <r_epik_Ionization_Penalty_Charging>
0.628884

> <r_epik_Ionization_Penalty_Neutral>
4.35155e-07

> <r_epik_State_Penalty>
0.64556

> <r_epik_Charging_Adjusted_Penalty>
1.27444

> <i_epik_Tot_Q>
0

> <i_epik_Tot_abs_Q>
0

> <r_epik_Metal_State_Penalty>
0.30874

> <b_epik_Metal_Only>
0

> <s_lp_Force_Field>
OPLS_2005

> <r_lp_Energy>
9.63914

> <b_lp_Chiralities_Consistent>
1

> <s_lp_Variant>
AV-unprocessed.smi:1648-7

> <Gold.Version>
5.8.1

> <Gold.Id.Protein>
6NUR|6NUR_protein|mol2

> <Gold.PLP.Fitness>
44.0855

> <Gold.PLP.PLP>
-37.6059

> <Gold.PLP.part.hbond>
-2.2246

> <Gold.PLP.part.metal>
0.0000

> <Gold.PLP.part.buried>
-1.7927

> <Gold.PLP.part.nonpolar>
-33.4259

> <Gold.PLP.part.repulsive>
0.3003

> <Gold.PLP.ligand.clash>
0.0000

> <Gold.PLP.ligand.torsion>
1.2369

> <Gold.PLP.Chemscore.Hbond>
1.9516

> <Gold.PLP.Chemscore.CHOScore>
1.0000

> <Gold.PLP.Chemscore.Metal>
0.0000

> <Gold.Chemscore.Hbonds>
donor molecule, donor type, donor heavy atom, donor atom, acceptor molecule, acceptor atom, score
      L1  H     4    23       P1  7948  1.00
      P1  H  7989  7998       L1     7  0.90
      L1  C    13    32       P1  8028  1.00

> <Gold.PLP.Chemscore.Internal.Correction>
0.0986

> <Gold.Rescore>
     Score         DG    S(hbond)    S(metal)    S(lipo)     H(rot)  DE(clash)    DE(int)     intcor
     12.14     -14.15       1.96        0.00      73.43       2.52       0.00       2.01       ----

> <Gold.Chemscore.Fitness>
12.1362

> <Gold.Chemscore.DG>
-14.1489

> <Gold.Chemscore.ZeroCoef>
-5.4800

> <Gold.Chemscore.Hbond>
1.9560

> <Gold.Chemscore.Metal>
0.0000

> <Gold.Chemscore.Lipo>
73.4271

> <Gold.Chemscore.Internal_Hbond>
0.0000

> <Gold.Chemscore.DEClash>
0.0024

> <Gold.Chemscore.DEInternal>
2.0103

> <Gold.Chemscore.Rot>
2.5216

> <Gold.Chemscore.Internal.Correction>
   9.000000E+99

> <Gold.Chemscore.Hbonds>
donor molecule, donor type, donor heavy atom, donor atom, acceptor molecule, acceptor atom, score
      L1  H     4    23       P1  7948  1.00
      P1  H  7989  7998       L1     7  0.83

> <Gold.Chemscore.Hbond.Weighted>
-6.5332

> <Gold.Chemscore.Metal.Weighted>
-0.0000

> <Gold.Chemscore.Lipo.Weighted>
-8.5910

> <Gold.Chemscore.Internal_Hbond.Weighted>
0.0000

> <Gold.Chemscore.DEClash.Weighted>
0.0024

> <Gold.Chemscore.DEInternal.Weighted>
2.0103

> <Gold.Chemscore.Rot.Weighted>
6.4553

> <Gold.Chemscore.Internal.Correction.Weighted>
   9.000000E+99

> <Gold.Protein.RotatedTorsions>
[ 6907 6896 6895 6894 ] final  -98.52 input  -60.11 | X-H torsion
[ 7974 7965 7964 7962 ] final   30.47 input  175.53 | X-H torsion
[ 8008 7997 7996 7995 ] final -147.91 input   59.86 | X-H torsion
[ 10167 10162 10161 10158 ] final  -52.85 input  -65.29 | X-H torsion
[ 10718 10713 10712 10709 ] final -106.43 input   66.30 | X-H torsion
[ 10763 10752 10751 10750 ] final    8.07 input  -60.55 | X-H torsion
[ 11005 11000 10999 10996 ] final  104.95 input  -57.11 | X-H torsion

> <Gold.Protein.ActiveResidues>
 VAL166  LYS551  ARG553  GLY616  TRP617  ASP618  TYR619  PRO620  LYS621  CYS622 
 ASP623  PHE694  ASN695  SER759  ASP760  ASP761  ALA762  ILE779  LEU786  VAL792 
 PHE793  MET794  SER795  GLU796  ALA797  LYS798  CYS799  TRP800  GLU811  SER814 

> <Gold.Protein.RotatedAtoms>
  150.7049  134.1182  159.4024 H   0  0  0  0  0  0  0  0  0  0  0  0  # atno 6907 bound_to 6896
  151.9169  135.0313  160.0528 H   0  0  0  0  0  0  0  0  0  0  0  0  # atno 6908 bound_to 6896
  152.2289  133.5007  159.5241 H   0  0  0  0  0  0  0  0  0  0  0  0  # atno 6909 bound_to 6896
  146.1610  139.6784  142.9034 H   0  0  0  0  0  0  0  0  0  0  0  0  # atno 7974 bound_to 7965
  155.5832  140.0645  157.2778 H   0  0  0  0  0  0  0  0  0  0  0  0  # atno 8008 bound_to 7997
  154.4326  140.1848  156.1044 H   0  0  0  0  0  0  0  0  0  0  0  0  # atno 8009 bound_to 7997
  156.0289  140.3308  155.7122 H   0  0  0  0  0  0  0  0  0  0  0  0  # atno 8010 bound_to 7997
  140.6516  143.2570  151.4707 H   0  0  0  0  0  0  0  0  0  0  0  0  # atno 10167 bound_to 10162
  156.0390  130.5612  150.7680 H   0  0  0  0  0  0  0  0  0  0  0  0  # atno 10718 bound_to 10713
  153.2291  135.6890  153.7910 H   0  0  0  0  0  0  0  0  0  0  0  0  # atno 10763 bound_to 10752
  153.7081  135.3286  155.3241 H   0  0  0  0  0  0  0  0  0  0  0  0  # atno 10764 bound_to 10752
  154.8306  135.4584  154.1170 H   0  0  0  0  0  0  0  0  0  0  0  0  # atno 10765 bound_to 10752
  139.8797  134.9319  156.5440 H   0  0  0  0  0  0  0  0  0  0  0  0  # atno 11005 bound_to 11000
  145.4589  141.0432  143.2763 LP  0  0  0  0  0  0  0  0  0  0  0  0  # atno 17320 bound_to 7965
  144.8027  139.6110  143.7064 LP  0  0  0  0  0  0  0  0  0  0  0  0  # atno 17321 bound_to 7965
  139.5732  144.1880  152.1866 LP  0  0  0  0  0  0  0  0  0  0  0  0  # atno 17342 bound_to 10162
  140.1183  144.5396  150.6879 LP  0  0  0  0  0  0  0  0  0  0  0  0  # atno 17343 bound_to 10162
  157.5181  131.0930  151.0113 LP  0  0  0  0  0  0  0  0  0  0  0  0  # atno 17370 bound_to 10713
  157.0451  130.5764  149.5362 LP  0  0  0  0  0  0  0  0  0  0  0  0  # atno 17371 bound_to 10713
  140.8289  133.8294  155.8965 LP  0  0  0  0  0  0  0  0  0  0  0  0  # atno 17394 bound_to 11000
  140.9347  134.1977  157.4839 LP  0  0  0  0  0  0  0  0  0  0  0  0  # atno 17395 bound_to 11000

$$$$
