AV-unprocessed.smi:2330|AV-procd|sdf|9310|dock7
  -GOLD-   2272012533D 1   1.00000     0.00000
 Structure written by MMmdl.
 42 43  0  0  0  0  0  0  0  0  1 V2000
  152.9057  143.6103  162.2835 C   0  0  0  0  0  0  0  0  0  0  0  0
  152.0362  143.4125  161.0335 C   0  0  2  0  0  0  0  0  0  0  0  0
  152.5235  142.2187  160.1904 C   0  0  0  0  0  0  0  0  0  0  0  0
  151.6578  142.0186  158.9361 C   0  0  0  0  0  0  0  0  0  0  0  0
  151.5997  143.2994  158.0785 C   0  0  1  0  0  0  0  0  0  0  0  0
  150.7089  143.1101  156.9376 N   0  0  0  0  0  0  0  0  0  0  0  0
  150.6438  142.0026  156.1855 C   0  0  0  0  0  0  0  0  0  0  0  0
  151.3599  141.0141  156.3461 O   0  0  0  0  0  0  0  0  0  0  0  0
  149.6849  142.0907  155.2538 N   0  0  0  0  0  0  0  0  0  0  0  0
  149.3044  141.0174  154.3390 C   0  0  0  0  0  0  0  0  0  0  0  0
  147.8688  140.4996  154.5828 C   0  0  2  0  0  0  0  0  0  0  0  0
  147.3564  139.5994  153.4494 C   0  0  0  0  0  0  0  0  0  0  0  0
  146.8981  141.5900  154.9242 C   0  0  0  0  0  0  0  0  0  0  0  0
  146.3301  141.7302  156.1264 N   0  0  0  0  0  0  0  0  0  0  0  0
  145.4472  142.8115  156.1787 C   0  0  0  0  0  0  0  0  0  0  0  0
  145.3447  143.4923  154.9924 C   0  0  0  0  0  0  0  0  0  0  0  0
  146.3613  142.7981  153.7599 S   0  0  0  0  0  0  0  0  0  0  0  0
  151.1169  144.4947  158.9199 C   0  0  0  0  0  0  0  0  0  0  0  0
  151.9860  144.6895  160.1730 C   0  0  0  0  0  0  0  0  0  0  0  0
  153.9404  143.8283  162.0169 H   0  0  0  0  0  0  0  0  0  0  0  0
  152.9040  142.7168  162.9081 H   0  0  0  0  0  0  0  0  0  0  0  0
  152.5367  144.4370  162.8914 H   0  0  0  0  0  0  0  0  0  0  0  0
  151.0218  143.1940  161.3712 H   0  0  0  0  0  0  0  0  0  0  0  0
  153.5610  142.3765  159.8925 H   0  0  0  0  0  0  0  0  0  0  0  0
  152.5104  141.3080  160.7901 H   0  0  0  0  0  0  0  0  0  0  0  0
  152.0553  141.1894  158.3494 H   0  0  0  0  0  0  0  0  0  0  0  0
  150.6497  141.7278  159.2355 H   0  0  0  0  0  0  0  0  0  0  0  0
  152.6031  143.5259  157.7124 H   0  0  0  0  0  0  0  0  0  0  0  0
  150.0747  143.8665  156.7263 H   0  0  0  0  0  0  0  0  0  0  0  0
  149.1481  142.9440  155.2006 H   0  0  0  0  0  0  0  0  0  0  0  0
  149.3791  141.4173  153.3275 H   0  0  0  0  0  0  0  0  0  0  0  0
  150.0241  140.1995  154.4008 H   0  0  0  0  0  0  0  0  0  0  0  0
  147.9173  139.8600  155.4650 H   0  0  0  0  0  0  0  0  0  0  0  0
  146.3869  139.1677  153.6995 H   0  0  0  0  0  0  0  0  0  0  0  0
  148.0458  138.7761  153.2604 H   0  0  0  0  0  0  0  0  0  0  0  0
  147.2437  140.1580  152.5198 H   0  0  0  0  0  0  0  0  0  0  0  0
  144.9312  143.0248  157.1033 H   0  0  0  0  0  0  0  0  0  0  0  0
  144.7357  144.3559  154.7700 H   0  0  0  0  0  0  0  0  0  0  0  0
  151.1325  145.4049  158.3192 H   0  0  0  0  0  0  0  0  0  0  0  0
  150.0796  144.3413  159.2217 H   0  0  0  0  0  0  0  0  0  0  0  0
  151.5954  145.5204  160.7614 H   0  0  0  0  0  0  0  0  0  0  0  0
  152.9962  144.9722  159.8735 H   0  0  0  0  0  0  0  0  0  0  0  0
  1  2  1  0  0  0  0
  1 20  1  0  0  0  0
  1 21  1  0  0  0  0
  1 22  1  0  0  0  0
  2 19  1  0  0  0  0
  2  3  1  0  0  0  0
  2 23  1  0  0  0  0
  3  4  1  0  0  0  0
  3 24  1  0  0  0  0
  3 25  1  0  0  0  0
  4  5  1  0  0  0  0
  4 26  1  0  0  0  0
  4 27  1  0  0  0  0
  5  6  1  0  0  0  0
  5 18  1  0  0  0  0
  5 28  1  0  0  0  0
  6  7  1  0  0  0  0
  6 29  1  0  0  0  0
  7  8  2  0  0  0  0
  7  9  1  0  0  0  0
  9 10  1  0  0  0  0
  9 30  1  0  0  0  0
 10 11  1  0  0  0  0
 10 31  1  0  0  0  0
 10 32  1  0  0  0  0
 11 12  1  0  0  0  0
 11 13  1  0  0  0  0
 11 33  1  0  0  0  0
 12 34  1  0  0  0  0
 12 35  1  0  0  0  0
 12 36  1  0  0  0  0
 13 17  1  0  0  0  0
 13 14  2  0  0  0  0
 14 15  1  0  0  0  0
 15 16  2  0  0  0  0
 15 37  1  0  0  0  0
 16 17  1  0  0  0  0
 16 38  1  0  0  0  0
 18 19  1  0  0  0  0
 18 39  1  0  0  0  0
 18 40  1  0  0  0  0
 19 41  1  0  0  0  0
 19 42  1  0  0  0  0
M  END
> <s_m_source_file>
AV-unprocessed.smi

> <i_m_source_file_index>
2330

> <i_lp_mmshare_version>
43012

> <i_f3d_flags>
0

> <s_epik_input>
W0NIM11bQ0BASF0xW0NIMl1bQ0gyXVtDQEhdKFtDSDJdW0NIMl0xKVtOSF1DKD1PKVtOSF1bQ0gyXVtDQEhdKFtDSDNdKWMybltjSF1bY0hdczI=

> <s_epik_cmdline>
J2VwaWtfcHl0aG9uJywgJy1waCcsICc3LjAnLCAnLXRuJywgJzgnLCAnLW1hJywgJzIwMCcsICctbWV0YWxfYmluZGluZycsICctaW1hZScsICc8aW5maWxlLm1hZT4nLCAnLW9tYWUnLCAnPG91dGZpbGUubWFlPic=

> <r_lp_tautomer_probability>
1

> <r_epik_Ionization_Penalty>
0.000331107

> <r_epik_Ionization_Penalty_Charging>
0

> <r_epik_Ionization_Penalty_Neutral>
0.000331107

> <r_epik_State_Penalty>
-0

> <r_epik_Charging_Adjusted_Penalty>
0

> <i_epik_Tot_Q>
0

> <i_epik_Tot_abs_Q>
0

> <r_epik_Metal_State_Penalty>
-0

> <b_epik_Metal_Only>
0

> <s_lp_Force_Field>
OPLS_2005

> <r_lp_Energy>
-1.82221

> <b_lp_Chiralities_Consistent>
1

> <s_lp_Variant>
AV-unprocessed.smi:2330-1

> <Gold.Version>
5.8.1

> <Gold.Id.Protein>
6NUR|6NUR_protein|mol2

> <Gold.PLP.Fitness>
49.1806

> <Gold.PLP.PLP>
-44.0101

> <Gold.PLP.part.hbond>
-2.0000

> <Gold.PLP.part.metal>
0.0000

> <Gold.PLP.part.buried>
-6.5487

> <Gold.PLP.part.nonpolar>
-35.4420

> <Gold.PLP.part.repulsive>
0.3380

> <Gold.PLP.ligand.clash>
0.0000

> <Gold.PLP.ligand.torsion>
0.4736

> <Gold.PLP.Chemscore.Hbond>
2.0000

> <Gold.PLP.Chemscore.CHOScore>
0.0000

> <Gold.PLP.Chemscore.Metal>
0.0000

> <Gold.Chemscore.Hbonds>
donor molecule, donor type, donor heavy atom, donor atom, acceptor molecule, acceptor atom, score
      L1  H     6    29       P1  8028  1.00
      L1  H     9    30       P1  8028  1.00

> <Gold.PLP.Chemscore.Internal.Correction>
0.1178

> <Gold.Rescore>
     Score         DG    S(hbond)    S(metal)    S(lipo)     H(rot)  DE(clash)    DE(int)     intcor
     19.44     -21.65       1.92        0.00     115.36       1.45       0.16       2.05       ----

> <Gold.Chemscore.Fitness>
19.4436

> <Gold.Chemscore.DG>
-21.6536

> <Gold.Chemscore.ZeroCoef>
-5.4800

> <Gold.Chemscore.Hbond>
1.9156

> <Gold.Chemscore.Metal>
0.0000

> <Gold.Chemscore.Lipo>
115.3579

> <Gold.Chemscore.Internal_Hbond>
0.0000

> <Gold.Chemscore.DEClash>
0.1635

> <Gold.Chemscore.DEInternal>
2.0465

> <Gold.Chemscore.Rot>
1.4536

> <Gold.Chemscore.Internal.Correction>
   9.000000E+99

> <Gold.Chemscore.Hbonds>
donor molecule, donor type, donor heavy atom, donor atom, acceptor molecule, acceptor atom, score
      L1  H     6    29       P1  8028  0.97
      L1  H     9    30       P1  8028  0.96

> <Gold.Chemscore.Hbond.Weighted>
-6.3979

> <Gold.Chemscore.Metal.Weighted>
-0.0000

> <Gold.Chemscore.Lipo.Weighted>
-13.4969

> <Gold.Chemscore.Internal_Hbond.Weighted>
0.0000

> <Gold.Chemscore.DEClash.Weighted>
0.1635

> <Gold.Chemscore.DEInternal.Weighted>
2.0465

> <Gold.Chemscore.Rot.Weighted>
3.7212

> <Gold.Chemscore.Internal.Correction.Weighted>
   9.000000E+99

> <Gold.Protein.RotatedTorsions>
[ 6907 6896 6895 6894 ] final  -21.89 input  -60.11 | X-H torsion
[ 7974 7965 7964 7962 ] final   62.61 input  175.53 | X-H torsion
[ 8008 7997 7996 7995 ] final  -26.60 input   59.86 | X-H torsion
[ 10167 10162 10161 10158 ] final -163.15 input  -65.29 | X-H torsion
[ 10718 10713 10712 10709 ] final  -85.11 input   66.30 | X-H torsion
[ 10763 10752 10751 10750 ] final   47.11 input  -60.55 | X-H torsion
[ 11005 11000 10999 10996 ] final   10.49 input  -57.11 | X-H torsion

> <Gold.Protein.ActiveResidues>
 VAL166  LYS551  ARG553  GLY616  TRP617  ASP618  TYR619  PRO620  LYS621  CYS622 
 ASP623  PHE694  ASN695  SER759  ASP760  ASP761  ALA762  ILE779  LEU786  VAL792 
 PHE793  MET794  SER795  GLU796  ALA797  LYS798  CYS799  TRP800  GLU811  SER814 

> <Gold.Protein.RotatedAtoms>
  151.2267  135.0539  159.8970 H   0  0  0  0  0  0  0  0  0  0  0  0  # atno 6907 bound_to 6896
  152.5409  134.0582  159.8150 H   0  0  0  0  0  0  0  0  0  0  0  0  # atno 6908 bound_to 6896
  151.0756  133.5383  159.2655 H   0  0  0  0  0  0  0  0  0  0  0  0  # atno 6909 bound_to 6896
  145.8713  139.3380  143.0760 H   0  0  0  0  0  0  0  0  0  0  0  0  # atno 7974 bound_to 7965
  154.4417  140.1895  156.0800 H   0  0  0  0  0  0  0  0  0  0  0  0  # atno 8008 bound_to 7997
  156.0446  140.3316  155.7255 H   0  0  0  0  0  0  0  0  0  0  0  0  # atno 8009 bound_to 7997
  155.5649  140.0607  157.2811 H   0  0  0  0  0  0  0  0  0  0  0  0  # atno 8010 bound_to 7997
  139.6341  144.0384  152.2040 H   0  0  0  0  0  0  0  0  0  0  0  0  # atno 10167 bound_to 10162
  156.0000  130.4720  150.4512 H   0  0  0  0  0  0  0  0  0  0  0  0  # atno 10718 bound_to 10713
  152.9803  135.5986  154.3710 H   0  0  0  0  0  0  0  0  0  0  0  0  # atno 10763 bound_to 10752
  154.3383  135.2768  155.2438 H   0  0  0  0  0  0  0  0  0  0  0  0  # atno 10764 bound_to 10752
  154.4531  135.5985  153.6260 H   0  0  0  0  0  0  0  0  0  0  0  0  # atno 10765 bound_to 10752
  140.5139  134.0625  155.7826 H   0  0  0  0  0  0  0  0  0  0  0  0  # atno 11005 bound_to 11000
  145.9133  140.9165  143.0443 LP  0  0  0  0  0  0  0  0  0  0  0  0  # atno 17320 bound_to 7965
  144.6726  140.1189  143.7451 LP  0  0  0  0  0  0  0  0  0  0  0  0  # atno 17321 bound_to 7965
  140.0056  144.6261  150.7691 LP  0  0  0  0  0  0  0  0  0  0  0  0  # atno 17342 bound_to 10162
  140.7455  143.2877  151.3417 LP  0  0  0  0  0  0  0  0  0  0  0  0  # atno 17343 bound_to 10162
  157.2545  131.0553  151.2359 LP  0  0  0  0  0  0  0  0  0  0  0  0  # atno 17370 bound_to 10713
  157.3496  130.7075  149.6432 LP  0  0  0  0  0  0  0  0  0  0  0  0  # atno 17371 bound_to 10713
  141.1371  133.9203  157.2410 LP  0  0  0  0  0  0  0  0  0  0  0  0  # atno 17394 bound_to 11000
  139.9643  135.0146  156.9346 LP  0  0  0  0  0  0  0  0  0  0  0  0  # atno 17395 bound_to 11000

$$$$
