AV-unprocessed.smi:1830|AV-procd|sdf|7452|dock8
  -GOLD-   22720 9143D 1   1.00000     0.00000
 Structure written by MMmdl.
 53 56  0  0  0  0  0  0  0  0  2 V2000
  150.3799  139.8642  154.1366 O   0  0  0  0  0  0  0  0  0  0  0  0
  149.7319  139.6767  155.1660 C   0  0  0  0  0  0  0  0  0  0  0  0
  150.1539  140.0439  156.3837 N   0  0  0  0  0  0  0  0  0  0  0  0
  151.4076  140.7370  156.6605 C   0  0  0  0  0  0  0  0  0  0  0  0
  151.6771  140.8497  158.1712 C   0  0  2  0  0  0  0  0  0  0  0  0
  151.5487  142.3050  158.6748 C   0  0  0  0  0  0  0  0  0  0  0  0
  151.9174  142.3730  160.0755 N   0  0  0  0  0  0  0  0  0  0  0  0
  151.9241  143.6804  160.6890 C   0  0  0  0  0  0  0  0  0  0  0  0
  152.7280  143.4861  161.9867 C   0  0  0  0  0  0  0  0  0  0  0  0
  153.5437  142.1961  161.7457 C   0  0  0  0  0  0  0  0  0  0  0  0
  153.2550  141.8845  160.2764 C   0  0  1  0  0  0  0  0  0  0  0  0
  153.3751  140.4233  159.8196 C   0  0  0  0  0  0  0  0  0  0  0  0
  152.9972  140.3598  158.4418 O   0  0  0  0  0  0  0  0  0  0  0  0
  148.5169  139.1065  155.2247 N   0  0  0  0  0  0  0  0  0  0  0  0
  147.6927  138.6697  154.1482 C   0  0  0  0  0  0  0  0  0  0  0  0
  147.6814  139.3485  152.9019 C   0  0  0  0  0  0  0  0  0  0  0  0
  146.8323  138.9099  151.8688 C   0  0  0  0  0  0  0  0  0  0  0  0
  146.0088  137.7940  152.0936 C   0  0  0  0  0  0  0  0  0  0  0  0
  146.0591  137.1553  153.2804 N   0  3  0  0  0  0  0  0  0  0  0  0
  146.8660  137.5189  154.3086 C   0  0  0  0  0  0  0  0  0  0  0  0
  146.8183  136.7397  155.4879 N   0  0  0  0  0  0  0  0  0  0  0  0
  145.5719  136.6055  156.2334 C   0  0  0  0  0  0  0  0  0  0  0  0
  145.8081  135.4459  157.1968 C   0  0  0  0  0  0  0  0  0  0  0  0
  146.7024  134.5184  156.3800 C   0  0  0  0  0  0  0  0  0  0  0  0
  147.5512  135.4782  155.5397 C   0  0  0  0  0  0  0  0  0  0  0  0
  149.5569  139.8562  157.1758 H   0  0  0  0  0  0  0  0  0  0  0  0
  152.2169  140.1894  156.1768 H   0  0  0  0  0  0  0  0  0  0  0  0
  151.3869  141.7278  156.2035 H   0  0  0  0  0  0  0  0  0  0  0  0
  150.9616  140.2297  158.7143 H   0  0  0  0  0  0  0  0  0  0  0  0
  152.1942  142.9596  158.0870 H   0  0  0  0  0  0  0  0  0  0  0  0
  150.5270  142.6617  158.5417 H   0  0  0  0  0  0  0  0  0  0  0  0
  152.4322  144.3974  160.0420 H   0  0  0  0  0  0  0  0  0  0  0  0
  150.9129  144.0454  160.8710 H   0  0  0  0  0  0  0  0  0  0  0  0
  153.3696  144.3457  162.1825 H   0  0  0  0  0  0  0  0  0  0  0  0
  152.0643  143.3610  162.8431 H   0  0  0  0  0  0  0  0  0  0  0  0
  154.6087  142.3285  161.9374 H   0  0  0  0  0  0  0  0  0  0  0  0
  153.1787  141.3950  162.3898 H   0  0  0  0  0  0  0  0  0  0  0  0
  153.9418  142.4811  159.6719 H   0  0  0  0  0  0  0  0  0  0  0  0
  154.3989  140.0665  159.9311 H   0  0  0  0  0  0  0  0  0  0  0  0
  152.7334  139.7699  160.4128 H   0  0  0  0  0  0  0  0  0  0  0  0
  148.0818  139.0962  156.1353 H   0  0  0  0  0  0  0  0  0  0  0  0
  148.3164  140.2012  152.7162 H   0  0  0  0  0  0  0  0  0  0  0  0
  146.8124  139.4251  150.9195 H   0  0  0  0  0  0  0  0  0  0  0  0
  145.3230  137.3892  151.3634 H   0  0  0  0  0  0  0  0  0  0  0  0
  145.3207  137.5259  156.7612 H   0  0  0  0  0  0  0  0  0  0  0  0
  144.7499  136.3585  155.5602 H   0  0  0  0  0  0  0  0  0  0  0  0
  146.3431  135.7962  158.0807 H   0  0  0  0  0  0  0  0  0  0  0  0
  144.8835  134.9703  157.5249 H   0  0  0  0  0  0  0  0  0  0  0  0
  147.3038  133.8523  156.9991 H   0  0  0  0  0  0  0  0  0  0  0  0
  146.0869  133.9020  155.7235 H   0  0  0  0  0  0  0  0  0  0  0  0
  147.7424  135.0707  154.5459 H   0  0  0  0  0  0  0  0  0  0  0  0
  148.5107  135.6502  156.0286 H   0  0  0  0  0  0  0  0  0  0  0  0
  145.4570  136.3420  153.4092 H   0  0  0  0  0  0  0  0  0  0  0  0
  1  2  2  0  0  0  0
  2  3  1  0  0  0  0
  2 14  1  0  0  0  0
  3  4  1  0  0  0  0
  3 26  1  0  0  0  0
  4  5  1  0  0  0  0
  4 27  1  0  0  0  0
  4 28  1  0  0  0  0
  5 13  1  0  0  0  0
  5  6  1  0  0  0  0
  5 29  1  0  0  0  0
  6  7  1  0  0  0  0
  6 30  1  0  0  0  0
  6 31  1  0  0  0  0
  7 11  1  0  0  0  0
  7  8  1  0  0  0  0
  8  9  1  0  0  0  0
  8 32  1  0  0  0  0
  8 33  1  0  0  0  0
  9 10  1  0  0  0  0
  9 34  1  0  0  0  0
  9 35  1  0  0  0  0
 10 11  1  0  0  0  0
 10 36  1  0  0  0  0
 10 37  1  0  0  0  0
 11 12  1  0  0  0  0
 11 38  1  0  0  0  0
 12 13  1  0  0  0  0
 12 39  1  0  0  0  0
 12 40  1  0  0  0  0
 14 15  1  0  0  0  0
 14 41  1  0  0  0  0
 15 20  1  0  0  0  0
 15 16  2  0  0  0  0
 16 17  1  0  0  0  0
 16 42  1  0  0  0  0
 17 18  2  0  0  0  0
 17 43  1  0  0  0  0
 18 19  1  0  0  0  0
 18 44  1  0  0  0  0
 19 20  2  0  0  0  0
 19 53  1  0  0  0  0
 20 21  1  0  0  0  0
 21 25  1  0  0  0  0
 21 22  1  0  0  0  0
 22 23  1  0  0  0  0
 22 45  1  0  0  0  0
 22 46  1  0  0  0  0
 23 24  1  0  0  0  0
 23 47  1  0  0  0  0
 23 48  1  0  0  0  0
 24 25  1  0  0  0  0
 24 49  1  0  0  0  0
 24 50  1  0  0  0  0
 25 51  1  0  0  0  0
 25 52  1  0  0  0  0
M  CHG  1  19   1
M  END
> <s_m_source_file>
AV-unprocessed.smi

> <i_m_source_file_index>
1830

> <i_lp_mmshare_version>
43012

> <i_f3d_flags>
0

> <s_epik_input>
W0NIMl0xW0NIMl1bQ0gyXVtDQEhdKE4xMilbQ0gyXU9bQ0BASF0oW0NIMl0yKVtDSDJdW05IXUMoPU8pW05IXWMzW2NIXVtjSF1bY0hdbmMzTjRbQ0gyXVtDSDJdW0NIMl1bQ0gyXTQ=

> <s_epik_cmdline>
J2VwaWtfcHl0aG9uJywgJy1waCcsICc3LjAnLCAnLXRuJywgJzgnLCAnLW1hJywgJzIwMCcsICctbWV0YWxfYmluZGluZycsICctaW1hZScsICc8aW5maWxlLm1hZT4nLCAnLW9tYWUnLCAnPG91dGZpbGUubWFlPic=

> <r_epik_Ionization_Penalty>
2.19264

> <r_epik_Ionization_Penalty_Charging>
1.12452

> <r_epik_Ionization_Penalty_Neutral>
1.06812

> <r_epik_State_Penalty>
2.334

> <r_epik_Charging_Adjusted_Penalty>
3.45852

> <i_epik_Tot_Q>
1

> <i_epik_Tot_abs_Q>
1

> <r_epik_Metal_State_Penalty>
2.41144

> <b_epik_Metal_Only>
0

> <s_lp_Force_Field>
OPLS_2005

> <r_lp_Energy>
81.6261

> <b_lp_Chiralities_Consistent>
1

> <s_lp_Variant>
AV-unprocessed.smi:1830-21

> <Gold.Version>
5.8.1

> <Gold.Id.Protein>
6NUR|6NUR_protein|mol2

> <Gold.PLP.Fitness>
40.8958

> <Gold.PLP.PLP>
-37.2056

> <Gold.PLP.part.hbond>
-2.4003

> <Gold.PLP.part.metal>
0.0000

> <Gold.PLP.part.buried>
0.1184

> <Gold.PLP.part.nonpolar>
-33.9125

> <Gold.PLP.part.repulsive>
0.7299

> <Gold.PLP.ligand.clash>
0.0000

> <Gold.PLP.ligand.torsion>
1.2429

> <Gold.PLP.Chemscore.Hbond>
1.9280

> <Gold.PLP.Chemscore.CHOScore>
0.0000

> <Gold.PLP.Chemscore.Metal>
0.0000

> <Gold.Chemscore.Hbonds>
donor molecule, donor type, donor heavy atom, donor atom, acceptor molecule, acceptor atom, score
      P1  H  7989  7998       L1     1  1.00
      P1  H  7997  8008       L1    13  0.64

> <Gold.PLP.Chemscore.Internal.Correction>
0.3920

> <Gold.Rescore>
     Score         DG    S(hbond)    S(metal)    S(lipo)     H(rot)  DE(clash)    DE(int)     intcor
     16.49     -20.14       1.81        0.00     104.15       1.40       1.38       2.27       ----

> <Gold.Chemscore.Fitness>
16.4862

> <Gold.Chemscore.DG>
-20.1412

> <Gold.Chemscore.ZeroCoef>
-5.4800

> <Gold.Chemscore.Hbond>
1.8111

> <Gold.Chemscore.Metal>
0.0000

> <Gold.Chemscore.Lipo>
104.1521

> <Gold.Chemscore.Internal_Hbond>
0.0000

> <Gold.Chemscore.DEClash>
1.3812

> <Gold.Chemscore.DEInternal>
2.2738

> <Gold.Chemscore.Rot>
1.3959

> <Gold.Chemscore.Internal.Correction>
   9.000000E+99

> <Gold.Chemscore.Hbonds>
donor molecule, donor type, donor heavy atom, donor atom, acceptor molecule, acceptor atom, score
      P1  H  7989  7998       L1     1  0.99
      P1  H  7997  8008       L1    13  0.59

> <Gold.Chemscore.Hbond.Weighted>
-6.0491

> <Gold.Chemscore.Metal.Weighted>
-0.0000

> <Gold.Chemscore.Lipo.Weighted>
-12.1858

> <Gold.Chemscore.Internal_Hbond.Weighted>
0.0000

> <Gold.Chemscore.DEClash.Weighted>
1.3812

> <Gold.Chemscore.DEInternal.Weighted>
2.2738

> <Gold.Chemscore.Rot.Weighted>
3.5736

> <Gold.Chemscore.Internal.Correction.Weighted>
   9.000000E+99

> <Gold.Protein.RotatedTorsions>
[ 6907 6896 6895 6894 ] final  -59.02 input  -60.11 | X-H torsion
[ 7974 7965 7964 7962 ] final   10.72 input  175.53 | X-H torsion
[ 8008 7997 7996 7995 ] final  -84.99 input   59.86 | X-H torsion
[ 10167 10162 10161 10158 ] final -145.33 input  -65.29 | X-H torsion
[ 10718 10713 10712 10709 ] final -152.61 input   66.30 | X-H torsion
[ 10763 10752 10751 10750 ] final -165.66 input  -60.55 | X-H torsion
[ 11005 11000 10999 10996 ] final   48.08 input  -57.11 | X-H torsion

> <Gold.Protein.ActiveResidues>
 VAL166  LYS551  ARG553  GLY616  TRP617  ASP618  TYR619  PRO620  LYS621  CYS622 
 ASP623  PHE694  ASN695  SER759  ASP760  ASP761  ALA762  ILE779  LEU786  VAL792 
 PHE793  MET794  SER795  GLU796  ALA797  LYS798  CYS799  TRP800  GLU811  SER814 

> <Gold.Protein.RotatedAtoms>
  150.7962  134.7023  159.6556 H   0  0  0  0  0  0  0  0  0  0  0  0  # atno 6907 bound_to 6896
  152.4074  134.6179  160.0053 H   0  0  0  0  0  0  0  0  0  0  0  0  # atno 6908 bound_to 6896
  151.6432  133.3288  159.3171 H   0  0  0  0  0  0  0  0  0  0  0  0  # atno 6909 bound_to 6896
  146.2383  139.9592  142.8461 H   0  0  0  0  0  0  0  0  0  0  0  0  # atno 7974 bound_to 7965
  154.6358  140.0597  156.9787 H   0  0  0  0  0  0  0  0  0  0  0  0  # atno 8008 bound_to 7997
  155.1593  140.3281  155.4396 H   0  0  0  0  0  0  0  0  0  0  0  0  # atno 8009 bound_to 7997
  156.2506  140.1933  156.6701 H   0  0  0  0  0  0  0  0  0  0  0  0  # atno 8010 bound_to 7997
  139.7815  143.8094  152.2639 H   0  0  0  0  0  0  0  0  0  0  0  0  # atno 10167 bound_to 10162
  156.4747  130.8275  151.2504 H   0  0  0  0  0  0  0  0  0  0  0  0  # atno 10718 bound_to 10713
  154.6910  135.2970  154.9480 H   0  0  0  0  0  0  0  0  0  0  0  0  # atno 10763 bound_to 10752
  154.0443  135.6653  153.4797 H   0  0  0  0  0  0  0  0  0  0  0  0  # atno 10764 bound_to 10752
  153.0612  135.5115  154.8002 H   0  0  0  0  0  0  0  0  0  0  0  0  # atno 10765 bound_to 10752
  140.1222  134.4814  155.8588 H   0  0  0  0  0  0  0  0  0  0  0  0  # atno 11005 bound_to 11000
  145.1788  140.9757  143.4279 LP  0  0  0  0  0  0  0  0  0  0  0  0  # atno 17320 bound_to 7965
  144.9961  139.3642  143.6190 LP  0  0  0  0  0  0  0  0  0  0  0  0  # atno 17321 bound_to 7965
  139.8158  144.7317  150.9637 LP  0  0  0  0  0  0  0  0  0  0  0  0  # atno 17342 bound_to 10162
  140.7818  143.4206  151.0847 LP  0  0  0  0  0  0  0  0  0  0  0  0  # atno 17343 bound_to 10162
  157.7488  131.0064  150.3152 LP  0  0  0  0  0  0  0  0  0  0  0  0  # atno 17370 bound_to 10713
  156.3582  130.3842  149.7273 LP  0  0  0  0  0  0  0  0  0  0  0  0  # atno 17371 bound_to 10713
  141.2154  133.6765  156.6910 LP  0  0  0  0  0  0  0  0  0  0  0  0  # atno 17394 bound_to 11000
  140.2950  134.8210  157.4049 LP  0  0  0  0  0  0  0  0  0  0  0  0  # atno 17395 bound_to 11000

$$$$
