AV-unprocessed.smi:2575|AV-procd|sdf|10116|dock3
  -GOLD-   2272014133D 1   1.00000     0.00000
 Structure written by MMmdl.
 31 32  0  0  0  0  0  0  0  0  1 V2000
  145.9633  142.6266  155.3751 C   0  0  0  0  0  0  0  0  0  0  0  0
  146.5490  141.9990  154.1083 C   0  0  0  0  0  0  0  0  0  0  0  0
  146.7651  140.6169  154.3372 O   0  0  0  0  0  0  0  0  0  0  0  0
  147.9685  140.3598  155.0422 C   0  0  0  0  0  0  0  0  0  0  0  0
  149.1311  141.0782  154.3413 C   0  0  2  0  0  0  0  0  0  0  0  0
  150.0531  140.1028  153.8944 O   0  0  0  0  0  0  0  0  0  0  0  0
  149.8416  142.0902  155.2623 C   0  0  0  0  0  0  0  0  0  0  0  0
  150.5620  141.4457  156.3465 N   0  0  0  0  0  0  0  0  0  0  0  0
  150.7648  140.0984  156.3062 N   0  0  0  0  0  0  0  0  0  0  0  0
  151.4172  139.7436  157.3727 N   0  0  0  0  0  0  0  0  0  0  0  0
  151.6461  140.8787  158.1323 C   0  0  0  0  0  0  0  0  0  0  0  0
  152.2970  141.0671  159.3720 C   0  0  0  0  0  0  0  0  0  0  0  0
  152.3928  142.3569  159.9394 C   0  0  0  0  0  0  0  0  0  0  0  0
  153.1970  142.5471  161.4568 Cl  0  0  0  0  0  0  0  0  0  0  0  0
  151.8365  143.4745  159.2714 C   0  0  0  0  0  0  0  0  0  0  0  0
  151.9422  145.0587  159.9526 Cl  0  0  0  0  0  0  0  0  0  0  0  0
  151.1846  143.3011  158.0342 C   0  0  0  0  0  0  0  0  0  0  0  0
  151.1008  142.0096  157.4867 C   0  0  0  0  0  0  0  0  0  0  0  0
  145.7814  143.6920  155.2336 H   0  0  0  0  0  0  0  0  0  0  0  0
  146.6436  142.5125  156.2192 H   0  0  0  0  0  0  0  0  0  0  0  0
  145.0158  142.1578  155.6417 H   0  0  0  0  0  0  0  0  0  0  0  0
  145.8618  142.1385  153.2724 H   0  0  0  0  0  0  0  0  0  0  0  0
  147.4881  142.4906  153.8496 H   0  0  0  0  0  0  0  0  0  0  0  0
  147.8835  140.6907  156.0787 H   0  0  0  0  0  0  0  0  0  0  0  0
  148.1506  139.2837  155.0563 H   0  0  0  0  0  0  0  0  0  0  0  0
  148.7480  141.5937  153.4596 H   0  0  0  0  0  0  0  0  0  0  0  0
  149.7900  139.8115  153.0347 H   0  0  0  0  0  0  0  0  0  0  0  0
  150.5488  142.6922  154.6894 H   0  0  0  0  0  0  0  0  0  0  0  0
  149.1203  142.7869  155.6915 H   0  0  0  0  0  0  0  0  0  0  0  0
  152.7222  140.2184  159.8870 H   0  0  0  0  0  0  0  0  0  0  0  0
  150.7544  144.1451  157.5154 H   0  0  0  0  0  0  0  0  0  0  0  0
  1  2  1  0  0  0  0
  1 19  1  0  0  0  0
  1 20  1  0  0  0  0
  1 21  1  0  0  0  0
  2  3  1  0  0  0  0
  2 22  1  0  0  0  0
  2 23  1  0  0  0  0
  3  4  1  0  0  0  0
  4  5  1  0  0  0  0
  4 24  1  0  0  0  0
  4 25  1  0  0  0  0
  5  6  1  0  0  0  0
  5  7  1  0  0  0  0
  5 26  1  0  0  0  0
  6 27  1  0  0  0  0
  7  8  1  0  0  0  0
  7 28  1  0  0  0  0
  7 29  1  0  0  0  0
  8 18  1  0  0  0  0
  8  9  1  0  0  0  0
  9 10  2  0  0  0  0
 10 11  1  0  0  0  0
 11 18  2  0  0  0  0
 11 12  1  0  0  0  0
 12 13  2  0  0  0  0
 12 30  1  0  0  0  0
 13 14  1  0  0  0  0
 13 15  1  0  0  0  0
 15 16  1  0  0  0  0
 15 17  2  0  0  0  0
 17 18  1  0  0  0  0
 17 31  1  0  0  0  0
M  END
> <s_m_source_file>
AV-unprocessed.smi

> <i_m_source_file_index>
2575

> <i_lp_mmshare_version>
43012

> <i_f3d_flags>
0

> <s_epik_input>
W0NIM11bQ0gyXU9bQ0gyXVtDQEhdKFtPSF0pW0NIMl1uKG5uMSljKGMxMilbY0hdYyhDbCljKENsKVtjSF0y

> <s_epik_cmdline>
J2VwaWtfcHl0aG9uJywgJy1waCcsICc3LjAnLCAnLXRuJywgJzgnLCAnLW1hJywgJzIwMCcsICctbWV0YWxfYmluZGluZycsICctaW1hZScsICc8aW5maWxlLm1hZT4nLCAnLW9tYWUnLCAnPG91dGZpbGUubWFlPic=

> <r_lp_tautomer_probability>
1

> <r_epik_Ionization_Penalty>
2.39516e-06

> <r_epik_Ionization_Penalty_Charging>
0

> <r_epik_Ionization_Penalty_Neutral>
2.39516e-06

> <r_epik_State_Penalty>
-0

> <r_epik_Charging_Adjusted_Penalty>
0

> <i_epik_Tot_Q>
0

> <i_epik_Tot_abs_Q>
0

> <r_epik_Metal_State_Penalty>
-0

> <b_epik_Metal_Only>
0

> <s_lp_Force_Field>
OPLS_2005

> <r_lp_Energy>
6.35742

> <b_lp_Chiralities_Consistent>
1

> <s_lp_Variant>
AV-unprocessed.smi:2575-1

> <Gold.Version>
5.8.1

> <Gold.Id.Protein>
6NUR|6NUR_protein|mol2

> <Gold.PLP.Fitness>
43.1196

> <Gold.PLP.PLP>
-39.5403

> <Gold.PLP.part.hbond>
-2.0000

> <Gold.PLP.part.metal>
0.0000

> <Gold.PLP.part.buried>
-3.0000

> <Gold.PLP.part.nonpolar>
-34.6684

> <Gold.PLP.part.repulsive>
0.1242

> <Gold.PLP.ligand.clash>
0.0000

> <Gold.PLP.ligand.torsion>
1.0417

> <Gold.PLP.Chemscore.Hbond>
1.8720

> <Gold.PLP.Chemscore.CHOScore>
0.0000

> <Gold.PLP.Chemscore.Metal>
0.0000

> <Gold.Chemscore.Hbonds>
donor molecule, donor type, donor heavy atom, donor atom, acceptor molecule, acceptor atom, score
      L1  H     6    27       P1  7957  1.00
      P1  H  7989  7998       L1     6  0.81

> <Gold.PLP.Chemscore.Internal.Correction>
0.0467

> <Gold.Rescore>
     Score         DG    S(hbond)    S(metal)    S(lipo)     H(rot)  DE(clash)    DE(int)     intcor
     12.58     -16.77       1.27        0.00     108.05       2.19       1.25       2.94       ----

> <Gold.Chemscore.Fitness>
12.5790

> <Gold.Chemscore.DG>
-16.7726

> <Gold.Chemscore.ZeroCoef>
-5.4800

> <Gold.Chemscore.Hbond>
1.2748

> <Gold.Chemscore.Metal>
0.0000

> <Gold.Chemscore.Lipo>
108.0468

> <Gold.Chemscore.Internal_Hbond>
0.0000

> <Gold.Chemscore.DEClash>
1.2538

> <Gold.Chemscore.DEInternal>
2.9398

> <Gold.Chemscore.Rot>
2.1901

> <Gold.Chemscore.Internal.Correction>
   9.000000E+99

> <Gold.Chemscore.Hbonds>
donor molecule, donor type, donor heavy atom, donor atom, acceptor molecule, acceptor atom, score
      L1  H     6    27       P1  7957  0.97
      P1  H  7989  7998       L1     6  0.13

> <Gold.Chemscore.Hbond.Weighted>
-4.2577

> <Gold.Chemscore.Metal.Weighted>
-0.0000

> <Gold.Chemscore.Lipo.Weighted>
-12.6415

> <Gold.Chemscore.Internal_Hbond.Weighted>
0.0000

> <Gold.Chemscore.DEClash.Weighted>
1.2538

> <Gold.Chemscore.DEInternal.Weighted>
2.9398

> <Gold.Chemscore.Rot.Weighted>
5.6066

> <Gold.Chemscore.Internal.Correction.Weighted>
   9.000000E+99

> <Gold.Protein.RotatedTorsions>
[ 6907 6896 6895 6894 ] final  -14.60 input  -60.11 | X-H torsion
[ 7974 7965 7964 7962 ] final  -86.74 input  175.53 | X-H torsion
[ 8008 7997 7996 7995 ] final  152.04 input   59.86 | X-H torsion
[ 10167 10162 10161 10158 ] final  -37.68 input  -65.29 | X-H torsion
[ 10718 10713 10712 10709 ] final  130.37 input   66.30 | X-H torsion
[ 10763 10752 10751 10750 ] final -144.61 input  -60.55 | X-H torsion
[ 11005 11000 10999 10996 ] final   60.00 input  -57.11 | X-H torsion

> <Gold.Protein.ActiveResidues>
 VAL166  LYS551  ARG553  GLY616  TRP617  ASP618  TYR619  PRO620  LYS621  CYS622 
 ASP623  PHE694  ASN695  SER759  ASP760  ASP761  ALA762  ILE779  LEU786  VAL792 
 PHE793  MET794  SER795  GLU796  ALA797  LYS798  CYS799  TRP800  GLU811  SER814 

> <Gold.Protein.RotatedAtoms>
  151.3369  135.0855  159.9357 H   0  0  0  0  0  0  0  0  0  0  0  0  # atno 6907 bound_to 6896
  152.5221  133.9486  159.7671 H   0  0  0  0  0  0  0  0  0  0  0  0  # atno 6908 bound_to 6896
  150.9835  133.6168  159.2748 H   0  0  0  0  0  0  0  0  0  0  0  0  # atno 6909 bound_to 6896
  145.4759  140.9558  143.1891 H   0  0  0  0  0  0  0  0  0  0  0  0  # atno 7974 bound_to 7965
  156.2647  140.2031  156.6270 H   0  0  0  0  0  0  0  0  0  0  0  0  # atno 8008 bound_to 7997
  154.6712  140.0550  157.0192 H   0  0  0  0  0  0  0  0  0  0  0  0  # atno 8009 bound_to 7997
  155.1134  140.3217  155.4518 H   0  0  0  0  0  0  0  0  0  0  0  0  # atno 8010 bound_to 7997
  140.7112  143.3326  151.2534 H   0  0  0  0  0  0  0  0  0  0  0  0  # atno 10167 bound_to 10162
  157.5068  131.1096  150.9350 H   0  0  0  0  0  0  0  0  0  0  0  0  # atno 10718 bound_to 10713
  154.8420  135.3436  154.6373 H   0  0  0  0  0  0  0  0  0  0  0  0  # atno 10763 bound_to 10752
  153.6983  135.6971  153.5075 H   0  0  0  0  0  0  0  0  0  0  0  0  # atno 10764 bound_to 10752
  153.2542  135.4343  155.0783 H   0  0  0  0  0  0  0  0  0  0  0  0  # atno 10765 bound_to 10752
  140.0263  134.6078  155.9568 H   0  0  0  0  0  0  0  0  0  0  0  0  # atno 11005 bound_to 11000
  144.7918  139.6314  143.7110 LP  0  0  0  0  0  0  0  0  0  0  0  0  # atno 17320 bound_to 7965
  146.2370  139.5924  142.9517 LP  0  0  0  0  0  0  0  0  0  0  0  0  # atno 17321 bound_to 7965
  139.6812  143.9851  152.2809 LP  0  0  0  0  0  0  0  0  0  0  0  0  # atno 17342 bound_to 10162
  139.9481  144.6638  150.8199 LP  0  0  0  0  0  0  0  0  0  0  0  0  # atno 17343 bound_to 10162
  157.0003  130.5597  149.5311 LP  0  0  0  0  0  0  0  0  0  0  0  0  # atno 17370 bound_to 10713
  156.0263  130.5357  150.8416 LP  0  0  0  0  0  0  0  0  0  0  0  0  # atno 17371 bound_to 10713
  141.1805  133.6546  156.4999 LP  0  0  0  0  0  0  0  0  0  0  0  0  # atno 17394 bound_to 11000
  140.4301  134.7110  157.4937 LP  0  0  0  0  0  0  0  0  0  0  0  0  # atno 17395 bound_to 11000

$$$$
