AV-unprocessed.smi:1584|AV-procd|sdf|6368|dock2
  -GOLD-   22720 6593D 1   1.00000     0.00000
 Structure written by MMmdl.
 39 40  0  0  0  0  0  0  0  0  1 V2000
  152.5030  138.9048  159.0771 C   0  0  0  0  0  0  0  0  0  0  0  0
  151.9533  140.3254  158.8837 C   0  0  1  0  0  0  0  0  0  0  0  0
  153.0800  141.3766  158.8722 C   0  0  0  0  0  0  0  0  0  0  0  0
  152.5729  142.7249  158.6865 N   0  0  0  0  0  0  0  0  0  0  0  0
  152.7622  143.8304  159.4894 C   0  0  0  0  0  0  0  0  0  0  0  0
  152.1077  144.8753  158.9027 C   0  0  0  0  0  0  0  0  0  0  0  0
  151.5388  144.3023  157.7312 C   0  0  0  0  0  0  0  0  0  0  0  0
  151.8186  143.0150  157.6047 N   0  0  0  0  0  0  0  0  0  0  0  0
  151.1976  140.3939  157.6345 N   0  0  0  0  0  0  0  0  0  0  0  0
  151.6768  140.1169  156.4123 C   0  0  0  0  0  0  0  0  0  0  0  0
  152.8510  139.8150  156.1965 O   0  0  0  0  0  0  0  0  0  0  0  0
  150.6689  140.1863  155.2577 C   0  0  1  0  0  0  0  0  0  0  0  0
  149.5801  139.1180  155.4146 C   0  0  0  0  0  0  0  0  0  0  0  0
  148.6260  139.1622  154.2139 C   0  0  0  0  0  0  0  0  0  0  0  0
  148.1669  140.5171  153.8754 N   0  0  0  0  0  0  0  0  0  0  0  0
  146.9879  140.5711  153.0093 C   0  0  0  0  0  0  0  0  0  0  0  0
  148.7968  141.6578  154.2477 C   0  0  0  0  0  0  0  0  0  0  0  0
  148.4125  142.7713  153.8890 O   0  0  0  0  0  0  0  0  0  0  0  0
  150.0176  141.5814  155.1797 C   0  0  0  0  0  0  0  0  0  0  0  0
  153.0570  138.8235  160.0125 H   0  0  0  0  0  0  0  0  0  0  0  0
  153.1761  138.6251  158.2659 H   0  0  0  0  0  0  0  0  0  0  0  0
  151.6959  138.1722  159.1092 H   0  0  0  0  0  0  0  0  0  0  0  0
  151.2969  140.5474  159.7274 H   0  0  0  0  0  0  0  0  0  0  0  0
  153.6341  141.3469  159.8115 H   0  0  0  0  0  0  0  0  0  0  0  0
  153.7989  141.1615  158.0803 H   0  0  0  0  0  0  0  0  0  0  0  0
  153.3446  143.7830  160.3976 H   0  0  0  0  0  0  0  0  0  0  0  0
  152.0456  145.8938  159.2558 H   0  0  0  0  0  0  0  0  0  0  0  0
  150.9360  144.7804  156.9735 H   0  0  0  0  0  0  0  0  0  0  0  0
  150.2213  140.6396  157.7109 H   0  0  0  0  0  0  0  0  0  0  0  0
  151.2006  139.9996  154.3224 H   0  0  0  0  0  0  0  0  0  0  0  0
  150.0204  138.1235  155.4996 H   0  0  0  0  0  0  0  0  0  0  0  0
  149.0144  139.2880  156.3325 H   0  0  0  0  0  0  0  0  0  0  0  0
  149.1261  138.7495  153.3368 H   0  0  0  0  0  0  0  0  0  0  0  0
  147.7704  138.5165  154.4175 H   0  0  0  0  0  0  0  0  0  0  0  0
  147.2042  141.1244  152.0940 H   0  0  0  0  0  0  0  0  0  0  0  0
  146.1610  141.0657  153.5207 H   0  0  0  0  0  0  0  0  0  0  0  0
  146.6481  139.5781  152.7130 H   0  0  0  0  0  0  0  0  0  0  0  0
  149.6839  141.9026  156.1678 H   0  0  0  0  0  0  0  0  0  0  0  0
  150.7562  142.3145  154.8520 H   0  0  0  0  0  0  0  0  0  0  0  0
  1  2  1  0  0  0  0
  1 20  1  0  0  0  0
  1 21  1  0  0  0  0
  1 22  1  0  0  0  0
  2  3  1  0  0  0  0
  2  9  1  0  0  0  0
  2 23  1  0  0  0  0
  3  4  1  0  0  0  0
  3 24  1  0  0  0  0
  3 25  1  0  0  0  0
  4  8  1  0  0  0  0
  4  5  1  0  0  0  0
  5  6  2  0  0  0  0
  5 26  1  0  0  0  0
  6  7  1  0  0  0  0
  6 27  1  0  0  0  0
  7  8  2  0  0  0  0
  7 28  1  0  0  0  0
  9 10  1  0  0  0  0
  9 29  1  0  0  0  0
 10 11  2  0  0  0  0
 10 12  1  0  0  0  0
 12 19  1  0  0  0  0
 12 13  1  0  0  0  0
 12 30  1  0  0  0  0
 13 14  1  0  0  0  0
 13 31  1  0  0  0  0
 13 32  1  0  0  0  0
 14 15  1  0  0  0  0
 14 33  1  0  0  0  0
 14 34  1  0  0  0  0
 15 16  1  0  0  0  0
 15 17  1  0  0  0  0
 16 35  1  0  0  0  0
 16 36  1  0  0  0  0
 16 37  1  0  0  0  0
 17 18  2  0  0  0  0
 17 19  1  0  0  0  0
 19 38  1  0  0  0  0
 19 39  1  0  0  0  0
M  END
> <s_m_source_file>
AV-unprocessed.smi

> <i_m_source_file_index>
1584

> <i_lp_mmshare_version>
43012

> <i_f3d_flags>
0

> <s_epik_input>
bjFbY0hdW2NIXVtjSF1uMVtDSDJdW0NAQEhdKFtDSDNdKVtOSF1DKD1PKVtDQEBIXTJbQ0gyXVtDSDJdTihbQ0gzXSlDKD1PKVtDSDJdMg==

> <s_epik_cmdline>
J2VwaWtfcHl0aG9uJywgJy1waCcsICc3LjAnLCAnLXRuJywgJzgnLCAnLW1hJywgJzIwMCcsICctbWV0YWxfYmluZGluZycsICctaW1hZScsICc8aW5maWxlLm1hZT4nLCAnLW9tYWUnLCAnPG91dGZpbGUubWFlPic=

> <r_lp_tautomer_probability>
1

> <r_epik_Ionization_Penalty>
0.000299422

> <r_epik_Ionization_Penalty_Charging>
0

> <r_epik_Ionization_Penalty_Neutral>
0.000299422

> <r_epik_State_Penalty>
-0

> <r_epik_Charging_Adjusted_Penalty>
0

> <i_epik_Tot_Q>
0

> <i_epik_Tot_abs_Q>
0

> <r_epik_Metal_State_Penalty>
-0

> <b_epik_Metal_Only>
0

> <s_lp_Force_Field>
OPLS_2005

> <r_lp_Energy>
13.2703

> <b_lp_Chiralities_Consistent>
1

> <s_lp_Variant>
AV-unprocessed.smi:1584-4

> <Gold.Version>
5.8.1

> <Gold.Id.Protein>
6NUR|6NUR_protein|mol2

> <Gold.PLP.Fitness>
45.9468

> <Gold.PLP.PLP>
-37.0238

> <Gold.PLP.part.hbond>
-3.0000

> <Gold.PLP.part.metal>
0.0000

> <Gold.PLP.part.buried>
0.1093

> <Gold.PLP.part.nonpolar>
-37.1455

> <Gold.PLP.part.repulsive>
4.3916

> <Gold.PLP.ligand.clash>
0.0000

> <Gold.PLP.ligand.torsion>
0.0575

> <Gold.PLP.Chemscore.Hbond>
2.0000

> <Gold.PLP.Chemscore.CHOScore>
1.0000

> <Gold.PLP.Chemscore.Metal>
0.0000

> <Gold.Chemscore.Hbonds>
donor molecule, donor type, donor heavy atom, donor atom, acceptor molecule, acceptor atom, score
      P1  H  7997  8009       L1    11  0.98
      P1  H  8022  8030       L1    18  0.96
      L1  C     7    28       P1  8028  1.00

> <Gold.PLP.Chemscore.Internal.Correction>
0.0379

> <Gold.Rescore>
     Score         DG    S(hbond)    S(metal)    S(lipo)     H(rot)  DE(clash)    DE(int)     intcor
     15.26     -18.18       1.98        0.00      88.75       1.67       2.01       0.90       ----

> <Gold.Chemscore.Fitness>
15.2585

> <Gold.Chemscore.DG>
-18.1776

> <Gold.Chemscore.ZeroCoef>
-5.4800

> <Gold.Chemscore.Hbond>
1.9754

> <Gold.Chemscore.Metal>
0.0000

> <Gold.Chemscore.Lipo>
88.7511

> <Gold.Chemscore.Internal_Hbond>
0.0000

> <Gold.Chemscore.DEClash>
2.0148

> <Gold.Chemscore.DEInternal>
0.9044

> <Gold.Chemscore.Rot>
1.6734

> <Gold.Chemscore.Internal.Correction>
   9.000000E+99

> <Gold.Chemscore.Hbonds>
donor molecule, donor type, donor heavy atom, donor atom, acceptor molecule, acceptor atom, score
      P1  H  7997  8009       L1    11  0.91
      P1  H  8022  8030       L1    18  0.88

> <Gold.Chemscore.Hbond.Weighted>
-6.5977

> <Gold.Chemscore.Metal.Weighted>
-0.0000

> <Gold.Chemscore.Lipo.Weighted>
-10.3839

> <Gold.Chemscore.Internal_Hbond.Weighted>
0.0000

> <Gold.Chemscore.DEClash.Weighted>
2.0148

> <Gold.Chemscore.DEInternal.Weighted>
0.9044

> <Gold.Chemscore.Rot.Weighted>
4.2840

> <Gold.Chemscore.Internal.Correction.Weighted>
   9.000000E+99

> <Gold.Protein.RotatedTorsions>
[ 6907 6896 6895 6894 ] final  135.09 input  -60.11 | X-H torsion
[ 7974 7965 7964 7962 ] final -172.38 input  175.53 | X-H torsion
[ 8008 7997 7996 7995 ] final -157.92 input   59.86 | X-H torsion
[ 10167 10162 10161 10158 ] final  -20.13 input  -65.29 | X-H torsion
[ 10718 10713 10712 10709 ] final -147.51 input   66.30 | X-H torsion
[ 10763 10752 10751 10750 ] final  135.43 input  -60.55 | X-H torsion
[ 11005 11000 10999 10996 ] final   52.82 input  -57.11 | X-H torsion

> <Gold.Protein.ActiveResidues>
 VAL166  LYS551  ARG553  GLY616  TRP617  ASP618  TYR619  PRO620  LYS621  CYS622 
 ASP623  PHE694  ASN695  SER759  ASP760  ASP761  ALA762  ILE779  LEU786  VAL792 
 PHE793  MET794  SER795  GLU796  ALA797  LYS798  CYS799  TRP800  GLU811  SER814 

> <Gold.Protein.RotatedAtoms>
  152.3042  133.5686  159.5638 H   0  0  0  0  0  0  0  0  0  0  0  0  # atno 6907 bound_to 6896
  150.7292  134.0247  159.3722 H   0  0  0  0  0  0  0  0  0  0  0  0  # atno 6908 bound_to 6896
  151.8144  135.0671  160.0468 H   0  0  0  0  0  0  0  0  0  0  0  0  # atno 6909 bound_to 6896
  144.7147  140.1780  143.6361 H   0  0  0  0  0  0  0  0  0  0  0  0  # atno 7974 bound_to 7965
  155.7397  140.0812  157.2251 H   0  0  0  0  0  0  0  0  0  0  0  0  # atno 8008 bound_to 7997
  154.4023  140.1580  156.2658 H   0  0  0  0  0  0  0  0  0  0  0  0  # atno 8009 bound_to 7997
  155.9031  140.3408  155.6044 H   0  0  0  0  0  0  0  0  0  0  0  0  # atno 8010 bound_to 7997
  140.7274  143.4752  151.0192 H   0  0  0  0  0  0  0  0  0  0  0  0  # atno 10167 bound_to 10162
  156.4084  130.7969  151.2185 H   0  0  0  0  0  0  0  0  0  0  0  0  # atno 10718 bound_to 10713
  153.8400  135.3092  155.3425 H   0  0  0  0  0  0  0  0  0  0  0  0  # atno 10763 bound_to 10752
  154.7937  135.4768  154.0114 H   0  0  0  0  0  0  0  0  0  0  0  0  # atno 10764 bound_to 10752
  153.1582  135.6856  153.8873 H   0  0  0  0  0  0  0  0  0  0  0  0  # atno 10765 bound_to 10752
  140.0817  134.5329  155.8940 H   0  0  0  0  0  0  0  0  0  0  0  0  # atno 11005 bound_to 11000
  145.8882  139.2361  143.1565 LP  0  0  0  0  0  0  0  0  0  0  0  0  # atno 17320 bound_to 7965
  145.9929  140.8587  143.0057 LP  0  0  0  0  0  0  0  0  0  0  0  0  # atno 17321 bound_to 7965
  139.8447  143.7518  152.3179 LP  0  0  0  0  0  0  0  0  0  0  0  0  # atno 17342 bound_to 10162
  139.7679  144.7486  151.0268 LP  0  0  0  0  0  0  0  0  0  0  0  0  # atno 17343 bound_to 10162
  157.7506  131.0265  150.3965 LP  0  0  0  0  0  0  0  0  0  0  0  0  # atno 17370 bound_to 10713
  156.4258  130.3962  149.6794 LP  0  0  0  0  0  0  0  0  0  0  0  0  # atno 17371 bound_to 10713
  141.2049  133.6642  156.6148 LP  0  0  0  0  0  0  0  0  0  0  0  0  # atno 17394 bound_to 11000
  140.3478  134.7794  157.4445 LP  0  0  0  0  0  0  0  0  0  0  0  0  # atno 17395 bound_to 11000

$$$$
