AV-unprocessed.smi:290|AV-procd|sdf|2233|dock8
  -GOLD-   2262022 93D 1   1.00000     0.00000
 Structure written by MMmdl.
 59 62  0  0  0  0  0  0  0  0  2 V2000
  153.6363  142.0203  160.3858 C   0  0  0  0  0  0  0  0  0  0  0  0
  153.0082  142.7911  159.2131 C   0  0  2  0  0  0  0  0  0  0  0  0
  152.8052  144.1430  159.6124 O   0  0  0  0  0  0  0  0  0  0  0  0
  151.7135  144.6711  158.8818 C   0  0  0  0  0  0  0  0  0  0  0  0
  150.7332  143.5076  158.8809 C   0  0  0  0  0  0  0  0  0  0  0  0
  151.6304  142.2816  158.6993 C   0  0  2  0  0  0  0  0  0  0  0  0
  151.1108  141.2390  159.5066 O   0  0  0  0  0  0  0  0  0  0  0  0
  151.6674  141.7185  157.2497 C   0  0  0  0  0  0  0  0  0  0  0  0
  150.4552  141.0396  156.8086 N   0  0  0  0  0  0  0  0  0  0  0  0
  149.4567  141.5582  156.0127 C   0  0  0  0  0  0  0  0  0  0  0  0
  148.4686  140.7458  155.7531 N   0  0  0  0  0  0  0  0  0  0  0  0
  148.8235  139.5684  156.3992 C   0  0  0  0  0  0  0  0  0  0  0  0
  148.2205  138.2856  156.5288 C   0  0  0  0  0  0  0  0  0  0  0  0
  147.0366  137.9333  155.9822 N   0  0  0  0  0  0  0  0  0  0  0  0
  146.4231  138.9458  155.1355 C   0  0  0  0  0  0  0  0  0  0  0  0
  146.1054  138.2599  153.8122 C   0  0  0  0  0  0  0  0  0  0  0  0
  145.9805  136.7721  154.1697 C   0  0  1  0  0  0  0  0  0  0  0  0
  146.2010  135.9154  152.9639 N   0  3  1  0  0  0  0  0  0  0  0  0
  146.2627  134.4576  153.2268 C   0  0  0  0  0  0  0  0  0  0  0  0
  145.2547  136.2274  151.8581 C   0  0  0  0  0  0  0  0  0  0  0  0
  145.3101  135.1734  150.7402 C   0  0  0  0  0  0  0  0  0  0  0  0
  144.8394  135.7274  149.5293 O   0  0  0  0  0  0  0  0  0  0  0  0
  147.0297  136.6396  155.3011 C   0  0  2  0  0  0  0  0  0  0  0  0
  146.7461  135.5275  156.3322 C   0  0  0  0  0  0  0  0  0  0  0  0
  148.8781  137.3403  157.2421 N   0  0  0  0  0  0  0  0  0  0  0  0
  150.0585  137.6271  157.7987 C   0  0  0  0  0  0  0  0  0  0  0  0
  150.7405  138.7741  157.7652 N   0  0  0  0  0  0  0  0  0  0  0  0
  150.0766  139.7298  157.0532 C   0  0  0  0  0  0  0  0  0  0  0  0
  144.9879  136.5796  154.5817 H   0  0  0  0  0  0  0  0  0  0  0  0
  148.0109  136.4707  154.8549 H   0  0  0  0  0  0  0  0  0  0  0  0
  153.8149  140.9777  160.1218 H   0  0  0  0  0  0  0  0  0  0  0  0
  152.9957  142.0426  161.2679 H   0  0  0  0  0  0  0  0  0  0  0  0
  154.5946  142.4578  160.6657 H   0  0  0  0  0  0  0  0  0  0  0  0
  153.7314  142.8069  158.4007 H   0  0  0  0  0  0  0  0  0  0  0  0
  151.3066  145.5643  159.3556 H   0  0  0  0  0  0  0  0  0  0  0  0
  152.0317  144.9315  157.8717 H   0  0  0  0  0  0  0  0  0  0  0  0
  150.2414  143.4802  159.8549 H   0  0  0  0  0  0  0  0  0  0  0  0
  149.9478  143.6021  158.1332 H   0  0  0  0  0  0  0  0  0  0  0  0
  151.6048  140.4517  159.3354 H   0  0  0  0  0  0  0  0  0  0  0  0
  151.8789  142.5243  156.5451 H   0  0  0  0  0  0  0  0  0  0  0  0
  152.4924  141.0112  157.1496 H   0  0  0  0  0  0  0  0  0  0  0  0
  149.4808  142.5668  155.6262 H   0  0  0  0  0  0  0  0  0  0  0  0
  145.5028  139.2740  155.6197 H   0  0  0  0  0  0  0  0  0  0  0  0
  147.0475  139.8287  154.9890 H   0  0  0  0  0  0  0  0  0  0  0  0
  145.2118  138.6762  153.3471 H   0  0  0  0  0  0  0  0  0  0  0  0
  146.9391  138.4098  153.1239 H   0  0  0  0  0  0  0  0  0  0  0  0
  145.3468  134.1071  153.7041 H   0  0  0  0  0  0  0  0  0  0  0  0
  147.1147  134.2054  153.8571 H   0  0  0  0  0  0  0  0  0  0  0  0
  146.3890  133.8941  152.3029 H   0  0  0  0  0  0  0  0  0  0  0  0
  144.2421  136.2989  152.2583 H   0  0  0  0  0  0  0  0  0  0  0  0
  145.4600  137.2031  151.4184 H   0  0  0  0  0  0  0  0  0  0  0  0
  146.3178  134.7844  150.5960 H   0  0  0  0  0  0  0  0  0  0  0  0
  144.6765  134.3240  150.9969 H   0  0  0  0  0  0  0  0  0  0  0  0
  145.3354  135.3597  148.8131 H   0  0  0  0  0  0  0  0  0  0  0  0
  146.7514  134.5303  155.8997 H   0  0  0  0  0  0  0  0  0  0  0  0
  145.7759  135.6728  156.8084 H   0  0  0  0  0  0  0  0  0  0  0  0
  147.4989  135.5277  157.1210 H   0  0  0  0  0  0  0  0  0  0  0  0
  150.5227  136.8231  158.3511 H   0  0  0  0  0  0  0  0  0  0  0  0
  147.1162  136.1725  152.6214 H   0  0  0  0  0  0  0  0  0  0  0  0
  1  2  1  0  0  0  0
  1 31  1  0  0  0  0
  1 32  1  0  0  0  0
  1 33  1  0  0  0  0
  2  6  1  0  0  0  0
  2  3  1  0  0  0  0
  2 34  1  0  0  0  0
  3  4  1  0  0  0  0
  4  5  1  0  0  0  0
  4 35  1  0  0  0  0
  4 36  1  0  0  0  0
  5  6  1  0  0  0  0
  5 37  1  0  0  0  0
  5 38  1  0  0  0  0
  6  7  1  0  0  0  0
  6  8  1  0  0  0  0
  7 39  1  0  0  0  0
  8  9  1  0  0  0  0
  8 40  1  0  0  0  0
  8 41  1  0  0  0  0
  9 28  1  0  0  0  0
  9 10  1  0  0  0  0
 10 11  2  0  0  0  0
 10 42  1  0  0  0  0
 11 12  1  0  0  0  0
 12 28  2  0  0  0  0
 12 13  1  0  0  0  0
 13 14  1  0  0  0  0
 13 25  2  0  0  0  0
 14 23  1  0  0  0  0
 14 15  1  0  0  0  0
 15 16  1  0  0  0  0
 15 43  1  0  0  0  0
 15 44  1  0  0  0  0
 16 17  1  0  0  0  0
 16 45  1  0  0  0  0
 16 46  1  0  0  0  0
 17 29  1  0  0  0  0
 17 18  1  0  0  0  0
 17 23  1  0  0  0  0
 18 19  1  0  0  0  0
 18 20  1  0  0  0  0
 18 59  1  0  0  0  0
 19 47  1  0  0  0  0
 19 48  1  0  0  0  0
 19 49  1  0  0  0  0
 20 21  1  0  0  0  0
 20 50  1  0  0  0  0
 20 51  1  0  0  0  0
 21 22  1  0  0  0  0
 21 52  1  0  0  0  0
 21 53  1  0  0  0  0
 22 54  1  0  0  0  0
 23 30  1  0  0  0  0
 23 24  1  0  0  0  0
 24 55  1  0  0  0  0
 24 56  1  0  0  0  0
 24 57  1  0  0  0  0
 25 26  1  0  0  0  0
 26 27  2  0  0  0  0
 26 58  1  0  0  0  0
 27 28  1  0  0  0  0
M  CHG  1  18   1
M  END
> <s_m_source_file>
AV-unprocessed.smi

> <i_m_source_file_index>
290

> <i_lp_mmshare_version>
43012

> <i_f3d_flags>
0

> <s_epik_input>
W0NIMl0xW0NIMl1PW0NAQEhdKFtDSDNdKVtDQEBdMShbT0hdKVtDSDJdbihbY0hdbjIpYyhjMjMpbltjSF1uYzNONFtDSDJdW0NIMl1bQ0BIXShbQ0BIXTRbQ0gzXSlOKFtDSDNdKVtDSDJdW0NIMl1bT0hd

> <s_epik_cmdline>
J2VwaWtfcHl0aG9uJywgJy1waCcsICc3LjAnLCAnLXRuJywgJzgnLCAnLW1hJywgJzIwMCcsICctbWV0YWxfYmluZGluZycsICctaW1hZScsICc8aW5maWxlLm1hZT4nLCAnLW9tYWUnLCAnPG91dGZpbGUubWFlPic=

> <r_lp_tautomer_probability>
1

> <r_epik_Ionization_Penalty>
0.0036983

> <r_epik_Ionization_Penalty_Charging>
0.0032725

> <r_epik_Ionization_Penalty_Neutral>
0.000425798

> <r_epik_State_Penalty>
-0

> <r_epik_Charging_Adjusted_Penalty>
0.0032725

> <i_epik_Tot_Q>
1

> <i_epik_Tot_abs_Q>
1

> <r_epik_Metal_State_Penalty>
-0

> <b_epik_Metal_Only>
0

> <s_lp_Force_Field>
OPLS_2005

> <r_lp_Energy>
66.0364

> <b_lp_Chiralities_Consistent>
1

> <s_lp_Variant>
AV-unprocessed.smi:290-19

> <Gold.Version>
5.8.1

> <Gold.Id.Protein>
6NUR|6NUR_protein|mol2

> <Gold.PLP.Fitness>
44.2355

> <Gold.PLP.PLP>
-33.6852

> <Gold.PLP.part.hbond>
-3.8961

> <Gold.PLP.part.metal>
0.0000

> <Gold.PLP.part.buried>
-5.0468

> <Gold.PLP.part.nonpolar>
-24.8672

> <Gold.PLP.part.repulsive>
0.0694

> <Gold.PLP.ligand.clash>
0.0000

> <Gold.PLP.ligand.torsion>
0.8753

> <Gold.PLP.Chemscore.Hbond>
3.0000

> <Gold.PLP.Chemscore.CHOScore>
1.0000

> <Gold.PLP.Chemscore.Metal>
0.0000

> <Gold.Chemscore.Hbonds>
donor molecule, donor type, donor heavy atom, donor atom, acceptor molecule, acceptor atom, score
      L1  H    18    59       P1  7948  2.00
      L1  H    22    54       P1  7921  0.96
      L1  C    10    42       P1  8028  1.00

> <Gold.PLP.Chemscore.Internal.Correction>
0.3009

> <Gold.Rescore>
     Score         DG    S(hbond)    S(metal)    S(lipo)     H(rot)  DE(clash)    DE(int)     intcor
      9.05     -12.76       1.98        0.00      85.78       3.67       0.15       3.55       ----

> <Gold.Chemscore.Fitness>
9.0520

> <Gold.Chemscore.DG>
-12.7569

> <Gold.Chemscore.ZeroCoef>
-5.4800

> <Gold.Chemscore.Hbond>
1.9835

> <Gold.Chemscore.Metal>
0.0000

> <Gold.Chemscore.Lipo>
85.7820

> <Gold.Chemscore.Internal_Hbond>
0.0000

> <Gold.Chemscore.DEClash>
0.1545

> <Gold.Chemscore.DEInternal>
3.5504

> <Gold.Chemscore.Rot>
3.6658

> <Gold.Chemscore.Internal.Correction>
   9.000000E+99

> <Gold.Chemscore.Hbonds>
donor molecule, donor type, donor heavy atom, donor atom, acceptor molecule, acceptor atom, score
      L1  H    18    59       P1  7948  0.98
      L1  H    22    54       P1  7921  0.91

> <Gold.Chemscore.Hbond.Weighted>
-6.6248

> <Gold.Chemscore.Metal.Weighted>
-0.0000

> <Gold.Chemscore.Lipo.Weighted>
-10.0365

> <Gold.Chemscore.Internal_Hbond.Weighted>
0.0000

> <Gold.Chemscore.DEClash.Weighted>
0.1545

> <Gold.Chemscore.DEInternal.Weighted>
3.5504

> <Gold.Chemscore.Rot.Weighted>
9.3844

> <Gold.Chemscore.Internal.Correction.Weighted>
   9.000000E+99

> <Gold.Protein.RotatedTorsions>
[ 6907 6896 6895 6894 ] final  -83.62 input  -60.11 | X-H torsion
[ 7974 7965 7964 7962 ] final  -37.60 input  175.53 | X-H torsion
[ 8008 7997 7996 7995 ] final   62.89 input   59.86 | X-H torsion
[ 10167 10162 10161 10158 ] final -149.78 input  -65.29 | X-H torsion
[ 10718 10713 10712 10709 ] final  -55.47 input   66.30 | X-H torsion
[ 10763 10752 10751 10750 ] final  -22.19 input  -60.55 | X-H torsion
[ 11005 11000 10999 10996 ] final  -70.99 input  -57.11 | X-H torsion

> <Gold.Protein.ActiveResidues>
 VAL166  LYS551  ARG553  GLY616  TRP617  ASP618  TYR619  PRO620  LYS621  CYS622 
 ASP623  PHE694  ASN695  SER759  ASP760  ASP761  ALA762  ILE779  LEU786  VAL792 
 PHE793  MET794  SER795  GLU796  ALA797  LYS798  CYS799  TRP800  GLU811  SER814 

> <Gold.Protein.RotatedAtoms>
  150.6884  134.3483  159.4897 H   0  0  0  0  0  0  0  0  0  0  0  0  # atno 6907 bound_to 6896
  152.1328  134.9119  160.0567 H   0  0  0  0  0  0  0  0  0  0  0  0  # atno 6908 bound_to 6896
  152.0283  133.3892  159.4323 H   0  0  0  0  0  0  0  0  0  0  0  0  # atno 6909 bound_to 6896
  146.0560  140.6415  142.9019 H   0  0  0  0  0  0  0  0  0  0  0  0  # atno 7974 bound_to 7965
  155.6215  140.3496  155.4653 H   0  0  0  0  0  0  0  0  0  0  0  0  # atno 8008 bound_to 7997
  156.0076  140.1226  157.0510 H   0  0  0  0  0  0  0  0  0  0  0  0  # atno 8009 bound_to 7997
  154.4269  140.1088  156.5770 H   0  0  0  0  0  0  0  0  0  0  0  0  # atno 8010 bound_to 7997
  139.7412  143.8659  152.2563 H   0  0  0  0  0  0  0  0  0  0  0  0  # atno 10167 bound_to 10162
  156.1366  130.4156  150.0175 H   0  0  0  0  0  0  0  0  0  0  0  0  # atno 10718 bound_to 10713
  153.6480  135.6982  153.5219 H   0  0  0  0  0  0  0  0  0  0  0  0  # atno 10763 bound_to 10752
  153.2729  135.4209  155.1005 H   0  0  0  0  0  0  0  0  0  0  0  0  # atno 10764 bound_to 10752
  154.8483  135.3583  154.6024 H   0  0  0  0  0  0  0  0  0  0  0  0  # atno 10765 bound_to 10752
  141.1584  133.6805  156.6837 H   0  0  0  0  0  0  0  0  0  0  0  0  # atno 11005 bound_to 11000
  144.7148  140.4171  143.7052 LP  0  0  0  0  0  0  0  0  0  0  0  0  # atno 17320 bound_to 7965
  145.6643  139.1587  143.2791 LP  0  0  0  0  0  0  0  0  0  0  0  0  # atno 17321 bound_to 7965
  139.8610  144.7117  150.9100 LP  0  0  0  0  0  0  0  0  0  0  0  0  # atno 17342 bound_to 10162
  140.7786  143.3818  151.1464 LP  0  0  0  0  0  0  0  0  0  0  0  0  # atno 17343 bound_to 10162
  156.8073  130.9312  151.3645 LP  0  0  0  0  0  0  0  0  0  0  0  0  # atno 17370 bound_to 10713
  157.6537  130.8906  149.9686 LP  0  0  0  0  0  0  0  0  0  0  0  0  # atno 17371 bound_to 10713
  140.3083  134.8107  157.4155 LP  0  0  0  0  0  0  0  0  0  0  0  0  # atno 17394 bound_to 11000
  140.1201  134.5231  155.8191 LP  0  0  0  0  0  0  0  0  0  0  0  0  # atno 17395 bound_to 11000

$$$$
