AV-unprocessed.smi:2444|AV-procd|sdf|9632|dock5
  -GOLD-   2272013263D 1   1.00000     0.00000
 Structure written by MMmdl.
 18 18  0  0  0  0  0  0  0  0  2 V2000
  143.3454  133.7322  148.1510 N   0  3  0  0  0  0  0  0  0  0  0  0
  143.7604  132.4901  148.8248 C   0  0  0  0  0  0  0  0  0  0  0  0
  145.0507  132.6935  149.6300 C   0  0  0  0  0  0  0  0  0  0  0  0
  144.9649  133.8589  150.5578 C   0  0  0  0  0  0  0  0  0  0  0  0
  143.8549  134.4518  151.0118 N   0  0  0  0  0  0  0  0  0  0  0  0
  144.2787  135.4391  151.8765 N   0  0  0  0  0  0  0  0  0  0  0  0
  145.6075  135.3452  151.8818 C   0  0  0  0  0  0  0  0  0  0  0  0
  146.5438  136.0900  152.5777 N   0  0  0  0  0  0  0  0  0  0  0  0
  146.1088  134.3684  151.0871 O   0  0  0  0  0  0  0  0  0  0  0  0
  142.7050  134.2405  148.7444 H   0  0  0  0  0  0  0  0  0  0  0  0
  142.8882  133.5076  147.2787 H   0  0  0  0  0  0  0  0  0  0  0  0
  142.9527  132.1626  149.4804 H   0  0  0  0  0  0  0  0  0  0  0  0
  143.9004  131.7129  148.0727 H   0  0  0  0  0  0  0  0  0  0  0  0
  145.2754  131.8005  150.2147 H   0  0  0  0  0  0  0  0  0  0  0  0
  145.8953  132.8485  148.9571 H   0  0  0  0  0  0  0  0  0  0  0  0
  146.2651  136.8371  153.1974 H   0  0  0  0  0  0  0  0  0  0  0  0
  147.5349  135.9382  152.4585 H   0  0  0  0  0  0  0  0  0  0  0  0
  144.1576  134.3041  147.9677 H   0  0  0  0  0  0  0  0  0  0  0  0
  1  2  1  0  0  0  0
  1 10  1  0  0  0  0
  1 11  1  0  0  0  0
  1 18  1  0  0  0  0
  2  3  1  0  0  0  0
  2 12  1  0  0  0  0
  2 13  1  0  0  0  0
  3  4  1  0  0  0  0
  3 14  1  0  0  0  0
  3 15  1  0  0  0  0
  4  9  1  0  0  0  0
  4  5  2  0  0  0  0
  5  6  1  0  0  0  0
  6  7  2  0  0  0  0
  7  8  1  0  0  0  0
  7  9  1  0  0  0  0
  8 16  1  0  0  0  0
  8 17  1  0  0  0  0
M  CHG  1   1   1
M  END
> <s_m_source_file>
AV-unprocessed.smi

> <i_m_source_file_index>
2444

> <i_lp_mmshare_version>
43012

> <i_f3d_flags>
0

> <s_epik_input>
W05IMl1bQ0gyXVtDSDJdYzFubmMobzEpW05IMl0=

> <s_epik_cmdline>
J2VwaWtfcHl0aG9uJywgJy1waCcsICc3LjAnLCAnLXRuJywgJzgnLCAnLW1hJywgJzIwMCcsICctbWV0YWxfYmluZGluZycsICctaW1hZScsICc8aW5maWxlLm1hZT4nLCAnLW9tYWUnLCAnPG91dGZpbGUubWFlPic=

> <r_lp_tautomer_probability>
0.999976

> <r_epik_Ionization_Penalty>
0.00128557

> <r_epik_Ionization_Penalty_Charging>
0.00128552

> <r_epik_Ionization_Penalty_Neutral>
5.30568e-08

> <r_epik_State_Penalty>
0.000852301

> <r_epik_Charging_Adjusted_Penalty>
0.00213782

> <i_epik_Tot_Q>
1

> <i_epik_Tot_abs_Q>
1

> <r_epik_Metal_State_Penalty>
-0

> <b_epik_Metal_Only>
0

> <s_lp_Force_Field>
OPLS_2005

> <r_lp_Energy>
0.265405

> <b_lp_Chiralities_Consistent>
1

> <s_lp_Variant>
AV-unprocessed.smi:2444-1

> <Gold.Version>
5.8.1

> <Gold.Id.Protein>
6NUR|6NUR_protein|mol2

> <Gold.PLP.Fitness>
29.9590

> <Gold.PLP.PLP>
-15.4737

> <Gold.PLP.part.hbond>
-3.9257

> <Gold.PLP.part.metal>
0.0000

> <Gold.PLP.part.buried>
-2.2190

> <Gold.PLP.part.nonpolar>
-10.2206

> <Gold.PLP.part.repulsive>
0.8442

> <Gold.PLP.ligand.clash>
0.0000

> <Gold.PLP.ligand.torsion>
0.2614

> <Gold.PLP.Chemscore.Hbond>
5.0000

> <Gold.PLP.Chemscore.CHOScore>
0.0000

> <Gold.PLP.Chemscore.Metal>
0.0000

> <Gold.Chemscore.Hbonds>
donor molecule, donor type, donor heavy atom, donor atom, acceptor molecule, acceptor atom, score
      L1  H     1    10       P1 10186  2.00
      L1  H     1    11       P1 10195  0.89
      L1  H     1    18       P1  7921  0.96
      L1  H     8    17       P1  7948  1.00

> <Gold.PLP.Chemscore.Internal.Correction>
0.0080

> <Gold.Rescore>
     Score         DG    S(hbond)    S(metal)    S(lipo)     H(rot)  DE(clash)    DE(int)     intcor
     15.13     -17.07       3.88        0.00      24.89       1.67       0.47       1.47       ----

> <Gold.Chemscore.Fitness>
15.1293

> <Gold.Chemscore.DG>
-17.0722

> <Gold.Chemscore.ZeroCoef>
-5.4800

> <Gold.Chemscore.Hbond>
3.8824

> <Gold.Chemscore.Metal>
0.0000

> <Gold.Chemscore.Lipo>
24.8912

> <Gold.Chemscore.Internal_Hbond>
0.0000

> <Gold.Chemscore.DEClash>
0.4738

> <Gold.Chemscore.DEInternal>
1.4691

> <Gold.Chemscore.Rot>
1.6747

> <Gold.Chemscore.Internal.Correction>
   9.000000E+99

> <Gold.Chemscore.Hbonds>
donor molecule, donor type, donor heavy atom, donor atom, acceptor molecule, acceptor atom, score
      L1  H     1    10       P1 10186  0.94
      L1  H     1    11       P1 10195  0.85
      L1  H     1    18       P1  7921  0.91
      L1  H     8    17       P1  7948  0.93

> <Gold.Chemscore.Hbond.Weighted>
-12.9671

> <Gold.Chemscore.Metal.Weighted>
-0.0000

> <Gold.Chemscore.Lipo.Weighted>
-2.9123

> <Gold.Chemscore.Internal_Hbond.Weighted>
0.0000

> <Gold.Chemscore.DEClash.Weighted>
0.4738

> <Gold.Chemscore.DEInternal.Weighted>
1.4691

> <Gold.Chemscore.Rot.Weighted>
4.2872

> <Gold.Chemscore.Internal.Correction.Weighted>
   9.000000E+99

> <Gold.Protein.RotatedTorsions>
[ 6907 6896 6895 6894 ] final  -13.46 input  -60.11 | X-H torsion
[ 7974 7965 7964 7962 ] final  159.16 input  175.53 | X-H torsion
[ 8008 7997 7996 7995 ] final -169.99 input   59.86 | X-H torsion
[ 10167 10162 10161 10158 ] final -117.61 input  -65.29 | X-H torsion
[ 10718 10713 10712 10709 ] final  112.53 input   66.30 | X-H torsion
[ 10763 10752 10751 10750 ] final -146.14 input  -60.55 | X-H torsion
[ 11005 11000 10999 10996 ] final -132.34 input  -57.11 | X-H torsion

> <Gold.Protein.ActiveResidues>
 VAL166  LYS551  ARG553  GLY616  TRP617  ASP618  TYR619  PRO620  LYS621  CYS622 
 ASP623  PHE694  ASN695  SER759  ASP760  ASP761  ALA762  ILE779  LEU786  VAL792 
 PHE793  MET794  SER795  GLU796  ALA797  LYS798  CYS799  TRP800  GLU811  SER814 

> <Gold.Protein.RotatedAtoms>
  151.3546  135.0891  159.9414 H   0  0  0  0  0  0  0  0  0  0  0  0  # atno 6907 bound_to 6896
  152.5178  133.9318  159.7594 H   0  0  0  0  0  0  0  0  0  0  0  0  # atno 6908 bound_to 6896
  150.9700  133.6300  159.2769 H   0  0  0  0  0  0  0  0  0  0  0  0  # atno 6909 bound_to 6896
  144.7805  139.7579  143.6261 H   0  0  0  0  0  0  0  0  0  0  0  0  # atno 7974 bound_to 7965
  155.9124  140.1059  157.1269 H   0  0  0  0  0  0  0  0  0  0  0  0  # atno 8008 bound_to 7997
  154.4041  140.1272  156.4639 H   0  0  0  0  0  0  0  0  0  0  0  0  # atno 8009 bound_to 7997
  155.7294  140.3468  155.5055 H   0  0  0  0  0  0  0  0  0  0  0  0  # atno 8010 bound_to 7997
  140.0665  143.4918  152.2003 H   0  0  0  0  0  0  0  0  0  0  0  0  # atno 10167 bound_to 10162
  157.6388  131.0969  150.6908 H   0  0  0  0  0  0  0  0  0  0  0  0  # atno 10718 bound_to 10713
  154.8350  135.3394  154.6615 H   0  0  0  0  0  0  0  0  0  0  0  0  # atno 10763 bound_to 10752
  153.7230  135.6957  153.5012 H   0  0  0  0  0  0  0  0  0  0  0  0  # atno 10764 bound_to 10752
  153.2367  135.4398  155.0607 H   0  0  0  0  0  0  0  0  0  0  0  0  # atno 10765 bound_to 10752
  140.9178  134.1483  157.4338 H   0  0  0  0  0  0  0  0  0  0  0  0  # atno 11005 bound_to 11000
  146.2010  139.5305  142.9743 LP  0  0  0  0  0  0  0  0  0  0  0  0  # atno 17320 bound_to 7965
  145.6063  141.0347  143.1991 LP  0  0  0  0  0  0  0  0  0  0  0  0  # atno 17321 bound_to 7965
  139.5862  144.7532  151.3515 LP  0  0  0  0  0  0  0  0  0  0  0  0  # atno 17342 bound_to 10162
  140.7146  143.7299  150.7631 LP  0  0  0  0  0  0  0  0  0  0  0  0  # atno 17343 bound_to 10162
  156.7235  130.4688  149.5517 LP  0  0  0  0  0  0  0  0  0  0  0  0  # atno 17370 bound_to 10713
  156.1649  130.6399  151.0766 LP  0  0  0  0  0  0  0  0  0  0  0  0  # atno 17371 bound_to 10713
  139.8769  134.9960  156.5773 LP  0  0  0  0  0  0  0  0  0  0  0  0  # atno 17394 bound_to 11000
  140.8027  133.8493  155.8740 LP  0  0  0  0  0  0  0  0  0  0  0  0  # atno 17395 bound_to 11000

$$$$
