AV-unprocessed.smi:98|AV-procd|sdf|863|dock2
  -GOLD-   2262017313D 1   1.00000     0.00000
 Structure written by MMmdl.
 56 59  0  0  0  0  0  0  0  0  1 V2000
  149.0301  133.4491  158.2333 O   0  0  0  0  0  0  0  0  0  0  0  0
  148.2544  133.6615  157.3006 C   0  0  0  0  0  0  0  0  0  0  0  0
  147.1867  132.6222  156.9224 C   0  0  0  0  0  0  0  0  0  0  0  0
  147.2868  132.1511  155.5233 N   0  0  0  0  0  0  0  0  0  0  0  0
  148.0056  130.9579  155.2624 C   0  0  0  0  0  0  0  0  0  0  0  0
  148.5564  130.3331  156.1700 O   0  0  0  0  0  0  0  0  0  0  0  0
  148.0310  130.5299  153.8687 C   0  0  0  0  0  0  0  0  0  0  0  0
  148.6748  129.3999  153.5304 F   0  0  0  0  0  0  0  0  0  0  0  0
  147.4123  131.2497  152.9103 C   0  0  0  0  0  0  0  0  0  0  0  0
  146.7353  132.4240  153.1736 N   0  0  0  0  0  0  0  0  0  0  0  0
  146.0344  133.1407  152.0427 C   0  0  2  0  0  0  0  0  0  0  0  0
  144.5197  133.3102  152.2652 C   0  0  0  0  0  0  0  0  0  0  0  0
  143.9184  132.6117  151.0565 C   0  0  0  0  0  0  0  0  0  0  0  0
  145.0689  132.6127  150.0560 C   0  0  0  0  0  0  0  0  0  0  0  0
  146.2119  132.4058  150.8711 O   0  0  0  0  0  0  0  0  0  0  0  0
  146.6306  132.8856  154.5062 C   0  0  0  0  0  0  0  0  0  0  0  0
  145.9800  133.8956  154.7786 O   0  0  0  0  0  0  0  0  0  0  0  0
  148.2652  134.7693  156.5366 N   0  0  0  0  0  0  0  0  0  0  0  0
  149.1258  135.8979  156.6145 C   0  0  0  0  0  0  0  0  0  0  0  0
  149.1910  136.7356  155.4806 C   0  0  0  0  0  0  0  0  0  0  0  0
  150.0084  137.8820  155.4828 C   0  0  0  0  0  0  0  0  0  0  0  0
  150.7537  138.2033  156.6338 C   0  0  0  0  0  0  0  0  0  0  0  0
  151.7969  139.6582  156.6414 S   0  0  0  0  0  0  0  0  0  0  0  0
  153.1401  139.2616  157.0929 O   0  0  0  0  0  0  0  0  0  0  0  0
  151.6315  140.3532  155.3551 O   0  0  0  0  0  0  0  0  0  0  0  0
  151.0939  140.6577  157.8801 N   0  0  0  0  0  0  0  0  0  0  0  0
  150.4259  141.9173  157.5085 C   0  0  0  0  0  0  0  0  0  0  0  0
  151.3297  143.1294  157.7965 C   0  0  0  0  0  0  0  0  0  0  0  0
  151.7621  143.1044  159.1492 O   0  0  0  0  0  0  0  0  0  0  0  0
  152.5386  141.9496  159.4340 C   0  0  0  0  0  0  0  0  0  0  0  0
  151.6930  140.6806  159.2259 C   0  0  0  0  0  0  0  0  0  0  0  0
  150.6936  137.3806  157.7751 C   0  0  0  0  0  0  0  0  0  0  0  0
  149.8743  136.2354  157.7695 C   0  0  0  0  0  0  0  0  0  0  0  0
  147.2544  131.7911  157.6260 H   0  0  0  0  0  0  0  0  0  0  0  0
  146.1999  133.0478  157.1130 H   0  0  0  0  0  0  0  0  0  0  0  0
  147.4561  130.8855  151.8942 H   0  0  0  0  0  0  0  0  0  0  0  0
  146.5359  134.1042  151.9404 H   0  0  0  0  0  0  0  0  0  0  0  0
  144.1844  132.8873  153.2127 H   0  0  0  0  0  0  0  0  0  0  0  0
  144.2854  134.3752  152.2604 H   0  0  0  0  0  0  0  0  0  0  0  0
  143.6487  131.5863  151.3106 H   0  0  0  0  0  0  0  0  0  0  0  0
  143.0261  133.1097  150.6769 H   0  0  0  0  0  0  0  0  0  0  0  0
  144.9688  131.8368  149.2968 H   0  0  0  0  0  0  0  0  0  0  0  0
  145.1478  133.5789  149.5551 H   0  0  0  0  0  0  0  0  0  0  0  0
  147.6236  134.7690  155.7570 H   0  0  0  0  0  0  0  0  0  0  0  0
  148.6153  136.4979  154.5976 H   0  0  0  0  0  0  0  0  0  0  0  0
  150.0522  138.5122  154.6069 H   0  0  0  0  0  0  0  0  0  0  0  0
  150.1278  141.9003  156.4606 H   0  0  0  0  0  0  0  0  0  0  0  0
  149.5086  142.0040  158.0915 H   0  0  0  0  0  0  0  0  0  0  0  0
  152.1925  143.1496  157.1310 H   0  0  0  0  0  0  0  0  0  0  0  0
  150.7786  144.0534  157.6211 H   0  0  0  0  0  0  0  0  0  0  0  0
  153.4321  141.9385  158.8099 H   0  0  0  0  0  0  0  0  0  0  0  0
  152.8798  142.0032  160.4679 H   0  0  0  0  0  0  0  0  0  0  0  0
  150.8870  140.6590  159.9601 H   0  0  0  0  0  0  0  0  0  0  0  0
  152.2922  139.7865  159.3958 H   0  0  0  0  0  0  0  0  0  0  0  0
  151.2606  137.6299  158.6600 H   0  0  0  0  0  0  0  0  0  0  0  0
  149.8270  135.6396  158.6677 H   0  0  0  0  0  0  0  0  0  0  0  0
  1  2  2  0  0  0  0
  2  3  1  0  0  0  0
  2 18  1  0  0  0  0
  3  4  1  0  0  0  0
  3 34  1  0  0  0  0
  3 35  1  0  0  0  0
  4 16  1  0  0  0  0
  4  5  1  0  0  0  0
  5  6  2  0  0  0  0
  5  7  1  0  0  0  0
  7  8  1  0  0  0  0
  7  9  2  0  0  0  0
  9 10  1  0  0  0  0
  9 36  1  0  0  0  0
 10 11  1  0  0  0  0
 10 16  1  0  0  0  0
 11 15  1  0  0  0  0
 11 12  1  0  0  0  0
 11 37  1  0  0  0  0
 12 13  1  0  0  0  0
 12 38  1  0  0  0  0
 12 39  1  0  0  0  0
 13 14  1  0  0  0  0
 13 40  1  0  0  0  0
 13 41  1  0  0  0  0
 14 15  1  0  0  0  0
 14 42  1  0  0  0  0
 14 43  1  0  0  0  0
 16 17  2  0  0  0  0
 18 19  1  0  0  0  0
 18 44  1  0  0  0  0
 19 33  1  0  0  0  0
 19 20  2  0  0  0  0
 20 21  1  0  0  0  0
 20 45  1  0  0  0  0
 21 22  2  0  0  0  0
 21 46  1  0  0  0  0
 22 23  1  0  0  0  0
 22 32  1  0  0  0  0
 23 24  2  0  0  0  0
 23 25  2  0  0  0  0
 23 26  1  0  0  0  0
 26 31  1  0  0  0  0
 26 27  1  0  0  0  0
 27 28  1  0  0  0  0
 27 47  1  0  0  0  0
 27 48  1  0  0  0  0
 28 29  1  0  0  0  0
 28 49  1  0  0  0  0
 28 50  1  0  0  0  0
 29 30  1  0  0  0  0
 30 31  1  0  0  0  0
 30 51  1  0  0  0  0
 30 52  1  0  0  0  0
 31 53  1  0  0  0  0
 31 54  1  0  0  0  0
 32 33  2  0  0  0  0
 32 55  1  0  0  0  0
 33 56  1  0  0  0  0
M  END
> <s_m_source_file>
AV-unprocessed.smi

> <i_m_source_file_index>
98

> <i_lp_mmshare_version>
43012

> <i_f3d_flags>
0

> <s_epik_input>
TzFbQ0gyXVtDSDJdW0NIMl1bQ0BIXTFuKGMyPU8pW2NIXWMoRiljKD1PKW4yW0NIMl1DKD1PKVtOSF1jM1tjSF1bY0hdYyhbY0hdW2NIXTMpUyg9TykoPU8pTjRbQ0gyXVtDSDJdT1tDSDJdW0NIMl00

> <s_epik_cmdline>
J2VwaWtfcHl0aG9uJywgJy1waCcsICc3LjAnLCAnLXRuJywgJzgnLCAnLW1hJywgJzIwMCcsICctbWV0YWxfYmluZGluZycsICctaW1hZScsICc8aW5maWxlLm1hZT4nLCAnLW9tYWUnLCAnPG91dGZpbGUubWFlPic=

> <r_lp_tautomer_probability>
1

> <r_epik_Ionization_Penalty>
1.9271e-06

> <r_epik_Ionization_Penalty_Charging>
3.88729e-08

> <r_epik_Ionization_Penalty_Neutral>
1.88823e-06

> <r_epik_State_Penalty>
-0

> <r_epik_Charging_Adjusted_Penalty>
3.88729e-08

> <i_epik_Tot_Q>
0

> <i_epik_Tot_abs_Q>
0

> <r_epik_Metal_State_Penalty>
-0

> <b_epik_Metal_Only>
0

> <s_epik_Chemistry_Notes>
This compound contains an acetal/aminal-like group ( X-CH(R)-Y where X, Y are N, S, or O) that may be acid/base labile, releasing an aldehyde.

> <s_lp_Force_Field>
OPLS_2005

> <r_lp_Energy>
27.1293

> <b_lp_Chiralities_Consistent>
1

> <s_lp_Variant>
AV-unprocessed.smi:98-1

> <Gold.Version>
5.8.1

> <Gold.Id.Protein>
6NUR|6NUR_protein|mol2

> <Gold.PLP.Fitness>
47.2789

> <Gold.PLP.PLP>
-36.7320

> <Gold.PLP.part.hbond>
-2.7985

> <Gold.PLP.part.metal>
0.0000

> <Gold.PLP.part.buried>
-6.3360

> <Gold.PLP.part.nonpolar>
-28.1648

> <Gold.PLP.part.repulsive>
0.2728

> <Gold.PLP.ligand.clash>
0.0000

> <Gold.PLP.ligand.torsion>
2.5484

> <Gold.PLP.Chemscore.Hbond>
2.8160

> <Gold.PLP.Chemscore.CHOScore>
1.0000

> <Gold.PLP.Chemscore.Metal>
0.0000

> <Gold.Chemscore.Hbonds>
donor molecule, donor type, donor heavy atom, donor atom, acceptor molecule, acceptor atom, score
      P1  H  6896  6908       L1     1  0.96
      P1  H  7989  7998       L1    25  0.86
      P1  H  7997  8008       L1    24  1.00
      L1  C     9    36       P1 10747  1.00

> <Gold.PLP.Chemscore.Internal.Correction>
4.1957

> <Gold.Rescore>
     Score         DG    S(hbond)    S(metal)    S(lipo)     H(rot)  DE(clash)    DE(int)     intcor
     15.93     -20.54       2.81        0.00      84.99       1.67       0.05       4.56       ----

> <Gold.Chemscore.Fitness>
15.9250

> <Gold.Chemscore.DG>
-20.5376

> <Gold.Chemscore.ZeroCoef>
-5.4800

> <Gold.Chemscore.Hbond>
2.8146

> <Gold.Chemscore.Metal>
0.0000

> <Gold.Chemscore.Lipo>
84.9862

> <Gold.Chemscore.Internal_Hbond>
0.0000

> <Gold.Chemscore.DEClash>
0.0484

> <Gold.Chemscore.DEInternal>
4.5642

> <Gold.Chemscore.Rot>
1.6744

> <Gold.Chemscore.Internal.Correction>
   9.000000E+99

> <Gold.Chemscore.Hbonds>
donor molecule, donor type, donor heavy atom, donor atom, acceptor molecule, acceptor atom, score
      P1  H  6896  6908       L1     1  0.91
      P1  H  7989  7998       L1    25  0.85
      P1  H  7997  8008       L1    24  0.83

> <Gold.Chemscore.Hbond.Weighted>
-9.4007

> <Gold.Chemscore.Metal.Weighted>
-0.0000

> <Gold.Chemscore.Lipo.Weighted>
-9.9434

> <Gold.Chemscore.Internal_Hbond.Weighted>
0.0000

> <Gold.Chemscore.DEClash.Weighted>
0.0484

> <Gold.Chemscore.DEInternal.Weighted>
4.5642

> <Gold.Chemscore.Rot.Weighted>
4.2865

> <Gold.Chemscore.Internal.Correction.Weighted>
   9.000000E+99

> <Gold.Protein.RotatedTorsions>
[ 6907 6896 6895 6894 ] final  131.20 input  -60.11 | X-H torsion
[ 7974 7965 7964 7962 ] final  -74.51 input  175.53 | X-H torsion
[ 8008 7997 7996 7995 ] final  -45.10 input   59.86 | X-H torsion
[ 10167 10162 10161 10158 ] final -135.11 input  -65.29 | X-H torsion
[ 10718 10713 10712 10709 ] final  -71.99 input   66.30 | X-H torsion
[ 10763 10752 10751 10750 ] final   22.97 input  -60.55 | X-H torsion
[ 11005 11000 10999 10996 ] final  126.54 input  -57.11 | X-H torsion

> <Gold.Protein.ActiveResidues>
 VAL166  LYS551  ARG553  GLY616  TRP617  ASP618  TYR619  PRO620  LYS621  CYS622 
 ASP623  PHE694  ASN695  SER759  ASP760  ASP761  ALA762  ILE779  LEU786  VAL792 
 PHE793  MET794  SER795  GLU796  ALA797  LYS798  CYS799  TRP800  GLU811  SER814 

> <Gold.Protein.RotatedAtoms>
  152.3450  133.6112  159.5903 H   0  0  0  0  0  0  0  0  0  0  0  0  # atno 6907 bound_to 6896
  150.7502  133.9663  159.3540 H   0  0  0  0  0  0  0  0  0  0  0  0  # atno 6908 bound_to 6896
  151.7522  135.0831  160.0383 H   0  0  0  0  0  0  0  0  0  0  0  0  # atno 6909 bound_to 6896
  145.6382  140.9318  143.1050 H   0  0  0  0  0  0  0  0  0  0  0  0  # atno 7974 bound_to 7965
  154.3999  140.1405  156.3792 H   0  0  0  0  0  0  0  0  0  0  0  0  # atno 8008 bound_to 7997
  155.8019  140.3475  155.5387 H   0  0  0  0  0  0  0  0  0  0  0  0  # atno 8009 bound_to 7997
  155.8474  140.0936  157.1687 H   0  0  0  0  0  0  0  0  0  0  0  0  # atno 8010 bound_to 7997
  139.8812  143.6837  152.2627 H   0  0  0  0  0  0  0  0  0  0  0  0  # atno 10167 bound_to 10162
  156.0339  130.4363  150.2526 H   0  0  0  0  0  0  0  0  0  0  0  0  # atno 10718 bound_to 10713
  153.0874  135.6637  153.9921 H   0  0  0  0  0  0  0  0  0  0  0  0  # atno 10763 bound_to 10752
  153.9527  135.2982  155.3439 H   0  0  0  0  0  0  0  0  0  0  0  0  # atno 10764 bound_to 10752
  154.7284  135.5133  153.8997 H   0  0  0  0  0  0  0  0  0  0  0  0  # atno 10765 bound_to 10752
  139.9461  134.9629  156.8722 H   0  0  0  0  0  0  0  0  0  0  0  0  # atno 11005 bound_to 11000
  144.7167  139.8171  143.7396 LP  0  0  0  0  0  0  0  0  0  0  0  0  # atno 17320 bound_to 7965
  146.1302  139.4336  143.0173 LP  0  0  0  0  0  0  0  0  0  0  0  0  # atno 17321 bound_to 7965
  139.7194  144.7605  151.0980 LP  0  0  0  0  0  0  0  0  0  0  0  0  # atno 17342 bound_to 10162
  140.7744  143.5227  150.9517 LP  0  0  0  0  0  0  0  0  0  0  0  0  # atno 17343 bound_to 10162
  157.0627  131.0094  151.3217 LP  0  0  0  0  0  0  0  0  0  0  0  0  # atno 17370 bound_to 10713
  157.5058  130.7908  149.7653 LP  0  0  0  0  0  0  0  0  0  0  0  0  # atno 17371 bound_to 10713
  140.5830  134.0334  155.7471 LP  0  0  0  0  0  0  0  0  0  0  0  0  # atno 17394 bound_to 11000
  141.1112  133.9613  157.2906 LP  0  0  0  0  0  0  0  0  0  0  0  0  # atno 17395 bound_to 11000

$$$$
