AV-unprocessed.smi:109|AV-procd|sdf|1039|dock9
  -GOLD-   2262018 63D 1   1.00000     0.00000
 Structure written by MMmdl.
 58 61  0  0  0  0  0  0  0  0  1 V2000
  149.9798  140.8171  154.5965 O   0  0  0  0  0  0  0  0  0  0  0  0
  150.0129  141.3243  155.9131 C   0  0  0  0  0  0  0  0  0  0  0  0
  151.3536  142.0355  156.1659 C   0  0  0  0  0  0  0  0  0  0  0  0
  151.9413  141.7966  157.5785 C   0  0  2  0  0  0  0  0  0  0  0  0
  151.6402  140.4288  158.0064 N   0  0  0  0  0  0  0  0  0  0  0  0
  151.8891  139.3547  157.2240 C   0  0  0  0  0  0  0  0  0  0  0  0
  152.7571  139.4186  156.1811 N   0  0  0  0  0  0  0  0  0  0  0  0
  152.9703  138.3408  155.4203 C   0  0  0  0  0  0  0  0  0  0  0  0
  152.4328  137.1239  155.5292 N   0  0  0  0  0  0  0  0  0  0  0  0
  151.5667  137.0513  156.5813 C   0  0  0  0  0  0  0  0  0  0  0  0
  151.2379  138.1174  157.4633 C   0  0  0  0  0  0  0  0  0  0  0  0
  150.3045  137.6851  158.3955 N   0  0  0  0  0  0  0  0  0  0  0  0
  150.0920  136.4376  158.0733 C   0  0  0  0  0  0  0  0  0  0  0  0
  150.8366  135.9629  157.0128 N   0  0  0  0  0  0  0  0  0  0  0  0
  150.8119  134.6045  156.3780 C   0  0  2  0  0  0  0  0  0  0  0  0
  150.4304  134.7509  155.0395 O   0  0  0  0  0  0  0  0  0  0  0  0
  149.0844  134.3255  154.8342 C   0  0  2  0  0  0  0  0  0  0  0  0
  148.1074  135.5060  155.0392 C   0  0  0  0  0  0  0  0  0  0  0  0
  148.3435  136.4945  154.0600 O   0  0  0  0  0  0  0  0  0  0  0  0
  148.9621  133.1870  155.8554 C   0  0  2  0  0  0  0  0  0  0  0  0
  147.6229  132.9009  156.2093 O   0  0  0  0  0  0  0  0  0  0  0  0
  149.7709  133.6845  157.0465 C   0  0  1  0  0  0  0  0  0  0  0  0
  150.3807  132.5863  157.6958 O   0  0  0  0  0  0  0  0  0  0  0  0
  151.4183  142.7964  158.6499 C   0  0  0  0  0  0  0  0  0  0  0  0
  151.2737  144.2444  158.1180 C   0  0  0  0  0  0  0  0  0  0  0  0
  150.7933  145.2230  159.2026 C   0  0  0  0  0  0  0  0  0  0  0  0
  151.7189  145.2056  160.4250 C   0  0  0  0  0  0  0  0  0  0  0  0
  151.8510  143.7829  160.9808 C   0  0  0  0  0  0  0  0  0  0  0  0
  152.3381  142.8075  159.8984 C   0  0  0  0  0  0  0  0  0  0  0  0
  151.8423  134.2536  156.4509 H   0  0  0  0  0  0  0  0  0  0  0  0
  148.9670  133.9305  153.8242 H   0  0  0  0  0  0  0  0  0  0  0  0
  149.4210  132.2908  155.4336 H   0  0  0  0  0  0  0  0  0  0  0  0
  149.1460  134.2543  157.7365 H   0  0  0  0  0  0  0  0  0  0  0  0
  149.1198  140.4612  154.4334 H   0  0  0  0  0  0  0  0  0  0  0  0
  149.1720  142.0058  156.0417 H   0  0  0  0  0  0  0  0  0  0  0  0
  149.8774  140.4998  156.6136 H   0  0  0  0  0  0  0  0  0  0  0  0
  152.0480  141.6715  155.4106 H   0  0  0  0  0  0  0  0  0  0  0  0
  151.2412  143.1064  155.9906 H   0  0  0  0  0  0  0  0  0  0  0  0
  153.0182  141.9508  157.5152 H   0  0  0  0  0  0  0  0  0  0  0  0
  151.2808  140.3400  158.9460 H   0  0  0  0  0  0  0  0  0  0  0  0
  153.6716  138.4717  154.6096 H   0  0  0  0  0  0  0  0  0  0  0  0
  149.3834  135.8272  158.6135 H   0  0  0  0  0  0  0  0  0  0  0  0
  147.0765  135.1803  154.9015 H   0  0  0  0  0  0  0  0  0  0  0  0
  148.1672  135.9336  156.0386 H   0  0  0  0  0  0  0  0  0  0  0  0
  148.8319  136.1046  153.3513 H   0  0  0  0  0  0  0  0  0  0  0  0
  147.4240  132.0158  155.9440 H   0  0  0  0  0  0  0  0  0  0  0  0
  149.8813  131.8076  157.5040 H   0  0  0  0  0  0  0  0  0  0  0  0
  150.4287  142.4623  158.9660 H   0  0  0  0  0  0  0  0  0  0  0  0
  152.2282  144.5860  157.7155 H   0  0  0  0  0  0  0  0  0  0  0  0
  150.5563  144.2883  157.3004 H   0  0  0  0  0  0  0  0  0  0  0  0
  150.7393  146.2322  158.7934 H   0  0  0  0  0  0  0  0  0  0  0  0
  149.7799  144.9597  159.5081 H   0  0  0  0  0  0  0  0  0  0  0  0
  152.7029  145.5855  160.1474 H   0  0  0  0  0  0  0  0  0  0  0  0
  151.3329  145.8735  161.1957 H   0  0  0  0  0  0  0  0  0  0  0  0
  152.5427  143.7767  161.8237 H   0  0  0  0  0  0  0  0  0  0  0  0
  150.8875  143.4485  161.3682 H   0  0  0  0  0  0  0  0  0  0  0  0
  152.4031  141.8135  160.3415 H   0  0  0  0  0  0  0  0  0  0  0  0
  153.3535  143.0741  159.6016 H   0  0  0  0  0  0  0  0  0  0  0  0
  1  2  1  0  0  0  0
  1 34  1  0  0  0  0
  2  3  1  0  0  0  0
  2 35  1  0  0  0  0
  2 36  1  0  0  0  0
  3  4  1  0  0  0  0
  3 37  1  0  0  0  0
  3 38  1  0  0  0  0
  4  5  1  0  0  0  0
  4 24  1  0  0  0  0
  4 39  1  0  0  0  0
  5  6  1  0  0  0  0
  5 40  1  0  0  0  0
  6 11  1  0  0  0  0
  6  7  2  0  0  0  0
  7  8  1  0  0  0  0
  8  9  2  0  0  0  0
  8 41  1  0  0  0  0
  9 10  1  0  0  0  0
 10 14  1  0  0  0  0
 10 11  2  0  0  0  0
 11 12  1  0  0  0  0
 12 13  2  0  0  0  0
 13 14  1  0  0  0  0
 13 42  1  0  0  0  0
 14 15  1  0  0  0  0
 15 30  1  0  0  0  0
 15 22  1  0  0  0  0
 15 16  1  0  0  0  0
 16 17  1  0  0  0  0
 17 31  1  0  0  0  0
 17 18  1  0  0  0  0
 17 20  1  0  0  0  0
 18 19  1  0  0  0  0
 18 43  1  0  0  0  0
 18 44  1  0  0  0  0
 19 45  1  0  0  0  0
 20 32  1  0  0  0  0
 20 21  1  0  0  0  0
 20 22  1  0  0  0  0
 21 46  1  0  0  0  0
 22 33  1  0  0  0  0
 22 23  1  0  0  0  0
 23 47  1  0  0  0  0
 24 29  1  0  0  0  0
 24 25  1  0  0  0  0
 24 48  1  0  0  0  0
 25 26  1  0  0  0  0
 25 49  1  0  0  0  0
 25 50  1  0  0  0  0
 26 27  1  0  0  0  0
 26 51  1  0  0  0  0
 26 52  1  0  0  0  0
 27 28  1  0  0  0  0
 27 53  1  0  0  0  0
 27 54  1  0  0  0  0
 28 29  1  0  0  0  0
 28 55  1  0  0  0  0
 28 56  1  0  0  0  0
 29 57  1  0  0  0  0
 29 58  1  0  0  0  0
M  END
> <s_m_source_file>
AV-unprocessed.smi

> <i_m_source_file_index>
109

> <i_lp_mmshare_version>
43012

> <i_f3d_flags>
0

> <s_epik_input>
W0NIMl0xW0NIMl1bQ0gyXVtDSDJdW0NIMl1bQ0hdMVtDQEhdKFtDSDJdW0NIMl1bT0hdKVtOSF1jKG5bY0hdbjIpYyhjMjMpbltjSF1uM1tDQEBIXTRPW0NASF0oW0NIMl1bT0hdKVtDQEBIXShbT0hdKVtDQEhdNFtPSF0=

> <s_epik_cmdline>
J2VwaWtfcHl0aG9uJywgJy1waCcsICc3LjAnLCAnLXRuJywgJzgnLCAnLW1hJywgJzIwMCcsICctbWV0YWxfYmluZGluZycsICctaW1hZScsICc8aW5maWxlLm1hZT4nLCAnLW9tYWUnLCAnPG91dGZpbGUubWFlPic=

> <r_lp_tautomer_probability>
1

> <r_epik_Ionization_Penalty>
0.000793976

> <r_epik_Ionization_Penalty_Charging>
0

> <r_epik_Ionization_Penalty_Neutral>
0.000793976

> <r_epik_State_Penalty>
-0

> <r_epik_Charging_Adjusted_Penalty>
0

> <i_epik_Tot_Q>
0

> <i_epik_Tot_abs_Q>
0

> <r_epik_Metal_State_Penalty>
-0

> <b_epik_Metal_Only>
0

> <s_epik_Chemistry_Notes>
This compound contains an acetal/aminal-like group ( X-CH(R)-Y where X, Y are N, S, or O) that may be acid/base labile, releasing an aldehyde.

> <s_lp_Force_Field>
OPLS_2005

> <r_lp_Energy>
51.6151

> <b_lp_Chiralities_Consistent>
1

> <s_lp_Variant>
AV-unprocessed.smi:109-9

> <Gold.Version>
5.8.1

> <Gold.Id.Protein>
6NUR|6NUR_protein|mol2

> <Gold.PLP.Fitness>
52.5640

> <Gold.PLP.PLP>
-41.0059

> <Gold.PLP.part.hbond>
-4.6893

> <Gold.PLP.part.metal>
0.0000

> <Gold.PLP.part.buried>
-8.4879

> <Gold.PLP.part.nonpolar>
-27.7614

> <Gold.PLP.part.repulsive>
0.2509

> <Gold.PLP.ligand.clash>
0.0000

> <Gold.PLP.ligand.torsion>
1.0425

> <Gold.PLP.Chemscore.Hbond>
4.4923

> <Gold.PLP.Chemscore.CHOScore>
0.0000

> <Gold.PLP.Chemscore.Metal>
0.0000

> <Gold.Chemscore.Hbonds>
donor molecule, donor type, donor heavy atom, donor atom, acceptor molecule, acceptor atom, score
      L1  H    19    45       P1  7948  0.72
      P1  H  6896  6908       L1    23  0.80
      P1  H  7989  7998       L1     1  0.72
      P1  H  7997  8008       L1     7  1.00
      P1  H 10752 10763       L1     9  0.75

> <Gold.PLP.Chemscore.Internal.Correction>
0.1662

> <Gold.Rescore>
     Score         DG    S(hbond)    S(metal)    S(lipo)     H(rot)  DE(clash)    DE(int)     intcor
     10.55     -14.61       3.27        0.00     104.16       5.47       0.86       3.20       ----

> <Gold.Chemscore.Fitness>
10.5457

> <Gold.Chemscore.DG>
-14.6058

> <Gold.Chemscore.ZeroCoef>
-5.4800

> <Gold.Chemscore.Hbond>
3.2732

> <Gold.Chemscore.Metal>
0.0000

> <Gold.Chemscore.Lipo>
104.1596

> <Gold.Chemscore.Internal_Hbond>
0.0000

> <Gold.Chemscore.DEClash>
0.8572

> <Gold.Chemscore.DEInternal>
3.2029

> <Gold.Chemscore.Rot>
5.4662

> <Gold.Chemscore.Internal.Correction>
   9.000000E+99

> <Gold.Chemscore.Hbonds>
donor molecule, donor type, donor heavy atom, donor atom, acceptor molecule, acceptor atom, score
      L1  H    19    45       P1  7948  0.68
      P1  H  6896  6908       L1    23  0.12
      P1  H  7989  7998       L1     1  0.68
      P1  H  7997  8008       L1     7  0.39
      P1  H 10752 10763       L1     9  0.68

> <Gold.Chemscore.Hbond.Weighted>
-10.9326

> <Gold.Chemscore.Metal.Weighted>
-0.0000

> <Gold.Chemscore.Lipo.Weighted>
-12.1867

> <Gold.Chemscore.Internal_Hbond.Weighted>
0.0000

> <Gold.Chemscore.DEClash.Weighted>
0.8572

> <Gold.Chemscore.DEInternal.Weighted>
3.2029

> <Gold.Chemscore.Rot.Weighted>
13.9935

> <Gold.Chemscore.Internal.Correction.Weighted>
   9.000000E+99

> <Gold.Protein.RotatedTorsions>
[ 6907 6896 6895 6894 ] final  104.46 input  -60.11 | X-H torsion
[ 7974 7965 7964 7962 ] final   59.44 input  175.53 | X-H torsion
[ 8008 7997 7996 7995 ] final  -39.41 input   59.86 | X-H torsion
[ 10167 10162 10161 10158 ] final  -38.58 input  -65.29 | X-H torsion
[ 10718 10713 10712 10709 ] final -132.94 input   66.30 | X-H torsion
[ 10763 10752 10751 10750 ] final   79.39 input  -60.55 | X-H torsion
[ 11005 11000 10999 10996 ] final  -43.80 input  -57.11 | X-H torsion

> <Gold.Protein.ActiveResidues>
 VAL166  LYS551  ARG553  GLY616  TRP617  ASP618  TYR619  PRO620  LYS621  CYS622 
 ASP623  PHE694  ASN695  SER759  ASP760  ASP761  ALA762  ILE779  LEU786  VAL792 
 PHE793  MET794  SER795  GLU796  ALA797  LYS798  CYS799  TRP800  GLU811  SER814 

> <Gold.Protein.RotatedAtoms>
  152.5263  133.9674  159.7745 H   0  0  0  0  0  0  0  0  0  0  0  0  # atno 6907 bound_to 6896
  150.9952  133.6101  159.2709 H   0  0  0  0  0  0  0  0  0  0  0  0  # atno 6908 bound_to 6896
  151.3230  135.0829  159.9365 H   0  0  0  0  0  0  0  0  0  0  0  0  # atno 6909 bound_to 6896
  145.9071  139.3625  143.0558 H   0  0  0  0  0  0  0  0  0  0  0  0  # atno 7974 bound_to 7965
  154.4023  140.1552  156.2859 H   0  0  0  0  0  0  0  0  0  0  0  0  # atno 8008 bound_to 7997
  155.8828  140.3443  155.5878 H   0  0  0  0  0  0  0  0  0  0  0  0  # atno 8009 bound_to 7997
  155.7647  140.0822  157.2128 H   0  0  0  0  0  0  0  0  0  0  0  0  # atno 8010 bound_to 7997
  140.7088  143.3268  151.2661 H   0  0  0  0  0  0  0  0  0  0  0  0  # atno 10167 bound_to 10162
  156.2398  130.7089  151.0945 H   0  0  0  0  0  0  0  0  0  0  0  0  # atno 10718 bound_to 10713
  153.0948  135.4842  154.8759 H   0  0  0  0  0  0  0  0  0  0  0  0  # atno 10763 bound_to 10752
  154.7312  135.3060  154.8890 H   0  0  0  0  0  0  0  0  0  0  0  0  # atno 10764 bound_to 10752
  153.9525  135.6821  153.4797 H   0  0  0  0  0  0  0  0  0  0  0  0  # atno 10765 bound_to 10752
  141.0408  133.6781  156.2784 H   0  0  0  0  0  0  0  0  0  0  0  0  # atno 11005 bound_to 11000
  145.8719  140.9415  143.0646 LP  0  0  0  0  0  0  0  0  0  0  0  0  # atno 17320 bound_to 7965
  144.6740  140.0665  143.7474 LP  0  0  0  0  0  0  0  0  0  0  0  0  # atno 17321 bound_to 7965
  139.6739  143.9972  152.2769 LP  0  0  0  0  0  0  0  0  0  0  0  0  # atno 17342 bound_to 10162
  139.9580  144.6577  150.8107 LP  0  0  0  0  0  0  0  0  0  0  0  0  # atno 17343 bound_to 10162
  157.7170  131.0704  150.6287 LP  0  0  0  0  0  0  0  0  0  0  0  0  # atno 17370 bound_to 10713
  156.6360  130.4445  149.5769 LP  0  0  0  0  0  0  0  0  0  0  0  0  # atno 17371 bound_to 10713
  140.6237  134.5335  157.5551 LP  0  0  0  0  0  0  0  0  0  0  0  0  # atno 17394 bound_to 11000
  139.9274  134.8028  156.1027 LP  0  0  0  0  0  0  0  0  0  0  0  0  # atno 17395 bound_to 11000

$$$$
