AV-unprocessed.smi:2754|AV-procd|sdf|10616|dock3
  -GOLD-   2272015 63D 1   1.00000     0.00000
 Structure written by MMmdl.
 28 29  0  0  0  0  0  0  0  0  2 V2000
  149.5435  138.7228  153.2463 N   0  0  0  0  0  0  0  0  0  0  0  0
  150.3506  139.1246  154.2817 C   0  0  0  0  0  0  0  0  0  0  0  0
  151.3863  138.3353  154.5731 N   0  0  0  0  0  0  0  0  0  0  0  0
  152.1837  138.7287  155.5898 C   0  0  0  0  0  0  0  0  0  0  0  0
  151.9358  139.9140  156.3122 C   0  0  0  0  0  0  0  0  0  0  0  0
  150.8093  140.6658  155.9132 C   0  0  0  0  0  0  0  0  0  0  0  0
  150.4337  141.9627  156.6160 C   0  0  1  0  0  0  0  0  0  0  0  0
  149.9755  141.7276  158.0689 C   0  0  0  0  0  0  0  0  0  0  0  0
  149.6144  143.0611  158.7415 C   0  0  0  0  0  0  0  0  0  0  0  0
  150.7782  144.0611  158.6401 C   0  0  0  0  0  0  0  0  0  0  0  0
  151.1730  144.2625  157.2288 N   0  3  0  0  0  0  0  0  0  0  0  0
  151.5687  143.0068  156.5534 C   0  0  0  0  0  0  0  0  0  0  0  0
  150.0167  140.2637  154.8924 N   0  0  0  0  0  0  0  0  0  0  0  0
  148.7439  139.2791  152.9802 H   0  0  0  0  0  0  0  0  0  0  0  0
  149.6760  137.8190  152.8166 H   0  0  0  0  0  0  0  0  0  0  0  0
  153.0236  138.0934  155.8294 H   0  0  0  0  0  0  0  0  0  0  0  0
  152.5781  140.2221  157.1241 H   0  0  0  0  0  0  0  0  0  0  0  0
  149.5828  142.3800  156.0748 H   0  0  0  0  0  0  0  0  0  0  0  0
  149.1172  141.0553  158.0904 H   0  0  0  0  0  0  0  0  0  0  0  0
  150.7680  141.2398  158.6384 H   0  0  0  0  0  0  0  0  0  0  0  0
  148.7261  143.4822  158.2686 H   0  0  0  0  0  0  0  0  0  0  0  0
  149.3569  142.8928  159.7876 H   0  0  0  0  0  0  0  0  0  0  0  0
  150.4905  145.0212  159.0693 H   0  0  0  0  0  0  0  0  0  0  0  0
  151.6385  143.7028  159.2070 H   0  0  0  0  0  0  0  0  0  0  0  0
  150.3906  144.6630  156.7311 H   0  0  0  0  0  0  0  0  0  0  0  0
  152.4736  142.6234  157.0270 H   0  0  0  0  0  0  0  0  0  0  0  0
  151.8219  143.2304  155.5166 H   0  0  0  0  0  0  0  0  0  0  0  0
  151.9471  144.9106  157.1940 H   0  0  0  0  0  0  0  0  0  0  0  0
  1  2  1  0  0  0  0
  1 14  1  0  0  0  0
  1 15  1  0  0  0  0
  2 13  1  0  0  0  0
  2  3  2  0  0  0  0
  3  4  1  0  0  0  0
  4  5  2  0  0  0  0
  4 16  1  0  0  0  0
  5  6  1  0  0  0  0
  5 17  1  0  0  0  0
  6  7  1  0  0  0  0
  6 13  2  0  0  0  0
  7 12  1  0  0  0  0
  7  8  1  0  0  0  0
  7 18  1  0  0  0  0
  8  9  1  0  0  0  0
  8 19  1  0  0  0  0
  8 20  1  0  0  0  0
  9 10  1  0  0  0  0
  9 21  1  0  0  0  0
  9 22  1  0  0  0  0
 10 11  1  0  0  0  0
 10 23  1  0  0  0  0
 10 24  1  0  0  0  0
 11 12  1  0  0  0  0
 11 25  1  0  0  0  0
 11 28  1  0  0  0  0
 12 26  1  0  0  0  0
 12 27  1  0  0  0  0
M  CHG  1  11   1
M  END
> <s_m_source_file>
AV-unprocessed.smi

> <i_m_source_file_index>
2754

> <i_lp_mmshare_version>
43012

> <i_f3d_flags>
0

> <s_epik_input>
W05IMl1jMW5bY0hdW2NIXWMobjEpW0NAQEhdMltDSDJdW0NIMl1bQ0gyXVtOSF1bQ0gyXTI=

> <s_epik_cmdline>
J2VwaWtfcHl0aG9uJywgJy1waCcsICc3LjAnLCAnLXRuJywgJzgnLCAnLW1hJywgJzIwMCcsICctbWV0YWxfYmluZGluZycsICctaW1hZScsICc8aW5maWxlLm1hZT4nLCAnLW9tYWUnLCAnPG91dGZpbGUubWFlPic=

> <r_lp_tautomer_probability>
1

> <r_epik_Ionization_Penalty>
0.000528025

> <r_epik_Ionization_Penalty_Charging>
0.000372054

> <r_epik_Ionization_Penalty_Neutral>
0.000155972

> <r_epik_State_Penalty>
-0

> <r_epik_Charging_Adjusted_Penalty>
0.000372054

> <i_epik_Tot_Q>
1

> <i_epik_Tot_abs_Q>
1

> <r_epik_Metal_State_Penalty>
-0

> <b_epik_Metal_Only>
0

> <s_lp_Force_Field>
OPLS_2005

> <r_lp_Energy>
4.9837

> <b_lp_Chiralities_Consistent>
1

> <s_lp_Variant>
AV-unprocessed.smi:2754-2

> <Gold.Version>
5.8.1

> <Gold.Id.Protein>
6NUR|6NUR_protein|mol2

> <Gold.PLP.Fitness>
31.3540

> <Gold.PLP.PLP>
-22.4215

> <Gold.PLP.part.hbond>
-3.5740

> <Gold.PLP.part.metal>
0.0000

> <Gold.PLP.part.buried>
-5.2861

> <Gold.PLP.part.nonpolar>
-15.0780

> <Gold.PLP.part.repulsive>
0.3573

> <Gold.PLP.ligand.clash>
0.0000

> <Gold.PLP.ligand.torsion>
0.0514

> <Gold.PLP.Chemscore.Hbond>
3.0000

> <Gold.PLP.Chemscore.CHOScore>
0.0000

> <Gold.PLP.Chemscore.Metal>
0.0000

> <Gold.Chemscore.Hbonds>
donor molecule, donor type, donor heavy atom, donor atom, acceptor molecule, acceptor atom, score
      L1  H     1    15       P1  7948  1.00
      L1  H    11    25       P1  8028  2.00

> <Gold.PLP.Chemscore.Internal.Correction>
0.0352

> <Gold.Rescore>
     Score         DG    S(hbond)    S(metal)    S(lipo)     H(rot)  DE(clash)    DE(int)     intcor
     14.64     -16.03       1.98        0.00      55.64       1.00       1.35       0.04       ----

> <Gold.Chemscore.Fitness>
14.6404

> <Gold.Chemscore.DG>
-16.0291

> <Gold.Chemscore.ZeroCoef>
-5.4800

> <Gold.Chemscore.Hbond>
1.9756

> <Gold.Chemscore.Metal>
0.0000

> <Gold.Chemscore.Lipo>
55.6448

> <Gold.Chemscore.Internal_Hbond>
0.0000

> <Gold.Chemscore.DEClash>
1.3476

> <Gold.Chemscore.DEInternal>
0.0411

> <Gold.Chemscore.Rot>
1.0000

> <Gold.Chemscore.Internal.Correction>
   9.000000E+99

> <Gold.Chemscore.Hbonds>
donor molecule, donor type, donor heavy atom, donor atom, acceptor molecule, acceptor atom, score
      L1  H     1    14       P1  7957  0.02
      L1  H     1    15       P1  7948  0.58
      L1  H    11    25       P1  8028  0.85

> <Gold.Chemscore.Hbond.Weighted>
-6.5986

> <Gold.Chemscore.Metal.Weighted>
-0.0000

> <Gold.Chemscore.Lipo.Weighted>
-6.5104

> <Gold.Chemscore.Internal_Hbond.Weighted>
0.0000

> <Gold.Chemscore.DEClash.Weighted>
1.3476

> <Gold.Chemscore.DEInternal.Weighted>
0.0411

> <Gold.Chemscore.Rot.Weighted>
2.5600

> <Gold.Chemscore.Internal.Correction.Weighted>
   9.000000E+99

> <Gold.Protein.RotatedTorsions>
[ 6907 6896 6895 6894 ] final  -32.50 input  -60.11 | X-H torsion
[ 7974 7965 7964 7962 ] final  120.26 input  175.53 | X-H torsion
[ 8008 7997 7996 7995 ] final  -37.63 input   59.86 | X-H torsion
[ 10167 10162 10161 10158 ] final   27.26 input  -65.29 | X-H torsion
[ 10718 10713 10712 10709 ] final  -10.23 input   66.30 | X-H torsion
[ 10763 10752 10751 10750 ] final   69.53 input  -60.55 | X-H torsion
[ 11005 11000 10999 10996 ] final  -70.64 input  -57.11 | X-H torsion

> <Gold.Protein.ActiveResidues>
 VAL166  LYS551  ARG553  GLY616  TRP617  ASP618  TYR619  PRO620  LYS621  CYS622 
 ASP623  PHE694  ASN695  SER759  ASP760  ASP761  ALA762  ILE779  LEU786  VAL792 
 PHE793  MET794  SER795  GLU796  ALA797  LYS798  CYS799  TRP800  GLU811  SER814 

> <Gold.Protein.RotatedAtoms>
  151.0779  134.9840  159.8341 H   0  0  0  0  0  0  0  0  0  0  0  0  # atno 6907 bound_to 6896
  152.5416  134.2218  159.8800 H   0  0  0  0  0  0  0  0  0  0  0  0  # atno 6908 bound_to 6896
  151.2246  133.4440  159.2635 H   0  0  0  0  0  0  0  0  0  0  0  0  # atno 6909 bound_to 6896
  145.1333  139.3314  143.4654 H   0  0  0  0  0  0  0  0  0  0  0  0  # atno 7974 bound_to 7965
  154.4050  140.1599  156.2569 H   0  0  0  0  0  0  0  0  0  0  0  0  # atno 8008 bound_to 7997
  155.9070  140.3429  155.6047 H   0  0  0  0  0  0  0  0  0  0  0  0  # atno 8009 bound_to 7997
  155.7380  140.0789  157.2249 H   0  0  0  0  0  0  0  0  0  0  0  0  # atno 8010 bound_to 7997
  140.4953  144.0401  150.6312 H   0  0  0  0  0  0  0  0  0  0  0  0  # atno 10167 bound_to 10162
  156.6765  130.5024  149.5984 H   0  0  0  0  0  0  0  0  0  0  0  0  # atno 10718 bound_to 10713
  153.0292  135.5207  154.7303 H   0  0  0  0  0  0  0  0  0  0  0  0  # atno 10763 bound_to 10752
  154.6332  135.2903  155.0194 H   0  0  0  0  0  0  0  0  0  0  0  0  # atno 10764 bound_to 10752
  154.1138  135.6618  153.4942 H   0  0  0  0  0  0  0  0  0  0  0  0  # atno 10765 bound_to 10752
  141.1578  133.6795  156.6783 H   0  0  0  0  0  0  0  0  0  0  0  0  # atno 11005 bound_to 11000
  146.3512  140.1340  142.8596 LP  0  0  0  0  0  0  0  0  0  0  0  0  # atno 17320 bound_to 7965
  145.0612  140.9089  143.4938 LP  0  0  0  0  0  0  0  0  0  0  0  0  # atno 17321 bound_to 7965
  140.3682  143.2869  152.0308 LP  0  0  0  0  0  0  0  0  0  0  0  0  # atno 17342 bound_to 10162
  139.4860  144.6250  151.7181 LP  0  0  0  0  0  0  0  0  0  0  0  0  # atno 17343 bound_to 10162
  156.1899  130.6553  151.1049 LP  0  0  0  0  0  0  0  0  0  0  0  0  # atno 17370 bound_to 10713
  157.7059  131.0756  150.6669 LP  0  0  0  0  0  0  0  0  0  0  0  0  # atno 17371 bound_to 10713
  140.3122  134.8077  157.4185 LP  0  0  0  0  0  0  0  0  0  0  0  0  # atno 17394 bound_to 11000
  140.1169  134.5271  155.8217 LP  0  0  0  0  0  0  0  0  0  0  0  0  # atno 17395 bound_to 11000

$$$$
