AV-unprocessed.smi:1200|AV-procd|sdf|5023|dock4
  -GOLD-   22720 4 43D 1   1.00000     0.00000
 Structure written by MMmdl.
 43 44  0  0  0  0  0  0  0  0  2 V2000
  145.6362  135.3065  151.9367 C   0  0  0  0  0  0  0  0  0  0  0  0
  146.2011  136.5657  151.4756 N   0  0  0  0  0  0  0  0  0  0  0  0
  146.0872  137.7281  152.1328 C   0  0  0  0  0  0  0  0  0  0  0  0
  145.4802  137.8441  153.1982 O   0  0  0  0  0  0  0  0  0  0  0  0
  146.7452  138.9453  151.4746 C   0  0  0  0  0  0  0  0  0  0  0  0
  147.4351  139.8297  152.4489 N   0  3  2  0  0  0  0  0  0  0  0  0
  148.0398  139.0731  153.5746 C   0  0  0  0  0  0  0  0  0  0  0  0
  148.8730  139.9968  154.4793 C   0  0  0  0  0  0  0  0  0  0  0  0
  148.0274  141.1661  155.0088 C   0  0  1  0  0  0  0  0  0  0  0  0
  148.8645  142.0723  155.7902 N   0  0  0  0  0  0  0  0  0  0  0  0
  149.7260  141.6959  156.7466 C   0  0  0  0  0  0  0  0  0  0  0  0
  149.9035  140.5224  157.0709 O   0  0  0  0  0  0  0  0  0  0  0  0
  150.3553  142.7593  157.2764 N   0  0  0  0  0  0  0  0  0  0  0  0
  151.3607  142.8003  158.2820 C   0  0  0  0  0  0  0  0  0  0  0  0
  151.7859  143.9730  158.9537 C   0  0  0  0  0  0  0  0  0  0  0  0
  152.7987  143.8699  159.9270 C   0  0  0  0  0  0  0  0  0  0  0  0
  153.3545  142.6031  160.1895 C   0  0  0  0  0  0  0  0  0  0  0  0
  152.9682  141.4795  159.5499 N   0  0  0  0  0  0  0  0  0  0  0  0
  151.9965  141.5859  158.6188 C   0  0  0  0  0  0  0  0  0  0  0  0
  147.3751  141.9079  153.8281 C   0  0  0  0  0  0  0  0  0  0  0  0
  146.5765  140.9420  152.9374 C   0  0  0  0  0  0  0  0  0  0  0  0
  145.8268  134.5226  151.2035 H   0  0  0  0  0  0  0  0  0  0  0  0
  144.5572  135.3896  152.0742 H   0  0  0  0  0  0  0  0  0  0  0  0
  146.0856  135.0040  152.8836 H   0  0  0  0  0  0  0  0  0  0  0  0
  146.7075  136.5505  150.6019 H   0  0  0  0  0  0  0  0  0  0  0  0
  147.4417  138.6304  150.6956 H   0  0  0  0  0  0  0  0  0  0  0  0
  145.9473  139.4977  150.9767 H   0  0  0  0  0  0  0  0  0  0  0  0
  147.2522  138.5868  154.1525 H   0  0  0  0  0  0  0  0  0  0  0  0
  148.6821  138.2825  153.1848 H   0  0  0  0  0  0  0  0  0  0  0  0
  149.2829  139.4239  155.3123 H   0  0  0  0  0  0  0  0  0  0  0  0
  149.7266  140.3792  153.9171 H   0  0  0  0  0  0  0  0  0  0  0  0
  147.2436  140.7555  155.6489 H   0  0  0  0  0  0  0  0  0  0  0  0
  148.7841  143.0580  155.5865 H   0  0  0  0  0  0  0  0  0  0  0  0
  150.1226  143.6542  156.8710 H   0  0  0  0  0  0  0  0  0  0  0  0
  151.3713  144.9458  158.7433 H   0  0  0  0  0  0  0  0  0  0  0  0
  153.1439  144.7440  160.4592 H   0  0  0  0  0  0  0  0  0  0  0  0
  154.1326  142.4904  160.9297 H   0  0  0  0  0  0  0  0  0  0  0  0
  151.7142  140.6659  158.1276 H   0  0  0  0  0  0  0  0  0  0  0  0
  146.7163  142.6957  154.1955 H   0  0  0  0  0  0  0  0  0  0  0  0
  148.1421  142.4012  153.2291 H   0  0  0  0  0  0  0  0  0  0  0  0
  146.1610  141.4947  152.0944 H   0  0  0  0  0  0  0  0  0  0  0  0
  145.7304  140.5341  153.4929 H   0  0  0  0  0  0  0  0  0  0  0  0
  148.2031  140.2506  151.9451 H   0  0  0  0  0  0  0  0  0  0  0  0
  1  2  1  0  0  0  0
  1 22  1  0  0  0  0
  1 23  1  0  0  0  0
  1 24  1  0  0  0  0
  2  3  1  0  0  0  0
  2 25  1  0  0  0  0
  3  4  2  0  0  0  0
  3  5  1  0  0  0  0
  5  6  1  0  0  0  0
  5 26  1  0  0  0  0
  5 27  1  0  0  0  0
  6 21  1  0  0  0  0
  6  7  1  0  0  0  0
  6 43  1  0  0  0  0
  7  8  1  0  0  0  0
  7 28  1  0  0  0  0
  7 29  1  0  0  0  0
  8  9  1  0  0  0  0
  8 30  1  0  0  0  0
  8 31  1  0  0  0  0
  9 10  1  0  0  0  0
  9 20  1  0  0  0  0
  9 32  1  0  0  0  0
 10 11  1  0  0  0  0
 10 33  1  0  0  0  0
 11 12  2  0  0  0  0
 11 13  1  0  0  0  0
 13 14  1  0  0  0  0
 13 34  1  0  0  0  0
 14 19  1  0  0  0  0
 14 15  2  0  0  0  0
 15 16  1  0  0  0  0
 15 35  1  0  0  0  0
 16 17  2  0  0  0  0
 16 36  1  0  0  0  0
 17 18  1  0  0  0  0
 17 37  1  0  0  0  0
 18 19  2  0  0  0  0
 19 38  1  0  0  0  0
 20 21  1  0  0  0  0
 20 39  1  0  0  0  0
 20 40  1  0  0  0  0
 21 41  1  0  0  0  0
 21 42  1  0  0  0  0
M  CHG  1   6   1
M  END
> <s_m_source_file>
AV-unprocessed.smi

> <i_m_source_file_index>
1200

> <i_lp_mmshare_version>
43012

> <i_f3d_flags>
0

> <s_epik_input>
W0NIM11bTkhdQyg9TylbQ0gyXU4xW0NIMl1bQ0gyXVtDSF0oW0NIMl1bQ0gyXTEpW05IXUMoPU8pW05IXWMyW2NIXVtjSF1bY0hdbltjSF0y

> <s_epik_cmdline>
J2VwaWtfcHl0aG9uJywgJy1waCcsICc3LjAnLCAnLXRuJywgJzgnLCAnLW1hJywgJzIwMCcsICctbWV0YWxfYmluZGluZycsICctaW1hZScsICc8aW5maWxlLm1hZT4nLCAnLW9tYWUnLCAnPG91dGZpbGUubWFlPic=

> <r_epik_Ionization_Penalty>
0.842849

> <r_epik_Ionization_Penalty_Charging>
0.838844

> <r_epik_Ionization_Penalty_Neutral>
0.00400543

> <r_epik_State_Penalty>
0.858736

> <r_epik_Charging_Adjusted_Penalty>
1.69758

> <i_epik_Tot_Q>
1

> <i_epik_Tot_abs_Q>
1

> <r_epik_Metal_State_Penalty>
0.860766

> <b_epik_Metal_Only>
0

> <s_lp_Force_Field>
OPLS_2005

> <r_lp_Energy>
18.0189

> <b_lp_Chiralities_Consistent>
1

> <s_lp_Variant>
AV-unprocessed.smi:1200-2

> <Gold.Version>
5.8.1

> <Gold.Id.Protein>
6NUR|6NUR_protein|mol2

> <Gold.PLP.Fitness>
46.2393

> <Gold.PLP.PLP>
-38.9246

> <Gold.PLP.part.hbond>
-3.8605

> <Gold.PLP.part.metal>
0.0000

> <Gold.PLP.part.buried>
-2.3414

> <Gold.PLP.part.nonpolar>
-33.5797

> <Gold.PLP.part.repulsive>
0.5026

> <Gold.PLP.ligand.clash>
0.0000

> <Gold.PLP.ligand.torsion>
0.7910

> <Gold.PLP.Chemscore.Hbond>
2.9600

> <Gold.PLP.Chemscore.CHOScore>
0.0000

> <Gold.PLP.Chemscore.Metal>
0.0000

> <Gold.Chemscore.Hbonds>
donor molecule, donor type, donor heavy atom, donor atom, acceptor molecule, acceptor atom, score
      L1  H     6    43       P1  7957  0.96
      L1  H    10    33       P1  8028  1.00
      L1  H    13    34       P1  8028  0.98

> <Gold.PLP.Chemscore.Internal.Correction>
0.0167

> <Gold.Rescore>
     Score         DG    S(hbond)    S(metal)    S(lipo)     H(rot)  DE(clash)    DE(int)     intcor
     17.18     -22.96       2.90        0.00     103.61       1.69       0.95       4.83       ----

> <Gold.Chemscore.Fitness>
17.1798

> <Gold.Chemscore.DG>
-22.9624

> <Gold.Chemscore.ZeroCoef>
-5.4800

> <Gold.Chemscore.Hbond>
2.8980

> <Gold.Chemscore.Metal>
0.0000

> <Gold.Chemscore.Lipo>
103.6103

> <Gold.Chemscore.Internal_Hbond>
0.0000

> <Gold.Chemscore.DEClash>
0.9478

> <Gold.Chemscore.DEInternal>
4.8348

> <Gold.Chemscore.Rot>
1.6873

> <Gold.Chemscore.Internal.Correction>
   9.000000E+99

> <Gold.Chemscore.Hbonds>
donor molecule, donor type, donor heavy atom, donor atom, acceptor molecule, acceptor atom, score
      L1  H     6    43       P1  7957  0.91
      L1  H    10    33       P1  8028  1.00
      L1  H    13    34       P1  8028  0.88

> <Gold.Chemscore.Hbond.Weighted>
-9.6794

> <Gold.Chemscore.Metal.Weighted>
-0.0000

> <Gold.Chemscore.Lipo.Weighted>
-12.1224

> <Gold.Chemscore.Internal_Hbond.Weighted>
0.0000

> <Gold.Chemscore.DEClash.Weighted>
0.9478

> <Gold.Chemscore.DEInternal.Weighted>
4.8348

> <Gold.Chemscore.Rot.Weighted>
4.3194

> <Gold.Chemscore.Internal.Correction.Weighted>
   9.000000E+99

> <Gold.Protein.RotatedTorsions>
[ 6907 6896 6895 6894 ] final  144.47 input  -60.11 | X-H torsion
[ 7974 7965 7964 7962 ] final   81.43 input  175.53 | X-H torsion
[ 8008 7997 7996 7995 ] final   90.22 input   59.86 | X-H torsion
[ 10167 10162 10161 10158 ] final  171.15 input  -65.29 | X-H torsion
[ 10718 10713 10712 10709 ] final  -35.69 input   66.30 | X-H torsion
[ 10763 10752 10751 10750 ] final  137.11 input  -60.55 | X-H torsion
[ 11005 11000 10999 10996 ] final  -42.13 input  -57.11 | X-H torsion

> <Gold.Protein.ActiveResidues>
 VAL166  LYS551  ARG553  GLY616  TRP617  ASP618  TYR619  PRO620  LYS621  CYS622 
 ASP623  PHE694  ASN695  SER759  ASP760  ASP761  ALA762  ILE779  LEU786  VAL792 
 PHE793  MET794  SER795  GLU796  ALA797  LYS798  CYS799  TRP800  GLU811  SER814 

> <Gold.Protein.RotatedAtoms>
  152.1932  133.4788  159.5018 H   0  0  0  0  0  0  0  0  0  0  0  0  # atno 6907 bound_to 6896
  150.6955  134.1685  159.4212 H   0  0  0  0  0  0  0  0  0  0  0  0  # atno 6908 bound_to 6896
  151.9601  135.0127  160.0598 H   0  0  0  0  0  0  0  0  0  0  0  0  # atno 6909 bound_to 6896
  145.6383  139.2419  143.2045 H   0  0  0  0  0  0  0  0  0  0  0  0  # atno 7974 bound_to 7965
  156.0094  140.3352  155.6925 H   0  0  0  0  0  0  0  0  0  0  0  0  # atno 8008 bound_to 7997
  155.6179  140.0672  157.2705 H   0  0  0  0  0  0  0  0  0  0  0  0  # atno 8009 bound_to 7997
  154.4276  140.1782  156.1328 H   0  0  0  0  0  0  0  0  0  0  0  0  # atno 8010 bound_to 7997
  139.5038  144.3517  151.9915 H   0  0  0  0  0  0  0  0  0  0  0  0  # atno 10167 bound_to 10162
  156.3356  130.4286  149.7833 H   0  0  0  0  0  0  0  0  0  0  0  0  # atno 10718 bound_to 10713
  153.8677  135.3059  155.3440 H   0  0  0  0  0  0  0  0  0  0  0  0  # atno 10763 bound_to 10752
  154.7820  135.4830  153.9867 H   0  0  0  0  0  0  0  0  0  0  0  0  # atno 10764 bound_to 10752
  153.1424  135.6827  153.9102 H   0  0  0  0  0  0  0  0  0  0  0  0  # atno 10765 bound_to 10752
  141.0294  133.6826  156.2553 H   0  0  0  0  0  0  0  0  0  0  0  0  # atno 11005 bound_to 11000
  146.1302  140.7196  142.9416 LP  0  0  0  0  0  0  0  0  0  0  0  0  # atno 17320 bound_to 7965
  144.7167  140.4234  143.7039 LP  0  0  0  0  0  0  0  0  0  0  0  0  # atno 17321 bound_to 7965
  140.2954  144.3706  150.6076 LP  0  0  0  0  0  0  0  0  0  0  0  0  # atno 17342 bound_to 10162
  140.5914  143.2168  151.7245 LP  0  0  0  0  0  0  0  0  0  0  0  0  # atno 17343 bound_to 10162
  156.5089  130.8163  151.3161 LP  0  0  0  0  0  0  0  0  0  0  0  0  # atno 17370 bound_to 10713
  157.7438  130.9920  150.2622 LP  0  0  0  0  0  0  0  0  0  0  0  0  # atno 17371 bound_to 10713
  140.6433  134.5143  157.5571 LP  0  0  0  0  0  0  0  0  0  0  0  0  # atno 17394 bound_to 11000
  139.9198  134.8172  156.1249 LP  0  0  0  0  0  0  0  0  0  0  0  0  # atno 17395 bound_to 11000

$$$$
