AV-unprocessed.smi:1570|AV-procd|sdf|6323|dock10
  -GOLD-   22720 6533D 1   1.00000     0.00000
 Structure written by MMmdl.
 52 54  0  0  0  0  0  0  0  0  2 V2000
  152.6631  138.8882  159.4817 C   0  0  0  0  0  0  0  0  0  0  0  0
  151.3126  139.5611  159.2061 C   0  0  0  0  0  0  0  0  0  0  0  0
  150.6174  138.9145  158.0961 N   0  0  0  0  0  0  0  0  0  0  0  0
  150.1929  137.6304  158.0478 C   0  0  0  0  0  0  0  0  0  0  0  0
  150.3357  136.7857  158.9321 O   0  0  0  0  0  0  0  0  0  0  0  0
  149.5659  137.4377  156.8629 N   0  0  0  0  0  0  0  0  0  0  0  0
  148.9547  136.1929  156.3983 C   0  0  0  0  0  0  0  0  0  0  0  0
  149.6453  135.6529  155.1292 C   0  0  1  0  0  0  0  0  0  0  0  0
  151.0159  135.4603  155.4207 O   0  0  0  0  0  0  0  0  0  0  0  0
  149.0634  134.2917  154.6963 C   0  0  0  0  0  0  0  0  0  0  0  0
  147.8665  134.4402  153.8297 N   0  3  1  0  0  0  0  0  0  0  0  0
  147.5236  133.1932  153.1084 C   0  0  0  0  0  0  0  0  0  0  0  0
  146.3506  133.4371  152.1413 C   0  0  1  0  0  0  0  0  0  0  0  0
  145.9043  132.1484  151.4417 C   0  0  0  0  0  0  0  0  0  0  0  0
  145.2356  133.9506  152.8656 O   0  0  0  0  0  0  0  0  0  0  0  0
  145.4900  135.1574  153.5846 C   0  0  2  0  0  0  0  0  0  0  0  0
  145.6479  136.3717  152.6520 C   0  0  0  0  0  0  0  0  0  0  0  0
  146.6771  134.9619  154.5475 C   0  0  0  0  0  0  0  0  0  0  0  0
  149.5762  138.6386  156.1381 C   0  0  0  0  0  0  0  0  0  0  0  0
  149.0476  138.9661  154.8769 C   0  0  0  0  0  0  0  0  0  0  0  0
  149.2246  140.2954  154.4264 C   0  0  0  0  0  0  0  0  0  0  0  0
  149.9075  141.2492  155.2246 C   0  0  0  0  0  0  0  0  0  0  0  0
  150.4268  140.8943  156.4914 C   0  0  0  0  0  0  0  0  0  0  0  0
  150.2384  139.5671  156.9145 C   0  0  0  0  0  0  0  0  0  0  0  0
  153.1748  139.3729  160.3131 H   0  0  0  0  0  0  0  0  0  0  0  0
  153.3170  138.9433  158.6107 H   0  0  0  0  0  0  0  0  0  0  0  0
  152.5350  137.8363  159.7392 H   0  0  0  0  0  0  0  0  0  0  0  0
  150.6876  139.5263  160.0988 H   0  0  0  0  0  0  0  0  0  0  0  0
  151.4640  140.6188  158.9854 H   0  0  0  0  0  0  0  0  0  0  0  0
  148.9330  135.4421  157.1886 H   0  0  0  0  0  0  0  0  0  0  0  0
  147.9084  136.4124  156.1794 H   0  0  0  0  0  0  0  0  0  0  0  0
  149.5522  136.3754  154.3193 H   0  0  0  0  0  0  0  0  0  0  0  0
  151.0935  134.7889  156.0814 H   0  0  0  0  0  0  0  0  0  0  0  0
  149.8383  133.7293  154.1726 H   0  0  0  0  0  0  0  0  0  0  0  0
  148.7944  133.6929  155.5682 H   0  0  0  0  0  0  0  0  0  0  0  0
  148.3901  132.8416  152.5471 H   0  0  0  0  0  0  0  0  0  0  0  0
  147.2694  132.4134  153.8285 H   0  0  0  0  0  0  0  0  0  0  0  0
  146.6512  134.1502  151.3734 H   0  0  0  0  0  0  0  0  0  0  0  0
  146.7171  131.7167  150.8570 H   0  0  0  0  0  0  0  0  0  0  0  0
  145.0733  132.3413  150.7626 H   0  0  0  0  0  0  0  0  0  0  0  0
  145.5763  131.3998  152.1635 H   0  0  0  0  0  0  0  0  0  0  0  0
  144.6011  135.3404  154.1891 H   0  0  0  0  0  0  0  0  0  0  0  0
  145.7102  137.2953  153.2281 H   0  0  0  0  0  0  0  0  0  0  0  0
  144.7924  136.4603  151.9820 H   0  0  0  0  0  0  0  0  0  0  0  0
  146.5482  136.3121  152.0410 H   0  0  0  0  0  0  0  0  0  0  0  0
  146.3969  134.2552  155.3305 H   0  0  0  0  0  0  0  0  0  0  0  0
  146.9025  135.9041  155.0456 H   0  0  0  0  0  0  0  0  0  0  0  0
  148.5244  138.2400  154.2731 H   0  0  0  0  0  0  0  0  0  0  0  0
  148.8330  140.5889  153.4635 H   0  0  0  0  0  0  0  0  0  0  0  0
  150.0310  142.2590  154.8617 H   0  0  0  0  0  0  0  0  0  0  0  0
  150.9434  141.6172  157.1055 H   0  0  0  0  0  0  0  0  0  0  0  0
  148.1107  135.1192  153.1223 H   0  0  0  0  0  0  0  0  0  0  0  0
  1  2  1  0  0  0  0
  1 25  1  0  0  0  0
  1 26  1  0  0  0  0
  1 27  1  0  0  0  0
  2  3  1  0  0  0  0
  2 28  1  0  0  0  0
  2 29  1  0  0  0  0
  3 24  1  0  0  0  0
  3  4  1  0  0  0  0
  4  5  2  0  0  0  0
  4  6  1  0  0  0  0
  6  7  1  0  0  0  0
  6 19  1  0  0  0  0
  7  8  1  0  0  0  0
  7 30  1  0  0  0  0
  7 31  1  0  0  0  0
  8  9  1  0  0  0  0
  8 10  1  0  0  0  0
  8 32  1  0  0  0  0
  9 33  1  0  0  0  0
 10 11  1  0  0  0  0
 10 34  1  0  0  0  0
 10 35  1  0  0  0  0
 11 18  1  0  0  0  0
 11 12  1  0  0  0  0
 11 52  1  0  0  0  0
 12 13  1  0  0  0  0
 12 36  1  0  0  0  0
 12 37  1  0  0  0  0
 13 14  1  0  0  0  0
 13 15  1  0  0  0  0
 13 38  1  0  0  0  0
 14 39  1  0  0  0  0
 14 40  1  0  0  0  0
 14 41  1  0  0  0  0
 15 16  1  0  0  0  0
 16 17  1  0  0  0  0
 16 18  1  0  0  0  0
 16 42  1  0  0  0  0
 17 43  1  0  0  0  0
 17 44  1  0  0  0  0
 17 45  1  0  0  0  0
 18 46  1  0  0  0  0
 18 47  1  0  0  0  0
 19 24  2  0  0  0  0
 19 20  1  0  0  0  0
 20 21  2  0  0  0  0
 20 48  1  0  0  0  0
 21 22  1  0  0  0  0
 21 49  1  0  0  0  0
 22 23  2  0  0  0  0
 22 50  1  0  0  0  0
 23 24  1  0  0  0  0
 23 51  1  0  0  0  0
M  CHG  1  11   1
M  END
> <s_m_source_file>
AV-unprocessed.smi

> <i_m_source_file_index>
1570

> <i_lp_mmshare_version>
43012

> <i_f3d_flags>
0

> <s_epik_input>
W2NIXTFbY0hdW2NIXVtjSF1jKGMxMiluKFtDSDJdW0NIM10pYyg9TyluMltDSDJdW0NASF0oW09IXSlbQ0gyXU4zW0NIMl1bQ0BASF0oW0NIM10pT1tDQEBIXShbQ0gzXSlbQ0gyXTM=

> <s_epik_cmdline>
J2VwaWtfcHl0aG9uJywgJy1waCcsICc3LjAnLCAnLXRuJywgJzgnLCAnLW1hJywgJzIwMCcsICctbWV0YWxfYmluZGluZycsICctaW1hZScsICc8aW5maWxlLm1hZT4nLCAnLW9tYWUnLCAnPG91dGZpbGUubWFlPic=

> <r_epik_Ionization_Penalty>
0.706332

> <r_epik_Ionization_Penalty_Charging>
0.706318

> <r_epik_Ionization_Penalty_Neutral>
1.42224e-05

> <r_epik_State_Penalty>
0.729493

> <r_epik_Charging_Adjusted_Penalty>
1.43581

> <i_epik_Tot_Q>
1

> <i_epik_Tot_abs_Q>
1

> <r_epik_Metal_State_Penalty>
0.729493

> <b_epik_Metal_Only>
0

> <s_lp_Force_Field>
OPLS_2005

> <r_lp_Energy>
55.371

> <b_lp_Chiralities_Consistent>
1

> <s_lp_Variant>
AV-unprocessed.smi:1570-12

> <Gold.Version>
5.8.1

> <Gold.Id.Protein>
6NUR|6NUR_protein|mol2

> <Gold.PLP.Fitness>
41.4699

> <Gold.PLP.PLP>
-30.1998

> <Gold.PLP.part.hbond>
-3.0000

> <Gold.PLP.part.metal>
0.0000

> <Gold.PLP.part.buried>
-3.4339

> <Gold.PLP.part.nonpolar>
-24.0856

> <Gold.PLP.part.repulsive>
0.0881

> <Gold.PLP.ligand.clash>
0.0000

> <Gold.PLP.ligand.torsion>
0.3917

> <Gold.PLP.Chemscore.Hbond>
4.0000

> <Gold.PLP.Chemscore.CHOScore>
0.0000

> <Gold.PLP.Chemscore.Metal>
0.0000

> <Gold.Chemscore.Hbonds>
donor molecule, donor type, donor heavy atom, donor atom, acceptor molecule, acceptor atom, score
      L1  H    11    52       P1  7948  2.00
      P1  H  6896  6908       L1     5  0.80
      P1  H 10752 10763       L1     9  0.89

> <Gold.PLP.Chemscore.Internal.Correction>
0.0536

> <Gold.Rescore>
     Score         DG    S(hbond)    S(metal)    S(lipo)     H(rot)  DE(clash)    DE(int)     intcor
     17.68     -18.09       2.68        0.00      77.93       2.13       0.08       0.33       ----

> <Gold.Chemscore.Fitness>
17.6804

> <Gold.Chemscore.DG>
-18.0861

> <Gold.Chemscore.ZeroCoef>
-5.4800

> <Gold.Chemscore.Hbond>
2.6771

> <Gold.Chemscore.Metal>
0.0000

> <Gold.Chemscore.Lipo>
77.9327

> <Gold.Chemscore.Internal_Hbond>
0.0000

> <Gold.Chemscore.DEClash>
0.0777

> <Gold.Chemscore.DEInternal>
0.3281

> <Gold.Chemscore.Rot>
2.1303

> <Gold.Chemscore.Internal.Correction>
   9.000000E+99

> <Gold.Chemscore.Hbonds>
donor molecule, donor type, donor heavy atom, donor atom, acceptor molecule, acceptor atom, score
      L1  H    11    52       P1  7948  0.98
      P1  H  6896  6908       L1     5  0.77
      P1  H 10752 10763       L1     9  0.34

> <Gold.Chemscore.Hbond.Weighted>
-8.9416

> <Gold.Chemscore.Metal.Weighted>
-0.0000

> <Gold.Chemscore.Lipo.Weighted>
-9.1181

> <Gold.Chemscore.Internal_Hbond.Weighted>
0.0000

> <Gold.Chemscore.DEClash.Weighted>
0.0777

> <Gold.Chemscore.DEInternal.Weighted>
0.3281

> <Gold.Chemscore.Rot.Weighted>
5.4535

> <Gold.Chemscore.Internal.Correction.Weighted>
   9.000000E+99

> <Gold.Protein.RotatedTorsions>
[ 6907 6896 6895 6894 ] final -140.84 input  -60.11 | X-H torsion
[ 7974 7965 7964 7962 ] final   19.45 input  175.53 | X-H torsion
[ 8008 7997 7996 7995 ] final   43.40 input   59.86 | X-H torsion
[ 10167 10162 10161 10158 ] final  -46.58 input  -65.29 | X-H torsion
[ 10718 10713 10712 10709 ] final   34.53 input   66.30 | X-H torsion
[ 10763 10752 10751 10750 ] final   61.81 input  -60.55 | X-H torsion
[ 11005 11000 10999 10996 ] final    8.23 input  -57.11 | X-H torsion

> <Gold.Protein.ActiveResidues>
 VAL166  LYS551  ARG553  GLY616  TRP617  ASP618  TYR619  PRO620  LYS621  CYS622 
 ASP623  PHE694  ASN695  SER759  ASP760  ASP761  ALA762  ILE779  LEU786  VAL792 
 PHE793  MET794  SER795  GLU796  ALA797  LYS798  CYS799  TRP800  GLU811  SER814 

> <Gold.Protein.RotatedAtoms>
  151.0660  133.5505  159.2630 H   0  0  0  0  0  0  0  0  0  0  0  0  # atno 6907 bound_to 6896
  151.2462  135.0605  159.9054 H   0  0  0  0  0  0  0  0  0  0  0  0  # atno 6908 bound_to 6896
  152.5405  134.0427  159.8128 H   0  0  0  0  0  0  0  0  0  0  0  0  # atno 6909 bound_to 6896
  146.2149  139.8311  142.8660 H   0  0  0  0  0  0  0  0  0  0  0  0  # atno 7974 bound_to 7965
  155.3022  140.3385  155.4247 H   0  0  0  0  0  0  0  0  0  0  0  0  # atno 8008 bound_to 7997
  156.1996  140.1728  156.7966 H   0  0  0  0  0  0  0  0  0  0  0  0  # atno 8009 bound_to 7997
  154.5542  140.0699  156.8700 H   0  0  0  0  0  0  0  0  0  0  0  0  # atno 8010 bound_to 7997
  140.6811  143.2824  151.3803 H   0  0  0  0  0  0  0  0  0  0  0  0  # atno 10167 bound_to 10162
  157.3115  130.7401  149.6728 H   0  0  0  0  0  0  0  0  0  0  0  0  # atno 10718 bound_to 10713
  152.9962  135.5487  154.6093 H   0  0  0  0  0  0  0  0  0  0  0  0  # atno 10763 bound_to 10752
  154.5417  135.2820  155.1091 H   0  0  0  0  0  0  0  0  0  0  0  0  # atno 10764 bound_to 10752
  154.2366  135.6424  153.5245 H   0  0  0  0  0  0  0  0  0  0  0  0  # atno 10765 bound_to 10752
  140.5393  134.0390  155.7899 H   0  0  0  0  0  0  0  0  0  0  0  0  # atno 11005 bound_to 11000
  145.2996  141.0190  143.3616 LP  0  0  0  0  0  0  0  0  0  0  0  0  # atno 17320 bound_to 7965
  144.9016  139.4643  143.6630 LP  0  0  0  0  0  0  0  0  0  0  0  0  # atno 17321 bound_to 7965
  139.6135  144.1050  152.2322 LP  0  0  0  0  0  0  0  0  0  0  0  0  # atno 17342 bound_to 10162
  140.0471  144.5961  150.7365 LP  0  0  0  0  0  0  0  0  0  0  0  0  # atno 17343 bound_to 10162
  155.9678  130.4250  150.4633 LP  0  0  0  0  0  0  0  0  0  0  0  0  # atno 17370 bound_to 10713
  157.2633  131.0571  151.2307 LP  0  0  0  0  0  0  0  0  0  0  0  0  # atno 17371 bound_to 10713
  141.1236  133.9420  157.2680 LP  0  0  0  0  0  0  0  0  0  0  0  0  # atno 17394 bound_to 11000
  139.9512  135.0175  156.9000 LP  0  0  0  0  0  0  0  0  0  0  0  0  # atno 17395 bound_to 11000

$$$$
