AV-unprocessed.smi:1595|AV-procd|sdf|6415|dock4
  -GOLD-   22720 7 53D 1   1.00000     0.00000
 Structure written by MMmdl.
 29 30  0  0  0  0  0  0  0  0  1 V2000
  148.6198  141.4325  157.0616 O   0  0  0  0  0  0  0  0  0  0  0  0
  149.1773  141.3854  155.9639 C   0  0  0  0  0  0  0  0  0  0  0  0
  150.7092  141.3657  155.8589 C   0  0  0  0  0  0  0  0  0  0  0  0
  151.3873  141.6569  157.1335 N   0  0  0  0  0  0  0  0  0  0  0  0
  151.1284  142.9082  157.7269 C   0  0  0  0  0  0  0  0  0  0  0  0
  151.6938  143.3013  158.8847 C   0  0  0  0  0  0  0  0  0  0  0  0
  151.3598  144.6366  159.5316 C   0  0  0  0  0  0  0  0  0  0  0  0
  151.9044  144.7266  160.7450 F   0  0  0  0  0  0  0  0  0  0  0  0
  151.8395  145.6325  158.7880 F   0  0  0  0  0  0  0  0  0  0  0  0
  150.0419  144.8033  159.6507 F   0  0  0  0  0  0  0  0  0  0  0  0
  152.5752  142.3476  159.5285 C   0  0  0  0  0  0  0  0  0  0  0  0
  152.8310  141.1456  158.9761 C   0  0  0  0  0  0  0  0  0  0  0  0
  152.2289  140.7430  157.7031 C   0  0  0  0  0  0  0  0  0  0  0  0
  152.4641  139.6520  157.1829 O   0  0  0  0  0  0  0  0  0  0  0  0
  148.5122  141.3289  154.8010 N   0  0  0  0  0  0  0  0  0  0  0  0
  147.0924  141.3258  154.6560 C   0  0  0  0  0  0  0  0  0  0  0  0
  146.4672  142.4380  153.8417 C   0  0  0  0  0  0  0  0  0  0  0  0
  146.3147  142.4309  155.3377 C   0  0  0  0  0  0  0  0  0  0  0  0
  151.0104  140.3876  155.4809 H   0  0  0  0  0  0  0  0  0  0  0  0
  151.0276  142.0758  155.0933 H   0  0  0  0  0  0  0  0  0  0  0  0
  150.4410  143.5326  157.1746 H   0  0  0  0  0  0  0  0  0  0  0  0
  153.0431  142.6044  160.4674 H   0  0  0  0  0  0  0  0  0  0  0  0
  153.4963  140.4614  159.4824 H   0  0  0  0  0  0  0  0  0  0  0  0
  149.0541  141.2879  153.9499 H   0  0  0  0  0  0  0  0  0  0  0  0
  146.5966  140.3576  154.6020 H   0  0  0  0  0  0  0  0  0  0  0  0
  147.1278  143.1864  153.4081 H   0  0  0  0  0  0  0  0  0  0  0  0
  145.5906  142.1909  153.2461 H   0  0  0  0  0  0  0  0  0  0  0  0
  145.3363  142.1795  155.7417 H   0  0  0  0  0  0  0  0  0  0  0  0
  146.8746  143.1733  155.9033 H   0  0  0  0  0  0  0  0  0  0  0  0
  1  2  2  0  0  0  0
  2  3  1  0  0  0  0
  2 15  1  0  0  0  0
  3  4  1  0  0  0  0
  3 19  1  0  0  0  0
  3 20  1  0  0  0  0
  4 13  1  0  0  0  0
  4  5  1  0  0  0  0
  5  6  2  0  0  0  0
  5 21  1  0  0  0  0
  6  7  1  0  0  0  0
  6 11  1  0  0  0  0
  7  8  1  0  0  0  0
  7  9  1  0  0  0  0
  7 10  1  0  0  0  0
 11 12  2  0  0  0  0
 11 22  1  0  0  0  0
 12 13  1  0  0  0  0
 12 23  1  0  0  0  0
 13 14  2  0  0  0  0
 15 16  1  0  0  0  0
 15 24  1  0  0  0  0
 16 18  1  0  0  0  0
 16 17  1  0  0  0  0
 16 25  1  0  0  0  0
 17 18  1  0  0  0  0
 17 26  1  0  0  0  0
 17 27  1  0  0  0  0
 18 28  1  0  0  0  0
 18 29  1  0  0  0  0
M  END
> <s_m_source_file>
AV-unprocessed.smi

> <i_m_source_file_index>
1595

> <i_lp_mmshare_version>
43012

> <i_f3d_flags>
0

> <s_epik_input>
W0NIMl0xW0NIMl1bQ0hdMVtOSF1DKD1PKVtDSDJdbjJbY0hdYyhDKEYpKEYpRilbY0hdW2NIXWMyPU8=

> <s_epik_cmdline>
J2VwaWtfcHl0aG9uJywgJy1waCcsICc3LjAnLCAnLXRuJywgJzgnLCAnLW1hJywgJzIwMCcsICctbWV0YWxfYmluZGluZycsICctaW1hZScsICc8aW5maWxlLm1hZT4nLCAnLW9tYWUnLCAnPG91dGZpbGUubWFlPic=

> <r_lp_tautomer_probability>
1

> <r_epik_Ionization_Penalty>
3.87815e-08

> <r_epik_Ionization_Penalty_Charging>
1.81112e-08

> <r_epik_Ionization_Penalty_Neutral>
2.06703e-08

> <r_epik_State_Penalty>
-0

> <r_epik_Charging_Adjusted_Penalty>
1.81112e-08

> <i_epik_Tot_Q>
0

> <i_epik_Tot_abs_Q>
0

> <r_epik_Metal_State_Penalty>
-0

> <b_epik_Metal_Only>
0

> <s_lp_Force_Field>
OPLS_2005

> <r_lp_Energy>
27.3116

> <b_lp_Chiralities_Consistent>
1

> <s_lp_Variant>
AV-unprocessed.smi:1595-1

> <Gold.Version>
5.8.1

> <Gold.Id.Protein>
6NUR|6NUR_protein|mol2

> <Gold.PLP.Fitness>
45.9040

> <Gold.PLP.PLP>
-40.4257

> <Gold.PLP.part.hbond>
-1.1141

> <Gold.PLP.part.metal>
0.0000

> <Gold.PLP.part.buried>
-4.5730

> <Gold.PLP.part.nonpolar>
-33.7916

> <Gold.PLP.part.repulsive>
0.2602

> <Gold.PLP.ligand.clash>
0.0000

> <Gold.PLP.ligand.torsion>
0.2619

> <Gold.PLP.Chemscore.Hbond>
1.0000

> <Gold.PLP.Chemscore.CHOScore>
0.9767

> <Gold.PLP.Chemscore.Metal>
0.0000

> <Gold.Chemscore.Hbonds>
donor molecule, donor type, donor heavy atom, donor atom, acceptor molecule, acceptor atom, score
      P1  H  7997  8009       L1    14  0.77
      L1  C     5    21       P1  8028  1.00

> <Gold.PLP.Chemscore.Internal.Correction>
0.0719

> <Gold.Rescore>
     Score         DG    S(hbond)    S(metal)    S(lipo)     H(rot)  DE(clash)    DE(int)     intcor
     10.61     -12.68       0.84        0.00      73.01       1.62       0.76       1.31       ----

> <Gold.Chemscore.Fitness>
10.6106

> <Gold.Chemscore.DG>
-12.6805

> <Gold.Chemscore.ZeroCoef>
-5.4800

> <Gold.Chemscore.Hbond>
0.8393

> <Gold.Chemscore.Metal>
0.0000

> <Gold.Chemscore.Lipo>
73.0118

> <Gold.Chemscore.Internal_Hbond>
0.0000

> <Gold.Chemscore.DEClash>
0.7580

> <Gold.Chemscore.DEInternal>
1.3119

> <Gold.Chemscore.Rot>
1.6192

> <Gold.Chemscore.Internal.Correction>
   9.000000E+99

> <Gold.Chemscore.Hbonds>
donor molecule, donor type, donor heavy atom, donor atom, acceptor molecule, acceptor atom, score
      P1  H  7997  8009       L1    14  0.13

> <Gold.Chemscore.Hbond.Weighted>
-2.8033

> <Gold.Chemscore.Metal.Weighted>
-0.0000

> <Gold.Chemscore.Lipo.Weighted>
-8.5424

> <Gold.Chemscore.Internal_Hbond.Weighted>
0.0000

> <Gold.Chemscore.DEClash.Weighted>
0.7580

> <Gold.Chemscore.DEInternal.Weighted>
1.3119

> <Gold.Chemscore.Rot.Weighted>
4.1452

> <Gold.Chemscore.Internal.Correction.Weighted>
   9.000000E+99

> <Gold.Protein.RotatedTorsions>
[ 6907 6896 6895 6894 ] final  -63.93 input  -60.11 | X-H torsion
[ 7974 7965 7964 7962 ] final  178.29 input  175.53 | X-H torsion
[ 8008 7997 7996 7995 ] final -167.61 input   59.86 | X-H torsion
[ 10167 10162 10161 10158 ] final  176.48 input  -65.29 | X-H torsion
[ 10718 10713 10712 10709 ] final   31.15 input   66.30 | X-H torsion
[ 10763 10752 10751 10750 ] final   72.34 input  -60.55 | X-H torsion
[ 11005 11000 10999 10996 ] final   82.31 input  -57.11 | X-H torsion

> <Gold.Protein.ActiveResidues>
 VAL166  LYS551  ARG553  GLY616  TRP617  ASP618  TYR619  PRO620  LYS621  CYS622 
 ASP623  PHE694  ASN695  SER759  ASP760  ASP761  ALA762  ILE779  LEU786  VAL792 
 PHE793  MET794  SER795  GLU796  ALA797  LYS798  CYS799  TRP800  GLU811  SER814 

> <Gold.Protein.RotatedAtoms>
  150.7617  134.6368  159.6215 H   0  0  0  0  0  0  0  0  0  0  0  0  # atno 6907 bound_to 6896
  152.3628  134.6844  160.0210 H   0  0  0  0  0  0  0  0  0  0  0  0  # atno 6908 bound_to 6896
  151.7228  133.3279  159.3356 H   0  0  0  0  0  0  0  0  0  0  0  0  # atno 6909 bound_to 6896
  144.7158  140.0376  143.6438 H   0  0  0  0  0  0  0  0  0  0  0  0  # atno 7974 bound_to 7965
  155.8801  140.1007  157.1491 H   0  0  0  0  0  0  0  0  0  0  0  0  # atno 8008 bound_to 7997
  154.4004  140.1330  156.4249 H   0  0  0  0  0  0  0  0  0  0  0  0  # atno 8009 bound_to 7997
  155.7653  140.3462  155.5221 H   0  0  0  0  0  0  0  0  0  0  0  0  # atno 8010 bound_to 7997
  139.5216  144.2910  152.0463 H   0  0  0  0  0  0  0  0  0  0  0  0  # atno 10167 bound_to 10162
  157.2688  130.7197  149.6493 H   0  0  0  0  0  0  0  0  0  0  0  0  # atno 10718 bound_to 10713
  153.0453  135.5103  154.7730 H   0  0  0  0  0  0  0  0  0  0  0  0  # atno 10763 bound_to 10752
  154.6635  135.2942  154.9838 H   0  0  0  0  0  0  0  0  0  0  0  0  # atno 10764 bound_to 10752
  154.0681  135.6681  153.4873 H   0  0  0  0  0  0  0  0  0  0  0  0  # atno 10765 bound_to 10752
  139.9068  134.8062  156.2157 H   0  0  0  0  0  0  0  0  0  0  0  0  # atno 11005 bound_to 11000
  146.0050  139.3122  143.0904 LP  0  0  0  0  0  0  0  0  0  0  0  0  # atno 17320 bound_to 7965
  145.8748  140.9398  143.0632 LP  0  0  0  0  0  0  0  0  0  0  0  0  # atno 17321 bound_to 7965
  140.2362  144.4317  150.6279 LP  0  0  0  0  0  0  0  0  0  0  0  0  # atno 17342 bound_to 10162
  140.6322  143.2189  151.6471 LP  0  0  0  0  0  0  0  0  0  0  0  0  # atno 17343 bound_to 10162
  155.9663  130.4374  150.5175 LP  0  0  0  0  0  0  0  0  0  0  0  0  # atno 17370 bound_to 10713
  157.3095  131.0661  151.2011 LP  0  0  0  0  0  0  0  0  0  0  0  0  # atno 17371 bound_to 10713
  141.0437  133.6924  156.1644 LP  0  0  0  0  0  0  0  0  0  0  0  0  # atno 17394 bound_to 11000
  140.6916  134.4659  157.5588 LP  0  0  0  0  0  0  0  0  0  0  0  0  # atno 17395 bound_to 11000

$$$$
