AV-unprocessed.smi:249|AV-procd|sdf|1916|dock8
  -GOLD-   2262021 13D 1   1.00000     0.00000
 Structure written by MMmdl.
 64 67  0  0  0  0  0  0  0  0  2 V2000
  149.7860  131.4618  158.0717 C   0  0  0  0  0  0  0  0  0  0  0  0
  149.2498  131.9130  156.7043 C   0  0  0  0  0  0  0  0  0  0  0  0
  150.3307  132.2721  155.7393 N   0  3  2  0  0  0  0  0  0  0  0  0
  151.3651  133.1886  156.2977 C   0  0  0  0  0  0  0  0  0  0  0  0
  150.8386  134.6284  156.4519 C   0  0  0  0  0  0  0  0  0  0  0  0
  150.3038  135.1622  155.1084 C   0  0  2  0  0  0  0  0  0  0  0  0
  149.7976  136.5357  155.2101 N   0  0  0  0  0  0  0  0  0  0  0  0
  148.5614  136.8047  155.9446 C   0  0  0  0  0  0  0  0  0  0  0  0
  150.7529  137.5000  155.2563 C   0  0  0  0  0  0  0  0  0  0  0  0
  151.8483  137.4021  154.4562 N   0  0  0  0  0  0  0  0  0  0  0  0
  152.7853  138.3544  154.4755 C   0  0  0  0  0  0  0  0  0  0  0  0
  152.8233  139.4721  155.2028 N   0  0  0  0  0  0  0  0  0  0  0  0
  151.7299  139.5752  156.0107 C   0  0  0  0  0  0  0  0  0  0  0  0
  150.6611  138.6398  156.1043 C   0  0  0  0  0  0  0  0  0  0  0  0
  149.7374  139.0696  157.0502 N   0  0  0  0  0  0  0  0  0  0  0  0
  150.2269  140.1990  157.4836 C   0  0  0  0  0  0  0  0  0  0  0  0
  151.4072  140.5919  156.8933 N   0  0  0  0  0  0  0  0  0  0  0  0
  152.1617  141.7971  157.1893 C   0  0  0  0  0  0  0  0  0  0  0  0
  152.7785  141.8563  158.6155 C   0  0  2  0  0  0  0  0  0  0  0  0
  152.7924  140.4298  159.2173 C   0  0  0  0  0  0  0  0  0  0  0  0
  153.9942  139.7523  158.9122 O   0  0  0  0  0  0  0  0  0  0  0  0
  152.0597  142.8622  159.5653 C   0  0  2  0  0  0  0  0  0  0  0  0
  152.2755  144.3395  159.2654 C   0  0  0  0  0  0  0  0  0  0  0  0
  151.9053  145.0196  160.5791 C   0  0  0  0  0  0  0  0  0  0  0  0
  152.1837  144.0736  161.6017 O   0  0  0  0  0  0  0  0  0  0  0  0
  152.5529  142.8305  161.0185 C   0  0  0  0  0  0  0  0  0  0  0  0
  149.2667  134.1876  154.5170 C   0  0  0  0  0  0  0  0  0  0  0  0
  149.8579  132.7665  154.4093 C   0  0  2  0  0  0  0  0  0  0  0  0
  148.9154  131.7880  153.6859 C   0  0  0  0  0  0  0  0  0  0  0  0
  148.9770  131.0629  158.6842 H   0  0  0  0  0  0  0  0  0  0  0  0
  150.2303  132.2833  158.6325 H   0  0  0  0  0  0  0  0  0  0  0  0
  150.5346  130.6761  157.9649 H   0  0  0  0  0  0  0  0  0  0  0  0
  148.6704  131.0790  156.3136 H   0  0  0  0  0  0  0  0  0  0  0  0
  148.5482  132.7372  156.8307 H   0  0  0  0  0  0  0  0  0  0  0  0
  151.7537  132.8211  157.2458 H   0  0  0  0  0  0  0  0  0  0  0  0
  152.2198  133.1925  155.6195 H   0  0  0  0  0  0  0  0  0  0  0  0
  150.0615  134.6595  157.2156 H   0  0  0  0  0  0  0  0  0  0  0  0
  151.6433  135.2705  156.8123 H   0  0  0  0  0  0  0  0  0  0  0  0
  151.1479  135.1562  154.4195 H   0  0  0  0  0  0  0  0  0  0  0  0
  148.2363  137.8342  155.7892 H   0  0  0  0  0  0  0  0  0  0  0  0
  148.6990  136.6492  157.0149 H   0  0  0  0  0  0  0  0  0  0  0  0
  147.7517  136.1597  155.6070 H   0  0  0  0  0  0  0  0  0  0  0  0
  153.6224  138.2013  153.8103 H   0  0  0  0  0  0  0  0  0  0  0  0
  149.7290  140.7876  158.2403 H   0  0  0  0  0  0  0  0  0  0  0  0
  152.9502  141.9041  156.4433 H   0  0  0  0  0  0  0  0  0  0  0  0
  151.4814  142.6343  157.0316 H   0  0  0  0  0  0  0  0  0  0  0  0
  153.8187  142.1725  158.5318 H   0  0  0  0  0  0  0  0  0  0  0  0
  152.7220  140.4518  160.3036 H   0  0  0  0  0  0  0  0  0  0  0  0
  151.9458  139.8469  158.8530 H   0  0  0  0  0  0  0  0  0  0  0  0
  154.0014  138.9285  159.3752 H   0  0  0  0  0  0  0  0  0  0  0  0
  150.9878  142.6587  159.5630 H   0  0  0  0  0  0  0  0  0  0  0  0
  153.3233  144.5306  159.0286 H   0  0  0  0  0  0  0  0  0  0  0  0
  151.6658  144.7177  158.4475 H   0  0  0  0  0  0  0  0  0  0  0  0
  152.4567  145.9473  160.7338 H   0  0  0  0  0  0  0  0  0  0  0  0
  150.8396  145.2504  160.6027 H   0  0  0  0  0  0  0  0  0  0  0  0
  152.1305  142.0032  161.5892 H   0  0  0  0  0  0  0  0  0  0  0  0
  153.6402  142.7466  161.0544 H   0  0  0  0  0  0  0  0  0  0  0  0
  148.3615  134.1618  155.1229 H   0  0  0  0  0  0  0  0  0  0  0  0
  148.9651  134.5372  153.5288 H   0  0  0  0  0  0  0  0  0  0  0  0
  150.7485  132.8320  153.7818 H   0  0  0  0  0  0  0  0  0  0  0  0
  148.7746  132.0903  152.6477 H   0  0  0  0  0  0  0  0  0  0  0  0
  147.9253  131.7543  154.1406 H   0  0  0  0  0  0  0  0  0  0  0  0
  149.3232  130.7768  153.6784 H   0  0  0  0  0  0  0  0  0  0  0  0
  150.8085  131.4031  155.5479 H   0  0  0  0  0  0  0  0  0  0  0  0
  1  2  1  0  0  0  0
  1 30  1  0  0  0  0
  1 31  1  0  0  0  0
  1 32  1  0  0  0  0
  2  3  1  0  0  0  0
  2 33  1  0  0  0  0
  2 34  1  0  0  0  0
  3 28  1  0  0  0  0
  3  4  1  0  0  0  0
  3 64  1  0  0  0  0
  4  5  1  0  0  0  0
  4 35  1  0  0  0  0
  4 36  1  0  0  0  0
  5  6  1  0  0  0  0
  5 37  1  0  0  0  0
  5 38  1  0  0  0  0
  6  7  1  0  0  0  0
  6 27  1  0  0  0  0
  6 39  1  0  0  0  0
  7  8  1  0  0  0  0
  7  9  1  0  0  0  0
  8 40  1  0  0  0  0
  8 41  1  0  0  0  0
  8 42  1  0  0  0  0
  9 14  1  0  0  0  0
  9 10  2  0  0  0  0
 10 11  1  0  0  0  0
 11 12  2  0  0  0  0
 11 43  1  0  0  0  0
 12 13  1  0  0  0  0
 13 17  1  0  0  0  0
 13 14  2  0  0  0  0
 14 15  1  0  0  0  0
 15 16  2  0  0  0  0
 16 17  1  0  0  0  0
 16 44  1  0  0  0  0
 17 18  1  0  0  0  0
 18 19  1  0  0  0  0
 18 45  1  0  0  0  0
 18 46  1  0  0  0  0
 19 20  1  0  0  0  0
 19 22  1  0  0  0  0
 19 47  1  0  0  0  0
 20 21  1  0  0  0  0
 20 48  1  0  0  0  0
 20 49  1  0  0  0  0
 21 50  1  0  0  0  0
 22 26  1  0  0  0  0
 22 23  1  0  0  0  0
 22 51  1  0  0  0  0
 23 24  1  0  0  0  0
 23 52  1  0  0  0  0
 23 53  1  0  0  0  0
 24 25  1  0  0  0  0
 24 54  1  0  0  0  0
 24 55  1  0  0  0  0
 25 26  1  0  0  0  0
 26 56  1  0  0  0  0
 26 57  1  0  0  0  0
 27 28  1  0  0  0  0
 27 58  1  0  0  0  0
 27 59  1  0  0  0  0
 28 29  1  0  0  0  0
 28 60  1  0  0  0  0
 29 61  1  0  0  0  0
 29 62  1  0  0  0  0
 29 63  1  0  0  0  0
M  CHG  1   3   1
M  END
> <s_m_source_file>
AV-unprocessed.smi

> <i_m_source_file_index>
249

> <i_lp_mmshare_version>
43012

> <i_f3d_flags>
0

> <s_epik_input>
W0NIM11bQ0gyXU4xW0NIMl1bQ0gyXVtDQEhdKFtDSDJdW0NASF0xW0NIM10pTihbQ0gzXSljKG5bY0hdbjIpYyhjMjMpbltjSF1uM1tDSDJdW0NASF0oW0NIMl1bT0hdKVtDQEBIXTRbQ0gyXVtDSDJdT1tDSDJdNA==

> <s_epik_cmdline>
J2VwaWtfcHl0aG9uJywgJy1waCcsICc3LjAnLCAnLXRuJywgJzgnLCAnLW1hJywgJzIwMCcsICctbWV0YWxfYmluZGluZycsICctaW1hZScsICc8aW5maWxlLm1hZT4nLCAnLW9tYWUnLCAnPG91dGZpbGUubWFlPic=

> <r_lp_tautomer_probability>
1

> <r_epik_Ionization_Penalty>
0.00294688

> <r_epik_Ionization_Penalty_Charging>
0.00169971

> <r_epik_Ionization_Penalty_Neutral>
0.00124717

> <r_epik_State_Penalty>
-0

> <r_epik_Charging_Adjusted_Penalty>
0.00169971

> <i_epik_Tot_Q>
1

> <i_epik_Tot_abs_Q>
1

> <r_epik_Metal_State_Penalty>
-0

> <b_epik_Metal_Only>
0

> <s_lp_Force_Field>
OPLS_2005

> <r_lp_Energy>
55.1027

> <b_lp_Chiralities_Consistent>
1

> <s_lp_Variant>
AV-unprocessed.smi:249-19

> <Gold.Version>
5.8.1

> <Gold.Id.Protein>
6NUR|6NUR_protein|mol2

> <Gold.PLP.Fitness>
52.0582

> <Gold.PLP.PLP>
-46.7191

> <Gold.PLP.part.hbond>
-3.5077

> <Gold.PLP.part.metal>
0.0000

> <Gold.PLP.part.buried>
-9.2707

> <Gold.PLP.part.nonpolar>
-33.0524

> <Gold.PLP.part.repulsive>
0.3424

> <Gold.PLP.ligand.clash>
0.0000

> <Gold.PLP.ligand.torsion>
1.9451

> <Gold.PLP.Chemscore.Hbond>
2.6659

> <Gold.PLP.Chemscore.CHOScore>
0.0000

> <Gold.PLP.Chemscore.Metal>
0.0000

> <Gold.Chemscore.Hbonds>
donor molecule, donor type, donor heavy atom, donor atom, acceptor molecule, acceptor atom, score
      P1  H  7997  8008       L1    12  1.00
      P1  H  7997  8010       L1    21  1.00
      P1  H 10752 10764       L1    10  0.70

> <Gold.PLP.Chemscore.Internal.Correction>
1.2316

> <Gold.Rescore>
     Score         DG    S(hbond)    S(metal)    S(lipo)     H(rot)  DE(clash)    DE(int)     intcor
     14.41     -19.32       2.05        0.00     117.69       2.65       1.50       3.42       ----

> <Gold.Chemscore.Fitness>
14.4097

> <Gold.Chemscore.DG>
-19.3207

> <Gold.Chemscore.ZeroCoef>
-5.4800

> <Gold.Chemscore.Hbond>
2.0534

> <Gold.Chemscore.Metal>
0.0000

> <Gold.Chemscore.Lipo>
117.6945

> <Gold.Chemscore.Internal_Hbond>
0.0000

> <Gold.Chemscore.DEClash>
1.4952

> <Gold.Chemscore.DEInternal>
3.4158

> <Gold.Chemscore.Rot>
2.6515

> <Gold.Chemscore.Internal.Correction>
   9.000000E+99

> <Gold.Chemscore.Hbonds>
donor molecule, donor type, donor heavy atom, donor atom, acceptor molecule, acceptor atom, score
      P1  H  7997  8008       L1    12  0.89
      P1  H  7997  8010       L1    21  0.92
      P1  H 10752 10764       L1    10  0.17

> <Gold.Chemscore.Hbond.Weighted>
-6.8584

> <Gold.Chemscore.Metal.Weighted>
-0.0000

> <Gold.Chemscore.Lipo.Weighted>
-13.7703

> <Gold.Chemscore.Internal_Hbond.Weighted>
0.0000

> <Gold.Chemscore.DEClash.Weighted>
1.4952

> <Gold.Chemscore.DEInternal.Weighted>
3.4158

> <Gold.Chemscore.Rot.Weighted>
6.7880

> <Gold.Chemscore.Internal.Correction.Weighted>
   9.000000E+99

> <Gold.Protein.RotatedTorsions>
[ 6907 6896 6895 6894 ] final  -46.58 input  -60.11 | X-H torsion
[ 7974 7965 7964 7962 ] final -157.49 input  175.53 | X-H torsion
[ 8008 7997 7996 7995 ] final   -0.89 input   59.86 | X-H torsion
[ 10167 10162 10161 10158 ] final  154.06 input  -65.29 | X-H torsion
[ 10718 10713 10712 10709 ] final    1.68 input   66.30 | X-H torsion
[ 10763 10752 10751 10750 ] final  -94.05 input  -60.55 | X-H torsion
[ 11005 11000 10999 10996 ] final   49.94 input  -57.11 | X-H torsion

> <Gold.Protein.ActiveResidues>
 VAL166  LYS551  ARG553  GLY616  TRP617  ASP618  TYR619  PRO620  LYS621  CYS622 
 ASP623  PHE694  ASN695  SER759  ASP760  ASP761  ALA762  ILE779  LEU786  VAL792 
 PHE793  MET794  SER795  GLU796  ALA797  LYS798  CYS799  TRP800  GLU811  SER814 

> <Gold.Protein.RotatedAtoms>
  150.9098  134.8514  159.7417 H   0  0  0  0  0  0  0  0  0  0  0  0  # atno 6907 bound_to 6896
  152.4938  134.4376  159.9543 H   0  0  0  0  0  0  0  0  0  0  0  0  # atno 6908 bound_to 6896
  151.4420  133.3601  159.2818 H   0  0  0  0  0  0  0  0  0  0  0  0  # atno 6909 bound_to 6896
  144.7546  140.3961  143.6022 H   0  0  0  0  0  0  0  0  0  0  0  0  # atno 7974 bound_to 7965
  154.6530  140.2573  155.7193 H   0  0  0  0  0  0  0  0  0  0  0  0  # atno 8008 bound_to 7997
  156.2584  140.2864  156.0892 H   0  0  0  0  0  0  0  0  0  0  0  0  # atno 8009 bound_to 7997
  155.1423  140.0380  157.2791 H   0  0  0  0  0  0  0  0  0  0  0  0  # atno 8010 bound_to 7997
  139.4824  144.5219  151.7862 H   0  0  0  0  0  0  0  0  0  0  0  0  # atno 10167 bound_to 10162
  156.8518  130.5556  149.5669 H   0  0  0  0  0  0  0  0  0  0  0  0  # atno 10718 bound_to 10713
  154.7018  135.5172  153.8538 H   0  0  0  0  0  0  0  0  0  0  0  0  # atno 10763 bound_to 10752
  153.0710  135.6601  154.0257 H   0  0  0  0  0  0  0  0  0  0  0  0  # atno 10764 bound_to 10752
  154.0114  135.3002  155.3371 H   0  0  0  0  0  0  0  0  0  0  0  0  # atno 10765 bound_to 10752
  140.1060  134.5018  155.8719 H   0  0  0  0  0  0  0  0  0  0  0  0  # atno 11005 bound_to 11000
  145.6824  139.1621  143.2693 LP  0  0  0  0  0  0  0  0  0  0  0  0  # atno 17320 bound_to 7965
  146.1540  140.6884  142.9308 LP  0  0  0  0  0  0  0  0  0  0  0  0  # atno 17321 bound_to 7965
  140.4734  144.1554  150.5921 LP  0  0  0  0  0  0  0  0  0  0  0  0  # atno 17342 bound_to 10162
  140.4357  143.2548  151.9538 LP  0  0  0  0  0  0  0  0  0  0  0  0  # atno 17343 bound_to 10162
  156.0824  130.5831  150.9587 LP  0  0  0  0  0  0  0  0  0  0  0  0  # atno 17370 bound_to 10713
  157.6299  131.0922  150.8462 LP  0  0  0  0  0  0  0  0  0  0  0  0  # atno 17371 bound_to 10713
  141.2118  133.6711  156.6612 LP  0  0  0  0  0  0  0  0  0  0  0  0  # atno 17394 bound_to 11000
  140.3155  134.8051  157.4211 LP  0  0  0  0  0  0  0  0  0  0  0  0  # atno 17395 bound_to 11000

$$$$
