AV-unprocessed.smi:36|AV-procd|sdf|280|dock7
  -GOLD-   2262016 53D 1   1.00000     0.00000
 Structure written by MMmdl.
 64 67  0  0  0  0  0  0  0  0  1 V2000
  148.2002  132.6155  160.8612 C   0  0  0  0  0  0  0  0  0  0  0  0
  147.0428  133.6283  160.8533 C   0  0  0  0  0  0  0  0  0  0  0  0
  145.7564  132.9344  160.3744 C   0  0  0  0  0  0  0  0  0  0  0  0
  146.8333  134.1861  162.2708 C   0  0  0  0  0  0  0  0  0  0  0  0
  147.4813  135.0692  159.6709 Si  0  0  0  0  0  0  0  0  0  0  0  0
  145.9183  136.0450  159.2085 C   0  0  0  0  0  0  0  0  0  0  0  0
  148.7568  136.2349  160.4659 C   0  0  0  0  0  0  0  0  0  0  0  0
  148.1338  134.4385  158.2406 O   0  0  0  0  0  0  0  0  0  0  0  0
  147.3458  133.9031  157.1971 C   0  0  0  0  0  0  0  0  0  0  0  0
  148.2339  133.4925  156.0073 C   0  0  1  0  0  0  0  0  0  0  0  0
  148.7482  134.6909  155.4250 O   0  0  0  0  0  0  0  0  0  0  0  0
  150.1141  134.8205  155.6917 C   0  0  1  0  0  0  0  0  0  0  0  0
  150.3576  136.1814  156.2504 N   0  0  0  0  0  0  0  0  0  0  0  0
  149.9642  136.7001  157.4651 C   0  0  0  0  0  0  0  0  0  0  0  0
  150.3210  137.9372  157.6854 N   0  0  0  0  0  0  0  0  0  0  0  0
  151.0160  138.2957  156.5373 C   0  0  0  0  0  0  0  0  0  0  0  0
  151.6649  139.4832  156.1115 C   0  0  0  0  0  0  0  0  0  0  0  0
  151.6686  140.5764  156.9092 N   0  0  0  0  0  0  0  0  0  0  0  0
  152.5254  140.8531  158.0486 C   0  0  0  0  0  0  0  0  0  0  0  0
  153.3203  140.0219  158.4884 O   0  0  0  0  0  0  0  0  0  0  0  0
  152.3257  142.1834  158.7144 C   0  0  0  0  0  0  0  0  0  0  0  0
  151.7381  143.2515  157.9995 C   0  0  0  0  0  0  0  0  0  0  0  0
  151.5259  144.4961  158.6240 C   0  0  0  0  0  0  0  0  0  0  0  0
  151.8919  144.6807  159.9706 C   0  0  0  0  0  0  0  0  0  0  0  0
  152.4677  143.6191  160.6934 C   0  0  0  0  0  0  0  0  0  0  0  0
  152.6820  142.3746  160.0697 C   0  0  0  0  0  0  0  0  0  0  0  0
  152.2591  139.4675  154.8890 N   0  0  0  0  0  0  0  0  0  0  0  0
  152.2210  138.3634  154.1363 C   0  0  0  0  0  0  0  0  0  0  0  0
  151.6496  137.1877  154.4075 N   0  0  0  0  0  0  0  0  0  0  0  0
  151.0492  137.1993  155.6323 C   0  0  0  0  0  0  0  0  0  0  0  0
  150.4818  133.7507  156.7164 C   0  0  0  0  0  0  0  0  0  0  0  0
  149.4856  132.6718  156.3556 C   0  0  1  0  0  0  0  0  0  0  0  0
  149.3075  131.7439  157.4056 O   0  0  0  0  0  0  0  0  0  0  0  0
  147.9929  131.7823  161.5334 H   0  0  0  0  0  0  0  0  0  0  0  0
  149.1313  133.0771  161.1904 H   0  0  0  0  0  0  0  0  0  0  0  0
  148.3715  132.2001  159.8678 H   0  0  0  0  0  0  0  0  0  0  0  0
  145.8628  132.5534  159.3587 H   0  0  0  0  0  0  0  0  0  0  0  0
  144.9069  133.6160  160.3847 H   0  0  0  0  0  0  0  0  0  0  0  0
  145.5003  132.0910  161.0166 H   0  0  0  0  0  0  0  0  0  0  0  0
  146.5631  133.3959  162.9721 H   0  0  0  0  0  0  0  0  0  0  0  0
  146.0373  134.9304  162.2910 H   0  0  0  0  0  0  0  0  0  0  0  0
  147.7380  134.6627  162.6486 H   0  0  0  0  0  0  0  0  0  0  0  0
  145.4329  136.4672  160.0881 H   0  0  0  0  0  0  0  0  0  0  0  0
  145.1860  135.4159  158.7032 H   0  0  0  0  0  0  0  0  0  0  0  0
  146.1506  136.8726  158.5387 H   0  0  0  0  0  0  0  0  0  0  0  0
  148.3725  136.6838  161.3815 H   0  0  0  0  0  0  0  0  0  0  0  0
  149.0244  137.0503  159.7942 H   0  0  0  0  0  0  0  0  0  0  0  0
  149.6773  135.7113  160.7234 H   0  0  0  0  0  0  0  0  0  0  0  0
  146.8372  133.0221  157.5897 H   0  0  0  0  0  0  0  0  0  0  0  0
  146.5705  134.6071  156.8974 H   0  0  0  0  0  0  0  0  0  0  0  0
  147.6241  132.9745  155.2663 H   0  0  0  0  0  0  0  0  0  0  0  0
  150.6877  134.7616  154.7660 H   0  0  0  0  0  0  0  0  0  0  0  0
  149.3975  136.1324  158.1878 H   0  0  0  0  0  0  0  0  0  0  0  0
  151.0142  141.3043  156.6611 H   0  0  0  0  0  0  0  0  0  0  0  0
  151.4490  143.1249  156.9660 H   0  0  0  0  0  0  0  0  0  0  0  0
  151.0798  145.3084  158.0694 H   0  0  0  0  0  0  0  0  0  0  0  0
  151.7270  145.6343  160.4499 H   0  0  0  0  0  0  0  0  0  0  0  0
  152.7426  143.7576  161.7289 H   0  0  0  0  0  0  0  0  0  0  0  0
  153.1169  141.5708  160.6459 H   0  0  0  0  0  0  0  0  0  0  0  0
  152.7172  138.4336  153.1797 H   0  0  0  0  0  0  0  0  0  0  0  0
  151.5243  133.4472  156.6163 H   0  0  0  0  0  0  0  0  0  0  0  0
  150.3111  134.1250  157.7274 H   0  0  0  0  0  0  0  0  0  0  0  0
  149.8324  132.1413  155.4676 H   0  0  0  0  0  0  0  0  0  0  0  0
  150.1550  131.5328  157.7670 H   0  0  0  0  0  0  0  0  0  0  0  0
  1  2  1  0  0  0  0
  1 34  1  0  0  0  0
  1 35  1  0  0  0  0
  1 36  1  0  0  0  0
  2  3  1  0  0  0  0
  2  4  1  0  0  0  0
  2  5  1  0  0  0  0
  3 37  1  0  0  0  0
  3 38  1  0  0  0  0
  3 39  1  0  0  0  0
  4 40  1  0  0  0  0
  4 41  1  0  0  0  0
  4 42  1  0  0  0  0
  5  6  1  0  0  0  0
  5  7  1  0  0  0  0
  5  8  1  0  0  0  0
  6 43  1  0  0  0  0
  6 44  1  0  0  0  0
  6 45  1  0  0  0  0
  7 46  1  0  0  0  0
  7 47  1  0  0  0  0
  7 48  1  0  0  0  0
  8  9  1  0  0  0  0
  9 10  1  0  0  0  0
  9 49  1  0  0  0  0
  9 50  1  0  0  0  0
 10 32  1  0  0  0  0
 10 11  1  0  0  0  0
 10 51  1  0  0  0  0
 11 12  1  0  0  0  0
 12 13  1  0  0  0  0
 12 31  1  0  0  0  0
 12 52  1  0  0  0  0
 13 30  1  0  0  0  0
 13 14  1  0  0  0  0
 14 15  2  0  0  0  0
 14 53  1  0  0  0  0
 15 16  1  0  0  0  0
 16 30  2  0  0  0  0
 16 17  1  0  0  0  0
 17 18  1  0  0  0  0
 17 27  2  0  0  0  0
 18 19  1  0  0  0  0
 18 54  1  0  0  0  0
 19 20  2  0  0  0  0
 19 21  1  0  0  0  0
 21 26  1  0  0  0  0
 21 22  2  0  0  0  0
 22 23  1  0  0  0  0
 22 55  1  0  0  0  0
 23 24  2  0  0  0  0
 23 56  1  0  0  0  0
 24 25  1  0  0  0  0
 24 57  1  0  0  0  0
 25 26  2  0  0  0  0
 25 58  1  0  0  0  0
 26 59  1  0  0  0  0
 27 28  1  0  0  0  0
 28 29  2  0  0  0  0
 28 60  1  0  0  0  0
 29 30  1  0  0  0  0
 31 32  1  0  0  0  0
 31 61  1  0  0  0  0
 31 62  1  0  0  0  0
 32 33  1  0  0  0  0
 32 63  1  0  0  0  0
 33 64  1  0  0  0  0
M  END
> <s_m_source_file>
AV-unprocessed.smi

> <i_m_source_file_index>
36

> <i_lp_mmshare_version>
43012

> <i_f3d_flags>
0

> <s_epik_input>
W0NIM11DKFtDSDNdKShbQ0gzXSlbU2ldKFtDSDNdKShbQ0gzXSlPW0NIMl1bQ0BASF0xT1tDQEhdKFtDSDJdW0NASF0xW09IXSluKFtjSF1uMiljKGMyMyluW2NIXW5jM1tOSF1DKD1PKWM0W2NIXVtjSF1bY0hdW2NIXVtjSF00

> <s_epik_cmdline>
J2VwaWtfcHl0aG9uJywgJy1waCcsICc3LjAnLCAnLXRuJywgJzgnLCAnLW1hJywgJzIwMCcsICctbWV0YWxfYmluZGluZycsICctaW1hZScsICc8aW5maWxlLm1hZT4nLCAnLW9tYWUnLCAnPG91dGZpbGUubWFlPic=

> <r_lp_tautomer_probability>
1

> <r_epik_Ionization_Penalty>
0.00150433

> <r_epik_Ionization_Penalty_Charging>
0

> <r_epik_Ionization_Penalty_Neutral>
0.00150433

> <r_epik_State_Penalty>
0.00724046

> <r_epik_Charging_Adjusted_Penalty>
0.00724046

> <i_epik_Tot_Q>
0

> <i_epik_Tot_abs_Q>
0

> <r_epik_Metal_State_Penalty>
0.323355

> <b_epik_Metal_Only>
0

> <s_epik_Chemistry_Notes>
This compound contains an acetal/aminal-like group ( X-CH(R)-Y where X, Y are N, S, or O) that may be acid/base labile, releasing an aldehyde.

> <s_lp_Force_Field>
OPLS_2005

> <r_lp_Energy>
33.9603

> <b_lp_Chiralities_Consistent>
1

> <s_lp_Variant>
AV-unprocessed.smi:36-2

> <Gold.Version>
5.8.1

> <Gold.Id.Protein>
6NUR|6NUR_protein|mol2

> <Gold.PLP.Fitness>
51.7695

> <Gold.PLP.PLP>
-47.6099

> <Gold.PLP.part.hbond>
-3.0000

> <Gold.PLP.part.metal>
0.0000

> <Gold.PLP.part.buried>
-7.8331

> <Gold.PLP.part.nonpolar>
-36.7795

> <Gold.PLP.part.repulsive>
0.3770

> <Gold.PLP.ligand.clash>
0.0000

> <Gold.PLP.ligand.torsion>
2.0400

> <Gold.PLP.Chemscore.Hbond>
2.6720

> <Gold.PLP.Chemscore.CHOScore>
0.0000

> <Gold.PLP.Chemscore.Metal>
0.0000

> <Gold.Chemscore.Hbonds>
donor molecule, donor type, donor heavy atom, donor atom, acceptor molecule, acceptor atom, score
      P1  H  7989  7998       L1    27  0.75
      P1  H  7997  8010       L1    20  0.94
      P1  H 10752 10764       L1    29  1.00

> <Gold.PLP.Chemscore.Internal.Correction>
0.2235

> <Gold.Rescore>
     Score         DG    S(hbond)    S(metal)    S(lipo)     H(rot)  DE(clash)    DE(int)     intcor
     11.80     -16.90       1.37        0.00     117.65       2.70       0.14       4.96       ----

> <Gold.Chemscore.Fitness>
11.7991

> <Gold.Chemscore.DG>
-16.9014

> <Gold.Chemscore.ZeroCoef>
-5.4800

> <Gold.Chemscore.Hbond>
1.3710

> <Gold.Chemscore.Metal>
0.0000

> <Gold.Chemscore.Lipo>
117.6468

> <Gold.Chemscore.Internal_Hbond>
0.0000

> <Gold.Chemscore.DEClash>
0.1442

> <Gold.Chemscore.DEInternal>
4.9581

> <Gold.Chemscore.Rot>
2.7041

> <Gold.Chemscore.Internal.Correction>
   9.000000E+99

> <Gold.Chemscore.Hbonds>
donor molecule, donor type, donor heavy atom, donor atom, acceptor molecule, acceptor atom, score
      P1  H  7989  7998       L1    27  0.18
      P1  H  7997  8010       L1    20  0.45
      P1  H 10752 10764       L1    29  0.57

> <Gold.Chemscore.Hbond.Weighted>
-4.5792

> <Gold.Chemscore.Metal.Weighted>
-0.0000

> <Gold.Chemscore.Lipo.Weighted>
-13.7647

> <Gold.Chemscore.Internal_Hbond.Weighted>
0.0000

> <Gold.Chemscore.DEClash.Weighted>
0.1442

> <Gold.Chemscore.DEInternal.Weighted>
4.9581

> <Gold.Chemscore.Rot.Weighted>
6.9225

> <Gold.Chemscore.Internal.Correction.Weighted>
   9.000000E+99

> <Gold.Protein.RotatedTorsions>
[ 6907 6896 6895 6894 ] final  144.67 input  -60.11 | X-H torsion
[ 7974 7965 7964 7962 ] final   -9.61 input  175.53 | X-H torsion
[ 8008 7997 7996 7995 ] final   17.20 input   59.86 | X-H torsion
[ 10167 10162 10161 10158 ] final   65.40 input  -65.29 | X-H torsion
[ 10718 10713 10712 10709 ] final   -1.65 input   66.30 | X-H torsion
[ 10763 10752 10751 10750 ] final  -75.16 input  -60.55 | X-H torsion
[ 11005 11000 10999 10996 ] final  121.32 input  -57.11 | X-H torsion

> <Gold.Protein.ActiveResidues>
 VAL166  LYS551  ARG553  GLY616  TRP617  ASP618  TYR619  PRO620  LYS621  CYS622 
 ASP623  PHE694  ASN695  SER759  ASP760  ASP761  ALA762  ILE779  LEU786  VAL792 
 PHE793  MET794  SER795  GLU796  ALA797  LYS798  CYS799  TRP800  GLU811  SER814 

> <Gold.Protein.RotatedAtoms>
  152.1907  133.4771  159.5006 H   0  0  0  0  0  0  0  0  0  0  0  0  # atno 6907 bound_to 6896
  150.6950  134.1716  159.4223 H   0  0  0  0  0  0  0  0  0  0  0  0  # atno 6908 bound_to 6896
  151.9631  135.0113  160.0599 H   0  0  0  0  0  0  0  0  0  0  0  0  # atno 6909 bound_to 6896
  146.2246  140.2642  142.8353 H   0  0  0  0  0  0  0  0  0  0  0  0  # atno 7974 bound_to 7965
  154.8880  140.2983  155.5387 H   0  0  0  0  0  0  0  0  0  0  0  0  # atno 8008 bound_to 7997
  156.3021  140.2430  156.3826 H   0  0  0  0  0  0  0  0  0  0  0  0  # atno 8009 bound_to 7997
  154.8647  140.0404  157.1676 H   0  0  0  0  0  0  0  0  0  0  0  0  # atno 8010 bound_to 7997
  140.1117  144.4812  150.6974 H   0  0  0  0  0  0  0  0  0  0  0  0  # atno 10167 bound_to 10162
  156.8024  130.5397  149.5720 H   0  0  0  0  0  0  0  0  0  0  0  0  # atno 10718 bound_to 10713
  154.4828  135.5840  153.6402 H   0  0  0  0  0  0  0  0  0  0  0  0  # atno 10763 bound_to 10752
  152.9850  135.6094  154.3224 H   0  0  0  0  0  0  0  0  0  0  0  0  # atno 10764 bound_to 10752
  154.3117  135.2845  155.2542 H   0  0  0  0  0  0  0  0  0  0  0  0  # atno 10765 bound_to 10752
  139.9221  134.9638  156.7941 H   0  0  0  0  0  0  0  0  0  0  0  0  # atno 11005 bound_to 11000
  144.9316  140.7981  143.5685 LP  0  0  0  0  0  0  0  0  0  0  0  0  # atno 17320 bound_to 7965
  145.2586  139.2001  143.4904 LP  0  0  0  0  0  0  0  0  0  0  0  0  # atno 17321 bound_to 7965
  140.6922  143.2382  151.5100 LP  0  0  0  0  0  0  0  0  0  0  0  0  # atno 17342 bound_to 10162
  139.5616  144.2144  152.1699 LP  0  0  0  0  0  0  0  0  0  0  0  0  # atno 17343 bound_to 10162
  156.1093  130.6028  151.0021 LP  0  0  0  0  0  0  0  0  0  0  0  0  # atno 17370 bound_to 10713
  157.6547  131.0891  150.7974 LP  0  0  0  0  0  0  0  0  0  0  0  0  # atno 17371 bound_to 10713
  140.6443  133.9789  155.7723 LP  0  0  0  0  0  0  0  0  0  0  0  0  # atno 17394 bound_to 11000
  141.0750  134.0148  157.3470 LP  0  0  0  0  0  0  0  0  0  0  0  0  # atno 17395 bound_to 11000

$$$$
