AV-unprocessed.smi:243|AV-procd|sdf|1849|dock3
  -GOLD-   2262020473D 1   1.00000     0.00000
 Structure written by MMmdl.
 58 61  0  0  0  0  0  0  0  0  2 V2000
  146.5490  128.3483  151.9738 C   0  0  0  0  0  0  0  0  0  0  0  0
  145.9445  129.7497  152.1447 C   0  0  0  0  0  0  0  0  0  0  0  0
  146.9783  130.8057  152.2933 N   0  3  1  0  0  0  0  0  0  0  0  0
  146.4304  132.1604  152.0279 C   0  0  0  0  0  0  0  0  0  0  0  0
  147.5230  133.2467  152.0762 C   0  0  0  0  0  0  0  0  0  0  0  0
  148.4248  133.1935  153.3274 C   0  0  1  0  0  0  0  0  0  0  0  0
  147.8799  133.9265  154.4853 N   0  0  0  0  0  0  0  0  0  0  0  0
  146.6713  133.5395  155.2078 C   0  0  0  0  0  0  0  0  0  0  0  0
  148.6527  134.8882  155.0526 C   0  0  0  0  0  0  0  0  0  0  0  0
  149.8582  134.5288  155.5664 N   0  0  0  0  0  0  0  0  0  0  0  0
  150.6544  135.4450  156.1251 C   0  0  0  0  0  0  0  0  0  0  0  0
  150.4434  136.7536  156.2743 N   0  0  0  0  0  0  0  0  0  0  0  0
  149.2319  137.1212  155.7677 C   0  0  0  0  0  0  0  0  0  0  0  0
  148.2845  136.2625  155.1408 C   0  0  0  0  0  0  0  0  0  0  0  0
  147.1675  136.9963  154.7564 N   0  0  0  0  0  0  0  0  0  0  0  0
  147.4445  138.2175  155.1220 C   0  0  0  0  0  0  0  0  0  0  0  0
  148.6587  138.3810  155.7488 N   0  0  0  0  0  0  0  0  0  0  0  0
  149.2135  139.6247  156.2595 C   0  0  0  0  0  0  0  0  0  0  0  0
  150.4226  140.1547  155.4470 C   0  0  1  0  0  0  0  0  0  0  0  0
  150.0868  140.2175  154.0740 O   0  0  0  0  0  0  0  0  0  0  0  0
  150.8741  141.5259  155.9232 C   0  0  0  0  0  0  0  0  0  0  0  0
  151.8180  141.1954  157.0783 C   0  0  0  0  0  0  0  0  0  0  0  0
  152.3191  139.8867  156.8189 O   0  0  0  0  0  0  0  0  0  0  0  0
  151.7166  139.3557  155.6439 C   0  0  0  0  0  0  0  0  0  0  0  0
  148.8710  131.7415  153.6265 C   0  0  1  0  0  0  0  0  0  0  0  0
  149.7241  131.6117  154.9002 C   0  0  0  0  0  0  0  0  0  0  0  0
  147.6961  130.7446  153.5936 C   0  0  0  0  0  0  0  0  0  0  0  0
  145.7666  127.6185  151.7641 H   0  0  0  0  0  0  0  0  0  0  0  0
  147.0689  128.0119  152.8703 H   0  0  0  0  0  0  0  0  0  0  0  0
  147.2548  128.3217  151.1431 H   0  0  0  0  0  0  0  0  0  0  0  0
  145.3434  129.9588  151.2586 H   0  0  0  0  0  0  0  0  0  0  0  0
  145.2591  129.7732  152.9934 H   0  0  0  0  0  0  0  0  0  0  0  0
  145.9774  132.1748  151.0361 H   0  0  0  0  0  0  0  0  0  0  0  0
  145.6224  132.3725  152.7244 H   0  0  0  0  0  0  0  0  0  0  0  0
  148.1593  133.1119  151.2006 H   0  0  0  0  0  0  0  0  0  0  0  0
  147.0805  134.2377  151.9676 H   0  0  0  0  0  0  0  0  0  0  0  0
  149.3436  133.7040  153.0369 H   0  0  0  0  0  0  0  0  0  0  0  0
  146.3110  134.3572  155.8336 H   0  0  0  0  0  0  0  0  0  0  0  0
  146.8630  132.6840  155.8547 H   0  0  0  0  0  0  0  0  0  0  0  0
  145.8584  133.2873  154.5346 H   0  0  0  0  0  0  0  0  0  0  0  0
  151.5954  135.0775  156.5074 H   0  0  0  0  0  0  0  0  0  0  0  0
  146.7621  139.0375  154.9511 H   0  0  0  0  0  0  0  0  0  0  0  0
  148.4173  140.3700  156.2757 H   0  0  0  0  0  0  0  0  0  0  0  0
  149.4965  139.4627  157.3001 H   0  0  0  0  0  0  0  0  0  0  0  0
  149.1520  140.3321  153.9979 H   0  0  0  0  0  0  0  0  0  0  0  0
  151.4384  142.0341  155.1393 H   0  0  0  0  0  0  0  0  0  0  0  0
  150.0520  142.1801  156.2155 H   0  0  0  0  0  0  0  0  0  0  0  0
  152.6289  141.9192  157.1645 H   0  0  0  0  0  0  0  0  0  0  0  0
  151.2790  141.1800  158.0259 H   0  0  0  0  0  0  0  0  0  0  0  0
  151.5735  138.2786  155.7117 H   0  0  0  0  0  0  0  0  0  0  0  0
  152.4048  139.5373  154.8166 H   0  0  0  0  0  0  0  0  0  0  0  0
  149.5264  131.4543  152.8023 H   0  0  0  0  0  0  0  0  0  0  0  0
  149.1424  131.8063  155.8007 H   0  0  0  0  0  0  0  0  0  0  0  0
  150.5588  132.3131  154.8859 H   0  0  0  0  0  0  0  0  0  0  0  0
  150.1407  130.6083  154.9914 H   0  0  0  0  0  0  0  0  0  0  0  0
  146.9981  130.9247  154.4102 H   0  0  0  0  0  0  0  0  0  0  0  0
  148.0925  129.7415  153.7461 H   0  0  0  0  0  0  0  0  0  0  0  0
  147.6651  130.6359  151.5723 H   0  0  0  0  0  0  0  0  0  0  0  0
  1  2  1  0  0  0  0
  1 28  1  0  0  0  0
  1 29  1  0  0  0  0
  1 30  1  0  0  0  0
  2  3  1  0  0  0  0
  2 31  1  0  0  0  0
  2 32  1  0  0  0  0
  3 27  1  0  0  0  0
  3  4  1  0  0  0  0
  3 58  1  0  0  0  0
  4  5  1  0  0  0  0
  4 33  1  0  0  0  0
  4 34  1  0  0  0  0
  5  6  1  0  0  0  0
  5 35  1  0  0  0  0
  5 36  1  0  0  0  0
  6  7  1  0  0  0  0
  6 25  1  0  0  0  0
  6 37  1  0  0  0  0
  7  8  1  0  0  0  0
  7  9  1  0  0  0  0
  8 38  1  0  0  0  0
  8 39  1  0  0  0  0
  8 40  1  0  0  0  0
  9 14  1  0  0  0  0
  9 10  2  0  0  0  0
 10 11  1  0  0  0  0
 11 12  2  0  0  0  0
 11 41  1  0  0  0  0
 12 13  1  0  0  0  0
 13 17  1  0  0  0  0
 13 14  2  0  0  0  0
 14 15  1  0  0  0  0
 15 16  2  0  0  0  0
 16 17  1  0  0  0  0
 16 42  1  0  0  0  0
 17 18  1  0  0  0  0
 18 19  1  0  0  0  0
 18 43  1  0  0  0  0
 18 44  1  0  0  0  0
 19 24  1  0  0  0  0
 19 20  1  0  0  0  0
 19 21  1  0  0  0  0
 20 45  1  0  0  0  0
 21 22  1  0  0  0  0
 21 46  1  0  0  0  0
 21 47  1  0  0  0  0
 22 23  1  0  0  0  0
 22 48  1  0  0  0  0
 22 49  1  0  0  0  0
 23 24  1  0  0  0  0
 24 50  1  0  0  0  0
 24 51  1  0  0  0  0
 25 26  1  0  0  0  0
 25 27  1  0  0  0  0
 25 52  1  0  0  0  0
 26 53  1  0  0  0  0
 26 54  1  0  0  0  0
 26 55  1  0  0  0  0
 27 56  1  0  0  0  0
 27 57  1  0  0  0  0
M  CHG  1   3   1
M  END
> <s_m_source_file>
AV-unprocessed.smi

> <i_m_source_file_index>
243

> <i_lp_mmshare_version>
43012

> <i_f3d_flags>
0

> <s_epik_input>
W0NIM11bQ0gyXU4xW0NIMl1bQ0gyXVtDQEhdKFtDQEBIXShbQ0gzXSlbQ0gyXTEpTihbQ0gzXSljKG5bY0hdbjIpYyhjMjMpbltjSF1uM1tDSDJdW0NAQF00KFtPSF0pW0NIMl1bQ0gyXU9bQ0gyXTQ=

> <s_epik_cmdline>
J2VwaWtfcHl0aG9uJywgJy1waCcsICc3LjAnLCAnLXRuJywgJzgnLCAnLW1hJywgJzIwMCcsICctbWV0YWxfYmluZGluZycsICctaW1hZScsICc8aW5maWxlLm1hZT4nLCAnLW9tYWUnLCAnPG91dGZpbGUubWFlPic=

> <r_lp_tautomer_probability>
1

> <r_epik_Ionization_Penalty>
0.00253099

> <r_epik_Ionization_Penalty_Charging>
0.00137877

> <r_epik_Ionization_Penalty_Neutral>
0.00115221

> <r_epik_State_Penalty>
-0

> <r_epik_Charging_Adjusted_Penalty>
0.00137877

> <i_epik_Tot_Q>
1

> <i_epik_Tot_abs_Q>
1

> <r_epik_Metal_State_Penalty>
-0

> <b_epik_Metal_Only>
0

> <s_lp_Force_Field>
OPLS_2005

> <r_lp_Energy>
52.4655

> <b_lp_Chiralities_Consistent>
1

> <s_lp_Variant>
AV-unprocessed.smi:243-2

> <Gold.Version>
5.8.1

> <Gold.Id.Protein>
6NUR|6NUR_protein|mol2

> <Gold.PLP.Fitness>
45.3304

> <Gold.PLP.PLP>
-39.4374

> <Gold.PLP.part.hbond>
-4.0000

> <Gold.PLP.part.metal>
0.0000

> <Gold.PLP.part.buried>
-6.0916

> <Gold.PLP.part.nonpolar>
-30.0151

> <Gold.PLP.part.repulsive>
0.1789

> <Gold.PLP.ligand.clash>
0.0000

> <Gold.PLP.ligand.torsion>
1.6137

> <Gold.PLP.Chemscore.Hbond>
2.9440

> <Gold.PLP.Chemscore.CHOScore>
0.0000

> <Gold.PLP.Chemscore.Metal>
0.0000

> <Gold.Chemscore.Hbonds>
donor molecule, donor type, donor heavy atom, donor atom, acceptor molecule, acceptor atom, score
      L1  H     3    58       P1 10747  1.00
      P1  H  7989  7998       L1    20  0.81
      P1  H  7997  8008       L1    23  0.88

> <Gold.PLP.Chemscore.Internal.Correction>
0.2884

> <Gold.Rescore>
     Score         DG    S(hbond)    S(metal)    S(lipo)     H(rot)  DE(clash)    DE(int)     intcor
     15.27     -17.17       2.17        0.00      86.88       2.24       0.24       1.66       ----

> <Gold.Chemscore.Fitness>
15.2669

> <Gold.Chemscore.DG>
-17.1691

> <Gold.Chemscore.ZeroCoef>
-5.4800

> <Gold.Chemscore.Hbond>
2.1716

> <Gold.Chemscore.Metal>
0.0000

> <Gold.Chemscore.Lipo>
86.8818

> <Gold.Chemscore.Internal_Hbond>
0.0000

> <Gold.Chemscore.DEClash>
0.2446

> <Gold.Chemscore.DEInternal>
1.6575

> <Gold.Chemscore.Rot>
2.2379

> <Gold.Chemscore.Internal.Correction>
   9.000000E+99

> <Gold.Chemscore.Hbonds>
donor molecule, donor type, donor heavy atom, donor atom, acceptor molecule, acceptor atom, score
      L1  H     3    58       P1 10747  1.00
      P1  H  7989  7998       L1    20  0.16
      P1  H  7997  8008       L1    23  0.41

> <Gold.Chemscore.Hbond.Weighted>
-7.2530

> <Gold.Chemscore.Metal.Weighted>
-0.0000

> <Gold.Chemscore.Lipo.Weighted>
-10.1652

> <Gold.Chemscore.Internal_Hbond.Weighted>
0.0000

> <Gold.Chemscore.DEClash.Weighted>
0.2446

> <Gold.Chemscore.DEInternal.Weighted>
1.6575

> <Gold.Chemscore.Rot.Weighted>
5.7291

> <Gold.Chemscore.Internal.Correction.Weighted>
   9.000000E+99

> <Gold.Protein.RotatedTorsions>
[ 6907 6896 6895 6894 ] final -176.70 input  -60.11 | X-H torsion
[ 7974 7965 7964 7962 ] final   50.06 input  175.53 | X-H torsion
[ 8008 7997 7996 7995 ] final  -63.30 input   59.86 | X-H torsion
[ 10167 10162 10161 10158 ] final   -5.52 input  -65.29 | X-H torsion
[ 10718 10713 10712 10709 ] final  145.45 input   66.30 | X-H torsion
[ 10763 10752 10751 10750 ] final   83.60 input  -60.55 | X-H torsion
[ 11005 11000 10999 10996 ] final   65.90 input  -57.11 | X-H torsion

> <Gold.Protein.ActiveResidues>
 VAL166  LYS551  ARG553  GLY616  TRP617  ASP618  TYR619  PRO620  LYS621  CYS622 
 ASP623  PHE694  ASN695  SER759  ASP760  ASP761  ALA762  ILE779  LEU786  VAL792 
 PHE793  MET794  SER795  GLU796  ALA797  LYS798  CYS799  TRP800  GLU811  SER814 

> <Gold.Protein.RotatedAtoms>
  151.6091  133.3349  159.3063 H   0  0  0  0  0  0  0  0  0  0  0  0  # atno 6907 bound_to 6896
  150.8166  134.7355  159.6747 H   0  0  0  0  0  0  0  0  0  0  0  0  # atno 6908 bound_to 6896
  152.4262  134.5869  160.0015 H   0  0  0  0  0  0  0  0  0  0  0  0  # atno 6909 bound_to 6896
  146.0048  139.4479  142.9992 H   0  0  0  0  0  0  0  0  0  0  0  0  # atno 7974 bound_to 7965
  154.4547  140.0978  156.6721 H   0  0  0  0  0  0  0  0  0  0  0  0  # atno 8008 bound_to 7997
  155.5176  140.3478  155.4382 H   0  0  0  0  0  0  0  0  0  0  0  0  # atno 8009 bound_to 7997
  156.0752  140.1359  156.9769 H   0  0  0  0  0  0  0  0  0  0  0  0  # atno 8010 bound_to 7997
  140.6966  143.6299  150.8533 H   0  0  0  0  0  0  0  0  0  0  0  0  # atno 10167 bound_to 10162
  157.3451  131.0942  151.1049 H   0  0  0  0  0  0  0  0  0  0  0  0  # atno 10718 bound_to 10713
  153.1306  135.4685  154.9342 H   0  0  0  0  0  0  0  0  0  0  0  0  # atno 10763 bound_to 10752
  154.7660  135.3145  154.8287 H   0  0  0  0  0  0  0  0  0  0  0  0  # atno 10764 bound_to 10752
  153.8830  135.6892  153.4819 H   0  0  0  0  0  0  0  0  0  0  0  0  # atno 10765 bound_to 10752
  139.9865  134.6659  156.0166 H   0  0  0  0  0  0  0  0  0  0  0  0  # atno 11005 bound_to 11000
  145.7432  141.0000  143.1290 LP  0  0  0  0  0  0  0  0  0  0  0  0  # atno 17320 bound_to 7965
  144.6932  139.9124  143.7464 LP  0  0  0  0  0  0  0  0  0  0  0  0  # atno 17321 bound_to 7965
  140.0017  143.5737  152.2873 LP  0  0  0  0  0  0  0  0  0  0  0  0  # atno 17342 bound_to 10162
  139.6429  144.7656  151.2303 LP  0  0  0  0  0  0  0  0  0  0  0  0  # atno 17343 bound_to 10162
  157.2246  130.6497  149.5825 LP  0  0  0  0  0  0  0  0  0  0  0  0  # atno 17370 bound_to 10713
  155.9713  130.4618  150.6123 LP  0  0  0  0  0  0  0  0  0  0  0  0  # atno 17371 bound_to 10713
  141.1529  133.6546  156.4071 LP  0  0  0  0  0  0  0  0  0  0  0  0  # atno 17394 bound_to 11000
  140.4991  134.6502  157.5241 LP  0  0  0  0  0  0  0  0  0  0  0  0  # atno 17395 bound_to 11000

$$$$
