AV-unprocessed.smi:2631|AV-procd|sdf|10248|dock2
  -GOLD-   2272014253D 1   1.00000     0.00000
 Structure written by MMmdl.
 35 36  0  0  0  0  0  0  0  0  1 V2000
  149.9306  141.2402  155.6385 C   0  0  0  0  0  0  0  0  0  0  0  0
  150.7028  140.4503  154.7524 O   0  0  0  0  0  0  0  0  0  0  0  0
  150.0091  139.2974  154.3042 C   0  0  0  0  0  0  0  0  0  0  0  0
  150.8154  138.0400  154.6696 C   0  0  0  0  0  0  0  0  0  0  0  0
  151.0423  137.9077  156.0950 N   0  0  0  0  0  0  0  0  0  0  0  0
  152.0471  138.5875  156.7885 C   0  0  0  0  0  0  0  0  0  0  0  0
  152.8776  139.4529  156.0971 N   0  0  0  0  0  0  0  0  0  0  0  0
  152.2291  138.3960  158.1210 C   0  0  0  0  0  0  0  0  0  0  0  0
  153.4843  139.1745  159.1088 S   0  0  0  0  0  0  0  0  0  0  0  0
  152.9396  140.8513  159.0847 C   0  0  0  0  0  0  0  0  0  0  0  0
  153.6121  141.8211  159.8550 C   0  0  0  0  0  0  0  0  0  0  0  0
  153.1697  143.1582  159.8419 C   0  0  0  0  0  0  0  0  0  0  0  0
  152.0571  143.5249  159.0586 C   0  0  0  0  0  0  0  0  0  0  0  0
  151.5143  145.1625  159.0444 Cl  0  0  0  0  0  0  0  0  0  0  0  0
  151.3869  142.5539  158.2877 C   0  0  0  0  0  0  0  0  0  0  0  0
  151.8281  141.2164  158.3000 C   0  0  0  0  0  0  0  0  0  0  0  0
  151.3926  137.4830  158.9030 C   0  0  0  0  0  0  0  0  0  0  0  0
  151.4772  137.2591  160.1103 O   0  0  0  0  0  0  0  0  0  0  0  0
  150.4209  136.8270  158.1478 N   0  0  0  0  0  0  0  0  0  0  0  0
  150.2097  136.9861  156.7793 C   0  0  0  0  0  0  0  0  0  0  0  0
  149.3272  136.3299  156.2252 O   0  0  0  0  0  0  0  0  0  0  0  0
  149.8211  136.1766  158.6343 H   0  0  0  0  0  0  0  0  0  0  0  0
  150.5098  142.1081  155.9534 H   0  0  0  0  0  0  0  0  0  0  0  0
  149.6545  140.6766  156.5303 H   0  0  0  0  0  0  0  0  0  0  0  0
  149.0212  141.6000  155.1555 H   0  0  0  0  0  0  0  0  0  0  0  0
  149.0298  139.2536  154.7827 H   0  0  0  0  0  0  0  0  0  0  0  0
  149.8403  139.3477  153.2274 H   0  0  0  0  0  0  0  0  0  0  0  0
  150.3166  137.1329  154.3304 H   0  0  0  0  0  0  0  0  0  0  0  0
  151.7906  138.0285  154.1798 H   0  0  0  0  0  0  0  0  0  0  0  0
  152.7762  139.6059  155.1040 H   0  0  0  0  0  0  0  0  0  0  0  0
  153.5618  140.0251  156.5711 H   0  0  0  0  0  0  0  0  0  0  0  0
  154.4634  141.5433  160.4589 H   0  0  0  0  0  0  0  0  0  0  0  0
  153.6841  143.9009  160.4340 H   0  0  0  0  0  0  0  0  0  0  0  0
  150.5333  142.8333  157.6876 H   0  0  0  0  0  0  0  0  0  0  0  0
  151.3106  140.4731  157.7113 H   0  0  0  0  0  0  0  0  0  0  0  0
  1  2  1  0  0  0  0
  1 23  1  0  0  0  0
  1 24  1  0  0  0  0
  1 25  1  0  0  0  0
  2  3  1  0  0  0  0
  3  4  1  0  0  0  0
  3 26  1  0  0  0  0
  3 27  1  0  0  0  0
  4  5  1  0  0  0  0
  4 28  1  0  0  0  0
  4 29  1  0  0  0  0
  5 20  1  0  0  0  0
  5  6  1  0  0  0  0
  6  7  1  0  0  0  0
  6  8  2  0  0  0  0
  7 30  1  0  0  0  0
  7 31  1  0  0  0  0
  8  9  1  0  0  0  0
  8 17  1  0  0  0  0
  9 10  1  0  0  0  0
 10 16  1  0  0  0  0
 10 11  2  0  0  0  0
 11 12  1  0  0  0  0
 11 32  1  0  0  0  0
 12 13  2  0  0  0  0
 12 33  1  0  0  0  0
 13 14  1  0  0  0  0
 13 15  1  0  0  0  0
 15 16  2  0  0  0  0
 15 34  1  0  0  0  0
 16 35  1  0  0  0  0
 17 18  2  0  0  0  0
 17 19  1  0  0  0  0
 19 22  1  0  0  0  0
 19 20  1  0  0  0  0
 20 21  2  0  0  0  0
M  END
> <s_m_source_file>
AV-unprocessed.smi

> <i_m_source_file_index>
2631

> <i_lp_mmshare_version>
43012

> <i_f3d_flags>
0

> <s_epik_input>
W0NIM11PW0NIMl1bQ0gyXW4xYyhbTkgyXSljKGMoPU8pW25IXWMxPU8pU2MyW2NIXVtjSF1jKENsKVtjSF1bY0hdMg==

> <s_epik_cmdline>
J2VwaWtfcHl0aG9uJywgJy1waCcsICc3LjAnLCAnLXRuJywgJzgnLCAnLW1hJywgJzIwMCcsICctbWV0YWxfYmluZGluZycsICctaW1hZScsICc8aW5maWxlLm1hZT4nLCAnLW9tYWUnLCAnPG91dGZpbGUubWFlPic=

> <r_lp_tautomer_probability>
1

> <r_epik_Ionization_Penalty>
9.0495e-05

> <r_epik_Ionization_Penalty_Charging>
7.40646e-05

> <r_epik_Ionization_Penalty_Neutral>
1.64304e-05

> <r_epik_State_Penalty>
-0

> <r_epik_Charging_Adjusted_Penalty>
7.40646e-05

> <i_epik_Tot_Q>
0

> <i_epik_Tot_abs_Q>
0

> <r_epik_Metal_State_Penalty>
0.0697747

> <b_epik_Metal_Only>
0

> <s_epik_Chemistry_Notes>
This compound has an imine and may undergo hydrolysis.

> <s_lp_Force_Field>
OPLS_2005

> <r_lp_Energy>
18.0154

> <b_lp_Chiralities_Consistent>
1

> <s_lp_Variant>
AV-unprocessed.smi:2631-1

> <Gold.Version>
5.8.1

> <Gold.Id.Protein>
6NUR|6NUR_protein|mol2

> <Gold.PLP.Fitness>
40.5339

> <Gold.PLP.PLP>
-35.9851

> <Gold.PLP.part.hbond>
-2.2794

> <Gold.PLP.part.metal>
0.0000

> <Gold.PLP.part.buried>
-4.0716

> <Gold.PLP.part.nonpolar>
-30.7681

> <Gold.PLP.part.repulsive>
0.6428

> <Gold.PLP.ligand.clash>
0.0000

> <Gold.PLP.ligand.torsion>
0.7298

> <Gold.PLP.Chemscore.Hbond>
1.9913

> <Gold.PLP.Chemscore.CHOScore>
0.0000

> <Gold.PLP.Chemscore.Metal>
0.0000

> <Gold.Chemscore.Hbonds>
donor molecule, donor type, donor heavy atom, donor atom, acceptor molecule, acceptor atom, score
      P1  H  6896  6907       L1    18  0.62
      P1  H  7989  7998       L1     2  1.00

> <Gold.PLP.Chemscore.Internal.Correction>
0.0347

> <Gold.Rescore>
     Score         DG    S(hbond)    S(metal)    S(lipo)     H(rot)  DE(clash)    DE(int)     intcor
     13.60     -14.77       1.00        0.00      96.15       2.07       0.05       1.12       ----

> <Gold.Chemscore.Fitness>
13.6037

> <Gold.Chemscore.DG>
-14.7664

> <Gold.Chemscore.ZeroCoef>
-5.4800

> <Gold.Chemscore.Hbond>
0.9973

> <Gold.Chemscore.Metal>
0.0000

> <Gold.Chemscore.Lipo>
96.1497

> <Gold.Chemscore.Internal_Hbond>
0.0000

> <Gold.Chemscore.DEClash>
0.0462

> <Gold.Chemscore.DEInternal>
1.1165

> <Gold.Chemscore.Rot>
2.0680

> <Gold.Chemscore.Internal.Correction>
   9.000000E+99

> <Gold.Chemscore.Hbonds>
donor molecule, donor type, donor heavy atom, donor atom, acceptor molecule, acceptor atom, score
      P1  H  6896  6907       L1    18  0.09
      P1  H  7989  7998       L1     2  0.48

> <Gold.Chemscore.Hbond.Weighted>
-3.3311

> <Gold.Chemscore.Metal.Weighted>
-0.0000

> <Gold.Chemscore.Lipo.Weighted>
-11.2495

> <Gold.Chemscore.Internal_Hbond.Weighted>
0.0000

> <Gold.Chemscore.DEClash.Weighted>
0.0462

> <Gold.Chemscore.DEInternal.Weighted>
1.1165

> <Gold.Chemscore.Rot.Weighted>
5.2941

> <Gold.Chemscore.Internal.Correction.Weighted>
   9.000000E+99

> <Gold.Protein.RotatedTorsions>
[ 6907 6896 6895 6894 ] final  -15.36 input  -60.11 | X-H torsion
[ 7974 7965 7964 7962 ] final  -52.44 input  175.53 | X-H torsion
[ 8008 7997 7996 7995 ] final  108.73 input   59.86 | X-H torsion
[ 10167 10162 10161 10158 ] final  -72.68 input  -65.29 | X-H torsion
[ 10718 10713 10712 10709 ] final  100.75 input   66.30 | X-H torsion
[ 10763 10752 10751 10750 ] final  -36.65 input  -60.55 | X-H torsion
[ 11005 11000 10999 10996 ] final  100.09 input  -57.11 | X-H torsion

> <Gold.Protein.ActiveResidues>
 VAL166  LYS551  ARG553  GLY616  TRP617  ASP618  TYR619  PRO620  LYS621  CYS622 
 ASP623  PHE694  ASN695  SER759  ASP760  ASP761  ALA762  ILE779  LEU786  VAL792 
 PHE793  MET794  SER795  GLU796  ALA797  LYS798  CYS799  TRP800  GLU811  SER814 

> <Gold.Protein.RotatedAtoms>
  151.3252  135.0828  159.9319 H   0  0  0  0  0  0  0  0  0  0  0  0  # atno 6907 bound_to 6896
  152.5247  133.9599  159.7722 H   0  0  0  0  0  0  0  0  0  0  0  0  # atno 6908 bound_to 6896
  150.9927  133.6081  159.2736 H   0  0  0  0  0  0  0  0  0  0  0  0  # atno 6909 bound_to 6896
  145.9079  140.7940  142.9710 H   0  0  0  0  0  0  0  0  0  0  0  0  # atno 7974 bound_to 7965
  156.1925  140.3071  155.9361 H   0  0  0  0  0  0  0  0  0  0  0  0  # atno 8008 bound_to 7997
  155.3140  140.0452  157.3053 H   0  0  0  0  0  0  0  0  0  0  0  0  # atno 8009 bound_to 7997
  154.5470  140.2279  155.8556 H   0  0  0  0  0  0  0  0  0  0  0  0  # atno 8010 bound_to 7997
  140.5172  143.2336  151.7492 H   0  0  0  0  0  0  0  0  0  0  0  0  # atno 10167 bound_to 10162
  157.6846  131.0707  150.5148 H   0  0  0  0  0  0  0  0  0  0  0  0  # atno 10718 bound_to 10713
  153.8832  135.6819  153.4765 H   0  0  0  0  0  0  0  0  0  0  0  0  # atno 10763 bound_to 10752
  153.1222  135.4735  154.9211 H   0  0  0  0  0  0  0  0  0  0  0  0  # atno 10764 bound_to 10752
  154.7658  135.3224  154.8240 H   0  0  0  0  0  0  0  0  0  0  0  0  # atno 10765 bound_to 10752
  139.8771  134.9125  156.4704 H   0  0  0  0  0  0  0  0  0  0  0  0  # atno 11005 bound_to 11000
  144.6741  140.1780  143.7408 LP  0  0  0  0  0  0  0  0  0  0  0  0  # atno 17320 bound_to 7965
  145.8708  139.2271  143.1662 LP  0  0  0  0  0  0  0  0  0  0  0  0  # atno 17321 bound_to 7965
  139.4913  144.4306  151.9876 LP  0  0  0  0  0  0  0  0  0  0  0  0  # atno 17342 bound_to 10162
  140.3401  144.3213  150.5969 LP  0  0  0  0  0  0  0  0  0  0  0  0  # atno 17343 bound_to 10162
  156.5464  130.4220  149.6129 LP  0  0  0  0  0  0  0  0  0  0  0  0  # atno 17370 bound_to 10713
  156.2941  130.7140  151.1996 LP  0  0  0  0  0  0  0  0  0  0  0  0  # atno 17371 bound_to 10713
  140.8800  133.7925  155.9456 LP  0  0  0  0  0  0  0  0  0  0  0  0  # atno 17394 bound_to 11000
  140.8864  134.2549  157.5117 LP  0  0  0  0  0  0  0  0  0  0  0  0  # atno 17395 bound_to 11000

$$$$
