AV-unprocessed.smi:1995|AV-procd|sdf|8080|dock2
  -GOLD-   2272010293D 1   1.00000     0.00000
 Structure written by MMmdl.
 41 42  0  0  0  0  0  0  0  0  2 V2000
  151.6517  141.8613  158.4504 C   0  0  0  0  0  0  0  0  0  0  0  0
  151.0580  140.4412  158.4923 C   0  0  0  0  0  0  0  0  0  0  0  0
  150.6265  139.8468  157.1138 C   0  0  1  0  0  0  0  0  0  0  0  0
  151.9187  139.7464  156.2587 C   0  0  0  0  0  0  0  0  0  0  0  0
  150.0785  138.3993  157.3363 C   0  0  0  0  0  0  0  0  0  0  0  0
  149.2624  138.2518  158.5424 N   0  0  0  0  0  0  0  0  0  0  0  0
  149.0527  137.1224  159.2346 C   0  0  0  0  0  0  0  0  0  0  0  0
  149.5822  136.0688  158.8738 O   0  0  0  0  0  0  0  0  0  0  0  0
  148.2308  137.2825  160.2966 N   0  5  0  0  0  0  0  0  0  0  0  0
  147.7436  136.2074  160.9370 C   0  0  0  0  0  0  0  0  0  0  0  0
  147.7505  134.9779  160.4094 N   0  0  0  0  0  0  0  0  0  0  0  0
  147.2016  134.0094  161.2518 C   0  0  0  0  0  0  0  0  0  0  0  0
  146.7737  134.5118  162.4520 C   0  0  0  0  0  0  0  0  0  0  0  0
  147.0498  136.2269  162.5611 S   0  0  0  0  0  0  0  0  0  0  0  0
  149.6242  140.7274  156.4477 N   0  0  0  0  0  0  0  0  0  0  0  0
  149.4037  140.4609  155.0218 C   0  0  0  0  0  0  0  0  0  0  0  0
  148.4712  141.5026  154.3803 C   0  0  0  0  0  0  0  0  0  0  0  0
  147.2325  141.5347  155.0793 O   0  0  0  0  0  0  0  0  0  0  0  0
  147.3951  141.8417  156.4590 C   0  0  0  0  0  0  0  0  0  0  0  0
  148.3191  140.8022  157.1159 C   0  0  0  0  0  0  0  0  0  0  0  0
  151.9233  142.1890  159.4539 H   0  0  0  0  0  0  0  0  0  0  0  0
  150.9427  142.5875  158.0533 H   0  0  0  0  0  0  0  0  0  0  0  0
  152.5540  141.9046  157.8415 H   0  0  0  0  0  0  0  0  0  0  0  0
  151.8036  139.7964  158.9584 H   0  0  0  0  0  0  0  0  0  0  0  0
  150.2185  140.4301  159.1875 H   0  0  0  0  0  0  0  0  0  0  0  0
  152.7466  139.3092  156.8180 H   0  0  0  0  0  0  0  0  0  0  0  0
  152.2490  140.7248  155.9094 H   0  0  0  0  0  0  0  0  0  0  0  0
  151.7777  139.1174  155.3797 H   0  0  0  0  0  0  0  0  0  0  0  0
  149.5177  138.0547  156.4675 H   0  0  0  0  0  0  0  0  0  0  0  0
  150.9017  137.6951  157.4505 H   0  0  0  0  0  0  0  0  0  0  0  0
  148.8042  139.0855  158.8798 H   0  0  0  0  0  0  0  0  0  0  0  0
  147.1567  132.9843  160.9159 H   0  0  0  0  0  0  0  0  0  0  0  0
  146.3178  133.9815  163.2744 H   0  0  0  0  0  0  0  0  0  0  0  0
  150.3432  140.4751  154.4722 H   0  0  0  0  0  0  0  0  0  0  0  0
  148.9692  139.4711  154.8837 H   0  0  0  0  0  0  0  0  0  0  0  0
  148.9309  142.4921  154.3947 H   0  0  0  0  0  0  0  0  0  0  0  0
  148.2842  141.2516  153.3362 H   0  0  0  0  0  0  0  0  0  0  0  0
  147.8040  142.8469  156.5707 H   0  0  0  0  0  0  0  0  0  0  0  0
  146.4178  141.8380  156.9417 H   0  0  0  0  0  0  0  0  0  0  0  0
  147.8236  139.8318  157.0888 H   0  0  0  0  0  0  0  0  0  0  0  0
  148.4304  141.0697  158.1649 H   0  0  0  0  0  0  0  0  0  0  0  0
  1  2  1  0  0  0  0
  1 21  1  0  0  0  0
  1 22  1  0  0  0  0
  1 23  1  0  0  0  0
  2  3  1  0  0  0  0
  2 24  1  0  0  0  0
  2 25  1  0  0  0  0
  3  4  1  0  0  0  0
  3  5  1  0  0  0  0
  3 15  1  0  0  0  0
  4 26  1  0  0  0  0
  4 27  1  0  0  0  0
  4 28  1  0  0  0  0
  5  6  1  0  0  0  0
  5 29  1  0  0  0  0
  5 30  1  0  0  0  0
  6  7  1  0  0  0  0
  6 31  1  0  0  0  0
  7  8  2  0  0  0  0
  7  9  1  0  0  0  0
  9 10  1  0  0  0  0
 10 14  1  0  0  0  0
 10 11  2  0  0  0  0
 11 12  1  0  0  0  0
 12 13  2  0  0  0  0
 12 32  1  0  0  0  0
 13 14  1  0  0  0  0
 13 33  1  0  0  0  0
 15 20  1  0  0  0  0
 15 16  1  0  0  0  0
 16 17  1  0  0  0  0
 16 34  1  0  0  0  0
 16 35  1  0  0  0  0
 17 18  1  0  0  0  0
 17 36  1  0  0  0  0
 17 37  1  0  0  0  0
 18 19  1  0  0  0  0
 19 20  1  0  0  0  0
 19 38  1  0  0  0  0
 19 39  1  0  0  0  0
 20 40  1  0  0  0  0
 20 41  1  0  0  0  0
M  CHG  1   9  -1
M  END
> <s_m_source_file>
AV-unprocessed.smi

> <i_m_source_file_index>
1995

> <i_lp_mmshare_version>
43012

> <i_f3d_flags>
0

> <s_epik_input>
W0NIMl0xW0NIMl1PW0NIMl1bQ0gyXU4xW0NAQF0oW0NIM10pKFtDSDJdW0NIM10pW0NIMl1bTkhdQyg9TylbTkhdYzJuW2NIXVtjSF1zMg==

> <s_epik_cmdline>
J2VwaWtfcHl0aG9uJywgJy1waCcsICc3LjAnLCAnLXRuJywgJzgnLCAnLW1hJywgJzIwMCcsICctbWV0YWxfYmluZGluZycsICctaW1hZScsICc8aW5maWxlLm1hZT4nLCAnLW9tYWUnLCAnPG91dGZpbGUubWFlPic=

> <r_lp_tautomer_probability>
0.999

> <r_epik_Ionization_Penalty>
8.86479

> <r_epik_Ionization_Penalty_Charging>
6.76546

> <r_epik_Ionization_Penalty_Neutral>
2.09933

> <r_epik_State_Penalty>
7.05418

> <r_epik_Charging_Adjusted_Penalty>
13.8196

> <i_epik_Tot_Q>
-1

> <i_epik_Tot_abs_Q>
1

> <r_epik_Metal_State_Penalty>
2.97744

> <b_epik_Metal_Only>
1

> <s_lp_Force_Field>
OPLS_2005

> <r_lp_Energy>
37.7031

> <b_lp_Chiralities_Consistent>
1

> <s_lp_Variant>
AV-unprocessed.smi:1995-5

> <Gold.Version>
5.8.1

> <Gold.Id.Protein>
6NUR|6NUR_protein|mol2

> <Gold.PLP.Fitness>
41.5363

> <Gold.PLP.PLP>
-33.2937

> <Gold.PLP.part.hbond>
-3.0000

> <Gold.PLP.part.metal>
0.0000

> <Gold.PLP.part.buried>
-5.5482

> <Gold.PLP.part.nonpolar>
-26.1565

> <Gold.PLP.part.repulsive>
0.3266

> <Gold.PLP.ligand.clash>
0.0000

> <Gold.PLP.ligand.torsion>
0.8003

> <Gold.PLP.Chemscore.Hbond>
3.1937

> <Gold.PLP.Chemscore.CHOScore>
0.0000

> <Gold.PLP.Chemscore.Metal>
0.0000

> <Gold.Chemscore.Hbonds>
donor molecule, donor type, donor heavy atom, donor atom, acceptor molecule, acceptor atom, score
      P1  H  6896  6909       L1     8  1.00
      P1  H  6931  6943       L1     9  1.22
      P1  H  6934  6947       L1     9  0.97

> <Gold.PLP.Chemscore.Internal.Correction>
0.2620

> <Gold.Rescore>
     Score         DG    S(hbond)    S(metal)    S(lipo)     H(rot)  DE(clash)    DE(int)     intcor
     12.94     -15.42       1.83        0.00      69.74       1.70       0.00       2.48       ----

> <Gold.Chemscore.Fitness>
12.9374

> <Gold.Chemscore.DG>
-15.4160

> <Gold.Chemscore.ZeroCoef>
-5.4800

> <Gold.Chemscore.Hbond>
1.8338

> <Gold.Chemscore.Metal>
0.0000

> <Gold.Chemscore.Lipo>
69.7362

> <Gold.Chemscore.Internal_Hbond>
0.0000

> <Gold.Chemscore.DEClash>
0.0029

> <Gold.Chemscore.DEInternal>
2.4756

> <Gold.Chemscore.Rot>
1.6985

> <Gold.Chemscore.Internal.Correction>
   9.000000E+99

> <Gold.Chemscore.Hbonds>
donor molecule, donor type, donor heavy atom, donor atom, acceptor molecule, acceptor atom, score
      P1  H  6896  6909       L1     8  0.94
      P1  H  6931  6943       L1     9  0.12
      P1  H  6934  6947       L1     9  0.35

> <Gold.Chemscore.Hbond.Weighted>
-6.1250

> <Gold.Chemscore.Metal.Weighted>
-0.0000

> <Gold.Chemscore.Lipo.Weighted>
-8.1591

> <Gold.Chemscore.Internal_Hbond.Weighted>
0.0000

> <Gold.Chemscore.DEClash.Weighted>
0.0029

> <Gold.Chemscore.DEInternal.Weighted>
2.4756

> <Gold.Chemscore.Rot.Weighted>
4.3482

> <Gold.Chemscore.Internal.Correction.Weighted>
   9.000000E+99

> <Gold.Protein.RotatedTorsions>
[ 6907 6896 6895 6894 ] final   46.38 input  -60.11 | X-H torsion
[ 7974 7965 7964 7962 ] final   59.72 input  175.53 | X-H torsion
[ 8008 7997 7996 7995 ] final  151.14 input   59.86 | X-H torsion
[ 10167 10162 10161 10158 ] final  -82.04 input  -65.29 | X-H torsion
[ 10718 10713 10712 10709 ] final -132.34 input   66.30 | X-H torsion
[ 10763 10752 10751 10750 ] final  -85.76 input  -60.55 | X-H torsion
[ 11005 11000 10999 10996 ] final -145.46 input  -57.11 | X-H torsion

> <Gold.Protein.ActiveResidues>
 VAL166  LYS551  ARG553  GLY616  TRP617  ASP618  TYR619  PRO620  LYS621  CYS622 
 ASP623  PHE694  ASN695  SER759  ASP760  ASP761  ALA762  ILE779  LEU786  VAL792 
 PHE793  MET794  SER795  GLU796  ALA797  LYS798  CYS799  TRP800  GLU811  SER814 

> <Gold.Protein.RotatedAtoms>
  152.2557  134.8086  160.0438 H   0  0  0  0  0  0  0  0  0  0  0  0  # atno 6907 bound_to 6896
  151.8750  133.3478  159.3755 H   0  0  0  0  0  0  0  0  0  0  0  0  # atno 6908 bound_to 6896
  150.7099  134.5002  159.5602 H   0  0  0  0  0  0  0  0  0  0  0  0  # atno 6909 bound_to 6896
  145.9040  139.3603  143.0575 H   0  0  0  0  0  0  0  0  0  0  0  0  # atno 7974 bound_to 7965
  156.2686  140.2056  156.6129 H   0  0  0  0  0  0  0  0  0  0  0  0  # atno 8008 bound_to 7997
  154.6817  140.0539  157.0297 H   0  0  0  0  0  0  0  0  0  0  0  0  # atno 8009 bound_to 7997
  155.0991  140.3204  155.4555 H   0  0  0  0  0  0  0  0  0  0  0  0  # atno 8010 bound_to 7997
  140.4356  143.2533  151.8698 H   0  0  0  0  0  0  0  0  0  0  0  0  # atno 10167 bound_to 10162
  156.2336  130.7053  151.0884 H   0  0  0  0  0  0  0  0  0  0  0  0  # atno 10718 bound_to 10713
  154.6148  135.5473  153.7512 H   0  0  0  0  0  0  0  0  0  0  0  0  # atno 10763 bound_to 10752
  153.0211  135.6398  154.1526 H   0  0  0  0  0  0  0  0  0  0  0  0  # atno 10764 bound_to 10752
  154.1462  135.2905  155.3127 H   0  0  0  0  0  0  0  0  0  0  0  0  # atno 10765 bound_to 10752
  140.7920  134.2957  157.5010 H   0  0  0  0  0  0  0  0  0  0  0  0  # atno 11005 bound_to 11000
  145.8755  140.9394  143.0628 LP  0  0  0  0  0  0  0  0  0  0  0  0  # atno 17320 bound_to 7965
  144.6738  140.0711  143.7473 LP  0  0  0  0  0  0  0  0  0  0  0  0  # atno 17321 bound_to 7965
  139.4787  144.5286  151.8699 LP  0  0  0  0  0  0  0  0  0  0  0  0  # atno 17342 bound_to 10162
  140.4377  144.2029  150.5890 LP  0  0  0  0  0  0  0  0  0  0  0  0  # atno 17343 bound_to 10162
  157.7144  131.0717  150.6381 LP  0  0  0  0  0  0  0  0  0  0  0  0  # atno 17370 bound_to 10713
  156.6450  130.4469  149.5739 LP  0  0  0  0  0  0  0  0  0  0  0  0  # atno 17371 bound_to 10713
  139.8730  134.9380  156.3702 LP  0  0  0  0  0  0  0  0  0  0  0  0  # atno 17394 bound_to 11000
  140.9380  133.7534  156.0110 LP  0  0  0  0  0  0  0  0  0  0  0  0  # atno 17395 bound_to 11000

$$$$
