AV-unprocessed.smi:94|AV-procd|sdf|851|dock5
  -GOLD-   2262017293D 1   1.00000     0.00000
 Structure written by MMmdl.
 53 55  0  0  0  0  0  0  0  0  1 V2000
  154.3649  139.2561  159.5557 C   0  0  0  0  0  0  0  0  0  0  0  0
  153.4813  139.8833  158.6382 O   0  0  0  0  0  0  0  0  0  0  0  0
  152.9735  141.1262  158.9583 C   0  0  0  0  0  0  0  0  0  0  0  0
  153.3709  141.8562  160.1082 C   0  0  0  0  0  0  0  0  0  0  0  0
  152.8227  143.1228  160.3824 C   0  0  0  0  0  0  0  0  0  0  0  0
  151.8762  143.6864  159.5080 C   0  0  0  0  0  0  0  0  0  0  0  0
  151.2802  145.0491  159.7960 C   0  0  0  0  0  0  0  0  0  0  0  0
  151.4786  142.9727  158.3635 C   0  0  0  0  0  0  0  0  0  0  0  0
  152.0090  141.6897  158.0857 C   0  0  0  0  0  0  0  0  0  0  0  0
  151.5565  140.9219  156.8408 C   0  0  2  0  0  0  0  0  0  0  0  0
  150.4224  141.6602  156.1164 C   0  0  0  0  0  0  0  0  0  0  0  0
  151.1126  139.5704  157.1680 N   0  0  0  0  0  0  0  0  0  0  0  0
  149.9817  139.2208  157.8024 C   0  0  0  0  0  0  0  0  0  0  0  0
  149.2213  140.0329  158.3270 O   0  0  0  0  0  0  0  0  0  0  0  0
  149.6167  137.7257  157.8082 C   0  0  0  0  0  0  0  0  0  0  0  0
  148.2848  137.4431  158.3958 N   0  0  0  0  0  0  0  0  0  0  0  0
  147.1449  137.5833  157.5646 C   0  0  0  0  0  0  0  0  0  0  0  0
  147.2468  137.9686  156.3993 O   0  0  0  0  0  0  0  0  0  0  0  0
  145.8717  137.2209  158.1748 C   0  0  0  0  0  0  0  0  0  0  0  0
  144.7402  137.3020  157.4544 F   0  0  0  0  0  0  0  0  0  0  0  0
  145.8123  136.7902  159.4511 C   0  0  0  0  0  0  0  0  0  0  0  0
  146.9261  136.6775  160.2602 N   0  0  0  0  0  0  0  0  0  0  0  0
  146.7598  136.1169  161.6558 C   0  0  2  0  0  0  0  0  0  0  0  0
  147.5118  134.7985  161.8928 C   0  0  0  0  0  0  0  0  0  0  0  0
  146.5619  134.0849  162.8305 C   0  0  0  0  0  0  0  0  0  0  0  0
  145.2019  134.5425  162.3139 C   0  0  0  0  0  0  0  0  0  0  0  0
  145.4008  135.8909  161.8974 O   0  0  0  0  0  0  0  0  0  0  0  0
  148.2030  136.9818  159.7323 C   0  0  0  0  0  0  0  0  0  0  0  0
  149.2238  136.8296  160.4043 O   0  0  0  0  0  0  0  0  0  0  0  0
  154.6654  138.2871  159.1582 H   0  0  0  0  0  0  0  0  0  0  0  0
  153.8825  139.0817  160.5183 H   0  0  0  0  0  0  0  0  0  0  0  0
  155.2702  139.8459  159.7053 H   0  0  0  0  0  0  0  0  0  0  0  0
  154.0993  141.4653  160.8020 H   0  0  0  0  0  0  0  0  0  0  0  0
  153.1344  143.6603  161.2657 H   0  0  0  0  0  0  0  0  0  0  0  0
  151.0582  145.5792  158.8692 H   0  0  0  0  0  0  0  0  0  0  0  0
  151.9690  145.6612  160.3791 H   0  0  0  0  0  0  0  0  0  0  0  0
  150.3529  144.9421  160.3589 H   0  0  0  0  0  0  0  0  0  0  0  0
  150.7570  143.4254  157.6996 H   0  0  0  0  0  0  0  0  0  0  0  0
  152.4000  140.8547  156.1523 H   0  0  0  0  0  0  0  0  0  0  0  0
  150.7366  142.6579  155.8084 H   0  0  0  0  0  0  0  0  0  0  0  0
  149.5468  141.7702  156.7574 H   0  0  0  0  0  0  0  0  0  0  0  0
  150.1141  141.1220  155.2195 H   0  0  0  0  0  0  0  0  0  0  0  0
  151.6764  138.8204  156.7952 H   0  0  0  0  0  0  0  0  0  0  0  0
  149.6879  137.3562  156.7845 H   0  0  0  0  0  0  0  0  0  0  0  0
  150.3949  137.1757  158.3403 H   0  0  0  0  0  0  0  0  0  0  0  0
  144.8442  136.5238  159.8497 H   0  0  0  0  0  0  0  0  0  0  0  0
  147.0955  136.8991  162.3378 H   0  0  0  0  0  0  0  0  0  0  0  0
  147.6375  134.2331  160.9706 H   0  0  0  0  0  0  0  0  0  0  0  0
  148.4953  134.9819  162.3255 H   0  0  0  0  0  0  0  0  0  0  0  0
  146.6807  133.0012  162.8196 H   0  0  0  0  0  0  0  0  0  0  0  0
  146.7113  134.4366  163.8522 H   0  0  0  0  0  0  0  0  0  0  0  0
  144.8944  133.9405  161.4586 H   0  0  0  0  0  0  0  0  0  0  0  0
  144.4211  134.4717  163.0713 H   0  0  0  0  0  0  0  0  0  0  0  0
  1  2  1  0  0  0  0
  1 30  1  0  0  0  0
  1 31  1  0  0  0  0
  1 32  1  0  0  0  0
  2  3  1  0  0  0  0
  3  9  1  0  0  0  0
  3  4  2  0  0  0  0
  4  5  1  0  0  0  0
  4 33  1  0  0  0  0
  5  6  2  0  0  0  0
  5 34  1  0  0  0  0
  6  7  1  0  0  0  0
  6  8  1  0  0  0  0
  7 35  1  0  0  0  0
  7 36  1  0  0  0  0
  7 37  1  0  0  0  0
  8  9  2  0  0  0  0
  8 38  1  0  0  0  0
  9 10  1  0  0  0  0
 10 11  1  0  0  0  0
 10 12  1  0  0  0  0
 10 39  1  0  0  0  0
 11 40  1  0  0  0  0
 11 41  1  0  0  0  0
 11 42  1  0  0  0  0
 12 13  1  0  0  0  0
 12 43  1  0  0  0  0
 13 14  2  0  0  0  0
 13 15  1  0  0  0  0
 15 16  1  0  0  0  0
 15 44  1  0  0  0  0
 15 45  1  0  0  0  0
 16 28  1  0  0  0  0
 16 17  1  0  0  0  0
 17 18  2  0  0  0  0
 17 19  1  0  0  0  0
 19 20  1  0  0  0  0
 19 21  2  0  0  0  0
 21 22  1  0  0  0  0
 21 46  1  0  0  0  0
 22 23  1  0  0  0  0
 22 28  1  0  0  0  0
 23 27  1  0  0  0  0
 23 24  1  0  0  0  0
 23 47  1  0  0  0  0
 24 25  1  0  0  0  0
 24 48  1  0  0  0  0
 24 49  1  0  0  0  0
 25 26  1  0  0  0  0
 25 50  1  0  0  0  0
 25 51  1  0  0  0  0
 26 27  1  0  0  0  0
 26 52  1  0  0  0  0
 26 53  1  0  0  0  0
 28 29  2  0  0  0  0
M  END
> <s_m_source_file>
AV-unprocessed.smi

> <i_m_source_file_index>
94

> <i_lp_mmshare_version>
43012

> <i_f3d_flags>
0

> <s_epik_input>
W0NIM11PYzFbY0hdW2NIXWMoW0NIM10pW2NIXWMxW0NASF0oW0NIM10pW05IXUMoPU8pW0NIMl1uMmMoPU8pYyhGKVtjSF1uKGMyPU8pW0NAQEhdM1tDSDJdW0NIMl1bQ0gyXU8z

> <s_epik_cmdline>
J2VwaWtfcHl0aG9uJywgJy1waCcsICc3LjAnLCAnLXRuJywgJzgnLCAnLW1hJywgJzIwMCcsICctbWV0YWxfYmluZGluZycsICctaW1hZScsICc8aW5maWxlLm1hZT4nLCAnLW9tYWUnLCAnPG91dGZpbGUubWFlPic=

> <r_lp_tautomer_probability>
1

> <r_epik_Ionization_Penalty>
3.37009e-08

> <r_epik_Ionization_Penalty_Charging>
3.59856e-09

> <r_epik_Ionization_Penalty_Neutral>
3.01024e-08

> <r_epik_State_Penalty>
-0

> <r_epik_Charging_Adjusted_Penalty>
3.59856e-09

> <i_epik_Tot_Q>
0

> <i_epik_Tot_abs_Q>
0

> <r_epik_Metal_State_Penalty>
-0

> <b_epik_Metal_Only>
0

> <s_epik_Chemistry_Notes>
This compound contains an acetal/aminal-like group ( X-CH(R)-Y where X, Y are N, S, or O) that may be acid/base labile, releasing an aldehyde.

> <s_lp_Force_Field>
OPLS_2005

> <r_lp_Energy>
26.0468

> <b_lp_Chiralities_Consistent>
1

> <s_lp_Variant>
AV-unprocessed.smi:94-1

> <Gold.Version>
5.8.1

> <Gold.Id.Protein>
6NUR|6NUR_protein|mol2

> <Gold.PLP.Fitness>
49.1764

> <Gold.PLP.PLP>
-45.1335

> <Gold.PLP.part.hbond>
-2.4674

> <Gold.PLP.part.metal>
0.0000

> <Gold.PLP.part.buried>
-6.2840

> <Gold.PLP.part.nonpolar>
-37.9062

> <Gold.PLP.part.repulsive>
0.0400

> <Gold.PLP.ligand.clash>
0.0000

> <Gold.PLP.ligand.torsion>
0.5620

> <Gold.PLP.Chemscore.Hbond>
1.6720

> <Gold.PLP.Chemscore.CHOScore>
0.0000

> <Gold.PLP.Chemscore.Metal>
0.0000

> <Gold.Chemscore.Hbonds>
donor molecule, donor type, donor heavy atom, donor atom, acceptor molecule, acceptor atom, score
      P1  H  6931  6943       L1    29  0.62
      P1  H  7997  8009       L1     2  0.90

> <Gold.PLP.Chemscore.Internal.Correction>
0.1510

> <Gold.Rescore>
     Score         DG    S(hbond)    S(metal)    S(lipo)     H(rot)  DE(clash)    DE(int)     intcor
     15.13     -17.63       1.42        0.00     114.41       2.34       0.01       2.50       ----

> <Gold.Chemscore.Fitness>
15.1267

> <Gold.Chemscore.DG>
-17.6316

> <Gold.Chemscore.ZeroCoef>
-5.4800

> <Gold.Chemscore.Hbond>
1.4216

> <Gold.Chemscore.Metal>
0.0000

> <Gold.Chemscore.Lipo>
114.4114

> <Gold.Chemscore.Internal_Hbond>
0.0000

> <Gold.Chemscore.DEClash>
0.0060

> <Gold.Chemscore.DEInternal>
2.4989

> <Gold.Chemscore.Rot>
2.3370

> <Gold.Chemscore.Internal.Correction>
   9.000000E+99

> <Gold.Chemscore.Hbonds>
donor molecule, donor type, donor heavy atom, donor atom, acceptor molecule, acceptor atom, score
      P1  H  6931  6943       L1    29  0.27
      P1  H  7997  8009       L1     2  0.13

> <Gold.Chemscore.Hbond.Weighted>
-4.7481

> <Gold.Chemscore.Metal.Weighted>
-0.0000

> <Gold.Chemscore.Lipo.Weighted>
-13.3861

> <Gold.Chemscore.Internal_Hbond.Weighted>
0.0000

> <Gold.Chemscore.DEClash.Weighted>
0.0060

> <Gold.Chemscore.DEInternal.Weighted>
2.4989

> <Gold.Chemscore.Rot.Weighted>
5.9827

> <Gold.Chemscore.Internal.Correction.Weighted>
   9.000000E+99

> <Gold.Protein.RotatedTorsions>
[ 6907 6896 6895 6894 ] final  128.12 input  -60.11 | X-H torsion
[ 7974 7965 7964 7962 ] final  108.79 input  175.53 | X-H torsion
[ 8008 7997 7996 7995 ] final  145.62 input   59.86 | X-H torsion
[ 10167 10162 10161 10158 ] final  -82.88 input  -65.29 | X-H torsion
[ 10718 10713 10712 10709 ] final  -89.42 input   66.30 | X-H torsion
[ 10763 10752 10751 10750 ] final   70.85 input  -60.55 | X-H torsion
[ 11005 11000 10999 10996 ] final  153.23 input  -57.11 | X-H torsion

> <Gold.Protein.ActiveResidues>
 VAL166  LYS551  ARG553  GLY616  TRP617  ASP618  TYR619  PRO620  LYS621  CYS622 
 ASP623  PHE694  ASN695  SER759  ASP760  ASP761  ALA762  ILE779  LEU786  VAL792 
 PHE793  MET794  SER795  GLU796  ALA797  LYS798  CYS799  TRP800  GLU811  SER814 

> <Gold.Protein.RotatedAtoms>
  152.3749  133.6467  159.6115 H   0  0  0  0  0  0  0  0  0  0  0  0  # atno 6907 bound_to 6896
  150.7696  133.9210  159.3407 H   0  0  0  0  0  0  0  0  0  0  0  0  # atno 6908 bound_to 6896
  151.7026  135.0928  160.0305 H   0  0  0  0  0  0  0  0  0  0  0  0  # atno 6909 bound_to 6896
  145.2762  139.2649  143.3940 H   0  0  0  0  0  0  0  0  0  0  0  0  # atno 7974 bound_to 7965
  156.2878  140.2204  156.5245 H   0  0  0  0  0  0  0  0  0  0  0  0  # atno 8008 bound_to 7997
  154.7501  140.0481  157.0907 H   0  0  0  0  0  0  0  0  0  0  0  0  # atno 8009 bound_to 7997
  155.0121  140.3114  155.4829 H   0  0  0  0  0  0  0  0  0  0  0  0  # atno 8010 bound_to 7997
  140.4279  143.2560  151.8801 H   0  0  0  0  0  0  0  0  0  0  0  0  # atno 10167 bound_to 10162
  155.9984  130.4871  150.5168 H   0  0  0  0  0  0  0  0  0  0  0  0  # atno 10718 bound_to 10713
  153.0365  135.5158  154.7504 H   0  0  0  0  0  0  0  0  0  0  0  0  # atno 10763 bound_to 10752
  154.6476  135.2920  155.0029 H   0  0  0  0  0  0  0  0  0  0  0  0  # atno 10764 bound_to 10752
  154.0924  135.6648  153.4907 H   0  0  0  0  0  0  0  0  0  0  0  0  # atno 10765 bound_to 10752
  140.1379  134.8759  157.2291 H   0  0  0  0  0  0  0  0  0  0  0  0  # atno 11005 bound_to 11000
  146.3231  140.3217  142.8634 LP  0  0  0  0  0  0  0  0  0  0  0  0  # atno 17320 bound_to 7965
  144.9293  140.7956  143.5699 LP  0  0  0  0  0  0  0  0  0  0  0  0  # atno 17321 bound_to 7965
  139.4784  144.5367  151.8588 LP  0  0  0  0  0  0  0  0  0  0  0  0  # atno 17342 bound_to 10162
  140.4461  144.1920  150.5894 LP  0  0  0  0  0  0  0  0  0  0  0  0  # atno 17343 bound_to 10162
  157.3134  131.0668  151.1984 LP  0  0  0  0  0  0  0  0  0  0  0  0  # atno 17370 bound_to 10713
  157.2922  130.6802  149.6120 LP  0  0  0  0  0  0  0  0  0  0  0  0  # atno 17371 bound_to 10713
  140.2759  134.3406  155.7358 LP  0  0  0  0  0  0  0  0  0  0  0  0  # atno 17394 bound_to 11000
  141.2181  133.7450  156.9292 LP  0  0  0  0  0  0  0  0  0  0  0  0  # atno 17395 bound_to 11000

$$$$
