AV-unprocessed.smi:1406|AV-procd|sdf|5713|dock9
  -GOLD-   22720 5343D 1   1.00000     0.00000
 Structure written by MMmdl.
 41 43  0  0  0  0  0  0  0  0  2 V2000
  150.2354  137.9223  158.1880 C   0  0  0  0  0  0  0  0  0  0  0  0
  151.3841  138.2205  157.2029 C   0  0  2  0  0  0  0  0  0  0  0  0
  152.4482  139.1601  157.7925 C   0  0  0  0  0  0  0  0  0  0  0  0
  153.6422  138.8610  157.7579 O   0  0  0  0  0  0  0  0  0  0  0  0
  151.9972  140.3029  158.3341 N   0  0  0  0  0  0  0  0  0  0  0  0
  152.8295  141.3182  158.9721 C   0  0  2  0  0  0  0  0  0  0  0  0
  153.3853  140.8655  160.3339 C   0  0  0  0  0  0  0  0  0  0  0  0
  153.3533  142.1217  161.2266 C   0  0  0  0  0  0  0  0  0  0  0  0
  152.8963  143.2148  160.3472 N   0  3  2  0  0  0  0  0  0  0  0  0
  152.2538  144.3782  160.9963 C   0  0  0  0  0  0  0  0  0  0  0  0
  151.9298  145.4413  159.9277 C   0  0  0  0  0  0  0  0  0  0  0  0
  151.1057  144.8507  158.7656 C   0  0  0  0  0  0  0  0  0  0  0  0
  151.7766  143.5876  158.1923 C   0  0  0  0  0  0  0  0  0  0  0  0
  152.0448  142.5842  159.3272 C   0  0  1  0  0  0  0  0  0  0  0  0
  150.8940  138.7443  155.9339 N   0  0  0  0  0  0  0  0  0  0  0  0
  150.8774  139.9963  155.4711 C   0  0  0  0  0  0  0  0  0  0  0  0
  150.3103  140.1229  154.2797 N   0  0  0  0  0  0  0  0  0  0  0  0
  149.9681  138.8203  154.0505 C   0  0  0  0  0  0  0  0  0  0  0  0
  150.2851  137.9552  155.0137 N   0  0  0  0  0  0  0  0  0  0  0  0
  150.6128  137.4803  159.1108 H   0  0  0  0  0  0  0  0  0  0  0  0
  149.5270  137.2158  157.7547 H   0  0  0  0  0  0  0  0  0  0  0  0
  149.6807  138.8225  158.4561 H   0  0  0  0  0  0  0  0  0  0  0  0
  151.8774  137.2707  156.9882 H   0  0  0  0  0  0  0  0  0  0  0  0
  151.0016  140.4708  158.3209 H   0  0  0  0  0  0  0  0  0  0  0  0
  153.6730  141.5805  158.3294 H   0  0  0  0  0  0  0  0  0  0  0  0
  152.7664  140.0841  160.7776 H   0  0  0  0  0  0  0  0  0  0  0  0
  154.3945  140.4648  160.2322 H   0  0  0  0  0  0  0  0  0  0  0  0
  152.6480  141.9790  162.0469 H   0  0  0  0  0  0  0  0  0  0  0  0
  154.3290  142.3528  161.6548 H   0  0  0  0  0  0  0  0  0  0  0  0
  151.3444  144.0630  161.5104 H   0  0  0  0  0  0  0  0  0  0  0  0
  152.9242  144.7936  161.7495 H   0  0  0  0  0  0  0  0  0  0  0  0
  151.3931  146.2755  160.3805 H   0  0  0  0  0  0  0  0  0  0  0  0
  152.8608  145.8522  159.5345 H   0  0  0  0  0  0  0  0  0  0  0  0
  150.1059  144.5997  159.1220 H   0  0  0  0  0  0  0  0  0  0  0  0
  150.9753  145.5962  157.9807 H   0  0  0  0  0  0  0  0  0  0  0  0
  151.1349  143.1414  157.4325 H   0  0  0  0  0  0  0  0  0  0  0  0
  152.7113  143.8545  157.6972 H   0  0  0  0  0  0  0  0  0  0  0  0
  151.0976  142.3003  159.7921 H   0  0  0  0  0  0  0  0  0  0  0  0
  151.2843  140.8337  156.0189 H   0  0  0  0  0  0  0  0  0  0  0  0
  149.4642  138.5009  153.1502 H   0  0  0  0  0  0  0  0  0  0  0  0
  153.7151  143.5549  159.8631 H   0  0  0  0  0  0  0  0  0  0  0  0
  1  2  1  0  0  0  0
  1 20  1  0  0  0  0
  1 21  1  0  0  0  0
  1 22  1  0  0  0  0
  2  3  1  0  0  0  0
  2 15  1  0  0  0  0
  2 23  1  0  0  0  0
  3  4  2  0  0  0  0
  3  5  1  0  0  0  0
  5  6  1  0  0  0  0
  5 24  1  0  0  0  0
  6 14  1  0  0  0  0
  6  7  1  0  0  0  0
  6 25  1  0  0  0  0
  7  8  1  0  0  0  0
  7 26  1  0  0  0  0
  7 27  1  0  0  0  0
  8  9  1  0  0  0  0
  8 28  1  0  0  0  0
  8 29  1  0  0  0  0
  9 14  1  0  0  0  0
  9 10  1  0  0  0  0
  9 41  1  0  0  0  0
 10 11  1  0  0  0  0
 10 30  1  0  0  0  0
 10 31  1  0  0  0  0
 11 12  1  0  0  0  0
 11 32  1  0  0  0  0
 11 33  1  0  0  0  0
 12 13  1  0  0  0  0
 12 34  1  0  0  0  0
 12 35  1  0  0  0  0
 13 14  1  0  0  0  0
 13 36  1  0  0  0  0
 13 37  1  0  0  0  0
 14 38  1  0  0  0  0
 15 19  1  0  0  0  0
 15 16  1  0  0  0  0
 16 17  2  0  0  0  0
 16 39  1  0  0  0  0
 17 18  1  0  0  0  0
 18 19  2  0  0  0  0
 18 40  1  0  0  0  0
M  CHG  1   9   1
M  END
> <s_m_source_file>
AV-unprocessed.smi

> <i_m_source_file_index>
1406

> <i_lp_mmshare_version>
43012

> <i_f3d_flags>
0

> <s_epik_input>
bjFbY0hdbltjSF1uMVtDQEhdKFtDSDNdKUMoPU8pW05IXVtDQEhdKFtDSDJdW0NIMl0yKVtDQEBIXShOMjMpW0NIMl1bQ0gyXVtDSDJdW0NIMl0z

> <s_epik_cmdline>
J2VwaWtfcHl0aG9uJywgJy1waCcsICc3LjAnLCAnLXRuJywgJzgnLCAnLW1hJywgJzIwMCcsICctbWV0YWxfYmluZGluZycsICctaW1hZScsICc8aW5maWxlLm1hZT4nLCAnLW9tYWUnLCAnPG91dGZpbGUubWFlPic=

> <r_lp_tautomer_probability>
1

> <r_epik_Ionization_Penalty>
0.00197066

> <r_epik_Ionization_Penalty_Charging>
0.00196223

> <r_epik_Ionization_Penalty_Neutral>
8.43107e-06

> <r_epik_State_Penalty>
0.00133866

> <r_epik_Charging_Adjusted_Penalty>
0.00330089

> <i_epik_Tot_Q>
1

> <i_epik_Tot_abs_Q>
1

> <r_epik_Metal_State_Penalty>
-0

> <b_epik_Metal_Only>
0

> <s_lp_Force_Field>
OPLS_2005

> <r_lp_Energy>
39.8757

> <b_lp_Chiralities_Consistent>
1

> <s_lp_Variant>
AV-unprocessed.smi:1406-5

> <Gold.Version>
5.8.1

> <Gold.Id.Protein>
6NUR|6NUR_protein|mol2

> <Gold.PLP.Fitness>
49.4860

> <Gold.PLP.PLP>
-40.4734

> <Gold.PLP.part.hbond>
-2.0000

> <Gold.PLP.part.metal>
0.0000

> <Gold.PLP.part.buried>
-6.3626

> <Gold.PLP.part.nonpolar>
-32.6861

> <Gold.PLP.part.repulsive>
0.3922

> <Gold.PLP.ligand.clash>
0.0000

> <Gold.PLP.ligand.torsion>
0.8710

> <Gold.PLP.Chemscore.Hbond>
2.0000

> <Gold.PLP.Chemscore.CHOScore>
1.5499

> <Gold.PLP.Chemscore.Metal>
0.0000

> <Gold.Chemscore.Hbonds>
donor molecule, donor type, donor heavy atom, donor atom, acceptor molecule, acceptor atom, score
      P1  H  7989  7998       L1    17  0.90
      P1  H  7997  8008       L1     4  1.00
      L1  C    18    40       P1  7948  0.77
      L1  C    18    40       P1  7957  0.75

> <Gold.PLP.Chemscore.Internal.Correction>
0.1047

> <Gold.Rescore>
     Score         DG    S(hbond)    S(metal)    S(lipo)     H(rot)  DE(clash)    DE(int)     intcor
     16.85     -17.99       1.83        0.00      96.04       1.89       0.00       1.14       ----

> <Gold.Chemscore.Fitness>
16.8487

> <Gold.Chemscore.DG>
-17.9923

> <Gold.Chemscore.ZeroCoef>
-5.4800

> <Gold.Chemscore.Hbond>
1.8280

> <Gold.Chemscore.Metal>
0.0000

> <Gold.Chemscore.Lipo>
96.0358

> <Gold.Chemscore.Internal_Hbond>
0.0000

> <Gold.Chemscore.DEClash>
0.0000

> <Gold.Chemscore.DEInternal>
1.1435

> <Gold.Chemscore.Rot>
1.8865

> <Gold.Chemscore.Internal.Correction>
   9.000000E+99

> <Gold.Chemscore.Hbonds>
donor molecule, donor type, donor heavy atom, donor atom, acceptor molecule, acceptor atom, score
      P1  H  7989  7998       L1    17  0.17
      P1  H  7997  8008       L1     4  0.92

> <Gold.Chemscore.Hbond.Weighted>
-6.1056

> <Gold.Chemscore.Metal.Weighted>
-0.0000

> <Gold.Chemscore.Lipo.Weighted>
-11.2362

> <Gold.Chemscore.Internal_Hbond.Weighted>
0.0000

> <Gold.Chemscore.DEClash.Weighted>
0.0000

> <Gold.Chemscore.DEInternal.Weighted>
1.1435

> <Gold.Chemscore.Rot.Weighted>
4.8295

> <Gold.Chemscore.Internal.Correction.Weighted>
   9.000000E+99

> <Gold.Protein.RotatedTorsions>
[ 6907 6896 6895 6894 ] final  -78.68 input  -60.11 | X-H torsion
[ 7974 7965 7964 7962 ] final -122.26 input  175.53 | X-H torsion
[ 8008 7997 7996 7995 ] final  -90.80 input   59.86 | X-H torsion
[ 10167 10162 10161 10158 ] final -114.39 input  -65.29 | X-H torsion
[ 10718 10713 10712 10709 ] final  -60.05 input   66.30 | X-H torsion
[ 10763 10752 10751 10750 ] final -131.60 input  -60.55 | X-H torsion
[ 11005 11000 10999 10996 ] final  137.47 input  -57.11 | X-H torsion

> <Gold.Protein.ActiveResidues>
 VAL166  LYS551  ARG553  GLY616  TRP617  ASP618  TYR619  PRO620  LYS621  CYS622 
 ASP623  PHE694  ASN695  SER759  ASP760  ASP761  ALA762  ILE779  LEU786  VAL792 
 PHE793  MET794  SER795  GLU796  ALA797  LYS798  CYS799  TRP800  GLU811  SER814 

> <Gold.Protein.RotatedAtoms>
  150.6967  134.4236  159.5215 H   0  0  0  0  0  0  0  0  0  0  0  0  # atno 6907 bound_to 6896
  152.1974  134.8615  160.0520 H   0  0  0  0  0  0  0  0  0  0  0  0  # atno 6908 bound_to 6896
  151.9548  133.3642  159.4050 H   0  0  0  0  0  0  0  0  0  0  0  0  # atno 6909 bound_to 6896
  145.0314  140.8070  143.4321 H   0  0  0  0  0  0  0  0  0  0  0  0  # atno 7974 bound_to 7965
  154.7030  140.0526  157.0476 H   0  0  0  0  0  0  0  0  0  0  0  0  # atno 8008 bound_to 7997
  155.0659  140.3194  155.4627 H   0  0  0  0  0  0  0  0  0  0  0  0  # atno 8009 bound_to 7997
  156.2766  140.2090  156.5786 H   0  0  0  0  0  0  0  0  0  0  0  0  # atno 8010 bound_to 7997
  140.1015  143.4608  152.1809 H   0  0  0  0  0  0  0  0  0  0  0  0  # atno 10167 bound_to 10162
  156.1018  130.4185  150.0800 H   0  0  0  0  0  0  0  0  0  0  0  0  # atno 10718 bound_to 10713
  154.8749  135.3825  154.4272 H   0  0  0  0  0  0  0  0  0  0  0  0  # atno 10763 bound_to 10752
  153.4970  135.7030  153.5858 H   0  0  0  0  0  0  0  0  0  0  0  0  # atno 10764 bound_to 10752
  153.4206  135.3902  155.2076 H   0  0  0  0  0  0  0  0  0  0  0  0  # atno 10765 bound_to 10752
  140.0116  134.9436  157.0290 H   0  0  0  0  0  0  0  0  0  0  0  0  # atno 11005 bound_to 11000
  145.1766  139.2375  143.5314 LP  0  0  0  0  0  0  0  0  0  0  0  0  # atno 17320 bound_to 7965
  146.3499  140.1530  142.8592 LP  0  0  0  0  0  0  0  0  0  0  0  0  # atno 17321 bound_to 7965
  139.5668  144.7440  151.3999 LP  0  0  0  0  0  0  0  0  0  0  0  0  # atno 17342 bound_to 10162
  140.6975  143.7713  150.7350 LP  0  0  0  0  0  0  0  0  0  0  0  0  # atno 17343 bound_to 10162
  156.8786  130.9548  151.3602 LP  0  0  0  0  0  0  0  0  0  0  0  0  # atno 17370 bound_to 10713
  157.6189  130.8640  149.9075 LP  0  0  0  0  0  0  0  0  0  0  0  0  # atno 17371 bound_to 10713
  140.4543  134.1549  155.7184 LP  0  0  0  0  0  0  0  0  0  0  0  0  # atno 17394 bound_to 11000
  141.1715  133.8599  157.1556 LP  0  0  0  0  0  0  0  0  0  0  0  0  # atno 17395 bound_to 11000

$$$$
