AV-unprocessed.smi:744|AV-procd|sdf|3570|dock9
  -GOLD-   22720 0563D 1   1.00000     0.00000
 Structure written by MMmdl.
 34 35  0  0  0  0  0  0  0  0  1 V2000
  144.7894  137.3096  152.3974 O   0  0  0  0  0  0  0  0  0  0  0  0
  145.9824  137.0203  152.3043 C   0  0  0  0  0  0  0  0  0  0  0  0
  146.9755  137.8729  152.5968 N   0  0  0  0  0  0  0  0  0  0  0  0
  146.8056  139.2482  153.0572 C   0  0  0  0  0  0  0  0  0  0  0  0
  147.7686  139.5911  154.2128 C   0  0  2  0  0  0  0  0  0  0  0  0
  148.4056  140.9815  154.1076 C   0  0  0  0  0  0  0  0  0  0  0  0
  149.6558  140.9338  154.9993 C   0  0  0  0  0  0  0  0  0  0  0  0
  149.8947  139.4537  155.3392 C   0  0  0  0  0  0  0  0  0  0  0  0
  148.9699  138.6529  154.4160 C   0  0  2  0  0  0  0  0  0  0  0  0
  149.6471  138.4055  153.1978 O   0  0  0  0  0  0  0  0  0  0  0  0
  146.4646  135.8321  151.8990 N   0  0  0  0  0  0  0  0  0  0  0  0
  145.7357  134.6810  151.4965 C   0  0  0  0  0  0  0  0  0  0  0  0
  146.5269  133.5718  151.1208 C   0  0  0  0  0  0  0  0  0  0  0  0
  145.8990  132.3816  150.7056 C   0  0  0  0  0  0  0  0  0  0  0  0
  144.4938  132.3305  150.6775 C   0  0  0  0  0  0  0  0  0  0  0  0
  143.7807  133.4790  151.0671 C   0  0  0  0  0  0  0  0  0  0  0  0
  144.3806  134.6210  151.4646 N   0  0  0  0  0  0  0  0  0  0  0  0
  147.9251  137.5469  152.4923 H   0  0  0  0  0  0  0  0  0  0  0  0
  146.9135  139.9574  152.2348 H   0  0  0  0  0  0  0  0  0  0  0  0
  145.7774  139.3507  153.4050 H   0  0  0  0  0  0  0  0  0  0  0  0
  147.1911  139.5764  155.1391 H   0  0  0  0  0  0  0  0  0  0  0  0
  148.7045  141.1767  153.0766 H   0  0  0  0  0  0  0  0  0  0  0  0
  147.7165  141.7733  154.4026 H   0  0  0  0  0  0  0  0  0  0  0  0
  150.5119  141.3589  154.4742 H   0  0  0  0  0  0  0  0  0  0  0  0
  149.5117  141.5148  155.9108 H   0  0  0  0  0  0  0  0  0  0  0  0
  150.9427  139.1647  155.2484 H   0  0  0  0  0  0  0  0  0  0  0  0
  149.6033  139.2769  156.3752 H   0  0  0  0  0  0  0  0  0  0  0  0
  148.6799  137.6997  154.8593 H   0  0  0  0  0  0  0  0  0  0  0  0
  149.5094  139.1439  152.6224 H   0  0  0  0  0  0  0  0  0  0  0  0
  147.4692  135.7408  151.8720 H   0  0  0  0  0  0  0  0  0  0  0  0
  147.6057  133.6275  151.1488 H   0  0  0  0  0  0  0  0  0  0  0  0
  146.4861  131.5233  150.4137 H   0  0  0  0  0  0  0  0  0  0  0  0
  143.9759  131.4356  150.3659 H   0  0  0  0  0  0  0  0  0  0  0  0
  142.7008  133.4817  151.0601 H   0  0  0  0  0  0  0  0  0  0  0  0
  1  2  2  0  0  0  0
  2  3  1  0  0  0  0
  2 11  1  0  0  0  0
  3  4  1  0  0  0  0
  3 18  1  0  0  0  0
  4  5  1  0  0  0  0
  4 19  1  0  0  0  0
  4 20  1  0  0  0  0
  5  9  1  0  0  0  0
  5  6  1  0  0  0  0
  5 21  1  0  0  0  0
  6  7  1  0  0  0  0
  6 22  1  0  0  0  0
  6 23  1  0  0  0  0
  7  8  1  0  0  0  0
  7 24  1  0  0  0  0
  7 25  1  0  0  0  0
  8  9  1  0  0  0  0
  8 26  1  0  0  0  0
  8 27  1  0  0  0  0
  9 10  1  0  0  0  0
  9 28  1  0  0  0  0
 10 29  1  0  0  0  0
 11 12  1  0  0  0  0
 11 30  1  0  0  0  0
 12 17  1  0  0  0  0
 12 13  2  0  0  0  0
 13 14  1  0  0  0  0
 13 31  1  0  0  0  0
 14 15  2  0  0  0  0
 14 32  1  0  0  0  0
 15 16  1  0  0  0  0
 15 33  1  0  0  0  0
 16 17  2  0  0  0  0
 16 34  1  0  0  0  0
M  END
> <s_m_source_file>
AV-unprocessed.smi

> <i_m_source_file_index>
744

> <i_lp_mmshare_version>
43012

> <i_f3d_flags>
0

> <s_epik_input>
bjFbY0hdW2NIXVtjSF1bY0hdYzFbTkhdQyg9TylbTkhdW0NIMl1bQ0BASF0yW0NIMl1bQ0gyXVtDSDJdW0NASF0yW09IXQ==

> <s_epik_cmdline>
J2VwaWtfcHl0aG9uJywgJy1waCcsICc3LjAnLCAnLXRuJywgJzgnLCAnLW1hJywgJzIwMCcsICctbWV0YWxfYmluZGluZycsICctaW1hZScsICc8aW5maWxlLm1hZT4nLCAnLW9tYWUnLCAnPG91dGZpbGUubWFlPic=

> <r_lp_tautomer_probability>
1

> <r_epik_Ionization_Penalty>
5.04769e-05

> <r_epik_Ionization_Penalty_Charging>
0

> <r_epik_Ionization_Penalty_Neutral>
5.04769e-05

> <r_epik_State_Penalty>
-0

> <r_epik_Charging_Adjusted_Penalty>
0

> <i_epik_Tot_Q>
0

> <i_epik_Tot_abs_Q>
0

> <r_epik_Metal_State_Penalty>
-0

> <b_epik_Metal_Only>
0

> <s_lp_Force_Field>
OPLS_2005

> <r_lp_Energy>
26.8719

> <b_lp_Chiralities_Consistent>
1

> <s_lp_Variant>
AV-unprocessed.smi:744-3

> <Gold.Version>
5.8.1

> <Gold.Id.Protein>
6NUR|6NUR_protein|mol2

> <Gold.PLP.Fitness>
41.1652

> <Gold.PLP.PLP>
-30.8528

> <Gold.PLP.part.hbond>
-3.9485

> <Gold.PLP.part.metal>
0.0000

> <Gold.PLP.part.buried>
-4.8246

> <Gold.PLP.part.nonpolar>
-23.8523

> <Gold.PLP.part.repulsive>
0.9670

> <Gold.PLP.ligand.clash>
0.0000

> <Gold.PLP.ligand.torsion>
0.7125

> <Gold.PLP.Chemscore.Hbond>
2.9120

> <Gold.PLP.Chemscore.CHOScore>
1.0000

> <Gold.PLP.Chemscore.Metal>
0.0000

> <Gold.Chemscore.Hbonds>
donor molecule, donor type, donor heavy atom, donor atom, acceptor molecule, acceptor atom, score
      L1  H     3    18       P1  7948  0.90
      L1  H    10    29       P1  7957  1.00
      L1  H    11    30       P1  7948  1.00
      L1  C    16    34       P1 10186  1.00

> <Gold.PLP.Chemscore.Internal.Correction>
0.0013

> <Gold.Rescore>
     Score         DG    S(hbond)    S(metal)    S(lipo)     H(rot)  DE(clash)    DE(int)     intcor
     14.71     -18.32       2.83        0.00      68.37       1.81       0.23       3.37       ----

> <Gold.Chemscore.Fitness>
14.7137

> <Gold.Chemscore.DG>
-18.3210

> <Gold.Chemscore.ZeroCoef>
-5.4800

> <Gold.Chemscore.Hbond>
2.8331

> <Gold.Chemscore.Metal>
0.0000

> <Gold.Chemscore.Lipo>
68.3729

> <Gold.Chemscore.Internal_Hbond>
0.0000

> <Gold.Chemscore.DEClash>
0.2339

> <Gold.Chemscore.DEInternal>
3.3734

> <Gold.Chemscore.Rot>
1.8052

> <Gold.Chemscore.Internal.Correction>
   9.000000E+99

> <Gold.Chemscore.Hbonds>
donor molecule, donor type, donor heavy atom, donor atom, acceptor molecule, acceptor atom, score
      L1  H     3    18       P1  7948  0.88
      L1  H    10    29       P1  7957  0.96
      L1  H    11    30       P1  7948  0.93

> <Gold.Chemscore.Hbond.Weighted>
-9.4626

> <Gold.Chemscore.Metal.Weighted>
-0.0000

> <Gold.Chemscore.Lipo.Weighted>
-7.9996

> <Gold.Chemscore.Internal_Hbond.Weighted>
0.0000

> <Gold.Chemscore.DEClash.Weighted>
0.2339

> <Gold.Chemscore.DEInternal.Weighted>
3.3734

> <Gold.Chemscore.Rot.Weighted>
4.6212

> <Gold.Chemscore.Internal.Correction.Weighted>
   9.000000E+99

> <Gold.Protein.RotatedTorsions>
[ 6907 6896 6895 6894 ] final   26.55 input  -60.11 | X-H torsion
[ 7974 7965 7964 7962 ] final  -25.85 input  175.53 | X-H torsion
[ 8008 7997 7996 7995 ] final  138.91 input   59.86 | X-H torsion
[ 10167 10162 10161 10158 ] final  174.52 input  -65.29 | X-H torsion
[ 10718 10713 10712 10709 ] final -153.36 input   66.30 | X-H torsion
[ 10763 10752 10751 10750 ] final   48.93 input  -60.55 | X-H torsion
[ 11005 11000 10999 10996 ] final  127.94 input  -57.11 | X-H torsion

> <Gold.Protein.ActiveResidues>
 VAL166  LYS551  ARG553  GLY616  TRP617  ASP618  TYR619  PRO620  LYS621  CYS622 
 ASP623  PHE694  ASN695  SER759  ASP760  ASP761  ALA762  ILE779  LEU786  VAL792 
 PHE793  MET794  SER795  GLU796  ALA797  LYS798  CYS799  TRP800  GLU811  SER814 

> <Gold.Protein.RotatedAtoms>
  151.9892  134.9988  160.0560 H   0  0  0  0  0  0  0  0  0  0  0  0  # atno 6907 bound_to 6896
  152.1624  133.4586  159.4876 H   0  0  0  0  0  0  0  0  0  0  0  0  # atno 6908 bound_to 6896
  150.6889  134.1972  159.4351 H   0  0  0  0  0  0  0  0  0  0  0  0  # atno 6909 bound_to 6896
  146.1464  140.4942  142.8630 H   0  0  0  0  0  0  0  0  0  0  0  0  # atno 7974 bound_to 7965
  156.2994  140.2381  156.4151 H   0  0  0  0  0  0  0  0  0  0  0  0  # atno 8008 bound_to 7997
  154.8406  140.0428  157.1559 H   0  0  0  0  0  0  0  0  0  0  0  0  # atno 8009 bound_to 7997
  154.9107  140.2990  155.5271 H   0  0  0  0  0  0  0  0  0  0  0  0  # atno 8010 bound_to 7997
  139.5145  144.3136  152.0268 H   0  0  0  0  0  0  0  0  0  0  0  0  # atno 10167 bound_to 10162
  156.4848  130.8320  151.2545 H   0  0  0  0  0  0  0  0  0  0  0  0  # atno 10718 bound_to 10713
  152.9789  135.5928  154.4007 H   0  0  0  0  0  0  0  0  0  0  0  0  # atno 10763 bound_to 10752
  154.3653  135.2767  155.2299 H   0  0  0  0  0  0  0  0  0  0  0  0  # atno 10764 bound_to 10752
  154.4278  135.6043  153.6105 H   0  0  0  0  0  0  0  0  0  0  0  0  # atno 10765 bound_to 10752
  139.9534  134.9618  156.8928 H   0  0  0  0  0  0  0  0  0  0  0  0  # atno 11005 bound_to 11000
  144.7851  140.5920  143.6579 LP  0  0  0  0  0  0  0  0  0  0  0  0  # atno 17320 bound_to 7965
  145.4928  139.1487  143.3700 LP  0  0  0  0  0  0  0  0  0  0  0  0  # atno 17321 bound_to 7965
  140.2580  144.4097  150.6196 LP  0  0  0  0  0  0  0  0  0  0  0  0  # atno 17342 bound_to 10162
  140.6177  143.2173  151.6757 LP  0  0  0  0  0  0  0  0  0  0  0  0  # atno 17343 bound_to 10162
  157.7480  131.0033  150.3032 LP  0  0  0  0  0  0  0  0  0  0  0  0  # atno 17370 bound_to 10713
  156.3485  130.3827  149.7349 LP  0  0  0  0  0  0  0  0  0  0  0  0  # atno 17371 bound_to 10713
  140.5666  134.0483  155.7416 LP  0  0  0  0  0  0  0  0  0  0  0  0  # atno 17394 bound_to 11000
  141.1201  133.9475  157.2746 LP  0  0  0  0  0  0  0  0  0  0  0  0  # atno 17395 bound_to 11000

$$$$
