AV-unprocessed.smi:350|AV-procd|sdf|2398|dock10
  -GOLD-   2262022333D 1   1.00000     0.00000
 Structure written by MMmdl.
 35 36  0  0  0  0  0  0  0  0  1 V2000
  147.1511  140.1501  157.3310 C   0  0  0  0  0  0  0  0  0  0  0  0
  148.6278  139.8739  157.4166 C   0  0  0  0  0  0  0  0  0  0  0  0
  149.4181  140.8830  157.2499 N   0  0  0  0  0  0  0  0  0  0  0  0
  150.7912  140.7395  157.3075 N   0  0  0  0  0  0  0  0  0  0  0  0
  151.5323  141.9860  157.0752 C   0  0  0  0  0  0  0  0  0  0  0  0
  151.0126  143.1435  157.9558 C   0  0  2  0  0  0  0  0  0  0  0  0
  151.2627  144.3717  157.3013 O   0  0  0  0  0  0  0  0  0  0  0  0
  151.6611  143.1161  159.3318 C   0  0  0  0  0  0  0  0  0  0  0  0
  151.4488  144.1814  160.2333 C   0  0  0  0  0  0  0  0  0  0  0  0
  152.0424  144.1600  161.5107 C   0  0  0  0  0  0  0  0  0  0  0  0
  152.8500  143.0720  161.8951 C   0  0  0  0  0  0  0  0  0  0  0  0
  153.5770  143.0461  163.4595 Cl  0  0  0  0  0  0  0  0  0  0  0  0
  153.0622  142.0044  161.0015 C   0  0  0  0  0  0  0  0  0  0  0  0
  152.4688  142.0257  159.7244 C   0  0  0  0  0  0  0  0  0  0  0  0
  151.4394  139.5628  157.5413 C   0  0  0  0  0  0  0  0  0  0  0  0
  152.6675  139.4778  157.5869 O   0  0  0  0  0  0  0  0  0  0  0  0
  150.5378  138.4235  157.7283 C   0  0  0  0  0  0  0  0  0  0  0  0
  151.1758  137.1702  157.9731 C   0  0  0  0  0  0  0  0  0  0  0  0
  151.6863  136.1545  158.1919 N   0  0  0  0  0  0  0  0  0  0  0  0
  149.1885  138.5511  157.6713 C   0  0  0  0  0  0  0  0  0  0  0  0
  148.2093  137.4000  157.8576 C   0  0  0  0  0  0  0  0  0  0  0  0
  146.6447  139.8412  158.2458 H   0  0  0  0  0  0  0  0  0  0  0  0
  146.7049  139.6079  156.4974 H   0  0  0  0  0  0  0  0  0  0  0  0
  146.9431  141.2111  157.1835 H   0  0  0  0  0  0  0  0  0  0  0  0
  152.5765  141.7920  157.3290 H   0  0  0  0  0  0  0  0  0  0  0  0
  151.5520  142.2709  156.0214 H   0  0  0  0  0  0  0  0  0  0  0  0
  149.9331  143.0528  158.0846 H   0  0  0  0  0  0  0  0  0  0  0  0
  150.5092  144.5895  156.7743 H   0  0  0  0  0  0  0  0  0  0  0  0
  150.8293  145.0195  159.9497 H   0  0  0  0  0  0  0  0  0  0  0  0
  151.8766  144.9791  162.1949 H   0  0  0  0  0  0  0  0  0  0  0  0
  153.6795  141.1678  161.2939 H   0  0  0  0  0  0  0  0  0  0  0  0
  152.6349  141.2007  159.0468 H   0  0  0  0  0  0  0  0  0  0  0  0
  148.7158  136.4472  158.0097 H   0  0  0  0  0  0  0  0  0  0  0  0
  147.5712  137.2932  156.9797 H   0  0  0  0  0  0  0  0  0  0  0  0
  147.5738  137.5757  158.7261 H   0  0  0  0  0  0  0  0  0  0  0  0
  1  2  1  0  0  0  0
  1 22  1  0  0  0  0
  1 23  1  0  0  0  0
  1 24  1  0  0  0  0
  2 20  1  0  0  0  0
  2  3  2  0  0  0  0
  3  4  1  0  0  0  0
  4  5  1  0  0  0  0
  4 15  1  0  0  0  0
  5  6  1  0  0  0  0
  5 25  1  0  0  0  0
  5 26  1  0  0  0  0
  6  7  1  0  0  0  0
  6  8  1  0  0  0  0
  6 27  1  0  0  0  0
  7 28  1  0  0  0  0
  8 14  1  0  0  0  0
  8  9  2  0  0  0  0
  9 10  1  0  0  0  0
  9 29  1  0  0  0  0
 10 11  2  0  0  0  0
 10 30  1  0  0  0  0
 11 12  1  0  0  0  0
 11 13  1  0  0  0  0
 13 14  2  0  0  0  0
 13 31  1  0  0  0  0
 14 32  1  0  0  0  0
 15 16  2  0  0  0  0
 15 17  1  0  0  0  0
 17 18  1  0  0  0  0
 17 20  2  0  0  0  0
 18 19  3  0  0  0  0
 20 21  1  0  0  0  0
 21 33  1  0  0  0  0
 21 34  1  0  0  0  0
 21 35  1  0  0  0  0
M  END
> <s_m_source_file>
AV-unprocessed.smi

> <i_m_source_file_index>
350

> <i_lp_mmshare_version>
43012

> <i_f3d_flags>
0

> <s_epik_input>
TiNDYyhjMVtDSDNdKWMoPU8pbihuYzFbQ0gzXSlbQ0gyXVtDQEhdKFtPSF0pYzJbY0hdW2NIXWMoQ2wpW2NIXVtjSF0y

> <s_epik_cmdline>
J2VwaWtfcHl0aG9uJywgJy1waCcsICc3LjAnLCAnLXRuJywgJzgnLCAnLW1hJywgJzIwMCcsICctbWV0YWxfYmluZGluZycsICctaW1hZScsICc8aW5maWxlLm1hZT4nLCAnLW9tYWUnLCAnPG91dGZpbGUubWFlPic=

> <r_lp_tautomer_probability>
1

> <r_epik_Ionization_Penalty>
1.17315e-07

> <r_epik_Ionization_Penalty_Charging>
1.40848e-10

> <r_epik_Ionization_Penalty_Neutral>
1.17174e-07

> <r_epik_State_Penalty>
-0

> <r_epik_Charging_Adjusted_Penalty>
1.40848e-10

> <i_epik_Tot_Q>
0

> <i_epik_Tot_abs_Q>
0

> <r_epik_Metal_State_Penalty>
-0

> <b_epik_Metal_Only>
0

> <s_lp_Force_Field>
OPLS_2005

> <r_lp_Energy>
28.0073

> <b_lp_Chiralities_Consistent>
1

> <s_lp_Variant>
AV-unprocessed.smi:350-1

> <Gold.Version>
5.8.1

> <Gold.Id.Protein>
6NUR|6NUR_protein|mol2

> <Gold.PLP.Fitness>
45.8847

> <Gold.PLP.PLP>
-40.0382

> <Gold.PLP.part.hbond>
-3.0000

> <Gold.PLP.part.metal>
0.0000

> <Gold.PLP.part.buried>
-6.5177

> <Gold.PLP.part.nonpolar>
-29.4926

> <Gold.PLP.part.repulsive>
0.0426

> <Gold.PLP.ligand.clash>
0.0000

> <Gold.PLP.ligand.torsion>
0.5462

> <Gold.PLP.Chemscore.Hbond>
2.3110

> <Gold.PLP.Chemscore.CHOScore>
0.0000

> <Gold.PLP.Chemscore.Metal>
0.0000

> <Gold.Chemscore.Hbonds>
donor molecule, donor type, donor heavy atom, donor atom, acceptor molecule, acceptor atom, score
      L1  H     7    28       P1  8028  1.00
      P1  H  6896  6908       L1    19  0.35
      P1  H  7997  8008       L1    16  1.00

> <Gold.PLP.Chemscore.Internal.Correction>
0.0061

> <Gold.Rescore>
     Score         DG    S(hbond)    S(metal)    S(lipo)     H(rot)  DE(clash)    DE(int)     intcor
     19.17     -19.82       2.19        0.00     101.71       1.90       0.21       0.44       ----

> <Gold.Chemscore.Fitness>
19.1743

> <Gold.Chemscore.DG>
-19.8233

> <Gold.Chemscore.ZeroCoef>
-5.4800

> <Gold.Chemscore.Hbond>
2.1914

> <Gold.Chemscore.Metal>
0.0000

> <Gold.Chemscore.Lipo>
101.7100

> <Gold.Chemscore.Internal_Hbond>
0.0000

> <Gold.Chemscore.DEClash>
0.2114

> <Gold.Chemscore.DEInternal>
0.4376

> <Gold.Chemscore.Rot>
1.9047

> <Gold.Chemscore.Internal.Correction>
   9.000000E+99

> <Gold.Chemscore.Hbonds>
donor molecule, donor type, donor heavy atom, donor atom, acceptor molecule, acceptor atom, score
      L1  H     7    28       P1  8028  0.90
      P1  H  6896  6908       L1    19  0.33
      P1  H  7997  8008       L1    16  0.93

> <Gold.Chemscore.Hbond.Weighted>
-7.3192

> <Gold.Chemscore.Metal.Weighted>
-0.0000

> <Gold.Chemscore.Lipo.Weighted>
-11.9001

> <Gold.Chemscore.Internal_Hbond.Weighted>
0.0000

> <Gold.Chemscore.DEClash.Weighted>
0.2114

> <Gold.Chemscore.DEInternal.Weighted>
0.4376

> <Gold.Chemscore.Rot.Weighted>
4.8760

> <Gold.Chemscore.Internal.Correction.Weighted>
   9.000000E+99

> <Gold.Protein.RotatedTorsions>
[ 6907 6896 6895 6894 ] final -149.04 input  -60.11 | X-H torsion
[ 7974 7965 7964 7962 ] final   80.07 input  175.53 | X-H torsion
[ 8008 7997 7996 7995 ] final  -73.03 input   59.86 | X-H torsion
[ 10167 10162 10161 10158 ] final  -10.31 input  -65.29 | X-H torsion
[ 10718 10713 10712 10709 ] final   18.68 input   66.30 | X-H torsion
[ 10763 10752 10751 10750 ] final   -5.66 input  -60.55 | X-H torsion
[ 11005 11000 10999 10996 ] final   -8.11 input  -57.11 | X-H torsion

> <Gold.Protein.ActiveResidues>
 VAL166  LYS551  ARG553  GLY616  TRP617  ASP618  TYR619  PRO620  LYS621  CYS622 
 ASP623  PHE694  ASN695  SER759  ASP760  ASP761  ALA762  ILE779  LEU786  VAL792 
 PHE793  MET794  SER795  GLU796  ALA797  LYS798  CYS799  TRP800  GLU811  SER814 

> <Gold.Protein.RotatedAtoms>
  151.1784  133.4740  159.2593 H   0  0  0  0  0  0  0  0  0  0  0  0  # atno 6907 bound_to 6896
  151.1284  135.0117  159.8581 H   0  0  0  0  0  0  0  0  0  0  0  0  # atno 6908 bound_to 6896
  152.5459  134.1689  159.8642 H   0  0  0  0  0  0  0  0  0  0  0  0  # atno 6909 bound_to 6896
  145.6560  139.2459  143.1949 H   0  0  0  0  0  0  0  0  0  0  0  0  # atno 7974 bound_to 7965
  154.5214  140.0786  156.8178 H   0  0  0  0  0  0  0  0  0  0  0  0  # atno 8008 bound_to 7997
  155.3569  140.3416  155.4222 H   0  0  0  0  0  0  0  0  0  0  0  0  # atno 8009 bound_to 7997
  156.1685  140.1611  156.8477 H   0  0  0  0  0  0  0  0  0  0  0  0  # atno 8010 bound_to 7997
  140.7110  143.5762  150.9039 H   0  0  0  0  0  0  0  0  0  0  0  0  # atno 10167 bound_to 10162
  157.0998  130.6463  149.5869 H   0  0  0  0  0  0  0  0  0  0  0  0  # atno 10718 bound_to 10713
  153.4016  135.7005  153.6422 H   0  0  0  0  0  0  0  0  0  0  0  0  # atno 10763 bound_to 10752
  153.4952  135.3664  155.2513 H   0  0  0  0  0  0  0  0  0  0  0  0  # atno 10764 bound_to 10752
  154.8711  135.4098  154.3352 H   0  0  0  0  0  0  0  0  0  0  0  0  # atno 10765 bound_to 10752
  140.7199  133.8837  155.8813 H   0  0  0  0  0  0  0  0  0  0  0  0  # atno 11005 bound_to 11000
  146.1164  140.7364  142.9478 LP  0  0  0  0  0  0  0  0  0  0  0  0  # atno 17320 bound_to 7965
  144.7105  140.4022  143.7084 LP  0  0  0  0  0  0  0  0  0  0  0  0  # atno 17321 bound_to 7965
  139.9488  143.6296  152.3034 LP  0  0  0  0  0  0  0  0  0  0  0  0  # atno 17342 bound_to 10162
  139.6807  144.7655  151.1614 LP  0  0  0  0  0  0  0  0  0  0  0  0  # atno 17343 bound_to 10162
  155.9876  130.4916  150.7134 LP  0  0  0  0  0  0  0  0  0  0  0  0  # atno 17370 bound_to 10713
  157.4650  131.0887  151.0704 LP  0  0  0  0  0  0  0  0  0  0  0  0  # atno 17371 bound_to 10713
  141.0012  134.1148  157.4315 LP  0  0  0  0  0  0  0  0  0  0  0  0  # atno 17394 bound_to 11000
  139.8850  135.0069  156.6410 LP  0  0  0  0  0  0  0  0  0  0  0  0  # atno 17395 bound_to 11000

$$$$
