AV-unprocessed.smi:155|AV-procd|sdf|1270|dock6
  -GOLD-   2262018533D 1   1.00000     0.00000
 Structure written by MMmdl.
 63 66  0  0  0  0  0  0  0  0  2 V2000
  146.3760  133.0972  150.6135 C   0  0  0  0  0  0  0  0  0  0  0  0
  144.9615  132.8174  150.4047 N   0  0  0  0  0  0  0  0  0  0  0  0
  144.6799  131.4869  150.9338 C   0  0  0  0  0  0  0  0  0  0  0  0
  144.1652  133.8452  151.0761 C   0  0  0  0  0  0  0  0  0  0  0  0
  144.4287  135.2537  150.5037 C   0  0  0  0  0  0  0  0  0  0  0  0
  144.4149  136.2912  151.5680 N   0  3  1  0  0  0  0  0  0  0  0  0
  143.2526  136.1397  152.4786 C   0  0  0  0  0  0  0  0  0  0  0  0
  143.0510  137.3421  153.4163 C   0  0  0  0  0  0  0  0  0  0  0  0
  144.0655  137.3948  154.5689 C   0  0  0  0  0  0  0  0  0  0  0  0
  145.3514  137.9870  154.1948 N   0  0  0  0  0  0  0  0  0  0  0  0
  146.1419  138.4871  155.1820 C   0  0  0  0  0  0  0  0  0  0  0  0
  145.7900  138.2680  156.4772 N   0  0  0  0  0  0  0  0  0  0  0  0
  146.5422  138.7412  157.4745 C   0  0  0  0  0  0  0  0  0  0  0  0
  147.6703  139.4487  157.4038 N   0  0  0  0  0  0  0  0  0  0  0  0
  148.0308  139.6776  156.1090 C   0  0  0  0  0  0  0  0  0  0  0  0
  147.3274  139.2451  154.9482 C   0  0  0  0  0  0  0  0  0  0  0  0
  147.9817  139.6990  153.8078 N   0  0  0  0  0  0  0  0  0  0  0  0
  149.0153  140.3490  154.2679 C   0  0  0  0  0  0  0  0  0  0  0  0
  149.1333  140.3700  155.6389 N   0  0  0  0  0  0  0  0  0  0  0  0
  150.1815  141.0192  156.4102 C   0  0  0  0  0  0  0  0  0  0  0  0
  149.6892  142.1043  157.4012 C   0  0  1  0  0  0  0  0  0  0  0  0
  148.7536  141.5756  158.3187 O   0  0  0  0  0  0  0  0  0  0  0  0
  150.7607  142.8911  158.1924 C   0  0  2  0  0  0  0  0  0  0  0  0
  150.1996  143.9781  159.1078 C   0  0  0  0  0  0  0  0  0  0  0  0
  151.4316  144.8150  159.3706 C   0  0  0  0  0  0  0  0  0  0  0  0
  152.1622  144.7550  158.0299 C   0  0  0  0  0  0  0  0  0  0  0  0
  151.6813  143.5904  157.3616 O   0  0  0  0  0  0  0  0  0  0  0  0
  145.9323  137.8014  152.8641 C   0  0  0  0  0  0  0  0  0  0  0  0
  145.7118  136.3949  152.2861 C   0  0  0  0  0  0  0  0  0  0  0  0
  146.6406  134.0720  150.2020 H   0  0  0  0  0  0  0  0  0  0  0  0
  146.9940  132.3513  150.1119 H   0  0  0  0  0  0  0  0  0  0  0  0
  146.6302  133.0941  151.6747 H   0  0  0  0  0  0  0  0  0  0  0  0
  143.6480  131.1907  150.7510 H   0  0  0  0  0  0  0  0  0  0  0  0
  144.8652  131.4380  152.0079 H   0  0  0  0  0  0  0  0  0  0  0  0
  145.3141  130.7438  150.4488 H   0  0  0  0  0  0  0  0  0  0  0  0
  143.1056  133.5984  150.9919 H   0  0  0  0  0  0  0  0  0  0  0  0
  144.3920  133.8414  152.1424 H   0  0  0  0  0  0  0  0  0  0  0  0
  145.3730  135.2621  149.9604 H   0  0  0  0  0  0  0  0  0  0  0  0
  143.6711  135.4993  149.7579 H   0  0  0  0  0  0  0  0  0  0  0  0
  142.3504  136.0449  151.8727 H   0  0  0  0  0  0  0  0  0  0  0  0
  143.3401  135.2136  153.0491 H   0  0  0  0  0  0  0  0  0  0  0  0
  143.0348  138.2806  152.8604 H   0  0  0  0  0  0  0  0  0  0  0  0
  142.0593  137.2452  153.8594 H   0  0  0  0  0  0  0  0  0  0  0  0
  143.6316  138.0011  155.3657 H   0  0  0  0  0  0  0  0  0  0  0  0
  144.2231  136.4000  154.9877 H   0  0  0  0  0  0  0  0  0  0  0  0
  146.1907  138.5200  158.4715 H   0  0  0  0  0  0  0  0  0  0  0  0
  149.7322  140.8255  153.6152 H   0  0  0  0  0  0  0  0  0  0  0  0
  150.7400  140.2497  156.9429 H   0  0  0  0  0  0  0  0  0  0  0  0
  150.8878  141.4610  155.7063 H   0  0  0  0  0  0  0  0  0  0  0  0
  149.1271  142.8335  156.8168 H   0  0  0  0  0  0  0  0  0  0  0  0
  149.0149  141.8240  159.1923 H   0  0  0  0  0  0  0  0  0  0  0  0
  151.3359  142.1992  158.8112 H   0  0  0  0  0  0  0  0  0  0  0  0
  149.4490  144.5787  158.5937 H   0  0  0  0  0  0  0  0  0  0  0  0
  149.7537  143.5785  160.0192 H   0  0  0  0  0  0  0  0  0  0  0  0
  151.1993  145.8328  159.6853 H   0  0  0  0  0  0  0  0  0  0  0  0
  152.0380  144.3479  160.1479 H   0  0  0  0  0  0  0  0  0  0  0  0
  151.9260  145.6270  157.4194 H   0  0  0  0  0  0  0  0  0  0  0  0
  153.2442  144.7154  158.1583 H   0  0  0  0  0  0  0  0  0  0  0  0
  145.5564  138.5678  152.1853 H   0  0  0  0  0  0  0  0  0  0  0  0
  147.0112  137.9483  152.9205 H   0  0  0  0  0  0  0  0  0  0  0  0
  145.8105  135.6190  153.0472 H   0  0  0  0  0  0  0  0  0  0  0  0
  146.5194  136.2157  151.5768 H   0  0  0  0  0  0  0  0  0  0  0  0
  144.2779  137.1663  151.0822 H   0  0  0  0  0  0  0  0  0  0  0  0
  1  2  1  0  0  0  0
  1 30  1  0  0  0  0
  1 31  1  0  0  0  0
  1 32  1  0  0  0  0
  2  3  1  0  0  0  0
  2  4  1  0  0  0  0
  3 33  1  0  0  0  0
  3 34  1  0  0  0  0
  3 35  1  0  0  0  0
  4  5  1  0  0  0  0
  4 36  1  0  0  0  0
  4 37  1  0  0  0  0
  5  6  1  0  0  0  0
  5 38  1  0  0  0  0
  5 39  1  0  0  0  0
  6 29  1  0  0  0  0
  6  7  1  0  0  0  0
  6 63  1  0  0  0  0
  7  8  1  0  0  0  0
  7 40  1  0  0  0  0
  7 41  1  0  0  0  0
  8  9  1  0  0  0  0
  8 42  1  0  0  0  0
  8 43  1  0  0  0  0
  9 10  1  0  0  0  0
  9 44  1  0  0  0  0
  9 45  1  0  0  0  0
 10 11  1  0  0  0  0
 10 28  1  0  0  0  0
 11 16  1  0  0  0  0
 11 12  2  0  0  0  0
 12 13  1  0  0  0  0
 13 14  2  0  0  0  0
 13 46  1  0  0  0  0
 14 15  1  0  0  0  0
 15 19  1  0  0  0  0
 15 16  2  0  0  0  0
 16 17  1  0  0  0  0
 17 18  2  0  0  0  0
 18 19  1  0  0  0  0
 18 47  1  0  0  0  0
 19 20  1  0  0  0  0
 20 21  1  0  0  0  0
 20 48  1  0  0  0  0
 20 49  1  0  0  0  0
 21 22  1  0  0  0  0
 21 23  1  0  0  0  0
 21 50  1  0  0  0  0
 22 51  1  0  0  0  0
 23 27  1  0  0  0  0
 23 24  1  0  0  0  0
 23 52  1  0  0  0  0
 24 25  1  0  0  0  0
 24 53  1  0  0  0  0
 24 54  1  0  0  0  0
 25 26  1  0  0  0  0
 25 55  1  0  0  0  0
 25 56  1  0  0  0  0
 26 27  1  0  0  0  0
 26 57  1  0  0  0  0
 26 58  1  0  0  0  0
 28 29  1  0  0  0  0
 28 59  1  0  0  0  0
 28 60  1  0  0  0  0
 29 61  1  0  0  0  0
 29 62  1  0  0  0  0
M  CHG  1   6   1
M  END
> <s_m_source_file>
AV-unprocessed.smi

> <i_m_source_file_index>
155

> <i_lp_mmshare_version>
43012

> <i_f3d_flags>
0

> <s_epik_input>
W0NIM11OKFtDSDNdKVtDSDJdW0NIMl1OMVtDSDJdW0NIMl1bQ0gyXU4oW0NIMl1bQ0gyXTEpYyhuW2NIXW4yKWMoYzIzKW5bY0hdbjNbQ0gyXVtDQEhdKFtPSF0pW0NAQEhdNFtDSDJdW0NIMl1bQ0gyXU80

> <s_epik_cmdline>
J2VwaWtfcHl0aG9uJywgJy1waCcsICc3LjAnLCAnLXRuJywgJzgnLCAnLW1hJywgJzIwMCcsICctbWV0YWxfYmluZGluZycsICctaW1hZScsICc8aW5maWxlLm1hZT4nLCAnLW9tYWUnLCAnPG91dGZpbGUubWFlPic=

> <r_epik_Ionization_Penalty>
0.0619615

> <r_epik_Ionization_Penalty_Charging>
0.0161638

> <r_epik_Ionization_Penalty_Neutral>
0.0457976

> <r_epik_State_Penalty>
0.403408

> <r_epik_Charging_Adjusted_Penalty>
0.419572

> <i_epik_Tot_Q>
1

> <i_epik_Tot_abs_Q>
1

> <r_epik_Metal_State_Penalty>
0.404222

> <b_epik_Metal_Only>
0

> <s_lp_Force_Field>
OPLS_2005

> <r_lp_Energy>
53.2961

> <b_lp_Chiralities_Consistent>
1

> <s_lp_Variant>
AV-unprocessed.smi:155-4

> <Gold.Version>
5.8.1

> <Gold.Id.Protein>
6NUR|6NUR_protein|mol2

> <Gold.PLP.Fitness>
44.9966

> <Gold.PLP.PLP>
-40.9411

> <Gold.PLP.part.hbond>
-1.1585

> <Gold.PLP.part.metal>
0.0000

> <Gold.PLP.part.buried>
-6.9491

> <Gold.PLP.part.nonpolar>
-33.6348

> <Gold.PLP.part.repulsive>
0.5460

> <Gold.PLP.ligand.clash>
0.0000

> <Gold.PLP.ligand.torsion>
0.5640

> <Gold.PLP.Chemscore.Hbond>
1.0000

> <Gold.PLP.Chemscore.CHOScore>
0.6588

> <Gold.PLP.Chemscore.Metal>
0.0000

> <Gold.Chemscore.Hbonds>
donor molecule, donor type, donor heavy atom, donor atom, acceptor molecule, acceptor atom, score
      L1  H     6    63       P1 10171  1.00
      L1  C    18    47       P1  7957  0.62

> <Gold.PLP.Chemscore.Internal.Correction>
0.2071

> <Gold.Rescore>
     Score         DG    S(hbond)    S(metal)    S(lipo)     H(rot)  DE(clash)    DE(int)     intcor
     11.64     -14.42       1.00        0.00     105.54       2.63       0.45       2.32       ----

> <Gold.Chemscore.Fitness>
11.6407

> <Gold.Chemscore.DG>
-14.4164

> <Gold.Chemscore.ZeroCoef>
-5.4800

> <Gold.Chemscore.Hbond>
0.9960

> <Gold.Chemscore.Metal>
0.0000

> <Gold.Chemscore.Lipo>
105.5437

> <Gold.Chemscore.Internal_Hbond>
0.0000

> <Gold.Chemscore.DEClash>
0.4546

> <Gold.Chemscore.DEInternal>
2.3211

> <Gold.Chemscore.Rot>
2.6324

> <Gold.Chemscore.Internal.Correction>
   9.000000E+99

> <Gold.Chemscore.Hbonds>
donor molecule, donor type, donor heavy atom, donor atom, acceptor molecule, acceptor atom, score
      L1  H     6    63       P1 10171  0.99

> <Gold.Chemscore.Hbond.Weighted>
-3.3267

> <Gold.Chemscore.Metal.Weighted>
-0.0000

> <Gold.Chemscore.Lipo.Weighted>
-12.3486

> <Gold.Chemscore.Internal_Hbond.Weighted>
0.0000

> <Gold.Chemscore.DEClash.Weighted>
0.4546

> <Gold.Chemscore.DEInternal.Weighted>
2.3211

> <Gold.Chemscore.Rot.Weighted>
6.7389

> <Gold.Chemscore.Internal.Correction.Weighted>
   9.000000E+99

> <Gold.Protein.RotatedTorsions>
[ 6907 6896 6895 6894 ] final   -4.89 input  -60.11 | X-H torsion
[ 7974 7965 7964 7962 ] final -111.21 input  175.53 | X-H torsion
[ 8008 7997 7996 7995 ] final  -53.66 input   59.86 | X-H torsion
[ 10167 10162 10161 10158 ] final   48.76 input  -65.29 | X-H torsion
[ 10718 10713 10712 10709 ] final  131.96 input   66.30 | X-H torsion
[ 10763 10752 10751 10750 ] final  -24.98 input  -60.55 | X-H torsion
[ 11005 11000 10999 10996 ] final   67.62 input  -57.11 | X-H torsion

> <Gold.Protein.ActiveResidues>
 VAL166  LYS551  ARG553  GLY616  TRP617  ASP618  TYR619  PRO620  LYS621  CYS622 
 ASP623  PHE694  ASN695  SER759  ASP760  ASP761  ALA762  ILE779  LEU786  VAL792 
 PHE793  MET794  SER795  GLU796  ALA797  LYS798  CYS799  TRP800  GLU811  SER814 

> <Gold.Protein.RotatedAtoms>
  151.4904  135.1057  159.9801 H   0  0  0  0  0  0  0  0  0  0  0  0  # atno 6907 bound_to 6896
  152.4743  133.8098  159.7008 H   0  0  0  0  0  0  0  0  0  0  0  0  # atno 6908 bound_to 6896
  150.8771  133.7361  159.2969 H   0  0  0  0  0  0  0  0  0  0  0  0  # atno 6909 bound_to 6896
  145.1589  140.8868  143.3602 H   0  0  0  0  0  0  0  0  0  0  0  0  # atno 7974 bound_to 7965
  154.4139  140.1195  156.5189 H   0  0  0  0  0  0  0  0  0  0  0  0  # atno 8008 bound_to 7997
  155.6722  140.3496  155.4803 H   0  0  0  0  0  0  0  0  0  0  0  0  # atno 8009 bound_to 7997
  155.9623  140.1125  157.0875 H   0  0  0  0  0  0  0  0  0  0  0  0  # atno 8010 bound_to 7997
  140.2899  144.3058  150.6243 H   0  0  0  0  0  0  0  0  0  0  0  0  # atno 10167 bound_to 10162
  157.4918  131.1091  150.9547 H   0  0  0  0  0  0  0  0  0  0  0  0  # atno 10718 bound_to 10713
  153.6925  135.6961  153.5086 H   0  0  0  0  0  0  0  0  0  0  0  0  # atno 10763 bound_to 10752
  153.2402  135.4308  155.0689 H   0  0  0  0  0  0  0  0  0  0  0  0  # atno 10764 bound_to 10752
  154.8368  135.3506  154.6467 H   0  0  0  0  0  0  0  0  0  0  0  0  # atno 10765 bound_to 10752
  139.9759  134.6822  156.0354 H   0  0  0  0  0  0  0  0  0  0  0  0  # atno 11005 bound_to 11000
  145.0352  139.3306  143.6004 LP  0  0  0  0  0  0  0  0  0  0  0  0  # atno 17320 bound_to 7965
  146.3485  139.9705  142.8707 LP  0  0  0  0  0  0  0  0  0  0  0  0  # atno 17321 bound_to 7965
  140.5741  143.2178  151.7547 LP  0  0  0  0  0  0  0  0  0  0  0  0  # atno 17342 bound_to 10162
  139.4940  144.4175  152.0014 LP  0  0  0  0  0  0  0  0  0  0  0  0  # atno 17343 bound_to 10162
  157.0246  130.5687  149.5335 LP  0  0  0  0  0  0  0  0  0  0  0  0  # atno 17370 bound_to 10713
  156.0177  130.5272  150.8185 LP  0  0  0  0  0  0  0  0  0  0  0  0  # atno 17371 bound_to 10713
  141.1436  133.6560  156.3803 LP  0  0  0  0  0  0  0  0  0  0  0  0  # atno 17394 bound_to 11000
  140.5195  134.6318  157.5313 LP  0  0  0  0  0  0  0  0  0  0  0  0  # atno 17395 bound_to 11000

$$$$
