AV-unprocessed.smi:34|AV-procd|sdf|219|dock2
  -GOLD-   2262015533D 1   1.00000     0.00000
 Structure written by MMmdl.
 55 59  0  0  0  0  0  0  0  0  1 V2000
  152.6272  140.3128  159.0836 O   0  0  0  0  0  0  0  0  0  0  0  0
  152.1912  141.2545  158.4208 C   0  0  0  0  0  0  0  0  0  0  0  0
  151.7113  141.0853  157.0602 N   0  0  0  0  0  0  0  0  0  0  0  0
  151.7414  139.9670  156.2976 C   0  0  0  0  0  0  0  0  0  0  0  0
  152.6860  139.7619  155.3419 N   0  0  0  0  0  0  0  0  0  0  0  0
  152.6718  138.6451  154.6083 C   0  0  0  0  0  0  0  0  0  0  0  0
  151.8172  137.6211  154.6643 N   0  0  0  0  0  0  0  0  0  0  0  0
  150.8658  137.8216  155.6210 C   0  0  0  0  0  0  0  0  0  0  0  0
  150.7576  138.9583  156.4686 C   0  0  0  0  0  0  0  0  0  0  0  0
  149.6600  138.8134  157.3072 N   0  0  0  0  0  0  0  0  0  0  0  0
  149.1529  137.6572  156.9700 C   0  0  0  0  0  0  0  0  0  0  0  0
  149.8282  136.9857  155.9713 N   0  0  0  0  0  0  0  0  0  0  0  0
  149.5288  135.6633  155.3339 C   0  0  2  0  0  0  0  0  0  0  0  0
  148.2014  135.6713  154.8988 O   0  0  0  0  0  0  0  0  0  0  0  0
  147.3831  135.0866  155.9024 C   0  0  1  0  0  0  0  0  0  0  0  0
  146.0356  134.6596  155.3099 C   0  0  0  0  0  0  0  0  0  0  0  0
  146.1206  134.6711  153.8943 O   0  0  0  0  0  0  0  0  0  0  0  0
  146.2474  133.5147  153.2159 C   0  0  0  0  0  0  0  0  0  0  0  0
  146.8096  132.5158  153.6695 O   0  0  0  0  0  0  0  0  0  0  0  0
  145.6386  133.5707  151.8553 C   0  0  0  0  0  0  0  0  0  0  0  0
  145.1338  134.8004  151.3719 C   0  0  0  0  0  0  0  0  0  0  0  0
  144.5515  134.8835  150.0922 C   0  0  0  0  0  0  0  0  0  0  0  0
  144.4672  133.7380  149.2797 C   0  0  0  0  0  0  0  0  0  0  0  0
  144.9673  132.5091  149.7483 C   0  0  0  0  0  0  0  0  0  0  0  0
  145.5497  132.4238  151.0281 C   0  0  0  0  0  0  0  0  0  0  0  0
  148.2546  133.9333  156.3905 C   0  0  2  0  0  0  0  0  0  0  0  0
  147.9057  133.5290  157.6125 F   0  0  0  0  0  0  0  0  0  0  0  0
  149.6529  134.5350  156.3783 C   0  0  1  0  0  0  0  0  0  0  0  0
  150.6085  133.5622  156.0097 O   0  0  0  0  0  0  0  0  0  0  0  0
  152.0418  142.6281  159.0074 C   0  0  0  0  0  0  0  0  0  0  0  0
  152.1077  142.8092  160.4072 C   0  0  0  0  0  0  0  0  0  0  0  0
  151.9884  144.0964  160.9663 C   0  0  0  0  0  0  0  0  0  0  0  0
  151.8097  145.2145  160.1301 C   0  0  0  0  0  0  0  0  0  0  0  0
  151.7542  145.0449  158.7339 C   0  0  0  0  0  0  0  0  0  0  0  0
  151.8736  143.7580  158.1734 C   0  0  0  0  0  0  0  0  0  0  0  0
  151.3173  141.9068  156.6254 H   0  0  0  0  0  0  0  0  0  0  0  0
  153.4577  138.5607  153.8721 H   0  0  0  0  0  0  0  0  0  0  0  0
  148.2670  137.2664  157.4490 H   0  0  0  0  0  0  0  0  0  0  0  0
  150.2251  135.5972  154.4968 H   0  0  0  0  0  0  0  0  0  0  0  0
  147.2321  135.8139  156.7021 H   0  0  0  0  0  0  0  0  0  0  0  0
  145.7875  133.6521  155.6467 H   0  0  0  0  0  0  0  0  0  0  0  0
  145.2397  135.3242  155.6487 H   0  0  0  0  0  0  0  0  0  0  0  0
  145.1870  135.6937  151.9774 H   0  0  0  0  0  0  0  0  0  0  0  0
  144.1695  135.8281  149.7338 H   0  0  0  0  0  0  0  0  0  0  0  0
  144.0200  133.8017  148.2988 H   0  0  0  0  0  0  0  0  0  0  0  0
  144.9043  131.6295  149.1251 H   0  0  0  0  0  0  0  0  0  0  0  0
  145.9244  131.4654  151.3565 H   0  0  0  0  0  0  0  0  0  0  0  0
  148.1797  133.0813  155.7124 H   0  0  0  0  0  0  0  0  0  0  0  0
  149.9024  134.9508  157.3560 H   0  0  0  0  0  0  0  0  0  0  0  0
  151.2824  133.5398  156.6726 H   0  0  0  0  0  0  0  0  0  0  0  0
  152.2462  141.9612  161.0627 H   0  0  0  0  0  0  0  0  0  0  0  0
  152.0361  144.2256  162.0376 H   0  0  0  0  0  0  0  0  0  0  0  0
  151.7194  146.2016  160.5590 H   0  0  0  0  0  0  0  0  0  0  0  0
  151.6235  145.9033  158.0915 H   0  0  0  0  0  0  0  0  0  0  0  0
  151.8390  143.6519  157.0988 H   0  0  0  0  0  0  0  0  0  0  0  0
  1  2  2  0  0  0  0
  2  3  1  0  0  0  0
  2 30  1  0  0  0  0
  3  4  1  0  0  0  0
  3 36  1  0  0  0  0
  4  9  1  0  0  0  0
  4  5  2  0  0  0  0
  5  6  1  0  0  0  0
  6  7  2  0  0  0  0
  6 37  1  0  0  0  0
  7  8  1  0  0  0  0
  8 12  1  0  0  0  0
  8  9  2  0  0  0  0
  9 10  1  0  0  0  0
 10 11  2  0  0  0  0
 11 12  1  0  0  0  0
 11 38  1  0  0  0  0
 12 13  1  0  0  0  0
 13 28  1  0  0  0  0
 13 14  1  0  0  0  0
 13 39  1  0  0  0  0
 14 15  1  0  0  0  0
 15 16  1  0  0  0  0
 15 26  1  0  0  0  0
 15 40  1  0  0  0  0
 16 17  1  0  0  0  0
 16 41  1  0  0  0  0
 16 42  1  0  0  0  0
 17 18  1  0  0  0  0
 18 19  2  0  0  0  0
 18 20  1  0  0  0  0
 20 25  1  0  0  0  0
 20 21  2  0  0  0  0
 21 22  1  0  0  0  0
 21 43  1  0  0  0  0
 22 23  2  0  0  0  0
 22 44  1  0  0  0  0
 23 24  1  0  0  0  0
 23 45  1  0  0  0  0
 24 25  2  0  0  0  0
 24 46  1  0  0  0  0
 25 47  1  0  0  0  0
 26 27  1  0  0  0  0
 26 28  1  0  0  0  0
 26 48  1  0  0  0  0
 28 29  1  0  0  0  0
 28 49  1  0  0  0  0
 29 50  1  0  0  0  0
 30 35  1  0  0  0  0
 30 31  2  0  0  0  0
 31 32  1  0  0  0  0
 31 51  1  0  0  0  0
 32 33  2  0  0  0  0
 32 52  1  0  0  0  0
 33 34  1  0  0  0  0
 33 53  1  0  0  0  0
 34 35  2  0  0  0  0
 34 54  1  0  0  0  0
 35 55  1  0  0  0  0
M  END
> <s_m_source_file>
AV-unprocessed.smi

> <i_m_source_file_index>
34

> <i_lp_mmshare_version>
43012

> <i_f3d_flags>
0

> <s_epik_input>
W2NIXTFbY0hdW2NIXVtjSF1bY0hdYzFDKD1PKVtOSF1jKG5bY0hdbjIpYyhjMjMpbltjSF1uM1tDQEBIXTRPW0NASF0oW0NAQEhdKEYpW0NASF00W09IXSlbQ0gyXU9DKD1PKWM1W2NIXVtjSF1bY0hdW2NIXVtjSF01

> <s_epik_cmdline>
J2VwaWtfcHl0aG9uJywgJy1waCcsICc3LjAnLCAnLXRuJywgJzgnLCAnLW1hJywgJzIwMCcsICctbWV0YWxfYmluZGluZycsICctaW1hZScsICc8aW5maWxlLm1hZT4nLCAnLW9tYWUnLCAnPG91dGZpbGUubWFlPic=

> <r_lp_tautomer_probability>
1

> <r_epik_Ionization_Penalty>
0.00257489

> <r_epik_Ionization_Penalty_Charging>
0

> <r_epik_Ionization_Penalty_Neutral>
0.00257489

> <r_epik_State_Penalty>
0.00519398

> <r_epik_Charging_Adjusted_Penalty>
0.00519398

> <i_epik_Tot_Q>
0

> <i_epik_Tot_abs_Q>
0

> <r_epik_Metal_State_Penalty>
0.335891

> <b_epik_Metal_Only>
0

> <s_epik_Chemistry_Notes>
This compound has an ester and may undergo hydrolysis at high or low pH. This compound contains an acetal/aminal-like group ( X-CH(R)-Y where X, Y are N, S, or O) that may be acid/base labile, releasing an aldehyde.

> <s_lp_Force_Field>
OPLS_2005

> <r_lp_Energy>
42.7442

> <b_lp_Chiralities_Consistent>
1

> <s_lp_Variant>
AV-unprocessed.smi:34-5

> <Gold.Version>
5.8.1

> <Gold.Id.Protein>
6NUR|6NUR_protein|mol2

> <Gold.PLP.Fitness>
56.9438

> <Gold.PLP.PLP>
-54.8558

> <Gold.PLP.part.hbond>
-2.9609

> <Gold.PLP.part.metal>
0.0000

> <Gold.PLP.part.buried>
-9.7484

> <Gold.PLP.part.nonpolar>
-42.7957

> <Gold.PLP.part.repulsive>
0.5233

> <Gold.PLP.ligand.clash>
0.0000

> <Gold.PLP.ligand.torsion>
2.2281

> <Gold.PLP.Chemscore.Hbond>
2.0627

> <Gold.PLP.Chemscore.CHOScore>
0.0000

> <Gold.PLP.Chemscore.Metal>
0.0000

> <Gold.Chemscore.Hbonds>
donor molecule, donor type, donor heavy atom, donor atom, acceptor molecule, acceptor atom, score
      P1  H  7989  7998       L1     5  0.04
      P1  H  7997  8008       L1     5  1.00
      P1  H 10752 10764       L1     7  0.32

> <Gold.PLP.Chemscore.Internal.Correction>
0.3561

> <Gold.Rescore>
     Score         DG    S(hbond)    S(metal)    S(lipo)     H(rot)  DE(clash)    DE(int)     intcor
     15.48     -17.76       1.35        0.00     126.03       2.72       0.00       2.28       ----

> <Gold.Chemscore.Fitness>
15.4825

> <Gold.Chemscore.DG>
-17.7591

> <Gold.Chemscore.ZeroCoef>
-5.4800

> <Gold.Chemscore.Hbond>
1.3474

> <Gold.Chemscore.Metal>
0.0000

> <Gold.Chemscore.Lipo>
126.0334

> <Gold.Chemscore.Internal_Hbond>
0.0000

> <Gold.Chemscore.DEClash>
0.0000

> <Gold.Chemscore.DEInternal>
2.2766

> <Gold.Chemscore.Rot>
2.7215

> <Gold.Chemscore.Internal.Correction>
   9.000000E+99

> <Gold.Chemscore.Hbonds>
donor molecule, donor type, donor heavy atom, donor atom, acceptor molecule, acceptor atom, score
      P1  H  7997  8008       L1     5  0.67
      P1  H 10752 10764       L1     7  0.23

> <Gold.Chemscore.Hbond.Weighted>
-4.5003

> <Gold.Chemscore.Metal.Weighted>
-0.0000

> <Gold.Chemscore.Lipo.Weighted>
-14.7459

> <Gold.Chemscore.Internal_Hbond.Weighted>
0.0000

> <Gold.Chemscore.DEClash.Weighted>
0.0000

> <Gold.Chemscore.DEInternal.Weighted>
2.2766

> <Gold.Chemscore.Rot.Weighted>
6.9670

> <Gold.Chemscore.Internal.Correction.Weighted>
   9.000000E+99

> <Gold.Protein.RotatedTorsions>
[ 6907 6896 6895 6894 ] final -100.60 input  -60.11 | X-H torsion
[ 7974 7965 7964 7962 ] final  165.39 input  175.53 | X-H torsion
[ 8008 7997 7996 7995 ] final  -22.38 input   59.86 | X-H torsion
[ 10167 10162 10161 10158 ] final -137.00 input  -65.29 | X-H torsion
[ 10718 10713 10712 10709 ] final  -28.30 input   66.30 | X-H torsion
[ 10763 10752 10751 10750 ] final  -78.64 input  -60.55 | X-H torsion
[ 11005 11000 10999 10996 ] final   70.34 input  -57.11 | X-H torsion

> <Gold.Protein.ActiveResidues>
 VAL166  LYS551  ARG553  GLY616  TRP617  ASP618  TYR619  PRO620  LYS621  CYS622 
 ASP623  PHE694  ASN695  SER759  ASP760  ASP761  ALA762  ILE779  LEU786  VAL792 
 PHE793  MET794  SER795  GLU796  ALA797  LYS798  CYS799  TRP800  GLU811  SER814 

> <Gold.Protein.RotatedAtoms>
  150.7122  134.0862  159.3915 H   0  0  0  0  0  0  0  0  0  0  0  0  # atno 6907 bound_to 6896
  151.8847  135.0438  160.0501 H   0  0  0  0  0  0  0  0  0  0  0  0  # atno 6908 bound_to 6896
  152.2540  133.5204  159.5379 H   0  0  0  0  0  0  0  0  0  0  0  0  # atno 6909 bound_to 6896
  144.7505  139.8463  143.6368 H   0  0  0  0  0  0  0  0  0  0  0  0  # atno 7974 bound_to 7965
  154.4647  140.2009  156.0149 H   0  0  0  0  0  0  0  0  0  0  0  0  # atno 8008 bound_to 7997
  156.0906  140.3258  155.7781 H   0  0  0  0  0  0  0  0  0  0  0  0  # atno 8009 bound_to 7997
  155.4963  140.0550  157.2937 H   0  0  0  0  0  0  0  0  0  0  0  0  # atno 8010 bound_to 7997
  139.8621  143.7064  152.2649 H   0  0  0  0  0  0  0  0  0  0  0  0  # atno 10167 bound_to 10162
  156.4270  130.4437  149.7144 H   0  0  0  0  0  0  0  0  0  0  0  0  # atno 10718 bound_to 10713
  154.5284  135.5723  153.6738 H   0  0  0  0  0  0  0  0  0  0  0  0  # atno 10763 bound_to 10752
  152.9933  135.6199  154.2661 H   0  0  0  0  0  0  0  0  0  0  0  0  # atno 10764 bound_to 10752
  154.2586  135.2857  155.2767 H   0  0  0  0  0  0  0  0  0  0  0  0  # atno 10765 bound_to 10752
  139.9603  134.7072  156.0660 H   0  0  0  0  0  0  0  0  0  0  0  0  # atno 11005 bound_to 11000
  146.1447  139.4513  143.0086 LP  0  0  0  0  0  0  0  0  0  0  0  0  # atno 17320 bound_to 7965
  145.6963  141.0149  143.1528 LP  0  0  0  0  0  0  0  0  0  0  0  0  # atno 17321 bound_to 7965
  139.7364  144.7570  151.0721 LP  0  0  0  0  0  0  0  0  0  0  0  0  # atno 17342 bound_to 10162
  140.7773  143.5026  150.9753 LP  0  0  0  0  0  0  0  0  0  0  0  0  # atno 17343 bound_to 10162
  156.4062  130.7699  151.2710 LP  0  0  0  0  0  0  0  0  0  0  0  0  # atno 17370 bound_to 10713
  157.7508  131.0225  150.3794 LP  0  0  0  0  0  0  0  0  0  0  0  0  # atno 17371 bound_to 10713
  141.1280  133.6594  156.3387 LP  0  0  0  0  0  0  0  0  0  0  0  0  # atno 17394 bound_to 11000
  140.5515  134.6023  157.5409 LP  0  0  0  0  0  0  0  0  0  0  0  0  # atno 17395 bound_to 11000

$$$$
