AV-unprocessed.smi:1137|AV-procd|sdf|4865|dock4
  -GOLD-   22720 3433D 1   1.00000     0.00000
 Structure written by MMmdl.
 18 18  0  0  0  0  0  0  0  0  3 V2000
  152.9737  139.2081  155.9490 O   0  0  0  0  0  0  0  0  0  0  0  0
  151.9440  139.8731  156.1968 C   0  0  0  0  0  0  0  0  0  0  0  0
  151.1776  140.3663  155.3389 O   0  5  0  0  0  0  0  0  0  0  0  0
  151.6307  140.1295  157.6777 C   0  0  2  0  0  0  0  0  0  0  0  0
  150.3713  139.5841  158.0279 O   0  0  0  0  0  0  0  0  0  0  0  0
  151.7086  141.6345  157.8914 C   0  0  0  0  0  0  0  0  0  0  0  0
  152.5949  142.1732  158.8513 C   0  0  0  0  0  0  0  0  0  0  0  0
  152.6634  143.5711  159.0260 C   0  0  0  0  0  0  0  0  0  0  0  0
  151.8463  144.4027  158.2334 C   0  0  0  0  0  0  0  0  0  0  0  0
  151.0130  143.8547  157.3222 N   0  3  0  0  0  0  0  0  0  0  0  0
  150.9167  142.5216  157.1265 C   0  0  0  0  0  0  0  0  0  0  0  0
  152.3848  139.6343  158.2913 H   0  0  0  0  0  0  0  0  0  0  0  0
  150.0721  140.0028  158.8198 H   0  0  0  0  0  0  0  0  0  0  0  0
  153.2207  141.5223  159.4446 H   0  0  0  0  0  0  0  0  0  0  0  0
  153.3367  143.9981  159.7546 H   0  0  0  0  0  0  0  0  0  0  0  0
  151.8369  145.4810  158.2972 H   0  0  0  0  0  0  0  0  0  0  0  0
  150.2213  142.2057  156.3621 H   0  0  0  0  0  0  0  0  0  0  0  0
  150.4338  144.4731  156.7540 H   0  0  0  0  0  0  0  0  0  0  0  0
  1  2  2  0  0  0  0
  2  3  1  0  0  0  0
  2  4  1  0  0  0  0
  4  5  1  0  0  0  0
  4  6  1  0  0  0  0
  4 12  1  0  0  0  0
  5 13  1  0  0  0  0
  6 11  1  0  0  0  0
  6  7  2  0  0  0  0
  7  8  1  0  0  0  0
  7 14  1  0  0  0  0
  8  9  2  0  0  0  0
  8 15  1  0  0  0  0
  9 10  1  0  0  0  0
  9 16  1  0  0  0  0
 10 11  2  0  0  0  0
 10 18  1  0  0  0  0
 11 17  1  0  0  0  0
M  CHG  1   3  -1
M  CHG  1  10   1
M  END
> <s_m_source_file>
AV-unprocessed.smi

> <i_m_source_file_index>
1137

> <i_lp_mmshare_version>
43012

> <i_f3d_flags>
0

> <s_epik_input>
Tz1DKFtPSF0pW0NASF0oW09IXSljMVtjSF1bY0hdW2NIXW5bY0hdMQ==

> <s_epik_cmdline>
J2VwaWtfcHl0aG9uJywgJy1waCcsICc3LjAnLCAnLXRuJywgJzgnLCAnLW1hJywgJzIwMCcsICctbWV0YWxfYmluZGluZycsICctaW1hZScsICc8aW5maWxlLm1hZT4nLCAnLW9tYWUnLCAnPG91dGZpbGUubWFlPic=

> <r_epik_Ionization_Penalty>
2.03958

> <r_epik_Ionization_Penalty_Charging>
2.03958

> <r_epik_Ionization_Penalty_Neutral>
5.11681e-08

> <r_epik_State_Penalty>
2.1712

> <r_epik_Charging_Adjusted_Penalty>
4.21078

> <i_epik_Tot_Q>
0

> <i_epik_Tot_abs_Q>
2

> <r_epik_Metal_State_Penalty>
6.24859

> <b_epik_Metal_Only>
0

> <s_lp_Force_Field>
OPLS_2005

> <r_lp_Energy>
7.29674

> <b_lp_Chiralities_Consistent>
1

> <s_lp_Variant>
AV-unprocessed.smi:1137-3

> <Gold.Version>
5.8.1

> <Gold.Id.Protein>
6NUR|6NUR_protein|mol2

> <Gold.PLP.Fitness>
40.1236

> <Gold.PLP.PLP>
-25.2211

> <Gold.PLP.part.hbond>
-3.0000

> <Gold.PLP.part.metal>
0.0000

> <Gold.PLP.part.buried>
-4.3037

> <Gold.PLP.part.nonpolar>
-18.6963

> <Gold.PLP.part.repulsive>
0.0371

> <Gold.PLP.ligand.clash>
0.0000

> <Gold.PLP.ligand.torsion>
0.0477

> <Gold.PLP.Chemscore.Hbond>
4.9920

> <Gold.PLP.Chemscore.CHOScore>
0.0000

> <Gold.PLP.Chemscore.Metal>
0.0000

> <Gold.Chemscore.Hbonds>
donor molecule, donor type, donor heavy atom, donor atom, acceptor molecule, acceptor atom, score
      L1  H    10    18       P1  8028  2.00
      P1  H  7989  7998       L1     3  0.99
      P1  H  7997  8010       L1     1  1.95

> <Gold.PLP.Chemscore.Internal.Correction>
0.0219

> <Gold.Rescore>
     Score         DG    S(hbond)    S(metal)    S(lipo)     H(rot)  DE(clash)    DE(int)     intcor
     14.80     -16.17       2.91        0.00      55.41       2.16       0.00       1.37       ----

> <Gold.Chemscore.Fitness>
14.8035

> <Gold.Chemscore.DG>
-16.1729

> <Gold.Chemscore.ZeroCoef>
-5.4800

> <Gold.Chemscore.Hbond>
2.9147

> <Gold.Chemscore.Metal>
0.0000

> <Gold.Chemscore.Lipo>
55.4140

> <Gold.Chemscore.Internal_Hbond>
0.0000

> <Gold.Chemscore.DEClash>
0.0000

> <Gold.Chemscore.DEInternal>
1.3694

> <Gold.Chemscore.Rot>
2.1584

> <Gold.Chemscore.Internal.Correction>
   9.000000E+99

> <Gold.Chemscore.Hbonds>
donor molecule, donor type, donor heavy atom, donor atom, acceptor molecule, acceptor atom, score
      L1  H    10    18       P1  8028  0.90
      P1  H  7989  7998       L1     3  0.93
      P1  H  7997  8010       L1     1  0.80

> <Gold.Chemscore.Hbond.Weighted>
-9.7350

> <Gold.Chemscore.Metal.Weighted>
-0.0000

> <Gold.Chemscore.Lipo.Weighted>
-6.4834

> <Gold.Chemscore.Internal_Hbond.Weighted>
0.0000

> <Gold.Chemscore.DEClash.Weighted>
0.0000

> <Gold.Chemscore.DEInternal.Weighted>
1.3694

> <Gold.Chemscore.Rot.Weighted>
5.5256

> <Gold.Chemscore.Internal.Correction.Weighted>
   9.000000E+99

> <Gold.Protein.RotatedTorsions>
[ 6907 6896 6895 6894 ] final  146.62 input  -60.11 | X-H torsion
[ 7974 7965 7964 7962 ] final  155.06 input  175.53 | X-H torsion
[ 8008 7997 7996 7995 ] final  103.17 input   59.86 | X-H torsion
[ 10167 10162 10161 10158 ] final -126.90 input  -65.29 | X-H torsion
[ 10718 10713 10712 10709 ] final   86.26 input   66.30 | X-H torsion
[ 10763 10752 10751 10750 ] final  -52.29 input  -60.55 | X-H torsion
[ 11005 11000 10999 10996 ] final   95.55 input  -57.11 | X-H torsion

> <Gold.Protein.ActiveResidues>
 VAL166  LYS551  ARG553  GLY616  TRP617  ASP618  TYR619  PRO620  LYS621  CYS622 
 ASP623  PHE694  ASN695  SER759  ASP760  ASP761  ALA762  ILE779  LEU786  VAL792 
 PHE793  MET794  SER795  GLU796  ALA797  LYS798  CYS799  TRP800  GLU811  SER814 

> <Gold.Protein.RotatedAtoms>
  152.1656  133.4610  159.4882 H   0  0  0  0  0  0  0  0  0  0  0  0  # atno 6907 bound_to 6896
  150.6912  134.2017  159.4334 H   0  0  0  0  0  0  0  0  0  0  0  0  # atno 6908 bound_to 6896
  151.9922  134.9973  160.0612 H   0  0  0  0  0  0  0  0  0  0  0  0  # atno 6909 bound_to 6896
  144.8049  139.7017  143.6166 H   0  0  0  0  0  0  0  0  0  0  0  0  # atno 7974 bound_to 7965
  156.1459  140.3169  155.8570 H   0  0  0  0  0  0  0  0  0  0  0  0  # atno 8008 bound_to 7997
  155.4064  140.0503  157.3051 H   0  0  0  0  0  0  0  0  0  0  0  0  # atno 8009 bound_to 7997
  154.5016  140.2131  155.9347 H   0  0  0  0  0  0  0  0  0  0  0  0  # atno 8010 bound_to 7997
  139.9666  143.5891  152.2427 H   0  0  0  0  0  0  0  0  0  0  0  0  # atno 10167 bound_to 10162
  157.6926  131.0208  150.2946 H   0  0  0  0  0  0  0  0  0  0  0  0  # atno 10718 bound_to 10713
  154.1404  135.6506  153.4941 H   0  0  0  0  0  0  0  0  0  0  0  0  # atno 10763 bound_to 10752
  153.0168  135.5314  154.6911 H   0  0  0  0  0  0  0  0  0  0  0  0  # atno 10764 bound_to 10752
  154.6171  135.2960  155.0339 H   0  0  0  0  0  0  0  0  0  0  0  0  # atno 10765 bound_to 10752
  139.8788  134.8905  156.4028 H   0  0  0  0  0  0  0  0  0  0  0  0  # atno 11005 bound_to 11000
  146.2338  139.5865  142.9537 LP  0  0  0  0  0  0  0  0  0  0  0  0  # atno 17320 bound_to 7965
  145.5463  141.0417  143.2303 LP  0  0  0  0  0  0  0  0  0  0  0  0  # atno 17321 bound_to 7965
  139.6513  144.7661  151.2142 LP  0  0  0  0  0  0  0  0  0  0  0  0  # atno 17342 bound_to 10162
  140.7536  143.6156  150.8563 LP  0  0  0  0  0  0  0  0  0  0  0  0  # atno 17343 bound_to 10162
  156.3472  130.3825  149.7359 LP  0  0  0  0  0  0  0  0  0  0  0  0  # atno 17370 bound_to 10713
  156.4849  130.8058  151.3071 LP  0  0  0  0  0  0  0  0  0  0  0  0  # atno 17371 bound_to 10713
  140.9255  133.7615  155.9959 LP  0  0  0  0  0  0  0  0  0  0  0  0  # atno 17394 bound_to 11000
  140.8391  134.3088  157.5320 LP  0  0  0  0  0  0  0  0  0  0  0  0  # atno 17395 bound_to 11000

$$$$
