AV-unprocessed.smi:604|AV-procd|sdf|3038|dock8
  -GOLD-   2262023553D 1   1.00000     0.00000
 Structure written by MMmdl.
 49 51  0  0  0  0  0  0  0  0  2 V2000
  149.5311  140.5368  156.7568 O   0  0  0  0  0  0  0  0  0  0  0  0
  149.4053  141.6926  156.3535 C   0  0  0  0  0  0  0  0  0  0  0  0
  150.0272  142.7681  156.8662 N   0  0  0  0  0  0  0  0  0  0  0  0
  150.9498  142.8229  157.9461 C   0  0  0  0  0  0  0  0  0  0  0  0
  151.6862  143.9772  158.3079 C   0  0  0  0  0  0  0  0  0  0  0  0
  152.5587  143.9085  159.4112 C   0  0  0  0  0  0  0  0  0  0  0  0
  152.6584  142.6934  160.1161 C   0  0  0  0  0  0  0  0  0  0  0  0
  151.9523  141.5900  159.7914 N   0  0  0  0  0  0  0  0  0  0  0  0
  151.1166  141.6637  158.7336 C   0  0  0  0  0  0  0  0  0  0  0  0
  148.5931  142.0364  155.3432 N   0  0  0  0  0  0  0  0  0  0  0  0
  147.7562  141.1104  154.5800 C   0  0  2  0  0  0  0  0  0  0  0  0
  147.2047  141.7960  153.3175 C   0  0  0  0  0  0  0  0  0  0  0  0
  146.1198  142.8388  153.6478 C   0  0  0  0  0  0  0  0  0  0  0  0
  145.0215  142.2416  154.4515 N   0  3  2  0  0  0  0  0  0  0  0  0
  143.8890  143.1792  154.6696 C   0  0  0  0  0  0  0  0  0  0  0  0
  144.3689  144.6270  154.8917 C   0  0  0  0  0  0  0  0  0  0  0  0
  143.6135  145.3440  156.0142 C   0  0  0  0  0  0  0  0  0  0  0  0
  143.8668  146.8367  155.7799 C   0  0  0  0  0  0  0  0  0  0  0  0
  144.2130  146.9832  154.2913 C   0  0  0  0  0  0  0  0  0  0  0  0
  144.1740  145.5702  153.6999 C   0  0  0  0  0  0  0  0  0  0  0  0
  145.5344  141.6456  155.7129 C   0  0  0  0  0  0  0  0  0  0  0  0
  146.5876  140.5626  155.4236 C   0  0  0  0  0  0  0  0  0  0  0  0
  149.7623  143.6624  156.4801 H   0  0  0  0  0  0  0  0  0  0  0  0
  151.5906  144.9105  157.7757 H   0  0  0  0  0  0  0  0  0  0  0  0
  153.1356  144.7702  159.7133 H   0  0  0  0  0  0  0  0  0  0  0  0
  153.3182  142.6074  160.9668 H   0  0  0  0  0  0  0  0  0  0  0  0
  150.5662  140.7625  158.5050 H   0  0  0  0  0  0  0  0  0  0  0  0
  148.5561  143.0099  155.0782 H   0  0  0  0  0  0  0  0  0  0  0  0
  148.3847  140.2755  154.2643 H   0  0  0  0  0  0  0  0  0  0  0  0
  148.0150  142.2621  152.7550 H   0  0  0  0  0  0  0  0  0  0  0  0
  146.7780  141.0383  152.6589 H   0  0  0  0  0  0  0  0  0  0  0  0
  146.5528  143.6813  154.1894 H   0  0  0  0  0  0  0  0  0  0  0  0
  145.7164  143.2354  152.7150 H   0  0  0  0  0  0  0  0  0  0  0  0
  143.1728  143.1209  153.8483 H   0  0  0  0  0  0  0  0  0  0  0  0
  143.3358  142.8787  155.5609 H   0  0  0  0  0  0  0  0  0  0  0  0
  145.4277  144.6160  155.1569 H   0  0  0  0  0  0  0  0  0  0  0  0
  142.5445  145.1420  155.9299 H   0  0  0  0  0  0  0  0  0  0  0  0
  143.9314  145.0207  157.0061 H   0  0  0  0  0  0  0  0  0  0  0  0
  143.0003  147.4367  156.0597 H   0  0  0  0  0  0  0  0  0  0  0  0
  144.7068  147.1751  156.3875 H   0  0  0  0  0  0  0  0  0  0  0  0
  143.5196  147.6475  153.7748 H   0  0  0  0  0  0  0  0  0  0  0  0
  145.2114  147.4090  154.1852 H   0  0  0  0  0  0  0  0  0  0  0  0
  144.9301  145.4307  152.9267 H   0  0  0  0  0  0  0  0  0  0  0  0
  143.1971  145.3979  153.2454 H   0  0  0  0  0  0  0  0  0  0  0  0
  145.9619  142.4287  156.3409 H   0  0  0  0  0  0  0  0  0  0  0  0
  144.7181  141.2040  156.2825 H   0  0  0  0  0  0  0  0  0  0  0  0
  146.1129  139.7407  154.8860 H   0  0  0  0  0  0  0  0  0  0  0  0
  146.9522  140.1361  156.3588 H   0  0  0  0  0  0  0  0  0  0  0  0
  144.6532  141.4823  153.8962 H   0  0  0  0  0  0  0  0  0  0  0  0
  1  2  2  0  0  0  0
  2  3  1  0  0  0  0
  2 10  1  0  0  0  0
  3  4  1  0  0  0  0
  3 23  1  0  0  0  0
  4  9  1  0  0  0  0
  4  5  2  0  0  0  0
  5  6  1  0  0  0  0
  5 24  1  0  0  0  0
  6  7  2  0  0  0  0
  6 25  1  0  0  0  0
  7  8  1  0  0  0  0
  7 26  1  0  0  0  0
  8  9  2  0  0  0  0
  9 27  1  0  0  0  0
 10 11  1  0  0  0  0
 10 28  1  0  0  0  0
 11 22  1  0  0  0  0
 11 12  1  0  0  0  0
 11 29  1  0  0  0  0
 12 13  1  0  0  0  0
 12 30  1  0  0  0  0
 12 31  1  0  0  0  0
 13 14  1  0  0  0  0
 13 32  1  0  0  0  0
 13 33  1  0  0  0  0
 14 15  1  0  0  0  0
 14 21  1  0  0  0  0
 14 49  1  0  0  0  0
 15 16  1  0  0  0  0
 15 34  1  0  0  0  0
 15 35  1  0  0  0  0
 16 20  1  0  0  0  0
 16 17  1  0  0  0  0
 16 36  1  0  0  0  0
 17 18  1  0  0  0  0
 17 37  1  0  0  0  0
 17 38  1  0  0  0  0
 18 19  1  0  0  0  0
 18 39  1  0  0  0  0
 18 40  1  0  0  0  0
 19 20  1  0  0  0  0
 19 41  1  0  0  0  0
 19 42  1  0  0  0  0
 20 43  1  0  0  0  0
 20 44  1  0  0  0  0
 21 22  1  0  0  0  0
 21 45  1  0  0  0  0
 21 46  1  0  0  0  0
 22 47  1  0  0  0  0
 22 48  1  0  0  0  0
M  CHG  1  14   1
M  END
> <s_m_source_file>
AV-unprocessed.smi

> <i_m_source_file_index>
604

> <i_lp_mmshare_version>
43012

> <i_f3d_flags>
0

> <s_epik_input>
W2NIXTFuW2NIXVtjSF1bY0hdYzFbTkhdQyg9TylbTkhdW0NIXTJbQ0gyXVtDSDJdTihbQ0gyXVtDSDJdMilbQ0gyXVtDSF0zW0NIMl1bQ0gyXVtDSDJdW0NIMl0z

> <s_epik_cmdline>
J2VwaWtfcHl0aG9uJywgJy1waCcsICc3LjAnLCAnLXRuJywgJzgnLCAnLW1hJywgJzIwMCcsICctbWV0YWxfYmluZGluZycsICctaW1hZScsICc8aW5maWxlLm1hZT4nLCAnLW9tYWUnLCAnPG91dGZpbGUubWFlPic=

> <r_lp_tautomer_probability>
1

> <r_epik_Ionization_Penalty>
0.00608112

> <r_epik_Ionization_Penalty_Charging>
0.00207989

> <r_epik_Ionization_Penalty_Neutral>
0.00400122

> <r_epik_State_Penalty>
-0

> <r_epik_Charging_Adjusted_Penalty>
0.00207989

> <i_epik_Tot_Q>
1

> <i_epik_Tot_abs_Q>
1

> <r_epik_Metal_State_Penalty>
-0

> <b_epik_Metal_Only>
0

> <s_lp_Force_Field>
OPLS_2005

> <r_lp_Energy>
40.9588

> <b_lp_Chiralities_Consistent>
1

> <s_lp_Variant>
AV-unprocessed.smi:604-2

> <Gold.Version>
5.8.1

> <Gold.Id.Protein>
6NUR|6NUR_protein|mol2

> <Gold.PLP.Fitness>
50.6597

> <Gold.PLP.PLP>
-40.8148

> <Gold.PLP.part.hbond>
-3.0000

> <Gold.PLP.part.metal>
0.0000

> <Gold.PLP.part.buried>
-5.7498

> <Gold.PLP.part.nonpolar>
-33.5474

> <Gold.PLP.part.repulsive>
0.2527

> <Gold.PLP.ligand.clash>
0.0000

> <Gold.PLP.ligand.torsion>
1.0534

> <Gold.PLP.Chemscore.Hbond>
3.9760

> <Gold.PLP.Chemscore.CHOScore>
0.0000

> <Gold.PLP.Chemscore.Metal>
0.0000

> <Gold.Chemscore.Hbonds>
donor molecule, donor type, donor heavy atom, donor atom, acceptor molecule, acceptor atom, score
      L1  H     3    23       P1  8028  1.00
      L1  H    10    28       P1  8028  0.91
      L1  H    14    49       P1 10175  1.90

> <Gold.PLP.Chemscore.Internal.Correction>
0.0237

> <Gold.Rescore>
     Score         DG    S(hbond)    S(metal)    S(lipo)     H(rot)  DE(clash)    DE(int)     intcor
     20.10     -22.58       2.47        0.00     105.11       1.35       0.15       2.33       ----

> <Gold.Chemscore.Fitness>
20.1030

> <Gold.Chemscore.DG>
-22.5790

> <Gold.Chemscore.ZeroCoef>
-5.4800

> <Gold.Chemscore.Hbond>
2.4687

> <Gold.Chemscore.Metal>
0.0000

> <Gold.Chemscore.Lipo>
105.1109

> <Gold.Chemscore.Internal_Hbond>
0.0000

> <Gold.Chemscore.DEClash>
0.1461

> <Gold.Chemscore.DEInternal>
2.3300

> <Gold.Chemscore.Rot>
1.3455

> <Gold.Chemscore.Internal.Correction>
   9.000000E+99

> <Gold.Chemscore.Hbonds>
donor molecule, donor type, donor heavy atom, donor atom, acceptor molecule, acceptor atom, score
      L1  H     3    23       P1  8028  0.98
      L1  H    10    28       P1  8028  0.88
      L1  H    14    49       P1 10175  0.21

> <Gold.Chemscore.Hbond.Weighted>
-8.2456

> <Gold.Chemscore.Metal.Weighted>
-0.0000

> <Gold.Chemscore.Lipo.Weighted>
-12.2980

> <Gold.Chemscore.Internal_Hbond.Weighted>
0.0000

> <Gold.Chemscore.DEClash.Weighted>
0.1461

> <Gold.Chemscore.DEInternal.Weighted>
2.3300

> <Gold.Chemscore.Rot.Weighted>
3.4445

> <Gold.Chemscore.Internal.Correction.Weighted>
   9.000000E+99

> <Gold.Protein.RotatedTorsions>
[ 6907 6896 6895 6894 ] final -112.77 input  -60.11 | X-H torsion
[ 7974 7965 7964 7962 ] final   68.10 input  175.53 | X-H torsion
[ 8008 7997 7996 7995 ] final  105.50 input   59.86 | X-H torsion
[ 10167 10162 10161 10158 ] final  -24.24 input  -65.29 | X-H torsion
[ 10718 10713 10712 10709 ] final  168.86 input   66.30 | X-H torsion
[ 10763 10752 10751 10750 ] final  155.52 input  -60.55 | X-H torsion
[ 11005 11000 10999 10996 ] final  -38.24 input  -57.11 | X-H torsion

> <Gold.Protein.ActiveResidues>
 VAL166  LYS551  ARG553  GLY616  TRP617  ASP618  TYR619  PRO620  LYS621  CYS622 
 ASP623  PHE694  ASN695  SER759  ASP760  ASP761  ALA762  ILE779  LEU786  VAL792 
 PHE793  MET794  SER795  GLU796  ALA797  LYS798  CYS799  TRP800  GLU811  SER814 

> <Gold.Protein.RotatedAtoms>
  150.7782  133.9041  159.3349 H   0  0  0  0  0  0  0  0  0  0  0  0  # atno 6907 bound_to 6896
  151.6910  135.0944  160.0243 H   0  0  0  0  0  0  0  0  0  0  0  0  # atno 6908 bound_to 6896
  152.3825  133.6527  159.6208 H   0  0  0  0  0  0  0  0  0  0  0  0  # atno 6909 bound_to 6896
  145.8067  139.3010  143.1123 H   0  0  0  0  0  0  0  0  0  0  0  0  # atno 7974 bound_to 7965
  156.1665  140.3129  155.8897 H   0  0  0  0  0  0  0  0  0  0  0  0  # atno 8008 bound_to 7997
  155.3676  140.0480  157.3063 H   0  0  0  0  0  0  0  0  0  0  0  0  # atno 8009 bound_to 7997
  154.5197  140.2194  155.9009 H   0  0  0  0  0  0  0  0  0  0  0  0  # atno 8010 bound_to 7997
  140.7288  143.4371  151.0713 H   0  0  0  0  0  0  0  0  0  0  0  0  # atno 10167 bound_to 10162
  157.0310  131.0259  151.2744 H   0  0  0  0  0  0  0  0  0  0  0  0  # atno 10718 bound_to 10713
  154.1696  135.2805  155.3085 H   0  0  0  0  0  0  0  0  0  0  0  0  # atno 10763 bound_to 10752
  154.6085  135.5506  153.7451 H   0  0  0  0  0  0  0  0  0  0  0  0  # atno 10764 bound_to 10752
  153.0168  135.6409  154.1837 H   0  0  0  0  0  0  0  0  0  0  0  0  # atno 10765 bound_to 10752
  141.0013  133.6954  156.2027 H   0  0  0  0  0  0  0  0  0  0  0  0  # atno 11005 bound_to 11000
  145.9821  140.8674  143.0109 LP  0  0  0  0  0  0  0  0  0  0  0  0  # atno 17320 bound_to 7965
  144.6762  140.2095  143.7378 LP  0  0  0  0  0  0  0  0  0  0  0  0  # atno 17321 bound_to 7965
  139.8034  143.8051  152.3165 LP  0  0  0  0  0  0  0  0  0  0  0  0  # atno 17342 bound_to 10162
  139.8076  144.7349  150.9740 LP  0  0  0  0  0  0  0  0  0  0  0  0  # atno 17343 bound_to 10162
  157.5178  130.7979  149.7775 LP  0  0  0  0  0  0  0  0  0  0  0  0  # atno 17370 bound_to 10713
  156.0070  130.3851  150.2398 LP  0  0  0  0  0  0  0  0  0  0  0  0  # atno 17371 bound_to 10713
  140.6885  134.4692  157.5589 LP  0  0  0  0  0  0  0  0  0  0  0  0  # atno 17394 bound_to 11000
  139.9040  134.8491  156.1779 LP  0  0  0  0  0  0  0  0  0  0  0  0  # atno 17395 bound_to 11000

$$$$
