AV-unprocessed.smi:114|AV-procd|sdf|1120|dock7
  -GOLD-   2262018243D 1   1.00000     0.00000
 Structure written by MMmdl.
 32 34  0  0  0  0  0  0  0  0  1 V2000
  143.1507  145.2604  156.1228 N   0  0  0  0  0  0  0  0  0  0  0  0
  144.0592  144.8277  155.2372 C   0  0  0  0  0  0  0  0  0  0  0  0
  144.2059  145.5105  154.0774 N   0  0  0  0  0  0  0  0  0  0  0  0
  145.1012  145.1108  153.1651 C   0  0  0  0  0  0  0  0  0  0  0  0
  145.1800  145.8525  152.0355 F   0  0  0  0  0  0  0  0  0  0  0  0
  145.9261  144.0604  153.2433 N   0  0  0  0  0  0  0  0  0  0  0  0
  145.7799  143.3727  154.4123 C   0  0  0  0  0  0  0  0  0  0  0  0
  144.8722  143.6891  155.4567 C   0  0  0  0  0  0  0  0  0  0  0  0
  145.0009  142.7692  156.4886 N   0  0  0  0  0  0  0  0  0  0  0  0
  145.9336  141.9549  156.0702 C   0  0  0  0  0  0  0  0  0  0  0  0
  146.4527  142.2437  154.8245 N   0  0  0  0  0  0  0  0  0  0  0  0
  147.5208  141.5350  154.0459 C   0  0  1  0  0  0  0  0  0  0  0  0
  148.6319  141.3648  154.8736 O   0  0  0  0  0  0  0  0  0  0  0  0
  148.6757  140.0245  155.3498 C   0  0  2  0  0  0  0  0  0  0  0  0
  150.0807  139.6570  155.8564 C   0  0  0  0  0  0  0  0  0  0  0  0
  151.0259  139.8343  154.8234 O   0  0  0  0  0  0  0  0  0  0  0  0
  148.1765  139.2292  154.1371 C   0  0  2  0  0  0  0  0  0  0  0  0
  149.2088  139.0485  153.1843 O   0  0  0  0  0  0  0  0  0  0  0  0
  147.0805  140.1265  153.5739 C   0  0  1  0  0  0  0  0  0  0  0  0
  145.8207  139.7142  154.0767 O   0  0  0  0  0  0  0  0  0  0  0  0
  147.7627  142.2157  153.2289 H   0  0  0  0  0  0  0  0  0  0  0  0
  147.9471  139.9061  156.1540 H   0  0  0  0  0  0  0  0  0  0  0  0
  147.8078  138.2429  154.4224 H   0  0  0  0  0  0  0  0  0  0  0  0
  147.0423  140.0999  152.4840 H   0  0  0  0  0  0  0  0  0  0  0  0
  143.0241  144.7655  156.9941 H   0  0  0  0  0  0  0  0  0  0  0  0
  142.5945  146.0778  155.9175 H   0  0  0  0  0  0  0  0  0  0  0  0
  146.2668  141.1192  156.6681 H   0  0  0  0  0  0  0  0  0  0  0  0
  150.3679  140.3143  156.6776 H   0  0  0  0  0  0  0  0  0  0  0  0
  150.1159  138.6326  156.2287 H   0  0  0  0  0  0  0  0  0  0  0  0
  151.8168  139.3724  155.0565 H   0  0  0  0  0  0  0  0  0  0  0  0
  148.9960  139.5488  152.4113 H   0  0  0  0  0  0  0  0  0  0  0  0
  145.1458  140.1646  153.5917 H   0  0  0  0  0  0  0  0  0  0  0  0
  1  2  1  0  0  0  0
  1 25  1  0  0  0  0
  1 26  1  0  0  0  0
  2  8  1  0  0  0  0
  2  3  2  0  0  0  0
  3  4  1  0  0  0  0
  4  5  1  0  0  0  0
  4  6  2  0  0  0  0
  6  7  1  0  0  0  0
  7 11  1  0  0  0  0
  7  8  2  0  0  0  0
  8  9  1  0  0  0  0
  9 10  2  0  0  0  0
 10 11  1  0  0  0  0
 10 27  1  0  0  0  0
 11 12  1  0  0  0  0
 12 21  1  0  0  0  0
 12 19  1  0  0  0  0
 12 13  1  0  0  0  0
 13 14  1  0  0  0  0
 14 22  1  0  0  0  0
 14 15  1  0  0  0  0
 14 17  1  0  0  0  0
 15 16  1  0  0  0  0
 15 28  1  0  0  0  0
 15 29  1  0  0  0  0
 16 30  1  0  0  0  0
 17 23  1  0  0  0  0
 17 18  1  0  0  0  0
 17 19  1  0  0  0  0
 18 31  1  0  0  0  0
 19 24  1  0  0  0  0
 19 20  1  0  0  0  0
 20 32  1  0  0  0  0
M  END
> <s_m_source_file>
AV-unprocessed.smi

> <i_m_source_file_index>
114

> <i_lp_mmshare_version>
43012

> <i_f3d_flags>
0

> <s_epik_input>
RmMobjEpbmMoW05IMl0pYyhjMTIpbltjSF1uMltDQEBIXTNPW0NASF0oW0NIMl1bT0hdKVtDQEBIXShbT0hdKVtDQEBIXTNbT0hd

> <s_epik_cmdline>
J2VwaWtfcHl0aG9uJywgJy1waCcsICc3LjAnLCAnLXRuJywgJzgnLCAnLW1hJywgJzIwMCcsICctbWV0YWxfYmluZGluZycsICctaW1hZScsICc8aW5maWxlLm1hZT4nLCAnLW9tYWUnLCAnPG91dGZpbGUubWFlPic=

> <r_lp_tautomer_probability>
1

> <r_epik_Ionization_Penalty>
1.13199e-05

> <r_epik_Ionization_Penalty_Charging>
0

> <r_epik_Ionization_Penalty_Neutral>
1.13199e-05

> <r_epik_State_Penalty>
-0

> <r_epik_Charging_Adjusted_Penalty>
0

> <i_epik_Tot_Q>
0

> <i_epik_Tot_abs_Q>
0

> <r_epik_Metal_State_Penalty>
-0

> <b_epik_Metal_Only>
0

> <s_epik_Chemistry_Notes>
This compound contains an acetal/aminal-like group ( X-CH(R)-Y where X, Y are N, S, or O) that may be acid/base labile, releasing an aldehyde.

> <s_lp_Force_Field>
OPLS_2005

> <r_lp_Energy>
38.7556

> <b_lp_Chiralities_Consistent>
1

> <s_lp_Variant>
AV-unprocessed.smi:114-14

> <Gold.Version>
5.8.1

> <Gold.Id.Protein>
6NUR|6NUR_protein|mol2

> <Gold.PLP.Fitness>
40.4055

> <Gold.PLP.PLP>
-32.0822

> <Gold.PLP.part.hbond>
-4.4206

> <Gold.PLP.part.metal>
0.0000

> <Gold.PLP.part.buried>
-4.1659

> <Gold.PLP.part.nonpolar>
-25.5808

> <Gold.PLP.part.repulsive>
0.5276

> <Gold.PLP.ligand.clash>
0.0000

> <Gold.PLP.ligand.torsion>
0.1361

> <Gold.PLP.Chemscore.Hbond>
2.8447

> <Gold.PLP.Chemscore.CHOScore>
0.0000

> <Gold.PLP.Chemscore.Metal>
0.0000

> <Gold.Chemscore.Hbonds>
donor molecule, donor type, donor heavy atom, donor atom, acceptor molecule, acceptor atom, score
      L1  H    18    31       P1  7957  0.70
      L1  H    20    32       P1 10175  1.00
      P1  H  7989  7998       L1    16  1.00

> <Gold.PLP.Chemscore.Internal.Correction>
0.0612

> <Gold.Rescore>
     Score         DG    S(hbond)    S(metal)    S(lipo)     H(rot)  DE(clash)    DE(int)     intcor
      3.05      -5.62       2.29        0.00      23.87       4.03       1.32       1.25       ----

> <Gold.Chemscore.Fitness>
3.0474

> <Gold.Chemscore.DG>
-5.6228

> <Gold.Chemscore.ZeroCoef>
-5.4800

> <Gold.Chemscore.Hbond>
2.2936

> <Gold.Chemscore.Metal>
0.0000

> <Gold.Chemscore.Lipo>
23.8740

> <Gold.Chemscore.Internal_Hbond>
0.0000

> <Gold.Chemscore.DEClash>
1.3218

> <Gold.Chemscore.DEInternal>
1.2536

> <Gold.Chemscore.Rot>
4.0277

> <Gold.Chemscore.Internal.Correction>
   9.000000E+99

> <Gold.Chemscore.Hbonds>
donor molecule, donor type, donor heavy atom, donor atom, acceptor molecule, acceptor atom, score
      L1  H    18    31       P1  7957  0.68
      L1  H    20    32       P1 10175  1.00
      P1  H  7989  7998       L1    16  0.26

> <Gold.Chemscore.Hbond.Weighted>
-7.6605

> <Gold.Chemscore.Metal.Weighted>
-0.0000

> <Gold.Chemscore.Lipo.Weighted>
-2.7933

> <Gold.Chemscore.Internal_Hbond.Weighted>
0.0000

> <Gold.Chemscore.DEClash.Weighted>
1.3218

> <Gold.Chemscore.DEInternal.Weighted>
1.2536

> <Gold.Chemscore.Rot.Weighted>
10.3110

> <Gold.Chemscore.Internal.Correction.Weighted>
   9.000000E+99

> <Gold.Protein.RotatedTorsions>
[ 6907 6896 6895 6894 ] final  -43.75 input  -60.11 | X-H torsion
[ 7974 7965 7964 7962 ] final   -3.90 input  175.53 | X-H torsion
[ 8008 7997 7996 7995 ] final -174.18 input   59.86 | X-H torsion
[ 10167 10162 10161 10158 ] final -131.23 input  -65.29 | X-H torsion
[ 10718 10713 10712 10709 ] final  -91.16 input   66.30 | X-H torsion
[ 10763 10752 10751 10750 ] final  -86.75 input  -60.55 | X-H torsion
[ 11005 11000 10999 10996 ] final  126.67 input  -57.11 | X-H torsion

> <Gold.Protein.ActiveResidues>
 VAL166  LYS551  ARG553  GLY616  TRP617  ASP618  TYR619  PRO620  LYS621  CYS622 
 ASP623  PHE694  ASN695  SER759  ASP760  ASP761  ALA762  ILE779  LEU786  VAL792 
 PHE793  MET794  SER795  GLU796  ALA797  LYS798  CYS799  TRP800  GLU811  SER814 

> <Gold.Protein.RotatedAtoms>
  150.9405  134.8814  159.7608 H   0  0  0  0  0  0  0  0  0  0  0  0  # atno 6907 bound_to 6896
  152.5078  134.3949  159.9406 H   0  0  0  0  0  0  0  0  0  0  0  0  # atno 6908 bound_to 6896
  151.3970  133.3730  159.2762 H   0  0  0  0  0  0  0  0  0  0  0  0  # atno 6909 bound_to 6896
  146.2382  140.1791  142.8332 H   0  0  0  0  0  0  0  0  0  0  0  0  # atno 7974 bound_to 7965
  155.9668  140.1155  157.0847 H   0  0  0  0  0  0  0  0  0  0  0  0  # atno 8008 bound_to 7997
  154.4146  140.1171  156.5320 H   0  0  0  0  0  0  0  0  0  0  0  0  # atno 8009 bound_to 7997
  155.6648  140.3473  155.4798 H   0  0  0  0  0  0  0  0  0  0  0  0  # atno 8010 bound_to 7997
  139.9210  143.6382  152.2553 H   0  0  0  0  0  0  0  0  0  0  0  0  # atno 10167 bound_to 10162
  155.9992  130.4937  150.5432 H   0  0  0  0  0  0  0  0  0  0  0  0  # atno 10718 bound_to 10713
  154.6260  135.5438  153.7627 H   0  0  0  0  0  0  0  0  0  0  0  0  # atno 10763 bound_to 10752
  153.0261  135.6424  154.1371 H   0  0  0  0  0  0  0  0  0  0  0  0  # atno 10764 bound_to 10752
  154.1303  135.2914  155.3167 H   0  0  0  0  0  0  0  0  0  0  0  0  # atno 10765 bound_to 10752
  139.9468  134.9628  156.8742 H   0  0  0  0  0  0  0  0  0  0  0  0  # atno 11005 bound_to 11000
  144.9949  140.8580  143.5317 LP  0  0  0  0  0  0  0  0  0  0  0  0  # atno 17320 bound_to 7965
  145.1802  139.2356  143.5296 LP  0  0  0  0  0  0  0  0  0  0  0  0  # atno 17321 bound_to 7965
  139.6861  144.7651  151.1521 LP  0  0  0  0  0  0  0  0  0  0  0  0  # atno 17342 bound_to 10162
  140.7662  143.5655  150.9052 LP  0  0  0  0  0  0  0  0  0  0  0  0  # atno 17343 bound_to 10162
  157.3365  131.0709  151.1821 LP  0  0  0  0  0  0  0  0  0  0  0  0  # atno 17370 bound_to 10713
  157.2683  130.6692  149.6007 LP  0  0  0  0  0  0  0  0  0  0  0  0  # atno 17371 bound_to 10713
  140.5815  134.0347  155.7466 LP  0  0  0  0  0  0  0  0  0  0  0  0  # atno 17394 bound_to 11000
  141.1120  133.9600  157.2892 LP  0  0  0  0  0  0  0  0  0  0  0  0  # atno 17395 bound_to 11000

$$$$
