AV-unprocessed.smi:1485|AV-procd|sdf|6003|dock7
  -GOLD-   22720 6 93D 1   1.00000     0.00000
 Structure written by MMmdl.
 44 45  0  0  0  0  0  0  0  0  1 V2000
  143.8412  143.5932  155.8143 C   0  0  0  0  0  0  0  0  0  0  0  0
  144.8262  143.4767  154.8025 O   0  0  0  0  0  0  0  0  0  0  0  0
  145.5993  142.2958  154.9316 C   0  0  0  0  0  0  0  0  0  0  0  0
  146.7389  142.3329  153.9023 C   0  0  0  0  0  0  0  0  0  0  0  0
  147.6848  141.2317  154.1091 N   0  0  0  0  0  0  0  0  0  0  0  0
  148.7847  141.5712  154.8788 N   0  0  0  0  0  0  0  0  0  0  0  0
  149.6907  140.6862  155.1444 C   0  0  0  0  0  0  0  0  0  0  0  0
  150.8873  141.0107  155.9693 C   0  0  0  0  0  0  0  0  0  0  0  0
  151.9466  140.3925  155.8509 O   0  0  0  0  0  0  0  0  0  0  0  0
  150.7257  142.0215  156.8423 N   0  0  0  0  0  0  0  0  0  0  0  0
  151.7479  142.5288  157.7519 C   0  0  2  0  0  0  0  0  0  0  0  0
  152.0624  141.4620  158.8162 C   0  0  0  0  0  0  0  0  0  0  0  0
  153.0883  141.9761  159.8374 C   0  0  0  0  0  0  0  0  0  0  0  0
  152.6147  143.2827  160.4930 C   0  0  0  0  0  0  0  0  0  0  0  0
  152.3086  144.3631  159.4382 C   0  0  2  0  0  0  0  0  0  0  0  0
  151.8350  145.6690  160.0916 C   0  0  0  0  0  0  0  0  0  0  0  0
  151.2816  143.8418  158.4141 C   0  0  0  0  0  0  0  0  0  0  0  0
  149.5730  139.3274  154.6425 C   0  0  0  0  0  0  0  0  0  0  0  0
  148.4916  139.0099  153.8975 C   0  0  0  0  0  0  0  0  0  0  0  0
  147.4495  139.9901  153.5877 C   0  0  0  0  0  0  0  0  0  0  0  0
  146.4495  139.7219  152.9226 O   0  0  0  0  0  0  0  0  0  0  0  0
  143.2800  144.5171  155.6752 H   0  0  0  0  0  0  0  0  0  0  0  0
  144.2950  143.6213  156.8059 H   0  0  0  0  0  0  0  0  0  0  0  0
  143.1358  142.7621  155.7751 H   0  0  0  0  0  0  0  0  0  0  0  0
  146.0081  142.2274  155.9410 H   0  0  0  0  0  0  0  0  0  0  0  0
  144.9694  141.4194  154.7704 H   0  0  0  0  0  0  0  0  0  0  0  0
  146.3310  142.3024  152.8903 H   0  0  0  0  0  0  0  0  0  0  0  0
  147.2612  143.2887  153.9749 H   0  0  0  0  0  0  0  0  0  0  0  0
  149.8235  142.4741  156.8748 H   0  0  0  0  0  0  0  0  0  0  0  0
  152.6613  142.7227  157.1859 H   0  0  0  0  0  0  0  0  0  0  0  0
  151.1471  141.1775  159.3374 H   0  0  0  0  0  0  0  0  0  0  0  0
  152.4412  140.5573  158.3393 H   0  0  0  0  0  0  0  0  0  0  0  0
  153.2626  141.2186  160.6020 H   0  0  0  0  0  0  0  0  0  0  0  0
  154.0461  142.1418  159.3423 H   0  0  0  0  0  0  0  0  0  0  0  0
  151.7237  143.0870  161.0912 H   0  0  0  0  0  0  0  0  0  0  0  0
  153.3780  143.6409  161.1848 H   0  0  0  0  0  0  0  0  0  0  0  0
  153.2339  144.5814  158.9028 H   0  0  0  0  0  0  0  0  0  0  0  0
  150.9087  145.5209  160.6476 H   0  0  0  0  0  0  0  0  0  0  0  0
  151.6537  146.4392  159.3414 H   0  0  0  0  0  0  0  0  0  0  0  0
  152.5823  146.0552  160.7851 H   0  0  0  0  0  0  0  0  0  0  0  0
  151.1102  144.6016  157.6504 H   0  0  0  0  0  0  0  0  0  0  0  0
  150.3221  143.6818  158.9088 H   0  0  0  0  0  0  0  0  0  0  0  0
  150.3270  138.5836  154.8557 H   0  0  0  0  0  0  0  0  0  0  0  0
  148.3912  138.0035  153.5182 H   0  0  0  0  0  0  0  0  0  0  0  0
  1  2  1  0  0  0  0
  1 22  1  0  0  0  0
  1 23  1  0  0  0  0
  1 24  1  0  0  0  0
  2  3  1  0  0  0  0
  3  4  1  0  0  0  0
  3 25  1  0  0  0  0
  3 26  1  0  0  0  0
  4  5  1  0  0  0  0
  4 27  1  0  0  0  0
  4 28  1  0  0  0  0
  5 20  1  0  0  0  0
  5  6  1  0  0  0  0
  6  7  2  0  0  0  0
  7  8  1  0  0  0  0
  7 18  1  0  0  0  0
  8  9  2  0  0  0  0
  8 10  1  0  0  0  0
 10 11  1  0  0  0  0
 10 29  1  0  0  0  0
 11 17  1  0  0  0  0
 11 12  1  0  0  0  0
 11 30  1  0  0  0  0
 12 13  1  0  0  0  0
 12 31  1  0  0  0  0
 12 32  1  0  0  0  0
 13 14  1  0  0  0  0
 13 33  1  0  0  0  0
 13 34  1  0  0  0  0
 14 15  1  0  0  0  0
 14 35  1  0  0  0  0
 14 36  1  0  0  0  0
 15 16  1  0  0  0  0
 15 17  1  0  0  0  0
 15 37  1  0  0  0  0
 16 38  1  0  0  0  0
 16 39  1  0  0  0  0
 16 40  1  0  0  0  0
 17 41  1  0  0  0  0
 17 42  1  0  0  0  0
 18 19  2  0  0  0  0
 18 43  1  0  0  0  0
 19 20  1  0  0  0  0
 19 44  1  0  0  0  0
 20 21  2  0  0  0  0
M  END
> <s_m_source_file>
AV-unprocessed.smi

> <i_m_source_file_index>
1485

> <i_lp_mmshare_version>
43012

> <i_f3d_flags>
0

> <s_epik_input>
W0NIM11PW0NIMl1bQ0gyXW4xbmMoW2NIXVtjSF1jMT1PKUMoPU8pW05IXVtDQEBIXTJbQ0gyXVtDSDJdW0NIMl1bQ0BASF0oW0NIM10pW0NIMl0y

> <s_epik_cmdline>
J2VwaWtfcHl0aG9uJywgJy1waCcsICc3LjAnLCAnLXRuJywgJzgnLCAnLW1hJywgJzIwMCcsICctbWV0YWxfYmluZGluZycsICctaW1hZScsICc8aW5maWxlLm1hZT4nLCAnLW9tYWUnLCAnPG91dGZpbGUubWFlPic=

> <r_lp_tautomer_probability>
1

> <r_epik_Ionization_Penalty>
6.4688e-07

> <r_epik_Ionization_Penalty_Charging>
6.63567e-09

> <r_epik_Ionization_Penalty_Neutral>
6.40245e-07

> <r_epik_State_Penalty>
-0

> <r_epik_Charging_Adjusted_Penalty>
6.63567e-09

> <i_epik_Tot_Q>
0

> <i_epik_Tot_abs_Q>
0

> <r_epik_Metal_State_Penalty>
-0

> <b_epik_Metal_Only>
0

> <s_lp_Force_Field>
OPLS_2005

> <r_lp_Energy>
28.6474

> <b_lp_Chiralities_Consistent>
1

> <s_lp_Variant>
AV-unprocessed.smi:1485-3

> <Gold.Version>
5.8.1

> <Gold.Id.Protein>
6NUR|6NUR_protein|mol2

> <Gold.PLP.Fitness>
42.5215

> <Gold.PLP.PLP>
-43.9950

> <Gold.PLP.part.hbond>
-0.3954

> <Gold.PLP.part.metal>
0.0000

> <Gold.PLP.part.buried>
-5.0935

> <Gold.PLP.part.nonpolar>
-40.2674

> <Gold.PLP.part.repulsive>
1.6997

> <Gold.PLP.ligand.clash>
0.0000

> <Gold.PLP.ligand.torsion>
0.7442

> <Gold.PLP.Chemscore.Hbond>
0.0006

> <Gold.PLP.Chemscore.CHOScore>
0.0000

> <Gold.PLP.Chemscore.Metal>
0.0000

> <Gold.Chemscore.Hbonds>
donor molecule, donor type, donor heavy atom, donor atom, acceptor molecule, acceptor atom, score
      P1  H  7989  7998       L1     9  0.01

> <Gold.PLP.Chemscore.Internal.Correction>
0.0133

> <Gold.Rescore>
     Score         DG    S(hbond)    S(metal)    S(lipo)     H(rot)  DE(clash)    DE(int)     intcor
     14.07     -15.74       0.33        0.00     112.04       1.55       0.83       0.84       ----

> <Gold.Chemscore.Fitness>
14.0742

> <Gold.Chemscore.DG>
-15.7448

> <Gold.Chemscore.ZeroCoef>
-5.4800

> <Gold.Chemscore.Hbond>
0.3349

> <Gold.Chemscore.Metal>
0.0000

> <Gold.Chemscore.Lipo>
112.0386

> <Gold.Chemscore.Internal_Hbond>
0.0000

> <Gold.Chemscore.DEClash>
0.8291

> <Gold.Chemscore.DEInternal>
0.8415

> <Gold.Chemscore.Rot>
1.5478

> <Gold.Chemscore.Internal.Correction>
   9.000000E+99

> <Gold.Chemscore.Hbond.Weighted>
-1.1185

> <Gold.Chemscore.Metal.Weighted>
-0.0000

> <Gold.Chemscore.Lipo.Weighted>
-13.1085

> <Gold.Chemscore.Internal_Hbond.Weighted>
0.0000

> <Gold.Chemscore.DEClash.Weighted>
0.8291

> <Gold.Chemscore.DEInternal.Weighted>
0.8415

> <Gold.Chemscore.Rot.Weighted>
3.9623

> <Gold.Chemscore.Internal.Correction.Weighted>
   9.000000E+99

> <Gold.Protein.RotatedTorsions>
[ 6907 6896 6895 6894 ] final  167.28 input  -60.11 | X-H torsion
[ 7974 7965 7964 7962 ] final   20.15 input  175.53 | X-H torsion
[ 8008 7997 7996 7995 ] final  108.87 input   59.86 | X-H torsion
[ 10167 10162 10161 10158 ] final -170.38 input  -65.29 | X-H torsion
[ 10718 10713 10712 10709 ] final   12.61 input   66.30 | X-H torsion
[ 10763 10752 10751 10750 ] final  -34.13 input  -60.55 | X-H torsion
[ 11005 11000 10999 10996 ] final  -49.29 input  -57.11 | X-H torsion

> <Gold.Protein.ActiveResidues>
 VAL166  LYS551  ARG553  GLY616  TRP617  ASP618  TYR619  PRO620  LYS621  CYS622 
 ASP623  PHE694  ASN695  SER759  ASP760  ASP761  ALA762  ILE779  LEU786  VAL792 
 PHE793  MET794  SER795  GLU796  ALA797  LYS798  CYS799  TRP800  GLU811  SER814 

> <Gold.Protein.RotatedAtoms>
  151.8658  133.3466  159.3718 H   0  0  0  0  0  0  0  0  0  0  0  0  # atno 6907 bound_to 6896
  150.7166  134.5162  159.5640 H   0  0  0  0  0  0  0  0  0  0  0  0  # atno 6908 bound_to 6896
  152.2684  134.7960  160.0469 H   0  0  0  0  0  0  0  0  0  0  0  0  # atno 6909 bound_to 6896
  146.2122  139.8210  142.8680 H   0  0  0  0  0  0  0  0  0  0  0  0  # atno 7974 bound_to 7965
  156.1936  140.3068  155.9381 H   0  0  0  0  0  0  0  0  0  0  0  0  # atno 8008 bound_to 7997
  155.3118  140.0451  157.3052 H   0  0  0  0  0  0  0  0  0  0  0  0  # atno 8009 bound_to 7997
  154.5482  140.2283  155.8538 H   0  0  0  0  0  0  0  0  0  0  0  0  # atno 8010 bound_to 7997
  139.5865  144.1306  152.1582 H   0  0  0  0  0  0  0  0  0  0  0  0  # atno 10167 bound_to 10162
  157.0126  130.6123  149.5710 H   0  0  0  0  0  0  0  0  0  0  0  0  # atno 10718 bound_to 10713
  153.8416  135.6857  153.4802 H   0  0  0  0  0  0  0  0  0  0  0  0  # atno 10763 bound_to 10752
  153.1450  135.4641  154.9551 H   0  0  0  0  0  0  0  0  0  0  0  0  # atno 10764 bound_to 10752
  154.7842  135.3279  154.7869 H   0  0  0  0  0  0  0  0  0  0  0  0  # atno 10765 bound_to 10752
  141.0751  133.6668  156.3564 H   0  0  0  0  0  0  0  0  0  0  0  0  # atno 11005 bound_to 11000
  145.3096  141.0216  143.3562 LP  0  0  0  0  0  0  0  0  0  0  0  0  # atno 17320 bound_to 7965
  144.8946  139.4729  143.6662 LP  0  0  0  0  0  0  0  0  0  0  0  0  # atno 17321 bound_to 7965
  140.0871  144.5652  150.7081 LP  0  0  0  0  0  0  0  0  0  0  0  0  # atno 17342 bound_to 10162
  140.7136  143.2525  151.4504 LP  0  0  0  0  0  0  0  0  0  0  0  0  # atno 17343 bound_to 10162
  156.0130  130.5223  150.8049 LP  0  0  0  0  0  0  0  0  0  0  0  0  # atno 17370 bound_to 10713
  157.5309  131.0936  150.9956 LP  0  0  0  0  0  0  0  0  0  0  0  0  # atno 17371 bound_to 10713
  140.5591  134.5951  157.5429 LP  0  0  0  0  0  0  0  0  0  0  0  0  # atno 17394 bound_to 11000
  139.9563  134.7529  156.0335 LP  0  0  0  0  0  0  0  0  0  0  0  0  # atno 17395 bound_to 11000

$$$$
