AV-unprocessed.smi:1703|AV-procd|sdf|6859|dock10
  -GOLD-   22720 8 43D 1   1.00000     0.00000
 Structure written by MMmdl.
 49 51  0  0  0  0  0  0  0  0  2 V2000
  144.8914  144.8593  153.5566 C   0  0  0  0  0  0  0  0  0  0  0  0
  145.6434  144.1821  154.7077 C   0  0  2  0  0  0  0  0  0  0  0  0
  146.7350  143.2233  154.1983 C   0  0  0  0  0  0  0  0  0  0  0  0
  147.3766  142.5234  155.3341 N   0  3  2  0  0  0  0  0  0  0  0  0
  148.5165  141.6709  154.9130 C   0  0  0  0  0  0  0  0  0  0  0  0
  149.3948  141.2393  156.1075 C   0  0  2  0  0  0  0  0  0  0  0  0
  149.3173  142.2294  157.1131 O   0  0  0  0  0  0  0  0  0  0  0  0
  150.8811  141.0453  155.7473 C   0  0  0  0  0  0  0  0  0  0  0  0
  151.6218  140.3446  156.7882 N   0  0  0  0  0  0  0  0  0  0  0  0
  152.0362  139.0516  156.8119 C   0  0  0  0  0  0  0  0  0  0  0  0
  151.7693  138.0996  155.6866 C   0  0  0  0  0  0  0  0  0  0  0  0
  152.2214  136.7912  155.9611 O   0  0  0  0  0  0  0  0  0  0  0  0
  152.6967  138.6749  157.9071 N   0  0  0  0  0  0  0  0  0  0  0  0
  152.7252  139.8322  158.6596 C   0  0  0  0  0  0  0  0  0  0  0  0
  153.2869  140.0876  159.9310 C   0  0  0  0  0  0  0  0  0  0  0  0
  153.1898  141.3700  160.5095 C   0  0  0  0  0  0  0  0  0  0  0  0
  152.5316  142.4133  159.8266 C   0  0  0  0  0  0  0  0  0  0  0  0
  151.9652  142.1801  158.5587 C   0  0  0  0  0  0  0  0  0  0  0  0
  152.0633  140.8978  157.9864 C   0  0  0  0  0  0  0  0  0  0  0  0
  146.3570  141.7978  156.1310 C   0  0  0  0  0  0  0  0  0  0  0  0
  145.2411  142.7517  156.5994 C   0  0  1  0  0  0  0  0  0  0  0  0
  145.6788  143.6988  157.7309 C   0  0  0  0  0  0  0  0  0  0  0  0
  144.6941  143.4551  155.4836 O   0  0  0  0  0  0  0  0  0  0  0  0
  145.5696  145.4415  152.9322 H   0  0  0  0  0  0  0  0  0  0  0  0
  144.1263  145.5371  153.9363 H   0  0  0  0  0  0  0  0  0  0  0  0
  144.3979  144.1244  152.9199 H   0  0  0  0  0  0  0  0  0  0  0  0
  146.0978  144.9625  155.3186 H   0  0  0  0  0  0  0  0  0  0  0  0
  146.3098  142.4897  153.5112 H   0  0  0  0  0  0  0  0  0  0  0  0
  147.4843  143.7882  153.6424 H   0  0  0  0  0  0  0  0  0  0  0  0
  148.1242  140.8063  154.3761 H   0  0  0  0  0  0  0  0  0  0  0  0
  149.1427  142.2101  154.2004 H   0  0  0  0  0  0  0  0  0  0  0  0
  149.0204  140.3090  156.5326 H   0  0  0  0  0  0  0  0  0  0  0  0
  148.9504  143.0156  156.7374 H   0  0  0  0  0  0  0  0  0  0  0  0
  150.9771  140.5113  154.8026 H   0  0  0  0  0  0  0  0  0  0  0  0
  151.3571  142.0150  155.5944 H   0  0  0  0  0  0  0  0  0  0  0  0
  150.6967  138.0627  155.4920 H   0  0  0  0  0  0  0  0  0  0  0  0
  152.2397  138.4649  154.7739 H   0  0  0  0  0  0  0  0  0  0  0  0
  151.9228  136.5437  156.8229 H   0  0  0  0  0  0  0  0  0  0  0  0
  153.7948  139.2957  160.4614 H   0  0  0  0  0  0  0  0  0  0  0  0
  153.6240  141.5545  161.4812 H   0  0  0  0  0  0  0  0  0  0  0  0
  152.4639  143.3931  160.2764 H   0  0  0  0  0  0  0  0  0  0  0  0
  151.4635  142.9787  158.0328 H   0  0  0  0  0  0  0  0  0  0  0  0
  145.9243  141.0055  155.5180 H   0  0  0  0  0  0  0  0  0  0  0  0
  146.8094  141.3107  156.9943 H   0  0  0  0  0  0  0  0  0  0  0  0
  144.4298  142.1414  156.9973 H   0  0  0  0  0  0  0  0  0  0  0  0
  145.9744  143.1326  158.6144 H   0  0  0  0  0  0  0  0  0  0  0  0
  144.8623  144.3596  158.0223 H   0  0  0  0  0  0  0  0  0  0  0  0
  146.5278  144.3202  157.4476 H   0  0  0  0  0  0  0  0  0  0  0  0
  147.7645  143.2426  155.9284 H   0  0  0  0  0  0  0  0  0  0  0  0
  1  2  1  0  0  0  0
  1 24  1  0  0  0  0
  1 25  1  0  0  0  0
  1 26  1  0  0  0  0
  2 23  1  0  0  0  0
  2  3  1  0  0  0  0
  2 27  1  0  0  0  0
  3  4  1  0  0  0  0
  3 28  1  0  0  0  0
  3 29  1  0  0  0  0
  4  5  1  0  0  0  0
  4 20  1  0  0  0  0
  4 49  1  0  0  0  0
  5  6  1  0  0  0  0
  5 30  1  0  0  0  0
  5 31  1  0  0  0  0
  6  7  1  0  0  0  0
  6  8  1  0  0  0  0
  6 32  1  0  0  0  0
  7 33  1  0  0  0  0
  8  9  1  0  0  0  0
  8 34  1  0  0  0  0
  8 35  1  0  0  0  0
  9 19  1  0  0  0  0
  9 10  1  0  0  0  0
 10 11  1  0  0  0  0
 10 13  2  0  0  0  0
 11 12  1  0  0  0  0
 11 36  1  0  0  0  0
 11 37  1  0  0  0  0
 12 38  1  0  0  0  0
 13 14  1  0  0  0  0
 14 19  2  0  0  0  0
 14 15  1  0  0  0  0
 15 16  2  0  0  0  0
 15 39  1  0  0  0  0
 16 17  1  0  0  0  0
 16 40  1  0  0  0  0
 17 18  2  0  0  0  0
 17 41  1  0  0  0  0
 18 19  1  0  0  0  0
 18 42  1  0  0  0  0
 20 21  1  0  0  0  0
 20 43  1  0  0  0  0
 20 44  1  0  0  0  0
 21 22  1  0  0  0  0
 21 23  1  0  0  0  0
 21 45  1  0  0  0  0
 22 46  1  0  0  0  0
 22 47  1  0  0  0  0
 22 48  1  0  0  0  0
M  CHG  1   4   1
M  END
> <s_m_source_file>
AV-unprocessed.smi

> <i_m_source_file_index>
1703

> <i_lp_mmshare_version>
43012

> <i_f3d_flags>
0

> <s_epik_input>
W0NIM11bQ0BASF0xW0NIMl1OKFtDSDJdW0NASF0oTzEpW0NIM10pW0NIMl1bQ0BIXShbT0hdKVtDSDJdbihjKG4yKVtDSDJdW09IXSljKGMyMylbY0hdW2NIXVtjSF1bY0hdMw==

> <s_epik_cmdline>
J2VwaWtfcHl0aG9uJywgJy1waCcsICc3LjAnLCAnLXRuJywgJzgnLCAnLW1hJywgJzIwMCcsICctbWV0YWxfYmluZGluZycsICctaW1hZScsICc8aW5maWxlLm1hZT4nLCAnLW9tYWUnLCAnPG91dGZpbGUubWFlPic=

> <r_epik_Ionization_Penalty>
0.655661

> <r_epik_Ionization_Penalty_Charging>
0.608065

> <r_epik_Ionization_Penalty_Neutral>
0.0475963

> <r_epik_State_Penalty>
0.695267

> <r_epik_Charging_Adjusted_Penalty>
1.30333

> <i_epik_Tot_Q>
1

> <i_epik_Tot_abs_Q>
1

> <r_epik_Metal_State_Penalty>
0.653591

> <b_epik_Metal_Only>
0

> <s_lp_Force_Field>
OPLS_2005

> <r_lp_Energy>
25.4362

> <b_lp_Chiralities_Consistent>
1

> <s_lp_Variant>
AV-unprocessed.smi:1703-7

> <Gold.Version>
5.8.1

> <Gold.Id.Protein>
6NUR|6NUR_protein|mol2

> <Gold.PLP.Fitness>
49.7051

> <Gold.PLP.PLP>
-39.9450

> <Gold.PLP.part.hbond>
-3.0000

> <Gold.PLP.part.metal>
0.0000

> <Gold.PLP.part.buried>
-3.7549

> <Gold.PLP.part.nonpolar>
-34.0019

> <Gold.PLP.part.repulsive>
0.2450

> <Gold.PLP.ligand.clash>
0.0000

> <Gold.PLP.ligand.torsion>
0.7834

> <Gold.PLP.Chemscore.Hbond>
3.7520

> <Gold.PLP.Chemscore.CHOScore>
0.0000

> <Gold.PLP.Chemscore.Metal>
0.0000

> <Gold.Chemscore.Hbonds>
donor molecule, donor type, donor heavy atom, donor atom, acceptor molecule, acceptor atom, score
      L1  H     4    49       P1  8028  1.34
      L1  H     7    33       P1  8028  1.00
      P1  H 10752 10764       L1    12  1.00

> <Gold.PLP.Chemscore.Internal.Correction>
0.0709

> <Gold.Rescore>
     Score         DG    S(hbond)    S(metal)    S(lipo)     H(rot)  DE(clash)    DE(int)     intcor
     16.55     -17.79       2.34        0.00     103.30       2.96       0.32       0.92       ----

> <Gold.Chemscore.Fitness>
16.5493

> <Gold.Chemscore.DG>
-17.7877

> <Gold.Chemscore.ZeroCoef>
-5.4800

> <Gold.Chemscore.Hbond>
2.3360

> <Gold.Chemscore.Metal>
0.0000

> <Gold.Chemscore.Lipo>
103.2981

> <Gold.Chemscore.Internal_Hbond>
0.0000

> <Gold.Chemscore.DEClash>
0.3222

> <Gold.Chemscore.DEInternal>
0.9162

> <Gold.Chemscore.Rot>
2.9611

> <Gold.Chemscore.Internal.Correction>
   9.000000E+99

> <Gold.Chemscore.Hbonds>
donor molecule, donor type, donor heavy atom, donor atom, acceptor molecule, acceptor atom, score
      L1  H     4    49       P1  8028  0.15
      L1  H     7    33       P1  8028  0.89
      P1  H 10752 10764       L1    12  0.89

> <Gold.Chemscore.Hbond.Weighted>
-7.8022

> <Gold.Chemscore.Metal.Weighted>
-0.0000

> <Gold.Chemscore.Lipo.Weighted>
-12.0859

> <Gold.Chemscore.Internal_Hbond.Weighted>
0.0000

> <Gold.Chemscore.DEClash.Weighted>
0.3222

> <Gold.Chemscore.DEInternal.Weighted>
0.9162

> <Gold.Chemscore.Rot.Weighted>
7.5803

> <Gold.Chemscore.Internal.Correction.Weighted>
   9.000000E+99

> <Gold.Protein.RotatedTorsions>
[ 6907 6896 6895 6894 ] final -104.29 input  -60.11 | X-H torsion
[ 7974 7965 7964 7962 ] final -147.90 input  175.53 | X-H torsion
[ 8008 7997 7996 7995 ] final  -71.44 input   59.86 | X-H torsion
[ 10167 10162 10161 10158 ] final -170.12 input  -65.29 | X-H torsion
[ 10718 10713 10712 10709 ] final -134.32 input   66.30 | X-H torsion
[ 10763 10752 10751 10750 ] final  -31.18 input  -60.55 | X-H torsion
[ 11005 11000 10999 10996 ] final -161.04 input  -57.11 | X-H torsion

> <Gold.Protein.ActiveResidues>
 VAL166  LYS551  ARG553  GLY616  TRP617  ASP618  TYR619  PRO620  LYS621  CYS622 
 ASP623  PHE694  ASN695  SER759  ASP760  ASP761  ALA762  ILE779  LEU786  VAL792 
 PHE793  MET794  SER795  GLU796  ALA797  LYS798  CYS799  TRP800  GLU811  SER814 

> <Gold.Protein.RotatedAtoms>
  150.7280  134.0301  159.3730 H   0  0  0  0  0  0  0  0  0  0  0  0  # atno 6907 bound_to 6896
  151.8269  135.0631  160.0441 H   0  0  0  0  0  0  0  0  0  0  0  0  # atno 6908 bound_to 6896
  152.2962  133.5574  159.5625 H   0  0  0  0  0  0  0  0  0  0  0  0  # atno 6909 bound_to 6896
  144.8063  140.5266  143.5672 H   0  0  0  0  0  0  0  0  0  0  0  0  # atno 7974 bound_to 7965
  154.5088  140.0815  156.7948 H   0  0  0  0  0  0  0  0  0  0  0  0  # atno 8008 bound_to 7997
  155.3832  140.3429  155.4229 H   0  0  0  0  0  0  0  0  0  0  0  0  # atno 8009 bound_to 7997
  156.1548  140.1569  156.8698 H   0  0  0  0  0  0  0  0  0  0  0  0  # atno 8010 bound_to 7997
  139.5881  144.1274  152.1600 H   0  0  0  0  0  0  0  0  0  0  0  0  # atno 10167 bound_to 10162
  156.2542  130.7171  151.1081 H   0  0  0  0  0  0  0  0  0  0  0  0  # atno 10718 bound_to 10713
  153.7931  135.6896  153.4868 H   0  0  0  0  0  0  0  0  0  0  0  0  # atno 10763 bound_to 10752
  153.1737  135.4533  154.9935 H   0  0  0  0  0  0  0  0  0  0  0  0  # atno 10764 bound_to 10752
  154.8037  135.3348  154.7425 H   0  0  0  0  0  0  0  0  0  0  0  0  # atno 10765 bound_to 10752
  140.6248  134.4713  157.5226 H   0  0  0  0  0  0  0  0  0  0  0  0  # atno 11005 bound_to 11000
  145.5430  139.1475  143.3436 LP  0  0  0  0  0  0  0  0  0  0  0  0  # atno 17320 bound_to 7965
  146.2355  140.5569  142.8957 LP  0  0  0  0  0  0  0  0  0  0  0  0  # atno 17321 bound_to 7965
  140.0842  144.5675  150.7100 LP  0  0  0  0  0  0  0  0  0  0  0  0  # atno 17342 bound_to 10162
  140.7149  143.2536  151.4465 LP  0  0  0  0  0  0  0  0  0  0  0  0  # atno 17343 bound_to 10162
  157.7226  131.0671  150.6071 LP  0  0  0  0  0  0  0  0  0  0  0  0  # atno 17370 bound_to 10713
  156.6153  130.4391  149.5843 LP  0  0  0  0  0  0  0  0  0  0  0  0  # atno 17371 bound_to 10713
  139.9139  134.8287  156.1432 LP  0  0  0  0  0  0  0  0  0  0  0  0  # atno 17394 bound_to 11000
  141.0717  133.6794  156.2154 LP  0  0  0  0  0  0  0  0  0  0  0  0  # atno 17395 bound_to 11000

$$$$
