AV-unprocessed.smi:2311|AV-procd|sdf|9262|dock8
  -GOLD-   2272012483D 1   1.00000     0.00000
 Structure written by MMmdl.
 40 41  0  0  0  0  0  0  0  0  1 V2000
  152.3799  144.4255  158.1583 C   0  0  0  0  0  0  0  0  0  0  0  0
  152.5994  143.7813  159.5109 C   0  0  0  0  0  0  0  0  0  0  0  0
  152.3398  144.4883  160.7015 C   0  0  0  0  0  0  0  0  0  0  0  0
  152.5622  143.8307  161.9246 C   0  0  0  0  0  0  0  0  0  0  0  0
  153.0304  142.5026  161.9070 C   0  0  0  0  0  0  0  0  0  0  0  0
  153.2654  141.8644  160.6683 C   0  0  0  0  0  0  0  0  0  0  0  0
  153.7355  140.5272  160.7591 N   0  0  0  0  0  0  0  0  0  0  0  0
  154.0410  139.6833  159.7573 C   0  0  0  0  0  0  0  0  0  0  0  0
  153.9603  139.9434  158.5563 O   0  0  0  0  0  0  0  0  0  0  0  0
  154.4509  138.4971  160.2300 N   0  0  0  0  0  0  0  0  0  0  0  0
  154.8542  137.3585  159.4092 C   0  0  1  0  0  0  0  0  0  0  0  0
  153.6345  136.7918  158.6732 C   0  0  0  0  0  0  0  0  0  0  0  0
  154.0556  135.6699  157.7142 C   0  0  0  0  0  0  0  0  0  0  0  0
  155.0421  136.1409  156.7979 O   0  0  0  0  0  0  0  0  0  0  0  0
  156.2516  136.6463  157.3737 C   0  0  0  0  0  0  0  0  0  0  0  0
  157.0684  135.5078  158.0222 C   0  0  0  0  0  0  0  0  0  0  0  0
  157.0510  137.2210  156.1925 C   0  0  0  0  0  0  0  0  0  0  0  0
  155.9167  137.7769  158.3764 C   0  0  0  0  0  0  0  0  0  0  0  0
  153.0483  142.5077  159.4938 N   0  0  0  0  0  0  0  0  0  0  0  0
  152.1660  145.4900  158.2578 H   0  0  0  0  0  0  0  0  0  0  0  0
  151.5395  143.9543  157.6482 H   0  0  0  0  0  0  0  0  0  0  0  0
  153.2669  144.3148  157.5341 H   0  0  0  0  0  0  0  0  0  0  0  0
  151.9793  145.5064  160.6812 H   0  0  0  0  0  0  0  0  0  0  0  0
  152.3763  144.3353  162.8613 H   0  0  0  0  0  0  0  0  0  0  0  0
  153.2056  141.9834  162.8381 H   0  0  0  0  0  0  0  0  0  0  0  0
  153.8503  140.1711  161.6962 H   0  0  0  0  0  0  0  0  0  0  0  0
  154.4861  138.3701  161.2308 H   0  0  0  0  0  0  0  0  0  0  0  0
  155.2585  136.5804  160.0588 H   0  0  0  0  0  0  0  0  0  0  0  0
  152.9008  136.4158  159.3872 H   0  0  0  0  0  0  0  0  0  0  0  0
  153.1421  137.5822  158.1047 H   0  0  0  0  0  0  0  0  0  0  0  0
  154.4182  134.8016  158.2640 H   0  0  0  0  0  0  0  0  0  0  0  0
  153.1916  135.3305  157.1432 H   0  0  0  0  0  0  0  0  0  0  0  0
  158.0353  135.8725  158.3706 H   0  0  0  0  0  0  0  0  0  0  0  0
  157.2584  134.7065  157.3077 H   0  0  0  0  0  0  0  0  0  0  0  0
  156.5683  135.0659  158.8827 H   0  0  0  0  0  0  0  0  0  0  0  0
  157.9949  137.6539  156.5254 H   0  0  0  0  0  0  0  0  0  0  0  0
  156.4918  138.0033  155.6782 H   0  0  0  0  0  0  0  0  0  0  0  0
  157.2814  136.4484  155.4583 H   0  0  0  0  0  0  0  0  0  0  0  0
  155.5419  138.6413  157.8260 H   0  0  0  0  0  0  0  0  0  0  0  0
  156.8255  138.1105  158.8793 H   0  0  0  0  0  0  0  0  0  0  0  0
  1  2  1  0  0  0  0
  1 20  1  0  0  0  0
  1 21  1  0  0  0  0
  1 22  1  0  0  0  0
  2 19  1  0  0  0  0
  2  3  2  0  0  0  0
  3  4  1  0  0  0  0
  3 23  1  0  0  0  0
  4  5  2  0  0  0  0
  4 24  1  0  0  0  0
  5  6  1  0  0  0  0
  5 25  1  0  0  0  0
  6  7  1  0  0  0  0
  6 19  2  0  0  0  0
  7  8  1  0  0  0  0
  7 26  1  0  0  0  0
  8  9  2  0  0  0  0
  8 10  1  0  0  0  0
 10 11  1  0  0  0  0
 10 27  1  0  0  0  0
 11 18  1  0  0  0  0
 11 12  1  0  0  0  0
 11 28  1  0  0  0  0
 12 13  1  0  0  0  0
 12 29  1  0  0  0  0
 12 30  1  0  0  0  0
 13 14  1  0  0  0  0
 13 31  1  0  0  0  0
 13 32  1  0  0  0  0
 14 15  1  0  0  0  0
 15 16  1  0  0  0  0
 15 17  1  0  0  0  0
 15 18  1  0  0  0  0
 16 33  1  0  0  0  0
 16 34  1  0  0  0  0
 16 35  1  0  0  0  0
 17 36  1  0  0  0  0
 17 37  1  0  0  0  0
 17 38  1  0  0  0  0
 18 39  1  0  0  0  0
 18 40  1  0  0  0  0
M  END
> <s_m_source_file>
AV-unprocessed.smi

> <i_m_source_file_index>
2311

> <i_lp_mmshare_version>
43012

> <i_f3d_flags>
0

> <s_epik_input>
W0NIM11jMVtjSF1bY0hdW2NIXWMobjEpW05IXUMoPU8pW05IXVtDQEBIXShbQ0gyXTIpW0NIMl1bQ0gyXU9DMihbQ0gzXSlbQ0gzXQ==

> <s_epik_cmdline>
J2VwaWtfcHl0aG9uJywgJy1waCcsICc3LjAnLCAnLXRuJywgJzgnLCAnLW1hJywgJzIwMCcsICctbWV0YWxfYmluZGluZycsICctaW1hZScsICc8aW5maWxlLm1hZT4nLCAnLW9tYWUnLCAnPG91dGZpbGUubWFlPic=

> <r_lp_tautomer_probability>
1

> <r_epik_Ionization_Penalty>
8.54628e-05

> <r_epik_Ionization_Penalty_Charging>
0

> <r_epik_Ionization_Penalty_Neutral>
8.54628e-05

> <r_epik_State_Penalty>
-0

> <r_epik_Charging_Adjusted_Penalty>
0

> <i_epik_Tot_Q>
0

> <i_epik_Tot_abs_Q>
0

> <r_epik_Metal_State_Penalty>
-0

> <b_epik_Metal_Only>
0

> <s_lp_Force_Field>
OPLS_2005

> <r_lp_Energy>
12.4955

> <b_lp_Chiralities_Consistent>
1

> <s_lp_Variant>
AV-unprocessed.smi:2311-2

> <Gold.Version>
5.8.1

> <Gold.Id.Protein>
6NUR|6NUR_protein|mol2

> <Gold.PLP.Fitness>
40.6389

> <Gold.PLP.PLP>
-34.7704

> <Gold.PLP.part.hbond>
-2.0000

> <Gold.PLP.part.metal>
0.0000

> <Gold.PLP.part.buried>
-4.6549

> <Gold.PLP.part.nonpolar>
-26.9824

> <Gold.PLP.part.repulsive>
0.0811

> <Gold.PLP.ligand.clash>
0.0000

> <Gold.PLP.ligand.torsion>
0.0659

> <Gold.PLP.Chemscore.Hbond>
2.0000

> <Gold.PLP.Chemscore.CHOScore>
0.0000

> <Gold.PLP.Chemscore.Metal>
0.0000

> <Gold.Chemscore.Hbonds>
donor molecule, donor type, donor heavy atom, donor atom, acceptor molecule, acceptor atom, score
      P1  H  7997  8010       L1     9  1.00
      P1  H 10752 10765       L1    14  1.00

> <Gold.PLP.Chemscore.Internal.Correction>
0.0002

> <Gold.Rescore>
     Score         DG    S(hbond)    S(metal)    S(lipo)     H(rot)  DE(clash)    DE(int)     intcor
     16.64     -19.24       1.90        0.00      85.17       1.00       0.00       2.60       ----

> <Gold.Chemscore.Fitness>
16.6358

> <Gold.Chemscore.DG>
-19.2400

> <Gold.Chemscore.ZeroCoef>
-5.4800

> <Gold.Chemscore.Hbond>
1.9027

> <Gold.Chemscore.Metal>
0.0000

> <Gold.Chemscore.Lipo>
85.1701

> <Gold.Chemscore.Internal_Hbond>
0.0000

> <Gold.Chemscore.DEClash>
0.0000

> <Gold.Chemscore.DEInternal>
2.6042

> <Gold.Chemscore.Rot>
1.0000

> <Gold.Chemscore.Internal.Correction>
   9.000000E+99

> <Gold.Chemscore.Hbonds>
donor molecule, donor type, donor heavy atom, donor atom, acceptor molecule, acceptor atom, score
      P1  H  7997  8010       L1     9  0.95
      P1  H 10752 10765       L1    14  0.25

> <Gold.Chemscore.Hbond.Weighted>
-6.3551

> <Gold.Chemscore.Metal.Weighted>
-0.0000

> <Gold.Chemscore.Lipo.Weighted>
-9.9649

> <Gold.Chemscore.Internal_Hbond.Weighted>
0.0000

> <Gold.Chemscore.DEClash.Weighted>
0.0000

> <Gold.Chemscore.DEInternal.Weighted>
2.6042

> <Gold.Chemscore.Rot.Weighted>
2.5600

> <Gold.Chemscore.Internal.Correction.Weighted>
   9.000000E+99

> <Gold.Protein.RotatedTorsions>
[ 6907 6896 6895 6894 ] final   37.06 input  -60.11 | X-H torsion
[ 7974 7965 7964 7962 ] final  138.68 input  175.53 | X-H torsion
[ 8008 7997 7996 7995 ] final   13.13 input   59.86 | X-H torsion
[ 10167 10162 10161 10158 ] final   91.54 input  -65.29 | X-H torsion
[ 10718 10713 10712 10709 ] final -138.65 input   66.30 | X-H torsion
[ 10763 10752 10751 10750 ] final  -67.42 input  -60.55 | X-H torsion
[ 11005 11000 10999 10996 ] final   71.73 input  -57.11 | X-H torsion

> <Gold.Protein.ActiveResidues>
 VAL166  LYS551  ARG553  GLY616  TRP617  ASP618  TYR619  PRO620  LYS621  CYS622 
 ASP623  PHE694  ASN695  SER759  ASP760  ASP761  ALA762  ILE779  LEU786  VAL792 
 PHE793  MET794  SER795  GLU796  ALA797  LYS798  CYS799  TRP800  GLU811  SER814 

> <Gold.Protein.RotatedAtoms>
  152.1381  134.9083  160.0555 H   0  0  0  0  0  0  0  0  0  0  0  0  # atno 6907 bound_to 6896
  152.0162  133.3875  159.4248 H   0  0  0  0  0  0  0  0  0  0  0  0  # atno 6908 bound_to 6896
  150.6862  134.3598  159.4989 H   0  0  0  0  0  0  0  0  0  0  0  0  # atno 6909 bound_to 6896
  144.9349  139.5001  143.5600 H   0  0  0  0  0  0  0  0  0  0  0  0  # atno 7974 bound_to 7965
  154.8302  140.2898  155.5727 H   0  0  0  0  0  0  0  0  0  0  0  0  # atno 8008 bound_to 7997
  156.3005  140.2533  156.3157 H   0  0  0  0  0  0  0  0  0  0  0  0  # atno 8009 bound_to 7997
  154.9239  140.0385  157.2002 H   0  0  0  0  0  0  0  0  0  0  0  0  # atno 8010 bound_to 7997
  139.8365  144.6662  150.9336 H   0  0  0  0  0  0  0  0  0  0  0  0  # atno 10167 bound_to 10162
  156.3018  130.7433  151.1486 H   0  0  0  0  0  0  0  0  0  0  0  0  # atno 10718 bound_to 10713
  154.3742  135.6088  153.5756 H   0  0  0  0  0  0  0  0  0  0  0  0  # atno 10763 bound_to 10752
  152.9789  135.5845  154.4486 H   0  0  0  0  0  0  0  0  0  0  0  0  # atno 10764 bound_to 10752
  154.4244  135.2846  155.1931 H   0  0  0  0  0  0  0  0  0  0  0  0  # atno 10765 bound_to 10752
  139.9528  134.7197  156.0823 H   0  0  0  0  0  0  0  0  0  0  0  0  # atno 11005 bound_to 11000
  146.3262  139.8327  142.8905 LP  0  0  0  0  0  0  0  0  0  0  0  0  # atno 17320 bound_to 7965
  145.3082  141.0213  143.3569 LP  0  0  0  0  0  0  0  0  0  0  0  0  # atno 17321 bound_to 7965
  140.7802  143.3952  151.1241 LP  0  0  0  0  0  0  0  0  0  0  0  0  # atno 17342 bound_to 10162
  139.7602  143.8647  152.3098 LP  0  0  0  0  0  0  0  0  0  0  0  0  # atno 17343 bound_to 10162
  157.7369  131.0557  150.5383 LP  0  0  0  0  0  0  0  0  0  0  0  0  # atno 17370 bound_to 10713
  156.5512  130.4232  149.6107 LP  0  0  0  0  0  0  0  0  0  0  0  0  # atno 17371 bound_to 10713
  141.1194  133.6617  156.3175 LP  0  0  0  0  0  0  0  0  0  0  0  0  # atno 17394 bound_to 11000
  140.5680  134.5869  157.5450 LP  0  0  0  0  0  0  0  0  0  0  0  0  # atno 17395 bound_to 11000

$$$$
