AV-unprocessed.smi:190|AV-procd|sdf|1491|dock7
  -GOLD-   2262019313D 1   1.00000     0.00000
 Structure written by MMmdl.
 54 58  0  0  0  0  0  0  0  0  1 V2000
  152.5711  142.3133  162.5199 O   0  0  0  0  0  0  0  0  0  0  0  0
  152.0286  141.9425  161.2679 C   0  0  0  0  0  0  0  0  0  0  0  0
  152.8149  142.5570  160.0748 C   0  0  0  0  0  0  0  0  0  0  0  0
  154.2335  141.9074  160.0645 C   0  0  0  0  0  0  0  0  0  0  0  0
  154.2632  140.4550  159.9621 N   0  0  0  0  0  0  0  0  0  0  0  0
  153.8540  139.6935  158.8927 C   0  0  0  0  0  0  0  0  0  0  0  0
  153.9721  138.4046  159.0526 N   0  0  0  0  0  0  0  0  0  0  0  0
  154.4897  138.2557  160.3359 C   0  0  0  0  0  0  0  0  0  0  0  0
  154.8544  137.1375  161.1486 C   0  0  0  0  0  0  0  0  0  0  0  0
  154.7562  135.8348  160.7480 N   0  0  0  0  0  0  0  0  0  0  0  0
  153.6352  135.0201  161.2061 C   0  0  0  0  0  0  0  0  0  0  0  0
  153.6126  133.7717  160.3190 C   0  0  0  0  0  0  0  0  0  0  0  0
  154.9766  133.7846  159.6312 C   0  0  0  0  0  0  0  0  0  0  0  0
  155.2980  135.2822  159.4977 C   0  0  1  0  0  0  0  0  0  0  0  0
  154.6448  135.8665  158.2352 C   0  0  0  0  0  0  0  0  0  0  0  0
  155.8039  135.9269  157.2480 C   0  0  0  0  0  0  0  0  0  0  0  0
  156.9014  136.2805  158.0717 O   0  0  0  0  0  0  0  0  0  0  0  0
  156.8092  135.5159  159.2671 C   0  0  0  0  0  0  0  0  0  0  0  0
  155.3126  137.4191  162.3973 N   0  0  0  0  0  0  0  0  0  0  0  0
  155.4217  138.6785  162.8257 C   0  0  0  0  0  0  0  0  0  0  0  0
  155.1289  139.8050  162.1779 N   0  0  0  0  0  0  0  0  0  0  0  0
  154.6619  139.5431  160.9245 C   0  0  0  0  0  0  0  0  0  0  0  0
  152.0777  142.3189  158.7311 C   0  0  0  0  0  0  0  0  0  0  0  0
  150.7567  143.1038  158.6330 C   0  0  0  0  0  0  0  0  0  0  0  0
  151.0056  144.4935  158.8058 O   0  0  0  0  0  0  0  0  0  0  0  0
  151.5567  144.8072  160.0788 C   0  0  0  0  0  0  0  0  0  0  0  0
  152.9111  144.0951  160.2562 C   0  0  0  0  0  0  0  0  0  0  0  0
  152.6784  141.5339  163.0438 H   0  0  0  0  0  0  0  0  0  0  0  0
  152.0081  140.8549  161.2321 H   0  0  0  0  0  0  0  0  0  0  0  0
  150.9873  142.2654  161.2401 H   0  0  0  0  0  0  0  0  0  0  0  0
  154.8168  142.3077  159.2343 H   0  0  0  0  0  0  0  0  0  0  0  0
  154.7805  142.1804  160.9677 H   0  0  0  0  0  0  0  0  0  0  0  0
  153.4664  140.1271  157.9821 H   0  0  0  0  0  0  0  0  0  0  0  0
  153.8060  134.7299  162.2431 H   0  0  0  0  0  0  0  0  0  0  0  0
  152.6908  135.5629  161.1503 H   0  0  0  0  0  0  0  0  0  0  0  0
  153.4352  132.8566  160.8842 H   0  0  0  0  0  0  0  0  0  0  0  0
  152.8197  133.8626  159.5757 H   0  0  0  0  0  0  0  0  0  0  0  0
  155.7058  133.2999  160.2829 H   0  0  0  0  0  0  0  0  0  0  0  0
  154.9791  133.2511  158.6799 H   0  0  0  0  0  0  0  0  0  0  0  0
  153.8101  135.2773  157.8547 H   0  0  0  0  0  0  0  0  0  0  0  0
  154.2679  136.8748  158.4031 H   0  0  0  0  0  0  0  0  0  0  0  0
  155.9837  134.9519  156.7925 H   0  0  0  0  0  0  0  0  0  0  0  0
  155.6438  136.6566  156.4542 H   0  0  0  0  0  0  0  0  0  0  0  0
  157.3103  136.0181  160.0947 H   0  0  0  0  0  0  0  0  0  0  0  0
  157.3327  134.5727  159.1039 H   0  0  0  0  0  0  0  0  0  0  0  0
  155.7974  138.7988  163.8311 H   0  0  0  0  0  0  0  0  0  0  0  0
  152.7046  142.6398  157.9003 H   0  0  0  0  0  0  0  0  0  0  0  0
  151.8931  141.2561  158.5725 H   0  0  0  0  0  0  0  0  0  0  0  0
  150.3104  142.9527  157.6500 H   0  0  0  0  0  0  0  0  0  0  0  0
  150.0245  142.7560  159.3619 H   0  0  0  0  0  0  0  0  0  0  0  0
  151.6985  145.8867  160.1355 H   0  0  0  0  0  0  0  0  0  0  0  0
  150.8534  144.5491  160.8706 H   0  0  0  0  0  0  0  0  0  0  0  0
  153.3375  144.3379  161.2302 H   0  0  0  0  0  0  0  0  0  0  0  0
  153.5864  144.5208  159.5150 H   0  0  0  0  0  0  0  0  0  0  0  0
  1  2  1  0  0  0  0
  1 28  1  0  0  0  0
  2  3  1  0  0  0  0
  2 29  1  0  0  0  0
  2 30  1  0  0  0  0
  3 27  1  0  0  0  0
  3  4  1  0  0  0  0
  3 23  1  0  0  0  0
  4  5  1  0  0  0  0
  4 31  1  0  0  0  0
  4 32  1  0  0  0  0
  5 22  1  0  0  0  0
  5  6  1  0  0  0  0
  6  7  2  0  0  0  0
  6 33  1  0  0  0  0
  7  8  1  0  0  0  0
  8 22  2  0  0  0  0
  8  9  1  0  0  0  0
  9 10  1  0  0  0  0
  9 19  2  0  0  0  0
 10 14  1  0  0  0  0
 10 11  1  0  0  0  0
 11 12  1  0  0  0  0
 11 34  1  0  0  0  0
 11 35  1  0  0  0  0
 12 13  1  0  0  0  0
 12 36  1  0  0  0  0
 12 37  1  0  0  0  0
 13 14  1  0  0  0  0
 13 38  1  0  0  0  0
 13 39  1  0  0  0  0
 14 18  1  0  0  0  0
 14 15  1  0  0  0  0
 15 16  1  0  0  0  0
 15 40  1  0  0  0  0
 15 41  1  0  0  0  0
 16 17  1  0  0  0  0
 16 42  1  0  0  0  0
 16 43  1  0  0  0  0
 17 18  1  0  0  0  0
 18 44  1  0  0  0  0
 18 45  1  0  0  0  0
 19 20  1  0  0  0  0
 20 21  2  0  0  0  0
 20 46  1  0  0  0  0
 21 22  1  0  0  0  0
 23 24  1  0  0  0  0
 23 47  1  0  0  0  0
 23 48  1  0  0  0  0
 24 25  1  0  0  0  0
 24 49  1  0  0  0  0
 24 50  1  0  0  0  0
 25 26  1  0  0  0  0
 26 27  1  0  0  0  0
 26 51  1  0  0  0  0
 26 52  1  0  0  0  0
 27 53  1  0  0  0  0
 27 54  1  0  0  0  0
M  END
> <s_m_source_file>
AV-unprocessed.smi

> <i_m_source_file_index>
190

> <i_lp_mmshare_version>
43012

> <i_f3d_flags>
0

> <s_epik_input>
W0NIMl0xW0NIMl1PW0NIMl1bQ0gyXUMxKFtDSDJdW09IXSlbQ0gyXW4oW2NIXW4yKWMoYzIzKW5bY0hdbmMzTihbQ0gyXVtDSDJdW0NIMl00KVtDQF00NVtDSDJdW0NIMl1PW0NIMl01

> <s_epik_cmdline>
J2VwaWtfcHl0aG9uJywgJy1waCcsICc3LjAnLCAnLXRuJywgJzgnLCAnLW1hJywgJzIwMCcsICctbWV0YWxfYmluZGluZycsICctaW1hZScsICc8aW5maWxlLm1hZT4nLCAnLW9tYWUnLCAnPG91dGZpbGUubWFlPic=

> <r_lp_tautomer_probability>
1

> <r_epik_Ionization_Penalty>
0.00423054

> <r_epik_Ionization_Penalty_Charging>
0

> <r_epik_Ionization_Penalty_Neutral>
0.00423054

> <r_epik_State_Penalty>
0.00298851

> <r_epik_Charging_Adjusted_Penalty>
0.00298851

> <i_epik_Tot_Q>
0

> <i_epik_Tot_abs_Q>
0

> <r_epik_Metal_State_Penalty>
-0

> <b_epik_Metal_Only>
0

> <s_lp_Force_Field>
OPLS_2005

> <r_lp_Energy>
66.7697

> <b_lp_Chiralities_Consistent>
1

> <s_lp_Variant>
AV-unprocessed.smi:190-1

> <Gold.Version>
5.8.1

> <Gold.Id.Protein>
6NUR|6NUR_protein|mol2

> <Gold.PLP.Fitness>
44.6555

> <Gold.PLP.PLP>
-47.0164

> <Gold.PLP.part.hbond>
-0.7595

> <Gold.PLP.part.metal>
0.0000

> <Gold.PLP.part.buried>
-4.2588

> <Gold.PLP.part.nonpolar>
-41.4428

> <Gold.PLP.part.repulsive>
0.1651

> <Gold.PLP.ligand.clash>
0.0000

> <Gold.PLP.ligand.torsion>
1.2709

> <Gold.PLP.Chemscore.Hbond>
0.0000

> <Gold.PLP.Chemscore.CHOScore>
0.0000

> <Gold.PLP.Chemscore.Metal>
0.0000

> <Gold.PLP.Chemscore.Internal.Correction>
0.1809

> <Gold.Rescore>
     Score         DG    S(hbond)    S(metal)    S(lipo)     H(rot)  DE(clash)    DE(int)     intcor
      8.34     -13.99       0.00        0.00     118.64       2.10       2.20       3.45       ----

> <Gold.Chemscore.Fitness>
8.3419

> <Gold.Chemscore.DG>
-13.9902

> <Gold.Chemscore.ZeroCoef>
-5.4800

> <Gold.Chemscore.Hbond>
0.0000

> <Gold.Chemscore.Metal>
0.0000

> <Gold.Chemscore.Lipo>
118.6367

> <Gold.Chemscore.Internal_Hbond>
0.0000

> <Gold.Chemscore.DEClash>
2.1993

> <Gold.Chemscore.DEInternal>
3.4490

> <Gold.Chemscore.Rot>
2.0978

> <Gold.Chemscore.Internal.Correction>
   9.000000E+99

> <Gold.Chemscore.Hbond.Weighted>
-0.0000

> <Gold.Chemscore.Metal.Weighted>
-0.0000

> <Gold.Chemscore.Lipo.Weighted>
-13.8805

> <Gold.Chemscore.Internal_Hbond.Weighted>
0.0000

> <Gold.Chemscore.DEClash.Weighted>
2.1993

> <Gold.Chemscore.DEInternal.Weighted>
3.4490

> <Gold.Chemscore.Rot.Weighted>
5.3703

> <Gold.Chemscore.Internal.Correction.Weighted>
   9.000000E+99

> <Gold.Protein.RotatedTorsions>
[ 6907 6896 6895 6894 ] final  -56.58 input  -60.11 | X-H torsion
[ 7974 7965 7964 7962 ] final   97.42 input  175.53 | X-H torsion
[ 8008 7997 7996 7995 ] final   56.65 input   59.86 | X-H torsion
[ 10167 10162 10161 10158 ] final  142.91 input  -65.29 | X-H torsion
[ 10718 10713 10712 10709 ] final  131.70 input   66.30 | X-H torsion
[ 10763 10752 10751 10750 ] final  -86.04 input  -60.55 | X-H torsion
[ 11005 11000 10999 10996 ] final  128.66 input  -57.11 | X-H torsion

> <Gold.Protein.ActiveResidues>
 VAL166  LYS551  ARG553  GLY616  TRP617  ASP618  TYR619  PRO620  LYS621  CYS622 
 ASP623  PHE694  ASN695  SER759  ASP760  ASP761  ALA762  ILE779  LEU786  VAL792 
 PHE793  MET794  SER795  GLU796  ALA797  LYS798  CYS799  TRP800  GLU811  SER814 

> <Gold.Protein.RotatedAtoms>
  150.8156  134.7336  159.6726 H   0  0  0  0  0  0  0  0  0  0  0  0  # atno 6907 bound_to 6896
  152.4274  134.5838  159.9965 H   0  0  0  0  0  0  0  0  0  0  0  0  # atno 6908 bound_to 6896
  151.6036  133.3316  159.3088 H   0  0  0  0  0  0  0  0  0  0  0  0  # atno 6909 bound_to 6896
  145.4257  139.2316  143.3172 H   0  0  0  0  0  0  0  0  0  0  0  0  # atno 7974 bound_to 7965
  155.5209  140.3479  155.4407 H   0  0  0  0  0  0  0  0  0  0  0  0  # atno 8008 bound_to 7997
  156.0785  140.1380  156.9769 H   0  0  0  0  0  0  0  0  0  0  0  0  # atno 8009 bound_to 7997
  154.4566  140.0951  156.6751 H   0  0  0  0  0  0  0  0  0  0  0  0  # atno 8010 bound_to 7997
  139.4982  144.6076  151.6345 H   0  0  0  0  0  0  0  0  0  0  0  0  # atno 10167 bound_to 10162
  157.4942  131.1092  150.9515 H   0  0  0  0  0  0  0  0  0  0  0  0  # atno 10718 bound_to 10713
  154.6180  135.5463  153.7544 H   0  0  0  0  0  0  0  0  0  0  0  0  # atno 10763 bound_to 10752
  153.0225  135.6405  154.1482 H   0  0  0  0  0  0  0  0  0  0  0  0  # atno 10764 bound_to 10752
  154.1418  135.2908  155.3139 H   0  0  0  0  0  0  0  0  0  0  0  0  # atno 10765 bound_to 10752
  139.9573  134.9610  156.9035 H   0  0  0  0  0  0  0  0  0  0  0  0  # atno 11005 bound_to 11000
  146.2633  140.4987  142.8844 LP  0  0  0  0  0  0  0  0  0  0  0  0  # atno 17320 bound_to 7965
  144.8216  140.6559  143.6349 LP  0  0  0  0  0  0  0  0  0  0  0  0  # atno 17321 bound_to 7965
  140.5741  144.0058  150.6232 LP  0  0  0  0  0  0  0  0  0  0  0  0  # atno 17342 bound_to 10162
  140.3185  143.3152  152.0807 LP  0  0  0  0  0  0  0  0  0  0  0  0  # atno 17343 bound_to 10162
  157.0207  130.5673  149.5331 LP  0  0  0  0  0  0  0  0  0  0  0  0  # atno 17370 bound_to 10713
  156.0191  130.5285  150.8222 LP  0  0  0  0  0  0  0  0  0  0  0  0  # atno 17371 bound_to 10713
  140.5580  134.0562  155.7390 LP  0  0  0  0  0  0  0  0  0  0  0  0  # atno 17394 bound_to 11000
  141.1246  133.9404  157.2661 LP  0  0  0  0  0  0  0  0  0  0  0  0  # atno 17395 bound_to 11000

$$$$
