AV-unprocessed.smi:3293|AV-procd|sdf|12632|dock1
  -GOLD-   2272018563D 1   1.00000     0.00000
 Structure written by MMmdl.
 44 45  0  0  0  0  0  0  0  0  2 V2000
  152.1422  138.4452  154.5192 C   0  0  0  0  0  0  0  0  0  0  0  0
  151.1411  139.3544  155.2128 C   0  0  0  0  0  0  0  0  0  0  0  0
  151.3520  139.7770  156.4750 C   0  0  0  0  0  0  0  0  0  0  0  0
  150.4454  140.7311  157.2332 C   0  0  0  0  0  0  0  0  0  0  0  0
  149.1419  141.0536  156.4834 C   0  0  0  0  0  0  0  0  0  0  0  0
  149.3701  141.1461  154.9646 C   0  0  2  0  0  0  0  0  0  0  0  0
  148.1339  141.6879  154.2263 C   0  0  0  0  0  0  0  0  0  0  0  0
  149.9198  139.8052  154.4008 C   0  0  2  0  0  0  0  0  0  0  0  0
  148.8363  138.6989  154.3057 C   0  0  0  0  0  0  0  0  0  0  0  0
  148.2834  138.5481  152.9454 N   0  3  0  0  0  0  0  0  0  0  0  0
  146.8466  138.8674  152.8399 C   0  0  0  0  0  0  0  0  0  0  0  0
  146.1795  138.0497  151.7265 C   0  0  0  0  0  0  0  0  0  0  0  0
  145.4085  136.8866  152.2851 C   0  0  0  0  0  0  0  0  0  0  0  0
  145.9233  135.7097  152.9005 C   0  0  0  0  0  0  0  0  0  0  0  0
  144.9735  134.8761  153.2914 N   0  0  0  0  0  0  0  0  0  0  0  0
  143.8237  135.4863  152.9380 N   0  0  0  0  0  0  0  0  0  0  0  0
  142.5580  134.8424  153.2181 C   0  0  0  0  0  0  0  0  0  0  0  0
  144.0552  136.7009  152.3294 C   0  0  0  0  0  0  0  0  0  0  0  0
  152.3839  138.8276  153.5273 H   0  0  0  0  0  0  0  0  0  0  0  0
  151.7590  137.4312  154.4198 H   0  0  0  0  0  0  0  0  0  0  0  0
  153.0730  138.3851  155.0844 H   0  0  0  0  0  0  0  0  0  0  0  0
  152.2381  139.4567  157.0039 H   0  0  0  0  0  0  0  0  0  0  0  0
  150.2204  140.3167  158.2161 H   0  0  0  0  0  0  0  0  0  0  0  0
  151.0083  141.6500  157.4007 H   0  0  0  0  0  0  0  0  0  0  0  0
  148.3957  140.2884  156.6981 H   0  0  0  0  0  0  0  0  0  0  0  0
  148.7303  141.9889  156.8649 H   0  0  0  0  0  0  0  0  0  0  0  0
  150.1523  141.8917  154.8096 H   0  0  0  0  0  0  0  0  0  0  0  0
  147.2417  141.0972  154.4336 H   0  0  0  0  0  0  0  0  0  0  0  0
  148.2916  141.7001  153.1475 H   0  0  0  0  0  0  0  0  0  0  0  0
  147.9176  142.7110  154.5359 H   0  0  0  0  0  0  0  0  0  0  0  0
  150.2686  140.0164  153.3887 H   0  0  0  0  0  0  0  0  0  0  0  0
  149.2437  137.7408  154.6306 H   0  0  0  0  0  0  0  0  0  0  0  0
  147.9974  138.9267  154.9619 H   0  0  0  0  0  0  0  0  0  0  0  0
  148.7944  139.1577  152.3230 H   0  0  0  0  0  0  0  0  0  0  0  0
  146.3618  138.6628  153.7957 H   0  0  0  0  0  0  0  0  0  0  0  0
  146.7305  139.9335  152.6399 H   0  0  0  0  0  0  0  0  0  0  0  0
  145.5220  138.6984  151.1463 H   0  0  0  0  0  0  0  0  0  0  0  0
  146.9418  137.6998  151.0290 H   0  0  0  0  0  0  0  0  0  0  0  0
  146.9543  135.4391  153.0759 H   0  0  0  0  0  0  0  0  0  0  0  0
  141.7358  135.4581  152.8521 H   0  0  0  0  0  0  0  0  0  0  0  0
  142.4443  134.7028  154.2936 H   0  0  0  0  0  0  0  0  0  0  0  0
  142.5197  133.8714  152.7233 H   0  0  0  0  0  0  0  0  0  0  0  0
  143.2457  137.3266  151.9827 H   0  0  0  0  0  0  0  0  0  0  0  0
  148.4228  137.5927  152.6481 H   0  0  0  0  0  0  0  0  0  0  0  0
  1  2  1  0  0  0  0
  1 19  1  0  0  0  0
  1 20  1  0  0  0  0
  1 21  1  0  0  0  0
  2  8  1  0  0  0  0
  2  3  2  0  0  0  0
  3  4  1  0  0  0  0
  3 22  1  0  0  0  0
  4  5  1  0  0  0  0
  4 23  1  0  0  0  0
  4 24  1  0  0  0  0
  5  6  1  0  0  0  0
  5 25  1  0  0  0  0
  5 26  1  0  0  0  0
  6  7  1  0  0  0  0
  6  8  1  0  0  0  0
  6 27  1  0  0  0  0
  7 28  1  0  0  0  0
  7 29  1  0  0  0  0
  7 30  1  0  0  0  0
  8  9  1  0  0  0  0
  8 31  1  0  0  0  0
  9 10  1  0  0  0  0
  9 32  1  0  0  0  0
  9 33  1  0  0  0  0
 10 11  1  0  0  0  0
 10 34  1  0  0  0  0
 10 44  1  0  0  0  0
 11 12  1  0  0  0  0
 11 35  1  0  0  0  0
 11 36  1  0  0  0  0
 12 13  1  0  0  0  0
 12 37  1  0  0  0  0
 12 38  1  0  0  0  0
 13 18  2  0  0  0  0
 13 14  1  0  0  0  0
 14 15  2  0  0  0  0
 14 39  1  0  0  0  0
 15 16  1  0  0  0  0
 16 17  1  0  0  0  0
 16 18  1  0  0  0  0
 17 40  1  0  0  0  0
 17 41  1  0  0  0  0
 17 42  1  0  0  0  0
 18 43  1  0  0  0  0
M  CHG  1  10   1
M  END
> <s_m_source_file>
AV-unprocessed.smi

> <i_m_source_file_index>
3293

> <i_lp_mmshare_version>
43012

> <i_f3d_flags>
0

> <s_epik_input>
W0NIM11DMT1bQ0hdW0NIMl1bQ0gyXVtDQEBIXShbQ0gzXSlbQ0BIXTFbQ0gyXVtOSF1bQ0gyXVtDSDJdYzJbY0hdbm4oW0NIM10pW2NIXTI=

> <s_epik_cmdline>
J2VwaWtfcHl0aG9uJywgJy1waCcsICc3LjAnLCAnLXRuJywgJzgnLCAnLW1hJywgJzIwMCcsICctbWV0YWxfYmluZGluZycsICctaW1hZScsICc8aW5maWxlLm1hZT4nLCAnLW9tYWUnLCAnPG91dGZpbGUubWFlPic=

> <r_lp_tautomer_probability>
1

> <r_epik_Ionization_Penalty>
0.000598621

> <r_epik_Ionization_Penalty_Charging>
0.000582095

> <r_epik_Ionization_Penalty_Neutral>
1.65262e-05

> <r_epik_State_Penalty>
-0

> <r_epik_Charging_Adjusted_Penalty>
0.000582095

> <i_epik_Tot_Q>
1

> <i_epik_Tot_abs_Q>
1

> <r_epik_Metal_State_Penalty>
-0

> <b_epik_Metal_Only>
0

> <s_lp_Force_Field>
OPLS_2005

> <r_lp_Energy>
11.2905

> <b_lp_Chiralities_Consistent>
1

> <s_lp_Variant>
AV-unprocessed.smi:3293-4

> <Gold.Version>
5.8.1

> <Gold.Id.Protein>
6NUR|6NUR_protein|mol2

> <Gold.PLP.Fitness>
47.3863

> <Gold.PLP.PLP>
-36.5934

> <Gold.PLP.part.hbond>
-2.0000

> <Gold.PLP.part.metal>
0.0000

> <Gold.PLP.part.buried>
-0.6972

> <Gold.PLP.part.nonpolar>
-34.7028

> <Gold.PLP.part.repulsive>
0.1341

> <Gold.PLP.ligand.clash>
0.0000

> <Gold.PLP.ligand.torsion>
1.5327

> <Gold.PLP.Chemscore.Hbond>
3.0000

> <Gold.PLP.Chemscore.CHOScore>
1.6120

> <Gold.PLP.Chemscore.Metal>
0.0000

> <Gold.Chemscore.Hbonds>
donor molecule, donor type, donor heavy atom, donor atom, acceptor molecule, acceptor atom, score
      L1  H    10    34       P1  7957  1.00
      L1  H    10    44       P1  7948  2.00
      L1  C    14    39       P1  7948  0.96
      L1  C    18    43       P1 10171  0.59

> <Gold.PLP.Chemscore.Internal.Correction>
0.0222

> <Gold.Rescore>
     Score         DG    S(hbond)    S(metal)    S(lipo)     H(rot)  DE(clash)    DE(int)     intcor
     17.43     -19.08       1.99        0.00      91.82       1.48       0.13       1.51       ----

> <Gold.Chemscore.Fitness>
17.4346

> <Gold.Chemscore.DG>
-19.0780

> <Gold.Chemscore.ZeroCoef>
-5.4800

> <Gold.Chemscore.Hbond>
1.9929

> <Gold.Chemscore.Metal>
0.0000

> <Gold.Chemscore.Lipo>
91.8177

> <Gold.Chemscore.Internal_Hbond>
0.0000

> <Gold.Chemscore.DEClash>
0.1330

> <Gold.Chemscore.DEInternal>
1.5105

> <Gold.Chemscore.Rot>
1.4847

> <Gold.Chemscore.Internal.Correction>
   9.000000E+99

> <Gold.Chemscore.Hbonds>
donor molecule, donor type, donor heavy atom, donor atom, acceptor molecule, acceptor atom, score
      L1  H    10    34       P1  7957  1.00
      L1  H    10    44       P1  7948  0.99

> <Gold.Chemscore.Hbond.Weighted>
-6.6562

> <Gold.Chemscore.Metal.Weighted>
-0.0000

> <Gold.Chemscore.Lipo.Weighted>
-10.7427

> <Gold.Chemscore.Internal_Hbond.Weighted>
0.0000

> <Gold.Chemscore.DEClash.Weighted>
0.1330

> <Gold.Chemscore.DEInternal.Weighted>
1.5105

> <Gold.Chemscore.Rot.Weighted>
3.8008

> <Gold.Chemscore.Internal.Correction.Weighted>
   9.000000E+99

> <Gold.Protein.RotatedTorsions>
[ 6907 6896 6895 6894 ] final   50.93 input  -60.11 | X-H torsion
[ 7974 7965 7964 7962 ] final   77.52 input  175.53 | X-H torsion
[ 8008 7997 7996 7995 ] final  -19.24 input   59.86 | X-H torsion
[ 10167 10162 10161 10158 ] final   -3.91 input  -65.29 | X-H torsion
[ 10718 10713 10712 10709 ] final  168.36 input   66.30 | X-H torsion
[ 10763 10752 10751 10750 ] final  -26.55 input  -60.55 | X-H torsion
[ 11005 11000 10999 10996 ] final  -17.70 input  -57.11 | X-H torsion

> <Gold.Protein.ActiveResidues>
 VAL166  LYS551  ARG553  GLY616  TRP617  ASP618  TYR619  PRO620  LYS621  CYS622 
 ASP623  PHE694  ASN695  SER759  ASP760  ASP761  ALA762  ILE779  LEU786  VAL792 
 PHE793  MET794  SER795  GLU796  ALA797  LYS798  CYS799  TRP800  GLU811  SER814 

> <Gold.Protein.RotatedAtoms>
  152.3071  134.7542  160.0344 H   0  0  0  0  0  0  0  0  0  0  0  0  # atno 6907 bound_to 6896
  151.8035  133.3367  159.3542 H   0  0  0  0  0  0  0  0  0  0  0  0  # atno 6908 bound_to 6896
  150.7302  134.5661  159.5911 H   0  0  0  0  0  0  0  0  0  0  0  0  # atno 6909 bound_to 6896
  145.6890  139.2546  143.1770 H   0  0  0  0  0  0  0  0  0  0  0  0  # atno 7974 bound_to 7965
  154.4850  140.2094  155.9676 H   0  0  0  0  0  0  0  0  0  0  0  0  # atno 8008 bound_to 7997
  156.1223  140.3211  155.8195 H   0  0  0  0  0  0  0  0  0  0  0  0  # atno 8009 bound_to 7997
  155.4446  140.0512  157.2998 H   0  0  0  0  0  0  0  0  0  0  0  0  # atno 8010 bound_to 7997
  140.6908  143.6485  150.8371 H   0  0  0  0  0  0  0  0  0  0  0  0  # atno 10167 bound_to 10162
  157.0382  131.0279  151.2722 H   0  0  0  0  0  0  0  0  0  0  0  0  # atno 10718 bound_to 10713
  153.7178  135.6947  153.5020 H   0  0  0  0  0  0  0  0  0  0  0  0  # atno 10763 bound_to 10752
  153.2226  135.4365  155.0505 H   0  0  0  0  0  0  0  0  0  0  0  0  # atno 10764 bound_to 10752
  154.8294  135.3464  154.6712 H   0  0  0  0  0  0  0  0  0  0  0  0  # atno 10765 bound_to 10752
  140.8194  133.8079  155.9644 H   0  0  0  0  0  0  0  0  0  0  0  0  # atno 11005 bound_to 11000
  146.0898  140.7669  142.9601 LP  0  0  0  0  0  0  0  0  0  0  0  0  # atno 17320 bound_to 7965
  144.7002  140.3619  143.7162 LP  0  0  0  0  0  0  0  0  0  0  0  0  # atno 17321 bound_to 7965
  140.0197  143.5555  152.2805 LP  0  0  0  0  0  0  0  0  0  0  0  0  # atno 17342 bound_to 10162
  139.6309  144.7644  151.2539 LP  0  0  0  0  0  0  0  0  0  0  0  0  # atno 17343 bound_to 10162
  157.5125  130.7947  149.7720 LP  0  0  0  0  0  0  0  0  0  0  0  0  # atno 17370 bound_to 10713
  156.0047  130.3862  150.2476 LP  0  0  0  0  0  0  0  0  0  0  0  0  # atno 17371 bound_to 10713
  140.9114  134.2255  157.4983 LP  0  0  0  0  0  0  0  0  0  0  0  0  # atno 17394 bound_to 11000
  139.8709  134.9752  156.4874 LP  0  0  0  0  0  0  0  0  0  0  0  0  # atno 17395 bound_to 11000

$$$$
