AV-unprocessed.smi:1898|AV-procd|sdf|7701|dock1
  -GOLD-   22720 9433D 1   1.00000     0.00000
 Structure written by MMmdl.
 47 48  0  0  0  0  0  0  0  0  2 V2000
  151.4997  141.8587  159.1334 C   0  0  0  0  0  0  0  0  0  0  0  0
  151.4867  140.4037  159.1484 N   0  0  0  0  0  0  0  0  0  0  0  0
  151.9495  139.6362  158.1518 C   0  0  0  0  0  0  0  0  0  0  0  0
  152.4282  140.0949  157.1140 O   0  0  0  0  0  0  0  0  0  0  0  0
  151.8371  138.1215  158.3554 C   0  0  0  0  0  0  0  0  0  0  0  0
  151.0788  137.4453  157.2717 N   0  3  2  0  0  0  0  0  0  0  0  0
  150.8497  136.0045  157.5489 C   0  0  0  0  0  0  0  0  0  0  0  0
  149.9269  135.3789  156.4899 C   0  0  0  0  0  0  0  0  0  0  0  0
  150.4950  135.5706  155.0747 C   0  0  1  0  0  0  0  0  0  0  0  0
  149.5546  135.0501  154.0869 N   0  0  0  0  0  0  0  0  0  0  0  0
  149.0178  133.8218  154.1043 C   0  0  0  0  0  0  0  0  0  0  0  0
  149.2612  132.9905  154.9780 O   0  0  0  0  0  0  0  0  0  0  0  0
  148.1913  133.6425  153.0597 N   0  0  0  0  0  0  0  0  0  0  0  0
  147.4049  132.5073  152.7139 C   0  0  0  0  0  0  0  0  0  0  0  0
  147.6235  131.2023  153.2204 C   0  0  0  0  0  0  0  0  0  0  0  0
  146.7845  130.1552  152.7963 C   0  0  0  0  0  0  0  0  0  0  0  0
  145.7616  130.4462  151.8760 C   0  0  0  0  0  0  0  0  0  0  0  0
  145.5481  131.6802  151.3757 N   0  0  0  0  0  0  0  0  0  0  0  0
  146.3552  132.6916  151.7834 C   0  0  0  0  0  0  0  0  0  0  0  0
  146.1378  133.9544  151.2653 O   0  0  0  0  0  0  0  0  0  0  0  0
  144.9767  134.1735  150.4715 C   0  0  0  0  0  0  0  0  0  0  0  0
  150.7725  137.0641  154.8259 C   0  0  0  0  0  0  0  0  0  0  0  0
  151.6729  137.6530  155.9240 C   0  0  0  0  0  0  0  0  0  0  0  0
  151.0630  142.2439  160.0549 H   0  0  0  0  0  0  0  0  0  0  0  0
  150.9197  142.2448  158.2941 H   0  0  0  0  0  0  0  0  0  0  0  0
  152.5198  142.2371  159.0555 H   0  0  0  0  0  0  0  0  0  0  0  0
  151.1007  139.9548  159.9668 H   0  0  0  0  0  0  0  0  0  0  0  0
  152.8272  137.6739  158.4569 H   0  0  0  0  0  0  0  0  0  0  0  0
  151.3271  137.9737  159.3083 H   0  0  0  0  0  0  0  0  0  0  0  0
  151.8064  135.4802  157.5747 H   0  0  0  0  0  0  0  0  0  0  0  0
  150.3946  135.8844  158.5328 H   0  0  0  0  0  0  0  0  0  0  0  0
  149.7935  134.3168  156.6991 H   0  0  0  0  0  0  0  0  0  0  0  0
  148.9378  135.8346  156.5593 H   0  0  0  0  0  0  0  0  0  0  0  0
  151.4343  135.0180  155.0080 H   0  0  0  0  0  0  0  0  0  0  0  0
  149.2943  135.6695  153.3332 H   0  0  0  0  0  0  0  0  0  0  0  0
  148.0645  134.4431  152.4575 H   0  0  0  0  0  0  0  0  0  0  0  0
  148.4177  130.9744  153.9128 H   0  0  0  0  0  0  0  0  0  0  0  0
  146.9254  129.1504  153.1662 H   0  0  0  0  0  0  0  0  0  0  0  0
  145.1000  129.6666  151.5285 H   0  0  0  0  0  0  0  0  0  0  0  0
  144.9585  135.2113  150.1397 H   0  0  0  0  0  0  0  0  0  0  0  0
  144.0640  133.9919  151.0407 H   0  0  0  0  0  0  0  0  0  0  0  0
  144.9761  133.5421  149.5818 H   0  0  0  0  0  0  0  0  0  0  0  0
  151.2443  137.2023  153.8522 H   0  0  0  0  0  0  0  0  0  0  0  0
  149.8321  137.6169  154.7947 H   0  0  0  0  0  0  0  0  0  0  0  0
  151.8166  138.7172  155.7356 H   0  0  0  0  0  0  0  0  0  0  0  0
  152.6607  137.1909  155.8850 H   0  0  0  0  0  0  0  0  0  0  0  0
  150.1665  137.8796  157.2606 H   0  0  0  0  0  0  0  0  0  0  0  0
  1  2  1  0  0  0  0
  1 24  1  0  0  0  0
  1 25  1  0  0  0  0
  1 26  1  0  0  0  0
  2  3  1  0  0  0  0
  2 27  1  0  0  0  0
  3  4  2  0  0  0  0
  3  5  1  0  0  0  0
  5  6  1  0  0  0  0
  5 28  1  0  0  0  0
  5 29  1  0  0  0  0
  6 23  1  0  0  0  0
  6  7  1  0  0  0  0
  6 47  1  0  0  0  0
  7  8  1  0  0  0  0
  7 30  1  0  0  0  0
  7 31  1  0  0  0  0
  8  9  1  0  0  0  0
  8 32  1  0  0  0  0
  8 33  1  0  0  0  0
  9 10  1  0  0  0  0
  9 22  1  0  0  0  0
  9 34  1  0  0  0  0
 10 11  1  0  0  0  0
 10 35  1  0  0  0  0
 11 12  2  0  0  0  0
 11 13  1  0  0  0  0
 13 14  1  0  0  0  0
 13 36  1  0  0  0  0
 14 19  1  0  0  0  0
 14 15  2  0  0  0  0
 15 16  1  0  0  0  0
 15 37  1  0  0  0  0
 16 17  2  0  0  0  0
 16 38  1  0  0  0  0
 17 18  1  0  0  0  0
 17 39  1  0  0  0  0
 18 19  2  0  0  0  0
 19 20  1  0  0  0  0
 20 21  1  0  0  0  0
 21 40  1  0  0  0  0
 21 41  1  0  0  0  0
 21 42  1  0  0  0  0
 22 23  1  0  0  0  0
 22 43  1  0  0  0  0
 22 44  1  0  0  0  0
 23 45  1  0  0  0  0
 23 46  1  0  0  0  0
M  CHG  1   6   1
M  END
> <s_m_source_file>
AV-unprocessed.smi

> <i_m_source_file_index>
1898

> <i_lp_mmshare_version>
43012

> <i_f3d_flags>
0

> <s_epik_input>
W0NIM11bTkhdQyg9TylbQ0gyXU4xW0NIMl1bQ0gyXVtDSF0oW0NIMl1bQ0gyXTEpW05IXUMoPU8pW05IXWMyW2NIXVtjSF1bY0hdbmMyT1tDSDNd

> <s_epik_cmdline>
J2VwaWtfcHl0aG9uJywgJy1waCcsICc3LjAnLCAnLXRuJywgJzgnLCAnLW1hJywgJzIwMCcsICctbWV0YWxfYmluZGluZycsICctaW1hZScsICc8aW5maWxlLm1hZT4nLCAnLW9tYWUnLCAnPG91dGZpbGUubWFlPic=

> <r_lp_tautomer_probability>
1

> <r_epik_Ionization_Penalty>
0.838943

> <r_epik_Ionization_Penalty_Charging>
0.838844

> <r_epik_Ionization_Penalty_Neutral>
9.87395e-05

> <r_epik_State_Penalty>
0.8734

> <r_epik_Charging_Adjusted_Penalty>
1.71224

> <i_epik_Tot_Q>
1

> <i_epik_Tot_abs_Q>
1

> <r_epik_Metal_State_Penalty>
0.877926

> <b_epik_Metal_Only>
0

> <s_lp_Force_Field>
OPLS_2005

> <r_lp_Energy>
17.1521

> <b_lp_Chiralities_Consistent>
1

> <s_lp_Variant>
AV-unprocessed.smi:1898-2

> <Gold.Version>
5.8.1

> <Gold.Id.Protein>
6NUR|6NUR_protein|mol2

> <Gold.PLP.Fitness>
36.7844

> <Gold.PLP.PLP>
-28.5868

> <Gold.PLP.part.hbond>
-3.6690

> <Gold.PLP.part.metal>
0.0000

> <Gold.PLP.part.buried>
-0.4587

> <Gold.PLP.part.nonpolar>
-24.0508

> <Gold.PLP.part.repulsive>
0.5928

> <Gold.PLP.ligand.clash>
0.0000

> <Gold.PLP.ligand.torsion>
0.2069

> <Gold.PLP.Chemscore.Hbond>
2.8480

> <Gold.PLP.Chemscore.CHOScore>
0.0000

> <Gold.PLP.Chemscore.Metal>
0.0000

> <Gold.Chemscore.Hbonds>
donor molecule, donor type, donor heavy atom, donor atom, acceptor molecule, acceptor atom, score
      L1  H    10    35       P1  7948  1.00
      L1  H    13    36       P1  7948  0.84
      P1  H  7997  8009       L1     4  1.00

> <Gold.PLP.Chemscore.Internal.Correction>
0.0674

> <Gold.Rescore>
     Score         DG    S(hbond)    S(metal)    S(lipo)     H(rot)  DE(clash)    DE(int)     intcor
     11.94     -15.97       2.32        0.00      67.15       2.00       0.30       3.74       ----

> <Gold.Chemscore.Fitness>
11.9363

> <Gold.Chemscore.DG>
-15.9744

> <Gold.Chemscore.ZeroCoef>
-5.4800

> <Gold.Chemscore.Hbond>
2.3198

> <Gold.Chemscore.Metal>
0.0000

> <Gold.Chemscore.Lipo>
67.1509

> <Gold.Chemscore.Internal_Hbond>
0.0000

> <Gold.Chemscore.DEClash>
0.3029

> <Gold.Chemscore.DEInternal>
3.7353

> <Gold.Chemscore.Rot>
1.9963

> <Gold.Chemscore.Internal.Correction>
   9.000000E+99

> <Gold.Chemscore.Hbonds>
donor molecule, donor type, donor heavy atom, donor atom, acceptor molecule, acceptor atom, score
      L1  H    10    35       P1  7948  0.38
      L1  H    13    36       P1  7948  0.24
      P1  H  7997  8009       L1     4  0.94

> <Gold.Chemscore.Hbond.Weighted>
-7.7483

> <Gold.Chemscore.Metal.Weighted>
-0.0000

> <Gold.Chemscore.Lipo.Weighted>
-7.8567

> <Gold.Chemscore.Internal_Hbond.Weighted>
0.0000

> <Gold.Chemscore.DEClash.Weighted>
0.3029

> <Gold.Chemscore.DEInternal.Weighted>
3.7353

> <Gold.Chemscore.Rot.Weighted>
5.1105

> <Gold.Chemscore.Internal.Correction.Weighted>
   9.000000E+99

> <Gold.Protein.RotatedTorsions>
[ 6907 6896 6895 6894 ] final  136.49 input  -60.11 | X-H torsion
[ 7974 7965 7964 7962 ] final   61.80 input  175.53 | X-H torsion
[ 8008 7997 7996 7995 ] final  177.58 input   59.86 | X-H torsion
[ 10167 10162 10161 10158 ] final  101.01 input  -65.29 | X-H torsion
[ 10718 10713 10712 10709 ] final -103.90 input   66.30 | X-H torsion
[ 10763 10752 10751 10750 ] final  -43.26 input  -60.55 | X-H torsion
[ 11005 11000 10999 10996 ] final  140.10 input  -57.11 | X-H torsion

> <Gold.Protein.ActiveResidues>
 VAL166  LYS551  ARG553  GLY616  TRP617  ASP618  TYR619  PRO620  LYS621  CYS622 
 ASP623  PHE694  ASN695  SER759  ASP760  ASP761  ALA762  ILE779  LEU786  VAL792 
 PHE793  MET794  SER795  GLU796  ALA797  LYS798  CYS799  TRP800  GLU811  SER814 

> <Gold.Protein.RotatedAtoms>
  152.2888  133.5541  159.5543 H   0  0  0  0  0  0  0  0  0  0  0  0  # atno 6907 bound_to 6896
  150.7226  134.0459  159.3790 H   0  0  0  0  0  0  0  0  0  0  0  0  # atno 6908 bound_to 6896
  151.8366  135.0604  160.0494 H   0  0  0  0  0  0  0  0  0  0  0  0  # atno 6909 bound_to 6896
  145.8807  139.3441  143.0708 H   0  0  0  0  0  0  0  0  0  0  0  0  # atno 7974 bound_to 7965
  156.0641  140.1355  156.9906 H   0  0  0  0  0  0  0  0  0  0  0  0  # atno 8008 bound_to 7997
  154.4497  140.0985  156.6632 H   0  0  0  0  0  0  0  0  0  0  0  0  # atno 8009 bound_to 7997
  155.5331  140.3459  155.4432 H   0  0  0  0  0  0  0  0  0  0  0  0  # atno 8010 bound_to 7997
  139.7476  144.6993  151.0480 H   0  0  0  0  0  0  0  0  0  0  0  0  # atno 10167 bound_to 10162
  156.0283  130.5489  150.7319 H   0  0  0  0  0  0  0  0  0  0  0  0  # atno 10718 bound_to 10713
  153.9926  135.6703  153.4755 H   0  0  0  0  0  0  0  0  0  0  0  0  # atno 10763 bound_to 10752
  153.0698  135.4980  154.8276 H   0  0  0  0  0  0  0  0  0  0  0  0  # atno 10764 bound_to 10752
  154.7100  135.3095  154.9174 H   0  0  0  0  0  0  0  0  0  0  0  0  # atno 10765 bound_to 10752
  140.0303  134.9355  157.0649 H   0  0  0  0  0  0  0  0  0  0  0  0  # atno 11005 bound_to 11000
  145.9027  140.9232  143.0494 LP  0  0  0  0  0  0  0  0  0  0  0  0  # atno 17320 bound_to 7965
  144.6727  140.1054  143.7458 LP  0  0  0  0  0  0  0  0  0  0  0  0  # atno 17321 bound_to 7965
  140.7794  143.4848  150.9971 LP  0  0  0  0  0  0  0  0  0  0  0  0  # atno 17342 bound_to 10162
  139.8536  143.7406  152.3177 LP  0  0  0  0  0  0  0  0  0  0  0  0  # atno 17343 bound_to 10162
  157.4909  131.0911  151.0428 LP  0  0  0  0  0  0  0  0  0  0  0  0  # atno 17370 bound_to 10713
  157.0835  130.5913  149.5425 LP  0  0  0  0  0  0  0  0  0  0  0  0  # atno 17371 bound_to 10713
  140.4237  134.1853  155.7165 LP  0  0  0  0  0  0  0  0  0  0  0  0  # atno 17394 bound_to 11000
  141.1827  133.8380  157.1200 LP  0  0  0  0  0  0  0  0  0  0  0  0  # atno 17395 bound_to 11000

$$$$
