AV-unprocessed.smi:53|AV-procd|sdf|514|dock10
  -GOLD-   2262016383D 1   1.00000     0.00000
 Structure written by MMmdl.
 30 31  0  0  0  0  0  0  0  0  1 V2000
  150.8793  143.4940  157.5965 N   0  0  0  0  0  0  0  0  0  0  0  0
  151.1832  142.2350  157.2515 C   0  0  0  0  0  0  0  0  0  0  0  0
  150.4826  141.5848  156.1684 C   0  0  0  0  0  0  0  0  0  0  0  0
  150.8495  140.3175  155.8764 C   0  0  0  0  0  0  0  0  0  0  0  0
  151.8694  139.6621  156.5585 N   0  0  0  0  0  0  0  0  0  0  0  0
  152.2654  138.2251  156.2545 C   0  0  1  0  0  0  0  0  0  0  0  0
  151.8462  137.3849  157.2867 O   0  0  0  0  0  0  0  0  0  0  0  0
  150.5584  136.8653  156.9807 C   0  0  2  0  0  0  0  0  0  0  0  0
  150.2791  135.6206  157.8359 C   0  0  0  0  0  0  0  0  0  0  0  0
  150.2703  135.9686  159.2041 O   0  0  0  0  0  0  0  0  0  0  0  0
  150.6849  136.5705  155.4851 C   0  0  1  0  0  0  0  0  0  0  0  0
  149.4140  136.6137  154.8672 O   0  0  0  0  0  0  0  0  0  0  0  0
  151.5758  137.7010  154.9717 C   0  0  2  0  0  0  0  0  0  0  0  0
  152.5127  137.1947  154.0417 O   0  0  0  0  0  0  0  0  0  0  0  0
  152.5066  140.3159  157.6423 C   0  0  0  0  0  0  0  0  0  0  0  0
  153.3690  139.7566  158.3184 O   0  0  0  0  0  0  0  0  0  0  0  0
  152.1248  141.6005  157.9212 N   0  0  0  0  0  0  0  0  0  0  0  0
  153.3567  138.2429  156.2123 H   0  0  0  0  0  0  0  0  0  0  0  0
  149.7957  137.6299  157.1418 H   0  0  0  0  0  0  0  0  0  0  0  0
  151.1530  135.5968  155.3297 H   0  0  0  0  0  0  0  0  0  0  0  0
  150.9851  138.4926  154.5081 H   0  0  0  0  0  0  0  0  0  0  0  0
  151.3670  143.9439  158.3577 H   0  0  0  0  0  0  0  0  0  0  0  0
  150.1573  143.9899  157.0942 H   0  0  0  0  0  0  0  0  0  0  0  0
  149.6966  142.0602  155.5990 H   0  0  0  0  0  0  0  0  0  0  0  0
  150.3109  139.8294  155.0786 H   0  0  0  0  0  0  0  0  0  0  0  0
  149.2965  135.2135  157.5954 H   0  0  0  0  0  0  0  0  0  0  0  0
  151.0117  134.8353  157.6472 H   0  0  0  0  0  0  0  0  0  0  0  0
  150.2065  136.9089  159.2748 H   0  0  0  0  0  0  0  0  0  0  0  0
  149.5370  136.5998  153.9299 H   0  0  0  0  0  0  0  0  0  0  0  0
  152.0573  136.9830  153.2413 H   0  0  0  0  0  0  0  0  0  0  0  0
  1  2  1  0  0  0  0
  1 22  1  0  0  0  0
  1 23  1  0  0  0  0
  2 17  2  0  0  0  0
  2  3  1  0  0  0  0
  3  4  2  0  0  0  0
  3 24  1  0  0  0  0
  4  5  1  0  0  0  0
  4 25  1  0  0  0  0
  5  6  1  0  0  0  0
  5 15  1  0  0  0  0
  6 18  1  0  0  0  0
  6 13  1  0  0  0  0
  6  7  1  0  0  0  0
  7  8  1  0  0  0  0
  8 19  1  0  0  0  0
  8  9  1  0  0  0  0
  8 11  1  0  0  0  0
  9 10  1  0  0  0  0
  9 26  1  0  0  0  0
  9 27  1  0  0  0  0
 10 28  1  0  0  0  0
 11 20  1  0  0  0  0
 11 12  1  0  0  0  0
 11 13  1  0  0  0  0
 12 29  1  0  0  0  0
 13 21  1  0  0  0  0
 13 14  1  0  0  0  0
 14 30  1  0  0  0  0
 15 16  2  0  0  0  0
 15 17  1  0  0  0  0
M  END
> <s_m_source_file>
AV-unprocessed.smi

> <i_m_source_file_index>
53

> <i_lp_mmshare_version>
43012

> <i_f3d_flags>
0

> <s_epik_input>
W05IMl1jMVtjSF1bY0hdbihjKD1PKW4xKVtDQEBIXTJPW0NASF0oW0NIMl1bT0hdKVtDQEBIXShbT0hdKVtDQEBIXTJbT0hd

> <s_epik_cmdline>
J2VwaWtfcHl0aG9uJywgJy1waCcsICc3LjAnLCAnLXRuJywgJzgnLCAnLW1hJywgJzIwMCcsICctbWV0YWxfYmluZGluZycsICctaW1hZScsICc8aW5maWxlLm1hZT4nLCAnLW9tYWUnLCAnPG91dGZpbGUubWFlPic=

> <r_lp_tautomer_probability>
0.99996

> <r_epik_Ionization_Penalty>
0.00069087

> <r_epik_Ionization_Penalty_Charging>
2.61959e-08

> <r_epik_Ionization_Penalty_Neutral>
0.000690844

> <r_epik_State_Penalty>
1.15523e-05

> <r_epik_Charging_Adjusted_Penalty>
1.15785e-05

> <i_epik_Tot_Q>
0

> <i_epik_Tot_abs_Q>
0

> <r_epik_Metal_State_Penalty>
-0

> <b_epik_Metal_Only>
0

> <s_epik_Chemistry_Notes>
This compound contains an acetal/aminal-like group ( X-CH(R)-Y where X, Y are N, S, or O) that may be acid/base labile, releasing an aldehyde.

> <s_lp_Force_Field>
OPLS_2005

> <r_lp_Energy>
26.6068

> <b_lp_Chiralities_Consistent>
1

> <s_lp_Variant>
AV-unprocessed.smi:53-2

> <Gold.Version>
5.8.1

> <Gold.Id.Protein>
6NUR|6NUR_protein|mol2

> <Gold.PLP.Fitness>
43.3843

> <Gold.PLP.PLP>
-25.7349

> <Gold.PLP.part.hbond>
-6.0000

> <Gold.PLP.part.metal>
0.0000

> <Gold.PLP.part.buried>
-3.4788

> <Gold.PLP.part.nonpolar>
-16.3532

> <Gold.PLP.part.repulsive>
0.0086

> <Gold.PLP.ligand.clash>
0.0000

> <Gold.PLP.ligand.torsion>
0.1587

> <Gold.PLP.Chemscore.Hbond>
5.9760

> <Gold.PLP.Chemscore.CHOScore>
0.0000

> <Gold.PLP.Chemscore.Metal>
0.0000

> <Gold.Chemscore.Hbonds>
donor molecule, donor type, donor heavy atom, donor atom, acceptor molecule, acceptor atom, score
      L1  H     1    23       P1  8028  0.99
      L1  H    12    29       P1  7948  0.70
      L1  H    14    30       P1  7949  0.59
      P1  H  6896  6909       L1    10  0.48
      P1  H  7997  8008       L1    16  0.75
      P1  H 10752 10764       L1    14  0.26

> <Gold.PLP.Chemscore.Internal.Correction>
0.0387

> <Gold.Rescore>
     Score         DG    S(hbond)    S(metal)    S(lipo)     H(rot)  DE(clash)    DE(int)     intcor
     17.43     -17.96       5.54        0.00      29.64       3.71       0.00       0.53       ----

> <Gold.Chemscore.Fitness>
17.4302

> <Gold.Chemscore.DG>
-17.9643

> <Gold.Chemscore.ZeroCoef>
-5.4800

> <Gold.Chemscore.Hbond>
5.5426

> <Gold.Chemscore.Metal>
0.0000

> <Gold.Chemscore.Lipo>
29.6438

> <Gold.Chemscore.Internal_Hbond>
0.0000

> <Gold.Chemscore.DEClash>
0.0000

> <Gold.Chemscore.DEInternal>
0.5341

> <Gold.Chemscore.Rot>
3.7095

> <Gold.Chemscore.Internal.Correction>
   9.000000E+99

> <Gold.Chemscore.Hbonds>
donor molecule, donor type, donor heavy atom, donor atom, acceptor molecule, acceptor atom, score
      L1  H     1    23       P1  8028  0.88
      L1  H    12    29       P1  7948  0.56
      L1  H    14    30       P1  7949  0.58
      P1  H  6896  6909       L1    10  0.11
      P1  H  7997  8008       L1    16  0.09
      P1  H 10752 10764       L1    14  0.01

> <Gold.Chemscore.Hbond.Weighted>
-18.5124

> <Gold.Chemscore.Metal.Weighted>
-0.0000

> <Gold.Chemscore.Lipo.Weighted>
-3.4683

> <Gold.Chemscore.Internal_Hbond.Weighted>
0.0000

> <Gold.Chemscore.DEClash.Weighted>
0.0000

> <Gold.Chemscore.DEInternal.Weighted>
0.5341

> <Gold.Chemscore.Rot.Weighted>
9.4964

> <Gold.Chemscore.Internal.Correction.Weighted>
   9.000000E+99

> <Gold.Protein.RotatedTorsions>
[ 6907 6896 6895 6894 ] final   69.50 input  -60.11 | X-H torsion
[ 7974 7965 7964 7962 ] final  157.24 input  175.53 | X-H torsion
[ 8008 7997 7996 7995 ] final  -94.84 input   59.86 | X-H torsion
[ 10167 10162 10161 10158 ] final  173.85 input  -65.29 | X-H torsion
[ 10718 10713 10712 10709 ] final  -10.37 input   66.30 | X-H torsion
[ 10763 10752 10751 10750 ] final  -92.47 input  -60.55 | X-H torsion
[ 11005 11000 10999 10996 ] final   20.00 input  -57.11 | X-H torsion

> <Gold.Protein.ActiveResidues>
 VAL166  LYS551  ARG553  GLY616  TRP617  ASP618  TYR619  PRO620  LYS621  CYS622 
 ASP623  PHE694  ASN695  SER759  ASP760  ASP761  ALA762  ILE779  LEU786  VAL792 
 PHE793  MET794  SER795  GLU796  ALA797  LYS798  CYS799  TRP800  GLU811  SER814 

> <Gold.Protein.RotatedAtoms>
  152.4690  134.5006  159.9723 H   0  0  0  0  0  0  0  0  0  0  0  0  # atno 6907 bound_to 6896
  151.5037  133.3493  159.2881 H   0  0  0  0  0  0  0  0  0  0  0  0  # atno 6908 bound_to 6896
  150.8690  134.8087  159.7202 H   0  0  0  0  0  0  0  0  0  0  0  0  # atno 6909 bound_to 6896
  144.7915  139.7314  143.6219 H   0  0  0  0  0  0  0  0  0  0  0  0  # atno 7974 bound_to 7965
  154.7535  140.0485  157.0914 H   0  0  0  0  0  0  0  0  0  0  0  0  # atno 8008 bound_to 7997
  155.0027  140.3126  155.4841 H   0  0  0  0  0  0  0  0  0  0  0  0  # atno 8009 bound_to 7997
  156.2890  140.2198  156.5137 H   0  0  0  0  0  0  0  0  0  0  0  0  # atno 8010 bound_to 7997
  139.5122  144.3213  152.0199 H   0  0  0  0  0  0  0  0  0  0  0  0  # atno 10167 bound_to 10162
  156.6745  130.5019  149.5990 H   0  0  0  0  0  0  0  0  0  0  0  0  # atno 10718 bound_to 10713
  154.6864  135.5230  153.8332 H   0  0  0  0  0  0  0  0  0  0  0  0  # atno 10763 bound_to 10752
  153.0601  135.6565  154.0494 H   0  0  0  0  0  0  0  0  0  0  0  0  # atno 10764 bound_to 10752
  154.0374  135.2980  155.3339 H   0  0  0  0  0  0  0  0  0  0  0  0  # atno 10765 bound_to 10752
  140.4075  134.1653  155.7666 H   0  0  0  0  0  0  0  0  0  0  0  0  # atno 11005 bound_to 11000
  146.2168  139.5564  142.9645 LP  0  0  0  0  0  0  0  0  0  0  0  0  # atno 17320 bound_to 7965
  145.5783  141.0386  143.2136 LP  0  0  0  0  0  0  0  0  0  0  0  0  # atno 17321 bound_to 7965
  140.2655  144.4021  150.6170 LP  0  0  0  0  0  0  0  0  0  0  0  0  # atno 17342 bound_to 10162
  140.6126  143.2170  151.6855 LP  0  0  0  0  0  0  0  0  0  0  0  0  # atno 17343 bound_to 10162
  156.1914  130.6562  151.1065 LP  0  0  0  0  0  0  0  0  0  0  0  0  # atno 17370 bound_to 10713
  157.7065  131.0754  150.6647 LP  0  0  0  0  0  0  0  0  0  0  0  0  # atno 17371 bound_to 10713
  141.1834  133.8366  157.1177 LP  0  0  0  0  0  0  0  0  0  0  0  0  # atno 17394 bound_to 11000
  140.0291  134.9909  157.0745 LP  0  0  0  0  0  0  0  0  0  0  0  0  # atno 17395 bound_to 11000

$$$$
