AV-unprocessed.smi:414|AV-procd|sdf|2516|dock6
  -GOLD-   2262022463D 1   1.00000     0.00000
 Structure written by MMmdl.
 37 38  0  0  0  0  0  0  0  0  2 V2000
  153.0356  142.7330  160.4978 C   0  0  0  0  0  0  0  0  0  0  0  0
  151.9325  142.7118  159.4303 C   0  0  2  0  0  0  0  0  0  0  0  0
  151.7568  141.3041  158.8296 C   0  0  0  0  0  0  0  0  0  0  0  0
  150.6536  141.2803  157.7595 C   0  0  0  0  0  0  0  0  0  0  0  0
  150.9300  142.3054  156.6449 C   0  0  1  0  0  0  0  0  0  0  0  0
  149.8336  142.2878  155.6819 N   0  0  0  0  0  0  0  0  0  0  0  0
  149.5665  141.2898  154.8257 C   0  0  0  0  0  0  0  0  0  0  0  0
  150.2513  140.2697  154.7412 O   0  0  0  0  0  0  0  0  0  0  0  0
  148.3580  141.4959  153.9030 C   0  0  0  0  0  0  0  0  0  0  0  0
  147.1573  141.9363  154.6306 N   0  0  0  0  0  0  0  0  0  0  0  0
  146.4344  143.0227  154.1065 C   0  0  0  0  0  0  0  0  0  0  0  0
  145.3223  143.4906  154.7047 C   0  0  0  0  0  0  0  0  0  0  0  0
  144.8712  142.8401  155.9288 C   0  0  0  0  0  0  0  0  0  0  0  0
  143.8603  143.2567  156.4912 O   0  0  0  0  0  0  0  0  0  0  0  0
  145.6041  141.7870  156.3951 N   0  5  0  0  0  0  0  0  0  0  0  0
  146.7314  141.3197  155.7743 C   0  0  0  0  0  0  0  0  0  0  0  0
  147.3763  140.3652  156.2103 O   0  0  0  0  0  0  0  0  0  0  0  0
  151.1112  143.7171  157.2377 C   0  0  0  0  0  0  0  0  0  0  0  0
  152.2077  143.7390  158.3154 C   0  0  0  0  0  0  0  0  0  0  0  0
  154.0030  142.4624  160.0736 H   0  0  0  0  0  0  0  0  0  0  0  0
  152.8167  142.0312  161.3029 H   0  0  0  0  0  0  0  0  0  0  0  0
  153.1324  143.7238  160.9426 H   0  0  0  0  0  0  0  0  0  0  0  0
  150.9971  142.9883  159.9192 H   0  0  0  0  0  0  0  0  0  0  0  0
  152.6969  140.9708  158.3879 H   0  0  0  0  0  0  0  0  0  0  0  0
  151.5161  140.5891  159.6170 H   0  0  0  0  0  0  0  0  0  0  0  0
  150.5768  140.2785  157.3350 H   0  0  0  0  0  0  0  0  0  0  0  0
  149.6913  141.4920  158.2281 H   0  0  0  0  0  0  0  0  0  0  0  0
  151.8530  142.0133  156.1397 H   0  0  0  0  0  0  0  0  0  0  0  0
  149.2176  143.0877  155.6784 H   0  0  0  0  0  0  0  0  0  0  0  0
  148.6038  142.2120  153.1164 H   0  0  0  0  0  0  0  0  0  0  0  0
  148.1659  140.5559  153.3839 H   0  0  0  0  0  0  0  0  0  0  0  0
  146.8313  143.4428  153.1941 H   0  0  0  0  0  0  0  0  0  0  0  0
  144.7761  144.3236  154.2876 H   0  0  0  0  0  0  0  0  0  0  0  0
  151.3628  144.4272  156.4492 H   0  0  0  0  0  0  0  0  0  0  0  0
  150.1709  144.0595  157.6721 H   0  0  0  0  0  0  0  0  0  0  0  0
  152.2800  144.7407  158.7408 H   0  0  0  0  0  0  0  0  0  0  0  0
  153.1733  143.5305  157.8525 H   0  0  0  0  0  0  0  0  0  0  0  0
  1  2  1  0  0  0  0
  1 20  1  0  0  0  0
  1 21  1  0  0  0  0
  1 22  1  0  0  0  0
  2 19  1  0  0  0  0
  2  3  1  0  0  0  0
  2 23  1  0  0  0  0
  3  4  1  0  0  0  0
  3 24  1  0  0  0  0
  3 25  1  0  0  0  0
  4  5  1  0  0  0  0
  4 26  1  0  0  0  0
  4 27  1  0  0  0  0
  5  6  1  0  0  0  0
  5 18  1  0  0  0  0
  5 28  1  0  0  0  0
  6  7  1  0  0  0  0
  6 29  1  0  0  0  0
  7  8  2  0  0  0  0
  7  9  1  0  0  0  0
  9 10  1  0  0  0  0
  9 30  1  0  0  0  0
  9 31  1  0  0  0  0
 10 16  1  0  0  0  0
 10 11  1  0  0  0  0
 11 12  2  0  0  0  0
 11 32  1  0  0  0  0
 12 13  1  0  0  0  0
 12 33  1  0  0  0  0
 13 14  2  0  0  0  0
 13 15  1  0  0  0  0
 15 16  1  0  0  0  0
 16 17  2  0  0  0  0
 18 19  1  0  0  0  0
 18 34  1  0  0  0  0
 18 35  1  0  0  0  0
 19 36  1  0  0  0  0
 19 37  1  0  0  0  0
M  CHG  1  15  -1
M  END
> <s_m_source_file>
AV-unprocessed.smi

> <i_m_source_file_index>
414

> <i_lp_mmshare_version>
43012

> <i_f3d_flags>
0

> <s_epik_input>
W0NIM11bQ0BASF0xW0NIMl1bQ0gyXVtDQEhdKFtDSDJdW0NIMl0xKVtOSF1DKD1PKVtDSDJdbjJbY0hdW2NIXWMoPU8pW25IXWMyPU8=

> <s_epik_cmdline>
J2VwaWtfcHl0aG9uJywgJy1waCcsICc3LjAnLCAnLXRuJywgJzgnLCAnLW1hJywgJzIwMCcsICctbWV0YWxfYmluZGluZycsICctaW1hZScsICc8aW5maWxlLm1hZT4nLCAnLW9tYWUnLCAnPG91dGZpbGUubWFlPic=

> <r_lp_tautomer_probability>
0.999537

> <r_epik_Ionization_Penalty>
3.11551

> <r_epik_Ionization_Penalty_Charging>
2.90498e-08

> <r_epik_Ionization_Penalty_Neutral>
3.11551

> <r_epik_State_Penalty>
3.11459

> <r_epik_Charging_Adjusted_Penalty>
3.11459

> <i_epik_Tot_Q>
-1

> <i_epik_Tot_abs_Q>
1

> <r_epik_Metal_State_Penalty>
0.463083

> <b_epik_Metal_Only>
1

> <s_lp_Force_Field>
OPLS_2005

> <r_lp_Energy>
17.7967

> <b_lp_Chiralities_Consistent>
1

> <s_lp_Variant>
AV-unprocessed.smi:414-3

> <Gold.Version>
5.8.1

> <Gold.Id.Protein>
6NUR|6NUR_protein|mol2

> <Gold.PLP.Fitness>
44.1736

> <Gold.PLP.PLP>
-38.9213

> <Gold.PLP.part.hbond>
-2.0000

> <Gold.PLP.part.metal>
0.0000

> <Gold.PLP.part.buried>
-1.6578

> <Gold.PLP.part.nonpolar>
-35.9533

> <Gold.PLP.part.repulsive>
0.3552

> <Gold.PLP.ligand.clash>
0.0000

> <Gold.PLP.ligand.torsion>
0.3763

> <Gold.PLP.Chemscore.Hbond>
2.0000

> <Gold.PLP.Chemscore.CHOScore>
0.0000

> <Gold.PLP.Chemscore.Metal>
0.0000

> <Gold.Chemscore.Hbonds>
donor molecule, donor type, donor heavy atom, donor atom, acceptor molecule, acceptor atom, score
      L1  H     6    29       P1  8028  1.00
      P1  H  7989  7998       L1     8  1.00

> <Gold.PLP.Chemscore.Internal.Correction>
0.0050

> <Gold.Rescore>
     Score         DG    S(hbond)    S(metal)    S(lipo)     H(rot)  DE(clash)    DE(int)     intcor
     13.56     -15.07       1.01        0.00      89.27       1.65       0.16       1.35       ----

> <Gold.Chemscore.Fitness>
13.5598

> <Gold.Chemscore.DG>
-15.0698

> <Gold.Chemscore.ZeroCoef>
-5.4800

> <Gold.Chemscore.Hbond>
1.0126

> <Gold.Chemscore.Metal>
0.0000

> <Gold.Chemscore.Lipo>
89.2664

> <Gold.Chemscore.Internal_Hbond>
0.0000

> <Gold.Chemscore.DEClash>
0.1552

> <Gold.Chemscore.DEInternal>
1.3548

> <Gold.Chemscore.Rot>
1.6549

> <Gold.Chemscore.Internal.Correction>
   9.000000E+99

> <Gold.Chemscore.Hbonds>
donor molecule, donor type, donor heavy atom, donor atom, acceptor molecule, acceptor atom, score
      L1  H     6    29       P1  8028  0.97
      P1  H  7989  7998       L1     8  0.25

> <Gold.Chemscore.Hbond.Weighted>
-3.3820

> <Gold.Chemscore.Metal.Weighted>
-0.0000

> <Gold.Chemscore.Lipo.Weighted>
-10.4442

> <Gold.Chemscore.Internal_Hbond.Weighted>
0.0000

> <Gold.Chemscore.DEClash.Weighted>
0.1552

> <Gold.Chemscore.DEInternal.Weighted>
1.3548

> <Gold.Chemscore.Rot.Weighted>
4.2364

> <Gold.Chemscore.Internal.Correction.Weighted>
   9.000000E+99

> <Gold.Protein.RotatedTorsions>
[ 6907 6896 6895 6894 ] final   -0.69 input  -60.11 | X-H torsion
[ 7974 7965 7964 7962 ] final   70.29 input  175.53 | X-H torsion
[ 8008 7997 7996 7995 ] final  165.42 input   59.86 | X-H torsion
[ 10167 10162 10161 10158 ] final -140.92 input  -65.29 | X-H torsion
[ 10718 10713 10712 10709 ] final -139.09 input   66.30 | X-H torsion
[ 10763 10752 10751 10750 ] final  -90.61 input  -60.55 | X-H torsion
[ 11005 11000 10999 10996 ] final   55.17 input  -57.11 | X-H torsion

> <Gold.Protein.ActiveResidues>
 VAL166  LYS551  ARG553  GLY616  TRP617  ASP618  TYR619  PRO620  LYS621  CYS622 
 ASP623  PHE694  ASN695  SER759  ASP760  ASP761  ALA762  ILE779  LEU786  VAL792 
 PHE793  MET794  SER795  GLU796  ALA797  LYS798  CYS799  TRP800  GLU811  SER814 

> <Gold.Protein.RotatedAtoms>
  151.5582  135.1066  159.9965 H   0  0  0  0  0  0  0  0  0  0  0  0  # atno 6907 bound_to 6896
  152.4459  133.7531  159.6716 H   0  0  0  0  0  0  0  0  0  0  0  0  # atno 6908 bound_to 6896
  150.8375  133.7922  159.3098 H   0  0  0  0  0  0  0  0  0  0  0  0  # atno 6909 bound_to 6896
  145.7800  139.2883  143.1271 H   0  0  0  0  0  0  0  0  0  0  0  0  # atno 7974 bound_to 7965
  156.1802  140.1670  156.8289 H   0  0  0  0  0  0  0  0  0  0  0  0  # atno 8008 bound_to 7997
  154.5351  140.0748  156.8447 H   0  0  0  0  0  0  0  0  0  0  0  0  # atno 8009 bound_to 7997
  155.3327  140.3380  155.4241 H   0  0  0  0  0  0  0  0  0  0  0  0  # atno 8010 bound_to 7997
  139.8235  143.7542  152.2666 H   0  0  0  0  0  0  0  0  0  0  0  0  # atno 10167 bound_to 10162
  156.3068  130.7459  151.1525 H   0  0  0  0  0  0  0  0  0  0  0  0  # atno 10718 bound_to 10713
  154.6676  135.5298  153.8097 H   0  0  0  0  0  0  0  0  0  0  0  0  # atno 10763 bound_to 10752
  153.0481  135.6521  154.0775 H   0  0  0  0  0  0  0  0  0  0  0  0  # atno 10764 bound_to 10752
  154.0678  135.2956  155.3293 H   0  0  0  0  0  0  0  0  0  0  0  0  # atno 10765 bound_to 10752
  140.0628  134.5578  155.9133 H   0  0  0  0  0  0  0  0  0  0  0  0  # atno 11005 bound_to 11000
  146.0084  140.8458  142.9983 LP  0  0  0  0  0  0  0  0  0  0  0  0  # atno 17320 bound_to 7965
  144.6798  140.2454  143.7338 LP  0  0  0  0  0  0  0  0  0  0  0  0  # atno 17321 bound_to 7965
  139.7727  144.7471  151.0201 LP  0  0  0  0  0  0  0  0  0  0  0  0  # atno 17342 bound_to 10162
  140.7812  143.4627  151.0255 LP  0  0  0  0  0  0  0  0  0  0  0  0  # atno 17343 bound_to 10162
  157.7381  131.0544  150.5313 LP  0  0  0  0  0  0  0  0  0  0  0  0  # atno 17370 bound_to 10713
  156.5447  130.4217  149.6136 LP  0  0  0  0  0  0  0  0  0  0  0  0  # atno 17371 bound_to 10713
  141.1980  133.6599  156.5771 LP  0  0  0  0  0  0  0  0  0  0  0  0  # atno 17394 bound_to 11000
  140.3744  134.7577  157.4620 LP  0  0  0  0  0  0  0  0  0  0  0  0  # atno 17395 bound_to 11000

$$$$
