AV-unprocessed.smi:2760|AV-procd|sdf|10631|dock1
  -GOLD-   2272015 83D 1   1.00000     0.00000
 Structure written by MMmdl.
 32 33  0  0  0  0  0  0  0  0  1 V2000
  149.6562  140.8746  153.6831 O   0  0  0  0  0  0  0  0  0  0  0  0
  149.8899  140.7635  155.0217 C   0  0  0  0  0  0  0  0  0  0  0  0
  150.1657  141.9195  155.7826 C   0  0  0  0  0  0  0  0  0  0  0  0
  150.3965  141.7294  157.1630 C   0  0  0  0  0  0  0  0  0  0  0  0
  150.6959  142.8608  158.0953 C   0  0  0  0  0  0  0  0  0  0  0  0
  151.6839  143.9435  157.7216 C   0  0  0  0  0  0  0  0  0  0  0  0
  152.0290  142.9486  158.8020 C   0  0  0  0  0  0  0  0  0  0  0  0
  150.3416  140.5016  157.7247 N   0  0  0  0  0  0  0  0  0  0  0  0
  150.0705  139.4838  156.9046 C   0  0  0  0  0  0  0  0  0  0  0  0
  149.9857  137.8659  157.6378 S   0  0  0  0  0  0  0  0  0  0  0  0
  148.3760  137.9498  158.4771 C   0  0  0  0  0  0  0  0  0  0  0  0
  148.1402  136.7408  159.3911 C   0  0  0  0  0  0  0  0  0  0  0  0
  147.7733  137.1990  160.6810 O   0  0  0  0  0  0  0  0  0  0  0  0
  146.6217  136.5406  161.1861 C   0  0  0  0  0  0  0  0  0  0  0  0
  147.0431  135.4551  162.1837 C   0  0  0  0  0  0  0  0  0  0  0  0
  147.7886  136.0053  163.1414 F   0  0  0  0  0  0  0  0  0  0  0  0
  145.9679  134.9015  162.7438 F   0  0  0  0  0  0  0  0  0  0  0  0
  147.7620  134.5162  161.5687 F   0  0  0  0  0  0  0  0  0  0  0  0
  149.8467  139.5393  155.5907 N   0  0  0  0  0  0  0  0  0  0  0  0
  149.4583  140.0469  153.2733 H   0  0  0  0  0  0  0  0  0  0  0  0
  150.1992  142.9011  155.3330 H   0  0  0  0  0  0  0  0  0  0  0  0
  149.8076  143.1567  158.6504 H   0  0  0  0  0  0  0  0  0  0  0  0
  152.2162  143.8528  156.7769 H   0  0  0  0  0  0  0  0  0  0  0  0
  151.4686  144.9608  158.0420 H   0  0  0  0  0  0  0  0  0  0  0  0
  152.0386  143.3177  159.8256 H   0  0  0  0  0  0  0  0  0  0  0  0
  152.7802  142.1968  158.5675 H   0  0  0  0  0  0  0  0  0  0  0  0
  148.3496  138.8669  159.0656 H   0  0  0  0  0  0  0  0  0  0  0  0
  147.5809  138.0301  157.7355 H   0  0  0  0  0  0  0  0  0  0  0  0
  147.3496  136.1063  158.9884 H   0  0  0  0  0  0  0  0  0  0  0  0
  149.0477  136.1381  159.4537 H   0  0  0  0  0  0  0  0  0  0  0  0
  145.9651  137.2610  161.6769 H   0  0  0  0  0  0  0  0  0  0  0  0
  146.0584  136.0916  160.3662 H   0  0  0  0  0  0  0  0  0  0  0  0
  1  2  1  0  0  0  0
  1 20  1  0  0  0  0
  2 19  1  0  0  0  0
  2  3  2  0  0  0  0
  3  4  1  0  0  0  0
  3 21  1  0  0  0  0
  4  5  1  0  0  0  0
  4  8  2  0  0  0  0
  5  7  1  0  0  0  0
  5  6  1  0  0  0  0
  5 22  1  0  0  0  0
  6  7  1  0  0  0  0
  6 23  1  0  0  0  0
  6 24  1  0  0  0  0
  7 25  1  0  0  0  0
  7 26  1  0  0  0  0
  8  9  1  0  0  0  0
  9 10  1  0  0  0  0
  9 19  2  0  0  0  0
 10 11  1  0  0  0  0
 11 12  1  0  0  0  0
 11 27  1  0  0  0  0
 11 28  1  0  0  0  0
 12 13  1  0  0  0  0
 12 29  1  0  0  0  0
 12 30  1  0  0  0  0
 13 14  1  0  0  0  0
 14 15  1  0  0  0  0
 14 31  1  0  0  0  0
 14 32  1  0  0  0  0
 15 16  1  0  0  0  0
 15 17  1  0  0  0  0
 15 18  1  0  0  0  0
M  END
> <s_m_source_file>
AV-unprocessed.smi

> <i_m_source_file_index>
2760

> <i_lp_mmshare_version>
43012

> <i_f3d_flags>
0

> <s_epik_input>
W09IXWMxW2NIXWMoW0NIXTJbQ0gyXVtDSDJdMiluYyhuMSlTW0NIMl1bQ0gyXU9bQ0gyXUMoRikoRilG

> <s_epik_cmdline>
J2VwaWtfcHl0aG9uJywgJy1waCcsICc3LjAnLCAnLXRuJywgJzgnLCAnLW1hJywgJzIwMCcsICctbWV0YWxfYmluZGluZycsICctaW1hZScsICc8aW5maWxlLm1hZT4nLCAnLW9tYWUnLCAnPG91dGZpbGUubWFlPic=

> <r_lp_tautomer_probability>
0.0660145

> <r_epik_Ionization_Penalty>
3.02064

> <r_epik_Ionization_Penalty_Charging>
0

> <r_epik_Ionization_Penalty_Neutral>
3.02064

> <r_epik_State_Penalty>
2.51658

> <r_epik_Charging_Adjusted_Penalty>
2.51658

> <i_epik_Tot_Q>
0

> <i_epik_Tot_abs_Q>
0

> <r_epik_Metal_State_Penalty>
3.1674

> <b_epik_Metal_Only>
0

> <s_lp_Force_Field>
OPLS_2005

> <r_lp_Energy>
-0.868617

> <b_lp_Chiralities_Consistent>
1

> <s_lp_Variant>
AV-unprocessed.smi:2760-4

> <Gold.Version>
5.8.1

> <Gold.Id.Protein>
6NUR|6NUR_protein|mol2

> <Gold.PLP.Fitness>
44.5694

> <Gold.PLP.PLP>
-38.3536

> <Gold.PLP.part.hbond>
-5.0000

> <Gold.PLP.part.metal>
0.0000

> <Gold.PLP.part.buried>
-2.7309

> <Gold.PLP.part.nonpolar>
-30.5131

> <Gold.PLP.part.repulsive>
0.0301

> <Gold.PLP.ligand.clash>
0.0000

> <Gold.PLP.ligand.torsion>
1.4334

> <Gold.PLP.Chemscore.Hbond>
2.9396

> <Gold.PLP.Chemscore.CHOScore>
0.0000

> <Gold.PLP.Chemscore.Metal>
0.0000

> <Gold.Chemscore.Hbonds>
donor molecule, donor type, donor heavy atom, donor atom, acceptor molecule, acceptor atom, score
      L1  H     1    20       P1  7957  0.22
      P1  H  6931  6943       L1    13  0.78
      P1  H  6934  6947       L1    13  0.84
      P1  H  7989  7998       L1     1  0.13
      P1  H  8011  8017       L1     1  0.94

> <Gold.PLP.Chemscore.Internal.Correction>
0.2638

> <Gold.Rescore>
     Score         DG    S(hbond)    S(metal)    S(lipo)     H(rot)  DE(clash)    DE(int)     intcor
     10.91     -12.53       2.16        0.00      67.52       3.16       0.34       1.27       ----

> <Gold.Chemscore.Fitness>
10.9136

> <Gold.Chemscore.DG>
-12.5291

> <Gold.Chemscore.ZeroCoef>
-5.4800

> <Gold.Chemscore.Hbond>
2.1640

> <Gold.Chemscore.Metal>
0.0000

> <Gold.Chemscore.Lipo>
67.5202

> <Gold.Chemscore.Internal_Hbond>
0.0000

> <Gold.Chemscore.DEClash>
0.3413

> <Gold.Chemscore.DEInternal>
1.2742

> <Gold.Chemscore.Rot>
3.1557

> <Gold.Chemscore.Internal.Correction>
   9.000000E+99

> <Gold.Chemscore.Hbonds>
donor molecule, donor type, donor heavy atom, donor atom, acceptor molecule, acceptor atom, score
      L1  H     1    20       P1  7957  0.23
      P1  H  6931  6943       L1    13  0.71
      P1  H  6934  6947       L1    13  0.18
      P1  H  8011  8017       L1     1  0.73

> <Gold.Chemscore.Hbond.Weighted>
-7.2278

> <Gold.Chemscore.Metal.Weighted>
-0.0000

> <Gold.Chemscore.Lipo.Weighted>
-7.8999

> <Gold.Chemscore.Internal_Hbond.Weighted>
0.0000

> <Gold.Chemscore.DEClash.Weighted>
0.3413

> <Gold.Chemscore.DEInternal.Weighted>
1.2742

> <Gold.Chemscore.Rot.Weighted>
8.0785

> <Gold.Chemscore.Internal.Correction.Weighted>
   9.000000E+99

> <Gold.Protein.RotatedTorsions>
[ 6907 6896 6895 6894 ] final  118.68 input  -60.11 | X-H torsion
[ 7974 7965 7964 7962 ] final   48.18 input  175.53 | X-H torsion
[ 8008 7997 7996 7995 ] final  160.36 input   59.86 | X-H torsion
[ 10167 10162 10161 10158 ] final  119.46 input  -65.29 | X-H torsion
[ 10718 10713 10712 10709 ] final  -27.22 input   66.30 | X-H torsion
[ 10763 10752 10751 10750 ] final  -34.73 input  -60.55 | X-H torsion
[ 11005 11000 10999 10996 ] final -147.62 input  -57.11 | X-H torsion

> <Gold.Protein.ActiveResidues>
 VAL166  LYS551  ARG553  GLY616  TRP617  ASP618  TYR619  PRO620  LYS621  CYS622 
 ASP623  PHE694  ASN695  SER759  ASP760  ASP761  ALA762  ILE779  LEU786  VAL792 
 PHE793  MET794  SER795  GLU796  ALA797  LYS798  CYS799  TRP800  GLU811  SER814 

> <Gold.Protein.RotatedAtoms>
  152.4526  133.7659  159.6772 H   0  0  0  0  0  0  0  0  0  0  0  0  # atno 6907 bound_to 6896
  150.8442  133.7877  159.3055 H   0  0  0  0  0  0  0  0  0  0  0  0  # atno 6908 bound_to 6896
  151.5492  135.1070  159.9997 H   0  0  0  0  0  0  0  0  0  0  0  0  # atno 6909 bound_to 6896
  146.0228  139.4671  142.9886 H   0  0  0  0  0  0  0  0  0  0  0  0  # atno 7974 bound_to 7965
  156.2178  140.1806  156.7549 H   0  0  0  0  0  0  0  0  0  0  0  0  # atno 8008 bound_to 7997
  154.5818  140.0665  156.9143 H   0  0  0  0  0  0  0  0  0  0  0  0  # atno 8009 bound_to 7997
  155.2490  140.3327  155.4286 H   0  0  0  0  0  0  0  0  0  0  0  0  # atno 8010 bound_to 7997
  139.6045  144.7066  151.2986 H   0  0  0  0  0  0  0  0  0  0  0  0  # atno 10167 bound_to 10162
  156.4410  130.4464  149.7052 H   0  0  0  0  0  0  0  0  0  0  0  0  # atno 10718 bound_to 10713
  153.8515  135.6848  153.4792 H   0  0  0  0  0  0  0  0  0  0  0  0  # atno 10763 bound_to 10752
  153.1395  135.4663  154.9471 H   0  0  0  0  0  0  0  0  0  0  0  0  # atno 10764 bound_to 10752
  154.7800  135.3266  154.7958 H   0  0  0  0  0  0  0  0  0  0  0  0  # atno 10765 bound_to 10752
  140.7698  134.3202  157.5078 H   0  0  0  0  0  0  0  0  0  0  0  0  # atno 11005 bound_to 11000
  145.7165  141.0089  143.1425 LP  0  0  0  0  0  0  0  0  0  0  0  0  # atno 17320 bound_to 7965
  144.6997  139.8820  143.7447 LP  0  0  0  0  0  0  0  0  0  0  0  0  # atno 17321 bound_to 7965
  140.7274  143.6963  150.7881 LP  0  0  0  0  0  0  0  0  0  0  0  0  # atno 17342 bound_to 10162
  140.0546  143.5215  152.2657 LP  0  0  0  0  0  0  0  0  0  0  0  0  # atno 17343 bound_to 10162
  156.3917  130.7630  151.2632 LP  0  0  0  0  0  0  0  0  0  0  0  0  # atno 17370 bound_to 10713
  157.7506  131.0266  150.3968 LP  0  0  0  0  0  0  0  0  0  0  0  0  # atno 17371 bound_to 10713
  139.8757  134.9253  156.3373 LP  0  0  0  0  0  0  0  0  0  0  0  0  # atno 17394 bound_to 11000
  140.9585  133.7404  156.0368 LP  0  0  0  0  0  0  0  0  0  0  0  0  # atno 17395 bound_to 11000

$$$$
