AV-unprocessed.smi:1999|AV-procd|sdf|8097|dock1
  -GOLD-   2272010313D 1   1.00000     0.00000
 Structure written by MMmdl.
 37 38  0  0  0  0  0  0  0  0  2 V2000
  145.8524  134.5897  162.5339 C   0  0  0  0  0  0  0  0  0  0  0  0
  146.8609  135.3585  161.7512 C   0  0  0  0  0  0  0  0  0  0  0  0
  146.9449  136.6905  161.7915 N   0  0  0  0  0  0  0  0  0  0  0  0
  147.9577  137.1751  160.9765 N   0  0  0  0  0  0  0  0  0  0  0  0
  148.6184  136.2066  160.3262 C   0  0  0  0  0  0  0  0  0  0  0  0
  149.6370  136.4661  159.4899 N   0  5  0  0  0  0  0  0  0  0  0  0
  149.7569  137.6919  158.9309 C   0  0  0  0  0  0  0  0  0  0  0  0
  148.8390  138.4841  158.7053 O   0  0  0  0  0  0  0  0  0  0  0  0
  151.0178  138.0193  158.6137 N   0  0  0  0  0  0  0  0  0  0  0  0
  151.4557  139.2636  157.9829 C   0  0  1  0  0  0  0  0  0  0  0  0
  150.7220  139.4639  156.6477 C   0  0  0  0  0  0  0  0  0  0  0  0
  151.2109  140.4511  158.9369 C   0  0  0  0  0  0  0  0  0  0  0  0
  151.8210  141.7222  158.5411 N   0  0  0  0  0  0  0  0  0  0  0  0
  150.9146  142.5715  157.7714 C   0  0  0  0  0  0  0  0  0  0  0  0
  151.5696  143.9103  157.3890 C   0  0  0  0  0  0  0  0  0  0  0  0
  152.0227  144.5771  158.5629 O   0  0  0  0  0  0  0  0  0  0  0  0
  152.9481  143.7969  159.3125 C   0  0  0  0  0  0  0  0  0  0  0  0
  152.2936  142.4617  159.7060 C   0  0  0  0  0  0  0  0  0  0  0  0
  148.0329  134.5851  160.6977 S   0  0  0  0  0  0  0  0  0  0  0  0
  144.9086  134.5531  161.9898 H   0  0  0  0  0  0  0  0  0  0  0  0
  145.6827  135.0622  163.5019 H   0  0  0  0  0  0  0  0  0  0  0  0
  146.2012  133.5705  162.7008 H   0  0  0  0  0  0  0  0  0  0  0  0
  151.7345  137.3368  158.8125 H   0  0  0  0  0  0  0  0  0  0  0  0
  152.5225  139.2042  157.7654 H   0  0  0  0  0  0  0  0  0  0  0  0
  151.0422  140.3848  156.1599 H   0  0  0  0  0  0  0  0  0  0  0  0
  149.6426  139.5202  156.7920 H   0  0  0  0  0  0  0  0  0  0  0  0
  150.9230  138.6420  155.9596 H   0  0  0  0  0  0  0  0  0  0  0  0
  150.1368  140.5898  159.0684 H   0  0  0  0  0  0  0  0  0  0  0  0
  151.5953  140.1717  159.9190 H   0  0  0  0  0  0  0  0  0  0  0  0
  150.6066  142.0656  156.8570 H   0  0  0  0  0  0  0  0  0  0  0  0
  150.0075  142.7631  158.3463 H   0  0  0  0  0  0  0  0  0  0  0  0
  152.4072  143.7485  156.7086 H   0  0  0  0  0  0  0  0  0  0  0  0
  150.8539  144.5481  156.8704 H   0  0  0  0  0  0  0  0  0  0  0  0
  153.8522  143.6265  158.7259 H   0  0  0  0  0  0  0  0  0  0  0  0
  153.2435  144.3517  160.2030 H   0  0  0  0  0  0  0  0  0  0  0  0
  151.4612  142.6554  160.3845 H   0  0  0  0  0  0  0  0  0  0  0  0
  153.0138  141.8586  160.2601 H   0  0  0  0  0  0  0  0  0  0  0  0
  1  2  1  0  0  0  0
  1 20  1  0  0  0  0
  1 21  1  0  0  0  0
  1 22  1  0  0  0  0
  2 19  1  0  0  0  0
  2  3  2  0  0  0  0
  3  4  1  0  0  0  0
  4  5  2  0  0  0  0
  5  6  1  0  0  0  0
  5 19  1  0  0  0  0
  6  7  1  0  0  0  0
  7  8  2  0  0  0  0
  7  9  1  0  0  0  0
  9 10  1  0  0  0  0
  9 23  1  0  0  0  0
 10 11  1  0  0  0  0
 10 12  1  0  0  0  0
 10 24  1  0  0  0  0
 11 25  1  0  0  0  0
 11 26  1  0  0  0  0
 11 27  1  0  0  0  0
 12 13  1  0  0  0  0
 12 28  1  0  0  0  0
 12 29  1  0  0  0  0
 13 18  1  0  0  0  0
 13 14  1  0  0  0  0
 14 15  1  0  0  0  0
 14 30  1  0  0  0  0
 14 31  1  0  0  0  0
 15 16  1  0  0  0  0
 15 32  1  0  0  0  0
 15 33  1  0  0  0  0
 16 17  1  0  0  0  0
 17 18  1  0  0  0  0
 17 34  1  0  0  0  0
 17 35  1  0  0  0  0
 18 36  1  0  0  0  0
 18 37  1  0  0  0  0
M  CHG  1   6  -1
M  END
> <s_m_source_file>
AV-unprocessed.smi

> <i_m_source_file_index>
1999

> <i_lp_mmshare_version>
43012

> <i_f3d_flags>
0

> <s_epik_input>
W0NIM11jMW5uYyhzMSlbTkhdQyg9TylbTkhdW0NASF0oW0NIM10pW0NIMl1OMltDSDJdW0NIMl1PW0NIMl1bQ0gyXTI=

> <s_epik_cmdline>
J2VwaWtfcHl0aG9uJywgJy1waCcsICc3LjAnLCAnLXRuJywgJzgnLCAnLW1hJywgJzIwMCcsICctbWV0YWxfYmluZGluZycsICctaW1hZScsICc8aW5maWxlLm1hZT4nLCAnLW9tYWUnLCAnPG91dGZpbGUubWFlPic=

> <r_lp_tautomer_probability>
1

> <r_epik_Ionization_Penalty>
3.74165

> <r_epik_Ionization_Penalty_Charging>
3.28066

> <r_epik_Ionization_Penalty_Neutral>
0.460988

> <r_epik_State_Penalty>
3.48767

> <r_epik_Charging_Adjusted_Penalty>
6.76834

> <i_epik_Tot_Q>
-1

> <i_epik_Tot_abs_Q>
1

> <r_epik_Metal_State_Penalty>
0.700129

> <b_epik_Metal_Only>
1

> <s_lp_Force_Field>
OPLS_2005

> <r_lp_Energy>
23.1918

> <b_lp_Chiralities_Consistent>
1

> <s_lp_Variant>
AV-unprocessed.smi:1999-6

> <Gold.Version>
5.8.1

> <Gold.Id.Protein>
6NUR|6NUR_protein|mol2

> <Gold.PLP.Fitness>
42.4385

> <Gold.PLP.PLP>
-33.4451

> <Gold.PLP.part.hbond>
-3.9353

> <Gold.PLP.part.metal>
0.0000

> <Gold.PLP.part.buried>
-5.6912

> <Gold.PLP.part.nonpolar>
-24.6512

> <Gold.PLP.part.repulsive>
0.1739

> <Gold.PLP.ligand.clash>
0.0000

> <Gold.PLP.ligand.torsion>
0.7944

> <Gold.PLP.Chemscore.Hbond>
3.4656

> <Gold.PLP.Chemscore.CHOScore>
0.0000

> <Gold.PLP.Chemscore.Metal>
0.0000

> <Gold.Chemscore.Hbonds>
donor molecule, donor type, donor heavy atom, donor atom, acceptor molecule, acceptor atom, score
      P1  H  6896  6908       L1     6  2.00
      P1  H  6931  6943       L1     4  0.94
      P1  H  6934  6947       L1     4  0.54

> <Gold.PLP.Chemscore.Internal.Correction>
0.1853

> <Gold.Rescore>
     Score         DG    S(hbond)    S(metal)    S(lipo)     H(rot)  DE(clash)    DE(int)     intcor
     13.51     -16.85       1.91        0.00      76.56       1.56       0.00       3.34       ----

> <Gold.Chemscore.Fitness>
13.5075

> <Gold.Chemscore.DG>
-16.8507

> <Gold.Chemscore.ZeroCoef>
-5.4800

> <Gold.Chemscore.Hbond>
1.9148

> <Gold.Chemscore.Metal>
0.0000

> <Gold.Chemscore.Lipo>
76.5614

> <Gold.Chemscore.Internal_Hbond>
0.0000

> <Gold.Chemscore.DEClash>
0.0029

> <Gold.Chemscore.DEInternal>
3.3403

> <Gold.Chemscore.Rot>
1.5556

> <Gold.Chemscore.Internal.Correction>
   9.000000E+99

> <Gold.Chemscore.Hbonds>
donor molecule, donor type, donor heavy atom, donor atom, acceptor molecule, acceptor atom, score
      P1  H  6896  6908       L1     6  0.43
      P1  H  6931  6943       L1     4  0.61
      P1  H  6934  6947       L1     4  0.05

> <Gold.Chemscore.Hbond.Weighted>
-6.3953

> <Gold.Chemscore.Metal.Weighted>
-0.0000

> <Gold.Chemscore.Lipo.Weighted>
-8.9577

> <Gold.Chemscore.Internal_Hbond.Weighted>
0.0000

> <Gold.Chemscore.DEClash.Weighted>
0.0029

> <Gold.Chemscore.DEInternal.Weighted>
3.3403

> <Gold.Chemscore.Rot.Weighted>
3.9823

> <Gold.Chemscore.Internal.Correction.Weighted>
   9.000000E+99

> <Gold.Protein.RotatedTorsions>
[ 6907 6896 6895 6894 ] final -167.66 input  -60.11 | X-H torsion
[ 7974 7965 7964 7962 ] final   39.61 input  175.53 | X-H torsion
[ 8008 7997 7996 7995 ] final  -21.53 input   59.86 | X-H torsion
[ 10167 10162 10161 10158 ] final  -82.38 input  -65.29 | X-H torsion
[ 10718 10713 10712 10709 ] final  -15.91 input   66.30 | X-H torsion
[ 10763 10752 10751 10750 ] final  -42.01 input  -60.55 | X-H torsion
[ 11005 11000 10999 10996 ] final -175.77 input  -57.11 | X-H torsion

> <Gold.Protein.ActiveResidues>
 VAL166  LYS551  ARG553  GLY616  TRP617  ASP618  TYR619  PRO620  LYS621  CYS622 
 ASP623  PHE694  ASN695  SER759  ASP760  ASP761  ALA762  ILE779  LEU786  VAL792 
 PHE793  MET794  SER795  GLU796  ALA797  LYS798  CYS799  TRP800  GLU811  SER814 

> <Gold.Protein.RotatedAtoms>
  151.4631  133.3588  159.2811 H   0  0  0  0  0  0  0  0  0  0  0  0  # atno 6907 bound_to 6896
  150.9012  134.8426  159.7372 H   0  0  0  0  0  0  0  0  0  0  0  0  # atno 6908 bound_to 6896
  152.4880  134.4551  159.9639 H   0  0  0  0  0  0  0  0  0  0  0  0  # atno 6909 bound_to 6896
  146.0970  139.5631  142.9439 H   0  0  0  0  0  0  0  0  0  0  0  0  # atno 7974 bound_to 7965
  154.4700  140.2032  156.0020 H   0  0  0  0  0  0  0  0  0  0  0  0  # atno 8008 bound_to 7997
  156.0994  140.3246  155.7892 H   0  0  0  0  0  0  0  0  0  0  0  0  # atno 8009 bound_to 7997
  155.4824  140.0539  157.2956 H   0  0  0  0  0  0  0  0  0  0  0  0  # atno 8010 bound_to 7997
  140.4325  143.2543  151.8739 H   0  0  0  0  0  0  0  0  0  0  0  0  # atno 10167 bound_to 10162
  156.5950  130.4809  149.6263 H   0  0  0  0  0  0  0  0  0  0  0  0  # atno 10718 bound_to 10713
  153.9719  135.6727  153.4747 H   0  0  0  0  0  0  0  0  0  0  0  0  # atno 10763 bound_to 10752
  153.0789  135.4934  154.8458 H   0  0  0  0  0  0  0  0  0  0  0  0  # atno 10764 bound_to 10752
  154.7214  135.3118  154.9002 H   0  0  0  0  0  0  0  0  0  0  0  0  # atno 10765 bound_to 10752
  140.4596  134.6267  157.4837 H   0  0  0  0  0  0  0  0  0  0  0  0  # atno 11005 bound_to 11000
  145.5928  141.0367  143.2060 LP  0  0  0  0  0  0  0  0  0  0  0  0  # atno 17320 bound_to 7965
  144.7403  139.7468  143.7313 LP  0  0  0  0  0  0  0  0  0  0  0  0  # atno 17321 bound_to 7965
  139.4785  144.5319  151.8655 LP  0  0  0  0  0  0  0  0  0  0  0  0  # atno 17342 bound_to 10162
  140.4411  144.1985  150.5891 LP  0  0  0  0  0  0  0  0  0  0  0  0  # atno 17343 bound_to 10162
  156.2517  130.6911  151.1651 LP  0  0  0  0  0  0  0  0  0  0  0  0  # atno 17370 bound_to 10713
  157.7294  131.0624  150.5775 LP  0  0  0  0  0  0  0  0  0  0  0  0  # atno 17371 bound_to 10713
  139.9954  134.6919  155.9618 LP  0  0  0  0  0  0  0  0  0  0  0  0  # atno 17394 bound_to 11000
  141.1627  133.6538  156.4374 LP  0  0  0  0  0  0  0  0  0  0  0  0  # atno 17395 bound_to 11000

$$$$
