AV-unprocessed.smi:763|AV-procd|sdf|3638|dock1
  -GOLD-   22720 1 33D 1   1.00000     0.00000
 Structure written by MMmdl.
 43 44  0  0  0  0  0  0  0  0  2 V2000
  152.0078  143.7704  161.7589 C   0  0  0  0  0  0  0  0  0  0  0  0
  153.0287  142.9245  162.2575 O   0  0  0  0  0  0  0  0  0  0  0  0
  153.2798  141.8163  161.4091 C   0  0  0  0  0  0  0  0  0  0  0  0
  153.5332  142.3249  159.9813 C   0  0  0  0  0  0  0  0  0  0  0  0
  152.7406  141.6181  159.0269 O   0  0  0  0  0  0  0  0  0  0  0  0
  152.8390  140.2405  158.9226 C   0  0  0  0  0  0  0  0  0  0  0  0
  153.7889  139.6095  159.6593 N   0  0  0  0  0  0  0  0  0  0  0  0
  153.8890  138.2694  159.5724 C   0  0  0  0  0  0  0  0  0  0  0  0
  153.0528  137.4917  158.7553 C   0  0  0  0  0  0  0  0  0  0  0  0
  152.0685  138.1485  157.9953 C   0  0  0  0  0  0  0  0  0  0  0  0
  151.9399  139.5579  158.0635 C   0  0  0  0  0  0  0  0  0  0  0  0
  151.0213  140.2434  157.3615 N   0  5  0  0  0  0  0  0  0  0  0  0
  150.5991  139.9847  155.8204 S   0  0  0  0  0  0  0  0  0  0  0  0
  151.6977  140.3116  154.8985 O   0  0  0  0  0  0  0  0  0  0  0  0
  149.9541  138.6738  155.6457 O   0  0  0  0  0  0  0  0  0  0  0  0
  149.2710  141.2697  155.5933 C   0  0  2  0  0  0  0  0  0  0  0  0
  148.1883  141.0836  156.6805 C   0  0  0  0  0  0  0  0  0  0  0  0
  147.0384  142.0885  156.5295 C   0  0  0  0  0  0  0  0  0  0  0  0
  146.3983  141.9734  155.1406 C   0  0  0  0  0  0  0  0  0  0  0  0
  147.4484  142.1840  154.0422 C   0  0  0  0  0  0  0  0  0  0  0  0
  148.6329  141.2066  154.1808 C   0  0  1  0  0  0  0  0  0  0  0  0
  149.5630  141.5534  153.1747 O   0  0  0  0  0  0  0  0  0  0  0  0
  151.8587  144.6061  162.4424 H   0  0  0  0  0  0  0  0  0  0  0  0
  151.0614  143.2354  161.6699 H   0  0  0  0  0  0  0  0  0  0  0  0
  152.2736  144.1774  160.7823 H   0  0  0  0  0  0  0  0  0  0  0  0
  154.1211  141.2279  161.7772 H   0  0  0  0  0  0  0  0  0  0  0  0
  152.4049  141.1645  161.4085 H   0  0  0  0  0  0  0  0  0  0  0  0
  153.3682  143.4011  159.9140 H   0  0  0  0  0  0  0  0  0  0  0  0
  154.5831  142.1786  159.7266 H   0  0  0  0  0  0  0  0  0  0  0  0
  154.6572  137.8045  160.1721 H   0  0  0  0  0  0  0  0  0  0  0  0
  153.1616  136.4185  158.7111 H   0  0  0  0  0  0  0  0  0  0  0  0
  151.4222  137.5558  157.3650 H   0  0  0  0  0  0  0  0  0  0  0  0
  149.7442  142.2435  155.7235 H   0  0  0  0  0  0  0  0  0  0  0  0
  147.7817  140.0728  156.6315 H   0  0  0  0  0  0  0  0  0  0  0  0
  148.6299  141.1873  157.6718 H   0  0  0  0  0  0  0  0  0  0  0  0
  146.2884  141.9140  157.3013 H   0  0  0  0  0  0  0  0  0  0  0  0
  147.4126  143.1018  156.6822 H   0  0  0  0  0  0  0  0  0  0  0  0
  145.9383  140.9910  155.0267 H   0  0  0  0  0  0  0  0  0  0  0  0
  145.5978  142.7063  155.0367 H   0  0  0  0  0  0  0  0  0  0  0  0
  146.9813  142.0693  153.0631 H   0  0  0  0  0  0  0  0  0  0  0  0
  147.8110  143.2121  154.0911 H   0  0  0  0  0  0  0  0  0  0  0  0
  148.2854  140.1908  153.9878 H   0  0  0  0  0  0  0  0  0  0  0  0
  149.5109  140.9126  152.4827 H   0  0  0  0  0  0  0  0  0  0  0  0
  1  2  1  0  0  0  0
  1 23  1  0  0  0  0
  1 24  1  0  0  0  0
  1 25  1  0  0  0  0
  2  3  1  0  0  0  0
  3  4  1  0  0  0  0
  3 26  1  0  0  0  0
  3 27  1  0  0  0  0
  4  5  1  0  0  0  0
  4 28  1  0  0  0  0
  4 29  1  0  0  0  0
  5  6  1  0  0  0  0
  6 11  1  0  0  0  0
  6  7  2  0  0  0  0
  7  8  1  0  0  0  0
  8  9  2  0  0  0  0
  8 30  1  0  0  0  0
  9 10  1  0  0  0  0
  9 31  1  0  0  0  0
 10 11  2  0  0  0  0
 10 32  1  0  0  0  0
 11 12  1  0  0  0  0
 12 13  1  0  0  0  0
 13 14  2  0  0  0  0
 13 15  2  0  0  0  0
 13 16  1  0  0  0  0
 16 21  1  0  0  0  0
 16 17  1  0  0  0  0
 16 33  1  0  0  0  0
 17 18  1  0  0  0  0
 17 34  1  0  0  0  0
 17 35  1  0  0  0  0
 18 19  1  0  0  0  0
 18 36  1  0  0  0  0
 18 37  1  0  0  0  0
 19 20  1  0  0  0  0
 19 38  1  0  0  0  0
 19 39  1  0  0  0  0
 20 21  1  0  0  0  0
 20 40  1  0  0  0  0
 20 41  1  0  0  0  0
 21 22  1  0  0  0  0
 21 42  1  0  0  0  0
 22 43  1  0  0  0  0
M  CHG  1  12  -1
M  END
> <s_m_source_file>
AV-unprocessed.smi

> <i_m_source_file_index>
763

> <i_lp_mmshare_version>
43012

> <i_f3d_flags>
0

> <s_epik_input>
W0NIM11PW0NIMl1bQ0gyXU9jMW5bY0hdW2NIXVtjSF1jMVtOSF1TKD1PKSg9TylbQ0BASF0yW0NIMl1bQ0gyXVtDSDJdW0NIMl1bQ0BIXTJbT0hd

> <s_epik_cmdline>
J2VwaWtfcHl0aG9uJywgJy1waCcsICc3LjAnLCAnLXRuJywgJzgnLCAnLW1hJywgJzIwMCcsICctbWV0YWxfYmluZGluZycsICctaW1hZScsICc8aW5maWxlLm1hZT4nLCAnLW9tYWUnLCAnPG91dGZpbGUubWFlPic=

> <r_epik_Ionization_Penalty>
0.985866

> <r_epik_Ionization_Penalty_Charging>
0.984689

> <r_epik_Ionization_Penalty_Neutral>
0.00117669

> <r_epik_State_Penalty>
1.03185

> <r_epik_Charging_Adjusted_Penalty>
2.01654

> <i_epik_Tot_Q>
-1

> <i_epik_Tot_abs_Q>
1

> <r_epik_Metal_State_Penalty>
0.379327

> <b_epik_Metal_Only>
0

> <s_lp_Force_Field>
OPLS_2005

> <r_lp_Energy>
11.4471

> <b_lp_Chiralities_Consistent>
1

> <s_lp_Variant>
AV-unprocessed.smi:763-5

> <Gold.Version>
5.8.1

> <Gold.Id.Protein>
6NUR|6NUR_protein|mol2

> <Gold.PLP.Fitness>
45.0784

> <Gold.PLP.PLP>
-37.5812

> <Gold.PLP.part.hbond>
-3.5782

> <Gold.PLP.part.metal>
0.0000

> <Gold.PLP.part.buried>
-5.1940

> <Gold.PLP.part.nonpolar>
-28.2695

> <Gold.PLP.part.repulsive>
0.1464

> <Gold.PLP.ligand.clash>
0.0000

> <Gold.PLP.ligand.torsion>
1.4237

> <Gold.PLP.Chemscore.Hbond>
2.9120

> <Gold.PLP.Chemscore.CHOScore>
0.0000

> <Gold.PLP.Chemscore.Metal>
0.0000

> <Gold.Chemscore.Hbonds>
donor molecule, donor type, donor heavy atom, donor atom, acceptor molecule, acceptor atom, score
      L1  H    22    43       P1  7957  1.00
      P1  H  7989  7998       L1    14  0.84
      P1  H  8011  8017       L1    22  0.11

> <Gold.PLP.Chemscore.Internal.Correction>
1.6087

> <Gold.Rescore>
     Score         DG    S(hbond)    S(metal)    S(lipo)     H(rot)  DE(clash)    DE(int)     intcor
     15.64     -17.20       2.38        0.00      83.68       2.35       0.06       1.50       ----

> <Gold.Chemscore.Fitness>
15.6367

> <Gold.Chemscore.DG>
-17.1950

> <Gold.Chemscore.ZeroCoef>
-5.4800

> <Gold.Chemscore.Hbond>
2.3782

> <Gold.Chemscore.Metal>
0.0000

> <Gold.Chemscore.Lipo>
83.6757

> <Gold.Chemscore.Internal_Hbond>
0.0000

> <Gold.Chemscore.DEClash>
0.0618

> <Gold.Chemscore.DEInternal>
1.4966

> <Gold.Chemscore.Rot>
2.3509

> <Gold.Chemscore.Internal.Correction>
   9.000000E+99

> <Gold.Chemscore.Hbonds>
donor molecule, donor type, donor heavy atom, donor atom, acceptor molecule, acceptor atom, score
      L1  H    22    43       P1  7957  0.97
      P1  H  7989  7998       L1    14  0.79

> <Gold.Chemscore.Hbond.Weighted>
-7.9432

> <Gold.Chemscore.Metal.Weighted>
-0.0000

> <Gold.Chemscore.Lipo.Weighted>
-9.7901

> <Gold.Chemscore.Internal_Hbond.Weighted>
0.0000

> <Gold.Chemscore.DEClash.Weighted>
0.0618

> <Gold.Chemscore.DEInternal.Weighted>
1.4966

> <Gold.Chemscore.Rot.Weighted>
6.0182

> <Gold.Chemscore.Internal.Correction.Weighted>
   9.000000E+99

> <Gold.Protein.RotatedTorsions>
[ 6907 6896 6895 6894 ] final  134.96 input  -60.11 | X-H torsion
[ 7974 7965 7964 7962 ] final   63.71 input  175.53 | X-H torsion
[ 8008 7997 7996 7995 ] final    4.55 input   59.86 | X-H torsion
[ 10167 10162 10161 10158 ] final  -53.94 input  -65.29 | X-H torsion
[ 10718 10713 10712 10709 ] final  -48.24 input   66.30 | X-H torsion
[ 10763 10752 10751 10750 ] final  106.39 input  -60.55 | X-H torsion
[ 11005 11000 10999 10996 ] final -105.43 input  -57.11 | X-H torsion

> <Gold.Protein.ActiveResidues>
 VAL166  LYS551  ARG553  GLY616  TRP617  ASP618  TYR619  PRO620  LYS621  CYS622 
 ASP623  PHE694  ASN695  SER759  ASP760  ASP761  ALA762  ILE779  LEU786  VAL792 
 PHE793  MET794  SER795  GLU796  ALA797  LYS798  CYS799  TRP800  GLU811  SER814 

> <Gold.Protein.RotatedAtoms>
  152.3057  133.5700  159.5647 H   0  0  0  0  0  0  0  0  0  0  0  0  # atno 6907 bound_to 6896
  150.7298  134.0227  159.3715 H   0  0  0  0  0  0  0  0  0  0  0  0  # atno 6908 bound_to 6896
  151.8123  135.0677  160.0465 H   0  0  0  0  0  0  0  0  0  0  0  0  # atno 6909 bound_to 6896
  145.8586  139.3300  143.0832 H   0  0  0  0  0  0  0  0  0  0  0  0  # atno 7974 bound_to 7965
  154.7174  140.2705  155.6573 H   0  0  0  0  0  0  0  0  0  0  0  0  # atno 8008 bound_to 7997
  156.2813  140.2741  156.1759 H   0  0  0  0  0  0  0  0  0  0  0  0  # atno 8009 bound_to 7997
  155.0553  140.0371  157.2548 H   0  0  0  0  0  0  0  0  0  0  0  0  # atno 8010 bound_to 7997
  140.6458  143.2534  151.4864 H   0  0  0  0  0  0  0  0  0  0  0  0  # atno 10167 bound_to 10162
  156.2007  130.4156  149.9245 H   0  0  0  0  0  0  0  0  0  0  0  0  # atno 10718 bound_to 10713
  153.3924  135.3878  155.1932 H   0  0  0  0  0  0  0  0  0  0  0  0  # atno 10763 bound_to 10752
  154.8720  135.3751  154.4721 H   0  0  0  0  0  0  0  0  0  0  0  0  # atno 10764 bound_to 10752
  153.5209  135.7087  153.5793 H   0  0  0  0  0  0  0  0  0  0  0  0  # atno 10765 bound_to 10752
  141.1054  133.8807  157.1733 H   0  0  0  0  0  0  0  0  0  0  0  0  # atno 11005 bound_to 11000
  145.9274  140.9073  143.0374 LP  0  0  0  0  0  0  0  0  0  0  0  0  # atno 17320 bound_to 7965
  144.6727  140.1371  143.7439 LP  0  0  0  0  0  0  0  0  0  0  0  0  # atno 17321 bound_to 7965
  139.5668  144.2022  152.1777 LP  0  0  0  0  0  0  0  0  0  0  0  0  # atno 17342 bound_to 10162
  140.1307  144.5291  150.6804 LP  0  0  0  0  0  0  0  0  0  0  0  0  # atno 17343 bound_to 10162
  156.6955  130.8912  151.3593 LP  0  0  0  0  0  0  0  0  0  0  0  0  # atno 17370 bound_to 10713
  157.6984  130.9306  150.0712 LP  0  0  0  0  0  0  0  0  0  0  0  0  # atno 17371 bound_to 10713
  139.9922  135.0060  157.0000 LP  0  0  0  0  0  0  0  0  0  0  0  0  # atno 17394 bound_to 11000
  140.4916  134.1187  155.7234 LP  0  0  0  0  0  0  0  0  0  0  0  0  # atno 17395 bound_to 11000

$$$$
