AV-unprocessed.smi:819|AV-procd|sdf|3835|dock10
  -GOLD-   22720 1283D 1   1.00000     0.00000
 Structure written by MMmdl.
 40 41  0  0  0  0  0  0  0  0  1 V2000
  146.8014  139.7496  151.6775 C   0  0  0  0  0  0  0  0  0  0  0  0
  146.6505  138.7593  152.8443 C   0  0  1  0  0  0  0  0  0  0  0  0
  146.7490  137.4028  152.3073 N   0  0  0  0  0  0  0  0  0  0  0  0
  145.7102  136.5847  152.0795 C   0  0  0  0  0  0  0  0  0  0  0  0
  144.5410  136.9031  152.2937 O   0  0  0  0  0  0  0  0  0  0  0  0
  146.1262  135.3967  151.6075 N   0  0  0  0  0  0  0  0  0  0  0  0
  145.3643  134.2546  151.2346 C   0  0  0  0  0  0  0  0  0  0  0  0
  145.8622  133.1508  150.4987 C   0  0  0  0  0  0  0  0  0  0  0  0
  144.9945  132.0808  150.2069 C   0  0  0  0  0  0  0  0  0  0  0  0
  143.6641  132.1484  150.6628 C   0  0  0  0  0  0  0  0  0  0  0  0
  143.1770  133.1892  151.3699 N   0  0  0  0  0  0  0  0  0  0  0  0
  144.0143  134.2118  151.6448 C   0  0  0  0  0  0  0  0  0  0  0  0
  147.7779  139.0195  153.8558 C   0  0  0  0  0  0  0  0  0  0  0  0
  147.8167  140.0729  154.4939 O   0  0  0  0  0  0  0  0  0  0  0  0
  148.6881  138.0434  153.9895 N   0  0  0  0  0  0  0  0  0  0  0  0
  149.8529  138.0927  154.8684 C   0  0  0  0  0  0  0  0  0  0  0  0
  149.4550  138.4761  156.3080 C   0  0  0  0  0  0  0  0  0  0  0  0
  149.9371  139.9130  156.5073 C   0  0  0  0  0  0  0  0  0  0  0  0
  151.1826  140.0108  155.6322 C   0  0  0  0  0  0  0  0  0  0  0  0
  150.8468  139.1724  154.3973 C   0  0  0  0  0  0  0  0  0  0  0  0
  146.7413  140.7823  152.0239 H   0  0  0  0  0  0  0  0  0  0  0  0
  146.0080  139.6084  150.9433 H   0  0  0  0  0  0  0  0  0  0  0  0
  147.7544  139.6276  151.1598 H   0  0  0  0  0  0  0  0  0  0  0  0
  145.6760  138.8998  153.3167 H   0  0  0  0  0  0  0  0  0  0  0  0
  147.6779  137.0592  152.1130 H   0  0  0  0  0  0  0  0  0  0  0  0
  147.1264  135.2857  151.5262 H   0  0  0  0  0  0  0  0  0  0  0  0
  146.8827  133.0905  150.1574 H   0  0  0  0  0  0  0  0  0  0  0  0
  145.3424  131.2252  149.6470 H   0  0  0  0  0  0  0  0  0  0  0  0
  142.9743  131.3434  150.4569 H   0  0  0  0  0  0  0  0  0  0  0  0
  143.5891  135.0263  152.2133 H   0  0  0  0  0  0  0  0  0  0  0  0
  148.5791  137.2147  153.4231 H   0  0  0  0  0  0  0  0  0  0  0  0
  150.3472  137.1194  154.8733 H   0  0  0  0  0  0  0  0  0  0  0  0
  148.3878  138.3720  156.5096 H   0  0  0  0  0  0  0  0  0  0  0  0
  149.9763  137.8224  157.0088 H   0  0  0  0  0  0  0  0  0  0  0  0
  149.1778  140.6087  156.1470 H   0  0  0  0  0  0  0  0  0  0  0  0
  150.1371  140.1480  157.5530 H   0  0  0  0  0  0  0  0  0  0  0  0
  151.4416  141.0402  155.3830 H   0  0  0  0  0  0  0  0  0  0  0  0
  152.0326  139.5704  156.1552 H   0  0  0  0  0  0  0  0  0  0  0  0
  151.7405  138.7398  153.9464 H   0  0  0  0  0  0  0  0  0  0  0  0
  150.3888  139.8174  153.6457 H   0  0  0  0  0  0  0  0  0  0  0  0
  1  2  1  0  0  0  0
  1 21  1  0  0  0  0
  1 22  1  0  0  0  0
  1 23  1  0  0  0  0
  2  3  1  0  0  0  0
  2 13  1  0  0  0  0
  2 24  1  0  0  0  0
  3  4  1  0  0  0  0
  3 25  1  0  0  0  0
  4  5  2  0  0  0  0
  4  6  1  0  0  0  0
  6  7  1  0  0  0  0
  6 26  1  0  0  0  0
  7 12  1  0  0  0  0
  7  8  2  0  0  0  0
  8  9  1  0  0  0  0
  8 27  1  0  0  0  0
  9 10  2  0  0  0  0
  9 28  1  0  0  0  0
 10 11  1  0  0  0  0
 10 29  1  0  0  0  0
 11 12  2  0  0  0  0
 12 30  1  0  0  0  0
 13 14  2  0  0  0  0
 13 15  1  0  0  0  0
 15 16  1  0  0  0  0
 15 31  1  0  0  0  0
 16 20  1  0  0  0  0
 16 17  1  0  0  0  0
 16 32  1  0  0  0  0
 17 18  1  0  0  0  0
 17 33  1  0  0  0  0
 17 34  1  0  0  0  0
 18 19  1  0  0  0  0
 18 35  1  0  0  0  0
 18 36  1  0  0  0  0
 19 20  1  0  0  0  0
 19 37  1  0  0  0  0
 19 38  1  0  0  0  0
 20 39  1  0  0  0  0
 20 40  1  0  0  0  0
M  END
> <s_m_source_file>
AV-unprocessed.smi

> <i_m_source_file_index>
819

> <i_lp_mmshare_version>
43012

> <i_f3d_flags>
0

> <s_epik_input>
W0NIMl0xW0NIMl1bQ0gyXVtDSDJdW0NIXTFbTkhdQyg9TylbQ0BIXShbQ0gzXSlbTkhdQyg9TylbTkhdYzJbY0hdW2NIXVtjSF1uW2NIXTI=

> <s_epik_cmdline>
J2VwaWtfcHl0aG9uJywgJy1waCcsICc3LjAnLCAnLXRuJywgJzgnLCAnLW1hJywgJzIwMCcsICctbWV0YWxfYmluZGluZycsICctaW1hZScsICc8aW5maWxlLm1hZT4nLCAnLW9tYWUnLCAnPG91dGZpbGUubWFlPic=

> <r_epik_Ionization_Penalty>
0.00416979

> <r_epik_Ionization_Penalty_Charging>
0

> <r_epik_Ionization_Penalty_Neutral>
0.00416979

> <r_epik_State_Penalty>
0.00297037

> <r_epik_Charging_Adjusted_Penalty>
0.00297037

> <i_epik_Tot_Q>
0

> <i_epik_Tot_abs_Q>
0

> <r_epik_Metal_State_Penalty>
-0

> <b_epik_Metal_Only>
0

> <s_lp_Force_Field>
OPLS_2005

> <r_lp_Energy>
20.1385

> <b_lp_Chiralities_Consistent>
1

> <s_lp_Variant>
AV-unprocessed.smi:819-2

> <Gold.Version>
5.8.1

> <Gold.Id.Protein>
6NUR|6NUR_protein|mol2

> <Gold.PLP.Fitness>
43.3594

> <Gold.PLP.PLP>
-32.6131

> <Gold.PLP.part.hbond>
-2.9640

> <Gold.PLP.part.metal>
0.0000

> <Gold.PLP.part.buried>
-2.8234

> <Gold.PLP.part.nonpolar>
-28.5550

> <Gold.PLP.part.repulsive>
1.2868

> <Gold.PLP.ligand.clash>
0.0000

> <Gold.PLP.ligand.torsion>
0.4243

> <Gold.PLP.Chemscore.Hbond>
2.8714

> <Gold.PLP.Chemscore.CHOScore>
0.9882

> <Gold.PLP.Chemscore.Metal>
0.0000

> <Gold.Chemscore.Hbonds>
donor molecule, donor type, donor heavy atom, donor atom, acceptor molecule, acceptor atom, score
      L1  H     3    25       P1  7948  0.99
      L1  H     6    26       P1  7948  0.87
      L1  H    15    31       P1  7948  0.99
      L1  C    10    29       P1 10952  1.00

> <Gold.PLP.Chemscore.Internal.Correction>
0.0162

> <Gold.Rescore>
     Score         DG    S(hbond)    S(metal)    S(lipo)     H(rot)  DE(clash)    DE(int)     intcor
     15.54     -20.16       2.77        0.00      79.70       1.52       0.41       4.21       ----

> <Gold.Chemscore.Fitness>
15.5388

> <Gold.Chemscore.DG>
-20.1623

> <Gold.Chemscore.ZeroCoef>
-5.4800

> <Gold.Chemscore.Hbond>
2.7709

> <Gold.Chemscore.Metal>
0.0000

> <Gold.Chemscore.Lipo>
79.7026

> <Gold.Chemscore.Internal_Hbond>
0.0000

> <Gold.Chemscore.DEClash>
0.4105

> <Gold.Chemscore.DEInternal>
4.2131

> <Gold.Chemscore.Rot>
1.5225

> <Gold.Chemscore.Internal.Correction>
   9.000000E+99

> <Gold.Chemscore.Hbonds>
donor molecule, donor type, donor heavy atom, donor atom, acceptor molecule, acceptor atom, score
      L1  H     3    25       P1  7948  0.92
      L1  H     6    26       P1  7948  0.77
      L1  H    15    31       P1  7948  0.94

> <Gold.Chemscore.Hbond.Weighted>
-9.2548

> <Gold.Chemscore.Metal.Weighted>
-0.0000

> <Gold.Chemscore.Lipo.Weighted>
-9.3252

> <Gold.Chemscore.Internal_Hbond.Weighted>
0.0000

> <Gold.Chemscore.DEClash.Weighted>
0.4105

> <Gold.Chemscore.DEInternal.Weighted>
4.2131

> <Gold.Chemscore.Rot.Weighted>
3.8977

> <Gold.Chemscore.Internal.Correction.Weighted>
   9.000000E+99

> <Gold.Protein.RotatedTorsions>
[ 6907 6896 6895 6894 ] final    1.33 input  -60.11 | X-H torsion
[ 7974 7965 7964 7962 ] final -160.98 input  175.53 | X-H torsion
[ 8008 7997 7996 7995 ] final  -35.36 input   59.86 | X-H torsion
[ 10167 10162 10161 10158 ] final  175.55 input  -65.29 | X-H torsion
[ 10718 10713 10712 10709 ] final  174.70 input   66.30 | X-H torsion
[ 10763 10752 10751 10750 ] final  175.53 input  -60.55 | X-H torsion
[ 11005 11000 10999 10996 ] final   -0.94 input  -57.11 | X-H torsion

> <Gold.Protein.ActiveResidues>
 VAL166  LYS551  ARG553  GLY616  TRP617  ASP618  TYR619  PRO620  LYS621  CYS622 
 ASP623  PHE694  ASN695  SER759  ASP760  ASP761  ALA762  ILE779  LEU786  VAL792 
 PHE793  MET794  SER795  GLU796  ALA797  LYS798  CYS799  TRP800  GLU811  SER814 

> <Gold.Protein.RotatedAtoms>
  151.5910  135.1053  160.0038 H   0  0  0  0  0  0  0  0  0  0  0  0  # atno 6907 bound_to 6896
  152.4306  133.7267  159.6575 H   0  0  0  0  0  0  0  0  0  0  0  0  # atno 6908 bound_to 6896
  150.8199  133.8201  159.3166 H   0  0  0  0  0  0  0  0  0  0  0  0  # atno 6909 bound_to 6896
  144.7407  140.3464  143.6124 H   0  0  0  0  0  0  0  0  0  0  0  0  # atno 7974 bound_to 7965
  154.4097  140.1659  156.2198 H   0  0  0  0  0  0  0  0  0  0  0  0  # atno 8008 bound_to 7997
  155.9373  140.3410  155.6275 H   0  0  0  0  0  0  0  0  0  0  0  0  # atno 8009 bound_to 7997
  155.7033  140.0747  157.2392 H   0  0  0  0  0  0  0  0  0  0  0  0  # atno 8010 bound_to 7997
  139.5181  144.3018  152.0372 H   0  0  0  0  0  0  0  0  0  0  0  0  # atno 10167 bound_to 10162
  156.9457  131.0015  151.2959 H   0  0  0  0  0  0  0  0  0  0  0  0  # atno 10718 bound_to 10713
  154.4688  135.2770  155.1658 H   0  0  0  0  0  0  0  0  0  0  0  0  # atno 10763 bound_to 10752
  154.3415  135.6169  153.5602 H   0  0  0  0  0  0  0  0  0  0  0  0  # atno 10764 bound_to 10752
  152.9862  135.5789  154.5065 H   0  0  0  0  0  0  0  0  0  0  0  0  # atno 10765 bound_to 10752
  140.6418  133.9482  155.8330 H   0  0  0  0  0  0  0  0  0  0  0  0  # atno 11005 bound_to 11000
  145.7321  139.1739  143.2424 LP  0  0  0  0  0  0  0  0  0  0  0  0  # atno 17320 bound_to 7965
  146.1198  140.7323  142.9463 LP  0  0  0  0  0  0  0  0  0  0  0  0  # atno 17321 bound_to 7965
  140.2465  144.4214  150.6239 LP  0  0  0  0  0  0  0  0  0  0  0  0  # atno 17342 bound_to 10162
  140.6254  143.2181  151.6607 LP  0  0  0  0  0  0  0  0  0  0  0  0  # atno 17343 bound_to 10162
  157.5755  130.8340  149.8450 LP  0  0  0  0  0  0  0  0  0  0  0  0  # atno 17370 bound_to 10713
  156.0384  130.3745  150.1498 LP  0  0  0  0  0  0  0  0  0  0  0  0  # atno 17371 bound_to 10713
  141.0601  134.0359  157.3670 LP  0  0  0  0  0  0  0  0  0  0  0  0  # atno 17394 bound_to 11000
  139.9077  135.0183  156.7559 LP  0  0  0  0  0  0  0  0  0  0  0  0  # atno 17395 bound_to 11000

$$$$
