AV-unprocessed.smi:1029|AV-procd|sdf|4476|dock2
  -GOLD-   22720 2453D 1   1.00000     0.00000
 Structure written by MMmdl.
 46 47  0  0  0  0  0  0  0  0  2 V2000
  152.7714  143.0000  159.4866 C   0  0  0  0  0  0  0  0  0  0  0  0
  151.9381  142.3947  158.3956 C   0  0  0  0  0  0  0  0  0  0  0  0
  150.9465  143.0230  157.5921 C   0  0  0  0  0  0  0  0  0  0  0  0
  150.5247  142.0049  156.7787 C   0  0  0  0  0  0  0  0  0  0  0  0
  149.5813  142.0399  155.8010 N   0  0  0  0  0  0  0  0  0  0  0  0
  149.4147  141.2044  154.7604 C   0  0  0  0  0  0  0  0  0  0  0  0
  150.1352  140.2433  154.4906 O   0  0  0  0  0  0  0  0  0  0  0  0
  148.3435  141.5420  154.0299 N   0  0  0  0  0  0  0  0  0  0  0  0
  147.8849  140.7986  152.8631 C   0  0  0  0  0  0  0  0  0  0  0  0
  147.5240  139.3493  153.2315 C   0  0  2  0  0  0  0  0  0  0  0  0
  148.7178  138.5904  153.2604 O   0  0  0  0  0  0  0  0  0  0  0  0
  146.5891  138.7163  152.1806 C   0  0  0  0  0  0  0  0  0  0  0  0
  146.5523  137.2338  152.2720 N   0  3  2  0  0  0  0  0  0  0  0  0
  145.8316  136.6131  151.1311 C   0  0  0  0  0  0  0  0  0  0  0  0
  145.9439  135.0782  151.1710 C   0  0  0  0  0  0  0  0  0  0  0  0
  145.4506  134.4913  152.5058 C   0  0  2  0  0  0  0  0  0  0  0  0
  143.9174  134.5137  152.6345 C   0  0  0  0  0  0  0  0  0  0  0  0
  146.1580  135.2056  153.6724 C   0  0  0  0  0  0  0  0  0  0  0  0
  146.0405  136.7377  153.5768 C   0  0  0  0  0  0  0  0  0  0  0  0
  151.1866  140.8539  157.0498 O   0  0  0  0  0  0  0  0  0  0  0  0
  152.0891  141.1148  158.0879 N   0  0  0  0  0  0  0  0  0  0  0  0
  152.7563  144.0890  159.4346 H   0  0  0  0  0  0  0  0  0  0  0  0
  153.8116  142.6812  159.4145 H   0  0  0  0  0  0  0  0  0  0  0  0
  152.3996  142.7087  160.4692 H   0  0  0  0  0  0  0  0  0  0  0  0
  150.6172  144.0505  157.6238 H   0  0  0  0  0  0  0  0  0  0  0  0
  148.9066  142.7856  155.8849 H   0  0  0  0  0  0  0  0  0  0  0  0
  147.7971  142.3426  154.3125 H   0  0  0  0  0  0  0  0  0  0  0  0
  147.0031  141.3076  152.4709 H   0  0  0  0  0  0  0  0  0  0  0  0
  148.6400  140.8213  152.0747 H   0  0  0  0  0  0  0  0  0  0  0  0
  147.0607  139.3284  154.2181 H   0  0  0  0  0  0  0  0  0  0  0  0
  148.5522  137.7487  152.8628 H   0  0  0  0  0  0  0  0  0  0  0  0
  145.5749  139.1066  152.2812 H   0  0  0  0  0  0  0  0  0  0  0  0
  146.9299  139.0200  151.1892 H   0  0  0  0  0  0  0  0  0  0  0  0
  144.7862  136.9241  151.1432 H   0  0  0  0  0  0  0  0  0  0  0  0
  146.2547  136.9717  150.1919 H   0  0  0  0  0  0  0  0  0  0  0  0
  145.3932  134.6397  150.3380 H   0  0  0  0  0  0  0  0  0  0  0  0
  146.9877  134.7974  151.0227 H   0  0  0  0  0  0  0  0  0  0  0  0
  145.7464  133.4417  152.5340 H   0  0  0  0  0  0  0  0  0  0  0  0
  143.5162  135.5266  152.6134 H   0  0  0  0  0  0  0  0  0  0  0  0
  143.5974  134.0518  153.5689 H   0  0  0  0  0  0  0  0  0  0  0  0
  143.4499  133.9583  151.8208 H   0  0  0  0  0  0  0  0  0  0  0  0
  145.7582  134.8574  154.6253 H   0  0  0  0  0  0  0  0  0  0  0  0
  147.2142  134.9324  153.6704 H   0  0  0  0  0  0  0  0  0  0  0  0
  146.6019  137.1847  154.3966 H   0  0  0  0  0  0  0  0  0  0  0  0
  145.0029  137.0489  153.7057 H   0  0  0  0  0  0  0  0  0  0  0  0
  147.5116  136.9259  152.1954 H   0  0  0  0  0  0  0  0  0  0  0  0
  1  2  1  0  0  0  0
  1 22  1  0  0  0  0
  1 23  1  0  0  0  0
  1 24  1  0  0  0  0
  2 21  2  0  0  0  0
  2  3  1  0  0  0  0
  3  4  2  0  0  0  0
  3 25  1  0  0  0  0
  4  5  1  0  0  0  0
  4 20  1  0  0  0  0
  5  6  1  0  0  0  0
  5 26  1  0  0  0  0
  6  7  2  0  0  0  0
  6  8  1  0  0  0  0
  8  9  1  0  0  0  0
  8 27  1  0  0  0  0
  9 10  1  0  0  0  0
  9 28  1  0  0  0  0
  9 29  1  0  0  0  0
 10 11  1  0  0  0  0
 10 12  1  0  0  0  0
 10 30  1  0  0  0  0
 11 31  1  0  0  0  0
 12 13  1  0  0  0  0
 12 32  1  0  0  0  0
 12 33  1  0  0  0  0
 13 19  1  0  0  0  0
 13 14  1  0  0  0  0
 13 46  1  0  0  0  0
 14 15  1  0  0  0  0
 14 34  1  0  0  0  0
 14 35  1  0  0  0  0
 15 16  1  0  0  0  0
 15 36  1  0  0  0  0
 15 37  1  0  0  0  0
 16 17  1  0  0  0  0
 16 18  1  0  0  0  0
 16 38  1  0  0  0  0
 17 39  1  0  0  0  0
 17 40  1  0  0  0  0
 17 41  1  0  0  0  0
 18 19  1  0  0  0  0
 18 42  1  0  0  0  0
 18 43  1  0  0  0  0
 19 44  1  0  0  0  0
 19 45  1  0  0  0  0
 20 21  1  0  0  0  0
M  CHG  1  13   1
M  END
> <s_m_source_file>
AV-unprocessed.smi

> <i_m_source_file_index>
1029

> <i_lp_mmshare_version>
43012

> <i_f3d_flags>
0

> <s_epik_input>
W0NIM11jMVtjSF1jKG9uMSlbTkhdQyg9TylbTkhdW0NIMl1bQ0BIXShbT0hdKVtDSDJdTjJbQ0gyXVtDSDJdW0NIXShbQ0gzXSlbQ0gyXVtDSDJdMg==

> <s_epik_cmdline>
J2VwaWtfcHl0aG9uJywgJy1waCcsICc3LjAnLCAnLXRuJywgJzgnLCAnLW1hJywgJzIwMCcsICctbWV0YWxfYmluZGluZycsICctaW1hZScsICc8aW5maWxlLm1hZT4nLCAnLW9tYWUnLCAnPG91dGZpbGUubWFlPic=

> <r_lp_tautomer_probability>
1

> <r_epik_Ionization_Penalty>
0.00211787

> <r_epik_Ionization_Penalty_Charging>
0.00153238

> <r_epik_Ionization_Penalty_Neutral>
0.000585488

> <r_epik_State_Penalty>
-0

> <r_epik_Charging_Adjusted_Penalty>
0.00153238

> <i_epik_Tot_Q>
1

> <i_epik_Tot_abs_Q>
1

> <r_epik_Metal_State_Penalty>
-0

> <b_epik_Metal_Only>
0

> <s_lp_Force_Field>
OPLS_2005

> <r_lp_Energy>
23.9078

> <b_lp_Chiralities_Consistent>
1

> <s_lp_Variant>
AV-unprocessed.smi:1029-3

> <Gold.Version>
5.8.1

> <Gold.Id.Protein>
6NUR|6NUR_protein|mol2

> <Gold.PLP.Fitness>
47.9543

> <Gold.PLP.PLP>
-34.4078

> <Gold.PLP.part.hbond>
-5.0000

> <Gold.PLP.part.metal>
0.0000

> <Gold.PLP.part.buried>
0.1666

> <Gold.PLP.part.nonpolar>
-29.3837

> <Gold.PLP.part.repulsive>
0.4992

> <Gold.PLP.ligand.clash>
0.0000

> <Gold.PLP.ligand.torsion>
0.4611

> <Gold.PLP.Chemscore.Hbond>
4.8000

> <Gold.PLP.Chemscore.CHOScore>
0.0000

> <Gold.PLP.Chemscore.Metal>
0.0000

> <Gold.Chemscore.Hbonds>
donor molecule, donor type, donor heavy atom, donor atom, acceptor molecule, acceptor atom, score
      L1  H     5    26       P1  8028  0.75
      L1  H    11    31       P1  7948  1.00
      L1  H    13    46       P1  7948  2.00
      P1  H  7989  7998       L1     7  1.00

> <Gold.PLP.Chemscore.Internal.Correction>
0.0687

> <Gold.Rescore>
     Score         DG    S(hbond)    S(metal)    S(lipo)     H(rot)  DE(clash)    DE(int)     intcor
     16.44     -20.47       3.53        0.00      81.31       2.46       2.22       1.82       ----

> <Gold.Chemscore.Fitness>
16.4352

> <Gold.Chemscore.DG>
-20.4741

> <Gold.Chemscore.ZeroCoef>
-5.4800

> <Gold.Chemscore.Hbond>
3.5284

> <Gold.Chemscore.Metal>
0.0000

> <Gold.Chemscore.Lipo>
81.3062

> <Gold.Chemscore.Internal_Hbond>
0.0000

> <Gold.Chemscore.DEClash>
2.2159

> <Gold.Chemscore.DEInternal>
1.8231

> <Gold.Chemscore.Rot>
2.4624

> <Gold.Chemscore.Internal.Correction>
   9.000000E+99

> <Gold.Chemscore.Hbonds>
donor molecule, donor type, donor heavy atom, donor atom, acceptor molecule, acceptor atom, score
      L1  H     5    26       P1  8028  0.75
      L1  H    11    31       P1  7948  0.98
      L1  H    13    46       P1  7948  0.99
      P1  H  7989  7998       L1     7  0.62

> <Gold.Chemscore.Hbond.Weighted>
-11.7850

> <Gold.Chemscore.Metal.Weighted>
-0.0000

> <Gold.Chemscore.Lipo.Weighted>
-9.5128

> <Gold.Chemscore.Internal_Hbond.Weighted>
0.0000

> <Gold.Chemscore.DEClash.Weighted>
2.2159

> <Gold.Chemscore.DEInternal.Weighted>
1.8231

> <Gold.Chemscore.Rot.Weighted>
6.3037

> <Gold.Chemscore.Internal.Correction.Weighted>
   9.000000E+99

> <Gold.Protein.RotatedTorsions>
[ 6907 6896 6895 6894 ] final   47.08 input  -60.11 | X-H torsion
[ 7974 7965 7964 7962 ] final   -9.62 input  175.53 | X-H torsion
[ 8008 7997 7996 7995 ] final  -29.29 input   59.86 | X-H torsion
[ 10167 10162 10161 10158 ] final  173.51 input  -65.29 | X-H torsion
[ 10718 10713 10712 10709 ] final   73.34 input   66.30 | X-H torsion
[ 10763 10752 10751 10750 ] final  -96.51 input  -60.55 | X-H torsion
[ 11005 11000 10999 10996 ] final -117.40 input  -57.11 | X-H torsion

> <Gold.Protein.ActiveResidues>
 VAL166  LYS551  ARG553  GLY616  TRP617  ASP618  TYR619  PRO620  LYS621  CYS622 
 ASP623  PHE694  ASN695  SER759  ASP760  ASP761  ALA762  ILE779  LEU786  VAL792 
 PHE793  MET794  SER795  GLU796  ALA797  LYS798  CYS799  TRP800  GLU811  SER814 

> <Gold.Protein.RotatedAtoms>
  152.2640  134.8004  160.0425 H   0  0  0  0  0  0  0  0  0  0  0  0  # atno 6907 bound_to 6896
  151.8641  133.3457  159.3721 H   0  0  0  0  0  0  0  0  0  0  0  0  # atno 6908 bound_to 6896
  150.7127  134.5105  159.5649 H   0  0  0  0  0  0  0  0  0  0  0  0  # atno 6909 bound_to 6896
  146.2246  140.2644  142.8353 H   0  0  0  0  0  0  0  0  0  0  0  0  # atno 7974 bound_to 7965
  154.4296  140.1822  156.1225 H   0  0  0  0  0  0  0  0  0  0  0  0  # atno 8008 bound_to 7997
  156.0132  140.3348  155.6936 H   0  0  0  0  0  0  0  0  0  0  0  0  # atno 8009 bound_to 7997
  155.6082  140.0647  157.2704 H   0  0  0  0  0  0  0  0  0  0  0  0  # atno 8010 bound_to 7997
  139.5110  144.3253  152.0164 H   0  0  0  0  0  0  0  0  0  0  0  0  # atno 10167 bound_to 10162
  157.6543  130.9624  150.1056 H   0  0  0  0  0  0  0  0  0  0  0  0  # atno 10718 bound_to 10713
  154.7246  135.5081  153.8865 H   0  0  0  0  0  0  0  0  0  0  0  0  # atno 10763 bound_to 10752
  153.0893  135.6654  153.9895 H   0  0  0  0  0  0  0  0  0  0  0  0  # atno 10764 bound_to 10752
  153.9710  135.3038  155.3406 H   0  0  0  0  0  0  0  0  0  0  0  0  # atno 10765 bound_to 10752
  141.0357  133.9913  157.3074 H   0  0  0  0  0  0  0  0  0  0  0  0  # atno 11005 bound_to 11000
  144.9315  140.7980  143.5686 LP  0  0  0  0  0  0  0  0  0  0  0  0  # atno 17320 bound_to 7965
  145.2588  139.2001  143.4903 LP  0  0  0  0  0  0  0  0  0  0  0  0  # atno 17321 bound_to 7965
  140.2693  144.3981  150.6157 LP  0  0  0  0  0  0  0  0  0  0  0  0  # atno 17342 bound_to 10162
  140.6100  143.2169  151.6905 LP  0  0  0  0  0  0  0  0  0  0  0  0  # atno 17343 bound_to 10162
  156.1967  130.3658  149.8840 LP  0  0  0  0  0  0  0  0  0  0  0  0  # atno 17370 bound_to 10713
  156.6755  130.8837  151.3568 LP  0  0  0  0  0  0  0  0  0  0  0  0  # atno 17371 bound_to 10713
  139.9239  135.0201  156.8164 LP  0  0  0  0  0  0  0  0  0  0  0  0  # atno 17394 bound_to 11000
  140.6327  133.9891  155.7669 LP  0  0  0  0  0  0  0  0  0  0  0  0  # atno 17395 bound_to 11000

$$$$
