AV-unprocessed.smi:2197|AV-procd|sdf|8910|dock1
  -GOLD-   2272012123D 1   1.00000     0.00000
 Structure written by MMmdl.
 27 27  0  0  0  0  0  0  0  0  2 V2000
  150.7932  145.0854  160.0603 C   0  0  0  0  0  0  0  0  0  0  0  0
  152.0080  144.2819  159.5842 C   0  0  0  0  0  0  0  0  0  0  0  0
  152.2516  144.4253  158.0730 C   0  0  0  0  0  0  0  0  0  0  0  0
  151.2947  143.6443  157.2980 N   0  0  0  0  0  0  0  0  0  0  0  0
  151.0688  142.3303  157.4475 C   0  0  0  0  0  0  0  0  0  0  0  0
  151.6468  141.6376  158.2864 O   0  0  0  0  0  0  0  0  0  0  0  0
  150.0036  141.7206  156.5255 C   0  0  0  0  0  0  0  0  0  0  0  0
  150.4517  140.4824  155.8677 N   0  0  0  0  0  0  0  0  0  0  0  0
  151.8208  140.1675  155.9292 C   0  0  0  0  0  0  0  0  0  0  0  0
  152.3209  139.0572  155.3542 C   0  0  0  0  0  0  0  0  0  0  0  0
  151.4018  138.1688  154.6534 C   0  0  0  0  0  0  0  0  0  0  0  0
  151.8399  137.1476  154.1273 O   0  0  0  0  0  0  0  0  0  0  0  0
  150.0830  138.5206  154.6169 N   0  5  0  0  0  0  0  0  0  0  0  0
  149.5891  139.6549  155.2039 C   0  0  0  0  0  0  0  0  0  0  0  0
  148.3955  139.9550  155.1567 O   0  0  0  0  0  0  0  0  0  0  0  0
  150.6447  144.9655  161.1336 H   0  0  0  0  0  0  0  0  0  0  0  0
  149.8819  144.7574  159.5594 H   0  0  0  0  0  0  0  0  0  0  0  0
  150.9229  146.1493  159.8590 H   0  0  0  0  0  0  0  0  0  0  0  0
  152.8901  144.6118  160.1347 H   0  0  0  0  0  0  0  0  0  0  0  0
  151.8637  143.2301  159.8346 H   0  0  0  0  0  0  0  0  0  0  0  0
  152.1507  145.4702  157.7786 H   0  0  0  0  0  0  0  0  0  0  0  0
  153.2708  144.1288  157.8189 H   0  0  0  0  0  0  0  0  0  0  0  0
  150.7733  144.1355  156.5865 H   0  0  0  0  0  0  0  0  0  0  0  0
  149.1091  141.5326  157.1205 H   0  0  0  0  0  0  0  0  0  0  0  0
  149.6993  142.4538  155.7759 H   0  0  0  0  0  0  0  0  0  0  0  0
  152.4334  140.8806  156.4608 H   0  0  0  0  0  0  0  0  0  0  0  0
  153.3757  138.8314  155.4074 H   0  0  0  0  0  0  0  0  0  0  0  0
  1  2  1  0  0  0  0
  1 16  1  0  0  0  0
  1 17  1  0  0  0  0
  1 18  1  0  0  0  0
  2  3  1  0  0  0  0
  2 19  1  0  0  0  0
  2 20  1  0  0  0  0
  3  4  1  0  0  0  0
  3 21  1  0  0  0  0
  3 22  1  0  0  0  0
  4  5  1  0  0  0  0
  4 23  1  0  0  0  0
  5  6  2  0  0  0  0
  5  7  1  0  0  0  0
  7  8  1  0  0  0  0
  7 24  1  0  0  0  0
  7 25  1  0  0  0  0
  8 14  1  0  0  0  0
  8  9  1  0  0  0  0
  9 10  2  0  0  0  0
  9 26  1  0  0  0  0
 10 11  1  0  0  0  0
 10 27  1  0  0  0  0
 11 12  2  0  0  0  0
 11 13  1  0  0  0  0
 13 14  1  0  0  0  0
 14 15  2  0  0  0  0
M  CHG  1  13  -1
M  END
> <s_m_source_file>
AV-unprocessed.smi

> <i_m_source_file_index>
2197

> <i_lp_mmshare_version>
43012

> <i_f3d_flags>
0

> <s_epik_input>
W0NIM11bQ0gyXVtDSDJdW05IXUMoPU8pW0NIMl1uMVtjSF1bY0hdYyg9TylbbkhdYzE9Tw==

> <s_epik_cmdline>
J2VwaWtfcHl0aG9uJywgJy1waCcsICc3LjAnLCAnLXRuJywgJzgnLCAnLW1hJywgJzIwMCcsICctbWV0YWxfYmluZGluZycsICctaW1hZScsICc8aW5maWxlLm1hZT4nLCAnLW9tYWUnLCAnPG91dGZpbGUubWFlPic=

> <r_lp_tautomer_probability>
0.999537

> <r_epik_Ionization_Penalty>
3.07884

> <r_epik_Ionization_Penalty_Charging>
2.69291e-08

> <r_epik_Ionization_Penalty_Neutral>
3.07884

> <r_epik_State_Penalty>
3.07787

> <r_epik_Charging_Adjusted_Penalty>
3.07787

> <i_epik_Tot_Q>
-1

> <i_epik_Tot_abs_Q>
1

> <r_epik_Metal_State_Penalty>
0.459856

> <b_epik_Metal_Only>
1

> <s_lp_Force_Field>
OPLS_2005

> <r_lp_Energy>
11.489

> <b_lp_Chiralities_Consistent>
1

> <s_lp_Variant>
AV-unprocessed.smi:2197-2

> <Gold.Version>
5.8.1

> <Gold.Id.Protein>
6NUR|6NUR_protein|mol2

> <Gold.PLP.Fitness>
38.6251

> <Gold.PLP.PLP>
-33.3418

> <Gold.PLP.part.hbond>
-2.0000

> <Gold.PLP.part.metal>
0.0000

> <Gold.PLP.part.buried>
-5.7712

> <Gold.PLP.part.nonpolar>
-27.8136

> <Gold.PLP.part.repulsive>
1.0478

> <Gold.PLP.ligand.clash>
0.0927

> <Gold.PLP.ligand.torsion>
0.3241

> <Gold.PLP.Chemscore.Hbond>
1.9920

> <Gold.PLP.Chemscore.CHOScore>
0.0000

> <Gold.PLP.Chemscore.Metal>
0.0000

> <Gold.Chemscore.Hbonds>
donor molecule, donor type, donor heavy atom, donor atom, acceptor molecule, acceptor atom, score
      L1  H     4    23       P1  8028  0.68
      P1  H 10752 10763       L1    12  1.00

> <Gold.PLP.Chemscore.Internal.Correction>
0.0483

> <Gold.Rescore>
     Score         DG    S(hbond)    S(metal)    S(lipo)     H(rot)  DE(clash)    DE(int)     intcor
     10.80     -13.86       1.98        0.00      58.95       2.00       0.01       3.04       ----

> <Gold.Chemscore.Fitness>
10.8027

> <Gold.Chemscore.DG>
-13.8624

> <Gold.Chemscore.ZeroCoef>
-5.4800

> <Gold.Chemscore.Hbond>
1.9788

> <Gold.Chemscore.Metal>
0.0000

> <Gold.Chemscore.Lipo>
58.9507

> <Gold.Chemscore.Internal_Hbond>
0.0000

> <Gold.Chemscore.DEClash>
0.0149

> <Gold.Chemscore.DEInternal>
3.0448

> <Gold.Chemscore.Rot>
2.0015

> <Gold.Chemscore.Internal.Correction>
   9.000000E+99

> <Gold.Chemscore.Hbonds>
donor molecule, donor type, donor heavy atom, donor atom, acceptor molecule, acceptor atom, score
      L1  H     4    23       P1  8028  0.66
      P1  H 10752 10763       L1    12  0.96

> <Gold.Chemscore.Hbond.Weighted>
-6.6091

> <Gold.Chemscore.Metal.Weighted>
-0.0000

> <Gold.Chemscore.Lipo.Weighted>
-6.8972

> <Gold.Chemscore.Internal_Hbond.Weighted>
0.0000

> <Gold.Chemscore.DEClash.Weighted>
0.0149

> <Gold.Chemscore.DEInternal.Weighted>
3.0448

> <Gold.Chemscore.Rot.Weighted>
5.1240

> <Gold.Chemscore.Internal.Correction.Weighted>
   9.000000E+99

> <Gold.Protein.RotatedTorsions>
[ 6907 6896 6895 6894 ] final -162.46 input  -60.11 | X-H torsion
[ 7974 7965 7964 7962 ] final   22.37 input  175.53 | X-H torsion
[ 8008 7997 7996 7995 ] final -170.79 input   59.86 | X-H torsion
[ 10167 10162 10161 10158 ] final  -34.81 input  -65.29 | X-H torsion
[ 10718 10713 10712 10709 ] final  -93.92 input   66.30 | X-H torsion
[ 10763 10752 10751 10750 ] final   45.15 input  -60.55 | X-H torsion
[ 11005 11000 10999 10996 ] final  -63.12 input  -57.11 | X-H torsion

> <Gold.Protein.ActiveResidues>
 VAL166  LYS551  ARG553  GLY616  TRP617  ASP618  TYR619  PRO620  LYS621  CYS622 
 ASP623  PHE694  ASN695  SER759  ASP760  ASP761  ALA762  ILE779  LEU786  VAL792 
 PHE793  MET794  SER795  GLU796  ALA797  LYS798  CYS799  TRP800  GLU811  SER814 

> <Gold.Protein.RotatedAtoms>
  151.3807  133.3822  159.2709 H   0  0  0  0  0  0  0  0  0  0  0  0  # atno 6907 bound_to 6896
  150.9580  134.8972  159.7723 H   0  0  0  0  0  0  0  0  0  0  0  0  # atno 6908 bound_to 6896
  152.5138  134.3765  159.9388 H   0  0  0  0  0  0  0  0  0  0  0  0  # atno 6909 bound_to 6896
  146.2031  139.7894  142.8746 H   0  0  0  0  0  0  0  0  0  0  0  0  # atno 7974 bound_to 7965
  155.9230  140.1077  157.1192 H   0  0  0  0  0  0  0  0  0  0  0  0  # atno 8008 bound_to 7997
  154.4057  140.1252  156.4769 H   0  0  0  0  0  0  0  0  0  0  0  0  # atno 8009 bound_to 7997
  155.7173  140.3470  155.5002 H   0  0  0  0  0  0  0  0  0  0  0  0  # atno 8010 bound_to 7997
  140.7178  143.3521  151.2134 H   0  0  0  0  0  0  0  0  0  0  0  0  # atno 10167 bound_to 10162
  156.0020  130.5046  150.5849 H   0  0  0  0  0  0  0  0  0  0  0  0  # atno 10718 bound_to 10713
  152.9829  135.6048  154.3390 H   0  0  0  0  0  0  0  0  0  0  0  0  # atno 10763 bound_to 10752
  154.3088  135.2771  155.2578 H   0  0  0  0  0  0  0  0  0  0  0  0  # atno 10764 bound_to 10752
  154.4797  135.5920  153.6436 H   0  0  0  0  0  0  0  0  0  0  0  0  # atno 10765 bound_to 10752
  141.1383  133.6648  156.5632 H   0  0  0  0  0  0  0  0  0  0  0  0  # atno 11005 bound_to 11000
  145.3413  141.0288  143.3390 LP  0  0  0  0  0  0  0  0  0  0  0  0  # atno 17320 bound_to 7965
  144.8730  139.5011  143.6759 LP  0  0  0  0  0  0  0  0  0  0  0  0  # atno 17321 bound_to 7965
  139.7054  143.9463  152.2924 LP  0  0  0  0  0  0  0  0  0  0  0  0  # atno 17342 bound_to 10162
  139.9171  144.6822  150.8501 LP  0  0  0  0  0  0  0  0  0  0  0  0  # atno 17343 bound_to 10162
  157.3723  131.0767  151.1547 LP  0  0  0  0  0  0  0  0  0  0  0  0  # atno 17370 bound_to 10713
  157.2297  130.6519  149.5844 LP  0  0  0  0  0  0  0  0  0  0  0  0  # atno 17371 bound_to 10713
  140.3971  134.7389  157.4757 LP  0  0  0  0  0  0  0  0  0  0  0  0  # atno 17394 bound_to 11000
  140.0523  134.6113  155.8847 LP  0  0  0  0  0  0  0  0  0  0  0  0  # atno 17395 bound_to 11000

$$$$
