AV-unprocessed.smi:2171|AV-procd|sdf|8829|dock5
  -GOLD-   2272012 23D 1   1.00000     0.00000
 Structure written by MMmdl.
 39 41  0  0  0  0  0  0  0  0  2 V2000
  147.9308  141.3642  153.4666 O   0  0  0  0  0  0  0  0  0  0  0  0
  148.1819  140.3434  154.1061 C   0  0  0  0  0  0  0  0  0  0  0  0
  149.2231  140.3783  155.2274 C   0  0  0  0  0  0  0  0  0  0  0  0
  150.3505  139.5090  154.9311 N   0  0  0  0  0  0  0  0  0  0  0  0
  150.3348  138.1737  154.5838 C   0  0  0  0  0  0  0  0  0  0  0  0
  151.6321  137.7809  154.4191 C   0  0  0  0  0  0  0  0  0  0  0  0
  152.3801  138.9619  154.6855 C   0  0  0  0  0  0  0  0  0  0  0  0
  151.6108  139.9941  154.9913 N   0  0  0  0  0  0  0  0  0  0  0  0
  147.5660  139.1689  153.8947 N   0  0  0  0  0  0  0  0  0  0  0  0
  146.4603  138.9494  152.9659 C   0  0  1  0  0  0  0  0  0  0  0  0
  146.8399  139.2392  151.5010 C   0  0  0  0  0  0  0  0  0  0  0  0
  146.1872  138.1083  150.6993 C   0  0  0  0  0  0  0  0  0  0  0  0
  146.2501  136.9715  151.6250 N   0  3  2  0  0  0  0  0  0  0  0  0
  145.4924  135.7478  151.2944 C   0  0  0  0  0  0  0  0  0  0  0  0
  145.8705  134.6502  152.3123 C   0  0  0  0  0  0  0  0  0  0  0  0
  145.7089  135.1263  153.7739 C   0  0  0  0  0  0  0  0  0  0  0  0
  146.4153  136.4769  154.0193 C   0  0  0  0  0  0  0  0  0  0  0  0
  145.9351  137.4932  152.9661 C   0  0  1  0  0  0  0  0  0  0  0  0
  149.5837  141.3988  155.3616 H   0  0  0  0  0  0  0  0  0  0  0  0
  148.7737  140.0668  156.1718 H   0  0  0  0  0  0  0  0  0  0  0  0
  149.4125  137.6199  154.4867 H   0  0  0  0  0  0  0  0  0  0  0  0
  151.9923  136.7998  154.1468 H   0  0  0  0  0  0  0  0  0  0  0  0
  153.4513  139.0991  154.6665 H   0  0  0  0  0  0  0  0  0  0  0  0
  147.8474  138.3832  154.4631 H   0  0  0  0  0  0  0  0  0  0  0  0
  145.6346  139.6118  153.2340 H   0  0  0  0  0  0  0  0  0  0  0  0
  146.5141  140.2257  151.1697 H   0  0  0  0  0  0  0  0  0  0  0  0
  147.9226  139.1907  151.3728 H   0  0  0  0  0  0  0  0  0  0  0  0
  145.1456  138.3459  150.4767 H   0  0  0  0  0  0  0  0  0  0  0  0
  146.7052  137.9017  149.7624 H   0  0  0  0  0  0  0  0  0  0  0  0
  144.4206  135.9501  151.3187 H   0  0  0  0  0  0  0  0  0  0  0  0
  145.7389  135.4235  150.2828 H   0  0  0  0  0  0  0  0  0  0  0  0
  145.2681  133.7576  152.1411 H   0  0  0  0  0  0  0  0  0  0  0  0
  146.9079  134.3544  152.1491 H   0  0  0  0  0  0  0  0  0  0  0  0
  144.6470  135.2304  154.0006 H   0  0  0  0  0  0  0  0  0  0  0  0
  146.0956  134.3716  154.4594 H   0  0  0  0  0  0  0  0  0  0  0  0
  146.1906  136.8304  155.0258 H   0  0  0  0  0  0  0  0  0  0  0  0
  147.4974  136.3487  153.9614 H   0  0  0  0  0  0  0  0  0  0  0  0
  144.8477  137.5625  153.0426 H   0  0  0  0  0  0  0  0  0  0  0  0
  147.2237  136.7041  151.6535 H   0  0  0  0  0  0  0  0  0  0  0  0
  1  2  2  0  0  0  0
  2  3  1  0  0  0  0
  2  9  1  0  0  0  0
  3  4  1  0  0  0  0
  3 19  1  0  0  0  0
  3 20  1  0  0  0  0
  4  8  1  0  0  0  0
  4  5  1  0  0  0  0
  5  6  2  0  0  0  0
  5 21  1  0  0  0  0
  6  7  1  0  0  0  0
  6 22  1  0  0  0  0
  7  8  2  0  0  0  0
  7 23  1  0  0  0  0
  9 10  1  0  0  0  0
  9 24  1  0  0  0  0
 10 18  1  0  0  0  0
 10 11  1  0  0  0  0
 10 25  1  0  0  0  0
 11 12  1  0  0  0  0
 11 26  1  0  0  0  0
 11 27  1  0  0  0  0
 12 13  1  0  0  0  0
 12 28  1  0  0  0  0
 12 29  1  0  0  0  0
 13 18  1  0  0  0  0
 13 14  1  0  0  0  0
 13 39  1  0  0  0  0
 14 15  1  0  0  0  0
 14 30  1  0  0  0  0
 14 31  1  0  0  0  0
 15 16  1  0  0  0  0
 15 32  1  0  0  0  0
 15 33  1  0  0  0  0
 16 17  1  0  0  0  0
 16 34  1  0  0  0  0
 16 35  1  0  0  0  0
 17 18  1  0  0  0  0
 17 36  1  0  0  0  0
 17 37  1  0  0  0  0
 18 38  1  0  0  0  0
M  CHG  1  13   1
M  END
> <s_m_source_file>
AV-unprocessed.smi

> <i_m_source_file_index>
2171

> <i_lp_mmshare_version>
43012

> <i_f3d_flags>
0

> <s_epik_input>
bjFbY0hdW2NIXVtjSF1uMVtDSDJdQyg9TylbTkhdW0NASF0oW0NIMl1bQ0gyXTIpW0NAQEhdKE4yMylbQ0gyXVtDSDJdW0NIMl1bQ0gyXTM=

> <s_epik_cmdline>
J2VwaWtfcHl0aG9uJywgJy1waCcsICc3LjAnLCAnLXRuJywgJzgnLCAnLW1hJywgJzIwMCcsICctbWV0YWxfYmluZGluZycsICctaW1hZScsICc8aW5maWxlLm1hZT4nLCAnLW9tYWUnLCAnPG91dGZpbGUubWFlPic=

> <r_lp_tautomer_probability>
1

> <r_epik_Ionization_Penalty>
0.00204179

> <r_epik_Ionization_Penalty_Charging>
0.00203239

> <r_epik_Ionization_Penalty_Neutral>
9.40205e-06

> <r_epik_State_Penalty>
0.00138983

> <r_epik_Charging_Adjusted_Penalty>
0.00342221

> <i_epik_Tot_Q>
1

> <i_epik_Tot_abs_Q>
1

> <r_epik_Metal_State_Penalty>
-0

> <b_epik_Metal_Only>
0

> <s_lp_Force_Field>
OPLS_2005

> <r_lp_Energy>
40.8782

> <b_lp_Chiralities_Consistent>
1

> <s_lp_Variant>
AV-unprocessed.smi:2171-4

> <Gold.Version>
5.8.1

> <Gold.Id.Protein>
6NUR|6NUR_protein|mol2

> <Gold.PLP.Fitness>
38.1340

> <Gold.PLP.PLP>
-29.1019

> <Gold.PLP.part.hbond>
-2.4811

> <Gold.PLP.part.metal>
0.0000

> <Gold.PLP.part.buried>
4.8933

> <Gold.PLP.part.nonpolar>
-32.1780

> <Gold.PLP.part.repulsive>
0.3158

> <Gold.PLP.ligand.clash>
0.0000

> <Gold.PLP.ligand.torsion>
0.0699

> <Gold.PLP.Chemscore.Hbond>
3.0559

> <Gold.PLP.Chemscore.CHOScore>
0.0000

> <Gold.PLP.Chemscore.Metal>
0.0000

> <Gold.Chemscore.Hbonds>
donor molecule, donor type, donor heavy atom, donor atom, acceptor molecule, acceptor atom, score
      L1  H    13    39       P1  7948  2.00
      P1  H  7989  7998       L1     8  1.00
      P1  H  8011  8017       L1     1  0.03

> <Gold.PLP.Chemscore.Internal.Correction>
0.0043

> <Gold.Rescore>
     Score         DG    S(hbond)    S(metal)    S(lipo)     H(rot)  DE(clash)    DE(int)     intcor
     12.78     -16.26       1.54        0.00      79.80       1.44       3.39       0.09       ----

> <Gold.Chemscore.Fitness>
12.7786

> <Gold.Chemscore.DG>
-16.2595

> <Gold.Chemscore.ZeroCoef>
-5.4800

> <Gold.Chemscore.Hbond>
1.5366

> <Gold.Chemscore.Metal>
0.0000

> <Gold.Chemscore.Lipo>
79.7958

> <Gold.Chemscore.Internal_Hbond>
0.0000

> <Gold.Chemscore.DEClash>
3.3871

> <Gold.Chemscore.DEInternal>
0.0938

> <Gold.Chemscore.Rot>
1.4410

> <Gold.Chemscore.Internal.Correction>
   9.000000E+99

> <Gold.Chemscore.Hbonds>
donor molecule, donor type, donor heavy atom, donor atom, acceptor molecule, acceptor atom, score
      L1  H    13    39       P1  7948  1.00
      P1  H  7989  7998       L1     8  0.06
      P1  H  8011  8017       L1     1  0.06

> <Gold.Chemscore.Hbond.Weighted>
-5.1323

> <Gold.Chemscore.Metal.Weighted>
-0.0000

> <Gold.Chemscore.Lipo.Weighted>
-9.3361

> <Gold.Chemscore.Internal_Hbond.Weighted>
0.0000

> <Gold.Chemscore.DEClash.Weighted>
3.3871

> <Gold.Chemscore.DEInternal.Weighted>
0.0938

> <Gold.Chemscore.Rot.Weighted>
3.6889

> <Gold.Chemscore.Internal.Correction.Weighted>
   9.000000E+99

> <Gold.Protein.RotatedTorsions>
[ 6907 6896 6895 6894 ] final  -77.04 input  -60.11 | X-H torsion
[ 7974 7965 7964 7962 ] final   79.96 input  175.53 | X-H torsion
[ 8008 7997 7996 7995 ] final   92.74 input   59.86 | X-H torsion
[ 10167 10162 10161 10158 ] final -156.61 input  -65.29 | X-H torsion
[ 10718 10713 10712 10709 ] final  154.10 input   66.30 | X-H torsion
[ 10763 10752 10751 10750 ] final  110.12 input  -60.55 | X-H torsion
[ 11005 11000 10999 10996 ] final   47.93 input  -57.11 | X-H torsion

> <Gold.Protein.ActiveResidues>
 VAL166  LYS551  ARG553  GLY616  TRP617  ASP618  TYR619  PRO620  LYS621  CYS622 
 ASP623  PHE694  ASN695  SER759  ASP760  ASP761  ALA762  ILE779  LEU786  VAL792 
 PHE793  MET794  SER795  GLU796  ALA797  LYS798  CYS799  TRP800  GLU811  SER814 

> <Gold.Protein.RotatedAtoms>
  150.7010  134.4482  159.5323 H   0  0  0  0  0  0  0  0  0  0  0  0  # atno 6907 bound_to 6896
  152.2179  134.8438  160.0498 H   0  0  0  0  0  0  0  0  0  0  0  0  # atno 6908 bound_to 6896
  151.9299  133.3573  159.3964 H   0  0  0  0  0  0  0  0  0  0  0  0  # atno 6909 bound_to 6896
  145.6574  139.2462  143.1942 H   0  0  0  0  0  0  0  0  0  0  0  0  # atno 7974 bound_to 7965
  156.0388  140.3322  155.7220 H   0  0  0  0  0  0  0  0  0  0  0  0  # atno 8008 bound_to 7997
  155.5776  140.0634  157.2809 H   0  0  0  0  0  0  0  0  0  0  0  0  # atno 8009 bound_to 7997
  154.4384  140.1849  156.0931 H   0  0  0  0  0  0  0  0  0  0  0  0  # atno 8010 bound_to 7997
  139.6837  143.9538  152.2350 H   0  0  0  0  0  0  0  0  0  0  0  0  # atno 10167 bound_to 10162
  157.2361  131.0749  151.1822 H   0  0  0  0  0  0  0  0  0  0  0  0  # atno 10718 bound_to 10713
  153.4444  135.3758  155.2247 H   0  0  0  0  0  0  0  0  0  0  0  0  # atno 10763 bound_to 10752
  154.8755  135.3871  154.4113 H   0  0  0  0  0  0  0  0  0  0  0  0  # atno 10764 bound_to 10752
  153.4663  135.7087  153.6083 H   0  0  0  0  0  0  0  0  0  0  0  0  # atno 10765 bound_to 10752
  140.1235  134.4798  155.8578 H   0  0  0  0  0  0  0  0  0  0  0  0  # atno 11005 bound_to 11000
  146.1154  140.7377  142.9483 LP  0  0  0  0  0  0  0  0  0  0  0  0  # atno 17320 bound_to 7965
  144.7101  140.4006  143.7087 LP  0  0  0  0  0  0  0  0  0  0  0  0  # atno 17321 bound_to 7965
  139.9335  144.6726  150.8339 LP  0  0  0  0  0  0  0  0  0  0  0  0  # atno 17342 bound_to 10162
  140.7660  143.3292  151.2447 LP  0  0  0  0  0  0  0  0  0  0  0  0  # atno 17343 bound_to 10162
  157.3428  130.7042  149.6392 LP  0  0  0  0  0  0  0  0  0  0  0  0  # atno 17370 bound_to 10713
  155.9672  130.4275  150.4746 LP  0  0  0  0  0  0  0  0  0  0  0  0  # atno 17371 bound_to 10713
  141.2156  133.6769  156.6934 LP  0  0  0  0  0  0  0  0  0  0  0  0  # atno 17394 bound_to 11000
  140.2934  134.8222  157.4036 LP  0  0  0  0  0  0  0  0  0  0  0  0  # atno 17395 bound_to 11000

$$$$
