AV-unprocessed.smi:1231|AV-procd|sdf|5166|dock6
  -GOLD-   22720 4243D 1   1.00000     0.00000
 Structure written by MMmdl.
 43 44  0  0  0  0  0  0  0  0  2 V2000
  145.0062  137.4425  152.3745 C   0  0  0  0  0  0  0  0  0  0  0  0
  146.1924  137.4759  153.3545 C   0  0  1  0  0  0  0  0  0  0  0  0
  147.0485  138.7530  153.2428 C   0  0  0  0  0  0  0  0  0  0  0  0
  146.3520  139.9207  153.8330 N   0  3  2  0  0  0  0  0  0  0  0  0
  147.1297  141.1759  153.6870 C   0  0  0  0  0  0  0  0  0  0  0  0
  148.6294  140.9723  153.9760 C   0  0  0  0  0  0  0  0  0  0  0  0
  149.1115  141.9045  154.9886 N   0  0  0  0  0  0  0  0  0  0  0  0
  150.1000  141.6451  155.8568 C   0  0  0  0  0  0  0  0  0  0  0  0
  150.7134  140.5774  155.8809 O   0  0  0  0  0  0  0  0  0  0  0  0
  150.3191  142.6895  156.6748 N   0  0  0  0  0  0  0  0  0  0  0  0
  151.2861  142.8061  157.7087 C   0  0  0  0  0  0  0  0  0  0  0  0
  151.5434  144.1269  158.1413 C   0  0  0  0  0  0  0  0  0  0  0  0
  152.4861  144.3496  159.1637 C   0  0  0  0  0  0  0  0  0  0  0  0
  153.1495  143.2447  159.7262 C   0  0  0  0  0  0  0  0  0  0  0  0
  152.8364  141.9631  159.2365 C   0  0  0  0  0  0  0  0  0  0  0  0
  151.9324  141.7472  158.2574 N   0  0  0  0  0  0  0  0  0  0  0  0
  145.9578  139.6295  155.2325 C   0  0  0  0  0  0  0  0  0  0  0  0
  145.0804  138.3663  155.2915 C   0  0  2  0  0  0  0  0  0  0  0  0
  144.7237  137.9812  156.7314 C   0  0  0  0  0  0  0  0  0  0  0  0
  145.7833  137.2728  154.7069 O   0  0  0  0  0  0  0  0  0  0  0  0
  145.3573  137.4681  151.3426 H   0  0  0  0  0  0  0  0  0  0  0  0
  144.3335  138.2893  152.5076 H   0  0  0  0  0  0  0  0  0  0  0  0
  144.4242  136.5292  152.4999 H   0  0  0  0  0  0  0  0  0  0  0  0
  146.8302  136.6281  153.1031 H   0  0  0  0  0  0  0  0  0  0  0  0
  147.9960  138.6054  153.7639 H   0  0  0  0  0  0  0  0  0  0  0  0
  147.2909  138.9466  152.1970 H   0  0  0  0  0  0  0  0  0  0  0  0
  146.9701  141.5896  152.6900 H   0  0  0  0  0  0  0  0  0  0  0  0
  146.7489  141.9173  154.3913 H   0  0  0  0  0  0  0  0  0  0  0  0
  148.8033  139.9588  154.3383 H   0  0  0  0  0  0  0  0  0  0  0  0
  149.2308  141.0862  153.0737 H   0  0  0  0  0  0  0  0  0  0  0  0
  148.6570  142.8051  155.0363 H   0  0  0  0  0  0  0  0  0  0  0  0
  149.7268  143.4959  156.5433 H   0  0  0  0  0  0  0  0  0  0  0  0
  151.0243  144.9648  157.6987 H   0  0  0  0  0  0  0  0  0  0  0  0
  152.6954  145.3510  159.5098 H   0  0  0  0  0  0  0  0  0  0  0  0
  153.8786  143.3752  160.5120 H   0  0  0  0  0  0  0  0  0  0  0  0
  153.3242  141.0885  159.6406 H   0  0  0  0  0  0  0  0  0  0  0  0
  146.8526  139.4971  155.8432 H   0  0  0  0  0  0  0  0  0  0  0  0
  145.4065  140.4687  155.6555 H   0  0  0  0  0  0  0  0  0  0  0  0
  144.1509  138.5401  154.7488 H   0  0  0  0  0  0  0  0  0  0  0  0
  144.1658  138.7776  157.2246 H   0  0  0  0  0  0  0  0  0  0  0  0
  145.6195  137.7853  157.3219 H   0  0  0  0  0  0  0  0  0  0  0  0
  144.1076  137.0817  156.7528 H   0  0  0  0  0  0  0  0  0  0  0  0
  145.5017  140.0433  153.3021 H   0  0  0  0  0  0  0  0  0  0  0  0
  1  2  1  0  0  0  0
  1 21  1  0  0  0  0
  1 22  1  0  0  0  0
  1 23  1  0  0  0  0
  2 20  1  0  0  0  0
  2  3  1  0  0  0  0
  2 24  1  0  0  0  0
  3  4  1  0  0  0  0
  3 25  1  0  0  0  0
  3 26  1  0  0  0  0
  4  5  1  0  0  0  0
  4 17  1  0  0  0  0
  4 43  1  0  0  0  0
  5  6  1  0  0  0  0
  5 27  1  0  0  0  0
  5 28  1  0  0  0  0
  6  7  1  0  0  0  0
  6 29  1  0  0  0  0
  6 30  1  0  0  0  0
  7  8  1  0  0  0  0
  7 31  1  0  0  0  0
  8  9  2  0  0  0  0
  8 10  1  0  0  0  0
 10 11  1  0  0  0  0
 10 32  1  0  0  0  0
 11 16  1  0  0  0  0
 11 12  2  0  0  0  0
 12 13  1  0  0  0  0
 12 33  1  0  0  0  0
 13 14  2  0  0  0  0
 13 34  1  0  0  0  0
 14 15  1  0  0  0  0
 14 35  1  0  0  0  0
 15 16  2  0  0  0  0
 15 36  1  0  0  0  0
 17 18  1  0  0  0  0
 17 37  1  0  0  0  0
 17 38  1  0  0  0  0
 18 19  1  0  0  0  0
 18 20  1  0  0  0  0
 18 39  1  0  0  0  0
 19 40  1  0  0  0  0
 19 41  1  0  0  0  0
 19 42  1  0  0  0  0
M  CHG  1   4   1
M  END
> <s_m_source_file>
AV-unprocessed.smi

> <i_m_source_file_index>
1231

> <i_lp_mmshare_version>
43012

> <i_f3d_flags>
0

> <s_epik_input>
W0NIM11bQ0BASF0xW0NIMl1OKFtDSDJdW0NASF0oTzEpW0NIM10pW0NIMl1bQ0gyXVtOSF1DKD1PKVtOSF1jMltjSF1bY0hdW2NIXVtjSF1uMg==

> <s_epik_cmdline>
J2VwaWtfcHl0aG9uJywgJy1waCcsICc3LjAnLCAnLXRuJywgJzgnLCAnLW1hJywgJzIwMCcsICctbWV0YWxfYmluZGluZycsICctaW1hZScsICc8aW5maWxlLm1hZT4nLCAnLW9tYWUnLCAnPG91dGZpbGUubWFlPic=

> <r_epik_Ionization_Penalty>
0.602565

> <r_epik_Ionization_Penalty_Charging>
0.602531

> <r_epik_Ionization_Penalty_Neutral>
3.43186e-05

> <r_epik_State_Penalty>
0.617039

> <r_epik_Charging_Adjusted_Penalty>
1.21957

> <i_epik_Tot_Q>
1

> <i_epik_Tot_abs_Q>
1

> <r_epik_Metal_State_Penalty>
0.617041

> <b_epik_Metal_Only>
0

> <s_lp_Force_Field>
OPLS_2005

> <r_lp_Energy>
18.3102

> <b_lp_Chiralities_Consistent>
1

> <s_lp_Variant>
AV-unprocessed.smi:1231-7

> <Gold.Version>
5.8.1

> <Gold.Id.Protein>
6NUR|6NUR_protein|mol2

> <Gold.PLP.Fitness>
45.5083

> <Gold.PLP.PLP>
-35.5284

> <Gold.PLP.part.hbond>
-2.9972

> <Gold.PLP.part.metal>
0.0000

> <Gold.PLP.part.buried>
-3.7543

> <Gold.PLP.part.nonpolar>
-29.5895

> <Gold.PLP.part.repulsive>
0.3484

> <Gold.PLP.ligand.clash>
0.0000

> <Gold.PLP.ligand.torsion>
0.8187

> <Gold.PLP.Chemscore.Hbond>
3.8640

> <Gold.PLP.Chemscore.CHOScore>
0.0000

> <Gold.PLP.Chemscore.Metal>
0.0000

> <Gold.Chemscore.Hbonds>
donor molecule, donor type, donor heavy atom, donor atom, acceptor molecule, acceptor atom, score
      L1  H     4    43       P1 10175  1.92
      L1  H     7    31       P1  8028  0.90
      L1  H    10    32       P1  8028  1.00

> <Gold.PLP.Chemscore.Internal.Correction>
0.0254

> <Gold.Rescore>
     Score         DG    S(hbond)    S(metal)    S(lipo)     H(rot)  DE(clash)    DE(int)     intcor
     18.47     -20.52       2.76        0.00      83.90       1.55       0.06       1.99       ----

> <Gold.Chemscore.Fitness>
18.4703

> <Gold.Chemscore.DG>
-20.5204

> <Gold.Chemscore.ZeroCoef>
-5.4800

> <Gold.Chemscore.Hbond>
2.7557

> <Gold.Chemscore.Metal>
0.0000

> <Gold.Chemscore.Lipo>
83.8965

> <Gold.Chemscore.Internal_Hbond>
0.0000

> <Gold.Chemscore.DEClash>
0.0592

> <Gold.Chemscore.DEInternal>
1.9908

> <Gold.Chemscore.Rot>
1.5546

> <Gold.Chemscore.Internal.Correction>
   9.000000E+99

> <Gold.Chemscore.Hbonds>
donor molecule, donor type, donor heavy atom, donor atom, acceptor molecule, acceptor atom, score
      L1  H     4    43       P1 10175  0.91
      L1  H     7    31       P1  8028  0.84
      L1  H    10    32       P1  8028  0.99

> <Gold.Chemscore.Hbond.Weighted>
-9.2041

> <Gold.Chemscore.Metal.Weighted>
-0.0000

> <Gold.Chemscore.Lipo.Weighted>
-9.8159

> <Gold.Chemscore.Internal_Hbond.Weighted>
0.0000

> <Gold.Chemscore.DEClash.Weighted>
0.0592

> <Gold.Chemscore.DEInternal.Weighted>
1.9908

> <Gold.Chemscore.Rot.Weighted>
3.9797

> <Gold.Chemscore.Internal.Correction.Weighted>
   9.000000E+99

> <Gold.Protein.RotatedTorsions>
[ 6907 6896 6895 6894 ] final   19.48 input  -60.11 | X-H torsion
[ 7974 7965 7964 7962 ] final -103.82 input  175.53 | X-H torsion
[ 8008 7997 7996 7995 ] final -173.91 input   59.86 | X-H torsion
[ 10167 10162 10161 10158 ] final  119.92 input  -65.29 | X-H torsion
[ 10718 10713 10712 10709 ] final  -47.64 input   66.30 | X-H torsion
[ 10763 10752 10751 10750 ] final   27.52 input  -60.55 | X-H torsion
[ 11005 11000 10999 10996 ] final -117.65 input  -57.11 | X-H torsion

> <Gold.Protein.ActiveResidues>
 VAL166  LYS551  ARG553  GLY616  TRP617  ASP618  TYR619  PRO620  LYS621  CYS622 
 ASP623  PHE694  ASN695  SER759  ASP760  ASP761  ALA762  ILE779  LEU786  VAL792 
 PHE793  MET794  SER795  GLU796  ALA797  LYS798  CYS799  TRP800  GLU811  SER814 

> <Gold.Protein.RotatedAtoms>
  151.8815  135.0452  160.0488 H   0  0  0  0  0  0  0  0  0  0  0  0  # atno 6907 bound_to 6896
  152.2509  133.5209  159.5333 H   0  0  0  0  0  0  0  0  0  0  0  0  # atno 6908 bound_to 6896
  150.7083  134.0878  159.3963 H   0  0  0  0  0  0  0  0  0  0  0  0  # atno 6909 bound_to 6896
  145.2510  140.9238  143.3095 H   0  0  0  0  0  0  0  0  0  0  0  0  # atno 7974 bound_to 7965
  155.9635  140.1149  157.0875 H   0  0  0  0  0  0  0  0  0  0  0  0  # atno 8008 bound_to 7997
  154.4138  140.1177  156.5277 H   0  0  0  0  0  0  0  0  0  0  0  0  # atno 8009 bound_to 7997
  155.6690  140.3473  155.4813 H   0  0  0  0  0  0  0  0  0  0  0  0  # atno 8010 bound_to 7997
  139.6015  144.7058  151.3051 H   0  0  0  0  0  0  0  0  0  0  0  0  # atno 10167 bound_to 10162
  156.2065  130.4158  149.9171 H   0  0  0  0  0  0  0  0  0  0  0  0  # atno 10718 bound_to 10713
  153.0550  135.6535  154.0599 H   0  0  0  0  0  0  0  0  0  0  0  0  # atno 10763 bound_to 10752
  154.0279  135.2914  155.3374 H   0  0  0  0  0  0  0  0  0  0  0  0  # atno 10764 bound_to 10752
  154.6861  135.5301  153.8395 H   0  0  0  0  0  0  0  0  0  0  0  0  # atno 10765 bound_to 10752
  141.0340  133.9938  157.3099 H   0  0  0  0  0  0  0  0  0  0  0  0  # atno 11005 bound_to 11000
  144.9503  139.4090  143.6405 LP  0  0  0  0  0  0  0  0  0  0  0  0  # atno 17320 bound_to 7965
  146.3302  139.8507  142.8873 LP  0  0  0  0  0  0  0  0  0  0  0  0  # atno 17321 bound_to 7965
  140.7253  143.7020  150.7837 LP  0  0  0  0  0  0  0  0  0  0  0  0  # atno 17342 bound_to 10162
  140.0598  143.5166  152.2633 LP  0  0  0  0  0  0  0  0  0  0  0  0  # atno 17343 bound_to 10162
  156.6863  130.8878  151.3582 LP  0  0  0  0  0  0  0  0  0  0  0  0  # atno 17370 bound_to 10713
  157.7015  130.9338  150.0800 LP  0  0  0  0  0  0  0  0  0  0  0  0  # atno 17371 bound_to 10713
  139.9228  135.0201  156.8125 LP  0  0  0  0  0  0  0  0  0  0  0  0  # atno 17394 bound_to 11000
  140.6355  133.9866  155.7682 LP  0  0  0  0  0  0  0  0  0  0  0  0  # atno 17395 bound_to 11000

$$$$
