AV-unprocessed.smi:1436|AV-procd|sdf|5860|dock10
  -GOLD-   22720 5533D 1   1.00000     0.00000
 Structure written by MMmdl.
 43 44  0  0  0  0  0  0  0  0  1 V2000
  151.9537  138.0704  155.7277 C   0  0  0  0  0  0  0  0  0  0  0  0
  151.5410  139.4804  156.0376 C   0  0  0  0  0  0  0  0  0  0  0  0
  151.3272  140.3298  155.0470 N   0  0  0  0  0  0  0  0  0  0  0  0
  150.9766  141.5411  155.6506 O   0  0  0  0  0  0  0  0  0  0  0  0
  150.9955  141.3712  156.9971 C   0  0  0  0  0  0  0  0  0  0  0  0
  150.6535  142.5606  157.8290 C   0  0  0  0  0  0  0  0  0  0  0  0
  151.3431  140.0867  157.3118 C   0  0  0  0  0  0  0  0  0  0  0  0
  151.4877  139.4603  158.6768 C   0  0  0  0  0  0  0  0  0  0  0  0
  152.8588  138.7945  158.8281 C   0  0  0  0  0  0  0  0  0  0  0  0
  153.6227  138.7106  157.8656 O   0  0  0  0  0  0  0  0  0  0  0  0
  153.1550  138.3195  160.0478 N   0  0  0  0  0  0  0  0  0  0  0  0
  154.3829  137.6168  160.4129 C   0  0  1  0  0  0  0  0  0  0  0  0
  155.6001  138.2658  159.7350 C   0  0  0  0  0  0  0  0  0  0  0  0
  154.5286  137.4658  161.9471 C   0  0  0  0  0  0  0  0  0  0  0  0
  154.4021  136.1118  162.4957 N   0  0  0  0  0  0  0  0  0  0  0  0
  154.4734  136.1353  163.9533 C   0  0  0  0  0  0  0  0  0  0  0  0
  154.3349  134.7293  164.5618 C   0  0  0  0  0  0  0  0  0  0  0  0
  155.3416  133.8781  164.0248 O   0  0  0  0  0  0  0  0  0  0  0  0
  155.2790  133.7864  162.6058 C   0  0  0  0  0  0  0  0  0  0  0  0
  155.4165  135.1894  161.9898 C   0  0  0  0  0  0  0  0  0  0  0  0
  153.0296  137.9475  155.8527 H   0  0  0  0  0  0  0  0  0  0  0  0
  151.7040  137.7926  154.7034 H   0  0  0  0  0  0  0  0  0  0  0  0
  151.4579  137.3621  156.3916 H   0  0  0  0  0  0  0  0  0  0  0  0
  151.4541  142.7778  158.5363 H   0  0  0  0  0  0  0  0  0  0  0  0
  149.7396  142.3838  158.3962 H   0  0  0  0  0  0  0  0  0  0  0  0
  150.5017  143.4450  157.2098 H   0  0  0  0  0  0  0  0  0  0  0  0
  151.3840  140.2033  159.4679 H   0  0  0  0  0  0  0  0  0  0  0  0
  150.7009  138.7244  158.8476 H   0  0  0  0  0  0  0  0  0  0  0  0
  152.4681  138.4374  160.7784 H   0  0  0  0  0  0  0  0  0  0  0  0
  154.3081  136.6078  160.0035 H   0  0  0  0  0  0  0  0  0  0  0  0
  156.5161  137.7286  159.9820 H   0  0  0  0  0  0  0  0  0  0  0  0
  155.7296  139.3038  160.0427 H   0  0  0  0  0  0  0  0  0  0  0  0
  155.4949  138.2550  158.6498 H   0  0  0  0  0  0  0  0  0  0  0  0
  155.4637  137.9180  162.2816 H   0  0  0  0  0  0  0  0  0  0  0  0
  153.7420  138.0786  162.3895 H   0  0  0  0  0  0  0  0  0  0  0  0
  155.4219  136.5720  164.2700 H   0  0  0  0  0  0  0  0  0  0  0  0
  153.6866  136.7766  164.3524 H   0  0  0  0  0  0  0  0  0  0  0  0
  154.4444  134.7719  165.6457 H   0  0  0  0  0  0  0  0  0  0  0  0
  153.3476  134.3134  164.3547 H   0  0  0  0  0  0  0  0  0  0  0  0
  156.0819  133.1379  162.2547 H   0  0  0  0  0  0  0  0  0  0  0  0
  154.3377  133.3238  162.3051 H   0  0  0  0  0  0  0  0  0  0  0  0
  155.3399  135.0966  160.9078 H   0  0  0  0  0  0  0  0  0  0  0  0
  156.4110  135.5807  162.2047 H   0  0  0  0  0  0  0  0  0  0  0  0
  1  2  1  0  0  0  0
  1 21  1  0  0  0  0
  1 22  1  0  0  0  0
  1 23  1  0  0  0  0
  2  7  1  0  0  0  0
  2  3  2  0  0  0  0
  3  4  1  0  0  0  0
  4  5  1  0  0  0  0
  5  6  1  0  0  0  0
  5  7  2  0  0  0  0
  6 24  1  0  0  0  0
  6 25  1  0  0  0  0
  6 26  1  0  0  0  0
  7  8  1  0  0  0  0
  8  9  1  0  0  0  0
  8 27  1  0  0  0  0
  8 28  1  0  0  0  0
  9 10  2  0  0  0  0
  9 11  1  0  0  0  0
 11 12  1  0  0  0  0
 11 29  1  0  0  0  0
 12 13  1  0  0  0  0
 12 14  1  0  0  0  0
 12 30  1  0  0  0  0
 13 31  1  0  0  0  0
 13 32  1  0  0  0  0
 13 33  1  0  0  0  0
 14 15  1  0  0  0  0
 14 34  1  0  0  0  0
 14 35  1  0  0  0  0
 15 20  1  0  0  0  0
 15 16  1  0  0  0  0
 16 17  1  0  0  0  0
 16 36  1  0  0  0  0
 16 37  1  0  0  0  0
 17 18  1  0  0  0  0
 17 38  1  0  0  0  0
 17 39  1  0  0  0  0
 18 19  1  0  0  0  0
 19 20  1  0  0  0  0
 19 40  1  0  0  0  0
 19 41  1  0  0  0  0
 20 42  1  0  0  0  0
 20 43  1  0  0  0  0
M  END
> <s_m_source_file>
AV-unprocessed.smi

> <i_m_source_file_index>
1436

> <i_lp_mmshare_version>
43012

> <i_f3d_flags>
0

> <s_epik_input>
W0NIM11jMW5vYyhbQ0gzXSljMVtDSDJdQyg9TylbTkhdW0NASF0oW0NIM10pW0NIMl1OMltDSDJdW0NIMl1PW0NIMl1bQ0gyXTI=

> <s_epik_cmdline>
J2VwaWtfcHl0aG9uJywgJy1waCcsICc3LjAnLCAnLXRuJywgJzgnLCAnLW1hJywgJzIwMCcsICctbWV0YWxfYmluZGluZycsICctaW1hZScsICc8aW5maWxlLm1hZT4nLCAnLW9tYWUnLCAnPG91dGZpbGUubWFlPic=

> <r_epik_Ionization_Penalty>
0.234179

> <r_epik_Ionization_Penalty_Charging>
0

> <r_epik_Ionization_Penalty_Neutral>
0.234179

> <r_epik_State_Penalty>
0.224936

> <r_epik_Charging_Adjusted_Penalty>
0.224936

> <i_epik_Tot_Q>
0

> <i_epik_Tot_abs_Q>
0

> <r_epik_Metal_State_Penalty>
0.224936

> <b_epik_Metal_Only>
0

> <s_lp_Force_Field>
OPLS_2005

> <r_lp_Energy>
22.5578

> <b_lp_Chiralities_Consistent>
1

> <s_lp_Variant>
AV-unprocessed.smi:1436-2

> <Gold.Version>
5.8.1

> <Gold.Id.Protein>
6NUR|6NUR_protein|mol2

> <Gold.PLP.Fitness>
32.3140

> <Gold.PLP.PLP>
-28.2834

> <Gold.PLP.part.hbond>
-3.0000

> <Gold.PLP.part.metal>
0.0000

> <Gold.PLP.part.buried>
-2.7958

> <Gold.PLP.part.nonpolar>
-22.4041

> <Gold.PLP.part.repulsive>
0.2419

> <Gold.PLP.ligand.clash>
0.0000

> <Gold.PLP.ligand.torsion>
1.0192

> <Gold.PLP.Chemscore.Hbond>
2.0000

> <Gold.PLP.Chemscore.CHOScore>
0.0000

> <Gold.PLP.Chemscore.Metal>
0.0000

> <Gold.Chemscore.Hbonds>
donor molecule, donor type, donor heavy atom, donor atom, acceptor molecule, acceptor atom, score
      P1  H  7989  7998       L1     3  0.95
      P1  H  7997  8009       L1    10  1.00

> <Gold.PLP.Chemscore.Internal.Correction>
0.0691

> <Gold.Rescore>
     Score         DG    S(hbond)    S(metal)    S(lipo)     H(rot)  DE(clash)    DE(int)     intcor
     12.44     -15.79       1.77        0.00      75.18       1.71       0.01       3.33       ----

> <Gold.Chemscore.Fitness>
12.4406

> <Gold.Chemscore.DG>
-15.7883

> <Gold.Chemscore.ZeroCoef>
-5.4800

> <Gold.Chemscore.Hbond>
1.7669

> <Gold.Chemscore.Metal>
0.0000

> <Gold.Chemscore.Lipo>
75.1795

> <Gold.Chemscore.Internal_Hbond>
0.0000

> <Gold.Chemscore.DEClash>
0.0149

> <Gold.Chemscore.DEInternal>
3.3329

> <Gold.Chemscore.Rot>
1.7145

> <Gold.Chemscore.Internal.Correction>
   9.000000E+99

> <Gold.Chemscore.Hbonds>
donor molecule, donor type, donor heavy atom, donor atom, acceptor molecule, acceptor atom, score
      P1  H  7989  7998       L1     3  0.21
      P1  H  7997  8009       L1    10  0.95

> <Gold.Chemscore.Hbond.Weighted>
-5.9014

> <Gold.Chemscore.Metal.Weighted>
-0.0000

> <Gold.Chemscore.Lipo.Weighted>
-8.7960

> <Gold.Chemscore.Internal_Hbond.Weighted>
0.0000

> <Gold.Chemscore.DEClash.Weighted>
0.0149

> <Gold.Chemscore.DEInternal.Weighted>
3.3329

> <Gold.Chemscore.Rot.Weighted>
4.3891

> <Gold.Chemscore.Internal.Correction.Weighted>
   9.000000E+99

> <Gold.Protein.RotatedTorsions>
[ 6907 6896 6895 6894 ] final -106.36 input  -60.11 | X-H torsion
[ 7974 7965 7964 7962 ] final   98.16 input  175.53 | X-H torsion
[ 8008 7997 7996 7995 ] final  135.80 input   59.86 | X-H torsion
[ 10167 10162 10161 10158 ] final  175.58 input  -65.29 | X-H torsion
[ 10718 10713 10712 10709 ] final -143.93 input   66.30 | X-H torsion
[ 10763 10752 10751 10750 ] final  139.21 input  -60.55 | X-H torsion
[ 11005 11000 10999 10996 ] final   66.15 input  -57.11 | X-H torsion

> <Gold.Protein.ActiveResidues>
 VAL166  LYS551  ARG553  GLY616  TRP617  ASP618  TYR619  PRO620  LYS621  CYS622 
 ASP623  PHE694  ASN695  SER759  ASP760  ASP761  ALA762  ILE779  LEU786  VAL792 
 PHE793  MET794  SER795  GLU796  ALA797  LYS798  CYS799  TRP800  GLU811  SER814 

> <Gold.Protein.RotatedAtoms>
  150.7385  133.9988  159.3631 H   0  0  0  0  0  0  0  0  0  0  0  0  # atno 6907 bound_to 6896
  151.7941  135.0725  160.0400 H   0  0  0  0  0  0  0  0  0  0  0  0  # atno 6908 bound_to 6896
  152.3187  133.5794  159.5766 H   0  0  0  0  0  0  0  0  0  0  0  0  # atno 6909 bound_to 6896
  145.4158  139.2327  143.3223 H   0  0  0  0  0  0  0  0  0  0  0  0  # atno 7974 bound_to 7965
  156.3003  140.2461  156.3640 H   0  0  0  0  0  0  0  0  0  0  0  0  # atno 8008 bound_to 7997
  154.8850  140.0411  157.1824 H   0  0  0  0  0  0  0  0  0  0  0  0  # atno 8009 bound_to 7997
  154.8656  140.2927  155.5516 H   0  0  0  0  0  0  0  0  0  0  0  0  # atno 8010 bound_to 7997
  139.5182  144.3015  152.0374 H   0  0  0  0  0  0  0  0  0  0  0  0  # atno 10167 bound_to 10162
  156.3640  130.7753  151.1924 H   0  0  0  0  0  0  0  0  0  0  0  0  # atno 10718 bound_to 10713
  153.9023  135.3020  155.3448 H   0  0  0  0  0  0  0  0  0  0  0  0  # atno 10763 bound_to 10752
  154.7664  135.4908  153.9566 H   0  0  0  0  0  0  0  0  0  0  0  0  # atno 10764 bound_to 10752
  153.1238  135.6788  153.9392 H   0  0  0  0  0  0  0  0  0  0  0  0  # atno 10765 bound_to 10752
  139.9850  134.6683  156.0193 H   0  0  0  0  0  0  0  0  0  0  0  0  # atno 11005 bound_to 11000
  146.2682  140.4876  142.8825 LP  0  0  0  0  0  0  0  0  0  0  0  0  # atno 17320 bound_to 7965
  144.8278  140.6657  143.6311 LP  0  0  0  0  0  0  0  0  0  0  0  0  # atno 17321 bound_to 7965
  140.2463  144.4217  150.6240 LP  0  0  0  0  0  0  0  0  0  0  0  0  # atno 17342 bound_to 10162
  140.6256  143.2181  151.6604 LP  0  0  0  0  0  0  0  0  0  0  0  0  # atno 17343 bound_to 10162
  157.7476  131.0392  150.4538 LP  0  0  0  0  0  0  0  0  0  0  0  0  # atno 17370 bound_to 10713
  156.4753  130.4062  149.6493 LP  0  0  0  0  0  0  0  0  0  0  0  0  # atno 17371 bound_to 10713
  141.1516  133.6548  156.4032 LP  0  0  0  0  0  0  0  0  0  0  0  0  # atno 17394 bound_to 11000
  140.5021  134.6476  157.5252 LP  0  0  0  0  0  0  0  0  0  0  0  0  # atno 17395 bound_to 11000

$$$$
