AV-unprocessed.smi:1793|AV-procd|sdf|7227|dock9
  -GOLD-   22720 8473D 1   1.00000     0.00000
 Structure written by MMmdl.
 46 48  0  0  0  0  0  0  0  0  1 V2000
  144.4418  135.0624  152.6018 C   0  0  0  0  0  0  0  0  0  0  0  0
  145.3068  135.4708  151.3990 C   0  0  1  0  0  0  0  0  0  0  0  0
  146.3877  136.3536  151.8318 N   0  0  0  0  0  0  0  0  0  0  0  0
  146.2351  137.5516  152.4114 C   0  0  0  0  0  0  0  0  0  0  0  0
  145.1409  138.0584  152.6595 O   0  0  0  0  0  0  0  0  0  0  0  0
  147.4258  138.1032  152.6948 N   0  0  0  0  0  0  0  0  0  0  0  0
  147.6791  139.3271  153.3740 C   0  0  0  0  0  0  0  0  0  0  0  0
  146.7709  140.4108  153.2981 C   0  0  0  0  0  0  0  0  0  0  0  0
  147.0945  141.6260  153.9252 C   0  0  0  0  0  0  0  0  0  0  0  0
  148.3258  141.7206  154.5945 C   0  0  0  0  0  0  0  0  0  0  0  0
  149.2070  140.7027  154.6640 N   0  0  0  0  0  0  0  0  0  0  0  0
  148.9031  139.5187  154.0769 C   0  0  0  0  0  0  0  0  0  0  0  0
  149.8570  138.4816  154.1985 N   0  0  0  0  0  0  0  0  0  0  0  0
  151.2400  138.7832  154.5537 C   0  0  0  0  0  0  0  0  0  0  0  0
  151.8414  137.4461  154.9771 C   0  0  0  0  0  0  0  0  0  0  0  0
  150.6622  136.7617  155.6608 C   0  0  0  0  0  0  0  0  0  0  0  0
  149.4508  137.2424  154.8558 C   0  0  0  0  0  0  0  0  0  0  0  0
  145.8835  134.2502  150.6546 C   0  0  1  0  0  0  0  0  0  0  0  0
  146.7135  133.2961  151.5329 C   0  0  0  0  0  0  0  0  0  0  0  0
  146.0120  131.9568  151.3954 C   0  0  0  0  0  0  0  0  0  0  0  0
  145.2619  132.1059  150.0799 C   0  0  0  0  0  0  0  0  0  0  0  0
  144.8285  133.4548  150.1183 O   0  0  0  0  0  0  0  0  0  0  0  0
  143.6234  134.4121  152.2924 H   0  0  0  0  0  0  0  0  0  0  0  0
  144.0019  135.9356  153.0847 H   0  0  0  0  0  0  0  0  0  0  0  0
  145.0269  134.5278  153.3507 H   0  0  0  0  0  0  0  0  0  0  0  0
  144.6660  136.0052  150.6955 H   0  0  0  0  0  0  0  0  0  0  0  0
  147.3275  136.0207  151.6728 H   0  0  0  0  0  0  0  0  0  0  0  0
  148.2370  137.5285  152.5197 H   0  0  0  0  0  0  0  0  0  0  0  0
  145.8440  140.3347  152.7500 H   0  0  0  0  0  0  0  0  0  0  0  0
  146.4203  142.4687  153.8826 H   0  0  0  0  0  0  0  0  0  0  0  0
  148.6144  142.6395  155.0830 H   0  0  0  0  0  0  0  0  0  0  0  0
  151.7792  139.2232  153.7146 H   0  0  0  0  0  0  0  0  0  0  0  0
  151.2813  139.4796  155.3923 H   0  0  0  0  0  0  0  0  0  0  0  0
  152.1445  136.8764  154.0976 H   0  0  0  0  0  0  0  0  0  0  0  0
  152.7093  137.5568  155.6277 H   0  0  0  0  0  0  0  0  0  0  0  0
  150.7523  135.6754  155.6829 H   0  0  0  0  0  0  0  0  0  0  0  0
  150.5814  137.1138  156.6900 H   0  0  0  0  0  0  0  0  0  0  0  0
  148.5768  137.3800  155.4939 H   0  0  0  0  0  0  0  0  0  0  0  0
  149.1994  136.5068  154.0915 H   0  0  0  0  0  0  0  0  0  0  0  0
  146.5054  134.5879  149.8240 H   0  0  0  0  0  0  0  0  0  0  0  0
  147.7326  133.2327  151.1498 H   0  0  0  0  0  0  0  0  0  0  0  0
  146.7764  133.6103  152.5754 H   0  0  0  0  0  0  0  0  0  0  0  0
  146.6990  131.1102  151.4015 H   0  0  0  0  0  0  0  0  0  0  0  0
  145.3011  131.8257  152.2122 H   0  0  0  0  0  0  0  0  0  0  0  0
  145.9286  131.9576  149.2290 H   0  0  0  0  0  0  0  0  0  0  0  0
  144.4237  131.4149  149.9904 H   0  0  0  0  0  0  0  0  0  0  0  0
  1  2  1  0  0  0  0
  1 23  1  0  0  0  0
  1 24  1  0  0  0  0
  1 25  1  0  0  0  0
  2  3  1  0  0  0  0
  2 18  1  0  0  0  0
  2 26  1  0  0  0  0
  3  4  1  0  0  0  0
  3 27  1  0  0  0  0
  4  5  2  0  0  0  0
  4  6  1  0  0  0  0
  6  7  1  0  0  0  0
  6 28  1  0  0  0  0
  7 12  1  0  0  0  0
  7  8  2  0  0  0  0
  8  9  1  0  0  0  0
  8 29  1  0  0  0  0
  9 10  2  0  0  0  0
  9 30  1  0  0  0  0
 10 11  1  0  0  0  0
 10 31  1  0  0  0  0
 11 12  2  0  0  0  0
 12 13  1  0  0  0  0
 13 17  1  0  0  0  0
 13 14  1  0  0  0  0
 14 15  1  0  0  0  0
 14 32  1  0  0  0  0
 14 33  1  0  0  0  0
 15 16  1  0  0  0  0
 15 34  1  0  0  0  0
 15 35  1  0  0  0  0
 16 17  1  0  0  0  0
 16 36  1  0  0  0  0
 16 37  1  0  0  0  0
 17 38  1  0  0  0  0
 17 39  1  0  0  0  0
 18 22  1  0  0  0  0
 18 19  1  0  0  0  0
 18 40  1  0  0  0  0
 19 20  1  0  0  0  0
 19 41  1  0  0  0  0
 19 42  1  0  0  0  0
 20 21  1  0  0  0  0
 20 43  1  0  0  0  0
 20 44  1  0  0  0  0
 21 22  1  0  0  0  0
 21 45  1  0  0  0  0
 21 46  1  0  0  0  0
M  END
> <s_m_source_file>
AV-unprocessed.smi

> <i_m_source_file_index>
1793

> <i_lp_mmshare_version>
43012

> <i_f3d_flags>
0

> <s_epik_input>
TzFbQ0gyXVtDSDJdW0NIMl1bQ0BIXTFbQ0BIXShbQ0gzXSlbTkhdQyg9TylbTkhdYzJbY0hdW2NIXVtjSF1uYzJOM1tDSDJdW0NIMl1bQ0gyXVtDSDJdMw==

> <s_epik_cmdline>
J2VwaWtfcHl0aG9uJywgJy1waCcsICc3LjAnLCAnLXRuJywgJzgnLCAnLW1hJywgJzIwMCcsICctbWV0YWxfYmluZGluZycsICctaW1hZScsICc8aW5maWxlLm1hZT4nLCAnLW9tYWUnLCAnPG91dGZpbGUubWFlPic=

> <r_lp_tautomer_probability>
1

> <r_epik_Ionization_Penalty>
0.0992086

> <r_epik_Ionization_Penalty_Charging>
0

> <r_epik_Ionization_Penalty_Neutral>
0.0992086

> <r_epik_State_Penalty>
0.0887141

> <r_epik_Charging_Adjusted_Penalty>
0.0887141

> <i_epik_Tot_Q>
0

> <i_epik_Tot_abs_Q>
0

> <r_epik_Metal_State_Penalty>
0.075945

> <b_epik_Metal_Only>
0

> <s_lp_Force_Field>
OPLS_2005

> <r_lp_Energy>
46.9131

> <b_lp_Chiralities_Consistent>
1

> <s_lp_Variant>
AV-unprocessed.smi:1793-4

> <Gold.Version>
5.8.1

> <Gold.Id.Protein>
6NUR|6NUR_protein|mol2

> <Gold.PLP.Fitness>
41.7989

> <Gold.PLP.PLP>
-33.3982

> <Gold.PLP.part.hbond>
-2.0916

> <Gold.PLP.part.metal>
0.0000

> <Gold.PLP.part.buried>
-1.9267

> <Gold.PLP.part.nonpolar>
-32.1961

> <Gold.PLP.part.repulsive>
2.9799

> <Gold.PLP.ligand.clash>
0.0000

> <Gold.PLP.ligand.torsion>
0.4654

> <Gold.PLP.Chemscore.Hbond>
1.9920

> <Gold.PLP.Chemscore.CHOScore>
1.0000

> <Gold.PLP.Chemscore.Metal>
0.0000

> <Gold.Chemscore.Hbonds>
donor molecule, donor type, donor heavy atom, donor atom, acceptor molecule, acceptor atom, score
      L1  H     3    27       P1  7948  1.00
      L1  H     6    28       P1  7948  1.00
      L1  C    10    31       P1  8028  1.00

> <Gold.PLP.Chemscore.Internal.Correction>
0.3555

> <Gold.Rescore>
     Score         DG    S(hbond)    S(metal)    S(lipo)     H(rot)  DE(clash)    DE(int)     intcor
     15.41     -18.48       1.89        0.00      87.04       1.36       1.28       1.79       ----

> <Gold.Chemscore.Fitness>
15.4119

> <Gold.Chemscore.DG>
-18.4821

> <Gold.Chemscore.ZeroCoef>
-5.4800

> <Gold.Chemscore.Hbond>
1.8850

> <Gold.Chemscore.Metal>
0.0000

> <Gold.Chemscore.Lipo>
87.0350

> <Gold.Chemscore.Internal_Hbond>
0.0000

> <Gold.Chemscore.DEClash>
1.2828

> <Gold.Chemscore.DEInternal>
1.7874

> <Gold.Chemscore.Rot>
1.3582

> <Gold.Chemscore.Internal.Correction>
   9.000000E+99

> <Gold.Chemscore.Hbonds>
donor molecule, donor type, donor heavy atom, donor atom, acceptor molecule, acceptor atom, score
      L1  H     3    27       P1  7948  0.95
      L1  H     6    28       P1  7948  0.95

> <Gold.Chemscore.Hbond.Weighted>
-6.2960

> <Gold.Chemscore.Metal.Weighted>
-0.0000

> <Gold.Chemscore.Lipo.Weighted>
-10.1831

> <Gold.Chemscore.Internal_Hbond.Weighted>
0.0000

> <Gold.Chemscore.DEClash.Weighted>
1.2828

> <Gold.Chemscore.DEInternal.Weighted>
1.7874

> <Gold.Chemscore.Rot.Weighted>
3.4771

> <Gold.Chemscore.Internal.Correction.Weighted>
   9.000000E+99

> <Gold.Protein.RotatedTorsions>
[ 6907 6896 6895 6894 ] final  -25.43 input  -60.11 | X-H torsion
[ 7974 7965 7964 7962 ] final  131.01 input  175.53 | X-H torsion
[ 8008 7997 7996 7995 ] final  158.92 input   59.86 | X-H torsion
[ 10167 10162 10161 10158 ] final  122.14 input  -65.29 | X-H torsion
[ 10718 10713 10712 10709 ] final  -61.66 input   66.30 | X-H torsion
[ 10763 10752 10751 10750 ] final  -56.38 input  -60.55 | X-H torsion
[ 11005 11000 10999 10996 ] final   87.60 input  -57.11 | X-H torsion

> <Gold.Protein.ActiveResidues>
 VAL166  LYS551  ARG553  GLY616  TRP617  ASP618  TYR619  PRO620  LYS621  CYS622 
 ASP623  PHE694  ASN695  SER759  ASP760  ASP761  ALA762  ILE779  LEU786  VAL792 
 PHE793  MET794  SER795  GLU796  ALA797  LYS798  CYS799  TRP800  GLU811  SER814 

> <Gold.Protein.RotatedAtoms>
  151.1753  135.0336  159.8768 H   0  0  0  0  0  0  0  0  0  0  0  0  # atno 6907 bound_to 6896
  152.5447  134.1124  159.8374 H   0  0  0  0  0  0  0  0  0  0  0  0  # atno 6908 bound_to 6896
  151.1235  133.5040  159.2633 H   0  0  0  0  0  0  0  0  0  0  0  0  # atno 6909 bound_to 6896
  145.0118  139.4213  143.5241 H   0  0  0  0  0  0  0  0  0  0  0  0  # atno 7974 bound_to 7965
  156.2272  140.1845  156.7333 H   0  0  0  0  0  0  0  0  0  0  0  0  # atno 8008 bound_to 7997
  154.5961  140.0643  156.9334 H   0  0  0  0  0  0  0  0  0  0  0  0  # atno 8009 bound_to 7997
  155.2253  140.3310  155.4313 H   0  0  0  0  0  0  0  0  0  0  0  0  # atno 8010 bound_to 7997
  139.5876  144.7013  151.3369 H   0  0  0  0  0  0  0  0  0  0  0  0  # atno 10167 bound_to 10162
  156.0907  130.4201  150.1026 H   0  0  0  0  0  0  0  0  0  0  0  0  # atno 10718 bound_to 10713
  154.2057  135.6403  153.5100 H   0  0  0  0  0  0  0  0  0  0  0  0  # atno 10763 bound_to 10752
  153.0001  135.5462  154.6268 H   0  0  0  0  0  0  0  0  0  0  0  0  # atno 10764 bound_to 10752
  154.5692  135.2915  155.0817 H   0  0  0  0  0  0  0  0  0  0  0  0  # atno 10765 bound_to 10752
  139.8916  134.8433  156.2883 H   0  0  0  0  0  0  0  0  0  0  0  0  # atno 11005 bound_to 11000
  146.3471  139.9567  142.8722 LP  0  0  0  0  0  0  0  0  0  0  0  0  # atno 17320 bound_to 7965
  145.2012  140.9855  143.4154 LP  0  0  0  0  0  0  0  0  0  0  0  0  # atno 17321 bound_to 7965
  140.7145  143.7302  150.7629 LP  0  0  0  0  0  0  0  0  0  0  0  0  # atno 17342 bound_to 10162
  140.0850  143.4932  152.2509 LP  0  0  0  0  0  0  0  0  0  0  0  0  # atno 17343 bound_to 10162
  156.9036  130.9628  151.3573 LP  0  0  0  0  0  0  0  0  0  0  0  0  # atno 17370 bound_to 10713
  157.6055  130.8544  149.8868 LP  0  0  0  0  0  0  0  0  0  0  0  0  # atno 17371 bound_to 10713
  140.9993  133.7161  156.0935 LP  0  0  0  0  0  0  0  0  0  0  0  0  # atno 17394 bound_to 11000
  140.7519  134.4035  157.5540 LP  0  0  0  0  0  0  0  0  0  0  0  0  # atno 17395 bound_to 11000

$$$$
