AV-unprocessed.smi:2847|AV-procd|sdf|10953|dock5
  -GOLD-   2272015403D 1   1.00000     0.00000
 Structure written by MMmdl.
 45 46  0  0  0  0  0  0  0  0  1 V2000
  146.7243  140.5873  155.9645 C   0  0  0  0  0  0  0  0  0  0  0  0
  147.1421  140.8409  154.4969 C   0  0  0  0  0  0  0  0  0  0  0  0
  146.3384  142.0782  154.0316 C   0  0  0  0  0  0  0  0  0  0  0  0
  148.6487  141.1521  154.4365 C   0  0  0  0  0  0  0  0  0  0  0  0
  146.8353  139.6176  153.6154 C   0  0  0  0  0  0  0  0  0  0  0  0
  146.9232  139.7847  152.2893 N   0  0  0  0  0  0  0  0  0  0  0  0
  146.5329  138.7609  151.5016 C   0  0  0  0  0  0  0  0  0  0  0  0
  146.0080  137.5671  152.0346 C   0  0  0  0  0  0  0  0  0  0  0  0
  145.6316  136.5245  151.1465 N   0  0  0  0  0  0  0  0  0  0  0  0
  145.1165  135.3198  151.4433 C   0  0  0  0  0  0  0  0  0  0  0  0
  144.8479  134.9262  152.5776 O   0  0  0  0  0  0  0  0  0  0  0  0
  144.9150  134.5992  150.3277 N   0  0  0  0  0  0  0  0  0  0  0  0
  144.3672  133.2416  150.1991 C   0  0  1  0  0  0  0  0  0  0  0  0
  143.1060  133.2046  151.0972 C   0  0  0  0  0  0  0  0  0  0  0  0
  143.9449  132.9758  148.7283 C   0  0  0  0  0  0  0  0  0  0  0  0
  143.4782  134.1407  148.0750 O   0  0  0  0  0  0  0  0  0  0  0  0
  145.3927  132.1669  150.6007 C   0  0  0  0  0  0  0  0  0  0  0  0
  145.0236  130.8275  151.1970 C   0  0  0  0  0  0  0  0  0  0  0  0
  145.7798  131.8485  152.0261 C   0  0  0  0  0  0  0  0  0  0  0  0
  145.9288  137.5067  153.4464 C   0  0  0  0  0  0  0  0  0  0  0  0
  146.3248  138.5380  154.2223 N   0  0  0  0  0  0  0  0  0  0  0  0
  146.8967  141.4676  156.5846 H   0  0  0  0  0  0  0  0  0  0  0  0
  147.2899  139.7709  156.4153 H   0  0  0  0  0  0  0  0  0  0  0  0
  145.6654  140.3367  156.0388 H   0  0  0  0  0  0  0  0  0  0  0  0
  145.2659  141.8795  154.0355 H   0  0  0  0  0  0  0  0  0  0  0  0
  146.6133  142.3895  153.0232 H   0  0  0  0  0  0  0  0  0  0  0  0
  146.5147  142.9347  154.6833 H   0  0  0  0  0  0  0  0  0  0  0  0
  148.9017  142.0167  155.0507 H   0  0  0  0  0  0  0  0  0  0  0  0
  148.9680  141.3679  153.4164 H   0  0  0  0  0  0  0  0  0  0  0  0
  149.2414  140.3094  154.7945 H   0  0  0  0  0  0  0  0  0  0  0  0
  146.6323  138.9026  150.4353 H   0  0  0  0  0  0  0  0  0  0  0  0
  145.7295  136.7361  150.1642 H   0  0  0  0  0  0  0  0  0  0  0  0
  145.1807  135.0366  149.4577 H   0  0  0  0  0  0  0  0  0  0  0  0
  142.5639  132.2637  151.0066 H   0  0  0  0  0  0  0  0  0  0  0  0
  142.4031  133.9940  150.8283 H   0  0  0  0  0  0  0  0  0  0  0  0
  143.3434  133.3562  152.1495 H   0  0  0  0  0  0  0  0  0  0  0  0
  144.7677  132.5609  148.1461 H   0  0  0  0  0  0  0  0  0  0  0  0
  143.1482  132.2319  148.6979 H   0  0  0  0  0  0  0  0  0  0  0  0
  144.2254  134.6497  147.8000 H   0  0  0  0  0  0  0  0  0  0  0  0
  146.2180  132.1060  149.8940 H   0  0  0  0  0  0  0  0  0  0  0  0
  143.9904  130.6321  151.4721 H   0  0  0  0  0  0  0  0  0  0  0  0
  145.5769  129.9581  150.8481 H   0  0  0  0  0  0  0  0  0  0  0  0
  146.8320  131.6528  152.2229 H   0  0  0  0  0  0  0  0  0  0  0  0
  145.2436  132.3272  152.8413 H   0  0  0  0  0  0  0  0  0  0  0  0
  145.5653  136.6403  153.9761 H   0  0  0  0  0  0  0  0  0  0  0  0
  1  2  1  0  0  0  0
  1 22  1  0  0  0  0
  1 23  1  0  0  0  0
  1 24  1  0  0  0  0
  2  3  1  0  0  0  0
  2  4  1  0  0  0  0
  2  5  1  0  0  0  0
  3 25  1  0  0  0  0
  3 26  1  0  0  0  0
  3 27  1  0  0  0  0
  4 28  1  0  0  0  0
  4 29  1  0  0  0  0
  4 30  1  0  0  0  0
  5 21  1  0  0  0  0
  5  6  2  0  0  0  0
  6  7  1  0  0  0  0
  7  8  2  0  0  0  0
  7 31  1  0  0  0  0
  8  9  1  0  0  0  0
  8 20  1  0  0  0  0
  9 10  1  0  0  0  0
  9 32  1  0  0  0  0
 10 11  2  0  0  0  0
 10 12  1  0  0  0  0
 12 13  1  0  0  0  0
 12 33  1  0  0  0  0
 13 14  1  0  0  0  0
 13 15  1  0  0  0  0
 13 17  1  0  0  0  0
 14 34  1  0  0  0  0
 14 35  1  0  0  0  0
 14 36  1  0  0  0  0
 15 16  1  0  0  0  0
 15 37  1  0  0  0  0
 15 38  1  0  0  0  0
 16 39  1  0  0  0  0
 17 19  1  0  0  0  0
 17 18  1  0  0  0  0
 17 40  1  0  0  0  0
 18 19  1  0  0  0  0
 18 41  1  0  0  0  0
 18 42  1  0  0  0  0
 19 43  1  0  0  0  0
 19 44  1  0  0  0  0
 20 21  2  0  0  0  0
 20 45  1  0  0  0  0
M  END
> <s_m_source_file>
AV-unprocessed.smi

> <i_m_source_file_index>
2847

> <i_lp_mmshare_version>
43012

> <i_f3d_flags>
0

> <s_epik_input>
W0NIM11DKFtDSDNdKShbQ0gzXSljMW5bY0hdYyhbY0hdbjEpW05IXUMoPU8pW05IXVtDQEBdKFtDSDNdKShbQ0gyXVtPSF0pW0NIXTJbQ0gyXVtDSDJdMg==

> <s_epik_cmdline>
J2VwaWtfcHl0aG9uJywgJy1waCcsICc3LjAnLCAnLXRuJywgJzgnLCAnLW1hJywgJzIwMCcsICctbWV0YWxfYmluZGluZycsICctaW1hZScsICc8aW5maWxlLm1hZT4nLCAnLW9tYWUnLCAnPG91dGZpbGUubWFlPic=

> <r_lp_tautomer_probability>
1

> <r_epik_Ionization_Penalty>
2.57177e-05

> <r_epik_Ionization_Penalty_Charging>
0

> <r_epik_Ionization_Penalty_Neutral>
2.57177e-05

> <r_epik_State_Penalty>
-0

> <r_epik_Charging_Adjusted_Penalty>
0

> <i_epik_Tot_Q>
0

> <i_epik_Tot_abs_Q>
0

> <r_epik_Metal_State_Penalty>
-0

> <b_epik_Metal_Only>
0

> <s_lp_Force_Field>
OPLS_2005

> <r_lp_Energy>
20.4005

> <b_lp_Chiralities_Consistent>
1

> <s_lp_Variant>
AV-unprocessed.smi:2847-1

> <Gold.Version>
5.8.1

> <Gold.Id.Protein>
6NUR|6NUR_protein|mol2

> <Gold.PLP.Fitness>
47.7219

> <Gold.PLP.PLP>
-40.1730

> <Gold.PLP.part.hbond>
-5.5409

> <Gold.PLP.part.metal>
0.0000

> <Gold.PLP.part.buried>
-2.4576

> <Gold.PLP.part.nonpolar>
-35.8056

> <Gold.PLP.part.repulsive>
2.2802

> <Gold.PLP.ligand.clash>
0.0000

> <Gold.PLP.ligand.torsion>
1.5898

> <Gold.PLP.Chemscore.Hbond>
2.9360

> <Gold.PLP.Chemscore.CHOScore>
0.1126

> <Gold.PLP.Chemscore.Metal>
0.0000

> <Gold.Chemscore.Hbonds>
donor molecule, donor type, donor heavy atom, donor atom, acceptor molecule, acceptor atom, score
      L1  H    12    33       P1  7921  0.86
      L1  H    16    39       P1  7921  0.99
      P1  H 10192 10197       L1    16  1.00
      L1  C     7    31       P1 10171  0.10

> <Gold.PLP.Chemscore.Internal.Correction>
1.5826

> <Gold.Rescore>
     Score         DG    S(hbond)    S(metal)    S(lipo)     H(rot)  DE(clash)    DE(int)     intcor
     12.56     -18.47       2.07        0.00      99.22       2.17       1.76       4.15       ----

> <Gold.Chemscore.Fitness>
12.5555

> <Gold.Chemscore.DG>
-18.4664

> <Gold.Chemscore.ZeroCoef>
-5.4800

> <Gold.Chemscore.Hbond>
2.0742

> <Gold.Chemscore.Metal>
0.0000

> <Gold.Chemscore.Lipo>
99.2184

> <Gold.Chemscore.Internal_Hbond>
0.0000

> <Gold.Chemscore.DEClash>
1.7624

> <Gold.Chemscore.DEInternal>
4.1486

> <Gold.Chemscore.Rot>
2.1679

> <Gold.Chemscore.Internal.Correction>
   9.000000E+99

> <Gold.Chemscore.Hbonds>
donor molecule, donor type, donor heavy atom, donor atom, acceptor molecule, acceptor atom, score
      L1  H    12    33       P1  7921  0.79
      L1  H    16    39       P1  7921  0.94
      P1  H 10192 10197       L1    16  0.24

> <Gold.Chemscore.Hbond.Weighted>
-6.9277

> <Gold.Chemscore.Metal.Weighted>
-0.0000

> <Gold.Chemscore.Lipo.Weighted>
-11.6085

> <Gold.Chemscore.Internal_Hbond.Weighted>
0.0000

> <Gold.Chemscore.DEClash.Weighted>
1.7624

> <Gold.Chemscore.DEInternal.Weighted>
4.1486

> <Gold.Chemscore.Rot.Weighted>
5.5499

> <Gold.Chemscore.Internal.Correction.Weighted>
   9.000000E+99

> <Gold.Protein.RotatedTorsions>
[ 6907 6896 6895 6894 ] final  -96.33 input  -60.11 | X-H torsion
[ 7974 7965 7964 7962 ] final   -7.32 input  175.53 | X-H torsion
[ 8008 7997 7996 7995 ] final  173.08 input   59.86 | X-H torsion
[ 10167 10162 10161 10158 ] final    1.07 input  -65.29 | X-H torsion
[ 10718 10713 10712 10709 ] final -127.67 input   66.30 | X-H torsion
[ 10763 10752 10751 10750 ] final  134.18 input  -60.55 | X-H torsion
[ 11005 11000 10999 10996 ] final   37.71 input  -57.11 | X-H torsion

> <Gold.Protein.ActiveResidues>
 VAL166  LYS551  ARG553  GLY616  TRP617  ASP618  TYR619  PRO620  LYS621  CYS622 
 ASP623  PHE694  ASN695  SER759  ASP760  ASP761  ALA762  ILE779  LEU786  VAL792 
 PHE793  MET794  SER795  GLU796  ALA797  LYS798  CYS799  TRP800  GLU811  SER814 

> <Gold.Protein.RotatedAtoms>
  150.6986  134.1519  159.4143 H   0  0  0  0  0  0  0  0  0  0  0  0  # atno 6907 bound_to 6896
  151.9502  135.0170  160.0551 H   0  0  0  0  0  0  0  0  0  0  0  0  # atno 6908 bound_to 6896
  152.2018  133.4811  159.5099 H   0  0  0  0  0  0  0  0  0  0  0  0  # atno 6909 bound_to 6896
  146.2310  140.2301  142.8340 H   0  0  0  0  0  0  0  0  0  0  0  0  # atno 7974 bound_to 7965
  156.1111  140.1469  156.9337 H   0  0  0  0  0  0  0  0  0  0  0  0  # atno 8008 bound_to 7997
  154.4768  140.0892  156.7324 H   0  0  0  0  0  0  0  0  0  0  0  0  # atno 8009 bound_to 7997
  155.4594  140.3438  155.4313 H   0  0  0  0  0  0  0  0  0  0  0  0  # atno 8010 bound_to 7997
  140.6700  143.7075  150.7903 H   0  0  0  0  0  0  0  0  0  0  0  0  # atno 10167 bound_to 10162
  156.1879  130.6776  151.0387 H   0  0  0  0  0  0  0  0  0  0  0  0  # atno 10718 bound_to 10713
  153.8193  135.3118  155.3408 H   0  0  0  0  0  0  0  0  0  0  0  0  # atno 10763 bound_to 10752
  154.8019  135.4721  154.0300 H   0  0  0  0  0  0  0  0  0  0  0  0  # atno 10764 bound_to 10752
  153.1703  135.6876  153.8706 H   0  0  0  0  0  0  0  0  0  0  0  0  # atno 10765 bound_to 10752
  140.2199  134.3654  155.8010 H   0  0  0  0  0  0  0  0  0  0  0  0  # atno 11005 bound_to 11000
  144.9564  140.8231  143.5540 LP  0  0  0  0  0  0  0  0  0  0  0  0  # atno 17320 bound_to 7965
  145.2267  139.2133  143.5064 LP  0  0  0  0  0  0  0  0  0  0  0  0  # atno 17321 bound_to 7965
  140.0759  143.5016  152.2555 LP  0  0  0  0  0  0  0  0  0  0  0  0  # atno 17342 bound_to 10162
  139.5964  144.7568  151.3276 LP  0  0  0  0  0  0  0  0  0  0  0  0  # atno 17343 bound_to 10162
  157.6910  131.0810  150.7106 LP  0  0  0  0  0  0  0  0  0  0  0  0  # atno 17370 bound_to 10713
  156.7163  130.4667  149.5534 LP  0  0  0  0  0  0  0  0  0  0  0  0  # atno 17371 bound_to 10713
  141.2223  133.7188  156.8558 LP  0  0  0  0  0  0  0  0  0  0  0  0  # atno 17394 bound_to 11000
  140.1861  134.8999  157.3006 LP  0  0  0  0  0  0  0  0  0  0  0  0  # atno 17395 bound_to 11000

$$$$
