AV-unprocessed.smi:1163|AV-procd|sdf|4923|dock4
  -GOLD-   22720 3503D 1   1.00000     0.00000
 Structure written by MMmdl.
 40 41  0  0  0  0  0  0  0  0  2 V2000
  153.8176  138.4719  158.7927 C   0  0  0  0  0  0  0  0  0  0  0  0
  153.6073  138.9146  157.4564 O   0  0  0  0  0  0  0  0  0  0  0  0
  152.7235  138.2106  156.6646 C   0  0  0  0  0  0  0  0  0  0  0  0
  152.4962  138.6558  155.3473 C   0  0  0  0  0  0  0  0  0  0  0  0
  151.5947  137.9442  154.5327 C   0  0  0  0  0  0  0  0  0  0  0  0
  150.9401  136.8083  155.0665 C   0  0  0  0  0  0  0  0  0  0  0  0
  150.0230  135.9954  154.3464 N   0  0  0  0  0  0  0  0  0  0  0  0
  149.5709  134.7666  154.6499 C   0  0  0  0  0  0  0  0  0  0  0  0
  149.9023  134.1050  155.6333 O   0  0  0  0  0  0  0  0  0  0  0  0
  148.7094  134.3234  153.7234 N   0  0  0  0  0  0  0  0  0  0  0  0
  148.0406  133.0271  153.7623 C   0  0  1  0  0  0  0  0  0  0  0  0
  146.8935  132.8961  152.7704 C   0  0  0  0  0  0  0  0  0  0  0  0
  146.7141  131.3771  152.6853 C   0  0  0  0  0  0  0  0  0  0  0  0
  148.0531  130.7762  152.9166 N   0  3  2  0  0  0  0  0  0  0  0  0
  148.0600  129.5866  153.8053 C   0  0  0  0  0  0  0  0  0  0  0  0
  147.4404  128.3433  153.1420 C   0  0  0  0  0  0  0  0  0  0  0  0
  147.8899  128.2492  151.8916 F   0  0  0  0  0  0  0  0  0  0  0  0
  147.7705  127.2284  153.7929 F   0  0  0  0  0  0  0  0  0  0  0  0
  146.1127  128.4565  153.1108 F   0  0  0  0  0  0  0  0  0  0  0  0
  148.9545  131.8672  153.3560 C   0  0  0  0  0  0  0  0  0  0  0  0
  151.2484  136.4380  156.3921 C   0  0  0  0  0  0  0  0  0  0  0  0
  152.1104  137.1160  157.1784 N   0  0  0  0  0  0  0  0  0  0  0  0
  154.5377  139.1282  159.2811 H   0  0  0  0  0  0  0  0  0  0  0  0
  154.2227  137.4591  158.8190 H   0  0  0  0  0  0  0  0  0  0  0  0
  152.8944  138.5037  159.3731 H   0  0  0  0  0  0  0  0  0  0  0  0
  153.0080  139.5269  154.9660 H   0  0  0  0  0  0  0  0  0  0  0  0
  151.4376  138.2767  153.5187 H   0  0  0  0  0  0  0  0  0  0  0  0
  149.7119  136.3777  153.4653 H   0  0  0  0  0  0  0  0  0  0  0  0
  148.4934  134.9282  152.9442 H   0  0  0  0  0  0  0  0  0  0  0  0
  147.6548  132.8487  154.7684 H   0  0  0  0  0  0  0  0  0  0  0  0
  145.9885  133.4115  153.0937 H   0  0  0  0  0  0  0  0  0  0  0  0
  147.1827  133.2938  151.7962 H   0  0  0  0  0  0  0  0  0  0  0  0
  146.0186  131.0617  153.4647 H   0  0  0  0  0  0  0  0  0  0  0  0
  146.3003  131.0638  151.7265 H   0  0  0  0  0  0  0  0  0  0  0  0
  149.0953  129.3501  154.0550 H   0  0  0  0  0  0  0  0  0  0  0  0
  147.5599  129.8168  154.7474 H   0  0  0  0  0  0  0  0  0  0  0  0
  149.5738  132.1520  152.5040 H   0  0  0  0  0  0  0  0  0  0  0  0
  149.6267  131.5725  154.1632 H   0  0  0  0  0  0  0  0  0  0  0  0
  150.7854  135.5709  156.8401 H   0  0  0  0  0  0  0  0  0  0  0  0
  148.4057  130.4672  152.0217 H   0  0  0  0  0  0  0  0  0  0  0  0
  1  2  1  0  0  0  0
  1 23  1  0  0  0  0
  1 24  1  0  0  0  0
  1 25  1  0  0  0  0
  2  3  1  0  0  0  0
  3 22  1  0  0  0  0
  3  4  2  0  0  0  0
  4  5  1  0  0  0  0
  4 26  1  0  0  0  0
  5  6  2  0  0  0  0
  5 27  1  0  0  0  0
  6  7  1  0  0  0  0
  6 21  1  0  0  0  0
  7  8  1  0  0  0  0
  7 28  1  0  0  0  0
  8  9  2  0  0  0  0
  8 10  1  0  0  0  0
 10 11  1  0  0  0  0
 10 29  1  0  0  0  0
 11 20  1  0  0  0  0
 11 12  1  0  0  0  0
 11 30  1  0  0  0  0
 12 13  1  0  0  0  0
 12 31  1  0  0  0  0
 12 32  1  0  0  0  0
 13 14  1  0  0  0  0
 13 33  1  0  0  0  0
 13 34  1  0  0  0  0
 14 15  1  0  0  0  0
 14 20  1  0  0  0  0
 14 40  1  0  0  0  0
 15 16  1  0  0  0  0
 15 35  1  0  0  0  0
 15 36  1  0  0  0  0
 16 17  1  0  0  0  0
 16 18  1  0  0  0  0
 16 19  1  0  0  0  0
 20 37  1  0  0  0  0
 20 38  1  0  0  0  0
 21 22  2  0  0  0  0
 21 39  1  0  0  0  0
M  CHG  1  14   1
M  END
> <s_m_source_file>
AV-unprocessed.smi

> <i_m_source_file_index>
1163

> <i_lp_mmshare_version>
43012

> <i_f3d_flags>
0

> <s_epik_input>
W0NIM11PYzFbY0hdW2NIXWMoW2NIXW4xKVtOSF1DKD1PKVtOSF1bQ0BASF0yW0NIMl1bQ0gyXU4oW0NIMl0yKVtDSDJdQyhGKShGKUY=

> <s_epik_cmdline>
J2VwaWtfcHl0aG9uJywgJy1waCcsICc3LjAnLCAnLXRuJywgJzgnLCAnLW1hJywgJzIwMCcsICctbWV0YWxfYmluZGluZycsICctaW1hZScsICc8aW5maWxlLm1hZT4nLCAnLW9tYWUnLCAnPG91dGZpbGUubWFlPic=

> <r_lp_tautomer_probability>
1

> <r_epik_Ionization_Penalty>
1.12054

> <r_epik_Ionization_Penalty_Charging>
1.12047

> <r_epik_Ionization_Penalty_Neutral>
7.20346e-05

> <r_epik_State_Penalty>
1.17927

> <r_epik_Charging_Adjusted_Penalty>
2.29974

> <i_epik_Tot_Q>
1

> <i_epik_Tot_abs_Q>
1

> <r_epik_Metal_State_Penalty>
1.17928

> <b_epik_Metal_Only>
0

> <s_lp_Force_Field>
OPLS_2005

> <r_lp_Energy>
31.6131

> <b_lp_Chiralities_Consistent>
1

> <s_lp_Variant>
AV-unprocessed.smi:1163-4

> <Gold.Version>
5.8.1

> <Gold.Id.Protein>
6NUR|6NUR_protein|mol2

> <Gold.PLP.Fitness>
45.6205

> <Gold.PLP.PLP>
-34.1625

> <Gold.PLP.part.hbond>
-4.7157

> <Gold.PLP.part.metal>
0.0000

> <Gold.PLP.part.buried>
-2.9427

> <Gold.PLP.part.nonpolar>
-26.3534

> <Gold.PLP.part.repulsive>
0.1035

> <Gold.PLP.ligand.clash>
0.0000

> <Gold.PLP.ligand.torsion>
0.5144

> <Gold.PLP.Chemscore.Hbond>
3.9920

> <Gold.PLP.Chemscore.CHOScore>
0.0000

> <Gold.PLP.Chemscore.Metal>
0.0000

> <Gold.Chemscore.Hbonds>
donor molecule, donor type, donor heavy atom, donor atom, acceptor molecule, acceptor atom, score
      L1  H     7    28       P1  7948  1.00
      L1  H    10    29       P1  7948  0.99
      L1  H    14    40       P1 10747  1.00
      P1  H  7997  8010       L1     2  0.99

> <Gold.PLP.Chemscore.Internal.Correction>
0.5109

> <Gold.Rescore>
     Score         DG    S(hbond)    S(metal)    S(lipo)     H(rot)  DE(clash)    DE(int)     intcor
     17.42     -19.65       3.43        0.00      59.80       1.68       0.01       2.22       ----

> <Gold.Chemscore.Fitness>
17.4226

> <Gold.Chemscore.DG>
-19.6508

> <Gold.Chemscore.ZeroCoef>
-5.4800

> <Gold.Chemscore.Hbond>
3.4338

> <Gold.Chemscore.Metal>
0.0000

> <Gold.Chemscore.Lipo>
59.8031

> <Gold.Chemscore.Internal_Hbond>
0.0000

> <Gold.Chemscore.DEClash>
0.0063

> <Gold.Chemscore.DEInternal>
2.2219

> <Gold.Chemscore.Rot>
1.6778

> <Gold.Chemscore.Internal.Correction>
   9.000000E+99

> <Gold.Chemscore.Hbonds>
donor molecule, donor type, donor heavy atom, donor atom, acceptor molecule, acceptor atom, score
      L1  H     7    28       P1  7948  0.33
      L1  H    10    29       P1  7948  0.56
      L1  H    14    40       P1 10747  0.86
      P1  H  7997  8010       L1     2  0.81

> <Gold.Chemscore.Hbond.Weighted>
-11.4689

> <Gold.Chemscore.Metal.Weighted>
-0.0000

> <Gold.Chemscore.Lipo.Weighted>
-6.9970

> <Gold.Chemscore.Internal_Hbond.Weighted>
0.0000

> <Gold.Chemscore.DEClash.Weighted>
0.0063

> <Gold.Chemscore.DEInternal.Weighted>
2.2219

> <Gold.Chemscore.Rot.Weighted>
4.2951

> <Gold.Chemscore.Internal.Correction.Weighted>
   9.000000E+99

> <Gold.Protein.RotatedTorsions>
[ 6907 6896 6895 6894 ] final  -27.56 input  -60.11 | X-H torsion
[ 7974 7965 7964 7962 ] final  -92.52 input  175.53 | X-H torsion
[ 8008 7997 7996 7995 ] final   58.08 input   59.86 | X-H torsion
[ 10167 10162 10161 10158 ] final  162.32 input  -65.29 | X-H torsion
[ 10718 10713 10712 10709 ] final  121.22 input   66.30 | X-H torsion
[ 10763 10752 10751 10750 ] final -129.50 input  -60.55 | X-H torsion
[ 11005 11000 10999 10996 ] final  -37.25 input  -57.11 | X-H torsion

> <Gold.Protein.ActiveResidues>
 VAL166  LYS551  ARG553  GLY616  TRP617  ASP618  TYR619  PRO620  LYS621  CYS622 
 ASP623  PHE694  ASN695  SER759  ASP760  ASP761  ALA762  ILE779  LEU786  VAL792 
 PHE793  MET794  SER795  GLU796  ALA797  LYS798  CYS799  TRP800  GLU811  SER814 

> <Gold.Protein.RotatedAtoms>
  151.1452  135.0199  159.8643 H   0  0  0  0  0  0  0  0  0  0  0  0  # atno 6907 bound_to 6896
  152.5453  134.1453  159.8506 H   0  0  0  0  0  0  0  0  0  0  0  0  # atno 6908 bound_to 6896
  151.1532  133.4848  159.2628 H   0  0  0  0  0  0  0  0  0  0  0  0  # atno 6909 bound_to 6896
  145.3987  140.9535  143.2299 H   0  0  0  0  0  0  0  0  0  0  0  0  # atno 7974 bound_to 7965
  155.5443  140.3485  155.4454 H   0  0  0  0  0  0  0  0  0  0  0  0  # atno 8008 bound_to 7997
  156.0629  140.1344  156.9946 H   0  0  0  0  0  0  0  0  0  0  0  0  # atno 8009 bound_to 7997
  154.4488  140.0981  156.6528 H   0  0  0  0  0  0  0  0  0  0  0  0  # atno 8010 bound_to 7997
  139.4859  144.4449  151.8904 H   0  0  0  0  0  0  0  0  0  0  0  0  # atno 10167 bound_to 10162
  157.5833  131.1072  150.8144 H   0  0  0  0  0  0  0  0  0  0  0  0  # atno 10718 bound_to 10713
  154.8757  135.3893  154.3930 H   0  0  0  0  0  0  0  0  0  0  0  0  # atno 10763 bound_to 10752
  153.4663  135.7029  153.6025 H   0  0  0  0  0  0  0  0  0  0  0  0  # atno 10764 bound_to 10752
  153.4502  135.3836  155.2247 H   0  0  0  0  0  0  0  0  0  0  0  0  # atno 10765 bound_to 10752
  140.9938  133.6991  156.1897 H   0  0  0  0  0  0  0  0  0  0  0  0  # atno 11005 bound_to 11000
  144.8389  139.5504  143.6909 LP  0  0  0  0  0  0  0  0  0  0  0  0  # atno 17320 bound_to 7965
  146.2762  139.6760  142.9261 LP  0  0  0  0  0  0  0  0  0  0  0  0  # atno 17321 bound_to 7965
  140.3903  144.2624  150.5900 LP  0  0  0  0  0  0  0  0  0  0  0  0  # atno 17342 bound_to 10162
  140.5152  143.2280  151.8474 LP  0  0  0  0  0  0  0  0  0  0  0  0  # atno 17343 bound_to 10162
  156.8584  130.5105  149.5306 LP  0  0  0  0  0  0  0  0  0  0  0  0  # atno 17370 bound_to 10713
  156.0880  130.5874  150.9683 LP  0  0  0  0  0  0  0  0  0  0  0  0  # atno 17371 bound_to 10713
  140.6999  134.4576  157.5586 LP  0  0  0  0  0  0  0  0  0  0  0  0  # atno 17394 bound_to 11000
  139.9005  134.8568  156.1918 LP  0  0  0  0  0  0  0  0  0  0  0  0  # atno 17395 bound_to 11000

$$$$
