AV-unprocessed.smi:3335|AV-procd|sdf|12838|dock9
  -GOLD-   2272019223D 1   1.00000     0.00000
 Structure written by MMmdl.
 47 48  0  0  0  0  0  0  0  0  2 V2000
  146.5187  138.6490  151.6640 C   0  0  0  0  0  0  0  0  0  0  0  0
  147.0118  138.9115  153.0577 C   0  0  0  0  0  0  0  0  0  0  0  0
  146.2664  139.3777  154.1768 C   0  0  0  0  0  0  0  0  0  0  0  0
  147.0030  139.4989  155.2687 N   0  0  0  0  0  0  0  0  0  0  0  0
  148.2475  139.1310  154.8873 N   0  0  0  0  0  0  0  0  0  0  0  0
  149.3535  139.1035  155.8397 C   0  0  1  0  0  0  0  0  0  0  0  0
  150.6265  138.4711  155.2360 C   0  0  0  0  0  0  0  0  0  0  0  0
  149.5873  140.4947  156.4838 C   0  0  2  0  0  0  0  0  0  0  0  0
  149.4238  141.6783  155.5079 C   0  0  0  0  0  0  0  0  0  0  0  0
  150.9153  140.5214  157.1462 N   0  3  0  0  0  0  0  0  0  0  0  0
  151.1246  141.5616  158.1830 C   0  0  2  0  0  0  0  0  0  0  0  0
  151.3315  142.9220  157.4977 C   0  0  0  0  0  0  0  0  0  0  0  0
  152.3391  141.2379  159.0768 C   0  0  0  0  0  0  0  0  0  0  0  0
  153.0971  140.3266  158.7398 O   0  0  0  0  0  0  0  0  0  0  0  0
  152.5488  141.9627  160.1969 N   0  0  0  0  0  0  0  0  0  0  0  0
  153.6707  141.7252  161.1043 C   0  0  0  0  0  0  0  0  0  0  0  0
  153.3957  142.5799  162.3415 C   0  0  0  0  0  0  0  0  0  0  0  0
  152.5139  143.7073  161.8244 C   0  0  0  0  0  0  0  0  0  0  0  0
  151.7231  143.0688  160.6825 C   0  0  0  0  0  0  0  0  0  0  0  0
  148.2730  138.7583  153.5590 C   0  0  0  0  0  0  0  0  0  0  0  0
  145.5254  139.0672  151.4990 H   0  0  0  0  0  0  0  0  0  0  0  0
  146.4566  137.5812  151.4545 H   0  0  0  0  0  0  0  0  0  0  0  0
  147.1785  139.0867  150.9146 H   0  0  0  0  0  0  0  0  0  0  0  0
  145.2163  139.6257  154.2281 H   0  0  0  0  0  0  0  0  0  0  0  0
  149.0311  138.4343  156.6395 H   0  0  0  0  0  0  0  0  0  0  0  0
  151.4102  138.3605  155.9853 H   0  0  0  0  0  0  0  0  0  0  0  0
  151.0351  139.0659  154.4188 H   0  0  0  0  0  0  0  0  0  0  0  0
  150.4156  137.4762  154.8425 H   0  0  0  0  0  0  0  0  0  0  0  0
  148.8278  140.6061  157.2585 H   0  0  0  0  0  0  0  0  0  0  0  0
  148.4473  141.6681  155.0252 H   0  0  0  0  0  0  0  0  0  0  0  0
  150.1825  141.6630  154.7256 H   0  0  0  0  0  0  0  0  0  0  0  0
  149.5035  142.6366  156.0197 H   0  0  0  0  0  0  0  0  0  0  0  0
  151.0581  139.6278  157.5954 H   0  0  0  0  0  0  0  0  0  0  0  0
  150.2178  141.6218  158.7820 H   0  0  0  0  0  0  0  0  0  0  0  0
  151.4764  143.7214  158.2250 H   0  0  0  0  0  0  0  0  0  0  0  0
  150.4657  143.1893  156.8913 H   0  0  0  0  0  0  0  0  0  0  0  0
  152.2034  142.9117  156.8418 H   0  0  0  0  0  0  0  0  0  0  0  0
  153.7712  140.6710  161.3678 H   0  0  0  0  0  0  0  0  0  0  0  0
  154.5940  142.0426  160.6172 H   0  0  0  0  0  0  0  0  0  0  0  0
  152.8433  141.9929  163.0767 H   0  0  0  0  0  0  0  0  0  0  0  0
  154.3080  142.9399  162.8183 H   0  0  0  0  0  0  0  0  0  0  0  0
  151.8735  144.1331  162.5973 H   0  0  0  0  0  0  0  0  0  0  0  0
  153.1409  144.5088  161.4315 H   0  0  0  0  0  0  0  0  0  0  0  0
  151.5040  143.8015  159.9054 H   0  0  0  0  0  0  0  0  0  0  0  0
  150.7775  142.6709  161.0541 H   0  0  0  0  0  0  0  0  0  0  0  0
  149.1809  138.4188  153.0827 H   0  0  0  0  0  0  0  0  0  0  0  0
  151.6165  140.6312  156.4280 H   0  0  0  0  0  0  0  0  0  0  0  0
  1  2  1  0  0  0  0
  1 21  1  0  0  0  0
  1 22  1  0  0  0  0
  1 23  1  0  0  0  0
  2 20  2  0  0  0  0
  2  3  1  0  0  0  0
  3  4  2  0  0  0  0
  3 24  1  0  0  0  0
  4  5  1  0  0  0  0
  5  6  1  0  0  0  0
  5 20  1  0  0  0  0
  6  7  1  0  0  0  0
  6  8  1  0  0  0  0
  6 25  1  0  0  0  0
  7 26  1  0  0  0  0
  7 27  1  0  0  0  0
  7 28  1  0  0  0  0
  8  9  1  0  0  0  0
  8 10  1  0  0  0  0
  8 29  1  0  0  0  0
  9 30  1  0  0  0  0
  9 31  1  0  0  0  0
  9 32  1  0  0  0  0
 10 11  1  0  0  0  0
 10 33  1  0  0  0  0
 10 47  1  0  0  0  0
 11 12  1  0  0  0  0
 11 13  1  0  0  0  0
 11 34  1  0  0  0  0
 12 35  1  0  0  0  0
 12 36  1  0  0  0  0
 12 37  1  0  0  0  0
 13 14  2  0  0  0  0
 13 15  1  0  0  0  0
 15 19  1  0  0  0  0
 15 16  1  0  0  0  0
 16 17  1  0  0  0  0
 16 38  1  0  0  0  0
 16 39  1  0  0  0  0
 17 18  1  0  0  0  0
 17 40  1  0  0  0  0
 17 41  1  0  0  0  0
 18 19  1  0  0  0  0
 18 42  1  0  0  0  0
 18 43  1  0  0  0  0
 19 44  1  0  0  0  0
 19 45  1  0  0  0  0
 20 46  1  0  0  0  0
M  CHG  1  10   1
M  END
> <s_m_source_file>
AV-unprocessed.smi

> <i_m_source_file_index>
3335

> <i_lp_mmshare_version>
43012

> <i_f3d_flags>
0

> <s_epik_input>
W0NIM11jMVtjSF1ubihbY0hdMSlbQ0BIXShbQ0gzXSlbQ0BIXShbQ0gzXSlbTkhdW0NASF0oW0NIM10pQyg9TylOMltDSDJdW0NIMl1bQ0gyXVtDSDJdMg==

> <s_epik_cmdline>
J2VwaWtfcHl0aG9uJywgJy1waCcsICc3LjAnLCAnLXRuJywgJzgnLCAnLW1hJywgJzIwMCcsICctbWV0YWxfYmluZGluZycsICctaW1hZScsICc8aW5maWxlLm1hZT4nLCAnLW9tYWUnLCAnPG91dGZpbGUubWFlPic=

> <r_lp_tautomer_probability>
1

> <r_epik_Ionization_Penalty>
0.14175

> <r_epik_Ionization_Penalty_Charging>
0.141731

> <r_epik_Ionization_Penalty_Neutral>
1.91261e-05

> <r_epik_State_Penalty>
0.131043

> <r_epik_Charging_Adjusted_Penalty>
0.272773

> <i_epik_Tot_Q>
1

> <i_epik_Tot_abs_Q>
1

> <r_epik_Metal_State_Penalty>
0.131408

> <b_epik_Metal_Only>
0

> <s_lp_Force_Field>
OPLS_2005

> <r_lp_Energy>
39.0238

> <b_lp_Chiralities_Consistent>
1

> <s_lp_Variant>
AV-unprocessed.smi:3335-2

> <Gold.Version>
5.8.1

> <Gold.Id.Protein>
6NUR|6NUR_protein|mol2

> <Gold.PLP.Fitness>
41.5639

> <Gold.PLP.PLP>
-35.1966

> <Gold.PLP.part.hbond>
-0.7819

> <Gold.PLP.part.metal>
0.0000

> <Gold.PLP.part.buried>
1.2473

> <Gold.PLP.part.nonpolar>
-36.4762

> <Gold.PLP.part.repulsive>
0.0853

> <Gold.PLP.ligand.clash>
0.0000

> <Gold.PLP.ligand.torsion>
0.9725

> <Gold.PLP.Chemscore.Hbond>
0.4576

> <Gold.PLP.Chemscore.CHOScore>
2.2499

> <Gold.PLP.Chemscore.Metal>
0.0000

> <Gold.Chemscore.Hbonds>
donor molecule, donor type, donor heavy atom, donor atom, acceptor molecule, acceptor atom, score
      P1  H  7997  8009       L1    14  0.33
      L1  C     3    24       P1 10175  1.00
      L1  C    20    46       P1  7948  0.71
      L1  C    20    46       P1  7957  0.52

> <Gold.PLP.Chemscore.Internal.Correction>
0.1899

> <Gold.Rescore>
     Score         DG    S(hbond)    S(metal)    S(lipo)     H(rot)  DE(clash)    DE(int)     intcor
     14.80     -15.92       0.75        0.00     104.50       1.68       0.11       1.01       ----

> <Gold.Chemscore.Fitness>
14.8049

> <Gold.Chemscore.DG>
-15.9210

> <Gold.Chemscore.ZeroCoef>
-5.4800

> <Gold.Chemscore.Hbond>
0.7515

> <Gold.Chemscore.Metal>
0.0000

> <Gold.Chemscore.Lipo>
104.4957

> <Gold.Chemscore.Internal_Hbond>
0.0000

> <Gold.Chemscore.DEClash>
0.1100

> <Gold.Chemscore.DEInternal>
1.0060

> <Gold.Chemscore.Rot>
1.6778

> <Gold.Chemscore.Internal.Correction>
   9.000000E+99

> <Gold.Chemscore.Hbonds>
donor molecule, donor type, donor heavy atom, donor atom, acceptor molecule, acceptor atom, score
      P1  H  7997  8009       L1    14  0.33

> <Gold.Chemscore.Hbond.Weighted>
-2.5101

> <Gold.Chemscore.Metal.Weighted>
-0.0000

> <Gold.Chemscore.Lipo.Weighted>
-12.2260

> <Gold.Chemscore.Internal_Hbond.Weighted>
0.0000

> <Gold.Chemscore.DEClash.Weighted>
0.1100

> <Gold.Chemscore.DEInternal.Weighted>
1.0060

> <Gold.Chemscore.Rot.Weighted>
4.2952

> <Gold.Chemscore.Internal.Correction.Weighted>
   9.000000E+99

> <Gold.Protein.RotatedTorsions>
[ 6907 6896 6895 6894 ] final -116.64 input  -60.11 | X-H torsion
[ 7974 7965 7964 7962 ] final -167.05 input  175.53 | X-H torsion
[ 8008 7997 7996 7995 ] final  153.02 input   59.86 | X-H torsion
[ 10167 10162 10161 10158 ] final   37.21 input  -65.29 | X-H torsion
[ 10718 10713 10712 10709 ] final   27.68 input   66.30 | X-H torsion
[ 10763 10752 10751 10750 ] final   96.55 input  -60.55 | X-H torsion
[ 11005 11000 10999 10996 ] final   31.74 input  -57.11 | X-H torsion

> <Gold.Protein.ActiveResidues>
 VAL166  LYS551  ARG553  GLY616  TRP617  ASP618  TYR619  PRO620  LYS621  CYS622 
 ASP623  PHE694  ASN695  SER759  ASP760  ASP761  ALA762  ILE779  LEU786  VAL792 
 PHE793  MET794  SER795  GLU796  ALA797  LYS798  CYS799  TRP800  GLU811  SER814 

> <Gold.Protein.RotatedAtoms>
  150.8072  133.8488  159.3199 H   0  0  0  0  0  0  0  0  0  0  0  0  # atno 6907 bound_to 6896
  151.6283  135.1023  160.0126 H   0  0  0  0  0  0  0  0  0  0  0  0  # atno 6908 bound_to 6896
  152.4163  133.7004  159.6477 H   0  0  0  0  0  0  0  0  0  0  0  0  # atno 6909 bound_to 6896
  144.7231  140.2576  143.6269 H   0  0  0  0  0  0  0  0  0  0  0  0  # atno 7974 bound_to 7965
  156.2601  140.2005  156.6425 H   0  0  0  0  0  0  0  0  0  0  0  0  # atno 8008 bound_to 7997
  154.6599  140.0562  157.0075 H   0  0  0  0  0  0  0  0  0  0  0  0  # atno 8009 bound_to 7997
  155.1292  140.3232  155.4481 H   0  0  0  0  0  0  0  0  0  0  0  0  # atno 8010 bound_to 7997
  140.4055  144.1665  150.6136 H   0  0  0  0  0  0  0  0  0  0  0  0  # atno 10167 bound_to 10162
  157.2235  130.6990  149.6280 H   0  0  0  0  0  0  0  0  0  0  0  0  # atno 10718 bound_to 10713
  153.2663  135.4214  155.0944 H   0  0  0  0  0  0  0  0  0  0  0  0  # atno 10763 bound_to 10752
  154.8439  135.3461  154.6307 H   0  0  0  0  0  0  0  0  0  0  0  0  # atno 10764 bound_to 10752
  153.6726  135.7043  153.5199 H   0  0  0  0  0  0  0  0  0  0  0  0  # atno 10765 bound_to 10752
  140.2807  134.2976  155.7801 H   0  0  0  0  0  0  0  0  0  0  0  0  # atno 11005 bound_to 11000
  145.8167  139.2026  143.1961 LP  0  0  0  0  0  0  0  0  0  0  0  0  # atno 17320 bound_to 7965
  146.0549  140.8031  142.9763 LP  0  0  0  0  0  0  0  0  0  0  0  0  # atno 17321 bound_to 7965
  140.4694  143.2418  151.9109 LP  0  0  0  0  0  0  0  0  0  0  0  0  # atno 17342 bound_to 10162
  139.4783  144.5385  151.8563 LP  0  0  0  0  0  0  0  0  0  0  0  0  # atno 17343 bound_to 10162
  155.9680  130.4512  150.5727 LP  0  0  0  0  0  0  0  0  0  0  0  0  # atno 17370 bound_to 10713
  157.3552  131.0740  151.1681 LP  0  0  0  0  0  0  0  0  0  0  0  0  # atno 17371 bound_to 10713
  141.2163  133.7523  156.9476 LP  0  0  0  0  0  0  0  0  0  0  0  0  # atno 17394 bound_to 11000
  140.1286  134.9370  157.2305 LP  0  0  0  0  0  0  0  0  0  0  0  0  # atno 17395 bound_to 11000

$$$$
