AV-unprocessed.smi:260|AV-procd|sdf|1981|dock9
  -GOLD-   2262021153D 1   1.00000     0.00000
 Structure written by MMmdl.
 53 56  0  0  0  0  0  0  0  0  1 V2000
  148.0235  132.2558  152.9208 C   0  0  0  0  0  0  0  0  0  0  0  0
  147.0710  132.7394  151.9341 N   0  0  0  0  0  0  0  0  0  0  0  0
  145.8579  132.2050  151.7190 C   0  0  0  0  0  0  0  0  0  0  0  0
  145.4531  131.2277  152.3503 O   0  0  0  0  0  0  0  0  0  0  0  0
  144.9462  132.8505  150.6416 C   0  0  1  0  0  0  0  0  0  0  0  0
  145.2190  132.1795  149.2813 C   0  0  0  0  0  0  0  0  0  0  0  0
  143.4713  132.7234  151.0614 C   0  0  0  0  0  0  0  0  0  0  0  0
  143.2521  133.9047  152.0132 C   0  0  0  0  0  0  0  0  0  0  0  0
  144.2031  134.9282  151.5969 N   0  0  0  0  0  0  0  0  0  0  0  0
  144.6232  135.8731  152.4821 C   0  0  0  0  0  0  0  0  0  0  0  0
  144.1931  135.8074  153.7705 N   0  0  0  0  0  0  0  0  0  0  0  0
  144.5742  136.7215  154.6666 C   0  0  0  0  0  0  0  0  0  0  0  0
  145.3773  137.7716  154.4954 N   0  0  0  0  0  0  0  0  0  0  0  0
  145.8284  137.8403  153.2111 C   0  0  0  0  0  0  0  0  0  0  0  0
  145.5083  136.9433  152.1508 C   0  0  0  0  0  0  0  0  0  0  0  0
  146.1713  137.3401  150.9933 N   0  0  0  0  0  0  0  0  0  0  0  0
  146.8342  138.4070  151.3461 C   0  0  0  0  0  0  0  0  0  0  0  0
  146.6850  138.7771  152.6620 N   0  0  0  0  0  0  0  0  0  0  0  0
  147.3035  139.9111  153.3253 C   0  0  0  0  0  0  0  0  0  0  0  0
  148.6400  139.5392  153.9960 C   0  0  1  0  0  0  0  0  0  0  0  0
  149.4485  138.7849  153.1129 O   0  0  0  0  0  0  0  0  0  0  0  0
  149.4099  140.7692  154.5164 C   0  0  1  0  0  0  0  0  0  0  0  0
  148.8822  141.4090  155.8034 C   0  0  0  0  0  0  0  0  0  0  0  0
  150.1196  142.1162  156.3090 C   0  0  0  0  0  0  0  0  0  0  0  0
  151.2173  141.1181  155.9489 C   0  0  0  0  0  0  0  0  0  0  0  0
  150.7857  140.4770  154.7514 O   0  0  0  0  0  0  0  0  0  0  0  0
  145.0744  134.3874  150.5526 C   0  0  0  0  0  0  0  0  0  0  0  0
  148.9181  132.8782  152.9075 H   0  0  0  0  0  0  0  0  0  0  0  0
  148.3186  131.2283  152.7048 H   0  0  0  0  0  0  0  0  0  0  0  0
  147.5963  132.2935  153.9237 H   0  0  0  0  0  0  0  0  0  0  0  0
  147.3426  133.5438  151.3871 H   0  0  0  0  0  0  0  0  0  0  0  0
  144.5923  132.6039  148.4963 H   0  0  0  0  0  0  0  0  0  0  0  0
  145.0155  131.1083  149.3122 H   0  0  0  0  0  0  0  0  0  0  0  0
  146.2575  132.3126  148.9756 H   0  0  0  0  0  0  0  0  0  0  0  0
  142.8242  132.8360  150.1902 H   0  0  0  0  0  0  0  0  0  0  0  0
  143.2204  131.7686  151.5259 H   0  0  0  0  0  0  0  0  0  0  0  0
  142.2261  134.2701  151.9651 H   0  0  0  0  0  0  0  0  0  0  0  0
  143.4618  133.6001  153.0396 H   0  0  0  0  0  0  0  0  0  0  0  0
  144.1784  136.5928  155.6632 H   0  0  0  0  0  0  0  0  0  0  0  0
  147.4577  138.9530  150.6532 H   0  0  0  0  0  0  0  0  0  0  0  0
  147.4477  140.7065  152.5930 H   0  0  0  0  0  0  0  0  0  0  0  0
  146.6027  140.2937  154.0681 H   0  0  0  0  0  0  0  0  0  0  0  0
  148.4292  138.8944  154.8500 H   0  0  0  0  0  0  0  0  0  0  0  0
  149.4035  139.1821  152.2567 H   0  0  0  0  0  0  0  0  0  0  0  0
  149.3980  141.5340  153.7381 H   0  0  0  0  0  0  0  0  0  0  0  0
  148.0438  142.0839  155.6292 H   0  0  0  0  0  0  0  0  0  0  0  0
  148.5698  140.6578  156.5293 H   0  0  0  0  0  0  0  0  0  0  0  0
  150.2667  143.0505  155.7652 H   0  0  0  0  0  0  0  0  0  0  0  0
  150.0808  142.3421  157.3749 H   0  0  0  0  0  0  0  0  0  0  0  0
  152.1893  141.5948  155.8195 H   0  0  0  0  0  0  0  0  0  0  0  0
  151.3119  140.3621  156.7296 H   0  0  0  0  0  0  0  0  0  0  0  0
  146.1129  134.7130  150.6052 H   0  0  0  0  0  0  0  0  0  0  0  0
  144.6945  134.7432  149.5944 H   0  0  0  0  0  0  0  0  0  0  0  0
  1  2  1  0  0  0  0
  1 28  1  0  0  0  0
  1 29  1  0  0  0  0
  1 30  1  0  0  0  0
  2  3  1  0  0  0  0
  2 31  1  0  0  0  0
  3  4  2  0  0  0  0
  3  5  1  0  0  0  0
  5 27  1  0  0  0  0
  5  6  1  0  0  0  0
  5  7  1  0  0  0  0
  6 32  1  0  0  0  0
  6 33  1  0  0  0  0
  6 34  1  0  0  0  0
  7  8  1  0  0  0  0
  7 35  1  0  0  0  0
  7 36  1  0  0  0  0
  8  9  1  0  0  0  0
  8 37  1  0  0  0  0
  8 38  1  0  0  0  0
  9 10  1  0  0  0  0
  9 27  1  0  0  0  0
 10 15  1  0  0  0  0
 10 11  2  0  0  0  0
 11 12  1  0  0  0  0
 12 13  2  0  0  0  0
 12 39  1  0  0  0  0
 13 14  1  0  0  0  0
 14 18  1  0  0  0  0
 14 15  2  0  0  0  0
 15 16  1  0  0  0  0
 16 17  2  0  0  0  0
 17 18  1  0  0  0  0
 17 40  1  0  0  0  0
 18 19  1  0  0  0  0
 19 20  1  0  0  0  0
 19 41  1  0  0  0  0
 19 42  1  0  0  0  0
 20 21  1  0  0  0  0
 20 22  1  0  0  0  0
 20 43  1  0  0  0  0
 21 44  1  0  0  0  0
 22 26  1  0  0  0  0
 22 23  1  0  0  0  0
 22 45  1  0  0  0  0
 23 24  1  0  0  0  0
 23 46  1  0  0  0  0
 23 47  1  0  0  0  0
 24 25  1  0  0  0  0
 24 48  1  0  0  0  0
 24 49  1  0  0  0  0
 25 26  1  0  0  0  0
 25 50  1  0  0  0  0
 25 51  1  0  0  0  0
 27 52  1  0  0  0  0
 27 53  1  0  0  0  0
M  END
> <s_m_source_file>
AV-unprocessed.smi

> <i_m_source_file_index>
260

> <i_lp_mmshare_version>
43012

> <i_f3d_flags>
0

> <s_epik_input>
W0NIM11bTkhdQyg9TylbQ0BAXTEoW0NIM10pW0NIMl1bQ0gyXU4oW0NIMl0xKWMobltjSF1uMiljKGMyMyluW2NIXW4zW0NIMl1bQ0BIXShbT0hdKVtDQEBIXTRbQ0gyXVtDSDJdW0NIMl1PNA==

> <s_epik_cmdline>
J2VwaWtfcHl0aG9uJywgJy1waCcsICc3LjAnLCAnLXRuJywgJzgnLCAnLW1hJywgJzIwMCcsICctbWV0YWxfYmluZGluZycsICctaW1hZScsICc8aW5maWxlLm1hZT4nLCAnLW9tYWUnLCAnPG91dGZpbGUubWFlPic=

> <r_lp_tautomer_probability>
1

> <r_epik_Ionization_Penalty>
0.00115068

> <r_epik_Ionization_Penalty_Charging>
0

> <r_epik_Ionization_Penalty_Neutral>
0.00115068

> <r_epik_State_Penalty>
0.000668876

> <r_epik_Charging_Adjusted_Penalty>
0.000668876

> <i_epik_Tot_Q>
0

> <i_epik_Tot_abs_Q>
0

> <r_epik_Metal_State_Penalty>
-0

> <b_epik_Metal_Only>
0

> <s_lp_Force_Field>
OPLS_2005

> <r_lp_Energy>
50.9621

> <b_lp_Chiralities_Consistent>
1

> <s_lp_Variant>
AV-unprocessed.smi:260-7

> <Gold.Version>
5.8.1

> <Gold.Id.Protein>
6NUR|6NUR_protein|mol2

> <Gold.PLP.Fitness>
49.3319

> <Gold.PLP.PLP>
-44.2239

> <Gold.PLP.part.hbond>
-3.4042

> <Gold.PLP.part.metal>
0.0000

> <Gold.PLP.part.buried>
-1.4700

> <Gold.PLP.part.nonpolar>
-41.1487

> <Gold.PLP.part.repulsive>
2.5306

> <Gold.PLP.ligand.clash>
0.0000

> <Gold.PLP.ligand.torsion>
2.1354

> <Gold.PLP.Chemscore.Hbond>
2.0000

> <Gold.PLP.Chemscore.CHOScore>
1.0000

> <Gold.PLP.Chemscore.Metal>
0.0000

> <Gold.Chemscore.Hbonds>
donor molecule, donor type, donor heavy atom, donor atom, acceptor molecule, acceptor atom, score
      L1  H    21    44       P1  7957  0.67
      P1  H  7989  7998       L1    26  1.00
      L1  C    17    40       P1  7957  0.83

> <Gold.PLP.Chemscore.Internal.Correction>
0.3788

> <Gold.Rescore>
     Score         DG    S(hbond)    S(metal)    S(lipo)     H(rot)  DE(clash)    DE(int)     intcor
     11.73     -13.88       1.64        0.00      80.09       2.53       1.03       1.12       ----

> <Gold.Chemscore.Fitness>
11.7269

> <Gold.Chemscore.DG>
-13.8762

> <Gold.Chemscore.ZeroCoef>
-5.4800

> <Gold.Chemscore.Hbond>
1.6442

> <Gold.Chemscore.Metal>
0.0000

> <Gold.Chemscore.Lipo>
80.0921

> <Gold.Chemscore.Internal_Hbond>
0.0000

> <Gold.Chemscore.DEClash>
1.0340

> <Gold.Chemscore.DEInternal>
1.1152

> <Gold.Chemscore.Rot>
2.5259

> <Gold.Chemscore.Internal.Correction>
   9.000000E+99

> <Gold.Chemscore.Hbonds>
donor molecule, donor type, donor heavy atom, donor atom, acceptor molecule, acceptor atom, score
      L1  H    21    44       P1  7957  0.63
      P1  H  7989  7998       L1    26  0.60

> <Gold.Chemscore.Hbond.Weighted>
-5.4917

> <Gold.Chemscore.Metal.Weighted>
-0.0000

> <Gold.Chemscore.Lipo.Weighted>
-9.3708

> <Gold.Chemscore.Internal_Hbond.Weighted>
0.0000

> <Gold.Chemscore.DEClash.Weighted>
1.0340

> <Gold.Chemscore.DEInternal.Weighted>
1.1152

> <Gold.Chemscore.Rot.Weighted>
6.4663

> <Gold.Chemscore.Internal.Correction.Weighted>
   9.000000E+99

> <Gold.Protein.RotatedTorsions>
[ 6907 6896 6895 6894 ] final -149.66 input  -60.11 | X-H torsion
[ 7974 7965 7964 7962 ] final  -58.33 input  175.53 | X-H torsion
[ 8008 7997 7996 7995 ] final -151.01 input   59.86 | X-H torsion
[ 10167 10162 10161 10158 ] final  142.08 input  -65.29 | X-H torsion
[ 10718 10713 10712 10709 ] final  -94.67 input   66.30 | X-H torsion
[ 10763 10752 10751 10750 ] final  -90.95 input  -60.55 | X-H torsion
[ 11005 11000 10999 10996 ] final    1.03 input  -57.11 | X-H torsion

> <Gold.Protein.ActiveResidues>
 VAL166  LYS551  ARG553  GLY616  TRP617  ASP618  TYR619  PRO620  LYS621  CYS622 
 ASP623  PHE694  ASN695  SER759  ASP760  ASP761  ALA762  ILE779  LEU786  VAL792 
 PHE793  MET794  SER795  GLU796  ALA797  LYS798  CYS799  TRP800  GLU811  SER814 

> <Gold.Protein.RotatedAtoms>
  151.1873  133.4689  159.2594 H   0  0  0  0  0  0  0  0  0  0  0  0  # atno 6907 bound_to 6896
  151.1199  135.0073  159.8544 H   0  0  0  0  0  0  0  0  0  0  0  0  # atno 6908 bound_to 6896
  152.5455  134.1785  159.8679 H   0  0  0  0  0  0  0  0  0  0  0  0  # atno 6909 bound_to 6896
  145.8405  140.8420  143.0037 H   0  0  0  0  0  0  0  0  0  0  0  0  # atno 7974 bound_to 7965
  155.6327  140.0693  157.2644 H   0  0  0  0  0  0  0  0  0  0  0  0  # atno 8008 bound_to 7997
  154.4202  140.1764  156.1538 H   0  0  0  0  0  0  0  0  0  0  0  0  # atno 8009 bound_to 7997
  155.9920  140.3344  155.6765 H   0  0  0  0  0  0  0  0  0  0  0  0  # atno 8010 bound_to 7997
  139.5003  144.6130  151.6227 H   0  0  0  0  0  0  0  0  0  0  0  0  # atno 10167 bound_to 10162
  156.0031  130.5077  150.5961 H   0  0  0  0  0  0  0  0  0  0  0  0  # atno 10718 bound_to 10713
  154.6710  135.5286  153.8139 H   0  0  0  0  0  0  0  0  0  0  0  0  # atno 10763 bound_to 10752
  153.0501  135.6529  154.0724 H   0  0  0  0  0  0  0  0  0  0  0  0  # atno 10764 bound_to 10752
  154.0623  135.2960  155.3302 H   0  0  0  0  0  0  0  0  0  0  0  0  # atno 10765 bound_to 10752
  140.6200  133.9670  155.8220 H   0  0  0  0  0  0  0  0  0  0  0  0  # atno 11005 bound_to 11000
  144.6734  140.0805  143.7469 LP  0  0  0  0  0  0  0  0  0  0  0  0  # atno 17320 bound_to 7965
  145.9470  139.2707  143.1235 LP  0  0  0  0  0  0  0  0  0  0  0  0  # atno 17321 bound_to 7965
  140.5810  143.9945  150.6268 LP  0  0  0  0  0  0  0  0  0  0  0  0  # atno 17342 bound_to 10162
  140.3094  143.3208  152.0893 LP  0  0  0  0  0  0  0  0  0  0  0  0  # atno 17343 bound_to 10162
  157.3818  131.0782  151.1470 LP  0  0  0  0  0  0  0  0  0  0  0  0  # atno 17370 bound_to 10713
  157.2190  130.6472  149.5804 LP  0  0  0  0  0  0  0  0  0  0  0  0  # atno 17371 bound_to 10713
  141.0749  134.0150  157.3472 LP  0  0  0  0  0  0  0  0  0  0  0  0  # atno 17394 bound_to 11000
  139.9157  135.0196  156.7872 LP  0  0  0  0  0  0  0  0  0  0  0  0  # atno 17395 bound_to 11000

$$$$
