AV-unprocessed.smi:3156|AV-procd|sdf|12036|dock7
  -GOLD-   2272017453D 1   1.00000     0.00000
 Structure written by MMmdl.
 41 42  0  0  0  0  0  0  0  0  2 V2000
  148.0050  142.0158  154.0749 C   0  0  0  0  0  0  0  0  0  0  0  0
  149.2423  141.3310  154.6782 C   0  0  1  0  0  0  0  0  0  0  0  0
  149.5553  141.9793  155.9730 N   0  3  0  0  0  0  0  0  0  0  0  0
  150.9609  141.8540  156.4117 C   0  0  0  0  0  0  0  0  0  0  0  0
  151.1483  142.3619  157.8486 C   0  0  1  0  0  0  0  0  0  0  0  0
  152.1528  141.5058  158.6494 C   0  0  0  0  0  0  0  0  0  0  0  0
  152.3971  142.1120  160.0356 C   0  0  0  0  0  0  0  0  0  0  0  0
  152.8019  143.5820  159.8906 C   0  0  0  0  0  0  0  0  0  0  0  0
  151.7736  144.3355  159.0329 C   0  0  0  0  0  0  0  0  0  0  0  0
  151.6383  143.6980  157.7663 O   0  0  0  0  0  0  0  0  0  0  0  0
  149.0478  139.8024  154.8748 C   0  0  1  0  0  0  0  0  0  0  0  0
  148.2218  139.1425  153.7535 C   0  0  0  0  0  0  0  0  0  0  0  0
  150.3263  139.1144  155.0192 N   0  0  0  0  0  0  0  0  0  0  0  0
  150.5588  137.8282  155.4627 C   0  0  0  0  0  0  0  0  0  0  0  0
  151.9092  137.6281  155.4473 C   0  0  0  0  0  0  0  0  0  0  0  0
  152.4291  138.8632  154.9704 C   0  0  0  0  0  0  0  0  0  0  0  0
  151.4811  139.7506  154.7183 N   0  0  0  0  0  0  0  0  0  0  0  0
  147.7964  141.6573  153.0673 H   0  0  0  0  0  0  0  0  0  0  0  0
  148.1528  143.0938  154.0018 H   0  0  0  0  0  0  0  0  0  0  0  0
  147.1170  141.8426  154.6835 H   0  0  0  0  0  0  0  0  0  0  0  0
  150.0714  141.4942  153.9870 H   0  0  0  0  0  0  0  0  0  0  0  0
  149.3312  142.9618  155.9048 H   0  0  0  0  0  0  0  0  0  0  0  0
  151.2894  140.8165  156.3431 H   0  0  0  0  0  0  0  0  0  0  0  0
  151.5853  142.4304  155.7277 H   0  0  0  0  0  0  0  0  0  0  0  0
  150.1801  142.3741  158.3529 H   0  0  0  0  0  0  0  0  0  0  0  0
  151.7896  140.4831  158.7534 H   0  0  0  0  0  0  0  0  0  0  0  0
  153.0984  141.4460  158.1084 H   0  0  0  0  0  0  0  0  0  0  0  0
  151.4896  142.0376  160.6363 H   0  0  0  0  0  0  0  0  0  0  0  0
  153.1706  141.5546  160.5646 H   0  0  0  0  0  0  0  0  0  0  0  0
  152.8910  144.0488  160.8720 H   0  0  0  0  0  0  0  0  0  0  0  0
  153.7847  143.6478  159.4220 H   0  0  0  0  0  0  0  0  0  0  0  0
  150.8060  144.3805  159.5350 H   0  0  0  0  0  0  0  0  0  0  0  0
  152.0993  145.3639  158.8761 H   0  0  0  0  0  0  0  0  0  0  0  0
  148.5032  139.6502  155.8080 H   0  0  0  0  0  0  0  0  0  0  0  0
  147.1946  139.5055  153.7415 H   0  0  0  0  0  0  0  0  0  0  0  0
  148.1740  138.0615  153.8901 H   0  0  0  0  0  0  0  0  0  0  0  0
  148.6547  139.3325  152.7709 H   0  0  0  0  0  0  0  0  0  0  0  0
  149.7535  137.1692  155.7528 H   0  0  0  0  0  0  0  0  0  0  0  0
  152.4449  136.7344  155.7314 H   0  0  0  0  0  0  0  0  0  0  0  0
  153.4595  139.1404  154.8031 H   0  0  0  0  0  0  0  0  0  0  0  0
  148.9637  141.5644  156.6786 H   0  0  0  0  0  0  0  0  0  0  0  0
  1  2  1  0  0  0  0
  1 18  1  0  0  0  0
  1 19  1  0  0  0  0
  1 20  1  0  0  0  0
  2  3  1  0  0  0  0
  2 11  1  0  0  0  0
  2 21  1  0  0  0  0
  3  4  1  0  0  0  0
  3 22  1  0  0  0  0
  3 41  1  0  0  0  0
  4  5  1  0  0  0  0
  4 23  1  0  0  0  0
  4 24  1  0  0  0  0
  5 10  1  0  0  0  0
  5  6  1  0  0  0  0
  5 25  1  0  0  0  0
  6  7  1  0  0  0  0
  6 26  1  0  0  0  0
  6 27  1  0  0  0  0
  7  8  1  0  0  0  0
  7 28  1  0  0  0  0
  7 29  1  0  0  0  0
  8  9  1  0  0  0  0
  8 30  1  0  0  0  0
  8 31  1  0  0  0  0
  9 10  1  0  0  0  0
  9 32  1  0  0  0  0
  9 33  1  0  0  0  0
 11 12  1  0  0  0  0
 11 13  1  0  0  0  0
 11 34  1  0  0  0  0
 12 35  1  0  0  0  0
 12 36  1  0  0  0  0
 12 37  1  0  0  0  0
 13 17  1  0  0  0  0
 13 14  1  0  0  0  0
 14 15  2  0  0  0  0
 14 38  1  0  0  0  0
 15 16  1  0  0  0  0
 15 39  1  0  0  0  0
 16 17  2  0  0  0  0
 16 40  1  0  0  0  0
M  CHG  1   3   1
M  END
> <s_m_source_file>
AV-unprocessed.smi

> <i_m_source_file_index>
3156

> <i_lp_mmshare_version>
43012

> <i_f3d_flags>
0

> <s_epik_input>
bjFbY0hdW2NIXVtjSF1uMVtDQEBIXShbQ0gzXSlbQ0BIXShbQ0gzXSlbTkhdW0NIMl1bQ0BASF0yW0NIMl1bQ0gyXVtDSDJdW0NIMl1PMg==

> <s_epik_cmdline>
J2VwaWtfcHl0aG9uJywgJy1waCcsICc3LjAnLCAnLXRuJywgJzgnLCAnLW1hJywgJzIwMCcsICctbWV0YWxfYmluZGluZycsICctaW1hZScsICc8aW5maWxlLm1hZT4nLCAnLW9tYWUnLCAnPG91dGZpbGUubWFlPic=

> <r_lp_tautomer_probability>
1

> <r_epik_Ionization_Penalty>
0.00658015

> <r_epik_Ionization_Penalty_Charging>
0.00656881

> <r_epik_Ionization_Penalty_Neutral>
1.13431e-05

> <r_epik_State_Penalty>
0.0048654

> <r_epik_Charging_Adjusted_Penalty>
0.0114342

> <i_epik_Tot_Q>
1

> <i_epik_Tot_abs_Q>
1

> <r_epik_Metal_State_Penalty>
-0

> <b_epik_Metal_Only>
0

> <s_lp_Force_Field>
OPLS_2005

> <r_lp_Energy>
18.5215

> <b_lp_Chiralities_Consistent>
1

> <s_lp_Variant>
AV-unprocessed.smi:3156-8

> <Gold.Version>
5.8.1

> <Gold.Id.Protein>
6NUR|6NUR_protein|mol2

> <Gold.PLP.Fitness>
46.7561

> <Gold.PLP.PLP>
-40.3958

> <Gold.PLP.part.hbond>
-1.9809

> <Gold.PLP.part.metal>
0.0000

> <Gold.PLP.part.buried>
-4.6528

> <Gold.PLP.part.nonpolar>
-34.2819

> <Gold.PLP.part.repulsive>
0.3018

> <Gold.PLP.ligand.clash>
0.0023

> <Gold.PLP.ligand.torsion>
1.3635

> <Gold.PLP.Chemscore.Hbond>
3.0000

> <Gold.PLP.Chemscore.CHOScore>
0.0000

> <Gold.PLP.Chemscore.Metal>
0.0000

> <Gold.Chemscore.Hbonds>
donor molecule, donor type, donor heavy atom, donor atom, acceptor molecule, acceptor atom, score
      L1  H     3    22       P1  8028  2.00
      P1  H  7989  7998       L1    17  1.00

> <Gold.PLP.Chemscore.Internal.Correction>
0.0896

> <Gold.Rescore>
     Score         DG    S(hbond)    S(metal)    S(lipo)     H(rot)  DE(clash)    DE(int)     intcor
     18.04     -20.89       1.98        0.00     109.98       1.59       0.06       2.79       ----

> <Gold.Chemscore.Fitness>
18.0387

> <Gold.Chemscore.DG>
-20.8877

> <Gold.Chemscore.ZeroCoef>
-5.4800

> <Gold.Chemscore.Hbond>
1.9820

> <Gold.Chemscore.Metal>
0.0000

> <Gold.Chemscore.Lipo>
109.9829

> <Gold.Chemscore.Internal_Hbond>
0.0000

> <Gold.Chemscore.DEClash>
0.0588

> <Gold.Chemscore.DEInternal>
2.7902

> <Gold.Chemscore.Rot>
1.5938

> <Gold.Chemscore.Internal.Correction>
   9.000000E+99

> <Gold.Chemscore.Hbonds>
donor molecule, donor type, donor heavy atom, donor atom, acceptor molecule, acceptor atom, score
      L1  H     3    22       P1  8028  1.00
      P1  H  7989  7998       L1    17  0.98

> <Gold.Chemscore.Hbond.Weighted>
-6.6199

> <Gold.Chemscore.Metal.Weighted>
-0.0000

> <Gold.Chemscore.Lipo.Weighted>
-12.8680

> <Gold.Chemscore.Internal_Hbond.Weighted>
0.0000

> <Gold.Chemscore.DEClash.Weighted>
0.0588

> <Gold.Chemscore.DEInternal.Weighted>
2.7902

> <Gold.Chemscore.Rot.Weighted>
4.0802

> <Gold.Chemscore.Internal.Correction.Weighted>
   9.000000E+99

> <Gold.Protein.RotatedTorsions>
[ 6907 6896 6895 6894 ] final  -38.79 input  -60.11 | X-H torsion
[ 7974 7965 7964 7962 ] final -128.68 input  175.53 | X-H torsion
[ 8008 7997 7996 7995 ] final  -11.53 input   59.86 | X-H torsion
[ 10167 10162 10161 10158 ] final    6.34 input  -65.29 | X-H torsion
[ 10718 10713 10712 10709 ] final -130.61 input   66.30 | X-H torsion
[ 10763 10752 10751 10750 ] final  -75.64 input  -60.55 | X-H torsion
[ 11005 11000 10999 10996 ] final   -4.21 input  -57.11 | X-H torsion

> <Gold.Protein.ActiveResidues>
 VAL166  LYS551  ARG553  GLY616  TRP617  ASP618  TYR619  PRO620  LYS621  CYS622 
 ASP623  PHE694  ASN695  SER759  ASP760  ASP761  ALA762  ILE779  LEU786  VAL792 
 PHE793  MET794  SER795  GLU796  ALA797  LYS798  CYS799  TRP800  GLU811  SER814 

> <Gold.Protein.RotatedAtoms>
  150.9981  134.9300  159.7937 H   0  0  0  0  0  0  0  0  0  0  0  0  # atno 6907 bound_to 6896
  152.5270  134.3191  159.9151 H   0  0  0  0  0  0  0  0  0  0  0  0  # atno 6908 bound_to 6896
  151.3196  133.4004  159.2688 H   0  0  0  0  0  0  0  0  0  0  0  0  # atno 6909 bound_to 6896
  144.9646  140.7483  143.4708 H   0  0  0  0  0  0  0  0  0  0  0  0  # atno 7974 bound_to 7965
  154.5457  140.2300  155.8567 H   0  0  0  0  0  0  0  0  0  0  0  0  # atno 8008 bound_to 7997
  156.1900  140.3079  155.9276 H   0  0  0  0  0  0  0  0  0  0  0  0  # atno 8009 bound_to 7997
  155.3170  140.0438  157.3028 H   0  0  0  0  0  0  0  0  0  0  0  0  # atno 8010 bound_to 7997
  140.6433  143.7722  150.7460 H   0  0  0  0  0  0  0  0  0  0  0  0  # atno 10167 bound_to 10162
  156.2161  130.6949  151.0704 H   0  0  0  0  0  0  0  0  0  0  0  0  # atno 10718 bound_to 10713
  154.4893  135.5824  153.6447 H   0  0  0  0  0  0  0  0  0  0  0  0  # atno 10763 bound_to 10752
  152.9859  135.6109  154.3146 H   0  0  0  0  0  0  0  0  0  0  0  0  # atno 10764 bound_to 10752
  154.3044  135.2846  155.2575 H   0  0  0  0  0  0  0  0  0  0  0  0  # atno 10765 bound_to 10752
  140.6778  133.9180  155.8535 H   0  0  0  0  0  0  0  0  0  0  0  0  # atno 11005 bound_to 11000
  145.2648  139.1977  143.4872 LP  0  0  0  0  0  0  0  0  0  0  0  0  # atno 17320 bound_to 7965
  146.3364  140.2585  142.8601 LP  0  0  0  0  0  0  0  0  0  0  0  0  # atno 17321 bound_to 7965
  140.1358  143.4485  152.2225 LP  0  0  0  0  0  0  0  0  0  0  0  0  # atno 17342 bound_to 10162
  139.5642  144.7425  151.4068 LP  0  0  0  0  0  0  0  0  0  0  0  0  # atno 17343 bound_to 10162
  157.7064  131.0754  150.6653 LP  0  0  0  0  0  0  0  0  0  0  0  0  # atno 17370 bound_to 10713
  156.6714  130.4540  149.5656 LP  0  0  0  0  0  0  0  0  0  0  0  0  # atno 17371 bound_to 10713
  141.0341  134.0714  157.3979 LP  0  0  0  0  0  0  0  0  0  0  0  0  # atno 17394 bound_to 11000
  139.8961  135.0144  156.7035 LP  0  0  0  0  0  0  0  0  0  0  0  0  # atno 17395 bound_to 11000

$$$$
