AV-unprocessed.smi:3112|AV-procd|sdf|11842|dock3
  -GOLD-   2272017223D 1   1.00000     0.00000
 Structure written by MMmdl.
 37 37  0  0  0  0  0  0  0  0  2 V2000
  147.8021  140.0774  153.7108 C   0  0  0  0  0  0  0  0  0  0  0  0
  148.2582  141.5291  153.9112 C   0  0  0  0  0  0  0  0  0  0  0  0
  149.7146  141.6532  154.3955 C   0  0  2  0  0  0  0  0  0  0  0  0
  150.5119  140.7189  153.6940 O   0  0  0  0  0  0  0  0  0  0  0  0
  149.8458  141.3669  155.9009 C   0  0  0  0  0  0  0  0  0  0  0  0
  150.7645  142.3274  156.5489 N   0  3  0  0  0  0  0  0  0  0  0  0
  151.1530  141.9978  157.9396 C   0  0  1  0  0  0  0  0  0  0  0  0
  151.3047  140.4701  158.0996 C   0  0  0  0  0  0  0  0  0  0  0  0
  152.4394  142.7774  158.3193 C   0  0  1  0  0  0  0  0  0  0  0  0
  152.3137  144.2902  158.0577 C   0  0  0  0  0  0  0  0  0  0  0  0
  152.8316  142.5467  159.7046 N   0  0  0  0  0  0  0  0  0  0  0  0
  152.2591  143.0417  160.8600 C   0  0  0  0  0  0  0  0  0  0  0  0
  152.9648  142.5374  161.9143 C   0  0  0  0  0  0  0  0  0  0  0  0
  153.9625  141.7317  161.2985 C   0  0  0  0  0  0  0  0  0  0  0  0
  153.8788  141.7378  159.9780 N   0  0  0  0  0  0  0  0  0  0  0  0
  146.7810  140.0422  153.3300 H   0  0  0  0  0  0  0  0  0  0  0  0
  147.8230  139.5190  154.6470 H   0  0  0  0  0  0  0  0  0  0  0  0
  148.4407  139.5582  152.9954 H   0  0  0  0  0  0  0  0  0  0  0  0
  148.1517  142.0534  152.9606 H   0  0  0  0  0  0  0  0  0  0  0  0
  147.5867  142.0303  154.6097 H   0  0  0  0  0  0  0  0  0  0  0  0
  150.0803  142.6588  154.1818 H   0  0  0  0  0  0  0  0  0  0  0  0
  150.1927  140.6571  152.8060 H   0  0  0  0  0  0  0  0  0  0  0  0
  148.8680  141.4560  156.3764 H   0  0  0  0  0  0  0  0  0  0  0  0
  150.1846  140.3429  156.0599 H   0  0  0  0  0  0  0  0  0  0  0  0
  151.5997  142.4164  155.9875 H   0  0  0  0  0  0  0  0  0  0  0  0
  150.3548  142.3303  158.6055 H   0  0  0  0  0  0  0  0  0  0  0  0
  151.5140  140.1888  159.1316 H   0  0  0  0  0  0  0  0  0  0  0  0
  152.1188  140.0891  157.4819 H   0  0  0  0  0  0  0  0  0  0  0  0
  150.3973  139.9390  157.8137 H   0  0  0  0  0  0  0  0  0  0  0  0
  153.2506  142.4065  157.6891 H   0  0  0  0  0  0  0  0  0  0  0  0
  152.1330  144.5023  157.0039 H   0  0  0  0  0  0  0  0  0  0  0  0
  153.2294  144.8120  158.3382 H   0  0  0  0  0  0  0  0  0  0  0  0
  151.4946  144.7291  158.6282 H   0  0  0  0  0  0  0  0  0  0  0  0
  151.4059  143.7036  160.8367 H   0  0  0  0  0  0  0  0  0  0  0  0
  152.7941  142.7161  162.9656 H   0  0  0  0  0  0  0  0  0  0  0  0
  154.7387  141.1459  161.7686 H   0  0  0  0  0  0  0  0  0  0  0  0
  150.2958  143.2219  156.5652 H   0  0  0  0  0  0  0  0  0  0  0  0
  1  2  1  0  0  0  0
  1 16  1  0  0  0  0
  1 17  1  0  0  0  0
  1 18  1  0  0  0  0
  2  3  1  0  0  0  0
  2 19  1  0  0  0  0
  2 20  1  0  0  0  0
  3  4  1  0  0  0  0
  3  5  1  0  0  0  0
  3 21  1  0  0  0  0
  4 22  1  0  0  0  0
  5  6  1  0  0  0  0
  5 23  1  0  0  0  0
  5 24  1  0  0  0  0
  6  7  1  0  0  0  0
  6 25  1  0  0  0  0
  6 37  1  0  0  0  0
  7  8  1  0  0  0  0
  7  9  1  0  0  0  0
  7 26  1  0  0  0  0
  8 27  1  0  0  0  0
  8 28  1  0  0  0  0
  8 29  1  0  0  0  0
  9 10  1  0  0  0  0
  9 11  1  0  0  0  0
  9 30  1  0  0  0  0
 10 31  1  0  0  0  0
 10 32  1  0  0  0  0
 10 33  1  0  0  0  0
 11 15  1  0  0  0  0
 11 12  1  0  0  0  0
 12 13  2  0  0  0  0
 12 34  1  0  0  0  0
 13 14  1  0  0  0  0
 13 35  1  0  0  0  0
 14 15  2  0  0  0  0
 14 36  1  0  0  0  0
M  CHG  1   6   1
M  END
> <s_m_source_file>
AV-unprocessed.smi

> <i_m_source_file_index>
3112

> <i_lp_mmshare_version>
43012

> <i_f3d_flags>
0

> <s_epik_input>
W0NIM11bQ0gyXVtDQEhdKFtPSF0pW0NIMl1bTkhdW0NASF0oW0NIM10pW0NASF0oW0NIM10pbjFbY0hdW2NIXVtjSF1uMQ==

> <s_epik_cmdline>
J2VwaWtfcHl0aG9uJywgJy1waCcsICc3LjAnLCAnLXRuJywgJzgnLCAnLW1hJywgJzIwMCcsICctbWV0YWxfYmluZGluZycsICctaW1hZScsICc8aW5maWxlLm1hZT4nLCAnLW9tYWUnLCAnPG91dGZpbGUubWFlPic=

> <r_lp_tautomer_probability>
1

> <r_epik_Ionization_Penalty>
0.0154842

> <r_epik_Ionization_Penalty_Charging>
0.0154724

> <r_epik_Ionization_Penalty_Neutral>
1.17979e-05

> <r_epik_State_Penalty>
0.0121607

> <r_epik_Charging_Adjusted_Penalty>
0.0276331

> <i_epik_Tot_Q>
1

> <i_epik_Tot_abs_Q>
1

> <r_epik_Metal_State_Penalty>
0.0121863

> <b_epik_Metal_Only>
0

> <s_lp_Force_Field>
OPLS_2005

> <r_lp_Energy>
13.0446

> <b_lp_Chiralities_Consistent>
1

> <s_lp_Variant>
AV-unprocessed.smi:3112-7

> <Gold.Version>
5.8.1

> <Gold.Id.Protein>
6NUR|6NUR_protein|mol2

> <Gold.PLP.Fitness>
48.5842

> <Gold.PLP.PLP>
-40.2168

> <Gold.PLP.part.hbond>
-3.1580

> <Gold.PLP.part.metal>
0.0000

> <Gold.PLP.part.buried>
-4.4638

> <Gold.PLP.part.nonpolar>
-32.3360

> <Gold.PLP.part.repulsive>
0.0577

> <Gold.PLP.ligand.clash>
0.0000

> <Gold.PLP.ligand.torsion>
1.2793

> <Gold.PLP.Chemscore.Hbond>
3.5920

> <Gold.PLP.Chemscore.CHOScore>
0.0000

> <Gold.PLP.Chemscore.Metal>
0.0000

> <Gold.Chemscore.Hbonds>
donor molecule, donor type, donor heavy atom, donor atom, acceptor molecule, acceptor atom, score
      L1  H     4    22       P1  7957  1.00
      L1  H     6    37       P1  8028  0.94

> <Gold.PLP.Chemscore.Internal.Correction>
0.1500

> <Gold.Rescore>
     Score         DG    S(hbond)    S(metal)    S(lipo)     H(rot)  DE(clash)    DE(int)     intcor
     16.38     -17.18       2.00        0.00      95.69       2.41       0.03       0.78       ----

> <Gold.Chemscore.Fitness>
16.3750

> <Gold.Chemscore.DG>
-17.1819

> <Gold.Chemscore.ZeroCoef>
-5.4800

> <Gold.Chemscore.Hbond>
1.9978

> <Gold.Chemscore.Metal>
0.0000

> <Gold.Chemscore.Lipo>
95.6918

> <Gold.Chemscore.Internal_Hbond>
0.0000

> <Gold.Chemscore.DEClash>
0.0270

> <Gold.Chemscore.DEInternal>
0.7799

> <Gold.Chemscore.Rot>
2.4089

> <Gold.Chemscore.Internal.Correction>
   9.000000E+99

> <Gold.Chemscore.Hbonds>
donor molecule, donor type, donor heavy atom, donor atom, acceptor molecule, acceptor atom, score
      L1  H     4    22       P1  7957  1.00
      L1  H     6    37       P1  8028  0.46
      P1  H  7989  7998       L1     4  0.01

> <Gold.Chemscore.Hbond.Weighted>
-6.6726

> <Gold.Chemscore.Metal.Weighted>
-0.0000

> <Gold.Chemscore.Lipo.Weighted>
-11.1959

> <Gold.Chemscore.Internal_Hbond.Weighted>
0.0000

> <Gold.Chemscore.DEClash.Weighted>
0.0270

> <Gold.Chemscore.DEInternal.Weighted>
0.7799

> <Gold.Chemscore.Rot.Weighted>
6.1667

> <Gold.Chemscore.Internal.Correction.Weighted>
   9.000000E+99

> <Gold.Protein.RotatedTorsions>
[ 6907 6896 6895 6894 ] final  -28.24 input  -60.11 | X-H torsion
[ 7974 7965 7964 7962 ] final  -85.82 input  175.53 | X-H torsion
[ 8008 7997 7996 7995 ] final   99.08 input   59.86 | X-H torsion
[ 10167 10162 10161 10158 ] final  -21.32 input  -65.29 | X-H torsion
[ 10718 10713 10712 10709 ] final   75.21 input   66.30 | X-H torsion
[ 10763 10752 10751 10750 ] final  112.32 input  -60.55 | X-H torsion
[ 11005 11000 10999 10996 ] final -137.50 input  -57.11 | X-H torsion

> <Gold.Protein.ActiveResidues>
 VAL166  LYS551  ARG553  GLY616  TRP617  ASP618  TYR619  PRO620  LYS621  CYS622 
 ASP623  PHE694  ASN695  SER759  ASP760  ASP761  ALA762  ILE779  LEU786  VAL792 
 PHE793  MET794  SER795  GLU796  ALA797  LYS798  CYS799  TRP800  GLU811  SER814 

> <Gold.Protein.RotatedAtoms>
  151.1357  135.0153  159.8602 H   0  0  0  0  0  0  0  0  0  0  0  0  # atno 6907 bound_to 6896
  152.5452  134.1558  159.8547 H   0  0  0  0  0  0  0  0  0  0  0  0  # atno 6908 bound_to 6896
  151.1629  133.4788  159.2627 H   0  0  0  0  0  0  0  0  0  0  0  0  # atno 6909 bound_to 6896
  145.4881  140.9554  143.1827 H   0  0  0  0  0  0  0  0  0  0  0  0  # atno 7974 bound_to 7965
  156.1069  140.3234  155.8019 H   0  0  0  0  0  0  0  0  0  0  0  0  # atno 8008 bound_to 7997
  155.4740  140.0549  157.2993 H   0  0  0  0  0  0  0  0  0  0  0  0  # atno 8009 bound_to 7997
  154.4734  140.2021  155.9953 H   0  0  0  0  0  0  0  0  0  0  0  0  # atno 8010 bound_to 7997
  140.7281  143.4639  151.0341 H   0  0  0  0  0  0  0  0  0  0  0  0  # atno 10167 bound_to 10162
  157.6624  130.9715  150.1321 H   0  0  0  0  0  0  0  0  0  0  0  0  # atno 10718 bound_to 10713
  153.4762  135.3689  155.2417 H   0  0  0  0  0  0  0  0  0  0  0  0  # atno 10763 bound_to 10752
  154.8756  135.3943  154.3754 H   0  0  0  0  0  0  0  0  0  0  0  0  # atno 10764 bound_to 10752
  153.4350  135.7083  153.6271 H   0  0  0  0  0  0  0  0  0  0  0  0  # atno 10765 bound_to 10752
  140.8705  134.2057  157.4654 H   0  0  0  0  0  0  0  0  0  0  0  0  # atno 11005 bound_to 11000
  144.7850  139.6447  143.7138 LP  0  0  0  0  0  0  0  0  0  0  0  0  # atno 17320 bound_to 7965
  146.2300  139.5796  142.9561 LP  0  0  0  0  0  0  0  0  0  0  0  0  # atno 17321 bound_to 7965
  139.8325  143.7671  152.3180 LP  0  0  0  0  0  0  0  0  0  0  0  0  # atno 17342 bound_to 10162
  139.7792  144.7450  151.0112 LP  0  0  0  0  0  0  0  0  0  0  0  0  # atno 17343 bound_to 10162
  156.2165  130.3670  149.8607 LP  0  0  0  0  0  0  0  0  0  0  0  0  # atno 17370 bound_to 10713
  156.6472  130.8729  151.3525 LP  0  0  0  0  0  0  0  0  0  0  0  0  # atno 17371 bound_to 10713
  139.8712  134.9772  156.4949 LP  0  0  0  0  0  0  0  0  0  0  0  0  # atno 17394 bound_to 11000
  140.8579  133.8082  155.9235 LP  0  0  0  0  0  0  0  0  0  0  0  0  # atno 17395 bound_to 11000

$$$$
