AV-unprocessed.smi:1005|AV-procd|sdf|4381|dock4
  -GOLD-   22720 2303D 1   1.00000     0.00000
 Structure written by MMmdl.
 58 60  0  0  0  0  0  0  0  0  4 V2000
  152.2995  143.9802  160.0941 C   0  0  0  0  0  0  0  0  0  0  0  0
  152.0630  142.8980  159.0544 C   0  0  0  0  0  0  0  0  0  0  0  0
  151.0946  143.1267  158.0515 C   0  0  0  0  0  0  0  0  0  0  0  0
  150.9012  142.1189  157.1145 C   0  0  0  0  0  0  0  0  0  0  0  0
  150.0365  142.0428  156.0211 N   0  3  0  0  0  0  0  0  0  0  0  0
  150.2075  140.8495  155.3883 C   0  0  0  0  0  0  0  0  0  0  0  0
  151.1690  140.1605  156.0616 N   0  0  0  0  0  0  0  0  0  0  0  0
  151.7257  138.8260  155.7940 C   0  0  0  0  0  0  0  0  0  0  0  0
  150.8479  137.9909  154.8404 C   0  0  1  0  0  0  0  0  0  0  0  0
  151.4395  137.9575  153.5557 O   0  0  0  0  0  0  0  0  0  0  0  0
  150.6711  136.5433  155.3406 C   0  0  0  0  0  0  0  0  0  0  0  0
  149.6005  135.8185  154.6033 N   0  3  2  0  0  0  0  0  0  0  0  0
  148.2317  136.0134  155.1451 C   0  0  0  0  0  0  0  0  0  0  0  0
  147.9815  135.1307  156.3828 C   0  0  0  0  0  0  0  0  0  0  0  0
  148.2555  133.7703  156.0694 O   0  0  0  0  0  0  0  0  0  0  0  0
  149.6099  133.5593  155.6837 C   0  0  1  0  0  0  0  0  0  0  0  0
  149.8096  132.0497  155.4477 C   0  0  0  0  0  0  0  0  0  0  0  0
  151.2236  131.6848  155.1722 N   0  3  0  0  0  0  0  0  0  0  0  0
  151.3963  130.2863  154.7151 C   0  0  0  0  0  0  0  0  0  0  0  0
  152.1079  131.9908  156.3188 C   0  0  0  0  0  0  0  0  0  0  0  0
  149.8805  134.3753  154.4010 C   0  0  0  0  0  0  0  0  0  0  0  0
  151.6303  140.9140  157.1489 C   0  0  0  0  0  0  0  0  0  0  0  0
  152.5881  140.6730  158.1318 C   0  0  0  0  0  0  0  0  0  0  0  0
  152.8003  141.6864  159.0939 C   0  0  0  0  0  0  0  0  0  0  0  0
  153.8397  141.4515  160.1768 C   0  0  0  0  0  0  0  0  0  0  0  0
  151.6524  144.8419  159.9272 H   0  0  0  0  0  0  0  0  0  0  0  0
  153.3322  144.3278  160.0575 H   0  0  0  0  0  0  0  0  0  0  0  0
  152.0961  143.6005  161.0956 H   0  0  0  0  0  0  0  0  0  0  0  0
  150.5299  144.0471  158.0150 H   0  0  0  0  0  0  0  0  0  0  0  0
  149.6755  140.5123  154.5102 H   0  0  0  0  0  0  0  0  0  0  0  0
  152.7427  138.9273  155.4148 H   0  0  0  0  0  0  0  0  0  0  0  0
  151.8102  138.3193  156.7562 H   0  0  0  0  0  0  0  0  0  0  0  0
  149.8780  138.4798  154.7498 H   0  0  0  0  0  0  0  0  0  0  0  0
  151.0474  137.2566  153.0574 H   0  0  0  0  0  0  0  0  0  0  0  0
  151.6218  136.0210  155.2220 H   0  0  0  0  0  0  0  0  0  0  0  0
  150.4573  136.5348  156.4095 H   0  0  0  0  0  0  0  0  0  0  0  0
  148.0438  137.0610  155.3777 H   0  0  0  0  0  0  0  0  0  0  0  0
  147.5185  135.7426  154.3654 H   0  0  0  0  0  0  0  0  0  0  0  0
  148.5872  135.4498  157.2316 H   0  0  0  0  0  0  0  0  0  0  0  0
  146.9402  135.2143  156.6941 H   0  0  0  0  0  0  0  0  0  0  0  0
  150.2768  133.9037  156.4745 H   0  0  0  0  0  0  0  0  0  0  0  0
  149.4675  131.5174  156.3368 H   0  0  0  0  0  0  0  0  0  0  0  0
  149.1822  131.7052  154.6244 H   0  0  0  0  0  0  0  0  0  0  0  0
  151.0464  129.5814  155.4706 H   0  0  0  0  0  0  0  0  0  0  0  0
  152.4481  130.0754  154.5184 H   0  0  0  0  0  0  0  0  0  0  0  0
  150.8540  130.0950  153.7900 H   0  0  0  0  0  0  0  0  0  0  0  0
  151.8324  131.4010  157.1942 H   0  0  0  0  0  0  0  0  0  0  0  0
  152.0485  133.0467  156.5848 H   0  0  0  0  0  0  0  0  0  0  0  0
  153.1482  131.7730  156.0741 H   0  0  0  0  0  0  0  0  0  0  0  0
  149.2348  134.0161  153.5982 H   0  0  0  0  0  0  0  0  0  0  0  0
  150.9042  134.2308  154.0535 H   0  0  0  0  0  0  0  0  0  0  0  0
  153.1532  139.7539  158.1645 H   0  0  0  0  0  0  0  0  0  0  0  0
  154.3241  140.4815  160.0616 H   0  0  0  0  0  0  0  0  0  0  0  0
  153.3769  141.4778  161.1636 H   0  0  0  0  0  0  0  0  0  0  0  0
  154.6151  142.2167  160.1369 H   0  0  0  0  0  0  0  0  0  0  0  0
  151.5344  132.2812  154.4180 H   0  0  0  0  0  0  0  0  0  0  0  0
  149.6053  136.2296  153.6798 H   0  0  0  0  0  0  0  0  0  0  0  0
  149.3772  142.7522  155.7269 H   0  0  0  0  0  0  0  0  0  0  0  0
  1  2  1  0  0  0  0
  1 26  1  0  0  0  0
  1 27  1  0  0  0  0
  1 28  1  0  0  0  0
  2 24  1  0  0  0  0
  2  3  2  0  0  0  0
  3  4  1  0  0  0  0
  3 29  1  0  0  0  0
  4 22  2  0  0  0  0
  4  5  1  0  0  0  0
  5  6  2  0  0  0  0
  5 58  1  0  0  0  0
  6  7  1  0  0  0  0
  6 30  1  0  0  0  0
  7  8  1  0  0  0  0
  7 22  1  0  0  0  0
  8  9  1  0  0  0  0
  8 31  1  0  0  0  0
  8 32  1  0  0  0  0
  9 10  1  0  0  0  0
  9 11  1  0  0  0  0
  9 33  1  0  0  0  0
 10 34  1  0  0  0  0
 11 12  1  0  0  0  0
 11 35  1  0  0  0  0
 11 36  1  0  0  0  0
 12 21  1  0  0  0  0
 12 13  1  0  0  0  0
 12 57  1  0  0  0  0
 13 14  1  0  0  0  0
 13 37  1  0  0  0  0
 13 38  1  0  0  0  0
 14 15  1  0  0  0  0
 14 39  1  0  0  0  0
 14 40  1  0  0  0  0
 15 16  1  0  0  0  0
 16 17  1  0  0  0  0
 16 21  1  0  0  0  0
 16 41  1  0  0  0  0
 17 18  1  0  0  0  0
 17 42  1  0  0  0  0
 17 43  1  0  0  0  0
 18 19  1  0  0  0  0
 18 20  1  0  0  0  0
 18 56  1  0  0  0  0
 19 44  1  0  0  0  0
 19 45  1  0  0  0  0
 19 46  1  0  0  0  0
 20 47  1  0  0  0  0
 20 48  1  0  0  0  0
 20 49  1  0  0  0  0
 21 50  1  0  0  0  0
 21 51  1  0  0  0  0
 22 23  1  0  0  0  0
 23 24  2  0  0  0  0
 23 52  1  0  0  0  0
 24 25  1  0  0  0  0
 25 53  1  0  0  0  0
 25 54  1  0  0  0  0
 25 55  1  0  0  0  0
M  CHG  1   5   1
M  CHG  1  12   1
M  CHG  1  18   1
M  END
> <s_m_source_file>
AV-unprocessed.smi

> <i_m_source_file_index>
1005

> <i_lp_mmshare_version>
43012

> <i_f3d_flags>
0

> <s_epik_input>
W0NIM11jKFtjSF0xKWMoW0NIM10pW2NIXWMoYzEyKW4oW2NIXW4yKVtDSDJdW0NASF0oW09IXSlbQ0gyXU4zW0NIMl1bQ0gyXU9bQ0BIXShbQ0gyXTMpW0NIMl1OKFtDSDNdKVtDSDNd

> <s_epik_cmdline>
J2VwaWtfcHl0aG9uJywgJy1waCcsICc3LjAnLCAnLXRuJywgJzgnLCAnLW1hJywgJzIwMCcsICctbWV0YWxfYmluZGluZycsICctaW1hZScsICc8aW5maWxlLm1hZT4nLCAnLW9tYWUnLCAnPG91dGZpbGUubWFlPic=

> <r_epik_Ionization_Penalty>
2.30802

> <r_epik_Ionization_Penalty_Charging>
2.30798

> <r_epik_Ionization_Penalty_Neutral>
3.4851e-05

> <r_epik_State_Penalty>
2.52618

> <r_epik_Charging_Adjusted_Penalty>
4.83416

> <i_epik_Tot_Q>
3

> <i_epik_Tot_abs_Q>
3

> <r_epik_Metal_State_Penalty>
6.53149

> <b_epik_Metal_Only>
0

> <s_lp_Force_Field>
OPLS_2005

> <r_lp_Energy>
46.6076

> <b_lp_Chiralities_Consistent>
1

> <s_lp_Variant>
AV-unprocessed.smi:1005-20

> <Gold.Version>
5.8.1

> <Gold.Id.Protein>
6NUR|6NUR_protein|mol2

> <Gold.PLP.Fitness>
56.2514

> <Gold.PLP.PLP>
-44.2699

> <Gold.PLP.part.hbond>
-3.0000

> <Gold.PLP.part.metal>
0.0000

> <Gold.PLP.part.buried>
-2.7900

> <Gold.PLP.part.nonpolar>
-38.4540

> <Gold.PLP.part.repulsive>
0.1825

> <Gold.PLP.ligand.clash>
0.0000

> <Gold.PLP.ligand.torsion>
1.3524

> <Gold.PLP.Chemscore.Hbond>
4.8396

> <Gold.PLP.Chemscore.CHOScore>
0.0000

> <Gold.PLP.Chemscore.Metal>
0.0000

> <Gold.Chemscore.Hbonds>
donor molecule, donor type, donor heavy atom, donor atom, acceptor molecule, acceptor atom, score
      L1  H     5    58       P1  8028  1.92
      L1  H    10    34       P1  7949  0.96
      L1  H    12    57       P1  7948  1.98

> <Gold.PLP.Chemscore.Internal.Correction>
0.1675

> <Gold.Rescore>
     Score         DG    S(hbond)    S(metal)    S(lipo)     H(rot)  DE(clash)    DE(int)     intcor
     17.06     -18.88       1.89        0.00     116.57       2.56       0.34       1.47       ----

> <Gold.Chemscore.Fitness>
17.0649

> <Gold.Chemscore.DG>
-18.8805

> <Gold.Chemscore.ZeroCoef>
-5.4800

> <Gold.Chemscore.Hbond>
1.8883

> <Gold.Chemscore.Metal>
0.0000

> <Gold.Chemscore.Lipo>
116.5676

> <Gold.Chemscore.Internal_Hbond>
0.0000

> <Gold.Chemscore.DEClash>
0.3432

> <Gold.Chemscore.DEInternal>
1.4724

> <Gold.Chemscore.Rot>
2.5566

> <Gold.Chemscore.Internal.Correction>
   9.000000E+99

> <Gold.Chemscore.Hbonds>
donor molecule, donor type, donor heavy atom, donor atom, acceptor molecule, acceptor atom, score
      L1  H     5    58       P1  8028  0.86
      L1  H    10    34       P1  7949  0.30
      L1  H    12    57       P1  7948  0.47

> <Gold.Chemscore.Hbond.Weighted>
-6.3070

> <Gold.Chemscore.Metal.Weighted>
-0.0000

> <Gold.Chemscore.Lipo.Weighted>
-13.6384

> <Gold.Chemscore.Internal_Hbond.Weighted>
0.0000

> <Gold.Chemscore.DEClash.Weighted>
0.3432

> <Gold.Chemscore.DEInternal.Weighted>
1.4724

> <Gold.Chemscore.Rot.Weighted>
6.5450

> <Gold.Chemscore.Internal.Correction.Weighted>
   9.000000E+99

> <Gold.Protein.RotatedTorsions>
[ 6907 6896 6895 6894 ] final   59.80 input  -60.11 | X-H torsion
[ 7974 7965 7964 7962 ] final  -26.76 input  175.53 | X-H torsion
[ 8008 7997 7996 7995 ] final  149.15 input   59.86 | X-H torsion
[ 10167 10162 10161 10158 ] final -155.86 input  -65.29 | X-H torsion
[ 10718 10713 10712 10709 ] final   15.69 input   66.30 | X-H torsion
[ 10763 10752 10751 10750 ] final  -80.45 input  -60.55 | X-H torsion
[ 11005 11000 10999 10996 ] final  -27.30 input  -57.11 | X-H torsion

> <Gold.Protein.ActiveResidues>
 VAL166  LYS551  ARG553  GLY616  TRP617  ASP618  TYR619  PRO620  LYS621  CYS622 
 ASP623  PHE694  ASN695  SER759  ASP760  ASP761  ALA762  ILE779  LEU786  VAL792 
 PHE793  MET794  SER795  GLU796  ALA797  LYS798  CYS799  TRP800  GLU811  SER814 

> <Gold.Protein.RotatedAtoms>
  152.3947  134.6385  160.0093 H   0  0  0  0  0  0  0  0  0  0  0  0  # atno 6907 bound_to 6896
  151.6608  133.3311  159.3181 H   0  0  0  0  0  0  0  0  0  0  0  0  # atno 6908 bound_to 6896
  150.7856  134.6882  159.6526 H   0  0  0  0  0  0  0  0  0  0  0  0  # atno 6909 bound_to 6896
  146.1403  140.5063  142.8655 H   0  0  0  0  0  0  0  0  0  0  0  0  # atno 7974 bound_to 7965
  156.2765  140.2109  156.5812 H   0  0  0  0  0  0  0  0  0  0  0  0  # atno 8008 bound_to 7997
  154.7057  140.0517  157.0524 H   0  0  0  0  0  0  0  0  0  0  0  0  # atno 8009 bound_to 7997
  155.0674  140.3173  155.4644 H   0  0  0  0  0  0  0  0  0  0  0  0  # atno 8010 bound_to 7997
  139.6897  143.9442  152.2378 H   0  0  0  0  0  0  0  0  0  0  0  0  # atno 10167 bound_to 10162
  157.0571  130.6294  149.5779 H   0  0  0  0  0  0  0  0  0  0  0  0  # atno 10718 bound_to 10713
  154.5513  135.5660  153.6925 H   0  0  0  0  0  0  0  0  0  0  0  0  # atno 10763 bound_to 10752
  152.9990  135.6251  154.2370 H   0  0  0  0  0  0  0  0  0  0  0  0  # atno 10764 bound_to 10752
  154.2305  135.2866  155.2871 H   0  0  0  0  0  0  0  0  0  0  0  0  # atno 10765 bound_to 10752
  140.9107  133.7462  156.0667 H   0  0  0  0  0  0  0  0  0  0  0  0  # atno 11005 bound_to 11000
  144.7785  140.5791  143.6621 LP  0  0  0  0  0  0  0  0  0  0  0  0  # atno 17320 bound_to 7965
  145.5061  139.1481  143.3630 LP  0  0  0  0  0  0  0  0  0  0  0  0  # atno 17321 bound_to 7965
  139.9254  144.6774  150.8417 LP  0  0  0  0  0  0  0  0  0  0  0  0  # atno 17342 bound_to 10162
  140.7678  143.3345  151.2338 LP  0  0  0  0  0  0  0  0  0  0  0  0  # atno 17343 bound_to 10162
  155.9989  130.5064  150.7590 LP  0  0  0  0  0  0  0  0  0  0  0  0  # atno 17370 bound_to 10713
  157.4984  131.0916  151.0344 LP  0  0  0  0  0  0  0  0  0  0  0  0  # atno 17371 bound_to 10713
  140.8113  134.3396  157.5411 LP  0  0  0  0  0  0  0  0  0  0  0  0  # atno 17394 bound_to 11000
  139.8757  134.9256  156.3378 LP  0  0  0  0  0  0  0  0  0  0  0  0  # atno 17395 bound_to 11000

$$$$
