AV-unprocessed.smi:1667|AV-procd|sdf|6679|dock1
  -GOLD-   22720 7393D 1   1.00000     0.00000
 Structure written by MMmdl.
 46 48  0  0  0  0  0  0  0  0  2 V2000
  147.6218  133.2912  152.2609 C   0  0  0  0  0  0  0  0  0  0  0  0
  147.7520  133.5008  153.7657 C   0  0  0  0  0  0  0  0  0  0  0  0
  147.6178  132.5466  154.5310 O   0  0  0  0  0  0  0  0  0  0  0  0
  148.0081  134.7537  154.1736 N   0  0  0  0  0  0  0  0  0  0  0  0
  148.1617  135.1795  155.5616 C   0  0  1  0  0  0  0  0  0  0  0  0
  149.1852  134.2801  156.2742 C   0  0  0  0  0  0  0  0  0  0  0  0
  148.5229  136.6341  155.6387 C   0  0  0  0  0  0  0  0  0  0  0  0
  148.9926  137.4062  154.6160 N   0  3  0  0  0  0  0  0  0  0  0  0
  149.2145  138.7079  155.0640 C   0  0  0  0  0  0  0  0  0  0  0  0
  149.6945  139.8317  154.3986 C   0  0  0  0  0  0  0  0  0  0  0  0
  149.8044  141.0165  155.1559 C   0  0  0  0  0  0  0  0  0  0  0  0
  149.4404  141.0536  156.5177 C   0  0  0  0  0  0  0  0  0  0  0  0
  148.9520  139.9079  157.1802 C   0  0  0  0  0  0  0  0  0  0  0  0
  148.8500  138.7403  156.4246 C   0  0  0  0  0  0  0  0  0  0  0  0
  148.4236  137.4442  156.7351 N   0  0  0  0  0  0  0  0  0  0  0  0
  147.9658  137.1573  158.1050 C   0  0  0  0  0  0  0  0  0  0  0  0
  148.7373  135.9956  158.7631 C   0  0  1  0  0  0  0  0  0  0  0  0
  150.1091  136.3317  158.7799 O   0  0  0  0  0  0  0  0  0  0  0  0
  148.2035  135.6690  160.1500 C   0  0  0  0  0  0  0  0  0  0  0  0
  148.2511  136.6289  161.1855 C   0  0  0  0  0  0  0  0  0  0  0  0
  147.7163  136.3311  162.4537 C   0  0  0  0  0  0  0  0  0  0  0  0
  147.1343  135.0719  162.6954 C   0  0  0  0  0  0  0  0  0  0  0  0
  147.0867  134.1105  161.6679 C   0  0  0  0  0  0  0  0  0  0  0  0
  146.5221  132.9014  161.8971 F   0  0  0  0  0  0  0  0  0  0  0  0
  147.6201  134.4080  160.3992 C   0  0  0  0  0  0  0  0  0  0  0  0
  147.2166  135.0632  156.0899 H   0  0  0  0  0  0  0  0  0  0  0  0
  148.2193  134.0169  151.7079 H   0  0  0  0  0  0  0  0  0  0  0  0
  146.5804  133.3965  151.9563 H   0  0  0  0  0  0  0  0  0  0  0  0
  147.9606  132.2924  151.9839 H   0  0  0  0  0  0  0  0  0  0  0  0
  148.0961  135.4696  153.4671 H   0  0  0  0  0  0  0  0  0  0  0  0
  149.2874  134.5574  157.3239 H   0  0  0  0  0  0  0  0  0  0  0  0
  150.1706  134.3438  155.8112 H   0  0  0  0  0  0  0  0  0  0  0  0
  148.8733  133.2355  156.2429 H   0  0  0  0  0  0  0  0  0  0  0  0
  149.9733  139.8058  153.3552 H   0  0  0  0  0  0  0  0  0  0  0  0
  150.1752  141.9144  154.6830 H   0  0  0  0  0  0  0  0  0  0  0  0
  149.5383  141.9796  157.0658 H   0  0  0  0  0  0  0  0  0  0  0  0
  148.6770  139.9461  158.2241 H   0  0  0  0  0  0  0  0  0  0  0  0
  148.0677  138.0723  158.6900 H   0  0  0  0  0  0  0  0  0  0  0  0
  146.8986  136.9385  158.0719 H   0  0  0  0  0  0  0  0  0  0  0  0
  148.6504  135.1048  158.1401 H   0  0  0  0  0  0  0  0  0  0  0  0
  150.1977  137.2434  158.5470 H   0  0  0  0  0  0  0  0  0  0  0  0
  148.6825  137.6033  161.0068 H   0  0  0  0  0  0  0  0  0  0  0  0
  147.7480  137.0714  163.2394 H   0  0  0  0  0  0  0  0  0  0  0  0
  146.7224  134.8447  163.6676 H   0  0  0  0  0  0  0  0  0  0  0  0
  147.5683  133.6685  159.6135 H   0  0  0  0  0  0  0  0  0  0  0  0
  149.1562  137.0596  153.6795 H   0  0  0  0  0  0  0  0  0  0  0  0
  1  2  1  0  0  0  0
  1 27  1  0  0  0  0
  1 28  1  0  0  0  0
  1 29  1  0  0  0  0
  2  3  2  0  0  0  0
  2  4  1  0  0  0  0
  4  5  1  0  0  0  0
  4 30  1  0  0  0  0
  5 26  1  0  0  0  0
  5  6  1  0  0  0  0
  5  7  1  0  0  0  0
  6 31  1  0  0  0  0
  6 32  1  0  0  0  0
  6 33  1  0  0  0  0
  7 15  1  0  0  0  0
  7  8  2  0  0  0  0
  8  9  1  0  0  0  0
  8 46  1  0  0  0  0
  9 14  2  0  0  0  0
  9 10  1  0  0  0  0
 10 11  2  0  0  0  0
 10 34  1  0  0  0  0
 11 12  1  0  0  0  0
 11 35  1  0  0  0  0
 12 13  2  0  0  0  0
 12 36  1  0  0  0  0
 13 14  1  0  0  0  0
 13 37  1  0  0  0  0
 14 15  1  0  0  0  0
 15 16  1  0  0  0  0
 16 17  1  0  0  0  0
 16 38  1  0  0  0  0
 16 39  1  0  0  0  0
 17 18  1  0  0  0  0
 17 19  1  0  0  0  0
 17 40  1  0  0  0  0
 18 41  1  0  0  0  0
 19 25  1  0  0  0  0
 19 20  2  0  0  0  0
 20 21  1  0  0  0  0
 20 42  1  0  0  0  0
 21 22  2  0  0  0  0
 21 43  1  0  0  0  0
 22 23  1  0  0  0  0
 22 44  1  0  0  0  0
 23 24  1  0  0  0  0
 23 25  2  0  0  0  0
 25 45  1  0  0  0  0
M  CHG  1   8   1
M  END
> <s_m_source_file>
AV-unprocessed.smi

> <i_m_source_file_index>
1667

> <i_lp_mmshare_version>
43012

> <i_f3d_flags>
0

> <s_epik_input>
W0NIM11DKD1PKVtOSF1bQ0BASF0oW0NIM10pYyhuMSluKGMoYzEyKVtjSF1bY0hdW2NIXVtjSF0yKVtDSDJdW0NASF0oW09IXSljM1tjSF1bY0hdW2NIXWMoRilbY0hdMw==

> <s_epik_cmdline>
J2VwaWtfcHl0aG9uJywgJy1waCcsICc3LjAnLCAnLXRuJywgJzgnLCAnLW1hJywgJzIwMCcsICctbWV0YWxfYmluZGluZycsICctaW1hZScsICc8aW5maWxlLm1hZT4nLCAnLW9tYWUnLCAnPG91dGZpbGUubWFlPic=

> <r_epik_Ionization_Penalty>
0.950383

> <r_epik_Ionization_Penalty_Charging>
0.950379

> <r_epik_Ionization_Penalty_Neutral>
3.60962e-06

> <r_epik_State_Penalty>
0.994584

> <r_epik_Charging_Adjusted_Penalty>
1.94496

> <i_epik_Tot_Q>
1

> <i_epik_Tot_abs_Q>
1

> <r_epik_Metal_State_Penalty>
1.10485

> <b_epik_Metal_Only>
0

> <s_lp_Force_Field>
OPLS_2005

> <r_lp_Energy>
12.894

> <b_lp_Chiralities_Consistent>
1

> <s_lp_Variant>
AV-unprocessed.smi:1667-7

> <Gold.Version>
5.8.1

> <Gold.Id.Protein>
6NUR|6NUR_protein|mol2

> <Gold.PLP.Fitness>
48.4061

> <Gold.PLP.PLP>
-37.1890

> <Gold.PLP.part.hbond>
-3.0000

> <Gold.PLP.part.metal>
0.0000

> <Gold.PLP.part.buried>
-1.5257

> <Gold.PLP.part.nonpolar>
-31.9635

> <Gold.PLP.part.repulsive>
0.0258

> <Gold.PLP.ligand.clash>
0.0000

> <Gold.PLP.ligand.torsion>
0.4457

> <Gold.PLP.Chemscore.Hbond>
4.0000

> <Gold.PLP.Chemscore.CHOScore>
0.0000

> <Gold.PLP.Chemscore.Metal>
0.0000

> <Gold.Chemscore.Hbonds>
donor molecule, donor type, donor heavy atom, donor atom, acceptor molecule, acceptor atom, score
      L1  H     4    30       P1  7948  1.00
      L1  H     8    46       P1  7948  2.00
      P1  H  6896  6908       L1    18  1.00

> <Gold.PLP.Chemscore.Internal.Correction>
0.1086

> <Gold.Rescore>
     Score         DG    S(hbond)    S(metal)    S(lipo)     H(rot)  DE(clash)    DE(int)     intcor
     16.95     -18.71       2.85        0.00      87.17       2.53       0.01       1.75       ----

> <Gold.Chemscore.Fitness>
16.9490

> <Gold.Chemscore.DG>
-18.7110

> <Gold.Chemscore.ZeroCoef>
-5.4800

> <Gold.Chemscore.Hbond>
2.8498

> <Gold.Chemscore.Metal>
0.0000

> <Gold.Chemscore.Lipo>
87.1661

> <Gold.Chemscore.Internal_Hbond>
0.0000

> <Gold.Chemscore.DEClash>
0.0141

> <Gold.Chemscore.DEInternal>
1.7478

> <Gold.Chemscore.Rot>
2.5335

> <Gold.Chemscore.Internal.Correction>
   9.000000E+99

> <Gold.Chemscore.Hbonds>
donor molecule, donor type, donor heavy atom, donor atom, acceptor molecule, acceptor atom, score
      L1  H     4    30       P1  7948  0.94
      L1  H     8    46       P1  7948  0.97
      P1  H  6896  6908       L1    18  0.45

> <Gold.Chemscore.Hbond.Weighted>
-9.5182

> <Gold.Chemscore.Metal.Weighted>
-0.0000

> <Gold.Chemscore.Lipo.Weighted>
-10.1984

> <Gold.Chemscore.Internal_Hbond.Weighted>
0.0000

> <Gold.Chemscore.DEClash.Weighted>
0.0141

> <Gold.Chemscore.DEInternal.Weighted>
1.7478

> <Gold.Chemscore.Rot.Weighted>
6.4856

> <Gold.Chemscore.Internal.Correction.Weighted>
   9.000000E+99

> <Gold.Protein.RotatedTorsions>
[ 6907 6896 6895 6894 ] final -164.14 input  -60.11 | X-H torsion
[ 7974 7965 7964 7962 ] final   90.84 input  175.53 | X-H torsion
[ 8008 7997 7996 7995 ] final -148.05 input   59.86 | X-H torsion
[ 10167 10162 10161 10158 ] final  -62.90 input  -65.29 | X-H torsion
[ 10718 10713 10712 10709 ] final  138.13 input   66.30 | X-H torsion
[ 10763 10752 10751 10750 ] final  -41.49 input  -60.55 | X-H torsion
[ 11005 11000 10999 10996 ] final   29.81 input  -57.11 | X-H torsion

> <Gold.Protein.ActiveResidues>
 VAL166  LYS551  ARG553  GLY616  TRP617  ASP618  TYR619  PRO620  LYS621  CYS622 
 ASP623  PHE694  ASN695  SER759  ASP760  ASP761  ALA762  ILE779  LEU786  VAL792 
 PHE793  MET794  SER795  GLU796  ALA797  LYS798  CYS799  TRP800  GLU811  SER814 

> <Gold.Protein.RotatedAtoms>
  151.4071  133.3739  159.2739 H   0  0  0  0  0  0  0  0  0  0  0  0  # atno 6907 bound_to 6896
  150.9390  134.8802  159.7611 H   0  0  0  0  0  0  0  0  0  0  0  0  # atno 6908 bound_to 6896
  152.5063  134.4020  159.9472 H   0  0  0  0  0  0  0  0  0  0  0  0  # atno 6909 bound_to 6896
  145.5136  139.2277  143.2711 H   0  0  0  0  0  0  0  0  0  0  0  0  # atno 7974 bound_to 7965
  155.5854  140.0647  157.2772 H   0  0  0  0  0  0  0  0  0  0  0  0  # atno 8008 bound_to 7997
  154.4320  140.1844  156.1066 H   0  0  0  0  0  0  0  0  0  0  0  0  # atno 8009 bound_to 7997
  156.0273  140.3310  155.7106 H   0  0  0  0  0  0  0  0  0  0  0  0  # atno 8010 bound_to 7997
  140.5907  143.2341  151.6145 H   0  0  0  0  0  0  0  0  0  0  0  0  # atno 10167 bound_to 10162
  157.4286  131.1046  151.0275 H   0  0  0  0  0  0  0  0  0  0  0  0  # atno 10718 bound_to 10713
  153.9633  135.6737  153.4745 H   0  0  0  0  0  0  0  0  0  0  0  0  # atno 10763 bound_to 10752
  153.0827  135.4915  154.8533 H   0  0  0  0  0  0  0  0  0  0  0  0  # atno 10764 bound_to 10752
  154.7260  135.3127  154.8930 H   0  0  0  0  0  0  0  0  0  0  0  0  # atno 10765 bound_to 10752
  140.3010  134.2757  155.7754 H   0  0  0  0  0  0  0  0  0  0  0  0  # atno 11005 bound_to 11000
  146.2151  140.5944  142.9042 LP  0  0  0  0  0  0  0  0  0  0  0  0  # atno 17320 bound_to 7965
  144.7714  140.5645  143.6668 LP  0  0  0  0  0  0  0  0  0  0  0  0  # atno 17321 bound_to 7965
  139.5226  144.3158  152.0953 LP  0  0  0  0  0  0  0  0  0  0  0  0  # atno 17342 bound_to 10162
  140.2322  144.4356  150.6295 LP  0  0  0  0  0  0  0  0  0  0  0  0  # atno 17343 bound_to 10162
  157.1180  130.6049  149.5498 LP  0  0  0  0  0  0  0  0  0  0  0  0  # atno 17370 bound_to 10713
  155.9905  130.4956  150.7260 LP  0  0  0  0  0  0  0  0  0  0  0  0  # atno 17371 bound_to 10713
  141.2128  133.7646  156.9766 LP  0  0  0  0  0  0  0  0  0  0  0  0  # atno 17394 bound_to 11000
  140.1110  134.9477  157.2065 LP  0  0  0  0  0  0  0  0  0  0  0  0  # atno 17395 bound_to 11000

$$$$
