AV-unprocessed.smi:822|AV-procd|sdf|3843|dock3
  -GOLD-   22720 1293D 1   1.00000     0.00000
 Structure written by MMmdl.
 38 39  0  0  0  0  0  0  0  0  1 V2000
  149.7273  143.4727  158.4846 O   0  0  0  0  0  0  0  0  0  0  0  0
  150.8159  143.2427  157.9576 C   0  0  0  0  0  0  0  0  0  0  0  0
  152.0271  144.1279  158.2708 C   0  0  0  0  0  0  0  0  0  0  0  0
  152.7014  143.8075  159.6241 C   0  0  0  0  0  0  0  0  0  0  0  0
  153.0760  142.3129  159.7035 C   0  0  0  0  0  0  0  0  0  0  0  0
  153.7554  141.9629  161.0373 C   0  0  0  0  0  0  0  0  0  0  0  0
  152.8727  142.3576  162.2305 C   0  0  0  0  0  0  0  0  0  0  0  0
  152.4987  143.8459  162.1698 C   0  0  0  0  0  0  0  0  0  0  0  0
  151.8221  144.1983  160.8351 C   0  0  0  0  0  0  0  0  0  0  0  0
  151.0182  142.2362  157.0938 N   0  0  0  0  0  0  0  0  0  0  0  0
  150.0007  141.2843  156.6651 C   0  0  0  0  0  0  0  0  0  0  0  0
  150.2208  140.8424  155.2096 C   0  0  0  0  0  0  0  0  0  0  0  0
  148.9638  140.5807  154.5389 N   0  0  0  0  0  0  0  0  0  0  0  0
  147.9664  141.4997  154.2406 C   0  0  0  0  0  0  0  0  0  0  0  0
  146.9674  140.8011  153.6011 C   0  0  0  0  0  0  0  0  0  0  0  0
  147.3273  139.4597  153.4945 N   0  0  0  0  0  0  0  0  0  0  0  0
  148.5211  139.4054  154.0714 C   0  0  0  0  0  0  0  0  0  0  0  0
  152.7606  144.0528  157.4666 H   0  0  0  0  0  0  0  0  0  0  0  0
  151.6804  145.1620  158.2705 H   0  0  0  0  0  0  0  0  0  0  0  0
  153.6301  144.3776  159.6861 H   0  0  0  0  0  0  0  0  0  0  0  0
  152.1804  141.7020  159.5823 H   0  0  0  0  0  0  0  0  0  0  0  0
  153.7402  142.0503  158.8794 H   0  0  0  0  0  0  0  0  0  0  0  0
  153.9728  140.8951  161.0738 H   0  0  0  0  0  0  0  0  0  0  0  0
  154.7151  142.4767  161.1057 H   0  0  0  0  0  0  0  0  0  0  0  0
  151.9656  141.7518  162.2310 H   0  0  0  0  0  0  0  0  0  0  0  0
  153.3906  142.1410  163.1652 H   0  0  0  0  0  0  0  0  0  0  0  0
  151.8363  144.0963  162.9991 H   0  0  0  0  0  0  0  0  0  0  0  0
  153.3952  144.4540  162.2963 H   0  0  0  0  0  0  0  0  0  0  0  0
  151.6038  145.2663  160.8224 H   0  0  0  0  0  0  0  0  0  0  0  0
  150.8607  143.6871  160.7709 H   0  0  0  0  0  0  0  0  0  0  0  0
  151.9446  142.1187  156.7093 H   0  0  0  0  0  0  0  0  0  0  0  0
  150.0474  140.4194  157.3275 H   0  0  0  0  0  0  0  0  0  0  0  0
  149.0058  141.7160  156.7895 H   0  0  0  0  0  0  0  0  0  0  0  0
  150.7595  141.6084  154.6496 H   0  0  0  0  0  0  0  0  0  0  0  0
  150.8273  139.9365  155.1729 H   0  0  0  0  0  0  0  0  0  0  0  0
  148.0480  142.5450  154.5000 H   0  0  0  0  0  0  0  0  0  0  0  0
  146.0250  141.1578  153.2118 H   0  0  0  0  0  0  0  0  0  0  0  0
  149.0874  138.4891  154.1539 H   0  0  0  0  0  0  0  0  0  0  0  0
  1  2  2  0  0  0  0
  2  3  1  0  0  0  0
  2 10  1  0  0  0  0
  3  4  1  0  0  0  0
  3 18  1  0  0  0  0
  3 19  1  0  0  0  0
  4  9  1  0  0  0  0
  4  5  1  0  0  0  0
  4 20  1  0  0  0  0
  5  6  1  0  0  0  0
  5 21  1  0  0  0  0
  5 22  1  0  0  0  0
  6  7  1  0  0  0  0
  6 23  1  0  0  0  0
  6 24  1  0  0  0  0
  7  8  1  0  0  0  0
  7 25  1  0  0  0  0
  7 26  1  0  0  0  0
  8  9  1  0  0  0  0
  8 27  1  0  0  0  0
  8 28  1  0  0  0  0
  9 29  1  0  0  0  0
  9 30  1  0  0  0  0
 10 11  1  0  0  0  0
 10 31  1  0  0  0  0
 11 12  1  0  0  0  0
 11 32  1  0  0  0  0
 11 33  1  0  0  0  0
 12 13  1  0  0  0  0
 12 34  1  0  0  0  0
 12 35  1  0  0  0  0
 13 17  1  0  0  0  0
 13 14  1  0  0  0  0
 14 15  2  0  0  0  0
 14 36  1  0  0  0  0
 15 16  1  0  0  0  0
 15 37  1  0  0  0  0
 16 17  2  0  0  0  0
 17 38  1  0  0  0  0
M  END
> <s_m_source_file>
AV-unprocessed.smi

> <i_m_source_file_index>
822

> <i_lp_mmshare_version>
43012

> <i_f3d_flags>
0

> <s_epik_input>
W0NIMl0xW0NIMl1bQ0gyXVtDSDJdW0NIMl1bQ0hdMVtDSDJdQyg9TylbTkhdW0NIMl1bQ0gyXW4yW2NIXVtjSF1uW2NIXTI=

> <s_epik_cmdline>
J2VwaWtfcHl0aG9uJywgJy1waCcsICc3LjAnLCAnLXRuJywgJzgnLCAnLW1hJywgJzIwMCcsICctbWV0YWxfYmluZGluZycsICctaW1hZScsICc8aW5maWxlLm1hZT4nLCAnLW9tYWUnLCAnPG91dGZpbGUubWFlPic=

> <r_lp_tautomer_probability>
1

> <r_epik_Ionization_Penalty>
0.600603

> <r_epik_Ionization_Penalty_Charging>
0.600603

> <r_epik_Ionization_Penalty_Neutral>
2.18922e-08

> <r_epik_State_Penalty>
0.614954

> <r_epik_Charging_Adjusted_Penalty>
1.21556

> <i_epik_Tot_Q>
0

> <i_epik_Tot_abs_Q>
0

> <r_epik_Metal_State_Penalty>
0.301281

> <b_epik_Metal_Only>
0

> <s_lp_Force_Field>
OPLS_2005

> <r_lp_Energy>
10.0857

> <b_lp_Chiralities_Consistent>
1

> <s_lp_Variant>
AV-unprocessed.smi:822-2

> <Gold.Version>
5.8.1

> <Gold.Id.Protein>
6NUR|6NUR_protein|mol2

> <Gold.PLP.Fitness>
48.4033

> <Gold.PLP.PLP>
-43.9195

> <Gold.PLP.part.hbond>
0.0000

> <Gold.PLP.part.metal>
0.0000

> <Gold.PLP.part.buried>
-4.1737

> <Gold.PLP.part.nonpolar>
-42.0507

> <Gold.PLP.part.repulsive>
0.4351

> <Gold.PLP.ligand.clash>
0.0000

> <Gold.PLP.ligand.torsion>
0.7110

> <Gold.PLP.Chemscore.Hbond>
0.0000

> <Gold.PLP.Chemscore.CHOScore>
1.9528

> <Gold.PLP.Chemscore.Metal>
0.0000

> <Gold.Chemscore.Hbonds>
donor molecule, donor type, donor heavy atom, donor atom, acceptor molecule, acceptor atom, score
      L1  C    14    36       P1  8028  0.89
      L1  C    15    37       P1 10175  0.99

> <Gold.PLP.Chemscore.Internal.Correction>
0.0475

> <Gold.Rescore>
     Score         DG    S(hbond)    S(metal)    S(lipo)     H(rot)  DE(clash)    DE(int)     intcor
     12.87     -13.75       0.00        0.00     113.76       1.97       0.10       0.78       ----

> <Gold.Chemscore.Fitness>
12.8682

> <Gold.Chemscore.DG>
-13.7491

> <Gold.Chemscore.ZeroCoef>
-5.4800

> <Gold.Chemscore.Hbond>
0.0000

> <Gold.Chemscore.Metal>
0.0000

> <Gold.Chemscore.Lipo>
113.7617

> <Gold.Chemscore.Internal_Hbond>
0.0000

> <Gold.Chemscore.DEClash>
0.1010

> <Gold.Chemscore.DEInternal>
0.7799

> <Gold.Chemscore.Rot>
1.9692

> <Gold.Chemscore.Internal.Correction>
   9.000000E+99

> <Gold.Chemscore.Hbond.Weighted>
-0.0000

> <Gold.Chemscore.Metal.Weighted>
-0.0000

> <Gold.Chemscore.Lipo.Weighted>
-13.3101

> <Gold.Chemscore.Internal_Hbond.Weighted>
0.0000

> <Gold.Chemscore.DEClash.Weighted>
0.1010

> <Gold.Chemscore.DEInternal.Weighted>
0.7799

> <Gold.Chemscore.Rot.Weighted>
5.0410

> <Gold.Chemscore.Internal.Correction.Weighted>
   9.000000E+99

> <Gold.Protein.RotatedTorsions>
[ 6907 6896 6895 6894 ] final -119.51 input  -60.11 | X-H torsion
[ 7974 7965 7964 7962 ] final   97.44 input  175.53 | X-H torsion
[ 8008 7997 7996 7995 ] final -178.91 input   59.86 | X-H torsion
[ 10167 10162 10161 10158 ] final   -4.85 input  -65.29 | X-H torsion
[ 10718 10713 10712 10709 ] final -141.11 input   66.30 | X-H torsion
[ 10763 10752 10751 10750 ] final  126.50 input  -60.55 | X-H torsion
[ 11005 11000 10999 10996 ] final    1.56 input  -57.11 | X-H torsion

> <Gold.Protein.ActiveResidues>
 VAL166  LYS551  ARG553  GLY616  TRP617  ASP618  TYR619  PRO620  LYS621  CYS622 
 ASP623  PHE694  ASN695  SER759  ASP760  ASP761  ALA762  ILE779  LEU786  VAL792 
 PHE793  MET794  SER795  GLU796  ALA797  LYS798  CYS799  TRP800  GLU811  SER814 

> <Gold.Protein.RotatedAtoms>
  150.8311  133.8089  159.3097 H   0  0  0  0  0  0  0  0  0  0  0  0  # atno 6907 bound_to 6896
  151.5819  135.1056  160.0028 H   0  0  0  0  0  0  0  0  0  0  0  0  # atno 6908 bound_to 6896
  152.4390  133.7372  159.6677 H   0  0  0  0  0  0  0  0  0  0  0  0  # atno 6909 bound_to 6896
  145.4255  139.2316  143.3173 H   0  0  0  0  0  0  0  0  0  0  0  0  # atno 7974 bound_to 7965
  156.0244  140.1268  157.0324 H   0  0  0  0  0  0  0  0  0  0  0  0  # atno 8008 bound_to 7997
  154.4324  140.1062  156.6080 H   0  0  0  0  0  0  0  0  0  0  0  0  # atno 8009 bound_to 7997
  155.5898  140.3469  155.4565 H   0  0  0  0  0  0  0  0  0  0  0  0  # atno 8010 bound_to 7997
  140.6942  143.6376  150.8465 H   0  0  0  0  0  0  0  0  0  0  0  0  # atno 10167 bound_to 10162
  156.3302  130.7582  151.1698 H   0  0  0  0  0  0  0  0  0  0  0  0  # atno 10718 bound_to 10713
  153.6944  135.3293  155.3210 H   0  0  0  0  0  0  0  0  0  0  0  0  # atno 10763 bound_to 10752
  154.8431  135.4439  154.1475 H   0  0  0  0  0  0  0  0  0  0  0  0  # atno 10764 bound_to 10752
  153.2526  135.6983  153.7741 H   0  0  0  0  0  0  0  0  0  0  0  0  # atno 10765 bound_to 10752
  140.6141  133.9721  155.8192 H   0  0  0  0  0  0  0  0  0  0  0  0  # atno 11005 bound_to 11000
  146.2634  140.4985  142.8844 LP  0  0  0  0  0  0  0  0  0  0  0  0  # atno 17320 bound_to 7965
  144.8217  140.6561  143.6348 LP  0  0  0  0  0  0  0  0  0  0  0  0  # atno 17321 bound_to 7965
  140.0093  143.5660  152.2845 LP  0  0  0  0  0  0  0  0  0  0  0  0  # atno 17342 bound_to 10162
  139.6378  144.7652  151.2402 LP  0  0  0  0  0  0  0  0  0  0  0  0  # atno 17343 bound_to 10162
  157.7429  131.0483  150.4989 LP  0  0  0  0  0  0  0  0  0  0  0  0  # atno 17370 bound_to 10713
  156.5154  130.4149  149.6279 LP  0  0  0  0  0  0  0  0  0  0  0  0  # atno 17371 bound_to 10713
  141.0788  134.0094  157.3418 LP  0  0  0  0  0  0  0  0  0  0  0  0  # atno 17394 bound_to 11000
  139.9180  135.0198  156.7956 LP  0  0  0  0  0  0  0  0  0  0  0  0  # atno 17395 bound_to 11000

$$$$
