AV-unprocessed.smi:2973|AV-procd|sdf|11349|dock5
  -GOLD-   2272016263D 1   1.00000     0.00000
 Structure written by MMmdl.
 49 51  0  0  0  0  0  0  0  0  3 V2000
  152.1536  140.2065  159.1051 C   0  0  0  0  0  0  0  0  0  0  0  0
  152.4111  141.7067  158.8392 C   0  0  2  0  0  0  0  0  0  0  0  0
  152.3857  142.4877  160.1721 C   0  0  0  0  0  0  0  0  0  0  0  0
  152.7118  143.9751  159.9731 C   0  0  0  0  0  0  0  0  0  0  0  0
  151.7560  144.6233  158.9640 C   0  0  0  0  0  0  0  0  0  0  0  0
  151.7745  143.8685  157.6233 C   0  0  0  0  0  0  0  0  0  0  0  0
  151.4741  142.3517  157.7628 C   0  0  1  0  0  0  0  0  0  0  0  0
  151.6816  141.7201  156.4707 N   0  5  0  0  0  0  0  0  0  0  0  0
  150.5148  141.1828  156.0464 C   0  0  0  0  0  0  0  0  0  0  0  0
  150.3286  140.5594  155.0016 O   0  0  0  0  0  0  0  0  0  0  0  0
  149.5288  141.4057  156.9350 N   0  0  0  0  0  0  0  0  0  0  0  0
  148.1491  140.9219  156.7953 C   0  0  0  0  0  0  0  0  0  0  0  0
  147.1806  142.0128  156.3181 C   0  0  0  0  0  0  0  0  0  0  0  0
  146.7107  142.8338  157.1076 O   0  0  0  0  0  0  0  0  0  0  0  0
  146.9013  142.0181  155.0061 N   0  0  0  0  0  0  0  0  0  0  0  0
  146.0022  142.9580  154.3480 C   0  0  0  0  0  0  0  0  0  0  0  0
  144.6088  142.9601  155.0000 C   0  0  0  0  0  0  0  0  0  0  0  0
  144.0179  144.3534  155.0841 C   0  0  0  0  0  0  0  0  0  0  0  0
  144.3759  145.2588  156.1065 C   0  0  0  0  0  0  0  0  0  0  0  0
  143.7964  146.5447  156.1220 C   0  0  0  0  0  0  0  0  0  0  0  0
  142.8731  146.8979  155.1163 C   0  0  0  0  0  0  0  0  0  0  0  0
  142.5525  145.9550  154.1184 C   0  0  0  0  0  0  0  0  0  0  0  0
  143.1294  144.7333  154.1372 N   0  3  0  0  0  0  0  0  0  0  0  0
  149.9870  142.0869  157.9910 C   0  0  0  0  0  0  0  0  0  0  0  0
  149.3476  142.4357  158.9844 O   0  0  0  0  0  0  0  0  0  0  0  0
  151.1692  140.0333  159.5404 H   0  0  0  0  0  0  0  0  0  0  0  0
  152.8906  139.8047  159.8007 H   0  0  0  0  0  0  0  0  0  0  0  0
  152.2217  139.6169  158.1908 H   0  0  0  0  0  0  0  0  0  0  0  0
  153.4308  141.7777  158.4561 H   0  0  0  0  0  0  0  0  0  0  0  0
  151.4118  142.3877  160.6518 H   0  0  0  0  0  0  0  0  0  0  0  0
  153.1076  142.0552  160.8655 H   0  0  0  0  0  0  0  0  0  0  0  0
  152.6552  144.4989  160.9275 H   0  0  0  0  0  0  0  0  0  0  0  0
  153.7392  144.0800  159.6224 H   0  0  0  0  0  0  0  0  0  0  0  0
  150.7462  144.6454  159.3732 H   0  0  0  0  0  0  0  0  0  0  0  0
  152.0400  145.6635  158.8033 H   0  0  0  0  0  0  0  0  0  0  0  0
  151.0637  144.3369  156.9402 H   0  0  0  0  0  0  0  0  0  0  0  0
  152.7559  144.0025  157.1652 H   0  0  0  0  0  0  0  0  0  0  0  0
  148.1075  140.0914  156.0890 H   0  0  0  0  0  0  0  0  0  0  0  0
  147.8050  140.5163  157.7486 H   0  0  0  0  0  0  0  0  0  0  0  0
  147.3369  141.3148  154.4272 H   0  0  0  0  0  0  0  0  0  0  0  0
  146.4348  143.9599  154.3659 H   0  0  0  0  0  0  0  0  0  0  0  0
  145.9245  142.6714  153.2989 H   0  0  0  0  0  0  0  0  0  0  0  0
  143.9297  142.3197  154.4354 H   0  0  0  0  0  0  0  0  0  0  0  0
  144.6598  142.5402  156.0055 H   0  0  0  0  0  0  0  0  0  0  0  0
  145.0874  144.9736  156.8682 H   0  0  0  0  0  0  0  0  0  0  0  0
  144.0577  147.2517  156.8960 H   0  0  0  0  0  0  0  0  0  0  0  0
  142.4182  147.8779  155.1100 H   0  0  0  0  0  0  0  0  0  0  0  0
  141.8582  146.1400  153.3117 H   0  0  0  0  0  0  0  0  0  0  0  0
  142.8826  144.0673  153.4045 H   0  0  0  0  0  0  0  0  0  0  0  0
  1  2  1  0  0  0  0
  1 26  1  0  0  0  0
  1 27  1  0  0  0  0
  1 28  1  0  0  0  0
  2  7  1  0  0  0  0
  2  3  1  0  0  0  0
  2 29  1  0  0  0  0
  3  4  1  0  0  0  0
  3 30  1  0  0  0  0
  3 31  1  0  0  0  0
  4  5  1  0  0  0  0
  4 32  1  0  0  0  0
  4 33  1  0  0  0  0
  5  6  1  0  0  0  0
  5 34  1  0  0  0  0
  5 35  1  0  0  0  0
  6  7  1  0  0  0  0
  6 36  1  0  0  0  0
  6 37  1  0  0  0  0
  7 24  1  0  0  0  0
  7  8  1  0  0  0  0
  8  9  1  0  0  0  0
  9 10  2  0  0  0  0
  9 11  1  0  0  0  0
 11 12  1  0  0  0  0
 11 24  1  0  0  0  0
 12 13  1  0  0  0  0
 12 38  1  0  0  0  0
 12 39  1  0  0  0  0
 13 14  2  0  0  0  0
 13 15  1  0  0  0  0
 15 16  1  0  0  0  0
 15 40  1  0  0  0  0
 16 17  1  0  0  0  0
 16 41  1  0  0  0  0
 16 42  1  0  0  0  0
 17 18  1  0  0  0  0
 17 43  1  0  0  0  0
 17 44  1  0  0  0  0
 18 23  1  0  0  0  0
 18 19  2  0  0  0  0
 19 20  1  0  0  0  0
 19 45  1  0  0  0  0
 20 21  2  0  0  0  0
 20 46  1  0  0  0  0
 21 22  1  0  0  0  0
 21 47  1  0  0  0  0
 22 23  2  0  0  0  0
 22 48  1  0  0  0  0
 23 49  1  0  0  0  0
 24 25  2  0  0  0  0
M  CHG  1   8  -1
M  CHG  1  23   1
M  END
> <s_m_source_file>
AV-unprocessed.smi

> <i_m_source_file_index>
2973

> <i_lp_mmshare_version>
43012

> <i_f3d_flags>
0

> <s_epik_input>
W0NIMl0xW0NIMl1bQ0gyXVtDSDJdW0NAQEhdKFtDSDNdKVtDQF0xMltOSF1DKD1PKU4oQzI9TylbQ0gyXUMoPU8pW05IXVtDSDJdW0NIMl1jM1tjSF1bY0hdW2NIXVtjSF1uMw==

> <s_epik_cmdline>
J2VwaWtfcHl0aG9uJywgJy1waCcsICc3LjAnLCAnLXRuJywgJzgnLCAnLW1hJywgJzIwMCcsICctbWV0YWxfYmluZGluZycsICctaW1hZScsICc8aW5maWxlLm1hZT4nLCAnLW9tYWUnLCAnPG91dGZpbGUubWFlPic=

> <r_lp_tautomer_probability>
1

> <r_epik_Ionization_Penalty>
7.89073

> <r_epik_Ionization_Penalty_Charging>
7.89073

> <r_epik_Ionization_Penalty_Neutral>
1.56557e-07

> <r_epik_State_Penalty>
8.01193

> <r_epik_Charging_Adjusted_Penalty>
15.9027

> <i_epik_Tot_Q>
0

> <i_epik_Tot_abs_Q>
2

> <r_epik_Metal_State_Penalty>
3.98737

> <b_epik_Metal_Only>
1

> <s_lp_Force_Field>
OPLS_2005

> <r_lp_Energy>
17.4929

> <b_lp_Chiralities_Consistent>
1

> <s_lp_Variant>
AV-unprocessed.smi:2973-13

> <Gold.Version>
5.8.1

> <Gold.Id.Protein>
6NUR|6NUR_protein|mol2

> <Gold.PLP.Fitness>
51.0557

> <Gold.PLP.PLP>
-44.4774

> <Gold.PLP.part.hbond>
-2.9896

> <Gold.PLP.part.metal>
0.0000

> <Gold.PLP.part.buried>
-3.6143

> <Gold.PLP.part.nonpolar>
-38.6294

> <Gold.PLP.part.repulsive>
0.5447

> <Gold.PLP.ligand.clash>
0.0000

> <Gold.PLP.ligand.torsion>
1.1667

> <Gold.PLP.Chemscore.Hbond>
2.9600

> <Gold.PLP.Chemscore.CHOScore>
0.0000

> <Gold.PLP.Chemscore.Metal>
0.0000

> <Gold.Chemscore.Hbonds>
donor molecule, donor type, donor heavy atom, donor atom, acceptor molecule, acceptor atom, score
      L1  H    23    49       P1 10174  2.00
      P1  H  7989  7998       L1    10  0.96

> <Gold.PLP.Chemscore.Internal.Correction>
0.0317

> <Gold.Rescore>
     Score         DG    S(hbond)    S(metal)    S(lipo)     H(rot)  DE(clash)    DE(int)     intcor
     17.69     -20.30       1.87        0.00     115.21       1.92       1.73       0.88       ----

> <Gold.Chemscore.Fitness>
17.6864

> <Gold.Chemscore.DG>
-20.3025

> <Gold.Chemscore.ZeroCoef>
-5.4800

> <Gold.Chemscore.Hbond>
1.8719

> <Gold.Chemscore.Metal>
0.0000

> <Gold.Chemscore.Lipo>
115.2063

> <Gold.Chemscore.Internal_Hbond>
0.0000

> <Gold.Chemscore.DEClash>
1.7330

> <Gold.Chemscore.DEInternal>
0.8832

> <Gold.Chemscore.Rot>
1.9175

> <Gold.Chemscore.Internal.Correction>
   9.000000E+99

> <Gold.Chemscore.Hbonds>
donor molecule, donor type, donor heavy atom, donor atom, acceptor molecule, acceptor atom, score
      L1  H    23    49       P1 10174  0.93
      P1  H  7989  7998       L1    10  0.83

> <Gold.Chemscore.Hbond.Weighted>
-6.2521

> <Gold.Chemscore.Metal.Weighted>
-0.0000

> <Gold.Chemscore.Lipo.Weighted>
-13.4791

> <Gold.Chemscore.Internal_Hbond.Weighted>
0.0000

> <Gold.Chemscore.DEClash.Weighted>
1.7330

> <Gold.Chemscore.DEInternal.Weighted>
0.8832

> <Gold.Chemscore.Rot.Weighted>
4.9087

> <Gold.Chemscore.Internal.Correction.Weighted>
   9.000000E+99

> <Gold.Protein.RotatedTorsions>
[ 6907 6896 6895 6894 ] final   51.82 input  -60.11 | X-H torsion
[ 7974 7965 7964 7962 ] final   45.04 input  175.53 | X-H torsion
[ 8008 7997 7996 7995 ] final   63.57 input   59.86 | X-H torsion
[ 10167 10162 10161 10158 ] final  112.89 input  -65.29 | X-H torsion
[ 10718 10713 10712 10709 ] final   34.53 input   66.30 | X-H torsion
[ 10763 10752 10751 10750 ] final -161.71 input  -60.55 | X-H torsion
[ 11005 11000 10999 10996 ] final  130.69 input  -57.11 | X-H torsion

> <Gold.Protein.ActiveResidues>
 VAL166  LYS551  ARG553  GLY616  TRP617  ASP618  TYR619  PRO620  LYS621  CYS622 
 ASP623  PHE694  ASN695  SER759  ASP760  ASP761  ALA762  ILE779  LEU786  VAL792 
 PHE793  MET794  SER795  GLU796  ALA797  LYS798  CYS799  TRP800  GLU811  SER814 

> <Gold.Protein.RotatedAtoms>
  152.3167  134.7430  160.0323 H   0  0  0  0  0  0  0  0  0  0  0  0  # atno 6907 bound_to 6896
  151.7893  133.3352  159.3502 H   0  0  0  0  0  0  0  0  0  0  0  0  # atno 6908 bound_to 6896
  150.7348  134.5789  159.5973 H   0  0  0  0  0  0  0  0  0  0  0  0  # atno 6909 bound_to 6896
  146.0515  139.5007  142.9715 H   0  0  0  0  0  0  0  0  0  0  0  0  # atno 7974 bound_to 7965
  155.6323  140.3496  155.4687 H   0  0  0  0  0  0  0  0  0  0  0  0  # atno 8008 bound_to 7997
  155.9993  140.1210  157.0586 H   0  0  0  0  0  0  0  0  0  0  0  0  # atno 8009 bound_to 7997
  154.4244  140.1103  156.5661 H   0  0  0  0  0  0  0  0  0  0  0  0  # atno 8010 bound_to 7997
  139.6501  144.7128  151.2064 H   0  0  0  0  0  0  0  0  0  0  0  0  # atno 10167 bound_to 10162
  157.3115  130.7401  149.6728 H   0  0  0  0  0  0  0  0  0  0  0  0  # atno 10718 bound_to 10713
  154.7279  135.3040  154.8940 H   0  0  0  0  0  0  0  0  0  0  0  0  # atno 10763 bound_to 10752
  153.9792  135.6732  153.4753 H   0  0  0  0  0  0  0  0  0  0  0  0  # atno 10764 bound_to 10752
  153.0892  135.4968  154.8576 H   0  0  0  0  0  0  0  0  0  0  0  0  # atno 10765 bound_to 10752
  139.9687  134.9583  156.9331 H   0  0  0  0  0  0  0  0  0  0  0  0  # atno 11005 bound_to 11000
  145.6716  141.0215  143.1654 LP  0  0  0  0  0  0  0  0  0  0  0  0  # atno 17320 bound_to 7965
  144.7125  139.8318  143.7410 LP  0  0  0  0  0  0  0  0  0  0  0  0  # atno 17321 bound_to 7965
  140.7534  143.6164  150.8556 LP  0  0  0  0  0  0  0  0  0  0  0  0  # atno 17342 bound_to 10162
  139.9811  143.5950  152.2942 LP  0  0  0  0  0  0  0  0  0  0  0  0  # atno 17343 bound_to 10162
  155.9678  130.4250  150.4633 LP  0  0  0  0  0  0  0  0  0  0  0  0  # atno 17370 bound_to 10713
  157.2632  131.0571  151.2307 LP  0  0  0  0  0  0  0  0  0  0  0  0  # atno 17371 bound_to 10713
  140.5341  134.0785  155.7323 LP  0  0  0  0  0  0  0  0  0  0  0  0  # atno 17394 bound_to 11000
  141.1366  133.9210  157.2419 LP  0  0  0  0  0  0  0  0  0  0  0  0  # atno 17395 bound_to 11000

$$$$
