AV-unprocessed.smi:2606|AV-procd|sdf|10197|dock8
  -GOLD-   2272014203D 1   1.00000     0.00000
 Structure written by MMmdl.
 42 43  0  0  0  0  0  0  0  0  1 V2000
  152.8778  138.4881  159.4968 O   0  0  0  0  0  0  0  0  0  0  0  0
  153.0313  139.6425  159.0940 C   0  0  0  0  0  0  0  0  0  0  0  0
  154.1435  140.5033  159.7022 C   0  0  0  0  0  0  0  0  0  0  0  0
  153.5983  141.5467  160.5845 N   0  0  0  0  0  0  0  0  0  0  0  0
  152.8337  142.5607  159.9745 C   0  0  0  0  0  0  0  0  0  0  0  0
  152.2884  143.5824  160.6620 C   0  0  0  0  0  0  0  0  0  0  0  0
  151.4252  144.6334  159.9816 C   0  0  0  0  0  0  0  0  0  0  0  0
  151.4484  144.4894  158.6564 F   0  0  0  0  0  0  0  0  0  0  0  0
  150.1626  144.5158  160.3899 F   0  0  0  0  0  0  0  0  0  0  0  0
  151.8438  145.8648  160.2766 F   0  0  0  0  0  0  0  0  0  0  0  0
  152.4958  143.5775  162.0968 C   0  0  0  0  0  0  0  0  0  0  0  0
  153.2193  142.6124  162.6969 C   0  0  0  0  0  0  0  0  0  0  0  0
  153.8291  141.5227  161.9314 C   0  0  0  0  0  0  0  0  0  0  0  0
  154.5069  140.6453  162.4672 O   0  0  0  0  0  0  0  0  0  0  0  0
  152.2866  140.2400  158.1413 N   0  0  0  0  0  0  0  0  0  0  0  0
  151.2480  139.7182  157.4622 C   0  0  0  0  0  0  0  0  0  0  0  0
  150.9102  138.5323  157.4639 O   0  0  0  0  0  0  0  0  0  0  0  0
  150.6067  140.6673  156.7642 N   0  0  0  0  0  0  0  0  0  0  0  0
  149.4369  140.4485  155.9184 C   0  0  0  0  0  0  0  0  0  0  0  0
  149.6789  139.2747  154.9468 C   0  0  0  0  0  0  0  0  0  0  0  0
  148.4893  139.0797  153.9926 C   0  0  0  0  0  0  0  0  0  0  0  0
  148.1710  140.3724  153.2256 C   0  0  0  0  0  0  0  0  0  0  0  0
  147.9223  141.5420  154.1910 C   0  0  0  0  0  0  0  0  0  0  0  0
  149.1121  141.7403  155.1444 C   0  0  0  0  0  0  0  0  0  0  0  0
  154.8250  139.8579  160.2585 H   0  0  0  0  0  0  0  0  0  0  0  0
  154.7539  140.9326  158.9053 H   0  0  0  0  0  0  0  0  0  0  0  0
  152.7229  142.4556  158.9047 H   0  0  0  0  0  0  0  0  0  0  0  0
  152.0675  144.3636  162.7011 H   0  0  0  0  0  0  0  0  0  0  0  0
  153.3554  142.6423  163.7682 H   0  0  0  0  0  0  0  0  0  0  0  0
  152.5319  141.1941  157.9202 H   0  0  0  0  0  0  0  0  0  0  0  0
  150.9506  141.6147  156.8236 H   0  0  0  0  0  0  0  0  0  0  0  0
  148.5804  140.2107  156.5525 H   0  0  0  0  0  0  0  0  0  0  0  0
  150.5830  139.4572  154.3640 H   0  0  0  0  0  0  0  0  0  0  0  0
  149.8523  138.3529  155.5035 H   0  0  0  0  0  0  0  0  0  0  0  0
  148.7044  138.2737  153.2907 H   0  0  0  0  0  0  0  0  0  0  0  0
  147.6130  138.7681  154.5623 H   0  0  0  0  0  0  0  0  0  0  0  0
  149.0004  140.6173  152.5607 H   0  0  0  0  0  0  0  0  0  0  0  0
  147.2981  140.2226  152.5897 H   0  0  0  0  0  0  0  0  0  0  0  0
  147.7416  142.4574  153.6268 H   0  0  0  0  0  0  0  0  0  0  0  0
  147.0176  141.3518  154.7700 H   0  0  0  0  0  0  0  0  0  0  0  0
  148.8914  142.5494  155.8421 H   0  0  0  0  0  0  0  0  0  0  0  0
  149.9842  142.0572  154.5703 H   0  0  0  0  0  0  0  0  0  0  0  0
  1  2  2  0  0  0  0
  2  3  1  0  0  0  0
  2 15  1  0  0  0  0
  3  4  1  0  0  0  0
  3 25  1  0  0  0  0
  3 26  1  0  0  0  0
  4 13  1  0  0  0  0
  4  5  1  0  0  0  0
  5  6  2  0  0  0  0
  5 27  1  0  0  0  0
  6  7  1  0  0  0  0
  6 11  1  0  0  0  0
  7  8  1  0  0  0  0
  7  9  1  0  0  0  0
  7 10  1  0  0  0  0
 11 12  2  0  0  0  0
 11 28  1  0  0  0  0
 12 13  1  0  0  0  0
 12 29  1  0  0  0  0
 13 14  2  0  0  0  0
 15 16  1  0  0  0  0
 15 30  1  0  0  0  0
 16 17  2  0  0  0  0
 16 18  1  0  0  0  0
 18 19  1  0  0  0  0
 18 31  1  0  0  0  0
 19 24  1  0  0  0  0
 19 20  1  0  0  0  0
 19 32  1  0  0  0  0
 20 21  1  0  0  0  0
 20 33  1  0  0  0  0
 20 34  1  0  0  0  0
 21 22  1  0  0  0  0
 21 35  1  0  0  0  0
 21 36  1  0  0  0  0
 22 23  1  0  0  0  0
 22 37  1  0  0  0  0
 22 38  1  0  0  0  0
 23 24  1  0  0  0  0
 23 39  1  0  0  0  0
 23 40  1  0  0  0  0
 24 41  1  0  0  0  0
 24 42  1  0  0  0  0
M  END
> <s_m_source_file>
AV-unprocessed.smi

> <i_m_source_file_index>
2606

> <i_lp_mmshare_version>
43012

> <i_f3d_flags>
0

> <s_epik_input>
Tz1jMVtjSF1bY0hdYyhDKEYpKEYpRilbY0hdbjFbQ0gyXUMoPU8pW05IXUMoPU8pW05IXVtDSF0yW0NIMl1bQ0gyXVtDSDJdW0NIMl1bQ0gyXTI=

> <s_epik_cmdline>
J2VwaWtfcHl0aG9uJywgJy1waCcsICc3LjAnLCAnLXRuJywgJzgnLCAnLW1hJywgJzIwMCcsICctbWV0YWxfYmluZGluZycsICctaW1hZScsICc8aW5maWxlLm1hZT4nLCAnLW9tYWUnLCAnPG91dGZpbGUubWFlPic=

> <r_lp_tautomer_probability>
1

> <r_epik_Ionization_Penalty>
3.27177e-05

> <r_epik_Ionization_Penalty_Charging>
1.42456e-08

> <r_epik_Ionization_Penalty_Neutral>
3.27035e-05

> <r_epik_State_Penalty>
-0

> <r_epik_Charging_Adjusted_Penalty>
1.42456e-08

> <i_epik_Tot_Q>
0

> <i_epik_Tot_abs_Q>
0

> <r_epik_Metal_State_Penalty>
-0

> <b_epik_Metal_Only>
0

> <s_lp_Force_Field>
OPLS_2005

> <r_lp_Energy>
22.0809

> <b_lp_Chiralities_Consistent>
1

> <s_lp_Variant>
AV-unprocessed.smi:2606-1

> <Gold.Version>
5.8.1

> <Gold.Id.Protein>
6NUR|6NUR_protein|mol2

> <Gold.PLP.Fitness>
51.2297

> <Gold.PLP.PLP>
-53.2242

> <Gold.PLP.part.hbond>
-0.3169

> <Gold.PLP.part.metal>
0.0000

> <Gold.PLP.part.buried>
-0.0405

> <Gold.PLP.part.nonpolar>
-52.8857

> <Gold.PLP.part.repulsive>
0.1450

> <Gold.PLP.ligand.clash>
1.2302

> <Gold.PLP.ligand.torsion>
0.4148

> <Gold.PLP.Chemscore.Hbond>
0.0000

> <Gold.PLP.Chemscore.CHOScore>
0.0000

> <Gold.PLP.Chemscore.Metal>
0.0000

> <Gold.PLP.Chemscore.Internal.Correction>
0.0654

> <Gold.Rescore>
     Score         DG    S(hbond)    S(metal)    S(lipo)     H(rot)  DE(clash)    DE(int)     intcor
      8.78     -13.58       0.00        0.00     105.32       1.65       1.56       3.25       ----

> <Gold.Chemscore.Fitness>
8.7782

> <Gold.Chemscore.DG>
-13.5812

> <Gold.Chemscore.ZeroCoef>
-5.4800

> <Gold.Chemscore.Hbond>
0.0000

> <Gold.Chemscore.Metal>
0.0000

> <Gold.Chemscore.Lipo>
105.3234

> <Gold.Chemscore.Internal_Hbond>
0.0000

> <Gold.Chemscore.DEClash>
1.5563

> <Gold.Chemscore.DEInternal>
3.2467

> <Gold.Chemscore.Rot>
1.6491

> <Gold.Chemscore.Internal.Correction>
   9.000000E+99

> <Gold.Chemscore.Hbond.Weighted>
-0.0000

> <Gold.Chemscore.Metal.Weighted>
-0.0000

> <Gold.Chemscore.Lipo.Weighted>
-12.3228

> <Gold.Chemscore.Internal_Hbond.Weighted>
0.0000

> <Gold.Chemscore.DEClash.Weighted>
1.5563

> <Gold.Chemscore.DEInternal.Weighted>
3.2467

> <Gold.Chemscore.Rot.Weighted>
4.2216

> <Gold.Chemscore.Internal.Correction.Weighted>
   9.000000E+99

> <Gold.Protein.RotatedTorsions>
[ 6907 6896 6895 6894 ] final   86.95 input  -60.11 | X-H torsion
[ 7974 7965 7964 7962 ] final   53.01 input  175.53 | X-H torsion
[ 8008 7997 7996 7995 ] final   95.44 input   59.86 | X-H torsion
[ 10167 10162 10161 10158 ] final -161.84 input  -65.29 | X-H torsion
[ 10718 10713 10712 10709 ] final  -54.76 input   66.30 | X-H torsion
[ 10763 10752 10751 10750 ] final -120.28 input  -60.55 | X-H torsion
[ 11005 11000 10999 10996 ] final  -16.16 input  -57.11 | X-H torsion

> <Gold.Protein.ActiveResidues>
 VAL166  LYS551  ARG553  GLY616  TRP617  ASP618  TYR619  PRO620  LYS621  CYS622 
 ASP623  PHE694  ASN695  SER759  ASP760  ASP761  ALA762  ILE779  LEU786  VAL792 
 PHE793  MET794  SER795  GLU796  ALA797  LYS798  CYS799  TRP800  GLU811  SER814 

> <Gold.Protein.RotatedAtoms>
  152.5403  134.2352  159.8840 H   0  0  0  0  0  0  0  0  0  0  0  0  # atno 6907 bound_to 6896
  151.2322  133.4437  159.2612 H   0  0  0  0  0  0  0  0  0  0  0  0  # atno 6908 bound_to 6896
  151.0705  134.9809  159.8362 H   0  0  0  0  0  0  0  0  0  0  0  0  # atno 6909 bound_to 6896
  145.9755  139.4190  143.0164 H   0  0  0  0  0  0  0  0  0  0  0  0  # atno 7974 bound_to 7965
  156.0689  140.3286  155.7551 H   0  0  0  0  0  0  0  0  0  0  0  0  # atno 8008 bound_to 7997
  155.5337  140.0595  157.2901 H   0  0  0  0  0  0  0  0  0  0  0  0  # atno 8009 bound_to 7997
  154.4519  140.1923  156.0510 H   0  0  0  0  0  0  0  0  0  0  0  0  # atno 8010 bound_to 7997
  139.6436  144.0214  152.2110 H   0  0  0  0  0  0  0  0  0  0  0  0  # atno 10167 bound_to 10162
  156.1424  130.4154  150.0080 H   0  0  0  0  0  0  0  0  0  0  0  0  # atno 10718 bound_to 10713
  154.8640  135.4208  154.2434 H   0  0  0  0  0  0  0  0  0  0  0  0  # atno 10763 bound_to 10752
  153.3395  135.6993  153.6885 H   0  0  0  0  0  0  0  0  0  0  0  0  # atno 10764 bound_to 10752
  153.5869  135.3562  155.2869 H   0  0  0  0  0  0  0  0  0  0  0  0  # atno 10765 bound_to 10752
  140.8040  133.8192  155.9498 H   0  0  0  0  0  0  0  0  0  0  0  0  # atno 11005 bound_to 11000
  145.7845  140.9842  143.1081 LP  0  0  0  0  0  0  0  0  0  0  0  0  # atno 17320 bound_to 7965
  144.6847  139.9606  143.7480 LP  0  0  0  0  0  0  0  0  0  0  0  0  # atno 17321 bound_to 7965
  139.9910  144.6361  150.7814 LP  0  0  0  0  0  0  0  0  0  0  0  0  # atno 17342 bound_to 10162
  140.7503  143.2953  151.3220 LP  0  0  0  0  0  0  0  0  0  0  0  0  # atno 17343 bound_to 10162
  156.7962  130.9274  151.3646 LP  0  0  0  0  0  0  0  0  0  0  0  0  # atno 17370 bound_to 10713
  157.6587  130.8947  149.9784 LP  0  0  0  0  0  0  0  0  0  0  0  0  # atno 17371 bound_to 10713
  140.9266  134.2075  157.4892 LP  0  0  0  0  0  0  0  0  0  0  0  0  # atno 17394 bound_to 11000
  139.8719  134.9815  156.5118 LP  0  0  0  0  0  0  0  0  0  0  0  0  # atno 17395 bound_to 11000

$$$$
