AV-unprocessed.smi:3145|AV-procd|sdf|11982|dock2
  -GOLD-   2272017383D 1   1.00000     0.00000
 Structure written by MMmdl.
 34 34  0  0  0  0  0  0  0  0  1 V2000
  147.0210  142.0317  155.0772 C   0  0  0  0  0  0  0  0  0  0  0  0
  148.2418  141.1625  155.4101 C   0  0  1  0  0  0  0  0  0  0  0  0
  148.7442  140.4110  154.1567 C   0  0  0  0  0  0  0  0  0  0  0  0
  149.8445  139.5038  154.4331 N   0  0  0  0  0  0  0  0  0  0  0  0
  149.8816  138.1338  154.2800 C   0  0  0  0  0  0  0  0  0  0  0  0
  151.1208  137.7145  154.6711 C   0  0  0  0  0  0  0  0  0  0  0  0
  151.7814  138.9172  155.0471 C   0  0  0  0  0  0  0  0  0  0  0  0
  151.0158  139.9867  154.9037 N   0  0  0  0  0  0  0  0  0  0  0  0
  149.2829  142.0490  155.9203 N   0  0  0  0  0  0  0  0  0  0  0  0
  149.5005  141.8857  157.3632 C   0  0  0  0  0  0  0  0  0  0  0  0
  150.8415  142.4739  157.7914 C   0  0  0  0  0  0  0  0  0  0  0  0
  151.4651  143.2140  157.0312 O   0  0  0  0  0  0  0  0  0  0  0  0
  151.2708  142.1376  159.0161 N   0  0  0  0  0  0  0  0  0  0  0  0
  152.5221  142.5910  159.6065 C   0  0  0  0  0  0  0  0  0  0  0  0
  152.6754  144.1099  159.4644 C   0  0  0  0  0  0  0  0  0  0  0  0
  151.4575  144.8522  159.8251 C   0  0  0  0  0  0  0  0  0  0  0  0
  150.4999  145.4359  160.1094 N   0  0  0  0  0  0  0  0  0  0  0  0
  146.1999  141.4223  154.6987 H   0  0  0  0  0  0  0  0  0  0  0  0
  147.2558  142.7785  154.3176 H   0  0  0  0  0  0  0  0  0  0  0  0
  146.6566  142.5567  155.9609 H   0  0  0  0  0  0  0  0  0  0  0  0
  147.9349  140.4455  156.1742 H   0  0  0  0  0  0  0  0  0  0  0  0
  147.9324  139.8196  153.7315 H   0  0  0  0  0  0  0  0  0  0  0  0
  149.0472  141.1165  153.3806 H   0  0  0  0  0  0  0  0  0  0  0  0
  149.0311  137.5781  153.9134 H   0  0  0  0  0  0  0  0  0  0  0  0
  151.4992  136.7031  154.6852 H   0  0  0  0  0  0  0  0  0  0  0  0
  152.7882  139.0434  155.4158 H   0  0  0  0  0  0  0  0  0  0  0  0
  149.0482  143.0060  155.6982 H   0  0  0  0  0  0  0  0  0  0  0  0
  148.6901  142.3682  157.9114 H   0  0  0  0  0  0  0  0  0  0  0  0
  149.4889  140.8315  157.6396 H   0  0  0  0  0  0  0  0  0  0  0  0
  150.6923  141.5204  159.5688 H   0  0  0  0  0  0  0  0  0  0  0  0
  152.5371  142.3195  160.6629 H   0  0  0  0  0  0  0  0  0  0  0  0
  153.3619  142.0818  159.1313 H   0  0  0  0  0  0  0  0  0  0  0  0
  153.4953  144.4741  160.0841 H   0  0  0  0  0  0  0  0  0  0  0  0
  152.9165  144.3638  158.4321 H   0  0  0  0  0  0  0  0  0  0  0  0
  1  2  1  0  0  0  0
  1 18  1  0  0  0  0
  1 19  1  0  0  0  0
  1 20  1  0  0  0  0
  2  3  1  0  0  0  0
  2  9  1  0  0  0  0
  2 21  1  0  0  0  0
  3  4  1  0  0  0  0
  3 22  1  0  0  0  0
  3 23  1  0  0  0  0
  4  8  1  0  0  0  0
  4  5  1  0  0  0  0
  5  6  2  0  0  0  0
  5 24  1  0  0  0  0
  6  7  1  0  0  0  0
  6 25  1  0  0  0  0
  7  8  2  0  0  0  0
  7 26  1  0  0  0  0
  9 10  1  0  0  0  0
  9 27  1  0  0  0  0
 10 11  1  0  0  0  0
 10 28  1  0  0  0  0
 10 29  1  0  0  0  0
 11 12  2  0  0  0  0
 11 13  1  0  0  0  0
 13 14  1  0  0  0  0
 13 30  1  0  0  0  0
 14 15  1  0  0  0  0
 14 31  1  0  0  0  0
 14 32  1  0  0  0  0
 15 16  1  0  0  0  0
 15 33  1  0  0  0  0
 15 34  1  0  0  0  0
 16 17  3  0  0  0  0
M  END
> <s_m_source_file>
AV-unprocessed.smi

> <i_m_source_file_index>
3145

> <i_lp_mmshare_version>
43012

> <i_f3d_flags>
0

> <s_epik_input>
bjFbY0hdW2NIXVtjSF1uMVtDSDJdW0NAQEhdKFtDSDNdKVtOSF1bQ0gyXUMoPU8pW05IXVtDSDJdW0NIMl1DI04=

> <s_epik_cmdline>
J2VwaWtfcHl0aG9uJywgJy1waCcsICc3LjAnLCAnLXRuJywgJzgnLCAnLW1hJywgJzIwMCcsICctbWV0YWxfYmluZGluZycsICctaW1hZScsICc8aW5maWxlLm1hZT4nLCAnLW9tYWUnLCAnPG91dGZpbGUubWFlPic=

> <r_lp_tautomer_probability>
1

> <r_epik_Ionization_Penalty>
0.765991

> <r_epik_Ionization_Penalty_Charging>
0

> <r_epik_Ionization_Penalty_Neutral>
0.765991

> <r_epik_State_Penalty>
0.794192

> <r_epik_Charging_Adjusted_Penalty>
0.794192

> <i_epik_Tot_Q>
0

> <i_epik_Tot_abs_Q>
0

> <r_epik_Metal_State_Penalty>
0.806127

> <b_epik_Metal_Only>
0

> <s_lp_Force_Field>
OPLS_2005

> <r_lp_Energy>
5.51507

> <b_lp_Chiralities_Consistent>
1

> <s_lp_Variant>
AV-unprocessed.smi:3145-4

> <Gold.Version>
5.8.1

> <Gold.Id.Protein>
6NUR|6NUR_protein|mol2

> <Gold.PLP.Fitness>
44.1462

> <Gold.PLP.PLP>
-37.0083

> <Gold.PLP.part.hbond>
-3.0000

> <Gold.PLP.part.metal>
0.0000

> <Gold.PLP.part.buried>
-2.5059

> <Gold.PLP.part.nonpolar>
-31.6296

> <Gold.PLP.part.repulsive>
0.9977

> <Gold.PLP.ligand.clash>
0.0000

> <Gold.PLP.ligand.torsion>
1.0428

> <Gold.PLP.Chemscore.Hbond>
2.0000

> <Gold.PLP.Chemscore.CHOScore>
1.0000

> <Gold.PLP.Chemscore.Metal>
0.0000

> <Gold.Chemscore.Hbonds>
donor molecule, donor type, donor heavy atom, donor atom, acceptor molecule, acceptor atom, score
      L1  H     9    27       P1  8028  1.00
      P1  H  7989  7998       L1     8  1.00
      L1  C     5    24       P1  7948  0.90

> <Gold.PLP.Chemscore.Internal.Correction>
0.2235

> <Gold.Rescore>
     Score         DG    S(hbond)    S(metal)    S(lipo)     H(rot)  DE(clash)    DE(int)     intcor
      8.30     -11.28       1.54        0.00      66.81       2.80       0.33       2.64       ----

> <Gold.Chemscore.Fitness>
8.2982

> <Gold.Chemscore.DG>
-11.2761

> <Gold.Chemscore.ZeroCoef>
-5.4800

> <Gold.Chemscore.Hbond>
1.5417

> <Gold.Chemscore.Metal>
0.0000

> <Gold.Chemscore.Lipo>
66.8058

> <Gold.Chemscore.Internal_Hbond>
0.0000

> <Gold.Chemscore.DEClash>
0.3348

> <Gold.Chemscore.DEInternal>
2.6430

> <Gold.Chemscore.Rot>
2.8006

> <Gold.Chemscore.Internal.Correction>
   9.000000E+99

> <Gold.Chemscore.Hbonds>
donor molecule, donor type, donor heavy atom, donor atom, acceptor molecule, acceptor atom, score
      L1  H     9    27       P1  8028  1.00
      P1  H  7989  7998       L1     8  0.21

> <Gold.Chemscore.Hbond.Weighted>
-5.1494

> <Gold.Chemscore.Metal.Weighted>
-0.0000

> <Gold.Chemscore.Lipo.Weighted>
-7.8163

> <Gold.Chemscore.Internal_Hbond.Weighted>
0.0000

> <Gold.Chemscore.DEClash.Weighted>
0.3348

> <Gold.Chemscore.DEInternal.Weighted>
2.6430

> <Gold.Chemscore.Rot.Weighted>
7.1696

> <Gold.Chemscore.Internal.Correction.Weighted>
   9.000000E+99

> <Gold.Protein.RotatedTorsions>
[ 6907 6896 6895 6894 ] final -146.59 input  -60.11 | X-H torsion
[ 7974 7965 7964 7962 ] final  -32.16 input  175.53 | X-H torsion
[ 8008 7997 7996 7995 ] final -149.76 input   59.86 | X-H torsion
[ 10167 10162 10161 10158 ] final  -81.52 input  -65.29 | X-H torsion
[ 10718 10713 10712 10709 ] final   58.84 input   66.30 | X-H torsion
[ 10763 10752 10751 10750 ] final   46.21 input  -60.55 | X-H torsion
[ 11005 11000 10999 10996 ] final   64.06 input  -57.11 | X-H torsion

> <Gold.Protein.ActiveResidues>
 VAL166  LYS551  ARG553  GLY616  TRP617  ASP618  TYR619  PRO620  LYS621  CYS622 
 ASP623  PHE694  ASN695  SER759  ASP760  ASP761  ALA762  ILE779  LEU786  VAL792 
 PHE793  MET794  SER795  GLU796  ALA797  LYS798  CYS799  TRP800  GLU811  SER814 

> <Gold.Protein.RotatedAtoms>
  151.1437  133.4954  159.2596 H   0  0  0  0  0  0  0  0  0  0  0  0  # atno 6907 bound_to 6896
  151.1627  135.0280  159.8727 H   0  0  0  0  0  0  0  0  0  0  0  0  # atno 6908 bound_to 6896
  152.5463  134.1310  159.8492 H   0  0  0  0  0  0  0  0  0  0  0  0  # atno 6909 bound_to 6896
  146.1012  140.5757  142.8820 H   0  0  0  0  0  0  0  0  0  0  0  0  # atno 7974 bound_to 7965
  155.6127  140.0673  157.2701 H   0  0  0  0  0  0  0  0  0  0  0  0  # atno 8008 bound_to 7997
  154.4249  140.1798  156.1337 H   0  0  0  0  0  0  0  0  0  0  0  0  # atno 8009 bound_to 7997
  156.0072  140.3330  155.6907 H   0  0  0  0  0  0  0  0  0  0  0  0  # atno 8010 bound_to 7997
  140.4405  143.2516  151.8633 H   0  0  0  0  0  0  0  0  0  0  0  0  # atno 10167 bound_to 10162
  157.5629  130.8849  149.9139 H   0  0  0  0  0  0  0  0  0  0  0  0  # atno 10718 bound_to 10713
  152.9814  135.6015  154.3563 H   0  0  0  0  0  0  0  0  0  0  0  0  # atno 10763 bound_to 10752
  154.3248  135.2769  155.2503 H   0  0  0  0  0  0  0  0  0  0  0  0  # atno 10764 bound_to 10752
  154.4653  135.5955  153.6340 H   0  0  0  0  0  0  0  0  0  0  0  0  # atno 10765 bound_to 10752
  139.9983  134.6482  155.9972 H   0  0  0  0  0  0  0  0  0  0  0  0  # atno 11005 bound_to 11000
  144.7434  140.5003  143.6853 LP  0  0  0  0  0  0  0  0  0  0  0  0  # atno 17320 bound_to 7965
  145.5851  139.1491  143.3213 LP  0  0  0  0  0  0  0  0  0  0  0  0  # atno 17321 bound_to 7965
  139.4789  144.5235  151.8768 LP  0  0  0  0  0  0  0  0  0  0  0  0  # atno 17342 bound_to 10162
  140.4324  144.2097  150.5888 LP  0  0  0  0  0  0  0  0  0  0  0  0  # atno 17343 bound_to 10162
  156.0679  130.3689  150.0838 LP  0  0  0  0  0  0  0  0  0  0  0  0  # atno 17370 bound_to 10713
  156.9000  130.9617  151.3577 LP  0  0  0  0  0  0  0  0  0  0  0  0  # atno 17371 bound_to 10713
  141.1622  133.6538  156.4358 LP  0  0  0  0  0  0  0  0  0  0  0  0  # atno 17394 bound_to 11000
  140.4775  134.6695  157.5156 LP  0  0  0  0  0  0  0  0  0  0  0  0  # atno 17395 bound_to 11000

$$$$
