AV-unprocessed.smi:1703|AV-procd|sdf|6878|dock1
  -GOLD-   22720 8 83D 1   1.00000     0.00000
 Structure written by MMmdl.
 50 52  0  0  0  0  0  0  0  0  3 V2000
  149.2846  136.1867  158.2494 C   0  0  0  0  0  0  0  0  0  0  0  0
  148.7146  136.3348  156.8270 C   0  0  1  0  0  0  0  0  0  0  0  0
  149.2947  137.5360  156.0546 C   0  0  0  0  0  0  0  0  0  0  0  0
  150.6897  137.2717  155.6305 N   0  3  2  0  0  0  0  0  0  0  0  0
  151.3159  138.4396  154.9599 C   0  0  0  0  0  0  0  0  0  0  0  0
  152.2740  139.2080  155.8913 C   0  0  2  0  0  0  0  0  0  0  0  0
  153.3268  138.3450  156.2774 O   0  0  0  0  0  0  0  0  0  0  0  0
  151.5552  139.7352  157.1488 C   0  0  0  0  0  0  0  0  0  0  0  0
  151.2820  141.1809  157.0813 N   0  0  0  0  0  0  0  0  0  0  0  0
  150.5619  141.8923  156.1658 C   0  0  0  0  0  0  0  0  0  0  0  0
  149.8534  141.3450  154.9673 C   0  0  0  0  0  0  0  0  0  0  0  0
  149.1230  142.3228  154.2575 O   0  0  0  0  0  0  0  0  0  0  0  0
  150.6219  143.2032  156.5373 N   0  3  0  0  0  0  0  0  0  0  0  0
  151.3803  143.3324  157.7006 C   0  0  0  0  0  0  0  0  0  0  0  0
  151.7166  144.4583  158.4459 C   0  0  0  0  0  0  0  0  0  0  0  0
  152.5142  144.2454  159.5889 C   0  0  0  0  0  0  0  0  0  0  0  0
  152.9471  142.9534  159.9509 C   0  0  0  0  0  0  0  0  0  0  0  0
  152.6005  141.8195  159.1864 C   0  0  0  0  0  0  0  0  0  0  0  0
  151.8087  142.0372  158.0580 C   0  0  0  0  0  0  0  0  0  0  0  0
  150.7574  136.0197  154.8393 C   0  0  0  0  0  0  0  0  0  0  0  0
  150.1943  134.8426  155.6564 C   0  0  2  0  0  0  0  0  0  0  0  0
  150.1631  133.5419  154.8464 C   0  0  0  0  0  0  0  0  0  0  0  0
  148.8596  135.1399  156.0588 O   0  0  0  0  0  0  0  0  0  0  0  0
  149.0378  137.0579  158.8569 H   0  0  0  0  0  0  0  0  0  0  0  0
  150.3697  136.0875  158.2534 H   0  0  0  0  0  0  0  0  0  0  0  0
  148.8666  135.3114  158.7469 H   0  0  0  0  0  0  0  0  0  0  0  0
  147.6412  136.4958  156.9335 H   0  0  0  0  0  0  0  0  0  0  0  0
  148.6862  137.7357  155.1711 H   0  0  0  0  0  0  0  0  0  0  0  0
  149.2525  138.4310  156.6768 H   0  0  0  0  0  0  0  0  0  0  0  0
  151.8387  138.1024  154.0632 H   0  0  0  0  0  0  0  0  0  0  0  0
  150.5409  139.1276  154.6180 H   0  0  0  0  0  0  0  0  0  0  0  0
  152.7109  140.0553  155.3638 H   0  0  0  0  0  0  0  0  0  0  0  0
  153.1088  137.4636  156.0149 H   0  0  0  0  0  0  0  0  0  0  0  0
  150.5962  139.2301  157.2670 H   0  0  0  0  0  0  0  0  0  0  0  0
  152.1219  139.5119  158.0527 H   0  0  0  0  0  0  0  0  0  0  0  0
  150.5872  140.8965  154.2973 H   0  0  0  0  0  0  0  0  0  0  0  0
  149.1683  140.5551  155.2749 H   0  0  0  0  0  0  0  0  0  0  0  0
  148.9887  143.0686  154.8229 H   0  0  0  0  0  0  0  0  0  0  0  0
  151.3877  145.4493  158.1689 H   0  0  0  0  0  0  0  0  0  0  0  0
  152.8004  145.0902  160.1989 H   0  0  0  0  0  0  0  0  0  0  0  0
  153.5585  142.8292  160.8332 H   0  0  0  0  0  0  0  0  0  0  0  0
  152.9431  140.8378  159.4759 H   0  0  0  0  0  0  0  0  0  0  0  0
  150.1928  136.1420  153.9133 H   0  0  0  0  0  0  0  0  0  0  0  0
  151.7869  135.8020  154.5567 H   0  0  0  0  0  0  0  0  0  0  0  0
  150.8169  134.6760  156.5359 H   0  0  0  0  0  0  0  0  0  0  0  0
  151.1635  133.2591  154.5179 H   0  0  0  0  0  0  0  0  0  0  0  0
  149.5354  133.6424  153.9605 H   0  0  0  0  0  0  0  0  0  0  0  0
  149.7662  132.7208  155.4441 H   0  0  0  0  0  0  0  0  0  0  0  0
  151.2169  137.1164  156.4784 H   0  0  0  0  0  0  0  0  0  0  0  0
  150.1762  143.9536  156.0245 H   0  0  0  0  0  0  0  0  0  0  0  0
  1  2  1  0  0  0  0
  1 24  1  0  0  0  0
  1 25  1  0  0  0  0
  1 26  1  0  0  0  0
  2 23  1  0  0  0  0
  2  3  1  0  0  0  0
  2 27  1  0  0  0  0
  3  4  1  0  0  0  0
  3 28  1  0  0  0  0
  3 29  1  0  0  0  0
  4  5  1  0  0  0  0
  4 20  1  0  0  0  0
  4 49  1  0  0  0  0
  5  6  1  0  0  0  0
  5 30  1  0  0  0  0
  5 31  1  0  0  0  0
  6  7  1  0  0  0  0
  6  8  1  0  0  0  0
  6 32  1  0  0  0  0
  7 33  1  0  0  0  0
  8  9  1  0  0  0  0
  8 34  1  0  0  0  0
  8 35  1  0  0  0  0
  9 19  1  0  0  0  0
  9 10  1  0  0  0  0
 10 11  1  0  0  0  0
 10 13  2  0  0  0  0
 11 12  1  0  0  0  0
 11 36  1  0  0  0  0
 11 37  1  0  0  0  0
 12 38  1  0  0  0  0
 13 14  1  0  0  0  0
 13 50  1  0  0  0  0
 14 19  2  0  0  0  0
 14 15  1  0  0  0  0
 15 16  2  0  0  0  0
 15 39  1  0  0  0  0
 16 17  1  0  0  0  0
 16 40  1  0  0  0  0
 17 18  2  0  0  0  0
 17 41  1  0  0  0  0
 18 19  1  0  0  0  0
 18 42  1  0  0  0  0
 20 21  1  0  0  0  0
 20 43  1  0  0  0  0
 20 44  1  0  0  0  0
 21 22  1  0  0  0  0
 21 23  1  0  0  0  0
 21 45  1  0  0  0  0
 22 46  1  0  0  0  0
 22 47  1  0  0  0  0
 22 48  1  0  0  0  0
M  CHG  1   4   1
M  CHG  1  13   1
M  END
> <s_m_source_file>
AV-unprocessed.smi

> <i_m_source_file_index>
1703

> <i_lp_mmshare_version>
43012

> <i_f3d_flags>
0

> <s_epik_input>
W0NIM11bQ0BASF0xW0NIMl1OKFtDSDJdW0NASF0oTzEpW0NIM10pW0NIMl1bQ0BIXShbT0hdKVtDSDJdbihjKG4yKVtDSDJdW09IXSljKGMyMylbY0hdW2NIXVtjSF1bY0hdMw==

> <s_epik_cmdline>
J2VwaWtfcHl0aG9uJywgJy1waCcsICc3LjAnLCAnLXRuJywgJzgnLCAnLW1hJywgJzIwMCcsICctbWV0YWxfYmluZGluZycsICctaW1hZScsICc8aW5maWxlLm1hZT4nLCAnLW9tYWUnLCAnPG91dGZpbGUubWFlPic=

> <r_epik_Ionization_Penalty>
2.22579

> <r_epik_Ionization_Penalty_Charging>
2.22492

> <r_epik_Ionization_Penalty_Neutral>
0.000870007

> <r_epik_State_Penalty>
2.3141

> <r_epik_Charging_Adjusted_Penalty>
4.53902

> <i_epik_Tot_Q>
2

> <i_epik_Tot_abs_Q>
2

> <r_epik_Metal_State_Penalty>
6.36517

> <b_epik_Metal_Only>
0

> <s_lp_Force_Field>
OPLS_2005

> <r_lp_Energy>
31.039

> <b_lp_Chiralities_Consistent>
1

> <s_lp_Variant>
AV-unprocessed.smi:1703-26

> <Gold.Version>
5.8.1

> <Gold.Id.Protein>
6NUR|6NUR_protein|mol2

> <Gold.PLP.Fitness>
53.2736

> <Gold.PLP.PLP>
-45.5245

> <Gold.PLP.part.hbond>
-3.7475

> <Gold.PLP.part.metal>
0.0000

> <Gold.PLP.part.buried>
-4.3294

> <Gold.PLP.part.nonpolar>
-36.6155

> <Gold.PLP.part.repulsive>
0.1525

> <Gold.PLP.ligand.clash>
0.0000

> <Gold.PLP.ligand.torsion>
1.2886

> <Gold.PLP.Chemscore.Hbond>
3.4138

> <Gold.PLP.Chemscore.CHOScore>
0.0000

> <Gold.PLP.Chemscore.Metal>
0.0000

> <Gold.Chemscore.Hbonds>
donor molecule, donor type, donor heavy atom, donor atom, acceptor molecule, acceptor atom, score
      L1  H    12    38       P1  8028  1.00
      L1  H    13    50       P1  8028  2.00
      P1  H  7997  8008       L1     7  0.27
      P1  H  8011  8017       L1    12  0.21

> <Gold.PLP.Chemscore.Internal.Correction>
0.0848

> <Gold.Rescore>
     Score         DG    S(hbond)    S(metal)    S(lipo)     H(rot)  DE(clash)    DE(int)     intcor
     17.33     -18.59       2.14        0.00     117.31       3.04       0.09       1.17       ----

> <Gold.Chemscore.Fitness>
17.3268

> <Gold.Chemscore.DG>
-18.5865

> <Gold.Chemscore.ZeroCoef>
-5.4800

> <Gold.Chemscore.Hbond>
2.1431

> <Gold.Chemscore.Metal>
0.0000

> <Gold.Chemscore.Lipo>
117.3092

> <Gold.Chemscore.Internal_Hbond>
0.0000

> <Gold.Chemscore.DEClash>
0.0880

> <Gold.Chemscore.DEInternal>
1.1717

> <Gold.Chemscore.Rot>
3.0378

> <Gold.Chemscore.Internal.Correction>
   9.000000E+99

> <Gold.Chemscore.Hbonds>
donor molecule, donor type, donor heavy atom, donor atom, acceptor molecule, acceptor atom, score
      L1  H    12    38       P1  8028  1.00
      L1  H    13    50       P1  8028  0.88
      P1  H  7997  8008       L1     7  0.01
      P1  H  8011  8017       L1    12  0.15

> <Gold.Chemscore.Hbond.Weighted>
-7.1580

> <Gold.Chemscore.Metal.Weighted>
-0.0000

> <Gold.Chemscore.Lipo.Weighted>
-13.7252

> <Gold.Chemscore.Internal_Hbond.Weighted>
0.0000

> <Gold.Chemscore.DEClash.Weighted>
0.0880

> <Gold.Chemscore.DEInternal.Weighted>
1.1717

> <Gold.Chemscore.Rot.Weighted>
7.7767

> <Gold.Chemscore.Internal.Correction.Weighted>
   9.000000E+99

> <Gold.Protein.RotatedTorsions>
[ 6907 6896 6895 6894 ] final -135.62 input  -60.11 | X-H torsion
[ 7974 7965 7964 7962 ] final  -57.31 input  175.53 | X-H torsion
[ 8008 7997 7996 7995 ] final  -71.26 input   59.86 | X-H torsion
[ 10167 10162 10161 10158 ] final   43.81 input  -65.29 | X-H torsion
[ 10718 10713 10712 10709 ] final -145.48 input   66.30 | X-H torsion
[ 10763 10752 10751 10750 ] final  -95.91 input  -60.55 | X-H torsion
[ 11005 11000 10999 10996 ] final -135.12 input  -57.11 | X-H torsion

> <Gold.Protein.ActiveResidues>
 VAL166  LYS551  ARG553  GLY616  TRP617  ASP618  TYR619  PRO620  LYS621  CYS622 
 ASP623  PHE694  ASN695  SER759  ASP760  ASP761  ALA762  ILE779  LEU786  VAL792 
 PHE793  MET794  SER795  GLU796  ALA797  LYS798  CYS799  TRP800  GLU811  SER814 

> <Gold.Protein.RotatedAtoms>
  151.0001  133.6064  159.2695 H   0  0  0  0  0  0  0  0  0  0  0  0  # atno 6907 bound_to 6896
  151.3254  135.0828  159.9330 H   0  0  0  0  0  0  0  0  0  0  0  0  # atno 6908 bound_to 6896
  152.5271  133.9640  159.7785 H   0  0  0  0  0  0  0  0  0  0  0  0  # atno 6909 bound_to 6896
  145.8525  140.8342  142.9978 H   0  0  0  0  0  0  0  0  0  0  0  0  # atno 7974 bound_to 7965
  154.5074  140.0819  156.7922 H   0  0  0  0  0  0  0  0  0  0  0  0  # atno 8008 bound_to 7997
  155.3862  140.3430  155.4231 H   0  0  0  0  0  0  0  0  0  0  0  0  # atno 8009 bound_to 7997
  156.1532  140.1565  156.8722 H   0  0  0  0  0  0  0  0  0  0  0  0  # atno 8010 bound_to 7997
  140.3406  144.2475  150.6156 H   0  0  0  0  0  0  0  0  0  0  0  0  # atno 10167 bound_to 10162
  156.3829  130.7846  151.2041 H   0  0  0  0  0  0  0  0  0  0  0  0  # atno 10718 bound_to 10713
  154.7192  135.5103  153.8785 H   0  0  0  0  0  0  0  0  0  0  0  0  # atno 10763 bound_to 10752
  153.0847  135.6642  153.9982 H   0  0  0  0  0  0  0  0  0  0  0  0  # atno 10764 bound_to 10752
  153.9809  135.3029  155.3399 H   0  0  0  0  0  0  0  0  0  0  0  0  # atno 10765 bound_to 10752
  140.8927  134.1791  157.4516 H   0  0  0  0  0  0  0  0  0  0  0  0  # atno 11005 bound_to 11000
  144.6728  140.0975  143.7462 LP  0  0  0  0  0  0  0  0  0  0  0  0  # atno 17320 bound_to 7965
  145.9341  139.2625  143.1308 LP  0  0  0  0  0  0  0  0  0  0  0  0  # atno 17321 bound_to 7965
  140.5312  143.2243  151.8235 LP  0  0  0  0  0  0  0  0  0  0  0  0  # atno 17342 bound_to 10162
  139.4841  144.4717  151.9416 LP  0  0  0  0  0  0  0  0  0  0  0  0  # atno 17343 bound_to 10162
  157.7494  131.0338  150.4290 LP  0  0  0  0  0  0  0  0  0  0  0  0  # atno 17370 bound_to 10713
  156.4538  130.4017  149.6619 LP  0  0  0  0  0  0  0  0  0  0  0  0  # atno 17371 bound_to 10713
  139.8731  134.9865  156.5328 LP  0  0  0  0  0  0  0  0  0  0  0  0  # atno 17394 bound_to 11000
  140.8327  133.8266  155.8999 LP  0  0  0  0  0  0  0  0  0  0  0  0  # atno 17395 bound_to 11000

$$$$
