AV-unprocessed.smi:1908|AV-procd|sdf|7733|dock1
  -GOLD-   22720 9473D 1   1.00000     0.00000
 Structure written by MMmdl.
 28 28  0  0  0  0  0  0  0  0  1 V2000
  153.1507  143.7619  158.6208 C   0  0  0  0  0  0  0  0  0  0  0  0
  151.8596  144.5088  158.2620 C   0  0  0  0  0  0  0  0  0  0  0  0
  151.0683  144.9118  159.5158 C   0  0  0  0  0  0  0  0  0  0  0  0
  151.0381  143.6715  157.3927 N   0  0  0  0  0  0  0  0  0  0  0  0
  150.8187  142.3576  157.5577 C   0  0  0  0  0  0  0  0  0  0  0  0
  151.3089  141.7012  158.4775 O   0  0  0  0  0  0  0  0  0  0  0  0
  149.9326  141.6805  156.5028 C   0  0  0  0  0  0  0  0  0  0  0  0
  150.6300  140.6064  155.7818 N   0  0  0  0  0  0  0  0  0  0  0  0
  151.9089  140.2226  156.1601 C   0  0  0  0  0  0  0  0  0  0  0  0
  152.6026  139.2344  155.5471 C   0  0  0  0  0  0  0  0  0  0  0  0
  152.0173  138.5068  154.4261 C   0  0  0  0  0  0  0  0  0  0  0  0
  152.5662  137.5993  153.8053 O   0  0  0  0  0  0  0  0  0  0  0  0
  150.7287  138.9200  154.0776 N   0  0  0  0  0  0  0  0  0  0  0  0
  150.0072  139.9355  154.7069 C   0  0  0  0  0  0  0  0  0  0  0  0
  148.8728  140.2175  154.3225 O   0  0  0  0  0  0  0  0  0  0  0  0
  150.2813  138.4426  153.3087 H   0  0  0  0  0  0  0  0  0  0  0  0
  153.7973  144.3772  159.2473 H   0  0  0  0  0  0  0  0  0  0  0  0
  153.7146  143.4995  157.7250 H   0  0  0  0  0  0  0  0  0  0  0  0
  152.9401  142.8406  159.1650 H   0  0  0  0  0  0  0  0  0  0  0  0
  152.1418  145.4154  157.7236 H   0  0  0  0  0  0  0  0  0  0  0  0
  151.6705  145.5393  160.1735 H   0  0  0  0  0  0  0  0  0  0  0  0
  150.7553  144.0367  160.0863 H   0  0  0  0  0  0  0  0  0  0  0  0
  150.1728  145.4769  159.2542 H   0  0  0  0  0  0  0  0  0  0  0  0
  150.5995  144.1276  156.6057 H   0  0  0  0  0  0  0  0  0  0  0  0
  149.0223  141.2950  156.9667 H   0  0  0  0  0  0  0  0  0  0  0  0
  149.5953  142.4473  155.8039 H   0  0  0  0  0  0  0  0  0  0  0  0
  152.3802  140.7312  156.9894 H   0  0  0  0  0  0  0  0  0  0  0  0
  153.5955  138.9797  155.8886 H   0  0  0  0  0  0  0  0  0  0  0  0
  1  2  1  0  0  0  0
  1 17  1  0  0  0  0
  1 18  1  0  0  0  0
  1 19  1  0  0  0  0
  2  3  1  0  0  0  0
  2  4  1  0  0  0  0
  2 20  1  0  0  0  0
  3 21  1  0  0  0  0
  3 22  1  0  0  0  0
  3 23  1  0  0  0  0
  4  5  1  0  0  0  0
  4 24  1  0  0  0  0
  5  6  2  0  0  0  0
  5  7  1  0  0  0  0
  7  8  1  0  0  0  0
  7 25  1  0  0  0  0
  7 26  1  0  0  0  0
  8 14  1  0  0  0  0
  8  9  1  0  0  0  0
  9 10  2  0  0  0  0
  9 27  1  0  0  0  0
 10 11  1  0  0  0  0
 10 28  1  0  0  0  0
 11 12  2  0  0  0  0
 11 13  1  0  0  0  0
 13 16  1  0  0  0  0
 13 14  1  0  0  0  0
 14 15  2  0  0  0  0
M  END
> <s_m_source_file>
AV-unprocessed.smi

> <i_m_source_file_index>
1908

> <i_lp_mmshare_version>
43012

> <i_f3d_flags>
0

> <s_epik_input>
W0NIM11bQ0hdKFtDSDNdKVtOSF1DKD1PKVtDSDJdbjFbY0hdW2NIXWMoPU8pW25IXWMxPU8=

> <s_epik_cmdline>
J2VwaWtfcHl0aG9uJywgJy1waCcsICc3LjAnLCAnLXRuJywgJzgnLCAnLW1hJywgJzIwMCcsICctbWV0YWxfYmluZGluZycsICctaW1hZScsICc8aW5maWxlLm1hZT4nLCAnLW9tYWUnLCAnPG91dGZpbGUubWFlPic=

> <r_lp_tautomer_probability>
0.999537

> <r_epik_Ionization_Penalty>
0.00328918

> <r_epik_Ionization_Penalty_Charging>
0.00328916

> <r_epik_Ionization_Penalty_Neutral>
2.06703e-08

> <r_epik_State_Penalty>
0.00232387

> <r_epik_Charging_Adjusted_Penalty>
0.00561303

> <i_epik_Tot_Q>
0

> <i_epik_Tot_abs_Q>
0

> <r_epik_Metal_State_Penalty>
0.365273

> <b_epik_Metal_Only>
0

> <s_lp_Force_Field>
OPLS_2005

> <r_lp_Energy>
1.74707

> <b_lp_Chiralities_Consistent>
1

> <s_lp_Variant>
AV-unprocessed.smi:1908-1

> <Gold.Version>
5.8.1

> <Gold.Id.Protein>
6NUR|6NUR_protein|mol2

> <Gold.PLP.Fitness>
37.9651

> <Gold.PLP.PLP>
-33.5771

> <Gold.PLP.part.hbond>
-2.0000

> <Gold.PLP.part.metal>
0.0000

> <Gold.PLP.part.buried>
-5.1034

> <Gold.PLP.part.nonpolar>
-27.7933

> <Gold.PLP.part.repulsive>
0.3722

> <Gold.PLP.ligand.clash>
0.0000

> <Gold.PLP.ligand.torsion>
0.2816

> <Gold.PLP.Chemscore.Hbond>
1.6480

> <Gold.PLP.Chemscore.CHOScore>
0.0000

> <Gold.PLP.Chemscore.Metal>
0.0000

> <Gold.Chemscore.Hbonds>
donor molecule, donor type, donor heavy atom, donor atom, acceptor molecule, acceptor atom, score
      L1  H     4    24       P1  8028  0.99
      P1  H 10752 10764       L1    12  0.72

> <Gold.PLP.Chemscore.Internal.Correction>
0.0073

> <Gold.Rescore>
     Score         DG    S(hbond)    S(metal)    S(lipo)     H(rot)  DE(clash)    DE(int)     intcor
     10.99     -13.49       1.77        0.00      56.45       1.76       0.01       2.49       ----

> <Gold.Chemscore.Fitness>
10.9929

> <Gold.Chemscore.DG>
-13.4896

> <Gold.Chemscore.ZeroCoef>
-5.4800

> <Gold.Chemscore.Hbond>
1.7667

> <Gold.Chemscore.Metal>
0.0000

> <Gold.Chemscore.Lipo>
56.4501

> <Gold.Chemscore.Internal_Hbond>
0.0000

> <Gold.Chemscore.DEClash>
0.0115

> <Gold.Chemscore.DEInternal>
2.4852

> <Gold.Chemscore.Rot>
1.7562

> <Gold.Chemscore.Internal.Correction>
   9.000000E+99

> <Gold.Chemscore.Hbonds>
donor molecule, donor type, donor heavy atom, donor atom, acceptor molecule, acceptor atom, score
      L1  H     4    24       P1  8028  0.88
      P1  H 10752 10764       L1    12  0.71

> <Gold.Chemscore.Hbond.Weighted>
-5.9007

> <Gold.Chemscore.Metal.Weighted>
-0.0000

> <Gold.Chemscore.Lipo.Weighted>
-6.6047

> <Gold.Chemscore.Internal_Hbond.Weighted>
0.0000

> <Gold.Chemscore.DEClash.Weighted>
0.0115

> <Gold.Chemscore.DEInternal.Weighted>
2.4852

> <Gold.Chemscore.Rot.Weighted>
4.4958

> <Gold.Chemscore.Internal.Correction.Weighted>
   9.000000E+99

> <Gold.Protein.RotatedTorsions>
[ 6907 6896 6895 6894 ] final  -76.67 input  -60.11 | X-H torsion
[ 7974 7965 7964 7962 ] final   61.36 input  175.53 | X-H torsion
[ 8008 7997 7996 7995 ] final -146.05 input   59.86 | X-H torsion
[ 10167 10162 10161 10158 ] final -157.23 input  -65.29 | X-H torsion
[ 10718 10713 10712 10709 ] final  108.46 input   66.30 | X-H torsion
[ 10763 10752 10751 10750 ] final  -96.73 input  -60.55 | X-H torsion
[ 11005 11000 10999 10996 ] final   50.46 input  -57.11 | X-H torsion

> <Gold.Protein.ActiveResidues>
 VAL166  LYS551  ARG553  GLY616  TRP617  ASP618  TYR619  PRO620  LYS621  CYS622 
 ASP623  PHE694  ASN695  SER759  ASP760  ASP761  ALA762  ILE779  LEU786  VAL792 
 PHE793  MET794  SER795  GLU796  ALA797  LYS798  CYS799  TRP800  GLU811  SER814 

> <Gold.Protein.RotatedAtoms>
  150.7020  134.4537  159.5347 H   0  0  0  0  0  0  0  0  0  0  0  0  # atno 6907 bound_to 6896
  152.2225  134.8397  160.0493 H   0  0  0  0  0  0  0  0  0  0  0  0  # atno 6908 bound_to 6896
  151.9242  133.3558  159.3944 H   0  0  0  0  0  0  0  0  0  0  0  0  # atno 6909 bound_to 6896
  145.8857  139.3474  143.0680 H   0  0  0  0  0  0  0  0  0  0  0  0  # atno 7974 bound_to 7965
  155.5531  140.0618  157.2845 H   0  0  0  0  0  0  0  0  0  0  0  0  # atno 8008 bound_to 7997
  154.4414  140.1899  156.0751 H   0  0  0  0  0  0  0  0  0  0  0  0  # atno 8009 bound_to 7997
  156.0502  140.3285  155.7346 H   0  0  0  0  0  0  0  0  0  0  0  0  # atno 8010 bound_to 7997
  139.6787  143.9619  152.2325 H   0  0  0  0  0  0  0  0  0  0  0  0  # atno 10167 bound_to 10162
  157.6585  131.0894  150.6308 H   0  0  0  0  0  0  0  0  0  0  0  0  # atno 10718 bound_to 10713
  154.7265  135.5073  153.8895 H   0  0  0  0  0  0  0  0  0  0  0  0  # atno 10763 bound_to 10752
  153.0910  135.6659  153.9863 H   0  0  0  0  0  0  0  0  0  0  0  0  # atno 10764 bound_to 10752
  153.9674  135.3042  155.3409 H   0  0  0  0  0  0  0  0  0  0  0  0  # atno 10765 bound_to 10752
  140.1016  134.5074  155.8758 H   0  0  0  0  0  0  0  0  0  0  0  0  # atno 11005 bound_to 11000
  145.8970  140.9267  143.0522 LP  0  0  0  0  0  0  0  0  0  0  0  0  # atno 17320 bound_to 7965
  144.6728  140.0982  143.7462 LP  0  0  0  0  0  0  0  0  0  0  0  0  # atno 17321 bound_to 7965
  139.9403  144.6686  150.8273 LP  0  0  0  0  0  0  0  0  0  0  0  0  # atno 17342 bound_to 10162
  140.7644  143.3249  151.2539 LP  0  0  0  0  0  0  0  0  0  0  0  0  # atno 17343 bound_to 10162
  156.6613  130.4513  149.5687 LP  0  0  0  0  0  0  0  0  0  0  0  0  # atno 17370 bound_to 10713
  156.2065  130.6652  151.1224 LP  0  0  0  0  0  0  0  0  0  0  0  0  # atno 17371 bound_to 10713
  141.2107  133.6698  156.6528 LP  0  0  0  0  0  0  0  0  0  0  0  0  # atno 17394 bound_to 11000
  140.3213  134.8005  157.4254 LP  0  0  0  0  0  0  0  0  0  0  0  0  # atno 17395 bound_to 11000

$$$$
