AV-unprocessed.smi:261|AV-procd|sdf|1990|dock7
  -GOLD-   2262021173D 1   1.00000     0.00000
 Structure written by MMmdl.
 51 54  0  0  0  0  0  0  0  0  1 V2000
  148.2065  131.4930  153.6372 C   0  0  0  0  0  0  0  0  0  0  0  0
  148.3725  131.7841  155.0155 O   0  0  0  0  0  0  0  0  0  0  0  0
  149.7304  131.9046  155.4223 C   0  0  2  0  0  0  0  0  0  0  0  0
  149.8696  132.0498  156.9437 C   0  0  0  0  0  0  0  0  0  0  0  0
  149.6292  133.5421  157.2246 C   0  0  2  0  0  0  0  0  0  0  0  0
  148.1442  133.8295  157.5341 C   0  0  0  0  0  0  0  0  0  0  0  0
  147.5765  133.2330  158.5879 N   0  0  0  0  0  0  0  0  0  0  0  0
  147.5075  134.5877  156.8061 O   0  0  0  0  0  0  0  0  0  0  0  0
  150.1267  134.1868  156.0084 N   0  0  0  0  0  0  0  0  0  0  0  0
  150.5316  135.4843  155.9139 C   0  0  0  0  0  0  0  0  0  0  0  0
  150.8980  135.9451  154.6881 N   0  0  0  0  0  0  0  0  0  0  0  0
  151.3021  137.2070  154.5229 C   0  0  0  0  0  0  0  0  0  0  0  0
  151.4140  138.1714  155.4355 N   0  0  0  0  0  0  0  0  0  0  0  0
  151.0489  137.7244  156.6700 C   0  0  0  0  0  0  0  0  0  0  0  0
  150.5995  136.4115  156.9991 C   0  0  0  0  0  0  0  0  0  0  0  0
  150.3211  136.3517  158.3612 N   0  0  0  0  0  0  0  0  0  0  0  0
  150.5899  137.5471  158.8070 C   0  0  0  0  0  0  0  0  0  0  0  0
  151.0405  138.4333  157.8576 N   0  0  0  0  0  0  0  0  0  0  0  0
  151.4239  139.8169  158.0709 C   0  0  0  0  0  0  0  0  0  0  0  0
  152.4865  139.9878  159.1775 C   0  0  1  0  0  0  0  0  0  0  0  0
  153.6885  139.4216  158.6951 O   0  0  0  0  0  0  0  0  0  0  0  0
  152.7478  141.4531  159.5924 C   0  0  2  0  0  0  0  0  0  0  0  0
  153.4245  141.6163  160.9552 C   0  0  0  0  0  0  0  0  0  0  0  0
  153.0209  143.0146  161.3956 C   0  0  0  0  0  0  0  0  0  0  0  0
  151.8396  143.3617  160.4874 C   0  0  0  0  0  0  0  0  0  0  0  0
  151.5316  142.1536  159.8084 O   0  0  0  0  0  0  0  0  0  0  0  0
  150.2656  133.2428  154.9031 C   0  0  0  0  0  0  0  0  0  0  0  0
  150.3178  131.0733  155.0285 H   0  0  0  0  0  0  0  0  0  0  0  0
  150.2283  133.8284  158.0889 H   0  0  0  0  0  0  0  0  0  0  0  0
  147.1431  131.4359  153.4054 H   0  0  0  0  0  0  0  0  0  0  0  0
  148.6567  130.5386  153.3651 H   0  0  0  0  0  0  0  0  0  0  0  0
  148.6422  132.2755  153.0148 H   0  0  0  0  0  0  0  0  0  0  0  0
  149.2163  131.3859  157.5100 H   0  0  0  0  0  0  0  0  0  0  0  0
  150.8916  131.7982  157.2303 H   0  0  0  0  0  0  0  0  0  0  0  0
  146.6033  133.4028  158.7962 H   0  0  0  0  0  0  0  0  0  0  0  0
  148.1204  132.6073  159.1637 H   0  0  0  0  0  0  0  0  0  0  0  0
  151.5745  137.4828  153.5149 H   0  0  0  0  0  0  0  0  0  0  0  0
  150.4752  137.8122  159.8479 H   0  0  0  0  0  0  0  0  0  0  0  0
  151.7962  140.2139  157.1256 H   0  0  0  0  0  0  0  0  0  0  0  0
  150.5273  140.3876  158.3172 H   0  0  0  0  0  0  0  0  0  0  0  0
  152.1882  139.4158  160.0571 H   0  0  0  0  0  0  0  0  0  0  0  0
  154.3233  139.4222  159.3951 H   0  0  0  0  0  0  0  0  0  0  0  0
  153.3282  141.9698  158.8253 H   0  0  0  0  0  0  0  0  0  0  0  0
  153.0285  140.8844  161.6606 H   0  0  0  0  0  0  0  0  0  0  0  0
  154.5057  141.4847  160.9075 H   0  0  0  0  0  0  0  0  0  0  0  0
  152.7405  143.0264  162.4492 H   0  0  0  0  0  0  0  0  0  0  0  0
  153.8341  143.7273  161.2550 H   0  0  0  0  0  0  0  0  0  0  0  0
  150.9763  143.7288  161.0424 H   0  0  0  0  0  0  0  0  0  0  0  0
  152.1246  144.1211  159.7581 H   0  0  0  0  0  0  0  0  0  0  0  0
  151.3231  133.1488  154.6517 H   0  0  0  0  0  0  0  0  0  0  0  0
  149.7335  133.5747  154.0104 H   0  0  0  0  0  0  0  0  0  0  0  0
  1  2  1  0  0  0  0
  1 30  1  0  0  0  0
  1 31  1  0  0  0  0
  1 32  1  0  0  0  0
  2  3  1  0  0  0  0
  3 28  1  0  0  0  0
  3 27  1  0  0  0  0
  3  4  1  0  0  0  0
  4  5  1  0  0  0  0
  4 33  1  0  0  0  0
  4 34  1  0  0  0  0
  5 29  1  0  0  0  0
  5  6  1  0  0  0  0
  5  9  1  0  0  0  0
  6  7  1  0  0  0  0
  6  8  2  0  0  0  0
  7 35  1  0  0  0  0
  7 36  1  0  0  0  0
  9 10  1  0  0  0  0
  9 27  1  0  0  0  0
 10 15  1  0  0  0  0
 10 11  2  0  0  0  0
 11 12  1  0  0  0  0
 12 13  2  0  0  0  0
 12 37  1  0  0  0  0
 13 14  1  0  0  0  0
 14 18  1  0  0  0  0
 14 15  2  0  0  0  0
 15 16  1  0  0  0  0
 16 17  2  0  0  0  0
 17 18  1  0  0  0  0
 17 38  1  0  0  0  0
 18 19  1  0  0  0  0
 19 20  1  0  0  0  0
 19 39  1  0  0  0  0
 19 40  1  0  0  0  0
 20 21  1  0  0  0  0
 20 22  1  0  0  0  0
 20 41  1  0  0  0  0
 21 42  1  0  0  0  0
 22 26  1  0  0  0  0
 22 23  1  0  0  0  0
 22 43  1  0  0  0  0
 23 24  1  0  0  0  0
 23 44  1  0  0  0  0
 23 45  1  0  0  0  0
 24 25  1  0  0  0  0
 24 46  1  0  0  0  0
 24 47  1  0  0  0  0
 25 26  1  0  0  0  0
 25 48  1  0  0  0  0
 25 49  1  0  0  0  0
 27 50  1  0  0  0  0
 27 51  1  0  0  0  0
M  END
> <s_m_source_file>
AV-unprocessed.smi

> <i_m_source_file_index>
261

> <i_lp_mmshare_version>
43012

> <i_f3d_flags>
0

> <s_epik_input>
W0NIM11PW0NASF0xW0NIMl1bQ0BASF0oQyg9TylbTkgyXSlOKFtDSDJdMSljKG5bY0hdbjIpYyhjMjMpbltjSF1uM1tDSDJdW0NASF0oW09IXSlbQ0BASF00W0NIMl1bQ0gyXVtDSDJdTzQ=

> <s_epik_cmdline>
J2VwaWtfcHl0aG9uJywgJy1waCcsICc3LjAnLCAnLXRuJywgJzgnLCAnLW1hJywgJzIwMCcsICctbWV0YWxfYmluZGluZycsICctaW1hZScsICc8aW5maWxlLm1hZT4nLCAnLW9tYWUnLCAnPG91dGZpbGUubWFlPic=

> <r_lp_tautomer_probability>
1

> <r_epik_Ionization_Penalty>
0.000713824

> <r_epik_Ionization_Penalty_Charging>
0

> <r_epik_Ionization_Penalty_Neutral>
0.000713824

> <r_epik_State_Penalty>
0.000402132

> <r_epik_Charging_Adjusted_Penalty>
0.000402132

> <i_epik_Tot_Q>
0

> <i_epik_Tot_abs_Q>
0

> <r_epik_Metal_State_Penalty>
-0

> <b_epik_Metal_Only>
0

> <s_lp_Force_Field>
OPLS_2005

> <r_lp_Energy>
44.1373

> <b_lp_Chiralities_Consistent>
1

> <s_lp_Variant>
AV-unprocessed.smi:261-8

> <Gold.Version>
5.8.1

> <Gold.Id.Protein>
6NUR|6NUR_protein|mol2

> <Gold.PLP.Fitness>
44.2803

> <Gold.PLP.PLP>
-36.0995

> <Gold.PLP.part.hbond>
-3.4693

> <Gold.PLP.part.metal>
0.0000

> <Gold.PLP.part.buried>
-5.6975

> <Gold.PLP.part.nonpolar>
-27.6069

> <Gold.PLP.part.repulsive>
0.2625

> <Gold.PLP.ligand.clash>
0.0000

> <Gold.PLP.ligand.torsion>
0.4261

> <Gold.PLP.Chemscore.Hbond>
2.0982

> <Gold.PLP.Chemscore.CHOScore>
0.8654

> <Gold.PLP.Chemscore.Metal>
0.0000

> <Gold.Chemscore.Hbonds>
donor molecule, donor type, donor heavy atom, donor atom, acceptor molecule, acceptor atom, score
      P1  H  6896  6907       L1    16  0.90
      P1  H  7997  8008       L1    21  1.00
      P1  H 10752 10763       L1    11  0.17
      L1  C    12    37       P1  7949  0.84

> <Gold.PLP.Chemscore.Internal.Correction>
0.1420

> <Gold.Rescore>
     Score         DG    S(hbond)    S(metal)    S(lipo)     H(rot)  DE(clash)    DE(int)     intcor
     11.94     -12.57       1.78        0.00      79.26       3.18       0.04       0.59       ----

> <Gold.Chemscore.Fitness>
11.9372

> <Gold.Chemscore.DG>
-12.5666

> <Gold.Chemscore.ZeroCoef>
-5.4800

> <Gold.Chemscore.Hbond>
1.7849

> <Gold.Chemscore.Metal>
0.0000

> <Gold.Chemscore.Lipo>
79.2614

> <Gold.Chemscore.Internal_Hbond>
0.0000

> <Gold.Chemscore.DEClash>
0.0406

> <Gold.Chemscore.DEInternal>
0.5888

> <Gold.Chemscore.Rot>
3.1831

> <Gold.Chemscore.Internal.Correction>
   9.000000E+99

> <Gold.Chemscore.Hbonds>
donor molecule, donor type, donor heavy atom, donor atom, acceptor molecule, acceptor atom, score
      P1  H  6896  6907       L1    16  0.65
      P1  H  7997  8008       L1    21  0.34

> <Gold.Chemscore.Hbond.Weighted>
-5.9617

> <Gold.Chemscore.Metal.Weighted>
-0.0000

> <Gold.Chemscore.Lipo.Weighted>
-9.2736

> <Gold.Chemscore.Internal_Hbond.Weighted>
0.0000

> <Gold.Chemscore.DEClash.Weighted>
0.0406

> <Gold.Chemscore.DEInternal.Weighted>
0.5888

> <Gold.Chemscore.Rot.Weighted>
8.1486

> <Gold.Chemscore.Internal.Correction.Weighted>
   9.000000E+99

> <Gold.Protein.RotatedTorsions>
[ 6907 6896 6895 6894 ] final  -45.72 input  -60.11 | X-H torsion
[ 7974 7965 7964 7962 ] final  -23.72 input  175.53 | X-H torsion
[ 8008 7997 7996 7995 ] final  -97.32 input   59.86 | X-H torsion
[ 10167 10162 10161 10158 ] final -121.04 input  -65.29 | X-H torsion
[ 10718 10713 10712 10709 ] final  -16.95 input   66.30 | X-H torsion
[ 10763 10752 10751 10750 ] final   68.68 input  -60.55 | X-H torsion
[ 11005 11000 10999 10996 ] final   57.93 input  -57.11 | X-H torsion

> <Gold.Protein.ActiveResidues>
 VAL166  LYS551  ARG553  GLY616  TRP617  ASP618  TYR619  PRO620  LYS621  CYS622 
 ASP623  PHE694  ASN695  SER759  ASP760  ASP761  ALA762  ILE779  LEU786  VAL792 
 PHE793  MET794  SER795  GLU796  ALA797  LYS798  CYS799  TRP800  GLU811  SER814 

> <Gold.Protein.RotatedAtoms>
  150.9189  134.8607  159.7475 H   0  0  0  0  0  0  0  0  0  0  0  0  # atno 6907 bound_to 6896
  152.4983  134.4247  159.9502 H   0  0  0  0  0  0  0  0  0  0  0  0  # atno 6908 bound_to 6896
  151.4283  133.3638  159.2800 H   0  0  0  0  0  0  0  0  0  0  0  0  # atno 6909 bound_to 6896
  146.1599  140.4654  142.8576 H   0  0  0  0  0  0  0  0  0  0  0  0  # atno 7974 bound_to 7965
  154.7862  140.0464  157.1165 H   0  0  0  0  0  0  0  0  0  0  0  0  # atno 8008 bound_to 7997
  154.9645  140.3082  155.4996 H   0  0  0  0  0  0  0  0  0  0  0  0  # atno 8009 bound_to 7997
  156.2943  140.2264  156.4734 H   0  0  0  0  0  0  0  0  0  0  0  0  # atno 8010 bound_to 7997
  140.0293  143.5264  152.2184 H   0  0  0  0  0  0  0  0  0  0  0  0  # atno 10167 bound_to 10162
  156.5804  130.4772  149.6323 H   0  0  0  0  0  0  0  0  0  0  0  0  # atno 10718 bound_to 10713
  153.0248  135.5238  154.7172 H   0  0  0  0  0  0  0  0  0  0  0  0  # atno 10763 bound_to 10752
  154.6237  135.2892  155.0298 H   0  0  0  0  0  0  0  0  0  0  0  0  # atno 10764 bound_to 10752
  154.1276  135.6598  153.4968 H   0  0  0  0  0  0  0  0  0  0  0  0  # atno 10765 bound_to 10752
  140.0415  134.5866  155.9376 H   0  0  0  0  0  0  0  0  0  0  0  0  # atno 11005 bound_to 11000
  144.8013  140.6218  143.6476 LP  0  0  0  0  0  0  0  0  0  0  0  0  # atno 17320 bound_to 7965
  145.4615  139.1512  143.3864 LP  0  0  0  0  0  0  0  0  0  0  0  0  # atno 17321 bound_to 7965
  139.6087  144.7603  151.3002 LP  0  0  0  0  0  0  0  0  0  0  0  0  # atno 17342 bound_to 10162
  140.7309  143.6867  150.7956 LP  0  0  0  0  0  0  0  0  0  0  0  0  # atno 17343 bound_to 10162
  156.2636  130.6977  151.1753 LP  0  0  0  0  0  0  0  0  0  0  0  0  # atno 17370 bound_to 10713
  157.7328  131.0597  150.5611 LP  0  0  0  0  0  0  0  0  0  0  0  0  # atno 17371 bound_to 10713
  141.1885  133.6563  156.5328 LP  0  0  0  0  0  0  0  0  0  0  0  0  # atno 17394 bound_to 11000
  140.4061  134.7313  157.4809 LP  0  0  0  0  0  0  0  0  0  0  0  0  # atno 17395 bound_to 11000

$$$$
