AV-unprocessed.smi:2971|AV-procd|sdf|11333|dock5
  -GOLD-   2272016243D 1   1.00000     0.00000
 Structure written by MMmdl.
 36 38  0  0  0  0  0  0  0  0  1 V2000
  149.6398  140.9588  153.4926 O   0  0  0  0  0  0  0  0  0  0  0  0
  149.4368  140.5498  154.8314 C   0  0  1  0  0  0  0  0  0  0  0  0
  149.8732  141.6930  155.7612 C   0  0  0  0  0  0  0  0  0  0  0  0
  150.5789  141.1438  156.8664 O   0  0  0  0  0  0  0  0  0  0  0  0
  151.3656  141.9852  157.6250 C   0  0  0  0  0  0  0  0  0  0  0  0
  151.4134  143.3932  157.4593 C   0  0  0  0  0  0  0  0  0  0  0  0
  152.2463  144.1804  158.2781 C   0  0  0  0  0  0  0  0  0  0  0  0
  153.0388  143.5751  159.2705 C   0  0  0  0  0  0  0  0  0  0  0  0
  152.9974  142.1794  159.4433 C   0  0  0  0  0  0  0  0  0  0  0  0
  152.1660  141.3908  158.6242 C   0  0  0  0  0  0  0  0  0  0  0  0
  152.1372  140.0480  158.8000 F   0  0  0  0  0  0  0  0  0  0  0  0
  147.9508  140.1892  155.0246 C   0  0  0  0  0  0  0  0  0  0  0  0
  147.0721  141.3338  154.8593 N   0  0  0  0  0  0  0  0  0  0  0  0
  146.7029  141.9084  153.6986 C   0  0  0  0  0  0  0  0  0  0  0  0
  145.8807  142.9515  153.7684 N   0  0  0  0  0  0  0  0  0  0  0  0
  145.6947  143.0686  155.1354 C   0  0  0  0  0  0  0  0  0  0  0  0
  144.9209  143.9876  155.8799 C   0  0  0  0  0  0  0  0  0  0  0  0
  144.8825  143.9135  157.2880 C   0  0  0  0  0  0  0  0  0  0  0  0
  145.6167  142.9228  157.9721 C   0  0  0  0  0  0  0  0  0  0  0  0
  146.3946  141.9961  157.2520 C   0  0  0  0  0  0  0  0  0  0  0  0
  146.4282  142.0717  155.8471 C   0  0  0  0  0  0  0  0  0  0  0  0
  149.4355  140.2317  152.9242 H   0  0  0  0  0  0  0  0  0  0  0  0
  150.0446  139.6655  155.0282 H   0  0  0  0  0  0  0  0  0  0  0  0
  150.4756  142.4246  155.2192 H   0  0  0  0  0  0  0  0  0  0  0  0
  148.9879  142.2057  156.1410 H   0  0  0  0  0  0  0  0  0  0  0  0
  150.8203  143.8954  156.7106 H   0  0  0  0  0  0  0  0  0  0  0  0
  152.2764  145.2518  158.1436 H   0  0  0  0  0  0  0  0  0  0  0  0
  153.6770  144.1799  159.8979 H   0  0  0  0  0  0  0  0  0  0  0  0
  153.6040  141.7121  160.2049 H   0  0  0  0  0  0  0  0  0  0  0  0
  147.6514  139.4284  154.3026 H   0  0  0  0  0  0  0  0  0  0  0  0
  147.7860  139.7592  156.0136 H   0  0  0  0  0  0  0  0  0  0  0  0
  147.0578  141.5385  152.7477 H   0  0  0  0  0  0  0  0  0  0  0  0
  144.3559  144.7515  155.3665 H   0  0  0  0  0  0  0  0  0  0  0  0
  144.2873  144.6209  157.8462 H   0  0  0  0  0  0  0  0  0  0  0  0
  145.5830  142.8756  159.0509 H   0  0  0  0  0  0  0  0  0  0  0  0
  146.9612  141.2381  157.7722 H   0  0  0  0  0  0  0  0  0  0  0  0
  1  2  1  0  0  0  0
  1 22  1  0  0  0  0
  2  3  1  0  0  0  0
  2 12  1  0  0  0  0
  2 23  1  0  0  0  0
  3  4  1  0  0  0  0
  3 24  1  0  0  0  0
  3 25  1  0  0  0  0
  4  5  1  0  0  0  0
  5 10  1  0  0  0  0
  5  6  2  0  0  0  0
  6  7  1  0  0  0  0
  6 26  1  0  0  0  0
  7  8  2  0  0  0  0
  7 27  1  0  0  0  0
  8  9  1  0  0  0  0
  8 28  1  0  0  0  0
  9 10  2  0  0  0  0
  9 29  1  0  0  0  0
 10 11  1  0  0  0  0
 12 13  1  0  0  0  0
 12 30  1  0  0  0  0
 12 31  1  0  0  0  0
 13 21  1  0  0  0  0
 13 14  1  0  0  0  0
 14 15  2  0  0  0  0
 14 32  1  0  0  0  0
 15 16  1  0  0  0  0
 16 21  2  0  0  0  0
 16 17  1  0  0  0  0
 17 18  2  0  0  0  0
 17 33  1  0  0  0  0
 18 19  1  0  0  0  0
 18 34  1  0  0  0  0
 19 20  2  0  0  0  0
 19 35  1  0  0  0  0
 20 21  1  0  0  0  0
 20 36  1  0  0  0  0
M  END
> <s_m_source_file>
AV-unprocessed.smi

> <i_m_source_file_index>
2971

> <i_lp_mmshare_version>
43012

> <i_f3d_flags>
0

> <s_epik_input>
W2NIXTFbY0hdW2NIXVtjSF1jKGMxMiluKFtjSF1uMilbQ0gyXVtDQEhdKFtPSF0pW0NIMl1PYzNbY0hdW2NIXVtjSF1bY0hdYzNG

> <s_epik_cmdline>
J2VwaWtfcHl0aG9uJywgJy1waCcsICc3LjAnLCAnLXRuJywgJzgnLCAnLW1hJywgJzIwMCcsICctbWV0YWxfYmluZGluZycsICctaW1hZScsICc8aW5maWxlLm1hZT4nLCAnLW9tYWUnLCAnPG91dGZpbGUubWFlPic=

> <r_lp_tautomer_probability>
1

> <r_epik_Ionization_Penalty>
0.0600913

> <r_epik_Ionization_Penalty_Charging>
0

> <r_epik_Ionization_Penalty_Neutral>
0.0600913

> <r_epik_State_Penalty>
0.0520726

> <r_epik_Charging_Adjusted_Penalty>
0.0520726

> <i_epik_Tot_Q>
0

> <i_epik_Tot_abs_Q>
0

> <r_epik_Metal_State_Penalty>
5.44269e-05

> <b_epik_Metal_Only>
0

> <s_lp_Force_Field>
OPLS_2005

> <r_lp_Energy>
16.3694

> <b_lp_Chiralities_Consistent>
1

> <s_lp_Variant>
AV-unprocessed.smi:2971-2

> <Gold.Version>
5.8.1

> <Gold.Id.Protein>
6NUR|6NUR_protein|mol2

> <Gold.PLP.Fitness>
46.7617

> <Gold.PLP.PLP>
-42.8063

> <Gold.PLP.part.hbond>
-2.8761

> <Gold.PLP.part.metal>
0.0000

> <Gold.PLP.part.buried>
-6.3871

> <Gold.PLP.part.nonpolar>
-34.6746

> <Gold.PLP.part.repulsive>
0.2537

> <Gold.PLP.ligand.clash>
0.0000

> <Gold.PLP.ligand.torsion>
0.9209

> <Gold.PLP.Chemscore.Hbond>
1.9120

> <Gold.PLP.Chemscore.CHOScore>
0.0000

> <Gold.PLP.Chemscore.Metal>
0.0000

> <Gold.Chemscore.Hbonds>
donor molecule, donor type, donor heavy atom, donor atom, acceptor molecule, acceptor atom, score
      L1  H     1    22       P1  7957  0.61
      P1  H  7989  7998       L1     1  0.26
      P1  H  8011  8017       L1     1  1.00

> <Gold.PLP.Chemscore.Internal.Correction>
0.0612

> <Gold.Rescore>
     Score         DG    S(hbond)    S(metal)    S(lipo)     H(rot)  DE(clash)    DE(int)     intcor
     14.58     -15.69       1.39        0.00      99.37       2.37       0.12       0.99       ----

> <Gold.Chemscore.Fitness>
14.5815

> <Gold.Chemscore.DG>
-15.6878

> <Gold.Chemscore.ZeroCoef>
-5.4800

> <Gold.Chemscore.Hbond>
1.3945

> <Gold.Chemscore.Metal>
0.0000

> <Gold.Chemscore.Lipo>
99.3709

> <Gold.Chemscore.Internal_Hbond>
0.0000

> <Gold.Chemscore.DEClash>
0.1157

> <Gold.Chemscore.DEInternal>
0.9906

> <Gold.Chemscore.Rot>
2.3735

> <Gold.Chemscore.Internal.Correction>
   9.000000E+99

> <Gold.Chemscore.Hbonds>
donor molecule, donor type, donor heavy atom, donor atom, acceptor molecule, acceptor atom, score
      L1  H     1    22       P1  7957  0.62
      P1  H  7989  7998       L1     1  0.02
      P1  H  8011  8017       L1     1  0.44

> <Gold.Chemscore.Hbond.Weighted>
-4.6576

> <Gold.Chemscore.Metal.Weighted>
-0.0000

> <Gold.Chemscore.Lipo.Weighted>
-11.6264

> <Gold.Chemscore.Internal_Hbond.Weighted>
0.0000

> <Gold.Chemscore.DEClash.Weighted>
0.1157

> <Gold.Chemscore.DEInternal.Weighted>
0.9906

> <Gold.Chemscore.Rot.Weighted>
6.0762

> <Gold.Chemscore.Internal.Correction.Weighted>
   9.000000E+99

> <Gold.Protein.RotatedTorsions>
[ 6907 6896 6895 6894 ] final  -89.72 input  -60.11 | X-H torsion
[ 7974 7965 7964 7962 ] final  -17.58 input  175.53 | X-H torsion
[ 8008 7997 7996 7995 ] final  -85.81 input   59.86 | X-H torsion
[ 10167 10162 10161 10158 ] final  -81.38 input  -65.29 | X-H torsion
[ 10718 10713 10712 10709 ] final  -35.61 input   66.30 | X-H torsion
[ 10763 10752 10751 10750 ] final   61.30 input  -60.55 | X-H torsion
[ 11005 11000 10999 10996 ] final -104.42 input  -57.11 | X-H torsion

> <Gold.Protein.ActiveResidues>
 VAL166  LYS551  ARG553  GLY616  TRP617  ASP618  TYR619  PRO620  LYS621  CYS622 
 ASP623  PHE694  ASN695  SER759  ASP760  ASP761  ALA762  ILE779  LEU786  VAL792 
 PHE793  MET794  SER795  GLU796  ALA797  LYS798  CYS799  TRP800  GLU811  SER814 

> <Gold.Protein.RotatedAtoms>
  150.6876  134.2543  159.4523 H   0  0  0  0  0  0  0  0  0  0  0  0  # atno 6907 bound_to 6896
  152.0478  134.9669  160.0584 H   0  0  0  0  0  0  0  0  0  0  0  0  # atno 6908 bound_to 6896
  152.1146  133.4284  159.4684 H   0  0  0  0  0  0  0  0  0  0  0  0  # atno 6909 bound_to 6896
  146.1934  140.3800  142.8449 H   0  0  0  0  0  0  0  0  0  0  0  0  # atno 7974 bound_to 7965
  154.6448  140.0586  156.9888 H   0  0  0  0  0  0  0  0  0  0  0  0  # atno 8008 bound_to 7997
  155.1460  140.3270  155.4423 H   0  0  0  0  0  0  0  0  0  0  0  0  # atno 8009 bound_to 7997
  156.2548  140.1955  156.6574 H   0  0  0  0  0  0  0  0  0  0  0  0  # atno 8010 bound_to 7997
  140.4417  143.2512  151.8616 H   0  0  0  0  0  0  0  0  0  0  0  0  # atno 10167 bound_to 10162
  156.3366  130.4287  149.7825 H   0  0  0  0  0  0  0  0  0  0  0  0  # atno 10718 bound_to 10713
  152.9946  135.5505  154.6012 H   0  0  0  0  0  0  0  0  0  0  0  0  # atno 10763 bound_to 10752
  154.5353  135.2816  155.1146 H   0  0  0  0  0  0  0  0  0  0  0  0  # atno 10764 bound_to 10752
  154.2445  135.6410  153.5271 H   0  0  0  0  0  0  0  0  0  0  0  0  # atno 10765 bound_to 10752
  141.1101  133.8722  157.1609 H   0  0  0  0  0  0  0  0  0  0  0  0  # atno 11005 bound_to 11000
  144.8531  140.7030  143.6155 LP  0  0  0  0  0  0  0  0  0  0  0  0  # atno 17320 bound_to 7965
  145.3721  139.1656  143.4326 LP  0  0  0  0  0  0  0  0  0  0  0  0  # atno 17321 bound_to 7965
  139.4790  144.5221  151.8786 LP  0  0  0  0  0  0  0  0  0  0  0  0  # atno 17342 bound_to 10162
  140.4310  144.2115  150.5888 LP  0  0  0  0  0  0  0  0  0  0  0  0  # atno 17343 bound_to 10162
  156.5077  130.8158  151.3157 LP  0  0  0  0  0  0  0  0  0  0  0  0  # atno 17370 bound_to 10713
  157.7440  130.9924  150.2635 LP  0  0  0  0  0  0  0  0  0  0  0  0  # atno 17371 bound_to 10713
  139.9990  135.0035  157.0148 LP  0  0  0  0  0  0  0  0  0  0  0  0  # atno 17394 bound_to 11000
  140.4798  134.1301  155.7215 LP  0  0  0  0  0  0  0  0  0  0  0  0  # atno 17395 bound_to 11000

$$$$
