AV-unprocessed.smi:2273|AV-procd|sdf|9166|dock4
  -GOLD-   2272012373D 1   1.00000     0.00000
 Structure written by MMmdl.
 53 54  0  0  0  0  0  0  0  0  1 V2000
  146.9268  142.2455  154.4243 C   0  0  0  0  0  0  0  0  0  0  0  0
  148.2992  141.6281  154.7252 C   0  0  0  0  0  0  0  0  0  0  0  0
  148.4177  140.8254  156.0502 C   0  0  0  0  0  0  0  0  0  0  0  0
  149.8971  140.4265  156.2999 C   0  0  0  0  0  0  0  0  0  0  0  0
  150.8616  141.6017  156.5229 C   0  0  0  0  0  0  0  0  0  0  0  0
  147.4709  139.5866  156.0706 C   0  0  2  0  0  0  0  0  0  0  0  0
  147.7245  138.6102  154.8988 C   0  0  0  0  0  0  0  0  0  0  0  0
  146.8001  137.3832  154.9993 C   0  0  2  0  0  0  0  0  0  0  0  0
  146.9769  136.4856  153.8555 N   0  0  0  0  0  0  0  0  0  0  0  0
  146.1472  135.5180  153.4243 C   0  0  0  0  0  0  0  0  0  0  0  0
  145.0911  135.2716  154.0048 O   0  0  0  0  0  0  0  0  0  0  0  0
  146.5882  134.8552  152.3358 N   0  0  0  0  0  0  0  0  0  0  0  0
  145.9445  133.7980  151.6754 C   0  0  0  0  0  0  0  0  0  0  0  0
  144.9198  134.0837  150.8298 C   0  0  0  0  0  0  0  0  0  0  0  0
  144.4843  135.5146  150.5553 C   0  0  0  0  0  0  0  0  0  0  0  0
  144.2372  132.9974  150.1583 C   0  0  0  0  0  0  0  0  0  0  0  0
  144.6187  131.7348  150.3926 C   0  0  0  0  0  0  0  0  0  0  0  0
  145.6549  131.4323  151.2875 N   0  0  0  0  0  0  0  0  0  0  0  0
  145.9846  130.0192  151.4913 C   0  0  0  0  0  0  0  0  0  0  0  0
  146.3239  132.3971  151.9819 C   0  0  0  0  0  0  0  0  0  0  0  0
  147.1729  132.0939  152.8234 O   0  0  0  0  0  0  0  0  0  0  0  0
  145.3450  137.8636  155.0670 C   0  0  0  0  0  0  0  0  0  0  0  0
  145.1784  138.9137  156.1757 C   0  0  0  0  0  0  0  0  0  0  0  0
  146.1007  139.9805  155.9758 O   0  0  0  0  0  0  0  0  0  0  0  0
  146.9856  142.9003  153.5544 H   0  0  0  0  0  0  0  0  0  0  0  0
  146.5680  142.8444  155.2616 H   0  0  0  0  0  0  0  0  0  0  0  0
  146.1835  141.4817  154.1969 H   0  0  0  0  0  0  0  0  0  0  0  0
  148.5930  140.9953  153.8868 H   0  0  0  0  0  0  0  0  0  0  0  0
  149.0097  142.4532  154.7383 H   0  0  0  0  0  0  0  0  0  0  0  0
  148.1306  141.4815  156.8730 H   0  0  0  0  0  0  0  0  0  0  0  0
  149.9621  139.8090  157.1960 H   0  0  0  0  0  0  0  0  0  0  0  0
  150.2600  139.8080  155.4780 H   0  0  0  0  0  0  0  0  0  0  0  0
  151.8380  141.2373  156.8426 H   0  0  0  0  0  0  0  0  0  0  0  0
  150.4921  142.2759  157.2963 H   0  0  0  0  0  0  0  0  0  0  0  0
  151.0207  142.1796  155.6130 H   0  0  0  0  0  0  0  0  0  0  0  0
  147.6025  139.0696  157.0230 H   0  0  0  0  0  0  0  0  0  0  0  0
  147.5461  139.1262  153.9541 H   0  0  0  0  0  0  0  0  0  0  0  0
  148.7620  138.2895  154.8686 H   0  0  0  0  0  0  0  0  0  0  0  0
  147.0192  136.8402  155.9208 H   0  0  0  0  0  0  0  0  0  0  0  0
  147.8261  136.6163  153.3245 H   0  0  0  0  0  0  0  0  0  0  0  0
  147.5240  135.0634  152.0205 H   0  0  0  0  0  0  0  0  0  0  0  0
  143.6757  135.5485  149.8247 H   0  0  0  0  0  0  0  0  0  0  0  0
  145.3160  136.1002  150.1620 H   0  0  0  0  0  0  0  0  0  0  0  0
  144.1296  135.9879  151.4714 H   0  0  0  0  0  0  0  0  0  0  0  0
  143.4323  133.1981  149.4665 H   0  0  0  0  0  0  0  0  0  0  0  0
  144.1499  130.8842  149.9195 H   0  0  0  0  0  0  0  0  0  0  0  0
  147.0446  129.8401  151.3045 H   0  0  0  0  0  0  0  0  0  0  0  0
  145.4251  129.3565  150.8303 H   0  0  0  0  0  0  0  0  0  0  0  0
  145.7648  129.7202  152.5170 H   0  0  0  0  0  0  0  0  0  0  0  0
  145.0548  138.3031  154.1114 H   0  0  0  0  0  0  0  0  0  0  0  0
  144.6727  137.0230  155.2422 H   0  0  0  0  0  0  0  0  0  0  0  0
  144.1659  139.3167  156.1588 H   0  0  0  0  0  0  0  0  0  0  0  0
  145.3267  138.4688  157.1608 H   0  0  0  0  0  0  0  0  0  0  0  0
  1  2  1  0  0  0  0
  1 25  1  0  0  0  0
  1 26  1  0  0  0  0
  1 27  1  0  0  0  0
  2  3  1  0  0  0  0
  2 28  1  0  0  0  0
  2 29  1  0  0  0  0
  3  4  1  0  0  0  0
  3  6  1  0  0  0  0
  3 30  1  0  0  0  0
  4  5  1  0  0  0  0
  4 31  1  0  0  0  0
  4 32  1  0  0  0  0
  5 33  1  0  0  0  0
  5 34  1  0  0  0  0
  5 35  1  0  0  0  0
  6 24  1  0  0  0  0
  6  7  1  0  0  0  0
  6 36  1  0  0  0  0
  7  8  1  0  0  0  0
  7 37  1  0  0  0  0
  7 38  1  0  0  0  0
  8  9  1  0  0  0  0
  8 22  1  0  0  0  0
  8 39  1  0  0  0  0
  9 10  1  0  0  0  0
  9 40  1  0  0  0  0
 10 11  2  0  0  0  0
 10 12  1  0  0  0  0
 12 13  1  0  0  0  0
 12 41  1  0  0  0  0
 13 20  1  0  0  0  0
 13 14  2  0  0  0  0
 14 15  1  0  0  0  0
 14 16  1  0  0  0  0
 15 42  1  0  0  0  0
 15 43  1  0  0  0  0
 15 44  1  0  0  0  0
 16 17  2  0  0  0  0
 16 45  1  0  0  0  0
 17 18  1  0  0  0  0
 17 46  1  0  0  0  0
 18 19  1  0  0  0  0
 18 20  1  0  0  0  0
 19 47  1  0  0  0  0
 19 48  1  0  0  0  0
 19 49  1  0  0  0  0
 20 21  2  0  0  0  0
 22 23  1  0  0  0  0
 22 50  1  0  0  0  0
 22 51  1  0  0  0  0
 23 24  1  0  0  0  0
 23 52  1  0  0  0  0
 23 53  1  0  0  0  0
M  END
> <s_m_source_file>
AV-unprocessed.smi

> <i_m_source_file_index>
2273

> <i_lp_mmshare_version>
43012

> <i_f3d_flags>
0

> <s_epik_input>
W0NIM11bQ0gyXVtDSF0oW0NIMl1bQ0gzXSlbQ0BASF0xW0NIMl1bQ0BIXShbQ0gyXVtDSDJdTzEpW05IXUMoPU8pW05IXWMyYyhbQ0gzXSlbY0hdW2NIXW4oW0NIM10pYzI9Tw==

> <s_epik_cmdline>
J2VwaWtfcHl0aG9uJywgJy1waCcsICc3LjAnLCAnLXRuJywgJzgnLCAnLW1hJywgJzIwMCcsICctbWV0YWxfYmluZGluZycsICctaW1hZScsICc8aW5maWxlLm1hZT4nLCAnLW9tYWUnLCAnPG91dGZpbGUubWFlPic=

> <r_lp_tautomer_probability>
1

> <r_epik_Ionization_Penalty>
2.66245e-05

> <r_epik_Ionization_Penalty_Charging>
6.91055e-06

> <r_epik_Ionization_Penalty_Neutral>
1.97139e-05

> <r_epik_State_Penalty>
-0

> <r_epik_Charging_Adjusted_Penalty>
6.91055e-06

> <i_epik_Tot_Q>
0

> <i_epik_Tot_abs_Q>
0

> <r_epik_Metal_State_Penalty>
-0

> <b_epik_Metal_Only>
0

> <s_lp_Force_Field>
OPLS_2005

> <r_lp_Energy>
42.9176

> <b_lp_Chiralities_Consistent>
1

> <s_lp_Variant>
AV-unprocessed.smi:2273-3

> <Gold.Version>
5.8.1

> <Gold.Id.Protein>
6NUR|6NUR_protein|mol2

> <Gold.PLP.Fitness>
42.0572

> <Gold.PLP.PLP>
-37.4738

> <Gold.PLP.part.hbond>
-2.0000

> <Gold.PLP.part.metal>
0.0000

> <Gold.PLP.part.buried>
-6.5436

> <Gold.PLP.part.nonpolar>
-29.5304

> <Gold.PLP.part.repulsive>
0.2238

> <Gold.PLP.ligand.clash>
0.0000

> <Gold.PLP.ligand.torsion>
1.0433

> <Gold.PLP.Chemscore.Hbond>
1.9920

> <Gold.PLP.Chemscore.CHOScore>
0.0000

> <Gold.PLP.Chemscore.Metal>
0.0000

> <Gold.Chemscore.Hbonds>
donor molecule, donor type, donor heavy atom, donor atom, acceptor molecule, acceptor atom, score
      L1  H     9    40       P1  7948  1.00
      L1  H    12    41       P1  7948  1.00

> <Gold.PLP.Chemscore.Internal.Correction>
0.6941

> <Gold.Rescore>
     Score         DG    S(hbond)    S(metal)    S(lipo)     H(rot)  DE(clash)    DE(int)     intcor
     13.64     -17.49       1.84        0.00      81.42       1.42       0.01       3.84       ----

> <Gold.Chemscore.Fitness>
13.6416

> <Gold.Chemscore.DG>
-17.4918

> <Gold.Chemscore.ZeroCoef>
-5.4800

> <Gold.Chemscore.Hbond>
1.8354

> <Gold.Chemscore.Metal>
0.0000

> <Gold.Chemscore.Lipo>
81.4209

> <Gold.Chemscore.Internal_Hbond>
0.0000

> <Gold.Chemscore.DEClash>
0.0126

> <Gold.Chemscore.DEInternal>
3.8376

> <Gold.Chemscore.Rot>
1.4236

> <Gold.Chemscore.Internal.Correction>
   9.000000E+99

> <Gold.Chemscore.Hbonds>
donor molecule, donor type, donor heavy atom, donor atom, acceptor molecule, acceptor atom, score
      L1  H     9    40       P1  7948  0.96
      L1  H    12    41       P1  7948  0.89

> <Gold.Chemscore.Hbond.Weighted>
-6.1301

> <Gold.Chemscore.Metal.Weighted>
-0.0000

> <Gold.Chemscore.Lipo.Weighted>
-9.5262

> <Gold.Chemscore.Internal_Hbond.Weighted>
0.0000

> <Gold.Chemscore.DEClash.Weighted>
0.0126

> <Gold.Chemscore.DEInternal.Weighted>
3.8376

> <Gold.Chemscore.Rot.Weighted>
3.6445

> <Gold.Chemscore.Internal.Correction.Weighted>
   9.000000E+99

> <Gold.Protein.RotatedTorsions>
[ 6907 6896 6895 6894 ] final   51.30 input  -60.11 | X-H torsion
[ 7974 7965 7964 7962 ] final  -74.47 input  175.53 | X-H torsion
[ 8008 7997 7996 7995 ] final -171.82 input   59.86 | X-H torsion
[ 10167 10162 10161 10158 ] final -167.61 input  -65.29 | X-H torsion
[ 10718 10713 10712 10709 ] final  173.43 input   66.30 | X-H torsion
[ 10763 10752 10751 10750 ] final  149.00 input  -60.55 | X-H torsion
[ 11005 11000 10999 10996 ] final -139.79 input  -57.11 | X-H torsion

> <Gold.Protein.ActiveResidues>
 VAL166  LYS551  ARG553  GLY616  TRP617  ASP618  TYR619  PRO620  LYS621  CYS622 
 ASP623  PHE694  ASN695  SER759  ASP760  ASP761  ALA762  ILE779  LEU786  VAL792 
 PHE793  MET794  SER795  GLU796  ALA797  LYS798  CYS799  TRP800  GLU811  SER814 

> <Gold.Protein.RotatedAtoms>
  152.3111  134.7496  160.0335 H   0  0  0  0  0  0  0  0  0  0  0  0  # atno 6907 bound_to 6896
  151.7976  133.3361  159.3525 H   0  0  0  0  0  0  0  0  0  0  0  0  # atno 6908 bound_to 6896
  150.7321  134.5714  159.5937 H   0  0  0  0  0  0  0  0  0  0  0  0  # atno 6909 bound_to 6896
  145.6387  140.9317  143.1047 H   0  0  0  0  0  0  0  0  0  0  0  0  # atno 7974 bound_to 7965
  155.9365  140.1101  157.1090 H   0  0  0  0  0  0  0  0  0  0  0  0  # atno 8008 bound_to 7997
  154.4081  140.1227  156.4937 H   0  0  0  0  0  0  0  0  0  0  0  0  # atno 8009 bound_to 7997
  155.7015  140.3472  155.4937 H   0  0  0  0  0  0  0  0  0  0  0  0  # atno 8010 bound_to 7997
  139.6038  144.0955  152.1771 H   0  0  0  0  0  0  0  0  0  0  0  0  # atno 10167 bound_to 10162
  156.9643  131.0070  151.2920 H   0  0  0  0  0  0  0  0  0  0  0  0  # atno 10718 bound_to 10713
  154.0640  135.2872  155.3320 H   0  0  0  0  0  0  0  0  0  0  0  0  # atno 10763 bound_to 10752
  154.6790  135.5271  153.8240 H   0  0  0  0  0  0  0  0  0  0  0  0  # atno 10764 bound_to 10752
  153.0511  135.6576  154.0827 H   0  0  0  0  0  0  0  0  0  0  0  0  # atno 10765 bound_to 10752
  140.8485  134.2315  157.4773 H   0  0  0  0  0  0  0  0  0  0  0  0  # atno 11005 bound_to 11000
  144.7166  139.8177  143.7397 LP  0  0  0  0  0  0  0  0  0  0  0  0  # atno 17320 bound_to 7965
  146.1298  139.4331  143.0176 LP  0  0  0  0  0  0  0  0  0  0  0  0  # atno 17321 bound_to 7965
  140.0557  144.5897  150.7301 LP  0  0  0  0  0  0  0  0  0  0  0  0  # atno 17342 bound_to 10162
  140.7270  143.2647  151.4086 LP  0  0  0  0  0  0  0  0  0  0  0  0  # atno 17343 bound_to 10162
  157.5636  130.8262  149.8298 LP  0  0  0  0  0  0  0  0  0  0  0  0  # atno 17370 bound_to 10713
  156.0309  130.3765  150.1691 LP  0  0  0  0  0  0  0  0  0  0  0  0  # atno 17371 bound_to 10713
  139.8704  134.9671  156.4586 LP  0  0  0  0  0  0  0  0  0  0  0  0  # atno 17394 bound_to 11000
  140.8816  133.7913  155.9473 LP  0  0  0  0  0  0  0  0  0  0  0  0  # atno 17395 bound_to 11000

$$$$
