AV-unprocessed.smi:2709|AV-procd|sdf|10460|dock7
  -GOLD-   2272014503D 1   1.00000     0.00000
 Structure written by MMmdl.
 40 42  0  0  0  0  0  0  0  0  1 V2000
  150.3846  139.2684  154.4664 C   0  0  0  0  0  0  0  0  0  0  0  0
  149.1003  139.4303  155.0457 O   0  0  0  0  0  0  0  0  0  0  0  0
  148.2132  140.2133  154.2589 C   0  0  2  0  0  0  0  0  0  0  0  0
  148.6653  141.6778  154.1750 C   0  0  0  0  0  0  0  0  0  0  0  0
  147.3685  142.4729  154.0771 C   0  0  0  0  0  0  0  0  0  0  0  0
  146.4128  141.7264  155.0059 C   0  0  0  0  0  0  0  0  0  0  0  0
  146.8118  140.2428  154.9130 C   0  0  1  0  0  0  0  0  0  0  0  0
  145.8297  139.5060  154.1215 N   0  0  0  0  0  0  0  0  0  0  0  0
  145.8853  138.1928  153.8596 C   0  0  0  0  0  0  0  0  0  0  0  0
  146.7893  137.4607  154.2594 O   0  0  0  0  0  0  0  0  0  0  0  0
  144.8418  137.8070  153.1059 N   0  0  0  0  0  0  0  0  0  0  0  0
  144.5181  136.5104  152.6208 C   0  0  0  0  0  0  0  0  0  0  0  0
  145.5602  135.6902  152.1397 C   0  0  0  0  0  0  0  0  0  0  0  0
  145.3332  134.4513  151.6539 N   0  0  0  0  0  0  0  0  0  0  0  0
  144.0645  134.0349  151.6357 C   0  0  0  0  0  0  0  0  0  0  0  0
  143.8193  132.6465  151.1317 C   0  0  0  0  0  0  0  0  0  0  0  0
  144.9661  131.7860  150.6418 C   0  0  0  0  0  0  0  0  0  0  0  0
  143.9617  132.3195  149.6590 C   0  0  0  0  0  0  0  0  0  0  0  0
  142.9987  134.7129  152.0690 N   0  0  0  0  0  0  0  0  0  0  0  0
  143.2163  135.9538  152.5564 C   0  0  0  0  0  0  0  0  0  0  0  0
  151.0030  138.6535  155.1200 H   0  0  0  0  0  0  0  0  0  0  0  0
  150.8898  140.2253  154.3324 H   0  0  0  0  0  0  0  0  0  0  0  0
  150.3198  138.7676  153.4996 H   0  0  0  0  0  0  0  0  0  0  0  0
  148.1400  139.8027  153.2493 H   0  0  0  0  0  0  0  0  0  0  0  0
  149.1895  141.9581  155.0899 H   0  0  0  0  0  0  0  0  0  0  0  0
  149.3370  141.8639  153.3366 H   0  0  0  0  0  0  0  0  0  0  0  0
  147.4941  143.5195  154.3561 H   0  0  0  0  0  0  0  0  0  0  0  0
  146.9914  142.4401  153.0540 H   0  0  0  0  0  0  0  0  0  0  0  0
  146.5662  142.0743  156.0283 H   0  0  0  0  0  0  0  0  0  0  0  0
  145.3667  141.9128  154.7588 H   0  0  0  0  0  0  0  0  0  0  0  0
  146.8434  139.8248  155.9213 H   0  0  0  0  0  0  0  0  0  0  0  0
  145.0548  140.0353  153.7499 H   0  0  0  0  0  0  0  0  0  0  0  0
  144.2051  138.5395  152.8284 H   0  0  0  0  0  0  0  0  0  0  0  0
  146.5862  136.0279  152.1454 H   0  0  0  0  0  0  0  0  0  0  0  0
  143.0185  132.1600  151.6853 H   0  0  0  0  0  0  0  0  0  0  0  0
  145.9617  132.2253  150.6270 H   0  0  0  0  0  0  0  0  0  0  0  0
  144.9290  130.7234  150.8726 H   0  0  0  0  0  0  0  0  0  0  0  0
  143.2524  131.6138  149.2315 H   0  0  0  0  0  0  0  0  0  0  0  0
  144.2889  133.1140  148.9909 H   0  0  0  0  0  0  0  0  0  0  0  0
  142.3324  136.4804  152.8778 H   0  0  0  0  0  0  0  0  0  0  0  0
  1  2  1  0  0  0  0
  1 21  1  0  0  0  0
  1 22  1  0  0  0  0
  1 23  1  0  0  0  0
  2  3  1  0  0  0  0
  3  7  1  0  0  0  0
  3  4  1  0  0  0  0
  3 24  1  0  0  0  0
  4  5  1  0  0  0  0
  4 25  1  0  0  0  0
  4 26  1  0  0  0  0
  5  6  1  0  0  0  0
  5 27  1  0  0  0  0
  5 28  1  0  0  0  0
  6  7  1  0  0  0  0
  6 29  1  0  0  0  0
  6 30  1  0  0  0  0
  7  8  1  0  0  0  0
  7 31  1  0  0  0  0
  8  9  1  0  0  0  0
  8 32  1  0  0  0  0
  9 10  2  0  0  0  0
  9 11  1  0  0  0  0
 11 12  1  0  0  0  0
 11 33  1  0  0  0  0
 12 20  1  0  0  0  0
 12 13  2  0  0  0  0
 13 14  1  0  0  0  0
 13 34  1  0  0  0  0
 14 15  2  0  0  0  0
 15 16  1  0  0  0  0
 15 19  1  0  0  0  0
 16 18  1  0  0  0  0
 16 17  1  0  0  0  0
 16 35  1  0  0  0  0
 17 18  1  0  0  0  0
 17 36  1  0  0  0  0
 17 37  1  0  0  0  0
 18 38  1  0  0  0  0
 18 39  1  0  0  0  0
 19 20  2  0  0  0  0
 20 40  1  0  0  0  0
M  END
> <s_m_source_file>
AV-unprocessed.smi

> <i_m_source_file_index>
2709

> <i_lp_mmshare_version>
43012

> <i_f3d_flags>
0

> <s_epik_input>
W0NIM11PW0NAQEhdMVtDSDJdW0NIMl1bQ0gyXVtDQEhdMVtOSF1DKD1PKVtOSF1jMltjSF1uYyhuW2NIXTIpW0NIXTNbQ0gyXVtDSDJdMw==

> <s_epik_cmdline>
J2VwaWtfcHl0aG9uJywgJy1waCcsICc3LjAnLCAnLXRuJywgJzgnLCAnLW1hJywgJzIwMCcsICctbWV0YWxfYmluZGluZycsICctaW1hZScsICc8aW5maWxlLm1hZT4nLCAnLW9tYWUnLCAnPG91dGZpbGUubWFlPic=

> <r_lp_tautomer_probability>
1

> <r_epik_Ionization_Penalty>
2.49969e-05

> <r_epik_Ionization_Penalty_Charging>
0

> <r_epik_Ionization_Penalty_Neutral>
2.49969e-05

> <r_epik_State_Penalty>
-0

> <r_epik_Charging_Adjusted_Penalty>
0

> <i_epik_Tot_Q>
0

> <i_epik_Tot_abs_Q>
0

> <r_epik_Metal_State_Penalty>
-0

> <b_epik_Metal_Only>
0

> <s_lp_Force_Field>
OPLS_2005

> <r_lp_Energy>
17.9033

> <b_lp_Chiralities_Consistent>
1

> <s_lp_Variant>
AV-unprocessed.smi:2709-1

> <Gold.Version>
5.8.1

> <Gold.Id.Protein>
6NUR|6NUR_protein|mol2

> <Gold.PLP.Fitness>
41.7819

> <Gold.PLP.PLP>
-33.5454

> <Gold.PLP.part.hbond>
-2.0000

> <Gold.PLP.part.metal>
0.0000

> <Gold.PLP.part.buried>
-3.6626

> <Gold.PLP.part.nonpolar>
-28.2281

> <Gold.PLP.part.repulsive>
0.5350

> <Gold.PLP.ligand.clash>
0.0000

> <Gold.PLP.ligand.torsion>
0.4423

> <Gold.PLP.Chemscore.Hbond>
2.0000

> <Gold.PLP.Chemscore.CHOScore>
1.0000

> <Gold.PLP.Chemscore.Metal>
0.0000

> <Gold.Chemscore.Hbonds>
donor molecule, donor type, donor heavy atom, donor atom, acceptor molecule, acceptor atom, score
      L1  H     8    32       P1 10175  1.00
      L1  H    11    33       P1 10175  1.00
      L1  C    13    34       P1  7948  1.00

> <Gold.PLP.Chemscore.Internal.Correction>
0.1212

> <Gold.Rescore>
     Score         DG    S(hbond)    S(metal)    S(lipo)     H(rot)  DE(clash)    DE(int)     intcor
     15.65     -17.43       1.93        0.00      77.75       1.41       0.30       1.47       ----

> <Gold.Chemscore.Fitness>
15.6486

> <Gold.Chemscore.DG>
-17.4252

> <Gold.Chemscore.ZeroCoef>
-5.4800

> <Gold.Chemscore.Hbond>
1.9346

> <Gold.Chemscore.Metal>
0.0000

> <Gold.Chemscore.Lipo>
77.7516

> <Gold.Chemscore.Internal_Hbond>
0.0000

> <Gold.Chemscore.DEClash>
0.3031

> <Gold.Chemscore.DEInternal>
1.4735

> <Gold.Chemscore.Rot>
1.4114

> <Gold.Chemscore.Internal.Correction>
   9.000000E+99

> <Gold.Chemscore.Hbonds>
donor molecule, donor type, donor heavy atom, donor atom, acceptor molecule, acceptor atom, score
      L1  H     8    32       P1 10175  0.98
      L1  H    11    33       P1 10175  0.94

> <Gold.Chemscore.Hbond.Weighted>
-6.4616

> <Gold.Chemscore.Metal.Weighted>
-0.0000

> <Gold.Chemscore.Lipo.Weighted>
-9.0969

> <Gold.Chemscore.Internal_Hbond.Weighted>
0.0000

> <Gold.Chemscore.DEClash.Weighted>
0.3031

> <Gold.Chemscore.DEInternal.Weighted>
1.4735

> <Gold.Chemscore.Rot.Weighted>
3.6133

> <Gold.Chemscore.Internal.Correction.Weighted>
   9.000000E+99

> <Gold.Protein.RotatedTorsions>
[ 6907 6896 6895 6894 ] final -125.24 input  -60.11 | X-H torsion
[ 7974 7965 7964 7962 ] final  154.94 input  175.53 | X-H torsion
[ 8008 7997 7996 7995 ] final  125.63 input   59.86 | X-H torsion
[ 10167 10162 10161 10158 ] final   24.99 input  -65.29 | X-H torsion
[ 10718 10713 10712 10709 ] final -133.69 input   66.30 | X-H torsion
[ 10763 10752 10751 10750 ] final  -44.15 input  -60.55 | X-H torsion
[ 11005 11000 10999 10996 ] final  173.71 input  -57.11 | X-H torsion

> <Gold.Protein.ActiveResidues>
 VAL166  LYS551  ARG553  GLY616  TRP617  ASP618  TYR619  PRO620  LYS621  CYS622 
 ASP623  PHE694  ASN695  SER759  ASP760  ASP761  ALA762  ILE779  LEU786  VAL792 
 PHE793  MET794  SER795  GLU796  ALA797  LYS798  CYS799  TRP800  GLU811  SER814 

> <Gold.Protein.RotatedAtoms>
  150.8848  133.7322  159.2921 H   0  0  0  0  0  0  0  0  0  0  0  0  # atno 6907 bound_to 6896
  151.4892  135.1055  159.9808 H   0  0  0  0  0  0  0  0  0  0  0  0  # atno 6908 bound_to 6896
  152.4783  133.8145  159.7076 H   0  0  0  0  0  0  0  0  0  0  0  0  # atno 6909 bound_to 6896
  144.8056  139.7001  143.6163 H   0  0  0  0  0  0  0  0  0  0  0  0  # atno 7974 bound_to 7965
  156.2840  140.2712  156.1980 H   0  0  0  0  0  0  0  0  0  0  0  0  # atno 8008 bound_to 7997
  155.0390  140.0386  157.2520 H   0  0  0  0  0  0  0  0  0  0  0  0  # atno 8009 bound_to 7997
  154.7290  140.2703  155.6478 H   0  0  0  0  0  0  0  0  0  0  0  0  # atno 8010 bound_to 7997
  140.5143  144.0108  150.6387 H   0  0  0  0  0  0  0  0  0  0  0  0  # atno 10167 bound_to 10162
  156.2475  130.7133  151.1019 H   0  0  0  0  0  0  0  0  0  0  0  0  # atno 10718 bound_to 10713
  154.0073  135.6686  153.4763 H   0  0  0  0  0  0  0  0  0  0  0  0  # atno 10763 bound_to 10752
  153.0636  135.5014  154.8145 H   0  0  0  0  0  0  0  0  0  0  0  0  # atno 10764 bound_to 10752
  154.7016  135.3080  154.9295 H   0  0  0  0  0  0  0  0  0  0  0  0  # atno 10765 bound_to 10752
  140.3434  134.7257  157.4218 H   0  0  0  0  0  0  0  0  0  0  0  0  # atno 11005 bound_to 11000
  146.2347  139.5881  142.9532 LP  0  0  0  0  0  0  0  0  0  0  0  0  # atno 17320 bound_to 7965
  145.5446  141.0418  143.2312 LP  0  0  0  0  0  0  0  0  0  0  0  0  # atno 17321 bound_to 7965
  140.3440  143.3003  152.0558 LP  0  0  0  0  0  0  0  0  0  0  0  0  # atno 17342 bound_to 10162
  139.4905  144.6422  151.6853 LP  0  0  0  0  0  0  0  0  0  0  0  0  # atno 17343 bound_to 10162
  157.7201  131.0686  150.6170 LP  0  0  0  0  0  0  0  0  0  0  0  0  # atno 17370 bound_to 10713
  156.6248  130.4415  149.5808 LP  0  0  0  0  0  0  0  0  0  0  0  0  # atno 17371 bound_to 10713
  140.0762  134.5794  155.8589 LP  0  0  0  0  0  0  0  0  0  0  0  0  # atno 17394 bound_to 11000
  141.2032  133.6630  156.6050 LP  0  0  0  0  0  0  0  0  0  0  0  0  # atno 17395 bound_to 11000

$$$$
