AV-unprocessed.smi:89|AV-procd|sdf|826|dock8
  -GOLD-   2262017243D 1   1.00000     0.00000
 Structure written by MMmdl.
 54 56  0  0  0  0  0  0  0  0  1 V2000
  147.1679  140.9883  154.4505 C   0  0  0  0  0  0  0  0  0  0  0  0
  147.3712  139.6315  153.7542 C   0  0  0  0  0  0  0  0  0  0  0  0
  147.8742  138.5792  154.6406 N   0  0  0  0  0  0  0  0  0  0  0  0
  147.2221  137.3865  154.5845 C   0  0  0  0  0  0  0  0  0  0  0  0
  147.4053  136.4687  155.5698 N   0  0  0  0  0  0  0  0  0  0  0  0
  146.7746  135.2921  155.5261 C   0  0  0  0  0  0  0  0  0  0  0  0
  145.9278  134.8341  154.6030 N   0  0  0  0  0  0  0  0  0  0  0  0
  145.7411  135.7473  153.6078 C   0  0  0  0  0  0  0  0  0  0  0  0
  146.3497  137.0313  153.5165 C   0  0  0  0  0  0  0  0  0  0  0  0
  145.9172  137.6757  152.3636 N   0  0  0  0  0  0  0  0  0  0  0  0
  145.1009  136.8239  151.8070 C   0  0  0  0  0  0  0  0  0  0  0  0
  144.9283  135.6431  152.4926 N   0  0  0  0  0  0  0  0  0  0  0  0
  144.0696  134.5329  152.1100 C   0  0  0  0  0  0  0  0  0  0  0  0
  144.4922  133.8659  150.7804 C   0  0  2  0  0  0  0  0  0  0  0  0
  144.1130  134.7058  149.7034 O   0  0  0  0  0  0  0  0  0  0  0  0
  143.8852  132.4842  150.5541 C   0  0  0  0  0  0  0  0  0  0  0  0
  144.9586  131.7720  149.7434 C   0  0  0  0  0  0  0  0  0  0  0  0
  146.1559  132.2234  150.3533 O   0  0  0  0  0  0  0  0  0  0  0  0
  146.0079  133.6019  150.6802 C   0  0  0  0  0  0  0  0  0  0  0  0
  149.2480  138.6855  155.1601 C   0  0  2  0  0  0  0  0  0  0  0  0
  149.3745  139.6720  156.3366 C   0  0  0  0  0  0  0  0  0  0  0  0
  150.3217  138.9385  154.0745 C   0  0  0  0  0  0  0  0  0  0  0  0
  152.0307  138.5938  154.6912 S   0  0  0  0  0  0  0  0  0  0  0  0
  152.6554  137.6263  153.7760 O   0  0  0  0  0  0  0  0  0  0  0  0
  152.7023  139.8735  154.9627 O   0  0  0  0  0  0  0  0  0  0  0  0
  151.7113  137.7641  156.3095 C   0  0  0  0  0  0  0  0  0  0  0  0
  150.9937  136.4192  156.1428 C   0  0  0  0  0  0  0  0  0  0  0  0
  146.7360  141.7106  153.7578 H   0  0  0  0  0  0  0  0  0  0  0  0
  148.1116  141.4030  154.8054 H   0  0  0  0  0  0  0  0  0  0  0  0
  146.4965  140.9091  155.3044 H   0  0  0  0  0  0  0  0  0  0  0  0
  146.4184  139.3105  153.3327 H   0  0  0  0  0  0  0  0  0  0  0  0
  148.0395  139.7466  152.9020 H   0  0  0  0  0  0  0  0  0  0  0  0
  146.9765  134.6227  156.3492 H   0  0  0  0  0  0  0  0  0  0  0  0
  144.5899  137.0390  150.8798 H   0  0  0  0  0  0  0  0  0  0  0  0
  144.0713  133.8017  152.9196 H   0  0  0  0  0  0  0  0  0  0  0  0
  143.0461  134.9027  152.0351 H   0  0  0  0  0  0  0  0  0  0  0  0
  144.8241  134.7344  149.0817 H   0  0  0  0  0  0  0  0  0  0  0  0
  143.7668  131.9640  151.5051 H   0  0  0  0  0  0  0  0  0  0  0  0
  142.9112  132.5035  150.0627 H   0  0  0  0  0  0  0  0  0  0  0  0
  144.8696  130.6862  149.7851 H   0  0  0  0  0  0  0  0  0  0  0  0
  144.9348  132.0832  148.6979 H   0  0  0  0  0  0  0  0  0  0  0  0
  146.4827  134.2138  149.9114 H   0  0  0  0  0  0  0  0  0  0  0  0
  146.5263  133.8001  151.6188 H   0  0  0  0  0  0  0  0  0  0  0  0
  149.4804  137.7040  155.5746 H   0  0  0  0  0  0  0  0  0  0  0  0
  150.3865  139.6618  156.7416 H   0  0  0  0  0  0  0  0  0  0  0  0
  148.7053  139.4050  157.1535 H   0  0  0  0  0  0  0  0  0  0  0  0
  149.1543  140.6976  156.0431 H   0  0  0  0  0  0  0  0  0  0  0  0
  150.1553  138.3626  153.1658 H   0  0  0  0  0  0  0  0  0  0  0  0
  150.2935  139.9880  153.7861 H   0  0  0  0  0  0  0  0  0  0  0  0
  152.6748  137.6125  156.7962 H   0  0  0  0  0  0  0  0  0  0  0  0
  151.1325  138.4427  156.9363 H   0  0  0  0  0  0  0  0  0  0  0  0
  150.8688  135.9292  157.1086 H   0  0  0  0  0  0  0  0  0  0  0  0
  151.5611  135.7445  155.5017 H   0  0  0  0  0  0  0  0  0  0  0  0
  150.0022  136.5423  155.7094 H   0  0  0  0  0  0  0  0  0  0  0  0
  1  2  1  0  0  0  0
  1 28  1  0  0  0  0
  1 29  1  0  0  0  0
  1 30  1  0  0  0  0
  2  3  1  0  0  0  0
  2 31  1  0  0  0  0
  2 32  1  0  0  0  0
  3  4  1  0  0  0  0
  3 20  1  0  0  0  0
  4  9  1  0  0  0  0
  4  5  2  0  0  0  0
  5  6  1  0  0  0  0
  6  7  2  0  0  0  0
  6 33  1  0  0  0  0
  7  8  1  0  0  0  0
  8 12  1  0  0  0  0
  8  9  2  0  0  0  0
  9 10  1  0  0  0  0
 10 11  2  0  0  0  0
 11 12  1  0  0  0  0
 11 34  1  0  0  0  0
 12 13  1  0  0  0  0
 13 14  1  0  0  0  0
 13 35  1  0  0  0  0
 13 36  1  0  0  0  0
 14 19  1  0  0  0  0
 14 15  1  0  0  0  0
 14 16  1  0  0  0  0
 15 37  1  0  0  0  0
 16 17  1  0  0  0  0
 16 38  1  0  0  0  0
 16 39  1  0  0  0  0
 17 18  1  0  0  0  0
 17 40  1  0  0  0  0
 17 41  1  0  0  0  0
 18 19  1  0  0  0  0
 19 42  1  0  0  0  0
 19 43  1  0  0  0  0
 20 21  1  0  0  0  0
 20 22  1  0  0  0  0
 20 44  1  0  0  0  0
 21 45  1  0  0  0  0
 21 46  1  0  0  0  0
 21 47  1  0  0  0  0
 22 23  1  0  0  0  0
 22 48  1  0  0  0  0
 22 49  1  0  0  0  0
 23 24  2  0  0  0  0
 23 25  2  0  0  0  0
 23 26  1  0  0  0  0
 26 27  1  0  0  0  0
 26 50  1  0  0  0  0
 26 51  1  0  0  0  0
 27 52  1  0  0  0  0
 27 53  1  0  0  0  0
 27 54  1  0  0  0  0
M  END
> <s_m_source_file>
AV-unprocessed.smi

> <i_m_source_file_index>
89

> <i_lp_mmshare_version>
43012

> <i_f3d_flags>
0

> <s_epik_input>
W0NIM11bQ0gyXVMoPU8pKD1PKVtDSDJdW0NAQEhdKFtDSDNdKU4oW0NIMl1bQ0gzXSljKG5bY0hdbjEpYyhjMTIpbltjSF1uMltDSDJdW0NAQF0zKFtPSF0pW0NIMl1bQ0gyXU9bQ0gyXTM=

> <s_epik_cmdline>
J2VwaWtfcHl0aG9uJywgJy1waCcsICc3LjAnLCAnLXRuJywgJzgnLCAnLW1hJywgJzIwMCcsICctbWV0YWxfYmluZGluZycsICctaW1hZScsICc8aW5maWxlLm1hZT4nLCAnLW9tYWUnLCAnPG91dGZpbGUubWFlPic=

> <r_lp_tautomer_probability>
1

> <r_epik_Ionization_Penalty>
0.00103773

> <r_epik_Ionization_Penalty_Charging>
0

> <r_epik_Ionization_Penalty_Neutral>
0.00103773

> <r_epik_State_Penalty>
0.000558914

> <r_epik_Charging_Adjusted_Penalty>
0.000558914

> <i_epik_Tot_Q>
0

> <i_epik_Tot_abs_Q>
0

> <r_epik_Metal_State_Penalty>
-0

> <b_epik_Metal_Only>
0

> <s_lp_Force_Field>
OPLS_2005

> <r_lp_Energy>
26.3336

> <b_lp_Chiralities_Consistent>
1

> <s_lp_Variant>
AV-unprocessed.smi:89-2

> <Gold.Version>
5.8.1

> <Gold.Id.Protein>
6NUR|6NUR_protein|mol2

> <Gold.PLP.Fitness>
43.2010

> <Gold.PLP.PLP>
-32.7276

> <Gold.PLP.part.hbond>
-4.6616

> <Gold.PLP.part.metal>
0.0000

> <Gold.PLP.part.buried>
-4.1476

> <Gold.PLP.part.nonpolar>
-25.9850

> <Gold.PLP.part.repulsive>
0.7705

> <Gold.PLP.ligand.clash>
0.0000

> <Gold.PLP.ligand.torsion>
1.1540

> <Gold.PLP.Chemscore.Hbond>
2.8821

> <Gold.PLP.Chemscore.CHOScore>
0.9968

> <Gold.PLP.Chemscore.Metal>
0.0000

> <Gold.Chemscore.Hbonds>
donor molecule, donor type, donor heavy atom, donor atom, acceptor molecule, acceptor atom, score
      L1  H    15    37       P1  7921  1.00
      P1  H  7989  7998       L1    25  0.34
      P1  H  7997  8010       L1    25  1.00
      P1  H 10752 10764       L1    24  0.67
      L1  C    11    34       P1 10171  0.95

> <Gold.PLP.Chemscore.Internal.Correction>
1.1448

> <Gold.Rescore>
     Score         DG    S(hbond)    S(metal)    S(lipo)     H(rot)  DE(clash)    DE(int)     intcor
     11.50     -15.07       2.58        0.00      77.06       3.14       0.67       2.90       ----

> <Gold.Chemscore.Fitness>
11.5010

> <Gold.Chemscore.DG>
-15.0689

> <Gold.Chemscore.ZeroCoef>
-5.4800

> <Gold.Chemscore.Hbond>
2.5772

> <Gold.Chemscore.Metal>
0.0000

> <Gold.Chemscore.Lipo>
77.0609

> <Gold.Chemscore.Internal_Hbond>
0.0000

> <Gold.Chemscore.DEClash>
0.6718

> <Gold.Chemscore.DEInternal>
2.8961

> <Gold.Chemscore.Rot>
3.1386

> <Gold.Chemscore.Internal.Correction>
   9.000000E+99

> <Gold.Chemscore.Hbonds>
donor molecule, donor type, donor heavy atom, donor atom, acceptor molecule, acceptor atom, score
      L1  H    15    37       P1  7921  0.99
      P1  H  7989  7998       L1    25  0.03
      P1  H  7997  8010       L1    25  0.96
      P1  H 10752 10764       L1    24  0.65

> <Gold.Chemscore.Hbond.Weighted>
-8.6077

> <Gold.Chemscore.Metal.Weighted>
-0.0000

> <Gold.Chemscore.Lipo.Weighted>
-9.0161

> <Gold.Chemscore.Internal_Hbond.Weighted>
0.0000

> <Gold.Chemscore.DEClash.Weighted>
0.6718

> <Gold.Chemscore.DEInternal.Weighted>
2.8961

> <Gold.Chemscore.Rot.Weighted>
8.0349

> <Gold.Chemscore.Internal.Correction.Weighted>
   9.000000E+99

> <Gold.Protein.RotatedTorsions>
[ 6907 6896 6895 6894 ] final  101.05 input  -60.11 | X-H torsion
[ 7974 7965 7964 7962 ] final  -20.61 input  175.53 | X-H torsion
[ 8008 7997 7996 7995 ] final  101.44 input   59.86 | X-H torsion
[ 10167 10162 10161 10158 ] final -171.11 input  -65.29 | X-H torsion
[ 10718 10713 10712 10709 ] final  150.07 input   66.30 | X-H torsion
[ 10763 10752 10751 10750 ] final -112.51 input  -60.55 | X-H torsion
[ 11005 11000 10999 10996 ] final -171.34 input  -57.11 | X-H torsion

> <Gold.Protein.ActiveResidues>
 VAL166  LYS551  ARG553  GLY616  TRP617  ASP618  TYR619  PRO620  LYS621  CYS622 
 ASP623  PHE694  ASN695  SER759  ASP760  ASP761  ALA762  ILE779  LEU786  VAL792 
 PHE793  MET794  SER795  GLU796  ALA797  LYS798  CYS799  TRP800  GLU811  SER814 

> <Gold.Protein.RotatedAtoms>
  152.5358  134.0184  159.7970 H   0  0  0  0  0  0  0  0  0  0  0  0  # atno 6907 bound_to 6896
  151.0374  133.5728  159.2661 H   0  0  0  0  0  0  0  0  0  0  0  0  # atno 6908 bound_to 6896
  151.2710  135.0692  159.9187 H   0  0  0  0  0  0  0  0  0  0  0  0  # atno 6909 bound_to 6896
  146.1779  140.4226  142.8506 H   0  0  0  0  0  0  0  0  0  0  0  0  # atno 7974 bound_to 7965
  156.1299  140.3197  155.8334 H   0  0  0  0  0  0  0  0  0  0  0  0  # atno 8008 bound_to 7997
  155.4350  140.0521  157.3032 H   0  0  0  0  0  0  0  0  0  0  0  0  # atno 8009 bound_to 7997
  154.4891  140.2085  155.9600 H   0  0  0  0  0  0  0  0  0  0  0  0  # atno 8010 bound_to 7997
  139.5822  144.1398  152.1529 H   0  0  0  0  0  0  0  0  0  0  0  0  # atno 10167 bound_to 10162
  157.2881  131.0848  151.1482 H   0  0  0  0  0  0  0  0  0  0  0  0  # atno 10718 bound_to 10713
  154.8353  135.4488  154.1205 H   0  0  0  0  0  0  0  0  0  0  0  0  # atno 10763 bound_to 10752
  153.2443  135.6919  153.7755 H   0  0  0  0  0  0  0  0  0  0  0  0  # atno 10764 bound_to 10752
  153.7091  135.3359  155.3218 H   0  0  0  0  0  0  0  0  0  0  0  0  # atno 10765 bound_to 10752
  140.5093  134.5817  157.5014 H   0  0  0  0  0  0  0  0  0  0  0  0  # atno 11005 bound_to 11000
  144.8266  140.6638  143.6318 LP  0  0  0  0  0  0  0  0  0  0  0  0  # atno 17320 bound_to 7965
  145.4160  139.1572  143.4100 LP  0  0  0  0  0  0  0  0  0  0  0  0  # atno 17321 bound_to 7965
  140.0954  144.5585  150.7026 LP  0  0  0  0  0  0  0  0  0  0  0  0  # atno 17342 bound_to 10162
  140.7099  143.2496  151.4614 LP  0  0  0  0  0  0  0  0  0  0  0  0  # atno 17343 bound_to 10162
  157.2890  130.6787  149.6104 LP  0  0  0  0  0  0  0  0  0  0  0  0  # atno 17370 bound_to 10713
  155.9666  130.4426  150.5390 LP  0  0  0  0  0  0  0  0  0  0  0  0  # atno 17371 bound_to 10713
  139.9668  134.7360  156.0122 LP  0  0  0  0  0  0  0  0  0  0  0  0  # atno 17394 bound_to 11000
  141.1394  133.6568  156.3686 LP  0  0  0  0  0  0  0  0  0  0  0  0  # atno 17395 bound_to 11000

$$$$
