AV-unprocessed.smi:290|AV-procd|sdf|2218|dock8
  -GOLD-   2262022 63D 1   1.00000     0.00000
 Structure written by MMmdl.
 59 62  0  0  0  0  0  0  0  0  2 V2000
  151.4778  144.3366  158.6947 C   0  0  0  0  0  0  0  0  0  0  0  0
  152.1628  142.9918  158.4057 C   0  0  1  0  0  0  0  0  0  0  0  0
  152.7645  142.5374  159.6140 O   0  0  0  0  0  0  0  0  0  0  0  0
  152.8293  141.1236  159.5789 C   0  0  0  0  0  0  0  0  0  0  0  0
  151.4757  140.7539  158.9923 C   0  0  0  0  0  0  0  0  0  0  0  0
  151.2527  141.8247  157.9258 C   0  0  2  0  0  0  0  0  0  0  0  0
  151.7826  141.3347  156.7053 O   0  0  0  0  0  0  0  0  0  0  0  0
  149.7561  142.1681  157.7042 C   0  0  0  0  0  0  0  0  0  0  0  0
  149.1195  141.3520  156.6815 N   0  0  0  0  0  0  0  0  0  0  0  0
  148.7669  141.7437  155.4094 C   0  0  0  0  0  0  0  0  0  0  0  0
  148.2029  140.8208  154.6786 N   0  0  0  0  0  0  0  0  0  0  0  0
  148.1763  139.7044  155.5061 C   0  0  0  0  0  0  0  0  0  0  0  0
  147.7139  138.3660  155.3587 C   0  0  0  0  0  0  0  0  0  0  0  0
  147.1297  137.8664  154.2482 N   0  0  0  0  0  0  0  0  0  0  0  0
  145.9382  138.5750  153.7955 C   0  0  0  0  0  0  0  0  0  0  0  0
  145.0317  137.5418  153.1088 C   0  0  0  0  0  0  0  0  0  0  0  0
  145.8027  136.2108  153.1562 C   0  0  1  0  0  0  0  0  0  0  0  0
  146.3720  135.7696  151.8432 N   0  3  1  0  0  0  0  0  0  0  0  0
  146.7292  134.3294  151.8617 C   0  0  0  0  0  0  0  0  0  0  0  0
  145.5859  136.1572  150.6359 C   0  0  0  0  0  0  0  0  0  0  0  0
  144.5862  135.0751  150.1892 C   0  0  0  0  0  0  0  0  0  0  0  0
  144.0198  135.4128  148.9412 O   0  0  0  0  0  0  0  0  0  0  0  0
  146.8365  136.4397  154.2728 C   0  0  1  0  0  0  0  0  0  0  0  0
  148.0871  135.5417  154.2488 C   0  0  0  0  0  0  0  0  0  0  0  0
  147.8539  137.5234  156.4106 N   0  0  0  0  0  0  0  0  0  0  0  0
  148.4150  137.9580  157.5434 C   0  0  0  0  0  0  0  0  0  0  0  0
  148.8926  139.1720  157.8267 N   0  0  0  0  0  0  0  0  0  0  0  0
  148.7501  140.0214  156.7688 C   0  0  0  0  0  0  0  0  0  0  0  0
  145.1359  135.4181  153.4986 H   0  0  0  0  0  0  0  0  0  0  0  0
  146.3216  136.2363  155.2130 H   0  0  0  0  0  0  0  0  0  0  0  0
  151.0127  144.7491  157.7993 H   0  0  0  0  0  0  0  0  0  0  0  0
  152.2055  145.0672  159.0487 H   0  0  0  0  0  0  0  0  0  0  0  0
  150.7128  144.2397  159.4654 H   0  0  0  0  0  0  0  0  0  0  0  0
  152.9675  143.1640  157.6882 H   0  0  0  0  0  0  0  0  0  0  0  0
  153.6440  140.8047  158.9269 H   0  0  0  0  0  0  0  0  0  0  0  0
  152.9901  140.7025  160.5714 H   0  0  0  0  0  0  0  0  0  0  0  0
  151.4374  139.7328  158.6103 H   0  0  0  0  0  0  0  0  0  0  0  0
  150.7229  140.8421  159.7767 H   0  0  0  0  0  0  0  0  0  0  0  0
  151.3833  141.8090  155.9920 H   0  0  0  0  0  0  0  0  0  0  0  0
  149.1935  142.0381  158.6292 H   0  0  0  0  0  0  0  0  0  0  0  0
  149.6436  143.2147  157.4189 H   0  0  0  0  0  0  0  0  0  0  0  0
  148.9387  142.7440  155.0389 H   0  0  0  0  0  0  0  0  0  0  0  0
  145.4102  139.0730  154.6092 H   0  0  0  0  0  0  0  0  0  0  0  0
  146.2400  139.3461  153.0861 H   0  0  0  0  0  0  0  0  0  0  0  0
  144.1106  137.4457  153.6849 H   0  0  0  0  0  0  0  0  0  0  0  0
  144.7397  137.8466  152.1042 H   0  0  0  0  0  0  0  0  0  0  0  0
  145.8368  133.7040  151.9037 H   0  0  0  0  0  0  0  0  0  0  0  0
  147.3493  134.0916  152.7266 H   0  0  0  0  0  0  0  0  0  0  0  0
  147.3037  134.0443  150.9818 H   0  0  0  0  0  0  0  0  0  0  0  0
  145.0506  137.0874  150.8281 H   0  0  0  0  0  0  0  0  0  0  0  0
  146.2482  136.3551  149.7954 H   0  0  0  0  0  0  0  0  0  0  0  0
  145.0385  134.0858  150.1349 H   0  0  0  0  0  0  0  0  0  0  0  0
  143.7787  135.0042  150.9182 H   0  0  0  0  0  0  0  0  0  0  0  0
  144.6774  135.2999  148.2710 H   0  0  0  0  0  0  0  0  0  0  0  0
  147.8100  134.4884  154.2074 H   0  0  0  0  0  0  0  0  0  0  0  0
  148.6891  135.6849  155.1466 H   0  0  0  0  0  0  0  0  0  0  0  0
  148.7259  135.7566  153.3930 H   0  0  0  0  0  0  0  0  0  0  0  0
  148.4919  137.2289  158.3366 H   0  0  0  0  0  0  0  0  0  0  0  0
  147.2490  136.2648  151.7616 H   0  0  0  0  0  0  0  0  0  0  0  0
  1  2  1  0  0  0  0
  1 31  1  0  0  0  0
  1 32  1  0  0  0  0
  1 33  1  0  0  0  0
  2  6  1  0  0  0  0
  2  3  1  0  0  0  0
  2 34  1  0  0  0  0
  3  4  1  0  0  0  0
  4  5  1  0  0  0  0
  4 35  1  0  0  0  0
  4 36  1  0  0  0  0
  5  6  1  0  0  0  0
  5 37  1  0  0  0  0
  5 38  1  0  0  0  0
  6  7  1  0  0  0  0
  6  8  1  0  0  0  0
  7 39  1  0  0  0  0
  8  9  1  0  0  0  0
  8 40  1  0  0  0  0
  8 41  1  0  0  0  0
  9 28  1  0  0  0  0
  9 10  1  0  0  0  0
 10 11  2  0  0  0  0
 10 42  1  0  0  0  0
 11 12  1  0  0  0  0
 12 28  2  0  0  0  0
 12 13  1  0  0  0  0
 13 14  1  0  0  0  0
 13 25  2  0  0  0  0
 14 23  1  0  0  0  0
 14 15  1  0  0  0  0
 15 16  1  0  0  0  0
 15 43  1  0  0  0  0
 15 44  1  0  0  0  0
 16 17  1  0  0  0  0
 16 45  1  0  0  0  0
 16 46  1  0  0  0  0
 17 29  1  0  0  0  0
 17 18  1  0  0  0  0
 17 23  1  0  0  0  0
 18 19  1  0  0  0  0
 18 20  1  0  0  0  0
 18 59  1  0  0  0  0
 19 47  1  0  0  0  0
 19 48  1  0  0  0  0
 19 49  1  0  0  0  0
 20 21  1  0  0  0  0
 20 50  1  0  0  0  0
 20 51  1  0  0  0  0
 21 22  1  0  0  0  0
 21 52  1  0  0  0  0
 21 53  1  0  0  0  0
 22 54  1  0  0  0  0
 23 30  1  0  0  0  0
 23 24  1  0  0  0  0
 24 55  1  0  0  0  0
 24 56  1  0  0  0  0
 24 57  1  0  0  0  0
 25 26  1  0  0  0  0
 26 27  2  0  0  0  0
 26 58  1  0  0  0  0
 27 28  1  0  0  0  0
M  CHG  1  18   1
M  END
> <s_m_source_file>
AV-unprocessed.smi

> <i_m_source_file_index>
290

> <i_lp_mmshare_version>
43012

> <i_f3d_flags>
0

> <s_epik_input>
W0NIMl0xW0NIMl1PW0NAQEhdKFtDSDNdKVtDQEBdMShbT0hdKVtDSDJdbihbY0hdbjIpYyhjMjMpbltjSF1uYzNONFtDSDJdW0NIMl1bQ0BIXShbQ0BIXTRbQ0gzXSlOKFtDSDNdKVtDSDJdW0NIMl1bT0hd

> <s_epik_cmdline>
J2VwaWtfcHl0aG9uJywgJy1waCcsICc3LjAnLCAnLXRuJywgJzgnLCAnLW1hJywgJzIwMCcsICctbWV0YWxfYmluZGluZycsICctaW1hZScsICc8aW5maWxlLm1hZT4nLCAnLW9tYWUnLCAnPG91dGZpbGUubWFlPic=

> <r_lp_tautomer_probability>
1

> <r_epik_Ionization_Penalty>
0.0036983

> <r_epik_Ionization_Penalty_Charging>
0.0032725

> <r_epik_Ionization_Penalty_Neutral>
0.000425798

> <r_epik_State_Penalty>
-0

> <r_epik_Charging_Adjusted_Penalty>
0.0032725

> <i_epik_Tot_Q>
1

> <i_epik_Tot_abs_Q>
1

> <r_epik_Metal_State_Penalty>
-0

> <b_epik_Metal_Only>
0

> <s_lp_Force_Field>
OPLS_2005

> <r_lp_Energy>
69.1694

> <b_lp_Chiralities_Consistent>
1

> <s_lp_Variant>
AV-unprocessed.smi:290-4

> <Gold.Version>
5.8.1

> <Gold.Id.Protein>
6NUR|6NUR_protein|mol2

> <Gold.PLP.Fitness>
42.3404

> <Gold.PLP.PLP>
-33.2785

> <Gold.PLP.part.hbond>
-2.7027

> <Gold.PLP.part.metal>
0.0000

> <Gold.PLP.part.buried>
-5.0320

> <Gold.PLP.part.nonpolar>
-25.2145

> <Gold.PLP.part.repulsive>
0.2182

> <Gold.PLP.ligand.clash>
0.0000

> <Gold.PLP.ligand.torsion>
1.6023

> <Gold.PLP.Chemscore.Hbond>
3.0000

> <Gold.PLP.Chemscore.CHOScore>
0.9782

> <Gold.PLP.Chemscore.Metal>
0.0000

> <Gold.Chemscore.Hbonds>
donor molecule, donor type, donor heavy atom, donor atom, acceptor molecule, acceptor atom, score
      L1  H    18    59       P1  7948  1.92
      L1  H    22    54       P1  7921  1.00
      L1  C    10    42       P1  8028  1.00

> <Gold.PLP.Chemscore.Internal.Correction>
0.3320

> <Gold.Rescore>
     Score         DG    S(hbond)    S(metal)    S(lipo)     H(rot)  DE(clash)    DE(int)     intcor
      8.65     -11.51       2.00        0.00      74.75       3.67       0.05       2.82       ----

> <Gold.Chemscore.Fitness>
8.6482

> <Gold.Chemscore.DG>
-11.5145

> <Gold.Chemscore.ZeroCoef>
-5.4800

> <Gold.Chemscore.Hbond>
1.9979

> <Gold.Chemscore.Metal>
0.0000

> <Gold.Chemscore.Lipo>
74.7516

> <Gold.Chemscore.Internal_Hbond>
0.0000

> <Gold.Chemscore.DEClash>
0.0456

> <Gold.Chemscore.DEInternal>
2.8207

> <Gold.Chemscore.Rot>
3.6658

> <Gold.Chemscore.Internal.Correction>
   9.000000E+99

> <Gold.Chemscore.Hbonds>
donor molecule, donor type, donor heavy atom, donor atom, acceptor molecule, acceptor atom, score
      L1  H    18    59       P1  7948  0.92
      L1  H    22    54       P1  7921  0.99

> <Gold.Chemscore.Hbond.Weighted>
-6.6730

> <Gold.Chemscore.Metal.Weighted>
-0.0000

> <Gold.Chemscore.Lipo.Weighted>
-8.7459

> <Gold.Chemscore.Internal_Hbond.Weighted>
0.0000

> <Gold.Chemscore.DEClash.Weighted>
0.0456

> <Gold.Chemscore.DEInternal.Weighted>
2.8207

> <Gold.Chemscore.Rot.Weighted>
9.3844

> <Gold.Chemscore.Internal.Correction.Weighted>
   9.000000E+99

> <Gold.Protein.RotatedTorsions>
[ 6907 6896 6895 6894 ] final  -56.84 input  -60.11 | X-H torsion
[ 7974 7965 7964 7962 ] final   30.98 input  175.53 | X-H torsion
[ 8008 7997 7996 7995 ] final  -83.44 input   59.86 | X-H torsion
[ 10167 10162 10161 10158 ] final -177.32 input  -65.29 | X-H torsion
[ 10718 10713 10712 10709 ] final -148.58 input   66.30 | X-H torsion
[ 10763 10752 10751 10750 ] final   14.28 input  -60.55 | X-H torsion
[ 11005 11000 10999 10996 ] final  -89.87 input  -57.11 | X-H torsion

> <Gold.Protein.ActiveResidues>
 VAL166  LYS551  ARG553  GLY616  TRP617  ASP618  TYR619  PRO620  LYS621  CYS622 
 ASP623  PHE694  ASN695  SER759  ASP760  ASP761  ALA762  ILE779  LEU786  VAL792 
 PHE793  MET794  SER795  GLU796  ALA797  LYS798  CYS799  TRP800  GLU811  SER814 

> <Gold.Protein.RotatedAtoms>
  150.8135  134.7303  159.6708 H   0  0  0  0  0  0  0  0  0  0  0  0  # atno 6907 bound_to 6896
  152.4254  134.5874  159.9974 H   0  0  0  0  0  0  0  0  0  0  0  0  # atno 6908 bound_to 6896
  151.6078  133.3313  159.3097 H   0  0  0  0  0  0  0  0  0  0  0  0  # atno 6909 bound_to 6896
  146.1578  139.6717  142.9054 H   0  0  0  0  0  0  0  0  0  0  0  0  # atno 7974 bound_to 7965
  154.6191  140.0619  156.9592 H   0  0  0  0  0  0  0  0  0  0  0  0  # atno 8008 bound_to 7997
  155.1847  140.3302  155.4350 H   0  0  0  0  0  0  0  0  0  0  0  0  # atno 8009 bound_to 7997
  156.2421  140.1891  156.6941 H   0  0  0  0  0  0  0  0  0  0  0  0  # atno 8010 bound_to 7997
  139.5486  144.2170  152.1034 H   0  0  0  0  0  0  0  0  0  0  0  0  # atno 10167 bound_to 10162
  156.4221  130.8034  151.2257 H   0  0  0  0  0  0  0  0  0  0  0  0  # atno 10718 bound_to 10713
  153.1638  135.6800  153.8705 H   0  0  0  0  0  0  0  0  0  0  0  0  # atno 10763 bound_to 10752
  153.8091  135.3145  155.3400 H   0  0  0  0  0  0  0  0  0  0  0  0  # atno 10764 bound_to 10752
  154.7951  135.4812  154.0232 H   0  0  0  0  0  0  0  0  0  0  0  0  # atno 10765 bound_to 10752
  141.1576  133.7657  156.9657 H   0  0  0  0  0  0  0  0  0  0  0  0  # atno 11005 bound_to 11000
  145.4663  141.0434  143.2723 LP  0  0  0  0  0  0  0  0  0  0  0  0  # atno 17320 bound_to 7965
  144.7987  139.6183  143.7081 LP  0  0  0  0  0  0  0  0  0  0  0  0  # atno 17321 bound_to 7965
  140.1661  144.4980  150.6605 LP  0  0  0  0  0  0  0  0  0  0  0  0  # atno 17342 bound_to 10162
  140.6741  143.2298  151.5550 LP  0  0  0  0  0  0  0  0  0  0  0  0  # atno 17343 bound_to 10162
  157.7508  131.0225  150.3793 LP  0  0  0  0  0  0  0  0  0  0  0  0  # atno 17370 bound_to 10713
  156.4113  130.3934  149.6890 LP  0  0  0  0  0  0  0  0  0  0  0  0  # atno 17371 bound_to 10713
  140.1163  134.9445  157.2139 LP  0  0  0  0  0  0  0  0  0  0  0  0  # atno 17394 bound_to 11000
  140.3129  134.3003  155.7263 LP  0  0  0  0  0  0  0  0  0  0  0  0  # atno 17395 bound_to 11000

$$$$
