AV-unprocessed.smi:196|AV-procd|sdf|1540|dock5
  -GOLD-   2262019393D 1   1.00000     0.00000
 Structure written by MMmdl.
 47 50  0  0  0  0  0  0  0  0  1 V2000
  146.7989  133.6113  162.2661 C   0  0  0  0  0  0  0  0  0  0  0  0
  146.7690  135.1093  162.6074 C   0  0  2  0  0  0  0  0  0  0  0  0
  145.4010  135.4926  162.7257 O   0  0  0  0  0  0  0  0  0  0  0  0
  145.2626  136.8414  162.3154 C   0  0  0  0  0  0  0  0  0  0  0  0
  146.1977  136.9172  161.1184 C   0  0  0  0  0  0  0  0  0  0  0  0
  147.3925  136.0781  161.5625 C   0  0  1  0  0  0  0  0  0  0  0  0
  148.2899  136.9325  162.2529 O   0  0  0  0  0  0  0  0  0  0  0  0
  148.1649  135.4233  160.3866 C   0  0  0  0  0  0  0  0  0  0  0  0
  148.7571  136.3904  159.4739 N   0  0  0  0  0  0  0  0  0  0  0  0
  149.9137  137.1116  159.6736 C   0  0  0  0  0  0  0  0  0  0  0  0
  150.2397  137.9248  158.7058 N   0  0  0  0  0  0  0  0  0  0  0  0
  149.2335  137.7448  157.7662 C   0  0  0  0  0  0  0  0  0  0  0  0
  148.9610  138.3129  156.4952 C   0  0  0  0  0  0  0  0  0  0  0  0
  149.7781  139.2371  155.9405 N   0  0  0  0  0  0  0  0  0  0  0  0
  149.5484  140.6049  156.3963 C   0  0  0  0  0  0  0  0  0  0  0  0
  150.9257  141.1843  156.7233 C   0  0  1  0  0  0  0  0  0  0  0  0
  151.1924  140.9917  158.0162 F   0  0  0  0  0  0  0  0  0  0  0  0
  151.8691  140.3382  155.8757 C   0  0  0  0  0  0  0  0  0  0  0  0
  151.2173  138.9486  155.9068 C   0  0  2  0  0  0  0  0  0  0  0  0
  151.6632  138.0832  154.7131 C   0  0  0  0  0  0  0  0  0  0  0  0
  150.7603  137.7472  153.7855 N   0  0  0  0  0  0  0  0  0  0  0  0
  152.8321  137.7116  154.6350 O   0  0  0  0  0  0  0  0  0  0  0  0
  147.8572  137.8849  155.8290 N   0  0  0  0  0  0  0  0  0  0  0  0
  147.0626  136.9623  156.3803 C   0  0  0  0  0  0  0  0  0  0  0  0
  147.1874  136.3496  157.5601 N   0  0  0  0  0  0  0  0  0  0  0  0
  148.2974  136.7784  158.2274 C   0  0  0  0  0  0  0  0  0  0  0  0
  151.0028  142.2538  156.5265 H   0  0  0  0  0  0  0  0  0  0  0  0
  151.5271  138.4431  156.8230 H   0  0  0  0  0  0  0  0  0  0  0  0
  147.8206  133.2425  162.1748 H   0  0  0  0  0  0  0  0  0  0  0  0
  146.2739  133.4029  161.3335 H   0  0  0  0  0  0  0  0  0  0  0  0
  146.3124  133.0305  163.0499 H   0  0  0  0  0  0  0  0  0  0  0  0
  147.2377  135.2485  163.5836 H   0  0  0  0  0  0  0  0  0  0  0  0
  144.2300  137.0814  162.0618 H   0  0  0  0  0  0  0  0  0  0  0  0
  145.5892  137.5079  163.1151 H   0  0  0  0  0  0  0  0  0  0  0  0
  145.7070  136.4484  160.2649 H   0  0  0  0  0  0  0  0  0  0  0  0
  146.4544  137.9389  160.8349 H   0  0  0  0  0  0  0  0  0  0  0  0
  148.9933  136.4080  162.6035 H   0  0  0  0  0  0  0  0  0  0  0  0
  148.9623  134.7821  160.7644 H   0  0  0  0  0  0  0  0  0  0  0  0
  147.5034  134.7819  159.8038 H   0  0  0  0  0  0  0  0  0  0  0  0
  150.5090  137.0192  160.5703 H   0  0  0  0  0  0  0  0  0  0  0  0
  149.0957  141.1564  155.5719 H   0  0  0  0  0  0  0  0  0  0  0  0
  148.8683  140.6760  157.2476 H   0  0  0  0  0  0  0  0  0  0  0  0
  151.8949  140.7317  154.8578 H   0  0  0  0  0  0  0  0  0  0  0  0
  152.8904  140.3356  156.2587 H   0  0  0  0  0  0  0  0  0  0  0  0
  151.0372  137.1807  152.9963 H   0  0  0  0  0  0  0  0  0  0  0  0
  149.8053  138.0617  153.8771 H   0  0  0  0  0  0  0  0  0  0  0  0
  146.2044  136.6733  155.7920 H   0  0  0  0  0  0  0  0  0  0  0  0
  1  2  1  0  0  0  0
  1 29  1  0  0  0  0
  1 30  1  0  0  0  0
  1 31  1  0  0  0  0
  2  6  1  0  0  0  0
  2  3  1  0  0  0  0
  2 32  1  0  0  0  0
  3  4  1  0  0  0  0
  4  5  1  0  0  0  0
  4 33  1  0  0  0  0
  4 34  1  0  0  0  0
  5  6  1  0  0  0  0
  5 35  1  0  0  0  0
  5 36  1  0  0  0  0
  6  7  1  0  0  0  0
  6  8  1  0  0  0  0
  7 37  1  0  0  0  0
  8  9  1  0  0  0  0
  8 38  1  0  0  0  0
  8 39  1  0  0  0  0
  9 26  1  0  0  0  0
  9 10  1  0  0  0  0
 10 11  2  0  0  0  0
 10 40  1  0  0  0  0
 11 12  1  0  0  0  0
 12 26  2  0  0  0  0
 12 13  1  0  0  0  0
 13 14  1  0  0  0  0
 13 23  2  0  0  0  0
 14 19  1  0  0  0  0
 14 15  1  0  0  0  0
 15 16  1  0  0  0  0
 15 41  1  0  0  0  0
 15 42  1  0  0  0  0
 16 27  1  0  0  0  0
 16 17  1  0  0  0  0
 16 18  1  0  0  0  0
 18 19  1  0  0  0  0
 18 43  1  0  0  0  0
 18 44  1  0  0  0  0
 19 28  1  0  0  0  0
 19 20  1  0  0  0  0
 20 21  1  0  0  0  0
 20 22  2  0  0  0  0
 21 45  1  0  0  0  0
 21 46  1  0  0  0  0
 23 24  1  0  0  0  0
 24 25  2  0  0  0  0
 24 47  1  0  0  0  0
 25 26  1  0  0  0  0
M  END
> <s_m_source_file>
AV-unprocessed.smi

> <i_m_source_file_index>
196

> <i_lp_mmshare_version>
43012

> <i_f3d_flags>
0

> <s_epik_input>
W0NIMl0xW0NIMl1PW0NAQEhdKFtDSDNdKVtDQEBdMShbT0hdKVtDSDJdbihbY0hdbjIpYyhjMjMpbltjSF1uYzNONFtDSDJdW0NASF0oRilbQ0gyXVtDQEhdNEMoPU8pW05IMl0=

> <s_epik_cmdline>
J2VwaWtfcHl0aG9uJywgJy1waCcsICc3LjAnLCAnLXRuJywgJzgnLCAnLW1hJywgJzIwMCcsICctbWV0YWxfYmluZGluZycsICctaW1hZScsICc8aW5maWxlLm1hZT4nLCAnLW9tYWUnLCAnPG91dGZpbGUubWFlPic=

> <r_lp_tautomer_probability>
1

> <r_epik_Ionization_Penalty>
0.000857933

> <r_epik_Ionization_Penalty_Charging>
0

> <r_epik_Ionization_Penalty_Neutral>
0.000857933

> <r_epik_State_Penalty>
0.000462053

> <r_epik_Charging_Adjusted_Penalty>
0.000462053

> <i_epik_Tot_Q>
0

> <i_epik_Tot_abs_Q>
0

> <r_epik_Metal_State_Penalty>
-0

> <b_epik_Metal_Only>
0

> <s_lp_Force_Field>
OPLS_2005

> <r_lp_Energy>
46.05

> <b_lp_Chiralities_Consistent>
1

> <s_lp_Variant>
AV-unprocessed.smi:196-13

> <Gold.Version>
5.8.1

> <Gold.Id.Protein>
6NUR|6NUR_protein|mol2

> <Gold.PLP.Fitness>
43.0727

> <Gold.PLP.PLP>
-37.1539

> <Gold.PLP.part.hbond>
-4.0000

> <Gold.PLP.part.metal>
0.0000

> <Gold.PLP.part.buried>
-5.7724

> <Gold.PLP.part.nonpolar>
-28.8648

> <Gold.PLP.part.repulsive>
0.1913

> <Gold.PLP.ligand.clash>
0.0000

> <Gold.PLP.ligand.torsion>
0.7335

> <Gold.PLP.Chemscore.Hbond>
2.4072

> <Gold.PLP.Chemscore.CHOScore>
0.0000

> <Gold.PLP.Chemscore.Metal>
0.0000

> <Gold.Chemscore.Hbonds>
donor molecule, donor type, donor heavy atom, donor atom, acceptor molecule, acceptor atom, score
      L1  H    21    45       P1  7949  1.00
      P1  H  6931  6943       L1     7  1.00
      P1  H 10752 10765       L1    22  0.38

> <Gold.PLP.Chemscore.Internal.Correction>
0.1643

> <Gold.Rescore>
     Score         DG    S(hbond)    S(metal)    S(lipo)     H(rot)  DE(clash)    DE(int)     intcor
     10.30     -11.65       1.81        0.00      67.77       3.04       0.13       1.22       ----

> <Gold.Chemscore.Fitness>
10.2997

> <Gold.Chemscore.DG>
-11.6543

> <Gold.Chemscore.ZeroCoef>
-5.4800

> <Gold.Chemscore.Hbond>
1.8057

> <Gold.Chemscore.Metal>
0.0000

> <Gold.Chemscore.Lipo>
67.7679

> <Gold.Chemscore.Internal_Hbond>
0.0000

> <Gold.Chemscore.DEClash>
0.1310

> <Gold.Chemscore.DEInternal>
1.2236

> <Gold.Chemscore.Rot>
3.0413

> <Gold.Chemscore.Internal.Correction>
   9.000000E+99

> <Gold.Chemscore.Hbonds>
donor molecule, donor type, donor heavy atom, donor atom, acceptor molecule, acceptor atom, score
      L1  H    21    45       P1  7949  0.35
      P1  H  6931  6943       L1     7  0.28
      P1  H 10752 10765       L1    22  0.31

> <Gold.Chemscore.Hbond.Weighted>
-6.0311

> <Gold.Chemscore.Metal.Weighted>
-0.0000

> <Gold.Chemscore.Lipo.Weighted>
-7.9289

> <Gold.Chemscore.Internal_Hbond.Weighted>
0.0000

> <Gold.Chemscore.DEClash.Weighted>
0.1310

> <Gold.Chemscore.DEInternal.Weighted>
1.2236

> <Gold.Chemscore.Rot.Weighted>
7.7856

> <Gold.Chemscore.Internal.Correction.Weighted>
   9.000000E+99

> <Gold.Protein.RotatedTorsions>
[ 6907 6896 6895 6894 ] final -121.28 input  -60.11 | X-H torsion
[ 7974 7965 7964 7962 ] final   10.75 input  175.53 | X-H torsion
[ 8008 7997 7996 7995 ] final -112.23 input   59.86 | X-H torsion
[ 10167 10162 10161 10158 ] final   -7.44 input  -65.29 | X-H torsion
[ 10718 10713 10712 10709 ] final   61.01 input   66.30 | X-H torsion
[ 10763 10752 10751 10750 ] final  158.22 input  -60.55 | X-H torsion
[ 11005 11000 10999 10996 ] final   80.73 input  -57.11 | X-H torsion

> <Gold.Protein.ActiveResidues>
 VAL166  LYS551  ARG553  GLY616  TRP617  ASP618  TYR619  PRO620  LYS621  CYS622 
 ASP623  PHE694  ASN695  SER759  ASP760  ASP761  ALA762  ILE779  LEU786  VAL792 
 PHE793  MET794  SER795  GLU796  ALA797  LYS798  CYS799  TRP800  GLU811  SER814 

> <Gold.Protein.RotatedAtoms>
  150.8469  133.7847  159.3039 H   0  0  0  0  0  0  0  0  0  0  0  0  # atno 6907 bound_to 6896
  151.5531  135.1065  159.9964 H   0  0  0  0  0  0  0  0  0  0  0  0  # atno 6908 bound_to 6896
  152.4521  133.7607  159.6801 H   0  0  0  0  0  0  0  0  0  0  0  0  # atno 6909 bound_to 6896
  146.2383  139.9588  142.8461 H   0  0  0  0  0  0  0  0  0  0  0  0  # atno 7974 bound_to 7965
  155.0020  140.0394  157.2364 H   0  0  0  0  0  0  0  0  0  0  0  0  # atno 8008 bound_to 7997
  154.7536  140.2771  155.6249 H   0  0  0  0  0  0  0  0  0  0  0  0  # atno 8009 bound_to 7997
  156.2890  140.2642  156.2295 H   0  0  0  0  0  0  0  0  0  0  0  0  # atno 8010 bound_to 7997
  140.7029  143.6081  150.8731 H   0  0  0  0  0  0  0  0  0  0  0  0  # atno 10167 bound_to 10162
  157.5796  130.8970  149.9407 H   0  0  0  0  0  0  0  0  0  0  0  0  # atno 10718 bound_to 10713
  154.2126  135.2785  155.2953 H   0  0  0  0  0  0  0  0  0  0  0  0  # atno 10763 bound_to 10752
  154.5766  135.5602  153.7149 H   0  0  0  0  0  0  0  0  0  0  0  0  # atno 10764 bound_to 10752
  153.0060  135.6334  154.2265 H   0  0  0  0  0  0  0  0  0  0  0  0  # atno 10765 bound_to 10752
  139.9124  134.7942  156.1947 H   0  0  0  0  0  0  0  0  0  0  0  0  # atno 11005 bound_to 11000
  145.1791  140.9758  143.4277 LP  0  0  0  0  0  0  0  0  0  0  0  0  # atno 17320 bound_to 7965
  144.9958  139.3645  143.6192 LP  0  0  0  0  0  0  0  0  0  0  0  0  # atno 17321 bound_to 7965
  139.9804  143.5958  152.2945 LP  0  0  0  0  0  0  0  0  0  0  0  0  # atno 17342 bound_to 10162
  139.6576  144.7662  151.2024 LP  0  0  0  0  0  0  0  0  0  0  0  0  # atno 17343 bound_to 10162
  156.0841  130.3670  150.0522 LP  0  0  0  0  0  0  0  0  0  0  0  0  # atno 17370 bound_to 10713
  156.8663  130.9509  151.3613 LP  0  0  0  0  0  0  0  0  0  0  0  0  # atno 17371 bound_to 10713
  141.0562  133.6864  156.1864 LP  0  0  0  0  0  0  0  0  0  0  0  0  # atno 17394 bound_to 11000
  140.6733  134.4844  157.5588 LP  0  0  0  0  0  0  0  0  0  0  0  0  # atno 17395 bound_to 11000

$$$$
