AV-unprocessed.smi:1830|AV-procd|sdf|7451|dock7
  -GOLD-   22720 9143D 1   1.00000     0.00000
 Structure written by MMmdl.
 54 57  0  0  0  0  0  0  0  0  3 V2000
  149.3496  132.3603  154.8808 O   0  0  0  0  0  0  0  0  0  0  0  0
  148.9563  133.1762  154.0480 C   0  0  0  0  0  0  0  0  0  0  0  0
  149.3555  134.4554  154.0216 N   0  0  0  0  0  0  0  0  0  0  0  0
  150.2494  135.0705  154.9981 C   0  0  0  0  0  0  0  0  0  0  0  0
  150.3169  136.6043  154.8716 C   0  0  1  0  0  0  0  0  0  0  0  0
  149.8232  137.3411  156.1424 C   0  0  0  0  0  0  0  0  0  0  0  0
  150.0732  138.7842  155.9708 N   0  3  1  0  0  0  0  0  0  0  0  0
  149.6769  139.6968  157.0572 C   0  0  0  0  0  0  0  0  0  0  0  0
  150.5663  140.9425  156.8690 C   0  0  0  0  0  0  0  0  0  0  0  0
  151.5700  140.5765  155.7602 C   0  0  0  0  0  0  0  0  0  0  0  0
  151.4888  139.0540  155.7102 C   0  0  2  0  0  0  0  0  0  0  0  0
  151.8996  138.3481  154.4124 C   0  0  0  0  0  0  0  0  0  0  0  0
  151.6795  136.9489  154.5986 O   0  0  0  0  0  0  0  0  0  0  0  0
  148.0696  132.9204  153.0712 N   0  0  0  0  0  0  0  0  0  0  0  0
  147.3590  131.7105  152.8252 C   0  0  0  0  0  0  0  0  0  0  0  0
  147.7277  130.4974  153.4620 C   0  0  0  0  0  0  0  0  0  0  0  0
  146.9917  129.3226  153.2191 C   0  0  0  0  0  0  0  0  0  0  0  0
  145.8983  129.3755  152.3385 C   0  0  0  0  0  0  0  0  0  0  0  0
  145.5850  130.5387  151.7319 N   0  3  0  0  0  0  0  0  0  0  0  0
  146.2635  131.6997  151.9123 C   0  0  0  0  0  0  0  0  0  0  0  0
  145.8238  132.8361  151.1950 N   0  0  0  0  0  0  0  0  0  0  0  0
  145.5517  134.0893  151.8901 C   0  0  0  0  0  0  0  0  0  0  0  0
  144.7794  134.9406  150.8860 C   0  0  0  0  0  0  0  0  0  0  0  0
  143.9531  133.8979  150.1394 C   0  0  0  0  0  0  0  0  0  0  0  0
  144.8639  132.6658  150.1090 C   0  0  0  0  0  0  0  0  0  0  0  0
  148.9832  135.0591  153.3031 H   0  0  0  0  0  0  0  0  0  0  0  0
  149.9014  134.7969  155.9947 H   0  0  0  0  0  0  0  0  0  0  0  0
  151.2481  134.6422  154.8964 H   0  0  0  0  0  0  0  0  0  0  0  0
  149.7141  136.9192  154.0178 H   0  0  0  0  0  0  0  0  0  0  0  0
  148.7571  137.1744  156.2997 H   0  0  0  0  0  0  0  0  0  0  0  0
  150.3457  136.9758  157.0280 H   0  0  0  0  0  0  0  0  0  0  0  0
  148.6131  139.9292  157.0063 H   0  0  0  0  0  0  0  0  0  0  0  0
  149.8795  139.2349  158.0246 H   0  0  0  0  0  0  0  0  0  0  0  0
  149.9798  141.8180  156.5884 H   0  0  0  0  0  0  0  0  0  0  0  0
  151.0836  141.1787  157.7995 H   0  0  0  0  0  0  0  0  0  0  0  0
  151.2455  141.0030  154.8100 H   0  0  0  0  0  0  0  0  0  0  0  0
  152.5780  140.9382  155.9653 H   0  0  0  0  0  0  0  0  0  0  0  0
  152.0799  138.6521  156.5362 H   0  0  0  0  0  0  0  0  0  0  0  0
  151.3288  138.7140  153.5575 H   0  0  0  0  0  0  0  0  0  0  0  0
  152.9547  138.5203  154.1994 H   0  0  0  0  0  0  0  0  0  0  0  0
  147.7764  133.7150  152.5222 H   0  0  0  0  0  0  0  0  0  0  0  0
  148.5710  130.4465  154.1338 H   0  0  0  0  0  0  0  0  0  0  0  0
  147.2614  128.3956  153.7037 H   0  0  0  0  0  0  0  0  0  0  0  0
  145.2739  128.5279  152.0950 H   0  0  0  0  0  0  0  0  0  0  0  0
  144.9329  133.9114  152.7704 H   0  0  0  0  0  0  0  0  0  0  0  0
  146.4734  134.5773  152.2091 H   0  0  0  0  0  0  0  0  0  0  0  0
  144.1707  135.7107  151.3603 H   0  0  0  0  0  0  0  0  0  0  0  0
  145.4714  135.4293  150.1985 H   0  0  0  0  0  0  0  0  0  0  0  0
  143.0493  133.6731  150.7074 H   0  0  0  0  0  0  0  0  0  0  0  0
  143.6504  134.2260  149.1447 H   0  0  0  0  0  0  0  0  0  0  0  0
  145.4070  132.6287  149.1643 H   0  0  0  0  0  0  0  0  0  0  0  0
  144.2876  131.7448  150.2087 H   0  0  0  0  0  0  0  0  0  0  0  0
  149.5699  139.0830  155.1475 H   0  0  0  0  0  0  0  0  0  0  0  0
  144.7917  130.5421  151.0905 H   0  0  0  0  0  0  0  0  0  0  0  0
  1  2  2  0  0  0  0
  2  3  1  0  0  0  0
  2 14  1  0  0  0  0
  3  4  1  0  0  0  0
  3 26  1  0  0  0  0
  4  5  1  0  0  0  0
  4 27  1  0  0  0  0
  4 28  1  0  0  0  0
  5 13  1  0  0  0  0
  5  6  1  0  0  0  0
  5 29  1  0  0  0  0
  6  7  1  0  0  0  0
  6 30  1  0  0  0  0
  6 31  1  0  0  0  0
  7 11  1  0  0  0  0
  7  8  1  0  0  0  0
  7 53  1  0  0  0  0
  8  9  1  0  0  0  0
  8 32  1  0  0  0  0
  8 33  1  0  0  0  0
  9 10  1  0  0  0  0
  9 34  1  0  0  0  0
  9 35  1  0  0  0  0
 10 11  1  0  0  0  0
 10 36  1  0  0  0  0
 10 37  1  0  0  0  0
 11 12  1  0  0  0  0
 11 38  1  0  0  0  0
 12 13  1  0  0  0  0
 12 39  1  0  0  0  0
 12 40  1  0  0  0  0
 14 15  1  0  0  0  0
 14 41  1  0  0  0  0
 15 20  1  0  0  0  0
 15 16  2  0  0  0  0
 16 17  1  0  0  0  0
 16 42  1  0  0  0  0
 17 18  2  0  0  0  0
 17 43  1  0  0  0  0
 18 19  1  0  0  0  0
 18 44  1  0  0  0  0
 19 20  2  0  0  0  0
 19 54  1  0  0  0  0
 20 21  1  0  0  0  0
 21 25  1  0  0  0  0
 21 22  1  0  0  0  0
 22 23  1  0  0  0  0
 22 45  1  0  0  0  0
 22 46  1  0  0  0  0
 23 24  1  0  0  0  0
 23 47  1  0  0  0  0
 23 48  1  0  0  0  0
 24 25  1  0  0  0  0
 24 49  1  0  0  0  0
 24 50  1  0  0  0  0
 25 51  1  0  0  0  0
 25 52  1  0  0  0  0
M  CHG  1   7   1
M  CHG  1  19   1
M  END
> <s_m_source_file>
AV-unprocessed.smi

> <i_m_source_file_index>
1830

> <i_lp_mmshare_version>
43012

> <i_f3d_flags>
0

> <s_epik_input>
W0NIMl0xW0NIMl1bQ0gyXVtDQEhdKE4xMilbQ0gyXU9bQ0BASF0oW0NIMl0yKVtDSDJdW05IXUMoPU8pW05IXWMzW2NIXVtjSF1bY0hdbmMzTjRbQ0gyXVtDSDJdW0NIMl1bQ0gyXTQ=

> <s_epik_cmdline>
J2VwaWtfcHl0aG9uJywgJy1waCcsICc3LjAnLCAnLXRuJywgJzgnLCAnLW1hJywgJzIwMCcsICctbWV0YWxfYmluZGluZycsICctaW1hZScsICc8aW5maWxlLm1hZT4nLCAnLW9tYWUnLCAnPG91dGZpbGUubWFlPic=

> <r_lp_tautomer_probability>
0.999994

> <r_epik_Ionization_Penalty>
1.29113

> <r_epik_Ionization_Penalty_Charging>
1.29111

> <r_epik_Ionization_Penalty_Neutral>
1.88144e-05

> <r_epik_State_Penalty>
1.32676

> <r_epik_Charging_Adjusted_Penalty>
2.61787

> <i_epik_Tot_Q>
2

> <i_epik_Tot_abs_Q>
2

> <r_epik_Metal_State_Penalty>
1.40425

> <b_epik_Metal_Only>
0

> <s_lp_Force_Field>
OPLS_2005

> <r_lp_Energy>
72.9797

> <b_lp_Chiralities_Consistent>
1

> <s_lp_Variant>
AV-unprocessed.smi:1830-20

> <Gold.Version>
5.8.1

> <Gold.Id.Protein>
6NUR|6NUR_protein|mol2

> <Gold.PLP.Fitness>
44.0529

> <Gold.PLP.PLP>
-39.7369

> <Gold.PLP.part.hbond>
-2.0000

> <Gold.PLP.part.metal>
0.0000

> <Gold.PLP.part.buried>
-4.9095

> <Gold.PLP.part.nonpolar>
-32.7224

> <Gold.PLP.part.repulsive>
0.3565

> <Gold.PLP.ligand.clash>
0.0000

> <Gold.PLP.ligand.torsion>
1.0396

> <Gold.PLP.Chemscore.Hbond>
2.0000

> <Gold.PLP.Chemscore.CHOScore>
0.0000

> <Gold.PLP.Chemscore.Metal>
0.0000

> <Gold.Chemscore.Hbonds>
donor molecule, donor type, donor heavy atom, donor atom, acceptor molecule, acceptor atom, score
      L1  H     3    26       P1  7948  1.00
      P1  H 10752 10765       L1    13  1.00

> <Gold.PLP.Chemscore.Internal.Correction>
0.3951

> <Gold.Rescore>
     Score         DG    S(hbond)    S(metal)    S(lipo)     H(rot)  DE(clash)    DE(int)     intcor
     14.91     -17.55       1.30        0.00      97.17       1.43       0.22       2.42       ----

> <Gold.Chemscore.Fitness>
14.9070

> <Gold.Chemscore.DG>
-17.5521

> <Gold.Chemscore.ZeroCoef>
-5.4800

> <Gold.Chemscore.Hbond>
1.3048

> <Gold.Chemscore.Metal>
0.0000

> <Gold.Chemscore.Lipo>
97.1732

> <Gold.Chemscore.Internal_Hbond>
0.0000

> <Gold.Chemscore.DEClash>
0.2227

> <Gold.Chemscore.DEInternal>
2.4224

> <Gold.Chemscore.Rot>
1.4278

> <Gold.Chemscore.Internal.Correction>
   9.000000E+99

> <Gold.Chemscore.Hbonds>
donor molecule, donor type, donor heavy atom, donor atom, acceptor molecule, acceptor atom, score
      L1  H     3    26       P1  7948  0.30
      P1  H 10752 10765       L1    13  0.98

> <Gold.Chemscore.Hbond.Weighted>
-4.3579

> <Gold.Chemscore.Metal.Weighted>
-0.0000

> <Gold.Chemscore.Lipo.Weighted>
-11.3693

> <Gold.Chemscore.Internal_Hbond.Weighted>
0.0000

> <Gold.Chemscore.DEClash.Weighted>
0.2227

> <Gold.Chemscore.DEInternal.Weighted>
2.4224

> <Gold.Chemscore.Rot.Weighted>
3.6551

> <Gold.Chemscore.Internal.Correction.Weighted>
   9.000000E+99

> <Gold.Protein.RotatedTorsions>
[ 6907 6896 6895 6894 ] final  127.86 input  -60.11 | X-H torsion
[ 7974 7965 7964 7962 ] final -126.61 input  175.53 | X-H torsion
[ 8008 7997 7996 7995 ] final  116.02 input   59.86 | X-H torsion
[ 10167 10162 10161 10158 ] final  -74.17 input  -65.29 | X-H torsion
[ 10718 10713 10712 10709 ] final   26.34 input   66.30 | X-H torsion
[ 10763 10752 10751 10750 ] final  166.15 input  -60.55 | X-H torsion
[ 11005 11000 10999 10996 ] final  -29.47 input  -57.11 | X-H torsion

> <Gold.Protein.ActiveResidues>
 VAL166  LYS551  ARG553  GLY616  TRP617  ASP618  TYR619  PRO620  LYS621  CYS622 
 ASP623  PHE694  ASN695  SER759  ASP760  ASP761  ALA762  ILE779  LEU786  VAL792 
 PHE793  MET794  SER795  GLU796  ALA797  LYS798  CYS799  TRP800  GLU811  SER814 

> <Gold.Protein.RotatedAtoms>
  152.3773  133.6499  159.6133 H   0  0  0  0  0  0  0  0  0  0  0  0  # atno 6907 bound_to 6896
  150.7714  133.9171  159.3396 H   0  0  0  0  0  0  0  0  0  0  0  0  # atno 6908 bound_to 6896
  151.6983  135.0936  160.0297 H   0  0  0  0  0  0  0  0  0  0  0  0  # atno 6909 bound_to 6896
  144.9855  140.7682  143.4586 H   0  0  0  0  0  0  0  0  0  0  0  0  # atno 7974 bound_to 7965
  156.2415  140.2926  156.0458 H   0  0  0  0  0  0  0  0  0  0  0  0  # atno 8008 bound_to 7997
  155.1936  140.0407  157.2922 H   0  0  0  0  0  0  0  0  0  0  0  0  # atno 8009 bound_to 7997
  154.6177  140.2468  155.7595 H   0  0  0  0  0  0  0  0  0  0  0  0  # atno 8010 bound_to 7997
  140.5049  143.2354  151.7690 H   0  0  0  0  0  0  0  0  0  0  0  0  # atno 10167 bound_to 10162
  157.2055  130.6909  149.6206 H   0  0  0  0  0  0  0  0  0  0  0  0  # atno 10718 bound_to 10713
  154.3347  135.2754  155.2454 H   0  0  0  0  0  0  0  0  0  0  0  0  # atno 10763 bound_to 10752
  154.4750  135.5873  153.6352 H   0  0  0  0  0  0  0  0  0  0  0  0  # atno 10764 bound_to 10752
  152.9863  135.6097  154.3542 H   0  0  0  0  0  0  0  0  0  0  0  0  # atno 10765 bound_to 10752
  140.9299  133.7345  156.0921 H   0  0  0  0  0  0  0  0  0  0  0  0  # atno 11005 bound_to 11000
  145.2359  139.2094  143.5018 LP  0  0  0  0  0  0  0  0  0  0  0  0  # atno 17320 bound_to 7965
  146.3419  140.2245  142.8592 LP  0  0  0  0  0  0  0  0  0  0  0  0  # atno 17321 bound_to 7965
  139.4881  144.4471  151.9697 LP  0  0  0  0  0  0  0  0  0  0  0  0  # atno 17342 bound_to 10162
  140.3561  144.3030  150.5941 LP  0  0  0  0  0  0  0  0  0  0  0  0  # atno 17343 bound_to 10162
  155.9696  130.4568  150.5940 LP  0  0  0  0  0  0  0  0  0  0  0  0  # atno 17370 bound_to 10713
  157.3725  131.0768  151.1546 LP  0  0  0  0  0  0  0  0  0  0  0  0  # atno 17371 bound_to 10713
  140.7877  134.3653  157.5472 LP  0  0  0  0  0  0  0  0  0  0  0  0  # atno 17394 bound_to 11000
  139.8794  134.9121  156.3052 LP  0  0  0  0  0  0  0  0  0  0  0  0  # atno 17395 bound_to 11000

$$$$
