AV-unprocessed.smi:1404|AV-procd|sdf|5706|dock10
  -GOLD-   22720 5343D 1   1.00000     0.00000
 Structure written by MMmdl.
 48 49  0  0  0  0  0  0  0  0  2 V2000
  153.5645  141.3014  160.5584 C   0  0  0  0  0  0  0  0  0  0  0  0
  152.7064  142.1954  159.8089 N   0  0  0  0  0  0  0  0  0  0  0  0
  152.2996  143.4172  160.3982 C   0  0  0  0  0  0  0  0  0  0  0  0
  152.6506  143.7603  161.5275 O   0  0  0  0  0  0  0  0  0  0  0  0
  151.4271  144.2300  159.5589 C   0  0  0  0  0  0  0  0  0  0  0  0
  151.0577  143.8105  158.3291 C   0  0  0  0  0  0  0  0  0  0  0  0
  151.4644  142.6081  157.7800 N   0  0  0  0  0  0  0  0  0  0  0  0
  151.0023  142.2229  156.4410 C   0  0  0  0  0  0  0  0  0  0  0  0
  149.8445  141.2191  156.4921 C   0  0  0  0  0  0  0  0  0  0  0  0
  150.0430  140.0559  156.8442 O   0  0  0  0  0  0  0  0  0  0  0  0
  148.6382  141.6874  156.1380 N   0  0  0  0  0  0  0  0  0  0  0  0
  147.4067  140.9022  156.0611 C   0  0  0  0  0  0  0  0  0  0  0  0
  146.6048  141.1039  154.7369 C   0  0  0  0  0  0  0  0  0  0  0  0
  146.6553  142.6139  154.3822 C   0  0  0  0  0  0  0  0  0  0  0  0
  147.2584  140.3260  153.5673 C   0  0  0  0  0  0  0  0  0  0  0  0
  145.1842  140.6448  154.9656 N   0  3  0  0  0  0  0  0  0  0  0  0
  145.0074  139.2274  155.3949 C   0  0  0  0  0  0  0  0  0  0  0  0
  143.5158  138.8511  155.4500 C   0  0  0  0  0  0  0  0  0  0  0  0
  142.8162  139.7399  156.3083 O   0  0  0  0  0  0  0  0  0  0  0  0
  142.8929  141.0800  155.8459 C   0  0  0  0  0  0  0  0  0  0  0  0
  144.3618  141.5299  155.8406 C   0  0  0  0  0  0  0  0  0  0  0  0
  152.3112  141.7594  158.5253 C   0  0  0  0  0  0  0  0  0  0  0  0
  152.6821  140.6764  158.0643 O   0  0  0  0  0  0  0  0  0  0  0  0
  153.9292  141.7746  161.4694 H   0  0  0  0  0  0  0  0  0  0  0  0
  154.4156  141.0498  159.9229 H   0  0  0  0  0  0  0  0  0  0  0  0
  152.9715  140.4175  160.7992 H   0  0  0  0  0  0  0  0  0  0  0  0
  151.0698  145.1801  159.9286 H   0  0  0  0  0  0  0  0  0  0  0  0
  150.4065  144.4482  157.7489 H   0  0  0  0  0  0  0  0  0  0  0  0
  150.6668  143.1024  155.8898 H   0  0  0  0  0  0  0  0  0  0  0  0
  151.8351  141.8128  155.8658 H   0  0  0  0  0  0  0  0  0  0  0  0
  148.5734  142.6593  155.8708 H   0  0  0  0  0  0  0  0  0  0  0  0
  147.6540  139.8557  156.2316 H   0  0  0  0  0  0  0  0  0  0  0  0
  146.7859  141.1954  156.9086 H   0  0  0  0  0  0  0  0  0  0  0  0
  147.6781  142.9836  154.3088 H   0  0  0  0  0  0  0  0  0  0  0  0
  146.1463  143.2191  155.1331 H   0  0  0  0  0  0  0  0  0  0  0  0
  146.2045  142.8250  153.4124 H   0  0  0  0  0  0  0  0  0  0  0  0
  148.2297  140.7442  153.3023 H   0  0  0  0  0  0  0  0  0  0  0  0
  146.6472  140.3627  152.6656 H   0  0  0  0  0  0  0  0  0  0  0  0
  147.4259  139.2777  153.8146 H   0  0  0  0  0  0  0  0  0  0  0  0
  145.4783  138.5351  154.6995 H   0  0  0  0  0  0  0  0  0  0  0  0
  145.4676  139.0728  156.3714 H   0  0  0  0  0  0  0  0  0  0  0  0
  143.0744  138.8702  154.4522 H   0  0  0  0  0  0  0  0  0  0  0  0
  143.3997  137.8349  155.8272 H   0  0  0  0  0  0  0  0  0  0  0  0
  142.4506  141.1674  154.8523 H   0  0  0  0  0  0  0  0  0  0  0  0
  142.3086  141.7148  156.5122 H   0  0  0  0  0  0  0  0  0  0  0  0
  144.7388  141.5032  156.8636 H   0  0  0  0  0  0  0  0  0  0  0  0
  144.3994  142.5672  155.5162 H   0  0  0  0  0  0  0  0  0  0  0  0
  144.7531  140.6899  154.0534 H   0  0  0  0  0  0  0  0  0  0  0  0
  1  2  1  0  0  0  0
  1 24  1  0  0  0  0
  1 25  1  0  0  0  0
  1 26  1  0  0  0  0
  2 22  1  0  0  0  0
  2  3  1  0  0  0  0
  3  4  2  0  0  0  0
  3  5  1  0  0  0  0
  5  6  2  0  0  0  0
  5 27  1  0  0  0  0
  6  7  1  0  0  0  0
  6 28  1  0  0  0  0
  7  8  1  0  0  0  0
  7 22  1  0  0  0  0
  8  9  1  0  0  0  0
  8 29  1  0  0  0  0
  8 30  1  0  0  0  0
  9 10  2  0  0  0  0
  9 11  1  0  0  0  0
 11 12  1  0  0  0  0
 11 31  1  0  0  0  0
 12 13  1  0  0  0  0
 12 32  1  0  0  0  0
 12 33  1  0  0  0  0
 13 14  1  0  0  0  0
 13 15  1  0  0  0  0
 13 16  1  0  0  0  0
 14 34  1  0  0  0  0
 14 35  1  0  0  0  0
 14 36  1  0  0  0  0
 15 37  1  0  0  0  0
 15 38  1  0  0  0  0
 15 39  1  0  0  0  0
 16 21  1  0  0  0  0
 16 17  1  0  0  0  0
 16 48  1  0  0  0  0
 17 18  1  0  0  0  0
 17 40  1  0  0  0  0
 17 41  1  0  0  0  0
 18 19  1  0  0  0  0
 18 42  1  0  0  0  0
 18 43  1  0  0  0  0
 19 20  1  0  0  0  0
 20 21  1  0  0  0  0
 20 44  1  0  0  0  0
 20 45  1  0  0  0  0
 21 46  1  0  0  0  0
 21 47  1  0  0  0  0
 22 23  2  0  0  0  0
M  CHG  1  16   1
M  END
> <s_m_source_file>
AV-unprocessed.smi

> <i_m_source_file_index>
1404

> <i_lp_mmshare_version>
43012

> <i_f3d_flags>
0

> <s_epik_input>
W0NIM11uMWMoPU8pW2NIXVtjSF1uKGMxPU8pW0NIMl1DKD1PKVtOSF1bQ0gyXUMoW0NIM10pKFtDSDNdKU4yW0NIMl1bQ0gyXU9bQ0gyXVtDSDJdMg==

> <s_epik_cmdline>
J2VwaWtfcHl0aG9uJywgJy1waCcsICc3LjAnLCAnLXRuJywgJzgnLCAnLW1hJywgJzIwMCcsICctbWV0YWxfYmluZGluZycsICctaW1hZScsICc8aW5maWxlLm1hZT4nLCAnLW9tYWUnLCAnPG91dGZpbGUubWFlPic=

> <r_lp_tautomer_probability>
1

> <r_epik_Ionization_Penalty>
0.656654

> <r_epik_Ionization_Penalty_Charging>
0.656653

> <r_epik_Ionization_Penalty_Neutral>
9.12373e-08

> <r_epik_State_Penalty>
0.675641

> <r_epik_Charging_Adjusted_Penalty>
1.33229

> <i_epik_Tot_Q>
1

> <i_epik_Tot_abs_Q>
1

> <r_epik_Metal_State_Penalty>
0.675694

> <b_epik_Metal_Only>
0

> <s_lp_Force_Field>
OPLS_2005

> <r_lp_Energy>
33.2005

> <b_lp_Chiralities_Consistent>
1

> <s_lp_Variant>
AV-unprocessed.smi:1404-2

> <Gold.Version>
5.8.1

> <Gold.Id.Protein>
6NUR|6NUR_protein|mol2

> <Gold.PLP.Fitness>
48.9138

> <Gold.PLP.PLP>
-37.7805

> <Gold.PLP.part.hbond>
-2.6444

> <Gold.PLP.part.metal>
0.0000

> <Gold.PLP.part.buried>
-3.2914

> <Gold.PLP.part.nonpolar>
-31.3588

> <Gold.PLP.part.repulsive>
0.2466

> <Gold.PLP.ligand.clash>
0.0000

> <Gold.PLP.ligand.torsion>
0.8208

> <Gold.PLP.Chemscore.Hbond>
3.1755

> <Gold.PLP.Chemscore.CHOScore>
1.0518

> <Gold.PLP.Chemscore.Metal>
0.0000

> <Gold.Chemscore.Hbonds>
donor molecule, donor type, donor heavy atom, donor atom, acceptor molecule, acceptor atom, score
      L1  H    11    31       P1  8028  0.86
      L1  H    16    48       P1 10175  2.00
      P1  H  7997  8008       L1    23  0.38
      L1  C     6    28       P1  8028  0.92

> <Gold.PLP.Chemscore.Internal.Correction>
0.0930

> <Gold.Rescore>
     Score         DG    S(hbond)    S(metal)    S(lipo)     H(rot)  DE(clash)    DE(int)     intcor
     14.43     -16.88       2.75        0.00      65.66       2.14       0.17       2.28       ----

> <Gold.Chemscore.Fitness>
14.4327

> <Gold.Chemscore.DG>
-16.8811

> <Gold.Chemscore.ZeroCoef>
-5.4800

> <Gold.Chemscore.Hbond>
2.7522

> <Gold.Chemscore.Metal>
0.0000

> <Gold.Chemscore.Lipo>
65.6607

> <Gold.Chemscore.Internal_Hbond>
0.0000

> <Gold.Chemscore.DEClash>
0.1708

> <Gold.Chemscore.DEInternal>
2.2776

> <Gold.Chemscore.Rot>
2.1381

> <Gold.Chemscore.Internal.Correction>
   9.000000E+99

> <Gold.Chemscore.Hbonds>
donor molecule, donor type, donor heavy atom, donor atom, acceptor molecule, acceptor atom, score
      L1  H    11    31       P1  8028  0.84
      L1  H    16    48       P1 10175  0.99
      P1  H  7997  8008       L1    23  0.38

> <Gold.Chemscore.Hbond.Weighted>
-9.1922

> <Gold.Chemscore.Metal.Weighted>
-0.0000

> <Gold.Chemscore.Lipo.Weighted>
-7.6823

> <Gold.Chemscore.Internal_Hbond.Weighted>
0.0000

> <Gold.Chemscore.DEClash.Weighted>
0.1708

> <Gold.Chemscore.DEInternal.Weighted>
2.2776

> <Gold.Chemscore.Rot.Weighted>
5.4735

> <Gold.Chemscore.Internal.Correction.Weighted>
   9.000000E+99

> <Gold.Protein.RotatedTorsions>
[ 6907 6896 6895 6894 ] final -130.79 input  -60.11 | X-H torsion
[ 7974 7965 7964 7962 ] final   -7.30 input  175.53 | X-H torsion
[ 8008 7997 7996 7995 ] final  -77.04 input   59.86 | X-H torsion
[ 10167 10162 10161 10158 ] final -155.02 input  -65.29 | X-H torsion
[ 10718 10713 10712 10709 ] final  -69.75 input   66.30 | X-H torsion
[ 10763 10752 10751 10750 ] final  -91.95 input  -60.55 | X-H torsion
[ 11005 11000 10999 10996 ] final  -39.85 input  -57.11 | X-H torsion

> <Gold.Protein.ActiveResidues>
 VAL166  LYS551  ARG553  GLY616  TRP617  ASP618  TYR619  PRO620  LYS621  CYS622 
 ASP623  PHE694  ASN695  SER759  ASP760  ASP761  ALA762  ILE779  LEU786  VAL792 
 PHE793  MET794  SER795  GLU796  ALA797  LYS798  CYS799  TRP800  GLU811  SER814 

> <Gold.Protein.RotatedAtoms>
  150.9436  133.6628  159.2785 H   0  0  0  0  0  0  0  0  0  0  0  0  # atno 6907 bound_to 6896
  151.4008  135.0969  159.9565 H   0  0  0  0  0  0  0  0  0  0  0  0  # atno 6908 bound_to 6896
  152.5080  133.8931  159.7458 H   0  0  0  0  0  0  0  0  0  0  0  0  # atno 6909 bound_to 6896
  146.2310  140.2299  142.8340 H   0  0  0  0  0  0  0  0  0  0  0  0  # atno 7974 bound_to 7965
  154.5560  140.0717  156.8744 H   0  0  0  0  0  0  0  0  0  0  0  0  # atno 8008 bound_to 7997
  155.2902  140.3377  155.4235 H   0  0  0  0  0  0  0  0  0  0  0  0  # atno 8009 bound_to 7997
  156.2002  140.1719  156.7901 H   0  0  0  0  0  0  0  0  0  0  0  0  # atno 8010 bound_to 7997
  139.6965  143.9333  152.2409 H   0  0  0  0  0  0  0  0  0  0  0  0  # atno 10167 bound_to 10162
  156.0440  130.4318  150.2193 H   0  0  0  0  0  0  0  0  0  0  0  0  # atno 10718 bound_to 10713
  154.6812  135.5249  153.8265 H   0  0  0  0  0  0  0  0  0  0  0  0  # atno 10763 bound_to 10752
  153.0566  135.6553  154.0573 H   0  0  0  0  0  0  0  0  0  0  0  0  # atno 10764 bound_to 10752
  154.0460  135.2973  155.3327 H   0  0  0  0  0  0  0  0  0  0  0  0  # atno 10765 bound_to 10752
  141.0132  133.6898  156.2242 H   0  0  0  0  0  0  0  0  0  0  0  0  # atno 11005 bound_to 11000
  144.9566  140.8233  143.5539 LP  0  0  0  0  0  0  0  0  0  0  0  0  # atno 17320 bound_to 7965
  145.2265  139.2134  143.5065 LP  0  0  0  0  0  0  0  0  0  0  0  0  # atno 17321 bound_to 7965
  139.9164  144.6826  150.8508 LP  0  0  0  0  0  0  0  0  0  0  0  0  # atno 17342 bound_to 10162
  140.7698  143.3406  151.2216 LP  0  0  0  0  0  0  0  0  0  0  0  0  # atno 17343 bound_to 10162
  157.0285  131.0000  151.3319 LP  0  0  0  0  0  0  0  0  0  0  0  0  # atno 17370 bound_to 10713
  157.5294  130.8048  149.7899 LP  0  0  0  0  0  0  0  0  0  0  0  0  # atno 17371 bound_to 10713
  140.6698  134.4879  157.5587 LP  0  0  0  0  0  0  0  0  0  0  0  0  # atno 17394 bound_to 11000
  139.9102  134.8362  156.1557 LP  0  0  0  0  0  0  0  0  0  0  0  0  # atno 17395 bound_to 11000

$$$$
