AV-unprocessed.smi:85|AV-procd|sdf|811|dock4
  -GOLD-   2262017203D 1   1.00000     0.00000
 Structure written by MMmdl.
 62 65  0  0  0  0  0  0  0  0  1 V2000
  153.7617  138.6354  161.2048 C   0  0  0  0  0  0  0  0  0  0  0  0
  154.2290  139.5791  160.0839 C   0  0  0  0  0  0  0  0  0  0  0  0
  153.1260  140.2271  159.3654 N   0  0  0  0  0  0  0  0  0  0  0  0
  152.2582  139.4161  158.7124 C   0  0  0  0  0  0  0  0  0  0  0  0
  151.6095  138.4810  159.4514 N   0  0  0  0  0  0  0  0  0  0  0  0
  150.7360  137.6545  158.8695 C   0  0  0  0  0  0  0  0  0  0  0  0
  150.3719  137.5934  157.5874 N   0  0  0  0  0  0  0  0  0  0  0  0
  151.0287  138.5246  156.8380 C   0  0  0  0  0  0  0  0  0  0  0  0
  151.9875  139.4632  157.3143 C   0  0  0  0  0  0  0  0  0  0  0  0
  152.4611  140.2300  156.2566 N   0  0  0  0  0  0  0  0  0  0  0  0
  151.8135  139.7781  155.2188 C   0  0  0  0  0  0  0  0  0  0  0  0
  150.9139  138.7687  155.4796 N   0  0  0  0  0  0  0  0  0  0  0  0
  150.0586  138.0932  154.5131 C   0  0  0  0  0  0  0  0  0  0  0  0
  148.6436  138.7224  154.3384 C   0  0  0  0  0  0  0  0  0  0  0  0
  147.7883  138.5116  155.6207 C   0  0  0  0  0  0  0  0  0  0  0  0
  147.6213  137.1431  155.9328 O   0  0  0  0  0  0  0  0  0  0  0  0
  148.7712  140.2400  154.0461 C   0  0  0  0  0  0  0  0  0  0  0  0
  147.4627  140.8730  153.5366 C   0  0  0  0  0  0  0  0  0  0  0  0
  146.9944  140.1779  152.3890 O   0  0  0  0  0  0  0  0  0  0  0  0
  146.6954  138.8146  152.6571 C   0  0  0  0  0  0  0  0  0  0  0  0
  147.9730  138.0791  153.0981 C   0  0  0  0  0  0  0  0  0  0  0  0
  152.4820  141.4220  159.9258 C   0  0  1  0  0  0  0  0  0  0  0  0
  153.0187  141.7957  161.3169 C   0  0  0  0  0  0  0  0  0  0  0  0
  152.2963  143.0417  161.8465 C   0  0  0  0  0  0  0  0  0  0  0  0
  152.4243  144.1249  160.9265 O   0  0  0  0  0  0  0  0  0  0  0  0
  151.9152  143.9027  159.6065 C   0  0  0  0  0  0  0  0  0  0  0  0
  150.3744  143.8033  159.6224 C   0  0  0  0  0  0  0  0  0  0  0  0
  152.3248  145.1493  158.8041 C   0  0  0  0  0  0  0  0  0  0  0  0
  152.5872  142.6474  158.9988 C   0  0  0  0  0  0  0  0  0  0  0  0
  154.6144  138.1306  161.6587 H   0  0  0  0  0  0  0  0  0  0  0  0
  153.0910  137.8682  160.8170 H   0  0  0  0  0  0  0  0  0  0  0  0
  153.2403  139.1680  161.9999 H   0  0  0  0  0  0  0  0  0  0  0  0
  154.9061  140.3309  160.4876 H   0  0  0  0  0  0  0  0  0  0  0  0
  154.8215  138.9938  159.3836 H   0  0  0  0  0  0  0  0  0  0  0  0
  150.2581  136.9416  159.5251 H   0  0  0  0  0  0  0  0  0  0  0  0
  151.9689  140.1794  154.2279 H   0  0  0  0  0  0  0  0  0  0  0  0
  150.5859  138.0881  153.5581 H   0  0  0  0  0  0  0  0  0  0  0  0
  149.9752  137.0455  154.8052 H   0  0  0  0  0  0  0  0  0  0  0  0
  148.2440  139.0076  156.4777 H   0  0  0  0  0  0  0  0  0  0  0  0
  146.7949  138.9452  155.5191 H   0  0  0  0  0  0  0  0  0  0  0  0
  147.3308  137.0722  156.8293 H   0  0  0  0  0  0  0  0  0  0  0  0
  149.1037  140.7772  154.9346 H   0  0  0  0  0  0  0  0  0  0  0  0
  149.5399  140.3988  153.2885 H   0  0  0  0  0  0  0  0  0  0  0  0
  146.6938  140.8848  154.3093 H   0  0  0  0  0  0  0  0  0  0  0  0
  147.6399  141.9129  153.2615 H   0  0  0  0  0  0  0  0  0  0  0  0
  145.9069  138.7376  153.4064 H   0  0  0  0  0  0  0  0  0  0  0  0
  146.3042  138.3611  151.7462 H   0  0  0  0  0  0  0  0  0  0  0  0
  148.6721  138.0939  152.2609 H   0  0  0  0  0  0  0  0  0  0  0  0
  147.7511  137.0267  153.2773 H   0  0  0  0  0  0  0  0  0  0  0  0
  151.4204  141.1982  160.0374 H   0  0  0  0  0  0  0  0  0  0  0  0
  152.8834  140.9705  162.0162 H   0  0  0  0  0  0  0  0  0  0  0  0
  154.0895  141.9957  161.2697 H   0  0  0  0  0  0  0  0  0  0  0  0
  151.2474  142.8269  162.0498 H   0  0  0  0  0  0  0  0  0  0  0  0
  152.7351  143.3450  162.7972 H   0  0  0  0  0  0  0  0  0  0  0  0
  149.9784  143.7315  158.6088 H   0  0  0  0  0  0  0  0  0  0  0  0
  149.9313  144.6853  160.0855 H   0  0  0  0  0  0  0  0  0  0  0  0
  150.0108  142.9336  160.1674 H   0  0  0  0  0  0  0  0  0  0  0  0
  152.0044  145.0749  157.7644 H   0  0  0  0  0  0  0  0  0  0  0  0
  153.4068  145.2860  158.8070 H   0  0  0  0  0  0  0  0  0  0  0  0
  151.8816  146.0532  159.2235 H   0  0  0  0  0  0  0  0  0  0  0  0
  153.6360  142.8786  158.8155 H   0  0  0  0  0  0  0  0  0  0  0  0
  152.1502  142.4204  158.0254 H   0  0  0  0  0  0  0  0  0  0  0  0
  1  2  1  0  0  0  0
  1 30  1  0  0  0  0
  1 31  1  0  0  0  0
  1 32  1  0  0  0  0
  2  3  1  0  0  0  0
  2 33  1  0  0  0  0
  2 34  1  0  0  0  0
  3  4  1  0  0  0  0
  3 22  1  0  0  0  0
  4  9  1  0  0  0  0
  4  5  2  0  0  0  0
  5  6  1  0  0  0  0
  6  7  2  0  0  0  0
  6 35  1  0  0  0  0
  7  8  1  0  0  0  0
  8 12  1  0  0  0  0
  8  9  2  0  0  0  0
  9 10  1  0  0  0  0
 10 11  2  0  0  0  0
 11 12  1  0  0  0  0
 11 36  1  0  0  0  0
 12 13  1  0  0  0  0
 13 14  1  0  0  0  0
 13 37  1  0  0  0  0
 13 38  1  0  0  0  0
 14 21  1  0  0  0  0
 14 15  1  0  0  0  0
 14 17  1  0  0  0  0
 15 16  1  0  0  0  0
 15 39  1  0  0  0  0
 15 40  1  0  0  0  0
 16 41  1  0  0  0  0
 17 18  1  0  0  0  0
 17 42  1  0  0  0  0
 17 43  1  0  0  0  0
 18 19  1  0  0  0  0
 18 44  1  0  0  0  0
 18 45  1  0  0  0  0
 19 20  1  0  0  0  0
 20 21  1  0  0  0  0
 20 46  1  0  0  0  0
 20 47  1  0  0  0  0
 21 48  1  0  0  0  0
 21 49  1  0  0  0  0
 22 29  1  0  0  0  0
 22 23  1  0  0  0  0
 22 50  1  0  0  0  0
 23 24  1  0  0  0  0
 23 51  1  0  0  0  0
 23 52  1  0  0  0  0
 24 25  1  0  0  0  0
 24 53  1  0  0  0  0
 24 54  1  0  0  0  0
 25 26  1  0  0  0  0
 26 27  1  0  0  0  0
 26 28  1  0  0  0  0
 26 29  1  0  0  0  0
 27 55  1  0  0  0  0
 27 56  1  0  0  0  0
 27 57  1  0  0  0  0
 28 58  1  0  0  0  0
 28 59  1  0  0  0  0
 28 60  1  0  0  0  0
 29 61  1  0  0  0  0
 29 62  1  0  0  0  0
M  END
> <s_m_source_file>
AV-unprocessed.smi

> <i_m_source_file_index>
85

> <i_lp_mmshare_version>
43012

> <i_f3d_flags>
0

> <s_epik_input>
W0NIM11DMShbQ0gzXSlPW0NIMl1bQ0gyXVtDQEhdKFtDSDJdMSlOKFtDSDJdW0NIM10pYyhuW2NIXW4yKWMoYzIzKW5bY0hdbjNbQ0gyXUM0KFtDSDJdW09IXSlbQ0gyXVtDSDJdT1tDSDJdW0NIMl00

> <s_epik_cmdline>
J2VwaWtfcHl0aG9uJywgJy1waCcsICc3LjAnLCAnLXRuJywgJzgnLCAnLW1hJywgJzIwMCcsICctbWV0YWxfYmluZGluZycsICctaW1hZScsICc8aW5maWxlLm1hZT4nLCAnLW9tYWUnLCAnPG91dGZpbGUubWFlPic=

> <r_lp_tautomer_probability>
1

> <r_epik_Ionization_Penalty>
0.00336056

> <r_epik_Ionization_Penalty_Charging>
0

> <r_epik_Ionization_Penalty_Neutral>
0.00336056

> <r_epik_State_Penalty>
0.00222191

> <r_epik_Charging_Adjusted_Penalty>
0.00222191

> <i_epik_Tot_Q>
0

> <i_epik_Tot_abs_Q>
0

> <r_epik_Metal_State_Penalty>
-0

> <b_epik_Metal_Only>
0

> <s_lp_Force_Field>
OPLS_2005

> <r_lp_Energy>
36.9586

> <b_lp_Chiralities_Consistent>
1

> <s_lp_Variant>
AV-unprocessed.smi:85-2

> <Gold.Version>
5.8.1

> <Gold.Id.Protein>
6NUR|6NUR_protein|mol2

> <Gold.PLP.Fitness>
42.5964

> <Gold.PLP.PLP>
-42.8519

> <Gold.PLP.part.hbond>
-1.0000

> <Gold.PLP.part.metal>
0.0000

> <Gold.PLP.part.buried>
3.7159

> <Gold.PLP.part.nonpolar>
-46.9560

> <Gold.PLP.part.repulsive>
0.6923

> <Gold.PLP.ligand.clash>
0.0000

> <Gold.PLP.ligand.torsion>
2.2140

> <Gold.PLP.Chemscore.Hbond>
1.0000

> <Gold.PLP.Chemscore.CHOScore>
0.0000

> <Gold.PLP.Chemscore.Metal>
0.0000

> <Gold.Chemscore.Hbonds>
donor molecule, donor type, donor heavy atom, donor atom, acceptor molecule, acceptor atom, score
      P1  H  7997  8009       L1    10  1.00

> <Gold.PLP.Chemscore.Internal.Correction>
1.1725

> <Gold.Rescore>
     Score         DG    S(hbond)    S(metal)    S(lipo)     H(rot)  DE(clash)    DE(int)     intcor
     11.32     -17.10       0.92        0.00     125.68       2.41       2.33       3.46       ----

> <Gold.Chemscore.Fitness>
11.3154

> <Gold.Chemscore.DG>
-17.1033

> <Gold.Chemscore.ZeroCoef>
-5.4800

> <Gold.Chemscore.Hbond>
0.9235

> <Gold.Chemscore.Metal>
0.0000

> <Gold.Chemscore.Lipo>
125.6763

> <Gold.Chemscore.Internal_Hbond>
0.0000

> <Gold.Chemscore.DEClash>
2.3312

> <Gold.Chemscore.DEInternal>
3.4567

> <Gold.Chemscore.Rot>
2.4083

> <Gold.Chemscore.Internal.Correction>
   9.000000E+99

> <Gold.Chemscore.Hbonds>
donor molecule, donor type, donor heavy atom, donor atom, acceptor molecule, acceptor atom, score
      P1  H  7997  8009       L1    10  0.58

> <Gold.Chemscore.Hbond.Weighted>
-3.0843

> <Gold.Chemscore.Metal.Weighted>
-0.0000

> <Gold.Chemscore.Lipo.Weighted>
-14.7041

> <Gold.Chemscore.Internal_Hbond.Weighted>
0.0000

> <Gold.Chemscore.DEClash.Weighted>
2.3312

> <Gold.Chemscore.DEInternal.Weighted>
3.4567

> <Gold.Chemscore.Rot.Weighted>
6.1652

> <Gold.Chemscore.Internal.Correction.Weighted>
   9.000000E+99

> <Gold.Protein.RotatedTorsions>
[ 6907 6896 6895 6894 ] final  -31.42 input  -60.11 | X-H torsion
[ 7974 7965 7964 7962 ] final   88.49 input  175.53 | X-H torsion
[ 8008 7997 7996 7995 ] final -161.86 input   59.86 | X-H torsion
[ 10167 10162 10161 10158 ] final  161.18 input  -65.29 | X-H torsion
[ 10718 10713 10712 10709 ] final   17.92 input   66.30 | X-H torsion
[ 10763 10752 10751 10750 ] final  166.61 input  -60.55 | X-H torsion
[ 11005 11000 10999 10996 ] final  138.70 input  -57.11 | X-H torsion

> <Gold.Protein.ActiveResidues>
 VAL166  LYS551  ARG553  GLY616  TRP617  ASP618  TYR619  PRO620  LYS621  CYS622 
 ASP623  PHE694  ASN695  SER759  ASP760  ASP761  ALA762  ILE779  LEU786  VAL792 
 PHE793  MET794  SER795  GLU796  ALA797  LYS798  CYS799  TRP800  GLU811  SER814 

> <Gold.Protein.RotatedAtoms>
  151.0923  134.9923  159.8408 H   0  0  0  0  0  0  0  0  0  0  0  0  # atno 6907 bound_to 6896
  152.5430  134.2050  159.8737 H   0  0  0  0  0  0  0  0  0  0  0  0  # atno 6908 bound_to 6896
  151.2087  133.4524  159.2631 H   0  0  0  0  0  0  0  0  0  0  0  0  # atno 6909 bound_to 6896
  145.5449  139.2291  143.2545 H   0  0  0  0  0  0  0  0  0  0  0  0  # atno 7974 bound_to 7965
  155.7983  140.0888  157.1971 H   0  0  0  0  0  0  0  0  0  0  0  0  # atno 8008 bound_to 7997
  154.3983  140.1477  156.3303 H   0  0  0  0  0  0  0  0  0  0  0  0  # atno 8009 bound_to 7997
  155.8488  140.3435  155.5682 H   0  0  0  0  0  0  0  0  0  0  0  0  # atno 8010 bound_to 7997
  139.4847  144.4562  151.8765 H   0  0  0  0  0  0  0  0  0  0  0  0  # atno 10167 bound_to 10162
  157.0890  130.6419  149.5844 H   0  0  0  0  0  0  0  0  0  0  0  0  # atno 10718 bound_to 10713
  154.3415  135.2754  155.2420 H   0  0  0  0  0  0  0  0  0  0  0  0  # atno 10763 bound_to 10752
  154.4689  135.5888  153.6311 H   0  0  0  0  0  0  0  0  0  0  0  0  # atno 10764 bound_to 10752
  152.9857  135.6083  154.3616 H   0  0  0  0  0  0  0  0  0  0  0  0  # atno 10765 bound_to 10752
  140.0202  134.9400  157.0459 H   0  0  0  0  0  0  0  0  0  0  0  0  # atno 11005 bound_to 11000
  146.1956  140.6270  142.9126 LP  0  0  0  0  0  0  0  0  0  0  0  0  # atno 17320 bound_to 7965
  144.7558  140.5304  143.6770 LP  0  0  0  0  0  0  0  0  0  0  0  0  # atno 17321 bound_to 7965
  140.4021  144.2479  150.5892 LP  0  0  0  0  0  0  0  0  0  0  0  0  # atno 17342 bound_to 10162
  140.5047  143.2308  151.8626 LP  0  0  0  0  0  0  0  0  0  0  0  0  # atno 17343 bound_to 10162
  155.9903  130.4954  150.7251 LP  0  0  0  0  0  0  0  0  0  0  0  0  # atno 17370 bound_to 10713
  157.4737  131.0895  151.0614 LP  0  0  0  0  0  0  0  0  0  0  0  0  # atno 17371 bound_to 10713
  140.4400  134.1691  155.7173 LP  0  0  0  0  0  0  0  0  0  0  0  0  # atno 17394 bound_to 11000
  141.1769  133.8495  157.1391 LP  0  0  0  0  0  0  0  0  0  0  0  0  # atno 17395 bound_to 11000

$$$$
