AV-unprocessed.smi:1669|AV-procd|sdf|6685|dock5
  -GOLD-   22720 7403D 1   1.00000     0.00000
 Structure written by MMmdl.
 48 50  0  0  0  0  0  0  0  0  2 V2000
  146.5005  138.9870  155.6251 C   0  0  0  0  0  0  0  0  0  0  0  0
  146.5998  139.2226  154.1665 N   0  3  1  0  0  0  0  0  0  0  0  0
  147.5666  140.3009  153.8427 C   0  0  0  0  0  0  0  0  0  0  0  0
  148.9802  139.9374  154.2642 C   0  0  0  0  0  0  0  0  0  0  0  0
  149.6670  138.8983  153.6012 C   0  0  0  0  0  0  0  0  0  0  0  0
  150.9717  138.5458  153.9977 C   0  0  0  0  0  0  0  0  0  0  0  0
  151.5966  139.2339  155.0554 C   0  0  0  0  0  0  0  0  0  0  0  0
  150.9170  140.2755  155.7157 C   0  0  0  0  0  0  0  0  0  0  0  0
  149.6117  140.6276  155.3208 C   0  0  0  0  0  0  0  0  0  0  0  0
  146.8206  137.9698  153.3968 C   0  0  0  0  0  0  0  0  0  0  0  0
  145.5709  137.0707  153.3994 C   0  0  1  0  0  0  0  0  0  0  0  0
  144.6240  137.6168  152.5007 O   0  0  0  0  0  0  0  0  0  0  0  0
  145.9044  135.6255  152.9808 C   0  0  0  0  0  0  0  0  0  0  0  0
  144.7368  134.9044  152.4905 N   0  0  0  0  0  0  0  0  0  0  0  0
  143.4984  134.8224  153.0409 C   0  0  0  0  0  0  0  0  0  0  0  0
  143.1391  135.5207  154.3167 C   0  0  0  0  0  0  0  0  0  0  0  0
  142.6964  134.6293  155.3172 O   0  0  0  0  0  0  0  0  0  0  0  0
  142.6161  134.0788  152.3728 N   0  0  0  0  0  0  0  0  0  0  0  0
  143.3464  133.6415  151.2853 C   0  0  0  0  0  0  0  0  0  0  0  0
  142.9758  132.8126  150.2024 C   0  0  0  0  0  0  0  0  0  0  0  0
  143.9088  132.4983  149.1927 C   0  0  0  0  0  0  0  0  0  0  0  0
  145.2228  133.0064  149.2512 C   0  0  0  0  0  0  0  0  0  0  0  0
  145.6130  133.8331  150.3220 C   0  0  0  0  0  0  0  0  0  0  0  0
  144.6779  134.1433  151.3275 C   0  0  0  0  0  0  0  0  0  0  0  0
  147.4519  138.6391  156.0296 H   0  0  0  0  0  0  0  0  0  0  0  0
  145.7395  138.2414  155.8546 H   0  0  0  0  0  0  0  0  0  0  0  0
  146.2249  139.9049  156.1453 H   0  0  0  0  0  0  0  0  0  0  0  0
  147.5807  140.4746  152.7656 H   0  0  0  0  0  0  0  0  0  0  0  0
  147.2520  141.2374  154.3059 H   0  0  0  0  0  0  0  0  0  0  0  0
  149.1928  138.3642  152.7907 H   0  0  0  0  0  0  0  0  0  0  0  0
  151.4928  137.7470  153.4909 H   0  0  0  0  0  0  0  0  0  0  0  0
  152.5971  138.9637  155.3595 H   0  0  0  0  0  0  0  0  0  0  0  0
  151.3972  140.8035  156.5263 H   0  0  0  0  0  0  0  0  0  0  0  0
  149.0969  141.4259  155.8350 H   0  0  0  0  0  0  0  0  0  0  0  0
  147.0815  138.1887  152.3614 H   0  0  0  0  0  0  0  0  0  0  0  0
  147.6788  137.4371  153.8098 H   0  0  0  0  0  0  0  0  0  0  0  0
  145.1225  137.0553  154.3929 H   0  0  0  0  0  0  0  0  0  0  0  0
  144.3661  138.4697  152.8177 H   0  0  0  0  0  0  0  0  0  0  0  0
  146.6875  135.6167  152.2228 H   0  0  0  0  0  0  0  0  0  0  0  0
  146.3061  135.0754  153.8327 H   0  0  0  0  0  0  0  0  0  0  0  0
  144.0115  136.0572  154.6916 H   0  0  0  0  0  0  0  0  0  0  0  0
  142.3704  136.2700  154.1286 H   0  0  0  0  0  0  0  0  0  0  0  0
  143.4249  134.4280  155.8840 H   0  0  0  0  0  0  0  0  0  0  0  0
  141.9716  132.4186  150.1482 H   0  0  0  0  0  0  0  0  0  0  0  0
  143.6147  131.8644  148.3691 H   0  0  0  0  0  0  0  0  0  0  0  0
  145.9307  132.7608  148.4731 H   0  0  0  0  0  0  0  0  0  0  0  0
  146.6186  134.2236  150.3688 H   0  0  0  0  0  0  0  0  0  0  0  0
  145.6997  139.5738  153.8708 H   0  0  0  0  0  0  0  0  0  0  0  0
  1  2  1  0  0  0  0
  1 25  1  0  0  0  0
  1 26  1  0  0  0  0
  1 27  1  0  0  0  0
  2  3  1  0  0  0  0
  2 10  1  0  0  0  0
  2 48  1  0  0  0  0
  3  4  1  0  0  0  0
  3 28  1  0  0  0  0
  3 29  1  0  0  0  0
  4  9  1  0  0  0  0
  4  5  2  0  0  0  0
  5  6  1  0  0  0  0
  5 30  1  0  0  0  0
  6  7  2  0  0  0  0
  6 31  1  0  0  0  0
  7  8  1  0  0  0  0
  7 32  1  0  0  0  0
  8  9  2  0  0  0  0
  8 33  1  0  0  0  0
  9 34  1  0  0  0  0
 10 11  1  0  0  0  0
 10 35  1  0  0  0  0
 10 36  1  0  0  0  0
 11 12  1  0  0  0  0
 11 13  1  0  0  0  0
 11 37  1  0  0  0  0
 12 38  1  0  0  0  0
 13 14  1  0  0  0  0
 13 39  1  0  0  0  0
 13 40  1  0  0  0  0
 14 24  1  0  0  0  0
 14 15  1  0  0  0  0
 15 16  1  0  0  0  0
 15 18  2  0  0  0  0
 16 17  1  0  0  0  0
 16 41  1  0  0  0  0
 16 42  1  0  0  0  0
 17 43  1  0  0  0  0
 18 19  1  0  0  0  0
 19 24  2  0  0  0  0
 19 20  1  0  0  0  0
 20 21  2  0  0  0  0
 20 44  1  0  0  0  0
 21 22  1  0  0  0  0
 21 45  1  0  0  0  0
 22 23  2  0  0  0  0
 22 46  1  0  0  0  0
 23 24  1  0  0  0  0
 23 47  1  0  0  0  0
M  CHG  1   2   1
M  END
> <s_m_source_file>
AV-unprocessed.smi

> <i_m_source_file_index>
1669

> <i_lp_mmshare_version>
43012

> <i_f3d_flags>
0

> <s_epik_input>
W2NIXTFbY0hdW2NIXVtjSF1bY0hdYzFbQ0gyXU4oW0NIM10pW0NIMl1bQ0BIXShbT0hdKVtDSDJdbihjKG4yKVtDSDJdW09IXSljKGMyMylbY0hdW2NIXVtjSF1bY0hdMw==

> <s_epik_cmdline>
J2VwaWtfcHl0aG9uJywgJy1waCcsICc3LjAnLCAnLXRuJywgJzgnLCAnLW1hJywgJzIwMCcsICctbWV0YWxfYmluZGluZycsICctaW1hZScsICc8aW5maWxlLm1hZT4nLCAnLW9tYWUnLCAnPG91dGZpbGUubWFlPic=

> <r_epik_Ionization_Penalty>
0.0949884

> <r_epik_Ionization_Penalty_Charging>
0.0475377

> <r_epik_Ionization_Penalty_Neutral>
0.0474507

> <r_epik_State_Penalty>
0.078247

> <r_epik_Charging_Adjusted_Penalty>
0.125785

> <i_epik_Tot_Q>
1

> <i_epik_Tot_abs_Q>
1

> <r_epik_Metal_State_Penalty>
0.0403451

> <b_epik_Metal_Only>
0

> <s_lp_Force_Field>
OPLS_2005

> <r_lp_Energy>
15.7652

> <b_lp_Chiralities_Consistent>
1

> <s_lp_Variant>
AV-unprocessed.smi:1669-3

> <Gold.Version>
5.8.1

> <Gold.Id.Protein>
6NUR|6NUR_protein|mol2

> <Gold.PLP.Fitness>
53.2959

> <Gold.PLP.PLP>
-44.8484

> <Gold.PLP.part.hbond>
-3.9113

> <Gold.PLP.part.metal>
0.0000

> <Gold.PLP.part.buried>
-3.0838

> <Gold.PLP.part.nonpolar>
-39.0093

> <Gold.PLP.part.repulsive>
0.2289

> <Gold.PLP.ligand.clash>
0.0000

> <Gold.PLP.ligand.torsion>
0.6795

> <Gold.PLP.Chemscore.Hbond>
3.1281

> <Gold.PLP.Chemscore.CHOScore>
0.0000

> <Gold.PLP.Chemscore.Metal>
0.0000

> <Gold.Chemscore.Hbonds>
donor molecule, donor type, donor heavy atom, donor atom, acceptor molecule, acceptor atom, score
      L1  H    12    38       P1 10175  0.76
      P1  H 11000 11005       L1    17  0.22

> <Gold.PLP.Chemscore.Internal.Correction>
0.4221

> <Gold.Rescore>
     Score         DG    S(hbond)    S(metal)    S(lipo)     H(rot)  DE(clash)    DE(int)     intcor
     12.86     -16.18       2.08        0.00     101.42       3.17       1.54       1.78       ----

> <Gold.Chemscore.Fitness>
12.8580

> <Gold.Chemscore.DG>
-16.1784

> <Gold.Chemscore.ZeroCoef>
-5.4800

> <Gold.Chemscore.Hbond>
2.0824

> <Gold.Chemscore.Metal>
0.0000

> <Gold.Chemscore.Lipo>
101.4200

> <Gold.Chemscore.Internal_Hbond>
0.0000

> <Gold.Chemscore.DEClash>
1.5357

> <Gold.Chemscore.DEInternal>
1.7847

> <Gold.Chemscore.Rot>
3.1731

> <Gold.Chemscore.Internal.Correction>
   9.000000E+99

> <Gold.Chemscore.Hbonds>
donor molecule, donor type, donor heavy atom, donor atom, acceptor molecule, acceptor atom, score
      L1  H    12    38       P1 10175  0.71
      P1  H 11000 11005       L1    17  0.22

> <Gold.Chemscore.Hbond.Weighted>
-6.9553

> <Gold.Chemscore.Metal.Weighted>
-0.0000

> <Gold.Chemscore.Lipo.Weighted>
-11.8661

> <Gold.Chemscore.Internal_Hbond.Weighted>
0.0000

> <Gold.Chemscore.DEClash.Weighted>
1.5357

> <Gold.Chemscore.DEInternal.Weighted>
1.7847

> <Gold.Chemscore.Rot.Weighted>
8.1230

> <Gold.Chemscore.Internal.Correction.Weighted>
   9.000000E+99

> <Gold.Protein.RotatedTorsions>
[ 6907 6896 6895 6894 ] final   86.70 input  -60.11 | X-H torsion
[ 7974 7965 7964 7962 ] final  111.39 input  175.53 | X-H torsion
[ 8008 7997 7996 7995 ] final  123.28 input   59.86 | X-H torsion
[ 10167 10162 10161 10158 ] final    3.64 input  -65.29 | X-H torsion
[ 10718 10713 10712 10709 ] final  -14.79 input   66.30 | X-H torsion
[ 10763 10752 10751 10750 ] final -132.30 input  -60.55 | X-H torsion
[ 11005 11000 10999 10996 ] final    2.05 input  -57.11 | X-H torsion

> <Gold.Protein.ActiveResidues>
 VAL166  LYS551  ARG553  GLY616  TRP617  ASP618  TYR619  PRO620  LYS621  CYS622 
 ASP623  PHE694  ASN695  SER759  ASP760  ASP761  ALA762  ILE779  LEU786  VAL792 
 PHE793  MET794  SER795  GLU796  ALA797  LYS798  CYS799  TRP800  GLU811  SER814 

> <Gold.Protein.RotatedAtoms>
  152.5399  134.2390  159.8854 H   0  0  0  0  0  0  0  0  0  0  0  0  # atno 6907 bound_to 6896
  151.2358  133.4419  159.2613 H   0  0  0  0  0  0  0  0  0  0  0  0  # atno 6908 bound_to 6896
  151.0672  134.9789  159.8346 H   0  0  0  0  0  0  0  0  0  0  0  0  # atno 6909 bound_to 6896
  145.2429  139.2771  143.4108 H   0  0  0  0  0  0  0  0  0  0  0  0  # atno 7974 bound_to 7965
  156.2760  140.2766  156.1602 H   0  0  0  0  0  0  0  0  0  0  0  0  # atno 8008 bound_to 7997
  155.0762  140.0387  157.2642 H   0  0  0  0  0  0  0  0  0  0  0  0  # atno 8009 bound_to 7997
  154.7001  140.2647  155.6734 H   0  0  0  0  0  0  0  0  0  0  0  0  # atno 8010 bound_to 7997
  140.6576  143.7388  150.7680 H   0  0  0  0  0  0  0  0  0  0  0  0  # atno 10167 bound_to 10162
  156.6110  130.4849  149.6201 H   0  0  0  0  0  0  0  0  0  0  0  0  # atno 10718 bound_to 10713
  154.8744  135.3802  154.4387 H   0  0  0  0  0  0  0  0  0  0  0  0  # atno 10763 bound_to 10752
  153.5074  135.7030  153.5804 H   0  0  0  0  0  0  0  0  0  0  0  0  # atno 10764 bound_to 10752
  153.4109  135.3925  155.2015 H   0  0  0  0  0  0  0  0  0  0  0  0  # atno 10765 bound_to 10752
  140.6086  133.9769  155.8166 H   0  0  0  0  0  0  0  0  0  0  0  0  # atno 11005 bound_to 11000
  146.3323  140.2797  142.8610 LP  0  0  0  0  0  0  0  0  0  0  0  0  # atno 17320 bound_to 7965
  144.9573  140.8239  143.5535 LP  0  0  0  0  0  0  0  0  0  0  0  0  # atno 17321 bound_to 7965
  140.1051  143.4751  152.2403 LP  0  0  0  0  0  0  0  0  0  0  0  0  # atno 17342 bound_to 10162
  139.5801  144.7506  151.3661 LP  0  0  0  0  0  0  0  0  0  0  0  0  # atno 17343 bound_to 10162
  156.2390  130.6840  151.1537 LP  0  0  0  0  0  0  0  0  0  0  0  0  # atno 17370 bound_to 10713
  157.7254  131.0653  150.5954 LP  0  0  0  0  0  0  0  0  0  0  0  0  # atno 17371 bound_to 10713
  141.0823  134.0043  157.3366 LP  0  0  0  0  0  0  0  0  0  0  0  0  # atno 17394 bound_to 11000
  139.9202  135.0200  156.8034 LP  0  0  0  0  0  0  0  0  0  0  0  0  # atno 17395 bound_to 11000

$$$$
