AV-unprocessed.smi:781|AV-procd|sdf|3708|dock9
  -GOLD-   22720 1133D 1   1.00000     0.00000
 Structure written by MMmdl.
 38 40  0  0  0  0  0  0  0  0  1 V2000
  147.0236  142.6000  154.0573 C   0  0  0  0  0  0  0  0  0  0  0  0
  147.4376  141.1735  153.9348 C   0  0  0  0  0  0  0  0  0  0  0  0
  146.7916  140.0526  153.4945 C   0  0  0  0  0  0  0  0  0  0  0  0
  147.7720  139.0367  153.6487 C   0  0  0  0  0  0  0  0  0  0  0  0
  147.4901  137.6934  153.2927 N   0  0  0  0  0  0  0  0  0  0  0  0
  146.3603  137.0039  153.5253 C   0  0  0  0  0  0  0  0  0  0  0  0
  145.3607  137.4476  154.0906 O   0  0  0  0  0  0  0  0  0  0  0  0
  146.4492  135.7526  153.0537 N   0  0  0  0  0  0  0  0  0  0  0  0
  145.3852  134.7509  153.1310 C   0  0  1  0  0  0  0  0  0  0  0  0
  144.0174  135.2647  152.6103 C   0  0  1  0  0  0  0  0  0  0  0  0
  144.1586  135.9282  151.2238 C   0  0  0  0  0  0  0  0  0  0  0  0
  144.4592  134.7284  150.3078 C   0  0  0  0  0  0  0  0  0  0  0  0
  144.4153  133.5306  151.2800 C   0  0  2  0  0  0  0  0  0  0  0  0
  143.3107  133.9660  152.2358 C   0  0  0  0  0  0  0  0  0  0  0  0
  145.6351  133.5061  152.2335 C   0  0  1  0  0  0  0  0  0  0  0  0
  147.0217  133.3857  151.5615 C   0  0  0  0  0  0  0  0  0  0  0  0
  147.0149  132.3460  150.6066 O   0  0  0  0  0  0  0  0  0  0  0  0
  148.9136  139.4958  154.1384 N   0  0  0  0  0  0  0  0  0  0  0  0
  148.7055  140.8678  154.3231 O   0  0  0  0  0  0  0  0  0  0  0  0
  145.9386  142.6862  154.1164 H   0  0  0  0  0  0  0  0  0  0  0  0
  147.3627  143.1752  153.1959 H   0  0  0  0  0  0  0  0  0  0  0  0
  147.4465  143.0523  154.9545 H   0  0  0  0  0  0  0  0  0  0  0  0
  145.7807  139.9755  153.1230 H   0  0  0  0  0  0  0  0  0  0  0  0
  148.2284  137.2051  152.8085 H   0  0  0  0  0  0  0  0  0  0  0  0
  147.3065  135.4717  152.6017 H   0  0  0  0  0  0  0  0  0  0  0  0
  145.2849  134.4207  154.1668 H   0  0  0  0  0  0  0  0  0  0  0  0
  143.4821  135.8825  153.3322 H   0  0  0  0  0  0  0  0  0  0  0  0
  143.2195  136.3999  150.9312 H   0  0  0  0  0  0  0  0  0  0  0  0
  144.9305  136.6962  151.1796 H   0  0  0  0  0  0  0  0  0  0  0  0
  143.6817  134.6319  149.5490 H   0  0  0  0  0  0  0  0  0  0  0  0
  145.4088  134.8258  149.7841 H   0  0  0  0  0  0  0  0  0  0  0  0
  144.2325  132.5762  150.7852 H   0  0  0  0  0  0  0  0  0  0  0  0
  143.1730  133.2889  153.0808 H   0  0  0  0  0  0  0  0  0  0  0  0
  142.3478  134.1208  151.7451 H   0  0  0  0  0  0  0  0  0  0  0  0
  145.5256  132.6274  152.8722 H   0  0  0  0  0  0  0  0  0  0  0  0
  147.3302  134.3129  151.0798 H   0  0  0  0  0  0  0  0  0  0  0  0
  147.7796  133.1520  152.3098 H   0  0  0  0  0  0  0  0  0  0  0  0
  147.9030  132.0499  150.4774 H   0  0  0  0  0  0  0  0  0  0  0  0
  1  2  1  0  0  0  0
  1 20  1  0  0  0  0
  1 21  1  0  0  0  0
  1 22  1  0  0  0  0
  2 19  1  0  0  0  0
  2  3  2  0  0  0  0
  3  4  1  0  0  0  0
  3 23  1  0  0  0  0
  4  5  1  0  0  0  0
  4 18  2  0  0  0  0
  5  6  1  0  0  0  0
  5 24  1  0  0  0  0
  6  7  2  0  0  0  0
  6  8  1  0  0  0  0
  8  9  1  0  0  0  0
  8 25  1  0  0  0  0
  9 15  1  0  0  0  0
  9 10  1  0  0  0  0
  9 26  1  0  0  0  0
 10 14  1  0  0  0  0
 10 11  1  0  0  0  0
 10 27  1  0  0  0  0
 11 12  1  0  0  0  0
 11 28  1  0  0  0  0
 11 29  1  0  0  0  0
 12 13  1  0  0  0  0
 12 30  1  0  0  0  0
 12 31  1  0  0  0  0
 13 14  1  0  0  0  0
 13 15  1  0  0  0  0
 13 32  1  0  0  0  0
 14 33  1  0  0  0  0
 14 34  1  0  0  0  0
 15 16  1  0  0  0  0
 15 35  1  0  0  0  0
 16 17  1  0  0  0  0
 16 36  1  0  0  0  0
 16 37  1  0  0  0  0
 17 38  1  0  0  0  0
 18 19  1  0  0  0  0
M  END
> <s_m_source_file>
AV-unprocessed.smi

> <i_m_source_file_index>
781

> <i_lp_mmshare_version>
43012

> <i_f3d_flags>
0

> <s_epik_input>
W0NIM11jMVtjSF1jKG5vMSlbTkhdQyg9TylbTkhdW0NASF0oW0NAQEhdMjMpW0NASF0oW0NIMl1bT0hdKVtDQEBIXShbQ0gyXTMpW0NIMl1bQ0gyXTI=

> <s_epik_cmdline>
J2VwaWtfcHl0aG9uJywgJy1waCcsICc3LjAnLCAnLXRuJywgJzgnLCAnLW1hJywgJzIwMCcsICctbWV0YWxfYmluZGluZycsICctaW1hZScsICc8aW5maWxlLm1hZT4nLCAnLW9tYWUnLCAnPG91dGZpbGUubWFlPic=

> <r_lp_tautomer_probability>
1

> <r_epik_Ionization_Penalty>
2.32222e-05

> <r_epik_Ionization_Penalty_Charging>
0

> <r_epik_Ionization_Penalty_Neutral>
2.32222e-05

> <r_epik_State_Penalty>
-0

> <r_epik_Charging_Adjusted_Penalty>
0

> <i_epik_Tot_Q>
0

> <i_epik_Tot_abs_Q>
0

> <r_epik_Metal_State_Penalty>
-0

> <b_epik_Metal_Only>
0

> <s_lp_Force_Field>
OPLS_2005

> <r_lp_Energy>
48.8521

> <b_lp_Chiralities_Consistent>
1

> <s_lp_Variant>
AV-unprocessed.smi:781-2

> <Gold.Version>
5.8.1

> <Gold.Id.Protein>
6NUR|6NUR_protein|mol2

> <Gold.PLP.Fitness>
34.7923

> <Gold.PLP.PLP>
-27.2505

> <Gold.PLP.part.hbond>
-2.7908

> <Gold.PLP.part.metal>
0.0000

> <Gold.PLP.part.buried>
-2.9026

> <Gold.PLP.part.nonpolar>
-22.3222

> <Gold.PLP.part.repulsive>
0.4183

> <Gold.PLP.ligand.clash>
0.0000

> <Gold.PLP.ligand.torsion>
0.5062

> <Gold.PLP.Chemscore.Hbond>
2.8480

> <Gold.PLP.Chemscore.CHOScore>
0.0000

> <Gold.PLP.Chemscore.Metal>
0.0000

> <Gold.Chemscore.Hbonds>
donor molecule, donor type, donor heavy atom, donor atom, acceptor molecule, acceptor atom, score
      L1  H     5    24       P1  7948  1.00
      L1  H     8    25       P1  7948  0.85
      L1  H    17    38       P1 10747  1.00

> <Gold.PLP.Chemscore.Internal.Correction>
0.0101

> <Gold.Rescore>
     Score         DG    S(hbond)    S(metal)    S(lipo)     H(rot)  DE(clash)    DE(int)     intcor
     15.79     -17.33       2.88        0.00      59.70       1.86       0.03       1.50       ----

> <Gold.Chemscore.Fitness>
15.7916

> <Gold.Chemscore.DG>
-17.3284

> <Gold.Chemscore.ZeroCoef>
-5.4800

> <Gold.Chemscore.Hbond>
2.8809

> <Gold.Chemscore.Metal>
0.0000

> <Gold.Chemscore.Lipo>
59.6952

> <Gold.Chemscore.Internal_Hbond>
0.0000

> <Gold.Chemscore.DEClash>
0.0325

> <Gold.Chemscore.DEInternal>
1.5042

> <Gold.Chemscore.Rot>
1.8587

> <Gold.Chemscore.Internal.Correction>
   9.000000E+99

> <Gold.Chemscore.Hbonds>
donor molecule, donor type, donor heavy atom, donor atom, acceptor molecule, acceptor atom, score
      L1  H     5    24       P1  7948  0.93
      L1  H     8    25       P1  7948  0.82
      L1  H    17    38       P1 10747  0.95

> <Gold.Chemscore.Hbond.Weighted>
-9.6223

> <Gold.Chemscore.Metal.Weighted>
-0.0000

> <Gold.Chemscore.Lipo.Weighted>
-6.9843

> <Gold.Chemscore.Internal_Hbond.Weighted>
0.0000

> <Gold.Chemscore.DEClash.Weighted>
0.0325

> <Gold.Chemscore.DEInternal.Weighted>
1.5042

> <Gold.Chemscore.Rot.Weighted>
4.7583

> <Gold.Chemscore.Internal.Correction.Weighted>
   9.000000E+99

> <Gold.Protein.RotatedTorsions>
[ 6907 6896 6895 6894 ] final  169.48 input  -60.11 | X-H torsion
[ 7974 7965 7964 7962 ] final  113.79 input  175.53 | X-H torsion
[ 8008 7997 7996 7995 ] final  -97.24 input   59.86 | X-H torsion
[ 10167 10162 10161 10158 ] final  -71.33 input  -65.29 | X-H torsion
[ 10718 10713 10712 10709 ] final   10.02 input   66.30 | X-H torsion
[ 10763 10752 10751 10750 ] final   45.06 input  -60.55 | X-H torsion
[ 11005 11000 10999 10996 ] final  111.84 input  -57.11 | X-H torsion

> <Gold.Protein.ActiveResidues>
 VAL166  LYS551  ARG553  GLY616  TRP617  ASP618  TYR619  PRO620  LYS621  CYS622 
 ASP623  PHE694  ASN695  SER759  ASP760  ASP761  ALA762  ILE779  LEU786  VAL792 
 PHE793  MET794  SER795  GLU796  ALA797  LYS798  CYS799  TRP800  GLU811  SER814 

> <Gold.Protein.RotatedAtoms>
  151.8312  133.3409  159.3613 H   0  0  0  0  0  0  0  0  0  0  0  0  # atno 6907 bound_to 6896
  150.7263  134.5481  159.5790 H   0  0  0  0  0  0  0  0  0  0  0  0  # atno 6908 bound_to 6896
  152.2934  134.7696  160.0424 H   0  0  0  0  0  0  0  0  0  0  0  0  # atno 6909 bound_to 6896
  145.2125  139.2899  143.4261 H   0  0  0  0  0  0  0  0  0  0  0  0  # atno 7974 bound_to 7965
  154.7852  140.0464  157.1158 H   0  0  0  0  0  0  0  0  0  0  0  0  # atno 8008 bound_to 7997
  154.9657  140.3083  155.4991 H   0  0  0  0  0  0  0  0  0  0  0  0  # atno 8009 bound_to 7997
  156.2942  140.2262  156.4746 H   0  0  0  0  0  0  0  0  0  0  0  0  # atno 8010 bound_to 7997
  140.5282  143.2324  151.7310 H   0  0  0  0  0  0  0  0  0  0  0  0  # atno 10167 bound_to 10162
  156.9748  130.5983  149.5672 H   0  0  0  0  0  0  0  0  0  0  0  0  # atno 10718 bound_to 10713
  152.9830  135.6051  154.3376 H   0  0  0  0  0  0  0  0  0  0  0  0  # atno 10763 bound_to 10752
  154.3075  135.2771  155.2584 H   0  0  0  0  0  0  0  0  0  0  0  0  # atno 10764 bound_to 10752
  154.4808  135.5917  153.6444 H   0  0  0  0  0  0  0  0  0  0  0  0  # atno 10765 bound_to 10752
  139.8913  134.9517  156.6494 H   0  0  0  0  0  0  0  0  0  0  0  0  # atno 11005 bound_to 11000
  146.3394  140.2405  142.8595 LP  0  0  0  0  0  0  0  0  0  0  0  0  # atno 17320 bound_to 7965
  144.9842  140.8488  143.5378 LP  0  0  0  0  0  0  0  0  0  0  0  0  # atno 17321 bound_to 7965
  139.4945  144.4154  152.0035 LP  0  0  0  0  0  0  0  0  0  0  0  0  # atno 17342 bound_to 10162
  140.3255  144.3378  150.5999 LP  0  0  0  0  0  0  0  0  0  0  0  0  # atno 17343 bound_to 10162
  156.0268  130.5361  150.8428 LP  0  0  0  0  0  0  0  0  0  0  0  0  # atno 17370 bound_to 10713
  157.5567  131.0945  150.9618 LP  0  0  0  0  0  0  0  0  0  0  0  0  # atno 17371 bound_to 10713
  140.7532  133.8880  155.8362 LP  0  0  0  0  0  0  0  0  0  0  0  0  # atno 17394 bound_to 11000
  140.9983  134.1184  157.4342 LP  0  0  0  0  0  0  0  0  0  0  0  0  # atno 17395 bound_to 11000

$$$$
