AV-unprocessed.smi:786|AV-procd|sdf|3722|dock6
  -GOLD-   22720 1153D 1   1.00000     0.00000
 Structure written by MMmdl.
 40 41  0  0  0  0  0  0  0  0  2 V2000
  147.5182  139.9883  155.5780 O   0  0  0  0  0  0  0  0  0  0  0  0
  147.1120  141.1405  154.7597 S   0  0  0  0  0  0  0  0  0  0  0  0
  146.6442  140.9397  153.3797 O   0  0  0  0  0  0  0  0  0  0  0  0
  145.8780  142.1409  155.7093 C   0  0  0  0  0  0  0  0  0  0  0  0
  144.7961  142.7833  154.8176 C   0  0  0  0  0  0  0  0  0  0  0  0
  145.4236  143.5874  153.6670 C   0  0  0  0  0  0  0  0  0  0  0  0
  144.3378  144.2666  152.8162 C   0  0  0  0  0  0  0  0  0  0  0  0
  143.5286  145.1019  153.6362 O   0  0  0  0  0  0  0  0  0  0  0  0
  142.8371  144.3808  154.6498 C   0  0  0  0  0  0  0  0  0  0  0  0
  143.8445  143.7104  155.5981 C   0  0  0  0  0  0  0  0  0  0  0  0
  148.4701  142.2061  154.7001 N   0  0  0  0  0  0  0  0  0  0  0  0
  149.7297  141.7705  155.3040 C   0  0  0  0  0  0  0  0  0  0  0  0
  149.5728  141.5714  156.8199 C   0  0  0  0  0  0  0  0  0  0  0  0
  150.5424  142.4260  157.6130 C   0  0  0  0  0  0  0  0  0  0  0  0
  151.4687  141.8638  158.5180 C   0  0  0  0  0  0  0  0  0  0  0  0
  152.3392  142.7145  159.2307 C   0  0  0  0  0  0  0  0  0  0  0  0
  152.2650  144.1078  159.0242 C   0  0  0  0  0  0  0  0  0  0  0  0
  151.3197  144.6156  158.1097 C   0  0  0  0  0  0  0  0  0  0  0  0
  150.5030  143.7679  157.4461 N   0  3  0  0  0  0  0  0  0  0  0  0
  145.4139  141.4893  156.4501 H   0  0  0  0  0  0  0  0  0  0  0  0
  146.4326  142.8974  156.2649 H   0  0  0  0  0  0  0  0  0  0  0  0
  144.2092  141.9812  154.3673 H   0  0  0  0  0  0  0  0  0  0  0  0
  146.0953  144.3471  154.0689 H   0  0  0  0  0  0  0  0  0  0  0  0
  146.0303  142.9363  153.0369 H   0  0  0  0  0  0  0  0  0  0  0  0
  144.7986  144.8769  152.0394 H   0  0  0  0  0  0  0  0  0  0  0  0
  143.7177  143.5243  152.3114 H   0  0  0  0  0  0  0  0  0  0  0  0
  142.2052  145.0743  155.2048 H   0  0  0  0  0  0  0  0  0  0  0  0
  142.1759  143.6401  154.1975 H   0  0  0  0  0  0  0  0  0  0  0  0
  143.3060  143.1650  156.3714 H   0  0  0  0  0  0  0  0  0  0  0  0
  144.4196  144.4818  156.1119 H   0  0  0  0  0  0  0  0  0  0  0  0
  148.2121  143.1363  155.0295 H   0  0  0  0  0  0  0  0  0  0  0  0
  150.0323  140.8340  154.8350 H   0  0  0  0  0  0  0  0  0  0  0  0
  150.5088  142.5017  155.0844 H   0  0  0  0  0  0  0  0  0  0  0  0
  148.5576  141.8098  157.1370 H   0  0  0  0  0  0  0  0  0  0  0  0
  149.7331  140.5234  157.0769 H   0  0  0  0  0  0  0  0  0  0  0  0
  151.5118  140.7944  158.6668 H   0  0  0  0  0  0  0  0  0  0  0  0
  153.0545  142.3028  159.9276 H   0  0  0  0  0  0  0  0  0  0  0  0
  152.9231  144.7767  159.5599 H   0  0  0  0  0  0  0  0  0  0  0  0
  151.1930  145.6659  157.8912 H   0  0  0  0  0  0  0  0  0  0  0  0
  149.8263  144.1577  156.7894 H   0  0  0  0  0  0  0  0  0  0  0  0
  1  2  2  0  0  0  0
  2  3  2  0  0  0  0
  2  4  1  0  0  0  0
  2 11  1  0  0  0  0
  4  5  1  0  0  0  0
  4 20  1  0  0  0  0
  4 21  1  0  0  0  0
  5 10  1  0  0  0  0
  5  6  1  0  0  0  0
  5 22  1  0  0  0  0
  6  7  1  0  0  0  0
  6 23  1  0  0  0  0
  6 24  1  0  0  0  0
  7  8  1  0  0  0  0
  7 25  1  0  0  0  0
  7 26  1  0  0  0  0
  8  9  1  0  0  0  0
  9 10  1  0  0  0  0
  9 27  1  0  0  0  0
  9 28  1  0  0  0  0
 10 29  1  0  0  0  0
 10 30  1  0  0  0  0
 11 12  1  0  0  0  0
 11 31  1  0  0  0  0
 12 13  1  0  0  0  0
 12 32  1  0  0  0  0
 12 33  1  0  0  0  0
 13 14  1  0  0  0  0
 13 34  1  0  0  0  0
 13 35  1  0  0  0  0
 14 19  1  0  0  0  0
 14 15  2  0  0  0  0
 15 16  1  0  0  0  0
 15 36  1  0  0  0  0
 16 17  2  0  0  0  0
 16 37  1  0  0  0  0
 17 18  1  0  0  0  0
 17 38  1  0  0  0  0
 18 19  2  0  0  0  0
 18 39  1  0  0  0  0
 19 40  1  0  0  0  0
M  CHG  1  19   1
M  END
> <s_m_source_file>
AV-unprocessed.smi

> <i_m_source_file_index>
786

> <i_lp_mmshare_version>
43012

> <i_f3d_flags>
0

> <s_epik_input>
W0NIMl0xW0NIMl1PW0NIMl1bQ0gyXVtDSF0xW0NIMl1TKD1PKSg9TylbTkhdW0NIMl1bQ0gyXWMyW2NIXVtjSF1bY0hdW2NIXW4y

> <s_epik_cmdline>
J2VwaWtfcHl0aG9uJywgJy1waCcsICc3LjAnLCAnLXRuJywgJzgnLCAnLW1hJywgJzIwMCcsICctbWV0YWxfYmluZGluZycsICctaW1hZScsICc8aW5maWxlLm1hZT4nLCAnLW9tYWUnLCAnPG91dGZpbGUubWFlPic=

> <r_epik_Ionization_Penalty>
1.99786

> <r_epik_Ionization_Penalty_Charging>
1.99784

> <r_epik_Ionization_Penalty_Neutral>
1.9654e-05

> <r_epik_State_Penalty>
2.12638

> <r_epik_Charging_Adjusted_Penalty>
4.12422

> <i_epik_Tot_Q>
1

> <i_epik_Tot_abs_Q>
1

> <r_epik_Metal_State_Penalty>
2.17464

> <b_epik_Metal_Only>
0

> <s_lp_Force_Field>
OPLS_2005

> <r_lp_Energy>
11.1046

> <b_lp_Chiralities_Consistent>
1

> <s_lp_Variant>
AV-unprocessed.smi:786-2

> <Gold.Version>
5.8.1

> <Gold.Id.Protein>
6NUR|6NUR_protein|mol2

> <Gold.PLP.Fitness>
48.7270

> <Gold.PLP.PLP>
-41.0648

> <Gold.PLP.part.hbond>
-4.8368

> <Gold.PLP.part.metal>
0.0000

> <Gold.PLP.part.buried>
-4.8601

> <Gold.PLP.part.nonpolar>
-32.7090

> <Gold.PLP.part.repulsive>
0.3232

> <Gold.PLP.ligand.clash>
0.0000

> <Gold.PLP.ligand.torsion>
0.7834

> <Gold.PLP.Chemscore.Hbond>
3.0000

> <Gold.PLP.Chemscore.CHOScore>
0.0000

> <Gold.PLP.Chemscore.Metal>
0.0000

> <Gold.Chemscore.Hbonds>
donor molecule, donor type, donor heavy atom, donor atom, acceptor molecule, acceptor atom, score
      L1  H    11    31       P1  8028  0.90
      L1  H    19    40       P1  8028  2.00

> <Gold.PLP.Chemscore.Internal.Correction>
0.2292

> <Gold.Rescore>
     Score         DG    S(hbond)    S(metal)    S(lipo)     H(rot)  DE(clash)    DE(int)     intcor
     15.89     -19.55       1.99        0.00     105.87       1.94       1.75       1.91       ----

> <Gold.Chemscore.Fitness>
15.8856

> <Gold.Chemscore.DG>
-19.5474

> <Gold.Chemscore.ZeroCoef>
-5.4800

> <Gold.Chemscore.Hbond>
1.9921

> <Gold.Chemscore.Metal>
0.0000

> <Gold.Chemscore.Lipo>
105.8702

> <Gold.Chemscore.Internal_Hbond>
0.0000

> <Gold.Chemscore.DEClash>
1.7507

> <Gold.Chemscore.DEInternal>
1.9111

> <Gold.Chemscore.Rot>
1.9426

> <Gold.Chemscore.Internal.Correction>
   9.000000E+99

> <Gold.Chemscore.Hbonds>
donor molecule, donor type, donor heavy atom, donor atom, acceptor molecule, acceptor atom, score
      L1  H    11    31       P1  8028  0.86
      L1  H    19    40       P1  8028  0.88

> <Gold.Chemscore.Hbond.Weighted>
-6.6537

> <Gold.Chemscore.Metal.Weighted>
-0.0000

> <Gold.Chemscore.Lipo.Weighted>
-12.3868

> <Gold.Chemscore.Internal_Hbond.Weighted>
0.0000

> <Gold.Chemscore.DEClash.Weighted>
1.7507

> <Gold.Chemscore.DEInternal.Weighted>
1.9111

> <Gold.Chemscore.Rot.Weighted>
4.9731

> <Gold.Chemscore.Internal.Correction.Weighted>
   9.000000E+99

> <Gold.Protein.RotatedTorsions>
[ 6907 6896 6895 6894 ] final  -17.63 input  -60.11 | X-H torsion
[ 7974 7965 7964 7962 ] final   -3.38 input  175.53 | X-H torsion
[ 8008 7997 7996 7995 ] final   44.21 input   59.86 | X-H torsion
[ 10167 10162 10161 10158 ] final -156.34 input  -65.29 | X-H torsion
[ 10718 10713 10712 10709 ] final -109.19 input   66.30 | X-H torsion
[ 10763 10752 10751 10750 ] final -142.27 input  -60.55 | X-H torsion
[ 11005 11000 10999 10996 ] final  101.32 input  -57.11 | X-H torsion

> <Gold.Protein.ActiveResidues>
 VAL166  LYS551  ARG553  GLY616  TRP617  ASP618  TYR619  PRO620  LYS621  CYS622 
 ASP623  PHE694  ASN695  SER759  ASP760  ASP761  ALA762  ILE779  LEU786  VAL792 
 PHE793  MET794  SER795  GLU796  ALA797  LYS798  CYS799  TRP800  GLU811  SER814 

> <Gold.Protein.RotatedAtoms>
  151.2904  135.0740  159.9201 H   0  0  0  0  0  0  0  0  0  0  0  0  # atno 6907 bound_to 6896
  152.5317  133.9938  159.7873 H   0  0  0  0  0  0  0  0  0  0  0  0  # atno 6908 bound_to 6896
  151.0207  133.5828  159.2702 H   0  0  0  0  0  0  0  0  0  0  0  0  # atno 6909 bound_to 6896
  146.2390  140.1713  142.8332 H   0  0  0  0  0  0  0  0  0  0  0  0  # atno 7974 bound_to 7965
  155.3155  140.3393  155.4242 H   0  0  0  0  0  0  0  0  0  0  0  0  # atno 8008 bound_to 7997
  156.1935  140.1706  156.8083 H   0  0  0  0  0  0  0  0  0  0  0  0  # atno 8009 bound_to 7997
  154.5470  140.0713  156.8589 H   0  0  0  0  0  0  0  0  0  0  0  0  # atno 8010 bound_to 7997
  139.6858  143.9504  152.2360 H   0  0  0  0  0  0  0  0  0  0  0  0  # atno 10167 bound_to 10162
  156.0524  130.5751  150.8065 H   0  0  0  0  0  0  0  0  0  0  0  0  # atno 10718 bound_to 10713
  154.8515  135.3500  154.6001 H   0  0  0  0  0  0  0  0  0  0  0  0  # atno 10763 bound_to 10752
  153.6610  135.6989  153.5182 H   0  0  0  0  0  0  0  0  0  0  0  0  # atno 10764 bound_to 10752
  153.2818  135.4261  155.1043 H   0  0  0  0  0  0  0  0  0  0  0  0  # atno 10765 bound_to 10752
  139.8773  134.9178  156.4888 H   0  0  0  0  0  0  0  0  0  0  0  0  # atno 11005 bound_to 11000
  145.0009  140.8631  143.5282 LP  0  0  0  0  0  0  0  0  0  0  0  0  # atno 17320 bound_to 7965
  145.1732  139.2392  143.5331 LP  0  0  0  0  0  0  0  0  0  0  0  0  # atno 17321 bound_to 7965
  139.9306  144.6743  150.8367 LP  0  0  0  0  0  0  0  0  0  0  0  0  # atno 17342 bound_to 10162
  140.7667  143.3311  151.2408 LP  0  0  0  0  0  0  0  0  0  0  0  0  # atno 17343 bound_to 10162
  157.5463  131.0942  150.9758 LP  0  0  0  0  0  0  0  0  0  0  0  0  # atno 17370 bound_to 10713
  157.0029  130.5607  149.5313 LP  0  0  0  0  0  0  0  0  0  0  0  0  # atno 17371 bound_to 10713
  140.8673  133.8014  155.9328 LP  0  0  0  0  0  0  0  0  0  0  0  0  # atno 17394 bound_to 11000
  140.8988  134.2404  157.5053 LP  0  0  0  0  0  0  0  0  0  0  0  0  # atno 17395 bound_to 11000

$$$$
