AV-unprocessed.smi:833|AV-procd|sdf|3883|dock3
  -GOLD-   22720 1343D 1   1.00000     0.00000
 Structure written by MMmdl.
 40 41  0  0  0  0  0  0  0  0  2 V2000
  149.2316  141.0504  154.2777 C   0  0  0  0  0  0  0  0  0  0  0  0
  149.7711  139.6406  154.5520 C   0  0  1  0  0  0  0  0  0  0  0  0
  149.7928  138.9494  153.3198 O   0  0  0  0  0  0  0  0  0  0  0  0
  151.1991  139.6737  155.1306 C   0  0  0  0  0  0  0  0  0  0  0  0
  151.2371  140.2926  156.4520 N   0  0  0  0  0  0  0  0  0  0  0  0
  152.2000  140.1004  157.3642 C   0  0  0  0  0  0  0  0  0  0  0  0
  153.1753  139.3713  157.1843 O   0  0  0  0  0  0  0  0  0  0  0  0
  151.9715  140.8192  158.4757 N   0  0  0  0  0  0  0  0  0  0  0  0
  152.7900  140.9021  159.6367 C   0  0  0  0  0  0  0  0  0  0  0  0
  153.5217  139.7758  160.0931 C   0  0  0  0  0  0  0  0  0  0  0  0
  154.2659  139.8568  161.2850 C   0  0  0  0  0  0  0  0  0  0  0  0
  154.2553  141.0592  162.0122 C   0  0  0  0  0  0  0  0  0  0  0  0
  153.5401  142.1091  161.5580 N   0  3  0  0  0  0  0  0  0  0  0  0
  152.8155  142.0982  160.4112 C   0  0  0  0  0  0  0  0  0  0  0  0
  152.1254  143.2796  160.0550 N   0  0  0  0  0  0  0  0  0  0  0  0
  152.0291  144.3898  160.9959 C   0  0  0  0  0  0  0  0  0  0  0  0
  151.5550  145.5764  160.1618 C   0  0  0  0  0  0  0  0  0  0  0  0
  152.2429  145.3313  158.8223 C   0  0  0  0  0  0  0  0  0  0  0  0
  152.2700  143.8039  158.7002 C   0  0  0  0  0  0  0  0  0  0  0  0
  149.1673  141.6300  155.1989 H   0  0  0  0  0  0  0  0  0  0  0  0
  148.2313  141.0121  153.8447 H   0  0  0  0  0  0  0  0  0  0  0  0
  149.8745  141.5959  153.5857 H   0  0  0  0  0  0  0  0  0  0  0  0
  149.0887  139.1305  155.2330 H   0  0  0  0  0  0  0  0  0  0  0  0
  149.4805  139.5309  152.6438 H   0  0  0  0  0  0  0  0  0  0  0  0
  151.6168  138.6679  155.1913 H   0  0  0  0  0  0  0  0  0  0  0  0
  151.8586  140.2326  154.4641 H   0  0  0  0  0  0  0  0  0  0  0  0
  150.4722  140.9090  156.6846 H   0  0  0  0  0  0  0  0  0  0  0  0
  151.1865  141.4533  158.4458 H   0  0  0  0  0  0  0  0  0  0  0  0
  153.5036  138.8394  159.5559 H   0  0  0  0  0  0  0  0  0  0  0  0
  154.8253  139.0042  161.6418 H   0  0  0  0  0  0  0  0  0  0  0  0
  154.7891  141.2119  162.9390 H   0  0  0  0  0  0  0  0  0  0  0  0
  151.3383  144.1649  161.8089 H   0  0  0  0  0  0  0  0  0  0  0  0
  153.0069  144.6124  161.4253 H   0  0  0  0  0  0  0  0  0  0  0  0
  150.4718  145.5371  160.0370 H   0  0  0  0  0  0  0  0  0  0  0  0
  151.8116  146.5386  160.6059 H   0  0  0  0  0  0  0  0  0  0  0  0
  151.7346  145.8147  157.9875 H   0  0  0  0  0  0  0  0  0  0  0  0
  153.2634  145.7146  158.8605 H   0  0  0  0  0  0  0  0  0  0  0  0
  153.1883  143.4614  158.2212 H   0  0  0  0  0  0  0  0  0  0  0  0
  151.4260  143.4633  158.0999 H   0  0  0  0  0  0  0  0  0  0  0  0
  153.5519  142.9674  162.1091 H   0  0  0  0  0  0  0  0  0  0  0  0
  1  2  1  0  0  0  0
  1 20  1  0  0  0  0
  1 21  1  0  0  0  0
  1 22  1  0  0  0  0
  2  3  1  0  0  0  0
  2  4  1  0  0  0  0
  2 23  1  0  0  0  0
  3 24  1  0  0  0  0
  4  5  1  0  0  0  0
  4 25  1  0  0  0  0
  4 26  1  0  0  0  0
  5  6  1  0  0  0  0
  5 27  1  0  0  0  0
  6  7  2  0  0  0  0
  6  8  1  0  0  0  0
  8  9  1  0  0  0  0
  8 28  1  0  0  0  0
  9 14  1  0  0  0  0
  9 10  2  0  0  0  0
 10 11  1  0  0  0  0
 10 29  1  0  0  0  0
 11 12  2  0  0  0  0
 11 30  1  0  0  0  0
 12 13  1  0  0  0  0
 12 31  1  0  0  0  0
 13 14  2  0  0  0  0
 13 40  1  0  0  0  0
 14 15  1  0  0  0  0
 15 19  1  0  0  0  0
 15 16  1  0  0  0  0
 16 17  1  0  0  0  0
 16 32  1  0  0  0  0
 16 33  1  0  0  0  0
 17 18  1  0  0  0  0
 17 34  1  0  0  0  0
 17 35  1  0  0  0  0
 18 19  1  0  0  0  0
 18 36  1  0  0  0  0
 18 37  1  0  0  0  0
 19 38  1  0  0  0  0
 19 39  1  0  0  0  0
M  CHG  1  13   1
M  END
> <s_m_source_file>
AV-unprocessed.smi

> <i_m_source_file_index>
833

> <i_lp_mmshare_version>
43012

> <i_f3d_flags>
0

> <s_epik_input>
W0NIM11bQ0BIXShbT0hdKVtDSDJdW05IXUMoPU8pW05IXWMxW2NIXVtjSF1bY0hdbmMxTjJbQ0gyXVtDSDJdW0NIMl1bQ0gyXTI=

> <s_epik_cmdline>
J2VwaWtfcHl0aG9uJywgJy1waCcsICc3LjAnLCAnLXRuJywgJzgnLCAnLW1hJywgJzIwMCcsICctbWV0YWxfYmluZGluZycsICctaW1hZScsICc8aW5maWxlLm1hZT4nLCAnLW9tYWUnLCAnPG91dGZpbGUubWFlPic=

> <r_lp_tautomer_probability>
0.999994

> <r_epik_Ionization_Penalty>
1.11387

> <r_epik_Ionization_Penalty_Charging>
1.11385

> <r_epik_Ionization_Penalty_Neutral>
1.95796e-05

> <r_epik_State_Penalty>
1.17209

> <r_epik_Charging_Adjusted_Penalty>
2.28594

> <i_epik_Tot_Q>
1

> <i_epik_Tot_abs_Q>
1

> <r_epik_Metal_State_Penalty>
1.25763

> <b_epik_Metal_Only>
0

> <s_lp_Force_Field>
OPLS_2005

> <r_lp_Energy>
38.2358

> <b_lp_Chiralities_Consistent>
1

> <s_lp_Variant>
AV-unprocessed.smi:833-4

> <Gold.Version>
5.8.1

> <Gold.Id.Protein>
6NUR|6NUR_protein|mol2

> <Gold.PLP.Fitness>
51.1206

> <Gold.PLP.PLP>
-45.8899

> <Gold.PLP.part.hbond>
-3.0000

> <Gold.PLP.part.metal>
0.0000

> <Gold.PLP.part.buried>
-5.7423

> <Gold.PLP.part.nonpolar>
-37.4484

> <Gold.PLP.part.repulsive>
0.2564

> <Gold.PLP.ligand.clash>
0.0000

> <Gold.PLP.ligand.torsion>
0.5762

> <Gold.PLP.Chemscore.Hbond>
2.0000

> <Gold.PLP.Chemscore.CHOScore>
0.0000

> <Gold.PLP.Chemscore.Metal>
0.0000

> <Gold.Chemscore.Hbonds>
donor molecule, donor type, donor heavy atom, donor atom, acceptor molecule, acceptor atom, score
      L1  H     3    24       P1  7957  0.94
      P1  H  7997  8010       L1     7  0.89

> <Gold.PLP.Chemscore.Internal.Correction>
0.3832

> <Gold.Rescore>
     Score         DG    S(hbond)    S(metal)    S(lipo)     H(rot)  DE(clash)    DE(int)     intcor
     16.86     -18.73       1.84        0.00     105.74       2.06       0.19       1.67       ----

> <Gold.Chemscore.Fitness>
16.8606

> <Gold.Chemscore.DG>
-18.7256

> <Gold.Chemscore.ZeroCoef>
-5.4800

> <Gold.Chemscore.Hbond>
1.8436

> <Gold.Chemscore.Metal>
0.0000

> <Gold.Chemscore.Lipo>
105.7366

> <Gold.Chemscore.Internal_Hbond>
0.0000

> <Gold.Chemscore.DEClash>
0.1901

> <Gold.Chemscore.DEInternal>
1.6750

> <Gold.Chemscore.Rot>
2.0637

> <Gold.Chemscore.Internal.Correction>
   9.000000E+99

> <Gold.Chemscore.Hbonds>
donor molecule, donor type, donor heavy atom, donor atom, acceptor molecule, acceptor atom, score
      L1  H     3    24       P1  7957  0.88
      P1  H  7997  8010       L1     7  0.79

> <Gold.Chemscore.Hbond.Weighted>
-6.1576

> <Gold.Chemscore.Metal.Weighted>
-0.0000

> <Gold.Chemscore.Lipo.Weighted>
-12.3712

> <Gold.Chemscore.Internal_Hbond.Weighted>
0.0000

> <Gold.Chemscore.DEClash.Weighted>
0.1901

> <Gold.Chemscore.DEInternal.Weighted>
1.6750

> <Gold.Chemscore.Rot.Weighted>
5.2832

> <Gold.Chemscore.Internal.Correction.Weighted>
   9.000000E+99

> <Gold.Protein.RotatedTorsions>
[ 6907 6896 6895 6894 ] final -162.36 input  -60.11 | X-H torsion
[ 7974 7965 7964 7962 ] final -115.21 input  175.53 | X-H torsion
[ 8008 7997 7996 7995 ] final   57.75 input   59.86 | X-H torsion
[ 10167 10162 10161 10158 ] final  120.51 input  -65.29 | X-H torsion
[ 10718 10713 10712 10709 ] final  -77.58 input   66.30 | X-H torsion
[ 10763 10752 10751 10750 ] final -120.07 input  -60.55 | X-H torsion
[ 11005 11000 10999 10996 ] final  -62.58 input  -57.11 | X-H torsion

> <Gold.Protein.ActiveResidues>
 VAL166  LYS551  ARG553  GLY616  TRP617  ASP618  TYR619  PRO620  LYS621  CYS622 
 ASP623  PHE694  ASN695  SER759  ASP760  ASP761  ALA762  ILE779  LEU786  VAL792 
 PHE793  MET794  SER795  GLU796  ALA797  LYS798  CYS799  TRP800  GLU811  SER814 

> <Gold.Protein.RotatedAtoms>
  151.3790  133.3828  159.2707 H   0  0  0  0  0  0  0  0  0  0  0  0  # atno 6907 bound_to 6896
  150.9592  134.8983  159.7730 H   0  0  0  0  0  0  0  0  0  0  0  0  # atno 6908 bound_to 6896
  152.5143  134.3749  159.9383 H   0  0  0  0  0  0  0  0  0  0  0  0  # atno 6909 bound_to 6896
  145.1111  140.8612  143.3869 H   0  0  0  0  0  0  0  0  0  0  0  0  # atno 7974 bound_to 7965
  155.5388  140.3484  155.4442 H   0  0  0  0  0  0  0  0  0  0  0  0  # atno 8008 bound_to 7997
  156.0666  140.1353  156.9905 H   0  0  0  0  0  0  0  0  0  0  0  0  # atno 8009 bound_to 7997
  154.4506  140.0974  156.6581 H   0  0  0  0  0  0  0  0  0  0  0  0  # atno 8010 bound_to 7997
  139.5977  144.7047  151.3136 H   0  0  0  0  0  0  0  0  0  0  0  0  # atno 10167 bound_to 10162
  156.0141  130.4495  150.3367 H   0  0  0  0  0  0  0  0  0  0  0  0  # atno 10718 bound_to 10713
  154.8634  135.4216  154.2401 H   0  0  0  0  0  0  0  0  0  0  0  0  # atno 10763 bound_to 10752
  153.3368  135.6991  153.6906 H   0  0  0  0  0  0  0  0  0  0  0  0  # atno 10764 bound_to 10752
  153.5901  135.3556  155.2881 H   0  0  0  0  0  0  0  0  0  0  0  0  # atno 10765 bound_to 10752
  141.1364  133.6641  156.5549 H   0  0  0  0  0  0  0  0  0  0  0  0  # atno 11005 bound_to 11000
  145.0846  139.2934  143.5766 LP  0  0  0  0  0  0  0  0  0  0  0  0  # atno 17320 bound_to 7965
  146.3526  140.0363  142.8646 LP  0  0  0  0  0  0  0  0  0  0  0  0  # atno 17321 bound_to 7965
  140.7225  143.7095  150.7780 LP  0  0  0  0  0  0  0  0  0  0  0  0  # atno 17342 bound_to 10162
  140.0665  143.5103  152.2601 LP  0  0  0  0  0  0  0  0  0  0  0  0  # atno 17343 bound_to 10162
  157.1463  131.0309  151.2905 LP  0  0  0  0  0  0  0  0  0  0  0  0  # atno 17370 bound_to 10713
  157.4429  130.7554  149.7085 LP  0  0  0  0  0  0  0  0  0  0  0  0  # atno 17371 bound_to 10713
  140.4034  134.7336  157.4793 LP  0  0  0  0  0  0  0  0  0  0  0  0  # atno 17394 bound_to 11000
  140.0479  134.6172  155.8898 LP  0  0  0  0  0  0  0  0  0  0  0  0  # atno 17395 bound_to 11000

$$$$
