AV-unprocessed.smi:1809|AV-procd|sdf|7330|dock1
  -GOLD-   22720 8583D 1   1.00000     0.00000
 Structure written by MMmdl.
 38 40  0  0  0  0  0  0  0  0  2 V2000
  155.1452  136.5559  163.9850 C   0  0  0  0  0  0  0  0  0  0  0  0
  154.5663  136.6128  162.6130 C   0  0  0  0  0  0  0  0  0  0  0  0
  154.6028  135.5784  161.7696 N   0  0  0  0  0  0  0  0  0  0  0  0
  154.0024  135.8737  160.5542 N   0  0  0  0  0  0  0  0  0  0  0  0
  153.5332  137.1279  160.4901 C   0  0  0  0  0  0  0  0  0  0  0  0
  152.9143  137.6106  159.3999 N   0  5  0  0  0  0  0  0  0  0  0  0
  153.2711  138.8143  158.8969 C   0  0  0  0  0  0  0  0  0  0  0  0
  154.4040  139.3018  158.9002 O   0  0  0  0  0  0  0  0  0  0  0  0
  152.2537  139.4981  158.3577 N   0  0  0  0  0  0  0  0  0  0  0  0
  152.3608  140.8156  157.7445 C   0  0  0  0  0  0  0  0  0  0  0  0
  151.0292  141.5824  157.8592 C   0  0  1  0  0  0  0  0  0  0  0  0
  150.8068  142.1902  159.2646 C   0  0  0  0  0  0  0  0  0  0  0  0
  151.6408  143.3624  159.4551 N   0  0  0  0  0  0  0  0  0  0  0  0
  151.4683  144.0902  160.6904 C   0  0  0  0  0  0  0  0  0  0  0  0
  152.1438  145.4476  160.4296 C   0  0  0  0  0  0  0  0  0  0  0  0
  152.1901  145.5648  158.8901 C   0  0  0  0  0  0  0  0  0  0  0  0
  151.3943  144.3412  158.4317 C   0  0  1  0  0  0  0  0  0  0  0  0
  151.7135  143.7694  157.0439 C   0  0  0  0  0  0  0  0  0  0  0  0
  150.9160  142.5975  156.8480 O   0  0  0  0  0  0  0  0  0  0  0  0
  153.7864  138.0492  161.9724 S   0  0  0  0  0  0  0  0  0  0  0  0
  156.2171  136.7487  163.9442 H   0  0  0  0  0  0  0  0  0  0  0  0
  154.9806  135.5721  164.4254 H   0  0  0  0  0  0  0  0  0  0  0  0
  154.6778  137.3056  164.6234 H   0  0  0  0  0  0  0  0  0  0  0  0
  151.3406  139.0677  158.3663 H   0  0  0  0  0  0  0  0  0  0  0  0
  153.1501  141.3760  158.2477 H   0  0  0  0  0  0  0  0  0  0  0  0
  152.6665  140.7099  156.7030 H   0  0  0  0  0  0  0  0  0  0  0  0
  150.2260  140.8676  157.6764 H   0  0  0  0  0  0  0  0  0  0  0  0
  149.7573  142.4681  159.3716 H   0  0  0  0  0  0  0  0  0  0  0  0
  151.0140  141.4503  160.0383 H   0  0  0  0  0  0  0  0  0  0  0  0
  150.4067  144.2383  160.8950 H   0  0  0  0  0  0  0  0  0  0  0  0
  151.9052  143.5579  161.5357 H   0  0  0  0  0  0  0  0  0  0  0  0
  151.5796  146.2614  160.8857 H   0  0  0  0  0  0  0  0  0  0  0  0
  153.1534  145.4667  160.8416 H   0  0  0  0  0  0  0  0  0  0  0  0
  151.7581  146.4970  158.5253 H   0  0  0  0  0  0  0  0  0  0  0  0
  153.2218  145.5080  158.5400 H   0  0  0  0  0  0  0  0  0  0  0  0
  150.3357  144.6095  158.4496 H   0  0  0  0  0  0  0  0  0  0  0  0
  151.4783  144.4960  156.2663 H   0  0  0  0  0  0  0  0  0  0  0  0
  152.7730  143.5299  156.9479 H   0  0  0  0  0  0  0  0  0  0  0  0
  1  2  1  0  0  0  0
  1 21  1  0  0  0  0
  1 22  1  0  0  0  0
  1 23  1  0  0  0  0
  2 20  1  0  0  0  0
  2  3  2  0  0  0  0
  3  4  1  0  0  0  0
  4  5  2  0  0  0  0
  5  6  1  0  0  0  0
  5 20  1  0  0  0  0
  6  7  1  0  0  0  0
  7  8  2  0  0  0  0
  7  9  1  0  0  0  0
  9 10  1  0  0  0  0
  9 24  1  0  0  0  0
 10 11  1  0  0  0  0
 10 25  1  0  0  0  0
 10 26  1  0  0  0  0
 11 19  1  0  0  0  0
 11 12  1  0  0  0  0
 11 27  1  0  0  0  0
 12 13  1  0  0  0  0
 12 28  1  0  0  0  0
 12 29  1  0  0  0  0
 13 17  1  0  0  0  0
 13 14  1  0  0  0  0
 14 15  1  0  0  0  0
 14 30  1  0  0  0  0
 14 31  1  0  0  0  0
 15 16  1  0  0  0  0
 15 32  1  0  0  0  0
 15 33  1  0  0  0  0
 16 17  1  0  0  0  0
 16 34  1  0  0  0  0
 16 35  1  0  0  0  0
 17 18  1  0  0  0  0
 17 36  1  0  0  0  0
 18 19  1  0  0  0  0
 18 37  1  0  0  0  0
 18 38  1  0  0  0  0
M  CHG  1   6  -1
M  END
> <s_m_source_file>
AV-unprocessed.smi

> <i_m_source_file_index>
1809

> <i_lp_mmshare_version>
43012

> <i_f3d_flags>
0

> <s_epik_input>
W0NIM11jMW5uYyhzMSlbTkhdQyg9TylbTkhdW0NIMl1bQ0BIXShbQ0gyXTIpT1tDSDJdW0NAQEhdKE4yMylbQ0gyXVtDSDJdW0NIMl0z

> <s_epik_cmdline>
J2VwaWtfcHl0aG9uJywgJy1waCcsICc3LjAnLCAnLXRuJywgJzgnLCAnLW1hJywgJzIwMCcsICctbWV0YWxfYmluZGluZycsICctaW1hZScsICc8aW5maWxlLm1hZT4nLCAnLW9tYWUnLCAnPG91dGZpbGUubWFlPic=

> <r_lp_tautomer_probability>
1

> <r_epik_Ionization_Penalty>
4.48809

> <r_epik_Ionization_Penalty_Charging>
3.27284

> <r_epik_Ionization_Penalty_Neutral>
1.21525

> <r_epik_State_Penalty>
4.69427

> <r_epik_Charging_Adjusted_Penalty>
7.96711

> <i_epik_Tot_Q>
-1

> <i_epik_Tot_abs_Q>
1

> <r_epik_Metal_State_Penalty>
1.91976

> <b_epik_Metal_Only>
1

> <s_lp_Force_Field>
OPLS_2005

> <r_lp_Energy>
48.8238

> <b_lp_Chiralities_Consistent>
1

> <s_lp_Variant>
AV-unprocessed.smi:1809-22

> <Gold.Version>
5.8.1

> <Gold.Id.Protein>
6NUR|6NUR_protein|mol2

> <Gold.PLP.Fitness>
32.8540

> <Gold.PLP.PLP>
-28.8758

> <Gold.PLP.part.hbond>
-2.0000

> <Gold.PLP.part.metal>
0.0000

> <Gold.PLP.part.buried>
-3.0375

> <Gold.PLP.part.nonpolar>
-22.2741

> <Gold.PLP.part.repulsive>
0.2150

> <Gold.PLP.ligand.clash>
0.0000

> <Gold.PLP.ligand.torsion>
1.0418

> <Gold.PLP.Chemscore.Hbond>
2.0000

> <Gold.PLP.Chemscore.CHOScore>
0.0000

> <Gold.PLP.Chemscore.Metal>
0.0000

> <Gold.Chemscore.Hbonds>
donor molecule, donor type, donor heavy atom, donor atom, acceptor molecule, acceptor atom, score
      P1  H  6896  6909       L1     4  1.00
      P1  H  7997  8008       L1     8  1.00

> <Gold.PLP.Chemscore.Internal.Correction>
0.0618

> <Gold.Rescore>
     Score         DG    S(hbond)    S(metal)    S(lipo)     H(rot)  DE(clash)    DE(int)     intcor
     16.98     -20.13       1.91        0.00      99.17       1.31       2.29       0.86       ----

> <Gold.Chemscore.Fitness>
16.9786

> <Gold.Chemscore.DG>
-20.1277

> <Gold.Chemscore.ZeroCoef>
-5.4800

> <Gold.Chemscore.Hbond>
1.9119

> <Gold.Chemscore.Metal>
0.0000

> <Gold.Chemscore.Lipo>
99.1716

> <Gold.Chemscore.Internal_Hbond>
0.0000

> <Gold.Chemscore.DEClash>
2.2879

> <Gold.Chemscore.DEInternal>
0.8612

> <Gold.Chemscore.Rot>
1.3051

> <Gold.Chemscore.Internal.Correction>
   9.000000E+99

> <Gold.Chemscore.Hbonds>
donor molecule, donor type, donor heavy atom, donor atom, acceptor molecule, acceptor atom, score
      P1  H  6896  6909       L1     4  0.31
      P1  H  7997  8008       L1     8  0.57

> <Gold.Chemscore.Hbond.Weighted>
-6.3858

> <Gold.Chemscore.Metal.Weighted>
-0.0000

> <Gold.Chemscore.Lipo.Weighted>
-11.6031

> <Gold.Chemscore.Internal_Hbond.Weighted>
0.0000

> <Gold.Chemscore.DEClash.Weighted>
2.2879

> <Gold.Chemscore.DEInternal.Weighted>
0.8612

> <Gold.Chemscore.Rot.Weighted>
3.3412

> <Gold.Chemscore.Internal.Correction.Weighted>
   9.000000E+99

> <Gold.Protein.RotatedTorsions>
[ 6907 6896 6895 6894 ] final  171.89 input  -60.11 | X-H torsion
[ 7974 7965 7964 7962 ] final  104.76 input  175.53 | X-H torsion
[ 8008 7997 7996 7995 ] final  -93.53 input   59.86 | X-H torsion
[ 10167 10162 10161 10158 ] final -136.56 input  -65.29 | X-H torsion
[ 10718 10713 10712 10709 ] final  -52.78 input   66.30 | X-H torsion
[ 10763 10752 10751 10750 ] final   12.54 input  -60.55 | X-H torsion
[ 11005 11000 10999 10996 ] final  171.89 input  -57.11 | X-H torsion

> <Gold.Protein.ActiveResidues>
 VAL166  LYS551  ARG553  GLY616  TRP617  ASP618  TYR619  PRO620  LYS621  CYS622 
 ASP623  PHE694  ASN695  SER759  ASP760  ASP761  ALA762  ILE779  LEU786  VAL792 
 PHE793  MET794  SER795  GLU796  ALA797  LYS798  CYS799  TRP800  GLU811  SER814 

> <Gold.Protein.RotatedAtoms>
  151.7931  133.3361  159.3504 H   0  0  0  0  0  0  0  0  0  0  0  0  # atno 6907 bound_to 6896
  150.7385  134.5824  159.5955 H   0  0  0  0  0  0  0  0  0  0  0  0  # atno 6908 bound_to 6896
  152.3196  134.7398  160.0368 H   0  0  0  0  0  0  0  0  0  0  0  0  # atno 6909 bound_to 6896
  145.3286  139.2493  143.3673 H   0  0  0  0  0  0  0  0  0  0  0  0  # atno 7974 bound_to 7965
  154.7369  140.0498  157.0776 H   0  0  0  0  0  0  0  0  0  0  0  0  # atno 8008 bound_to 7997
  155.0229  140.3149  155.4767 H   0  0  0  0  0  0  0  0  0  0  0  0  # atno 8009 bound_to 7997
  156.2855  140.2164  156.5347 H   0  0  0  0  0  0  0  0  0  0  0  0  # atno 8010 bound_to 7997
  139.8665  143.7010  152.2644 H   0  0  0  0  0  0  0  0  0  0  0  0  # atno 10167 bound_to 10162
  156.1592  130.4150  149.9820 H   0  0  0  0  0  0  0  0  0  0  0  0  # atno 10718 bound_to 10713
  153.1812  135.6828  153.8475 H   0  0  0  0  0  0  0  0  0  0  0  0  # atno 10763 bound_to 10752
  153.7806  135.3183  155.3366 H   0  0  0  0  0  0  0  0  0  0  0  0  # atno 10764 bound_to 10752
  154.8061  135.4747  154.0491 H   0  0  0  0  0  0  0  0  0  0  0  0  # atno 10765 bound_to 10752
  140.3238  134.7415  157.4084 H   0  0  0  0  0  0  0  0  0  0  0  0  # atno 11005 bound_to 11000
  146.3054  140.3858  142.8689 LP  0  0  0  0  0  0  0  0  0  0  0  0  # atno 17320 bound_to 7965
  144.8882  140.7490  143.5943 LP  0  0  0  0  0  0  0  0  0  0  0  0  # atno 17321 bound_to 7965
  139.7324  144.7579  151.0781 LP  0  0  0  0  0  0  0  0  0  0  0  0  # atno 17342 bound_to 10162
  140.7767  143.5072  150.9697 LP  0  0  0  0  0  0  0  0  0  0  0  0  # atno 17343 bound_to 10162
  156.7654  130.9166  151.3643 LP  0  0  0  0  0  0  0  0  0  0  0  0  # atno 17370 bound_to 10713
  157.6719  130.9059  150.0060 LP  0  0  0  0  0  0  0  0  0  0  0  0  # atno 17371 bound_to 10713
  140.0919  134.5589  155.8436 LP  0  0  0  0  0  0  0  0  0  0  0  0  # atno 17394 bound_to 11000
  141.2080  133.6669  156.6343 LP  0  0  0  0  0  0  0  0  0  0  0  0  # atno 17395 bound_to 11000

$$$$
