AV-unprocessed.smi:2339|AV-procd|sdf|9343|dock2
  -GOLD-   2272012563D 1   1.00000     0.00000
 Structure written by MMmdl.
 49 52  0  0  0  0  0  0  0  0  1 V2000
  148.3711  131.3804  161.6570 C   0  0  0  0  0  0  0  0  0  0  0  0
  147.6472  132.2831  160.6520 C   0  0  0  0  0  0  0  0  0  0  0  0
  147.5899  133.6634  161.1108 N   0  0  0  0  0  0  0  0  0  0  0  0
  146.9661  134.0030  162.3068 C   0  0  0  0  0  0  0  0  0  0  0  0
  146.8302  135.2660  162.7550 C   0  0  0  0  0  0  0  0  0  0  0  0
  147.3625  136.3817  161.9475 C   0  0  0  0  0  0  0  0  0  0  0  0
  147.2560  137.5480  162.3269 O   0  0  0  0  0  0  0  0  0  0  0  0
  148.0251  136.0189  160.6671 C   0  0  0  0  0  0  0  0  0  0  0  0
  148.5131  137.0884  159.9011 N   0  0  0  0  0  0  0  0  0  0  0  0
  149.6667  137.2023  159.2126 C   0  0  0  0  0  0  0  0  0  0  0  0
  150.5629  136.3623  159.1786 O   0  0  0  0  0  0  0  0  0  0  0  0
  149.7714  138.3545  158.5275 N   0  0  0  0  0  0  0  0  0  0  0  0
  150.8856  138.7922  157.6838 C   0  0  1  0  0  0  0  0  0  0  0  0
  150.4220  139.1486  156.2621 C   0  0  2  0  0  0  0  0  0  0  0  0
  150.8839  138.3195  155.0950 C   0  0  0  0  0  0  0  0  0  0  0  0
  152.0880  139.1081  154.5734 C   0  0  0  0  0  0  0  0  0  0  0  0
  152.5097  139.8954  155.6848 O   0  0  0  0  0  0  0  0  0  0  0  0
  151.3382  140.3591  156.3517 C   0  0  2  0  0  0  0  0  0  0  0  0
  151.3298  140.2621  157.8921 C   0  0  0  0  0  0  0  0  0  0  0  0
  150.3959  141.2432  158.6065 C   0  0  0  0  0  0  0  0  0  0  0  0
  151.2157  142.5035  158.8913 C   0  0  0  0  0  0  0  0  0  0  0  0
  152.6766  142.0434  158.9255 C   0  0  0  0  0  0  0  0  0  0  0  0
  152.6478  140.5451  158.6094 C   0  0  0  0  0  0  0  0  0  0  0  0
  148.0908  134.7051  160.3324 C   0  0  0  0  0  0  0  0  0  0  0  0
  148.4025  130.3508  161.3004 H   0  0  0  0  0  0  0  0  0  0  0  0
  147.8669  131.3832  162.6238 H   0  0  0  0  0  0  0  0  0  0  0  0
  149.3988  131.7102  161.8125 H   0  0  0  0  0  0  0  0  0  0  0  0
  148.1518  132.2419  159.6860 H   0  0  0  0  0  0  0  0  0  0  0  0
  146.6355  131.9122  160.4840 H   0  0  0  0  0  0  0  0  0  0  0  0
  146.5920  133.1600  162.8694 H   0  0  0  0  0  0  0  0  0  0  0  0
  146.3391  135.4823  163.6923 H   0  0  0  0  0  0  0  0  0  0  0  0
  147.8928  137.8840  159.8556 H   0  0  0  0  0  0  0  0  0  0  0  0
  148.9915  138.9922  158.5932 H   0  0  0  0  0  0  0  0  0  0  0  0
  151.7337  138.1036  157.6685 H   0  0  0  0  0  0  0  0  0  0  0  0
  149.3724  139.4464  156.2235 H   0  0  0  0  0  0  0  0  0  0  0  0
  151.1840  137.3230  155.4203 H   0  0  0  0  0  0  0  0  0  0  0  0
  150.1154  138.2054  154.3299 H   0  0  0  0  0  0  0  0  0  0  0  0
  152.8886  138.4637  154.2101 H   0  0  0  0  0  0  0  0  0  0  0  0
  151.7880  139.7726  153.7616 H   0  0  0  0  0  0  0  0  0  0  0  0
  150.9204  141.2704  155.9213 H   0  0  0  0  0  0  0  0  0  0  0  0
  149.5011  141.4705  158.0260 H   0  0  0  0  0  0  0  0  0  0  0  0
  150.0594  140.8290  159.5573 H   0  0  0  0  0  0  0  0  0  0  0  0
  151.0763  143.2309  158.0905 H   0  0  0  0  0  0  0  0  0  0  0  0
  150.9113  142.9781  159.8245 H   0  0  0  0  0  0  0  0  0  0  0  0
  153.2530  142.5798  158.1707 H   0  0  0  0  0  0  0  0  0  0  0  0
  153.1431  142.2348  159.8924 H   0  0  0  0  0  0  0  0  0  0  0  0
  152.6909  139.9857  159.5435 H   0  0  0  0  0  0  0  0  0  0  0  0
  153.5197  140.2441  158.0285 H   0  0  0  0  0  0  0  0  0  0  0  0
  148.5423  134.3524  159.4191 H   0  0  0  0  0  0  0  0  0  0  0  0
  1  2  1  0  0  0  0
  1 25  1  0  0  0  0
  1 26  1  0  0  0  0
  1 27  1  0  0  0  0
  2  3  1  0  0  0  0
  2 28  1  0  0  0  0
  2 29  1  0  0  0  0
  3 24  1  0  0  0  0
  3  4  1  0  0  0  0
  4  5  2  0  0  0  0
  4 30  1  0  0  0  0
  5  6  1  0  0  0  0
  5 31  1  0  0  0  0
  6  7  2  0  0  0  0
  6  8  1  0  0  0  0
  8  9  1  0  0  0  0
  8 24  2  0  0  0  0
  9 10  1  0  0  0  0
  9 32  1  0  0  0  0
 10 11  2  0  0  0  0
 10 12  1  0  0  0  0
 12 13  1  0  0  0  0
 12 33  1  0  0  0  0
 13 19  1  0  0  0  0
 13 14  1  0  0  0  0
 13 34  1  0  0  0  0
 14 18  1  0  0  0  0
 14 15  1  0  0  0  0
 14 35  1  0  0  0  0
 15 16  1  0  0  0  0
 15 36  1  0  0  0  0
 15 37  1  0  0  0  0
 16 17  1  0  0  0  0
 16 38  1  0  0  0  0
 16 39  1  0  0  0  0
 17 18  1  0  0  0  0
 18 19  1  0  0  0  0
 18 40  1  0  0  0  0
 19 23  1  0  0  0  0
 19 20  1  0  0  0  0
 20 21  1  0  0  0  0
 20 41  1  0  0  0  0
 20 42  1  0  0  0  0
 21 22  1  0  0  0  0
 21 43  1  0  0  0  0
 21 44  1  0  0  0  0
 22 23  1  0  0  0  0
 22 45  1  0  0  0  0
 22 46  1  0  0  0  0
 23 47  1  0  0  0  0
 23 48  1  0  0  0  0
 24 49  1  0  0  0  0
M  END
> <s_m_source_file>
AV-unprocessed.smi

> <i_m_source_file_index>
2339

> <i_lp_mmshare_version>
43012

> <i_f3d_flags>
0

> <s_epik_input>
W0NIM11bQ0gyXW4xW2NIXVtjSF1jKD1PKWMoW2NIXTEpW05IXUMoPU8pW05IXVtDQEBIXTJbQ0BASF0oW0NIMl1bQ0gyXU8zKVtDQEBIXTNDMjRbQ0gyXVtDSDJdW0NIMl1bQ0gyXTQ=

> <s_epik_cmdline>
J2VwaWtfcHl0aG9uJywgJy1waCcsICc3LjAnLCAnLXRuJywgJzgnLCAnLW1hJywgJzIwMCcsICctbWV0YWxfYmluZGluZycsICctaW1hZScsICc8aW5maWxlLm1hZT4nLCAnLW9tYWUnLCAnPG91dGZpbGUubWFlPic=

> <r_lp_tautomer_probability>
1

> <r_epik_Ionization_Penalty>
0.00145966

> <r_epik_Ionization_Penalty_Charging>
0.00143969

> <r_epik_Ionization_Penalty_Neutral>
1.99697e-05

> <r_epik_State_Penalty>
0.000961843

> <r_epik_Charging_Adjusted_Penalty>
0.00240153

> <i_epik_Tot_Q>
0

> <i_epik_Tot_abs_Q>
0

> <r_epik_Metal_State_Penalty>
-0

> <b_epik_Metal_Only>
0

> <s_lp_Force_Field>
OPLS_2005

> <r_lp_Energy>
57.3281

> <b_lp_Chiralities_Consistent>
1

> <s_lp_Variant>
AV-unprocessed.smi:2339-8

> <Gold.Version>
5.8.1

> <Gold.Id.Protein>
6NUR|6NUR_protein|mol2

> <Gold.PLP.Fitness>
52.0469

> <Gold.PLP.PLP>
-43.0486

> <Gold.PLP.part.hbond>
-4.1430

> <Gold.PLP.part.metal>
0.0000

> <Gold.PLP.part.buried>
-3.4556

> <Gold.PLP.part.nonpolar>
-35.8301

> <Gold.PLP.part.repulsive>
0.4029

> <Gold.PLP.ligand.clash>
0.0000

> <Gold.PLP.ligand.torsion>
0.4453

> <Gold.PLP.Chemscore.Hbond>
3.2320

> <Gold.PLP.Chemscore.CHOScore>
0.0000

> <Gold.PLP.Chemscore.Metal>
0.0000

> <Gold.Chemscore.Hbonds>
donor molecule, donor type, donor heavy atom, donor atom, acceptor molecule, acceptor atom, score
      P1  H  6896  6907       L1    11  1.00
      P1  H  6931  6943       L1     7  0.64
      P1  H  6934  6947       L1     7  0.53
      P1  H  7997  8010       L1    17  1.00

> <Gold.PLP.Chemscore.Internal.Correction>
0.1929

> <Gold.Rescore>
     Score         DG    S(hbond)    S(metal)    S(lipo)     H(rot)  DE(clash)    DE(int)     intcor
     23.98     -24.65       3.21        0.00      97.58       1.17       0.03       0.63       ----

> <Gold.Chemscore.Fitness>
23.9836

> <Gold.Chemscore.DG>
-24.6458

> <Gold.Chemscore.ZeroCoef>
-5.4800

> <Gold.Chemscore.Hbond>
3.2146

> <Gold.Chemscore.Metal>
0.0000

> <Gold.Chemscore.Lipo>
97.5767

> <Gold.Chemscore.Internal_Hbond>
0.0000

> <Gold.Chemscore.DEClash>
0.0297

> <Gold.Chemscore.DEInternal>
0.6325

> <Gold.Chemscore.Rot>
1.1670

> <Gold.Chemscore.Internal.Correction>
   9.000000E+99

> <Gold.Chemscore.Hbonds>
donor molecule, donor type, donor heavy atom, donor atom, acceptor molecule, acceptor atom, score
      P1  H  6896  6907       L1    11  0.95
      P1  H  6931  6943       L1     7  0.22
      P1  H  6934  6947       L1     7  0.48
      P1  H  7997  8010       L1    17  0.98

> <Gold.Chemscore.Hbond.Weighted>
-10.7367

> <Gold.Chemscore.Metal.Weighted>
-0.0000

> <Gold.Chemscore.Lipo.Weighted>
-11.4165

> <Gold.Chemscore.Internal_Hbond.Weighted>
0.0000

> <Gold.Chemscore.DEClash.Weighted>
0.0297

> <Gold.Chemscore.DEInternal.Weighted>
0.6325

> <Gold.Chemscore.Rot.Weighted>
2.9874

> <Gold.Chemscore.Internal.Correction.Weighted>
   9.000000E+99

> <Gold.Protein.RotatedTorsions>
[ 6907 6896 6895 6894 ] final  -39.18 input  -60.11 | X-H torsion
[ 7974 7965 7964 7962 ] final  -42.02 input  175.53 | X-H torsion
[ 8008 7997 7996 7995 ] final   94.54 input   59.86 | X-H torsion
[ 10167 10162 10161 10158 ] final  -57.58 input  -65.29 | X-H torsion
[ 10718 10713 10712 10709 ] final  -73.57 input   66.30 | X-H torsion
[ 10763 10752 10751 10750 ] final   49.03 input  -60.55 | X-H torsion
[ 11005 11000 10999 10996 ] final -158.90 input  -57.11 | X-H torsion

> <Gold.Protein.ActiveResidues>
 VAL166  LYS551  ARG553  GLY616  TRP617  ASP618  TYR619  PRO620  LYS621  CYS622 
 ASP623  PHE694  ASN695  SER759  ASP760  ASP761  ALA762  ILE779  LEU786  VAL792 
 PHE793  MET794  SER795  GLU796  ALA797  LYS798  CYS799  TRP800  GLU811  SER814 

> <Gold.Protein.RotatedAtoms>
  150.9935  134.9264  159.7912 H   0  0  0  0  0  0  0  0  0  0  0  0  # atno 6907 bound_to 6896
  152.5258  134.3250  159.9172 H   0  0  0  0  0  0  0  0  0  0  0  0  # atno 6908 bound_to 6896
  151.3256  133.3980  159.2692 H   0  0  0  0  0  0  0  0  0  0  0  0  # atno 6909 bound_to 6896
  146.0156  140.6912  142.9203 H   0  0  0  0  0  0  0  0  0  0  0  0  # atno 7974 bound_to 7965
  156.0591  140.3298  155.7440 H   0  0  0  0  0  0  0  0  0  0  0  0  # atno 8008 bound_to 7997
  155.5483  140.0608  157.2873 H   0  0  0  0  0  0  0  0  0  0  0  0  # atno 8009 bound_to 7997
  154.4472  140.1898  156.0649 H   0  0  0  0  0  0  0  0  0  0  0  0  # atno 8010 bound_to 7997
  140.6249  143.2434  151.5388 H   0  0  0  0  0  0  0  0  0  0  0  0  # atno 10167 bound_to 10162
  156.0275  130.4397  150.2762 H   0  0  0  0  0  0  0  0  0  0  0  0  # atno 10718 bound_to 10713
  152.9788  135.5925  154.4023 H   0  0  0  0  0  0  0  0  0  0  0  0  # atno 10763 bound_to 10752
  154.3667  135.2767  155.2291 H   0  0  0  0  0  0  0  0  0  0  0  0  # atno 10764 bound_to 10752
  154.4264  135.6046  153.6096 H   0  0  0  0  0  0  0  0  0  0  0  0  # atno 10765 bound_to 10752
  140.6485  134.4476  157.5234 H   0  0  0  0  0  0  0  0  0  0  0  0  # atno 11005 bound_to 11000
  144.6969  140.3475  143.7188 LP  0  0  0  0  0  0  0  0  0  0  0  0  # atno 17320 bound_to 7965
  145.7274  139.1726  143.2450 LP  0  0  0  0  0  0  0  0  0  0  0  0  # atno 17321 bound_to 7965
  139.5471  144.2492  152.1462 LP  0  0  0  0  0  0  0  0  0  0  0  0  # atno 17342 bound_to 10162
  140.1721  144.4925  150.6574 LP  0  0  0  0  0  0  0  0  0  0  0  0  # atno 17343 bound_to 10162
  157.0866  131.0158  151.3137 LP  0  0  0  0  0  0  0  0  0  0  0  0  # atno 17370 bound_to 10713
  157.4887  130.7809  149.7485 LP  0  0  0  0  0  0  0  0  0  0  0  0  # atno 17371 bound_to 10713
  139.9054  134.8460  156.1726 LP  0  0  0  0  0  0  0  0  0  0  0  0  # atno 17394 bound_to 11000
  141.0554  133.6867  156.1851 LP  0  0  0  0  0  0  0  0  0  0  0  0  # atno 17395 bound_to 11000

$$$$
