AV-unprocessed.smi:2340|AV-procd|sdf|9348|dock8
  -GOLD-   2272012573D 1   1.00000     0.00000
 Structure written by MMmdl.
 40 41  0  0  0  0  0  0  0  0  1 V2000
  146.2675  136.8081  152.5118 C   0  0  0  0  0  0  0  0  0  0  0  0
  146.5577  138.2755  152.4766 C   0  0  0  0  0  0  0  0  0  0  0  0
  146.4938  139.1043  151.3844 C   0  0  0  0  0  0  0  0  0  0  0  0
  146.9128  140.7457  151.7902 S   0  0  0  0  0  0  0  0  0  0  0  0
  147.1639  140.2385  153.4595 C   0  0  0  0  0  0  0  0  0  0  0  0
  147.5893  141.1674  154.5542 C   0  0  2  0  0  0  0  0  0  0  0  0
  146.6407  142.3734  154.6660 C   0  0  0  0  0  0  0  0  0  0  0  0
  149.0749  141.5611  154.4063 C   0  0  0  0  0  0  0  0  0  0  0  0
  149.4987  142.5521  155.3905 N   0  0  0  0  0  0  0  0  0  0  0  0
  150.4118  142.3411  156.3482 C   0  0  0  0  0  0  0  0  0  0  0  0
  151.0041  141.2747  156.5136 O   0  0  0  0  0  0  0  0  0  0  0  0
  150.6054  143.4344  157.0990 N   0  0  0  0  0  0  0  0  0  0  0  0
  151.5331  143.5331  158.2264 C   0  0  2  0  0  0  0  0  0  0  0  0
  150.7672  143.7094  159.5372 C   0  0  0  0  0  0  0  0  0  0  0  0
  151.4508  144.8938  160.2123 C   0  0  0  0  0  0  0  0  0  0  0  0
  151.9053  145.6724  159.1200 O   0  0  0  0  0  0  0  0  0  0  0  0
  152.4553  144.7739  158.1679 C   0  0  2  0  0  0  0  0  0  0  0  0
  152.6190  145.4796  156.8119 C   0  0  0  0  0  0  0  0  0  0  0  0
  146.9402  138.9347  153.6481 N   0  0  0  0  0  0  0  0  0  0  0  0
  146.0490  136.4203  151.5165 H   0  0  0  0  0  0  0  0  0  0  0  0
  145.4072  136.5929  153.1457 H   0  0  0  0  0  0  0  0  0  0  0  0
  147.1169  136.2480  152.9037 H   0  0  0  0  0  0  0  0  0  0  0  0
  146.2268  138.8500  150.3693 H   0  0  0  0  0  0  0  0  0  0  0  0
  147.4942  140.6100  155.4876 H   0  0  0  0  0  0  0  0  0  0  0  0
  145.6093  142.0463  154.8005 H   0  0  0  0  0  0  0  0  0  0  0  0
  146.6785  142.9936  153.7700 H   0  0  0  0  0  0  0  0  0  0  0  0
  146.8934  143.0052  155.5176 H   0  0  0  0  0  0  0  0  0  0  0  0
  149.7091  140.6764  154.4868 H   0  0  0  0  0  0  0  0  0  0  0  0
  149.2550  141.9769  153.4147 H   0  0  0  0  0  0  0  0  0  0  0  0
  149.0682  143.4635  155.3345 H   0  0  0  0  0  0  0  0  0  0  0  0
  150.0744  144.2635  156.8763 H   0  0  0  0  0  0  0  0  0  0  0  0
  152.1479  142.6331  158.2850 H   0  0  0  0  0  0  0  0  0  0  0  0
  149.7215  143.9585  159.3493 H   0  0  0  0  0  0  0  0  0  0  0  0
  150.7858  142.8142  160.1593 H   0  0  0  0  0  0  0  0  0  0  0  0
  150.7782  145.4580  160.8587 H   0  0  0  0  0  0  0  0  0  0  0  0
  152.3044  144.5646  160.8068 H   0  0  0  0  0  0  0  0  0  0  0  0
  153.4439  144.4846  158.5294 H   0  0  0  0  0  0  0  0  0  0  0  0
  153.0326  144.8032  156.0635 H   0  0  0  0  0  0  0  0  0  0  0  0
  153.2983  146.3277  156.8995 H   0  0  0  0  0  0  0  0  0  0  0  0
  151.6680  145.8597  156.4381 H   0  0  0  0  0  0  0  0  0  0  0  0
  1  2  1  0  0  0  0
  1 20  1  0  0  0  0
  1 21  1  0  0  0  0
  1 22  1  0  0  0  0
  2 19  1  0  0  0  0
  2  3  2  0  0  0  0
  3  4  1  0  0  0  0
  3 23  1  0  0  0  0
  4  5  1  0  0  0  0
  5  6  1  0  0  0  0
  5 19  2  0  0  0  0
  6  7  1  0  0  0  0
  6  8  1  0  0  0  0
  6 24  1  0  0  0  0
  7 25  1  0  0  0  0
  7 26  1  0  0  0  0
  7 27  1  0  0  0  0
  8  9  1  0  0  0  0
  8 28  1  0  0  0  0
  8 29  1  0  0  0  0
  9 10  1  0  0  0  0
  9 30  1  0  0  0  0
 10 11  2  0  0  0  0
 10 12  1  0  0  0  0
 12 13  1  0  0  0  0
 12 31  1  0  0  0  0
 13 17  1  0  0  0  0
 13 14  1  0  0  0  0
 13 32  1  0  0  0  0
 14 15  1  0  0  0  0
 14 33  1  0  0  0  0
 14 34  1  0  0  0  0
 15 16  1  0  0  0  0
 15 35  1  0  0  0  0
 15 36  1  0  0  0  0
 16 17  1  0  0  0  0
 17 18  1  0  0  0  0
 17 37  1  0  0  0  0
 18 38  1  0  0  0  0
 18 39  1  0  0  0  0
 18 40  1  0  0  0  0
M  END
> <s_m_source_file>
AV-unprocessed.smi

> <i_m_source_file_index>
2340

> <i_lp_mmshare_version>
43012

> <i_f3d_flags>
0

> <s_epik_input>
W0NIM11jMVtjSF1zYyhuMSlbQ0BIXShbQ0gzXSlbQ0gyXVtOSF1DKD1PKVtOSF1bQ0BASF0yW0NIMl1bQ0gyXU9bQ0BIXTJbQ0gzXQ==

> <s_epik_cmdline>
J2VwaWtfcHl0aG9uJywgJy1waCcsICc3LjAnLCAnLXRuJywgJzgnLCAnLW1hJywgJzIwMCcsICctbWV0YWxfYmluZGluZycsICctaW1hZScsICc8aW5maWxlLm1hZT4nLCAnLW9tYWUnLCAnPG91dGZpbGUubWFlPic=

> <r_epik_Ionization_Penalty>
0.00156622

> <r_epik_Ionization_Penalty_Charging>
0

> <r_epik_Ionization_Penalty_Neutral>
0.00156622

> <r_epik_State_Penalty>
0.00101902

> <r_epik_Charging_Adjusted_Penalty>
0.00101902

> <i_epik_Tot_Q>
0

> <i_epik_Tot_abs_Q>
0

> <r_epik_Metal_State_Penalty>
-0

> <b_epik_Metal_Only>
0

> <s_lp_Force_Field>
OPLS_2005

> <r_lp_Energy>
6.07196

> <b_lp_Chiralities_Consistent>
1

> <s_lp_Variant>
AV-unprocessed.smi:2340-5

> <Gold.Version>
5.8.1

> <Gold.Id.Protein>
6NUR|6NUR_protein|mol2

> <Gold.PLP.Fitness>
42.5732

> <Gold.PLP.PLP>
-35.2021

> <Gold.PLP.part.hbond>
-2.4907

> <Gold.PLP.part.metal>
0.0000

> <Gold.PLP.part.buried>
-1.1381

> <Gold.PLP.part.nonpolar>
-32.3287

> <Gold.PLP.part.repulsive>
0.4658

> <Gold.PLP.ligand.clash>
0.0000

> <Gold.PLP.ligand.torsion>
0.2993

> <Gold.PLP.Chemscore.Hbond>
1.8800

> <Gold.PLP.Chemscore.CHOScore>
0.7488

> <Gold.PLP.Chemscore.Metal>
0.0000

> <Gold.Chemscore.Hbonds>
donor molecule, donor type, donor heavy atom, donor atom, acceptor molecule, acceptor atom, score
      L1  H     9    30       P1  8028  0.42
      L1  H    12    31       P1  8028  0.75
      L1  C     3    23       P1 10171  0.79

> <Gold.PLP.Chemscore.Internal.Correction>
0.0834

> <Gold.Rescore>
     Score         DG    S(hbond)    S(metal)    S(lipo)     H(rot)  DE(clash)    DE(int)     intcor
     17.17     -20.60       1.81        0.00     111.06       1.53       3.08       0.35       ----

> <Gold.Chemscore.Fitness>
17.1686

> <Gold.Chemscore.DG>
-20.6035

> <Gold.Chemscore.ZeroCoef>
-5.4800

> <Gold.Chemscore.Hbond>
1.8123

> <Gold.Chemscore.Metal>
0.0000

> <Gold.Chemscore.Lipo>
111.0588

> <Gold.Chemscore.Internal_Hbond>
0.0000

> <Gold.Chemscore.DEClash>
3.0832

> <Gold.Chemscore.DEInternal>
0.3517

> <Gold.Chemscore.Rot>
1.5325

> <Gold.Chemscore.Internal.Correction>
   9.000000E+99

> <Gold.Chemscore.Hbonds>
donor molecule, donor type, donor heavy atom, donor atom, acceptor molecule, acceptor atom, score
      L1  H     9    30       P1  8028  0.43
      L1  H    12    31       P1  8028  0.69

> <Gold.Chemscore.Hbond.Weighted>
-6.0530

> <Gold.Chemscore.Metal.Weighted>
-0.0000

> <Gold.Chemscore.Lipo.Weighted>
-12.9939

> <Gold.Chemscore.Internal_Hbond.Weighted>
0.0000

> <Gold.Chemscore.DEClash.Weighted>
3.0832

> <Gold.Chemscore.DEInternal.Weighted>
0.3517

> <Gold.Chemscore.Rot.Weighted>
3.9233

> <Gold.Chemscore.Internal.Correction.Weighted>
   9.000000E+99

> <Gold.Protein.RotatedTorsions>
[ 6907 6896 6895 6894 ] final  -16.46 input  -60.11 | X-H torsion
[ 7974 7965 7964 7962 ] final   59.27 input  175.53 | X-H torsion
[ 8008 7997 7996 7995 ] final  -41.60 input   59.86 | X-H torsion
[ 10167 10162 10161 10158 ] final -155.53 input  -65.29 | X-H torsion
[ 10718 10713 10712 10709 ] final  -17.08 input   66.30 | X-H torsion
[ 10763 10752 10751 10750 ] final   45.23 input  -60.55 | X-H torsion
[ 11005 11000 10999 10996 ] final  -70.21 input  -57.11 | X-H torsion

> <Gold.Protein.ActiveResidues>
 VAL166  LYS551  ARG553  GLY616  TRP617  ASP618  TYR619  PRO620  LYS621  CYS622 
 ASP623  PHE694  ASN695  SER759  ASP760  ASP761  ALA762  ILE779  LEU786  VAL792 
 PHE793  MET794  SER795  GLU796  ALA797  LYS798  CYS799  TRP800  GLU811  SER814 

> <Gold.Protein.RotatedAtoms>
  151.3082  135.0787  159.9262 H   0  0  0  0  0  0  0  0  0  0  0  0  # atno 6907 bound_to 6896
  152.5283  133.9763  159.7796 H   0  0  0  0  0  0  0  0  0  0  0  0  # atno 6908 bound_to 6896
  151.0062  133.5957  159.2719 H   0  0  0  0  0  0  0  0  0  0  0  0  # atno 6909 bound_to 6896
  145.9090  139.3639  143.0547 H   0  0  0  0  0  0  0  0  0  0  0  0  # atno 7974 bound_to 7965
  154.4003  140.1495  156.3217 H   0  0  0  0  0  0  0  0  0  0  0  0  # atno 8008 bound_to 7997
  155.8523  140.3457  155.5680 H   0  0  0  0  0  0  0  0  0  0  0  0  # atno 8009 bound_to 7997
  155.7970  140.0865  157.1968 H   0  0  0  0  0  0  0  0  0  0  0  0  # atno 8010 bound_to 7997
  139.6924  143.9398  152.2391 H   0  0  0  0  0  0  0  0  0  0  0  0  # atno 10167 bound_to 10162
  156.5786  130.4768  149.6330 H   0  0  0  0  0  0  0  0  0  0  0  0  # atno 10718 bound_to 10713
  152.9828  135.6046  154.3403 H   0  0  0  0  0  0  0  0  0  0  0  0  # atno 10763 bound_to 10752
  154.3100  135.2771  155.2572 H   0  0  0  0  0  0  0  0  0  0  0  0  # atno 10764 bound_to 10752
  154.4786  135.5923  153.6429 H   0  0  0  0  0  0  0  0  0  0  0  0  # atno 10765 bound_to 10752
  141.1569  133.6784  156.6717 H   0  0  0  0  0  0  0  0  0  0  0  0  # atno 11005 bound_to 11000
  145.8695  140.9428  143.0658 LP  0  0  0  0  0  0  0  0  0  0  0  0  # atno 17320 bound_to 7965
  144.6741  140.0636  143.7475 LP  0  0  0  0  0  0  0  0  0  0  0  0  # atno 17321 bound_to 7965
  139.9218  144.6795  150.8453 LP  0  0  0  0  0  0  0  0  0  0  0  0  # atno 17342 bound_to 10162
  140.7686  143.3369  151.2289 LP  0  0  0  0  0  0  0  0  0  0  0  0  # atno 17343 bound_to 10162
  156.2651  130.6985  151.1765 LP  0  0  0  0  0  0  0  0  0  0  0  0  # atno 17370 bound_to 10713
  157.7332  131.0593  150.5590 LP  0  0  0  0  0  0  0  0  0  0  0  0  # atno 17371 bound_to 10713
  140.3169  134.8039  157.4222 LP  0  0  0  0  0  0  0  0  0  0  0  0  # atno 17394 bound_to 11000
  140.1130  134.5320  155.8249 LP  0  0  0  0  0  0  0  0  0  0  0  0  # atno 17395 bound_to 11000

$$$$
