AV-unprocessed.smi:255|AV-procd|sdf|1953|dock5
  -GOLD-   2262021 93D 1   1.00000     0.00000
 Structure written by MMmdl.
 44 47  0  0  0  0  0  0  0  0  1 V2000
  154.5183  139.2650  160.2031 O   0  0  0  0  0  0  0  0  0  0  0  0
  153.2057  139.5150  159.7470 C   0  0  0  0  0  0  0  0  0  0  0  0
  153.0602  140.9817  159.2988 C   0  0  2  0  0  0  0  0  0  0  0  0
  153.2620  141.9812  160.4378 C   0  0  0  0  0  0  0  0  0  0  0  0
  152.6198  143.2379  159.8621 C   0  0  2  0  0  0  0  0  0  0  0  0
  152.2410  144.0978  160.8072 F   0  0  0  0  0  0  0  0  0  0  0  0
  151.4400  142.7011  159.0460 C   0  0  0  0  0  0  0  0  0  0  0  0
  151.7234  141.2896  158.7951 N   0  0  0  0  0  0  0  0  0  0  0  0
  151.4706  140.8612  157.5389 C   0  0  0  0  0  0  0  0  0  0  0  0
  152.4208  140.1825  156.8434 N   0  0  0  0  0  0  0  0  0  0  0  0
  152.1568  139.7466  155.6078 C   0  0  0  0  0  0  0  0  0  0  0  0
  151.0338  139.8791  154.8974 N   0  0  0  0  0  0  0  0  0  0  0  0
  150.0808  140.5609  155.5964 C   0  0  0  0  0  0  0  0  0  0  0  0
  150.2157  141.0790  156.9142 C   0  0  0  0  0  0  0  0  0  0  0  0
  149.0385  141.7008  157.3077 N   0  0  0  0  0  0  0  0  0  0  0  0
  148.2507  141.5634  156.2758 C   0  0  0  0  0  0  0  0  0  0  0  0
  148.7988  140.9004  155.1997 N   0  0  0  0  0  0  0  0  0  0  0  0
  148.1472  140.6119  153.9306 C   0  0  0  0  0  0  0  0  0  0  0  0
  148.0116  139.0989  153.6311 C   0  0  2  0  0  0  0  0  0  0  0  0
  149.2670  138.6041  153.2005 O   0  0  0  0  0  0  0  0  0  0  0  0
  146.9668  138.8097  152.5510 C   0  0  0  0  0  0  0  0  0  0  0  0
  145.8113  138.1921  153.3290 C   0  0  0  0  0  0  0  0  0  0  0  0
  146.4799  137.4473  154.3311 O   0  0  0  0  0  0  0  0  0  0  0  0
  147.5222  138.2692  154.8360 C   0  0  0  0  0  0  0  0  0  0  0  0
  153.8050  141.2032  158.5315 H   0  0  0  0  0  0  0  0  0  0  0  0
  153.3247  143.7535  159.2085 H   0  0  0  0  0  0  0  0  0  0  0  0
  154.9196  138.6300  159.6298 H   0  0  0  0  0  0  0  0  0  0  0  0
  152.9384  138.8207  158.9496 H   0  0  0  0  0  0  0  0  0  0  0  0
  152.5361  139.3139  160.5837 H   0  0  0  0  0  0  0  0  0  0  0  0
  152.7224  141.6568  161.3294 H   0  0  0  0  0  0  0  0  0  0  0  0
  154.3102  142.1214  160.7037 H   0  0  0  0  0  0  0  0  0  0  0  0
  150.5208  142.7543  159.6303 H   0  0  0  0  0  0  0  0  0  0  0  0
  151.2841  143.2860  158.1383 H   0  0  0  0  0  0  0  0  0  0  0  0
  152.9594  139.2149  155.1184 H   0  0  0  0  0  0  0  0  0  0  0  0
  147.2416  141.9492  156.2687 H   0  0  0  0  0  0  0  0  0  0  0  0
  147.1621  141.0802  153.9372 H   0  0  0  0  0  0  0  0  0  0  0  0
  148.7122  141.1051  153.1383 H   0  0  0  0  0  0  0  0  0  0  0  0
  149.4881  139.0235  152.3829 H   0  0  0  0  0  0  0  0  0  0  0  0
  146.6646  139.6938  151.9882 H   0  0  0  0  0  0  0  0  0  0  0  0
  147.3383  138.0769  151.8325 H   0  0  0  0  0  0  0  0  0  0  0  0
  145.1914  138.9623  153.7910 H   0  0  0  0  0  0  0  0  0  0  0  0
  145.1755  137.5584  152.7106 H   0  0  0  0  0  0  0  0  0  0  0  0
  148.3065  137.6746  155.3060 H   0  0  0  0  0  0  0  0  0  0  0  0
  147.0886  138.9078  155.6056 H   0  0  0  0  0  0  0  0  0  0  0  0
  1  2  1  0  0  0  0
  1 27  1  0  0  0  0
  2  3  1  0  0  0  0
  2 28  1  0  0  0  0
  2 29  1  0  0  0  0
  3 25  1  0  0  0  0
  3  8  1  0  0  0  0
  3  4  1  0  0  0  0
  4  5  1  0  0  0  0
  4 30  1  0  0  0  0
  4 31  1  0  0  0  0
  5 26  1  0  0  0  0
  5  6  1  0  0  0  0
  5  7  1  0  0  0  0
  7  8  1  0  0  0  0
  7 32  1  0  0  0  0
  7 33  1  0  0  0  0
  8  9  1  0  0  0  0
  9 14  1  0  0  0  0
  9 10  2  0  0  0  0
 10 11  1  0  0  0  0
 11 12  2  0  0  0  0
 11 34  1  0  0  0  0
 12 13  1  0  0  0  0
 13 17  1  0  0  0  0
 13 14  2  0  0  0  0
 14 15  1  0  0  0  0
 15 16  2  0  0  0  0
 16 17  1  0  0  0  0
 16 35  1  0  0  0  0
 17 18  1  0  0  0  0
 18 19  1  0  0  0  0
 18 36  1  0  0  0  0
 18 37  1  0  0  0  0
 19 24  1  0  0  0  0
 19 20  1  0  0  0  0
 19 21  1  0  0  0  0
 20 38  1  0  0  0  0
 21 22  1  0  0  0  0
 21 39  1  0  0  0  0
 21 40  1  0  0  0  0
 22 23  1  0  0  0  0
 22 41  1  0  0  0  0
 22 42  1  0  0  0  0
 23 24  1  0  0  0  0
 24 43  1  0  0  0  0
 24 44  1  0  0  0  0
M  END
> <s_m_source_file>
AV-unprocessed.smi

> <i_m_source_file_index>
255

> <i_lp_mmshare_version>
43012

> <i_f3d_flags>
0

> <s_epik_input>
W09IXVtDSDJdW0NAQEhdMVtDSDJdW0NASF0oRilbQ0gyXU4xYyhuW2NIXW4yKWMoYzIzKW5bY0hdbjNbQ0gyXVtDQEBdNChbT0hdKVtDSDJdW0NIMl1PW0NIMl00

> <s_epik_cmdline>
J2VwaWtfcHl0aG9uJywgJy1waCcsICc3LjAnLCAnLXRuJywgJzgnLCAnLW1hJywgJzIwMCcsICctbWV0YWxfYmluZGluZycsICctaW1hZScsICc8aW5maWxlLm1hZT4nLCAnLW9tYWUnLCAnPG91dGZpbGUubWFlPic=

> <r_lp_tautomer_probability>
1

> <r_epik_Ionization_Penalty>
0.0058098

> <r_epik_Ionization_Penalty_Charging>
0

> <r_epik_Ionization_Penalty_Neutral>
0.0058098

> <r_epik_State_Penalty>
0.00411166

> <r_epik_Charging_Adjusted_Penalty>
0.00411166

> <i_epik_Tot_Q>
0

> <i_epik_Tot_abs_Q>
0

> <r_epik_Metal_State_Penalty>
-0

> <b_epik_Metal_Only>
0

> <s_lp_Force_Field>
OPLS_2005

> <r_lp_Energy>
52.96

> <b_lp_Chiralities_Consistent>
1

> <s_lp_Variant>
AV-unprocessed.smi:255-5

> <Gold.Version>
5.8.1

> <Gold.Id.Protein>
6NUR|6NUR_protein|mol2

> <Gold.PLP.Fitness>
49.4549

> <Gold.PLP.PLP>
-41.3662

> <Gold.PLP.part.hbond>
-3.9778

> <Gold.PLP.part.metal>
0.0000

> <Gold.PLP.part.buried>
-2.7359

> <Gold.PLP.part.nonpolar>
-34.1996

> <Gold.PLP.part.repulsive>
0.2519

> <Gold.PLP.ligand.clash>
0.0000

> <Gold.PLP.ligand.torsion>
0.2769

> <Gold.PLP.Chemscore.Hbond>
2.8512

> <Gold.PLP.Chemscore.CHOScore>
0.0000

> <Gold.PLP.Chemscore.Metal>
0.0000

> <Gold.Chemscore.Hbonds>
donor molecule, donor type, donor heavy atom, donor atom, acceptor molecule, acceptor atom, score
      L1  H    20    38       P1  7957  1.00
      P1  H  7989  7998       L1    12  1.00
      P1  H  7997  8010       L1    10  0.85

> <Gold.PLP.Chemscore.Internal.Correction>
0.0890

> <Gold.Rescore>
     Score         DG    S(hbond)    S(metal)    S(lipo)     H(rot)  DE(clash)    DE(int)     intcor
     10.70     -11.15       1.47        0.00      79.31       3.33       0.25       0.21       ----

> <Gold.Chemscore.Fitness>
10.7018

> <Gold.Chemscore.DG>
-11.1524

> <Gold.Chemscore.ZeroCoef>
-5.4800

> <Gold.Chemscore.Hbond>
1.4706

> <Gold.Chemscore.Metal>
0.0000

> <Gold.Chemscore.Lipo>
79.3052

> <Gold.Chemscore.Internal_Hbond>
0.0000

> <Gold.Chemscore.DEClash>
0.2451

> <Gold.Chemscore.DEInternal>
0.2055

> <Gold.Chemscore.Rot>
3.3273

> <Gold.Chemscore.Internal.Correction>
   9.000000E+99

> <Gold.Chemscore.Hbonds>
donor molecule, donor type, donor heavy atom, donor atom, acceptor molecule, acceptor atom, score
      L1  H    20    38       P1  7957  0.86
      P1  H  7989  7998       L1    12  0.20
      P1  H  7997  8010       L1    10  0.18

> <Gold.Chemscore.Hbond.Weighted>
-4.9117

> <Gold.Chemscore.Metal.Weighted>
-0.0000

> <Gold.Chemscore.Lipo.Weighted>
-9.2787

> <Gold.Chemscore.Internal_Hbond.Weighted>
0.0000

> <Gold.Chemscore.DEClash.Weighted>
0.2451

> <Gold.Chemscore.DEInternal.Weighted>
0.2055

> <Gold.Chemscore.Rot.Weighted>
8.5179

> <Gold.Chemscore.Internal.Correction.Weighted>
   9.000000E+99

> <Gold.Protein.RotatedTorsions>
[ 6907 6896 6895 6894 ] final   79.74 input  -60.11 | X-H torsion
[ 7974 7965 7964 7962 ] final  150.36 input  175.53 | X-H torsion
[ 8008 7997 7996 7995 ] final   50.55 input   59.86 | X-H torsion
[ 10167 10162 10161 10158 ] final   68.03 input  -65.29 | X-H torsion
[ 10718 10713 10712 10709 ] final  110.32 input   66.30 | X-H torsion
[ 10763 10752 10751 10750 ] final    3.97 input  -60.55 | X-H torsion
[ 11005 11000 10999 10996 ] final  -21.43 input  -57.11 | X-H torsion

> <Gold.Protein.ActiveResidues>
 VAL166  LYS551  ARG553  GLY616  TRP617  ASP618  TYR619  PRO620  LYS621  CYS622 
 ASP623  PHE694  ASN695  SER759  ASP760  ASP761  ALA762  ILE779  LEU786  VAL792 
 PHE793  MET794  SER795  GLU796  ALA797  LYS798  CYS799  TRP800  GLU811  SER814 

> <Gold.Protein.RotatedAtoms>
  152.5209  134.3465  159.9235 H   0  0  0  0  0  0  0  0  0  0  0  0  # atno 6907 bound_to 6896
  151.3415  133.3954  159.2679 H   0  0  0  0  0  0  0  0  0  0  0  0  # atno 6908 bound_to 6896
  150.9799  134.9175  159.7896 H   0  0  0  0  0  0  0  0  0  0  0  0  # atno 6909 bound_to 6896
  144.8370  139.6398  143.6033 H   0  0  0  0  0  0  0  0  0  0  0  0  # atno 7974 bound_to 7965
  155.4205  140.3446  155.4271 H   0  0  0  0  0  0  0  0  0  0  0  0  # atno 8008 bound_to 7997
  156.1395  140.1538  156.8973 H   0  0  0  0  0  0  0  0  0  0  0  0  # atno 8009 bound_to 7997
  154.4959  140.0828  156.7677 H   0  0  0  0  0  0  0  0  0  0  0  0  # atno 8010 bound_to 7997
  140.0831  144.5053  150.7148 H   0  0  0  0  0  0  0  0  0  0  0  0  # atno 10167 bound_to 10162
  157.6500  131.0930  150.6584 H   0  0  0  0  0  0  0  0  0  0  0  0  # atno 10718 bound_to 10713
  153.2768  135.6937  153.7425 H   0  0  0  0  0  0  0  0  0  0  0  0  # atno 10763 bound_to 10752
  153.6427  135.3390  155.3077 H   0  0  0  0  0  0  0  0  0  0  0  0  # atno 10764 bound_to 10752
  154.8482  135.4435  154.1809 H   0  0  0  0  0  0  0  0  0  0  0  0  # atno 10765 bound_to 10752
  140.8561  133.7822  156.0021 H   0  0  0  0  0  0  0  0  0  0  0  0  # atno 11005 bound_to 11000
  146.2667  139.6538  142.9324 LP  0  0  0  0  0  0  0  0  0  0  0  0  # atno 17320 bound_to 7965
  145.4774  141.0437  143.2665 LP  0  0  0  0  0  0  0  0  0  0  0  0  # atno 17321 bound_to 7965
  140.7067  143.2473  151.4704 LP  0  0  0  0  0  0  0  0  0  0  0  0  # atno 17342 bound_to 10162
  139.5768  144.1801  152.1914 LP  0  0  0  0  0  0  0  0  0  0  0  0  # atno 17343 bound_to 10162
  156.6896  130.4591  149.5603 LP  0  0  0  0  0  0  0  0  0  0  0  0  # atno 17370 bound_to 10713
  156.1871  130.6536  151.1019 LP  0  0  0  0  0  0  0  0  0  0  0  0  # atno 17371 bound_to 10713
  140.8736  134.2697  157.5179 LP  0  0  0  0  0  0  0  0  0  0  0  0  # atno 17394 bound_to 11000
  139.8705  134.9579  156.4285 LP  0  0  0  0  0  0  0  0  0  0  0  0  # atno 17395 bound_to 11000

$$$$
