AV-unprocessed.smi:2245|AV-procd|sdf|9081|dock6
  -GOLD-   2272012283D 1   1.00000     0.00000
 Structure written by MMmdl.
 45 46  0  0  0  0  0  0  0  0  2 V2000
  153.7761  140.3265  159.5433 C   0  0  0  0  0  0  0  0  0  0  0  0
  152.9187  141.5506  159.2995 C   0  0  0  0  0  0  0  0  0  0  0  0
  152.9557  142.6429  160.1868 C   0  0  0  0  0  0  0  0  0  0  0  0
  152.1316  143.7517  159.9112 C   0  0  0  0  0  0  0  0  0  0  0  0
  152.1237  144.9621  160.8211 C   0  0  0  0  0  0  0  0  0  0  0  0
  151.3128  143.8126  158.8395 N   0  0  0  0  0  0  0  0  0  0  0  0
  151.2687  142.7662  157.9781 C   0  0  0  0  0  0  0  0  0  0  0  0
  150.4405  142.7308  156.8248 N   0  0  0  0  0  0  0  0  0  0  0  0
  150.0226  141.6539  156.1363 C   0  0  0  0  0  0  0  0  0  0  0  0
  150.2835  140.4834  156.4150 O   0  0  0  0  0  0  0  0  0  0  0  0
  149.2736  142.0099  155.0824 N   0  0  0  0  0  0  0  0  0  0  0  0
  148.6586  141.0819  154.1383 C   0  0  0  0  0  0  0  0  0  0  0  0
  147.1449  140.9130  154.3783 C   0  0  1  0  0  0  0  0  0  0  0  0
  146.7778  140.5692  155.8206 C   0  0  0  0  0  0  0  0  0  0  0  0
  145.3181  141.0213  155.9642 C   0  0  0  0  0  0  0  0  0  0  0  0
  145.0283  141.9129  154.8146 N   0  3  1  0  0  0  0  0  0  0  0  0
  144.2570  143.1385  155.1339 C   0  0  0  0  0  0  0  0  0  0  0  0
  142.9433  142.8347  155.8756 C   0  0  0  0  0  0  0  0  0  0  0  0
  143.1902  142.7568  157.1823 F   0  0  0  0  0  0  0  0  0  0  0  0
  142.0629  143.8129  155.6642 F   0  0  0  0  0  0  0  0  0  0  0  0
  142.4180  141.6774  155.4752 F   0  0  0  0  0  0  0  0  0  0  0  0
  146.3077  142.1662  154.1227 C   0  0  0  0  0  0  0  0  0  0  0  0
  152.0621  141.6149  158.1818 C   0  0  0  0  0  0  0  0  0  0  0  0
  154.6408  140.5710  160.1610 H   0  0  0  0  0  0  0  0  0  0  0  0
  154.1390  139.9160  158.6007 H   0  0  0  0  0  0  0  0  0  0  0  0
  153.1954  139.5574  160.0530 H   0  0  0  0  0  0  0  0  0  0  0  0
  153.5986  142.6307  161.0550 H   0  0  0  0  0  0  0  0  0  0  0  0
  152.6749  144.7676  161.7417 H   0  0  0  0  0  0  0  0  0  0  0  0
  151.1018  145.2327  161.0885 H   0  0  0  0  0  0  0  0  0  0  0  0
  152.5846  145.8132  160.3193 H   0  0  0  0  0  0  0  0  0  0  0  0
  150.1367  143.6303  156.4830 H   0  0  0  0  0  0  0  0  0  0  0  0
  149.1024  142.9934  154.9315 H   0  0  0  0  0  0  0  0  0  0  0  0
  148.8431  141.4228  153.1182 H   0  0  0  0  0  0  0  0  0  0  0  0
  149.1636  140.1205  154.2368 H   0  0  0  0  0  0  0  0  0  0  0  0
  146.7648  140.1137  153.7397 H   0  0  0  0  0  0  0  0  0  0  0  0
  146.9127  139.5107  156.0454 H   0  0  0  0  0  0  0  0  0  0  0  0
  147.4032  141.1362  156.5118 H   0  0  0  0  0  0  0  0  0  0  0  0
  144.6391  140.1693  155.9245 H   0  0  0  0  0  0  0  0  0  0  0  0
  145.1691  141.5200  156.9226 H   0  0  0  0  0  0  0  0  0  0  0  0
  144.8745  143.8348  155.7037 H   0  0  0  0  0  0  0  0  0  0  0  0
  144.0109  143.6389  154.1961 H   0  0  0  0  0  0  0  0  0  0  0  0
  146.7968  143.0388  154.5597 H   0  0  0  0  0  0  0  0  0  0  0  0
  146.1540  142.3595  153.0604 H   0  0  0  0  0  0  0  0  0  0  0  0
  152.0164  140.7874  157.4885 H   0  0  0  0  0  0  0  0  0  0  0  0
  144.4709  141.3708  154.1695 H   0  0  0  0  0  0  0  0  0  0  0  0
  1  2  1  0  0  0  0
  1 24  1  0  0  0  0
  1 25  1  0  0  0  0
  1 26  1  0  0  0  0
  2 23  1  0  0  0  0
  2  3  2  0  0  0  0
  3  4  1  0  0  0  0
  3 27  1  0  0  0  0
  4  5  1  0  0  0  0
  4  6  2  0  0  0  0
  5 28  1  0  0  0  0
  5 29  1  0  0  0  0
  5 30  1  0  0  0  0
  6  7  1  0  0  0  0
  7  8  1  0  0  0  0
  7 23  2  0  0  0  0
  8  9  1  0  0  0  0
  8 31  1  0  0  0  0
  9 10  2  0  0  0  0
  9 11  1  0  0  0  0
 11 12  1  0  0  0  0
 11 32  1  0  0  0  0
 12 13  1  0  0  0  0
 12 33  1  0  0  0  0
 12 34  1  0  0  0  0
 13 22  1  0  0  0  0
 13 14  1  0  0  0  0
 13 35  1  0  0  0  0
 14 15  1  0  0  0  0
 14 36  1  0  0  0  0
 14 37  1  0  0  0  0
 15 16  1  0  0  0  0
 15 38  1  0  0  0  0
 15 39  1  0  0  0  0
 16 17  1  0  0  0  0
 16 22  1  0  0  0  0
 16 45  1  0  0  0  0
 17 18  1  0  0  0  0
 17 40  1  0  0  0  0
 17 41  1  0  0  0  0
 18 19  1  0  0  0  0
 18 20  1  0  0  0  0
 18 21  1  0  0  0  0
 22 42  1  0  0  0  0
 22 43  1  0  0  0  0
 23 44  1  0  0  0  0
M  CHG  1  16   1
M  END
> <s_m_source_file>
AV-unprocessed.smi

> <i_m_source_file_index>
2245

> <i_lp_mmshare_version>
43012

> <i_f3d_flags>
0

> <s_epik_input>
W0NIM11jMVtjSF1jKFtDSDNdKW5jKFtjSF0xKVtOSF1DKD1PKVtOSF1bQ0gyXVtDQEBIXTJbQ0gyXVtDSDJdTihbQ0gyXTIpW0NIMl1DKEYpKEYpRg==

> <s_epik_cmdline>
J2VwaWtfcHl0aG9uJywgJy1waCcsICc3LjAnLCAnLXRuJywgJzgnLCAnLW1hJywgJzIwMCcsICctbWV0YWxfYmluZGluZycsICctaW1hZScsICc8aW5maWxlLm1hZT4nLCAnLW9tYWUnLCAnPG91dGZpbGUubWFlPic=

> <r_epik_Ionization_Penalty>
0.628315

> <r_epik_Ionization_Penalty_Charging>
0.628113

> <r_epik_Ionization_Penalty_Neutral>
0.000202271

> <r_epik_State_Penalty>
0.644725

> <r_epik_Charging_Adjusted_Penalty>
1.27284

> <i_epik_Tot_Q>
1

> <i_epik_Tot_abs_Q>
1

> <r_epik_Metal_State_Penalty>
0.644752

> <b_epik_Metal_Only>
0

> <s_lp_Force_Field>
OPLS_2005

> <r_lp_Energy>
28.8991

> <b_lp_Chiralities_Consistent>
1

> <s_lp_Variant>
AV-unprocessed.smi:2245-6

> <Gold.Version>
5.8.1

> <Gold.Id.Protein>
6NUR|6NUR_protein|mol2

> <Gold.PLP.Fitness>
50.0625

> <Gold.PLP.PLP>
-39.1970

> <Gold.PLP.part.hbond>
-3.0000

> <Gold.PLP.part.metal>
0.0000

> <Gold.PLP.part.buried>
-6.9017

> <Gold.PLP.part.nonpolar>
-30.6640

> <Gold.PLP.part.repulsive>
0.3607

> <Gold.PLP.ligand.clash>
0.0000

> <Gold.PLP.ligand.torsion>
0.6825

> <Gold.PLP.Chemscore.Hbond>
3.9360

> <Gold.PLP.Chemscore.CHOScore>
0.0000

> <Gold.PLP.Chemscore.Metal>
0.0000

> <Gold.Chemscore.Hbonds>
donor molecule, donor type, donor heavy atom, donor atom, acceptor molecule, acceptor atom, score
      L1  H     8    31       P1  8028  1.00
      L1  H    11    32       P1  8028  0.99
      L1  H    16    45       P1 10175  1.95

> <Gold.PLP.Chemscore.Internal.Correction>
0.4226

> <Gold.Rescore>
     Score         DG    S(hbond)    S(metal)    S(lipo)     H(rot)  DE(clash)    DE(int)     intcor
     17.64     -21.40       2.77        0.00      92.27       1.61       0.42       3.34       ----

> <Gold.Chemscore.Fitness>
17.6426

> <Gold.Chemscore.DG>
-21.4017

> <Gold.Chemscore.ZeroCoef>
-5.4800

> <Gold.Chemscore.Hbond>
2.7720

> <Gold.Chemscore.Metal>
0.0000

> <Gold.Chemscore.Lipo>
92.2723

> <Gold.Chemscore.Internal_Hbond>
0.0000

> <Gold.Chemscore.DEClash>
0.4229

> <Gold.Chemscore.DEInternal>
3.3362

> <Gold.Chemscore.Rot>
1.6143

> <Gold.Chemscore.Internal.Correction>
   9.000000E+99

> <Gold.Chemscore.Hbonds>
donor molecule, donor type, donor heavy atom, donor atom, acceptor molecule, acceptor atom, score
      L1  H     8    31       P1  8028  0.96
      L1  H    11    32       P1  8028  0.94
      L1  H    16    45       P1 10175  0.41

> <Gold.Chemscore.Hbond.Weighted>
-9.2583

> <Gold.Chemscore.Metal.Weighted>
-0.0000

> <Gold.Chemscore.Lipo.Weighted>
-10.7959

> <Gold.Chemscore.Internal_Hbond.Weighted>
0.0000

> <Gold.Chemscore.DEClash.Weighted>
0.4229

> <Gold.Chemscore.DEInternal.Weighted>
3.3362

> <Gold.Chemscore.Rot.Weighted>
4.1325

> <Gold.Chemscore.Internal.Correction.Weighted>
   9.000000E+99

> <Gold.Protein.RotatedTorsions>
[ 6907 6896 6895 6894 ] final   -2.35 input  -60.11 | X-H torsion
[ 7974 7965 7964 7962 ] final -155.33 input  175.53 | X-H torsion
[ 8008 7997 7996 7995 ] final -155.22 input   59.86 | X-H torsion
[ 10167 10162 10161 10158 ] final -175.14 input  -65.29 | X-H torsion
[ 10718 10713 10712 10709 ] final   41.88 input   66.30 | X-H torsion
[ 10763 10752 10751 10750 ] final  172.16 input  -60.55 | X-H torsion
[ 11005 11000 10999 10996 ] final    3.38 input  -57.11 | X-H torsion

> <Gold.Protein.ActiveResidues>
 VAL166  LYS551  ARG553  GLY616  TRP617  ASP618  TYR619  PRO620  LYS621  CYS622 
 ASP623  PHE694  ASN695  SER759  ASP760  ASP761  ALA762  ILE779  LEU786  VAL792 
 PHE793  MET794  SER795  GLU796  ALA797  LYS798  CYS799  TRP800  GLU811  SER814 

> <Gold.Protein.RotatedAtoms>
  151.5313  135.1068  159.9902 H   0  0  0  0  0  0  0  0  0  0  0  0  # atno 6907 bound_to 6896
  152.4577  133.7753  159.6832 H   0  0  0  0  0  0  0  0  0  0  0  0  # atno 6908 bound_to 6896
  150.8527  133.7697  159.3044 H   0  0  0  0  0  0  0  0  0  0  0  0  # atno 6909 bound_to 6896
  144.7645  140.4264  143.5952 H   0  0  0  0  0  0  0  0  0  0  0  0  # atno 7974 bound_to 7965
  155.6985  140.0764  157.2420 H   0  0  0  0  0  0  0  0  0  0  0  0  # atno 8008 bound_to 7997
  154.4077  140.1652  156.2217 H   0  0  0  0  0  0  0  0  0  0  0  0  # atno 8009 bound_to 7997
  155.9389  140.3386  155.6314 H   0  0  0  0  0  0  0  0  0  0  0  0  # atno 8010 bound_to 7997
  139.5597  144.1901  152.1218 H   0  0  0  0  0  0  0  0  0  0  0  0  # atno 10167 bound_to 10162
  157.3985  130.7847  149.7329 H   0  0  0  0  0  0  0  0  0  0  0  0  # atno 10718 bound_to 10713
  154.4221  135.2758  155.1969 H   0  0  0  0  0  0  0  0  0  0  0  0  # atno 10763 bound_to 10752
  154.3910  135.6066  153.5847 H   0  0  0  0  0  0  0  0  0  0  0  0  # atno 10764 bound_to 10752
  152.9833  135.5903  154.4519 H   0  0  0  0  0  0  0  0  0  0  0  0  # atno 10765 bound_to 10752
  140.5937  133.9900  155.8100 H   0  0  0  0  0  0  0  0  0  0  0  0  # atno 11005 bound_to 11000
  145.6513  139.1565  143.2860 LP  0  0  0  0  0  0  0  0  0  0  0  0  # atno 17320 bound_to 7965
  146.1740  140.6601  142.9220 LP  0  0  0  0  0  0  0  0  0  0  0  0  # atno 17321 bound_to 7965
  140.1412  144.5200  150.6743 LP  0  0  0  0  0  0  0  0  0  0  0  0  # atno 17342 bound_to 10162
  140.6875  143.2358  151.5221 LP  0  0  0  0  0  0  0  0  0  0  0  0  # atno 17343 bound_to 10162
  155.9817  130.4017  150.3458 LP  0  0  0  0  0  0  0  0  0  0  0  0  # atno 17370 bound_to 10713
  157.1583  131.0338  151.2853 LP  0  0  0  0  0  0  0  0  0  0  0  0  # atno 17371 bound_to 10713
  141.0918  133.9905  157.3225 LP  0  0  0  0  0  0  0  0  0  0  0  0  # atno 17394 bound_to 11000
  139.9263  135.0201  156.8244 LP  0  0  0  0  0  0  0  0  0  0  0  0  # atno 17395 bound_to 11000

$$$$
