AV-unprocessed.smi:3030|AV-procd|sdf|11533|dock5
  -GOLD-   2272016483D 1   1.00000     0.00000
 Structure written by MMmdl.
 52 53  0  0  0  0  0  0  0  0  1 V2000
  148.1763  130.3100  154.2236 C   0  0  0  0  0  0  0  0  0  0  0  0
  149.6906  130.4583  154.0380 C   0  0  0  0  0  0  0  0  0  0  0  0
  150.1850  131.6999  154.6149 N   0  0  0  0  0  0  0  0  0  0  0  0
  151.1963  131.7013  155.5702 C   0  0  0  0  0  0  0  0  0  0  0  0
  151.7198  132.8172  156.1137 C   0  0  0  0  0  0  0  0  0  0  0  0
  151.2141  134.1369  155.6848 C   0  0  0  0  0  0  0  0  0  0  0  0
  151.6608  135.1767  156.1692 O   0  0  0  0  0  0  0  0  0  0  0  0
  150.1484  134.1354  154.6482 C   0  0  0  0  0  0  0  0  0  0  0  0
  149.6646  135.3908  154.2478 N   0  0  0  0  0  0  0  0  0  0  0  0
  149.4387  136.4874  154.9931 C   0  0  0  0  0  0  0  0  0  0  0  0
  149.5725  136.5667  156.2140 O   0  0  0  0  0  0  0  0  0  0  0  0
  149.0297  137.5064  154.2233 N   0  0  0  0  0  0  0  0  0  0  0  0
  148.6695  138.8481  154.6814 C   0  0  2  0  0  0  0  0  0  0  0  0
  147.3754  139.2654  153.9502 C   0  0  0  0  0  0  0  0  0  0  0  0
  146.9322  140.7050  154.2689 C   0  0  1  0  0  0  0  0  0  0  0  0
  146.3439  140.8476  155.6839 C   0  0  0  0  0  0  0  0  0  0  0  0
  148.0857  141.6869  154.0001 C   0  0  0  0  0  0  0  0  0  0  0  0
  149.3685  141.2979  154.7514 C   0  0  0  0  0  0  0  0  0  0  0  0
  149.8255  139.8569  154.4208 C   0  0  1  0  0  0  0  0  0  0  0  0
  151.1717  139.4737  155.1072 C   0  0  0  0  0  0  0  0  0  0  0  0
  151.9145  138.3081  154.4280 C   0  0  0  0  0  0  0  0  0  0  0  0
  151.0072  139.2036  156.6130 C   0  0  0  0  0  0  0  0  0  0  0  0
  149.7056  132.9372  154.1894 C   0  0  0  0  0  0  0  0  0  0  0  0
  147.8220  129.3765  153.7866 H   0  0  0  0  0  0  0  0  0  0  0  0
  147.6386  131.1279  153.7430 H   0  0  0  0  0  0  0  0  0  0  0  0
  147.9077  130.3062  155.2804 H   0  0  0  0  0  0  0  0  0  0  0  0
  150.2046  129.6135  154.4977 H   0  0  0  0  0  0  0  0  0  0  0  0
  149.9390  130.4260  152.9766 H   0  0  0  0  0  0  0  0  0  0  0  0
  151.5381  130.7177  155.8590 H   0  0  0  0  0  0  0  0  0  0  0  0
  152.5026  132.7696  156.8565 H   0  0  0  0  0  0  0  0  0  0  0  0
  149.4402  135.4597  153.2658 H   0  0  0  0  0  0  0  0  0  0  0  0
  148.9517  137.3388  153.2306 H   0  0  0  0  0  0  0  0  0  0  0  0
  148.4511  138.8296  155.7493 H   0  0  0  0  0  0  0  0  0  0  0  0
  147.5324  139.1823  152.8735 H   0  0  0  0  0  0  0  0  0  0  0  0
  146.5701  138.5691  154.1888 H   0  0  0  0  0  0  0  0  0  0  0  0
  146.1261  140.9555  153.5780 H   0  0  0  0  0  0  0  0  0  0  0  0
  147.0732  140.6149  156.4594 H   0  0  0  0  0  0  0  0  0  0  0  0
  145.4939  140.1789  155.8220 H   0  0  0  0  0  0  0  0  0  0  0  0
  145.9911  141.8643  155.8582 H   0  0  0  0  0  0  0  0  0  0  0  0
  148.2955  141.7078  152.9298 H   0  0  0  0  0  0  0  0  0  0  0  0
  147.7883  142.7010  154.2690 H   0  0  0  0  0  0  0  0  0  0  0  0
  150.1480  142.0131  154.4913 H   0  0  0  0  0  0  0  0  0  0  0  0
  149.2033  141.4060  155.8229 H   0  0  0  0  0  0  0  0  0  0  0  0
  150.0132  139.8318  153.3458 H   0  0  0  0  0  0  0  0  0  0  0  0
  151.8303  140.3396  155.0464 H   0  0  0  0  0  0  0  0  0  0  0  0
  151.3612  137.3730  154.5092 H   0  0  0  0  0  0  0  0  0  0  0  0
  152.8876  138.1487  154.8930 H   0  0  0  0  0  0  0  0  0  0  0  0
  152.0949  138.5001  153.3712 H   0  0  0  0  0  0  0  0  0  0  0  0
  150.4444  138.2902  156.8041 H   0  0  0  0  0  0  0  0  0  0  0  0
  150.4918  140.0261  157.1091 H   0  0  0  0  0  0  0  0  0  0  0  0
  151.9788  139.0904  157.0948 H   0  0  0  0  0  0  0  0  0  0  0  0
  148.9150  132.8451  153.4612 H   0  0  0  0  0  0  0  0  0  0  0  0
  1  2  1  0  0  0  0
  1 24  1  0  0  0  0
  1 25  1  0  0  0  0
  1 26  1  0  0  0  0
  2  3  1  0  0  0  0
  2 27  1  0  0  0  0
  2 28  1  0  0  0  0
  3 23  1  0  0  0  0
  3  4  1  0  0  0  0
  4  5  2  0  0  0  0
  4 29  1  0  0  0  0
  5  6  1  0  0  0  0
  5 30  1  0  0  0  0
  6  7  2  0  0  0  0
  6  8  1  0  0  0  0
  8  9  1  0  0  0  0
  8 23  2  0  0  0  0
  9 10  1  0  0  0  0
  9 31  1  0  0  0  0
 10 11  2  0  0  0  0
 10 12  1  0  0  0  0
 12 13  1  0  0  0  0
 12 32  1  0  0  0  0
 13 19  1  0  0  0  0
 13 14  1  0  0  0  0
 13 33  1  0  0  0  0
 14 15  1  0  0  0  0
 14 34  1  0  0  0  0
 14 35  1  0  0  0  0
 15 16  1  0  0  0  0
 15 17  1  0  0  0  0
 15 36  1  0  0  0  0
 16 37  1  0  0  0  0
 16 38  1  0  0  0  0
 16 39  1  0  0  0  0
 17 18  1  0  0  0  0
 17 40  1  0  0  0  0
 17 41  1  0  0  0  0
 18 19  1  0  0  0  0
 18 42  1  0  0  0  0
 18 43  1  0  0  0  0
 19 20  1  0  0  0  0
 19 44  1  0  0  0  0
 20 21  1  0  0  0  0
 20 22  1  0  0  0  0
 20 45  1  0  0  0  0
 21 46  1  0  0  0  0
 21 47  1  0  0  0  0
 21 48  1  0  0  0  0
 22 49  1  0  0  0  0
 22 50  1  0  0  0  0
 22 51  1  0  0  0  0
 23 52  1  0  0  0  0
M  END
> <s_m_source_file>
AV-unprocessed.smi

> <i_m_source_file_index>
3030

> <i_lp_mmshare_version>
43012

> <i_f3d_flags>
0

> <s_epik_input>
W0NIM11bQ0gyXW4xW2NIXVtjSF1jKD1PKWMoW2NIXTEpW05IXUMoPU8pW05IXVtDQEBIXTJbQ0gyXVtDQEBIXShbQ0gzXSlbQ0gyXVtDSDJdW0NASF0yW0NIXShbQ0gzXSlbQ0gzXQ==

> <s_epik_cmdline>
J2VwaWtfcHl0aG9uJywgJy1waCcsICc3LjAnLCAnLXRuJywgJzgnLCAnLW1hJywgJzIwMCcsICctbWV0YWxfYmluZGluZycsICctaW1hZScsICc8aW5maWxlLm1hZT4nLCAnLW9tYWUnLCAnPG91dGZpbGUubWFlPic=

> <r_lp_tautomer_probability>
1

> <r_epik_Ionization_Penalty>
0.00147933

> <r_epik_Ionization_Penalty_Charging>
0.00145753

> <r_epik_Ionization_Penalty_Neutral>
2.17987e-05

> <r_epik_State_Penalty>
0.00097457

> <r_epik_Charging_Adjusted_Penalty>
0.0024321

> <i_epik_Tot_Q>
0

> <i_epik_Tot_abs_Q>
0

> <r_epik_Metal_State_Penalty>
-0

> <b_epik_Metal_Only>
0

> <s_lp_Force_Field>
OPLS_2005

> <r_lp_Energy>
11.9489

> <b_lp_Chiralities_Consistent>
1

> <s_lp_Variant>
AV-unprocessed.smi:3030-1

> <Gold.Version>
5.8.1

> <Gold.Id.Protein>
6NUR|6NUR_protein|mol2

> <Gold.PLP.Fitness>
45.7241

> <Gold.PLP.PLP>
-38.1964

> <Gold.PLP.part.hbond>
-3.0361

> <Gold.PLP.part.metal>
0.0000

> <Gold.PLP.part.buried>
-0.9635

> <Gold.PLP.part.nonpolar>
-31.1135

> <Gold.PLP.part.repulsive>
0.0691

> <Gold.PLP.ligand.clash>
0.0000

> <Gold.PLP.ligand.torsion>
0.7579

> <Gold.PLP.Chemscore.Hbond>
2.9913

> <Gold.PLP.Chemscore.CHOScore>
0.0000

> <Gold.PLP.Chemscore.Metal>
0.0000

> <Gold.Chemscore.Hbonds>
donor molecule, donor type, donor heavy atom, donor atom, acceptor molecule, acceptor atom, score
      L1  H     9    31       P1  7948  0.75
      L1  H    12    32       P1  7948  1.00
      P1  H 10752 10763       L1     7  0.90

> <Gold.PLP.Chemscore.Internal.Correction>
0.0698

> <Gold.Rescore>
     Score         DG    S(hbond)    S(metal)    S(lipo)     H(rot)  DE(clash)    DE(int)     intcor
     16.07     -20.58       2.46        0.00      86.72       1.27       0.06       4.45       ----

> <Gold.Chemscore.Fitness>
16.0684

> <Gold.Chemscore.DG>
-20.5808

> <Gold.Chemscore.ZeroCoef>
-5.4800

> <Gold.Chemscore.Hbond>
2.4558

> <Gold.Chemscore.Metal>
0.0000

> <Gold.Chemscore.Lipo>
86.7165

> <Gold.Chemscore.Internal_Hbond>
0.0000

> <Gold.Chemscore.DEClash>
0.0646

> <Gold.Chemscore.DEInternal>
4.4477

> <Gold.Chemscore.Rot>
1.2685

> <Gold.Chemscore.Internal.Correction>
   9.000000E+99

> <Gold.Chemscore.Hbonds>
donor molecule, donor type, donor heavy atom, donor atom, acceptor molecule, acceptor atom, score
      L1  H     9    31       P1  7948  0.09
      L1  H    12    32       P1  7948  0.95
      P1  H 10752 10763       L1     7  0.17

> <Gold.Chemscore.Hbond.Weighted>
-8.2024

> <Gold.Chemscore.Metal.Weighted>
-0.0000

> <Gold.Chemscore.Lipo.Weighted>
-10.1458

> <Gold.Chemscore.Internal_Hbond.Weighted>
0.0000

> <Gold.Chemscore.DEClash.Weighted>
0.0646

> <Gold.Chemscore.DEInternal.Weighted>
4.4477

> <Gold.Chemscore.Rot.Weighted>
3.2474

> <Gold.Chemscore.Internal.Correction.Weighted>
   9.000000E+99

> <Gold.Protein.RotatedTorsions>
[ 6907 6896 6895 6894 ] final  112.41 input  -60.11 | X-H torsion
[ 7974 7965 7964 7962 ] final -101.14 input  175.53 | X-H torsion
[ 8008 7997 7996 7995 ] final  128.44 input   59.86 | X-H torsion
[ 10167 10162 10161 10158 ] final  -70.19 input  -65.29 | X-H torsion
[ 10718 10713 10712 10709 ] final  -58.97 input   66.30 | X-H torsion
[ 10763 10752 10751 10750 ] final   79.98 input  -60.55 | X-H torsion
[ 11005 11000 10999 10996 ] final   29.08 input  -57.11 | X-H torsion

> <Gold.Protein.ActiveResidues>
 VAL166  LYS551  ARG553  GLY616  TRP617  ASP618  TYR619  PRO620  LYS621  CYS622 
 ASP623  PHE694  ASN695  SER759  ASP760  ASP761  ALA762  ILE779  LEU786  VAL792 
 PHE793  MET794  SER795  GLU796  ALA797  LYS798  CYS799  TRP800  GLU811  SER814 

> <Gold.Protein.RotatedAtoms>
  152.4918  133.8520  159.7206 H   0  0  0  0  0  0  0  0  0  0  0  0  # atno 6907 bound_to 6896
  150.9055  133.7055  159.2874 H   0  0  0  0  0  0  0  0  0  0  0  0  # atno 6908 bound_to 6896
  151.4482  135.1031  159.9742 H   0  0  0  0  0  0  0  0  0  0  0  0  # atno 6909 bound_to 6896
  145.2855  140.9338  143.2907 H   0  0  0  0  0  0  0  0  0  0  0  0  # atno 7974 bound_to 7965
  156.2915  140.2645  156.2436 H   0  0  0  0  0  0  0  0  0  0  0  0  # atno 8008 bound_to 7997
  154.9953  140.0388  157.2355 H   0  0  0  0  0  0  0  0  0  0  0  0  # atno 8009 bound_to 7997
  154.7650  140.2767  155.6188 H   0  0  0  0  0  0  0  0  0  0  0  0  # atno 8010 bound_to 7997
  140.5372  143.2317  151.7156 H   0  0  0  0  0  0  0  0  0  0  0  0  # atno 10167 bound_to 10162
  156.1096  130.4176  150.0650 H   0  0  0  0  0  0  0  0  0  0  0  0  # atno 10718 bound_to 10713
  153.0996  135.4819  154.8842 H   0  0  0  0  0  0  0  0  0  0  0  0  # atno 10763 bound_to 10752
  154.7364  135.3072  154.8807 H   0  0  0  0  0  0  0  0  0  0  0  0  # atno 10764 bound_to 10752
  153.9428  135.6832  153.4797 H   0  0  0  0  0  0  0  0  0  0  0  0  # atno 10765 bound_to 10752
  140.3087  134.2674  155.7738 H   0  0  0  0  0  0  0  0  0  0  0  0  # atno 11005 bound_to 11000
  144.9217  139.4404  143.6538 LP  0  0  0  0  0  0  0  0  0  0  0  0  # atno 17320 bound_to 7965
  146.3202  139.8080  142.8951 LP  0  0  0  0  0  0  0  0  0  0  0  0  # atno 17321 bound_to 7965
  139.4975  144.4025  152.0166 LP  0  0  0  0  0  0  0  0  0  0  0  0  # atno 17342 bound_to 10162
  140.3131  144.3515  150.6028 LP  0  0  0  0  0  0  0  0  0  0  0  0  # atno 17343 bound_to 10162
  156.8617  130.9494  151.3617 LP  0  0  0  0  0  0  0  0  0  0  0  0  # atno 17370 bound_to 10713
  157.6276  130.8704  149.9216 LP  0  0  0  0  0  0  0  0  0  0  0  0  # atno 17371 bound_to 10713
  141.2113  133.7694  156.9875 LP  0  0  0  0  0  0  0  0  0  0  0  0  # atno 17394 bound_to 11000
  140.1044  134.9516  157.1971 LP  0  0  0  0  0  0  0  0  0  0  0  0  # atno 17395 bound_to 11000

$$$$
