AV-unprocessed.smi:2768|AV-procd|sdf|10655|dock7
  -GOLD-   2272015103D 1   1.00000     0.00000
 Structure written by MMmdl.
 34 35  0  0  0  0  0  0  0  0  2 V2000
  149.1997  141.7116  157.8980 O   0  0  0  0  0  0  0  0  0  0  0  0
  149.6309  140.7767  157.2130 C   0  0  0  0  0  0  0  0  0  0  0  0
  149.0034  140.0405  156.2507 N   0  5  0  0  0  0  0  0  0  0  0  0
  147.8762  140.5225  155.4491 C   0  0  1  0  0  0  0  0  0  0  0  0
  146.7986  141.1455  156.3733 C   0  0  0  0  0  0  0  0  0  0  0  0
  145.6371  141.8165  155.5978 C   0  0  0  0  0  0  0  0  0  0  0  0
  146.1299  142.8930  154.6085 C   0  0  0  0  0  0  0  0  0  0  0  0
  147.1934  142.2834  153.6716 C   0  0  0  0  0  0  0  0  0  0  0  0
  148.3554  141.6092  154.4481 C   0  0  2  0  0  0  0  0  0  0  0  0
  149.2457  141.0316  153.5145 O   0  0  0  0  0  0  0  0  0  0  0  0
  151.0993  140.3448  157.4164 C   0  0  0  0  0  0  0  0  0  0  0  0
  151.1099  139.1075  157.9189 F   0  0  0  0  0  0  0  0  0  0  0  0
  151.7433  140.3010  156.2443 F   0  0  0  0  0  0  0  0  0  0  0  0
  151.8044  141.2885  158.3889 C   0  0  0  0  0  0  0  0  0  0  0  0
  152.3834  140.7961  159.5813 C   0  0  0  0  0  0  0  0  0  0  0  0
  153.0150  141.7044  160.4524 C   0  0  0  0  0  0  0  0  0  0  0  0
  153.0464  143.0680  160.1048 C   0  0  0  0  0  0  0  0  0  0  0  0
  152.4387  143.4642  158.8973 C   0  0  0  0  0  0  0  0  0  0  0  0
  151.8317  142.6015  158.0552 N   0  0  0  0  0  0  0  0  0  0  0  0
  147.4084  139.7184  154.8776 H   0  0  0  0  0  0  0  0  0  0  0  0
  148.9010  142.3815  154.9928 H   0  0  0  0  0  0  0  0  0  0  0  0
  146.3932  140.3797  157.0360 H   0  0  0  0  0  0  0  0  0  0  0  0
  147.2613  141.8914  157.0217 H   0  0  0  0  0  0  0  0  0  0  0  0
  145.0620  141.0619  155.0573 H   0  0  0  0  0  0  0  0  0  0  0  0
  144.9423  142.2676  156.3066 H   0  0  0  0  0  0  0  0  0  0  0  0
  145.2958  143.2921  154.0310 H   0  0  0  0  0  0  0  0  0  0  0  0
  146.5622  143.7290  155.1598 H   0  0  0  0  0  0  0  0  0  0  0  0
  146.7135  141.5625  153.0057 H   0  0  0  0  0  0  0  0  0  0  0  0
  147.5915  143.0660  153.0245 H   0  0  0  0  0  0  0  0  0  0  0  0
  148.8616  140.2176  153.2239 H   0  0  0  0  0  0  0  0  0  0  0  0
  152.3383  139.7454  159.8266 H   0  0  0  0  0  0  0  0  0  0  0  0
  153.4664  141.3611  161.3717 H   0  0  0  0  0  0  0  0  0  0  0  0
  153.5229  143.7930  160.7480 H   0  0  0  0  0  0  0  0  0  0  0  0
  152.4424  144.5019  158.5985 H   0  0  0  0  0  0  0  0  0  0  0  0
  1  2  2  0  0  0  0
  2  3  1  0  0  0  0
  2 11  1  0  0  0  0
  3  4  1  0  0  0  0
  4 20  1  0  0  0  0
  4  9  1  0  0  0  0
  4  5  1  0  0  0  0
  5  6  1  0  0  0  0
  5 22  1  0  0  0  0
  5 23  1  0  0  0  0
  6  7  1  0  0  0  0
  6 24  1  0  0  0  0
  6 25  1  0  0  0  0
  7  8  1  0  0  0  0
  7 26  1  0  0  0  0
  7 27  1  0  0  0  0
  8  9  1  0  0  0  0
  8 28  1  0  0  0  0
  8 29  1  0  0  0  0
  9 21  1  0  0  0  0
  9 10  1  0  0  0  0
 10 30  1  0  0  0  0
 11 12  1  0  0  0  0
 11 13  1  0  0  0  0
 11 14  1  0  0  0  0
 14 19  1  0  0  0  0
 14 15  2  0  0  0  0
 15 16  1  0  0  0  0
 15 31  1  0  0  0  0
 16 17  2  0  0  0  0
 16 32  1  0  0  0  0
 17 18  1  0  0  0  0
 17 33  1  0  0  0  0
 18 19  2  0  0  0  0
 18 34  1  0  0  0  0
M  CHG  1   3  -1
M  END
> <s_m_source_file>
AV-unprocessed.smi

> <i_m_source_file_index>
2768

> <i_lp_mmshare_version>
43012

> <i_f3d_flags>
0

> <s_epik_input>
bjFbY0hdW2NIXVtjSF1bY0hdYzFDKEYpKEYpQyg9TylbTkhdW0NAQEhdMltDSDJdW0NIMl1bQ0gyXVtDSDJdW0NASF0yW09IXQ==

> <s_epik_cmdline>
J2VwaWtfcHl0aG9uJywgJy1waCcsICc3LjAnLCAnLXRuJywgJzgnLCAnLW1hJywgJzIwMCcsICctbWV0YWxfYmluZGluZycsICctaW1hZScsICc8aW5maWxlLm1hZT4nLCAnLW9tYWUnLCAnPG91dGZpbGUubWFlPic=

> <r_lp_tautomer_probability>
1

> <r_epik_Ionization_Penalty>
5.70553

> <r_epik_Ionization_Penalty_Charging>
5.70553

> <r_epik_Ionization_Penalty_Neutral>
5.5493e-06

> <r_epik_State_Penalty>
5.70549

> <r_epik_Charging_Adjusted_Penalty>
11.411

> <i_epik_Tot_Q>
-1

> <i_epik_Tot_abs_Q>
1

> <r_epik_Metal_State_Penalty>
1.6859

> <b_epik_Metal_Only>
1

> <s_lp_Force_Field>
OPLS_2005

> <r_lp_Energy>
26.4517

> <b_lp_Chiralities_Consistent>
1

> <s_lp_Variant>
AV-unprocessed.smi:2768-8

> <Gold.Version>
5.8.1

> <Gold.Id.Protein>
6NUR|6NUR_protein|mol2

> <Gold.PLP.Fitness>
37.9123

> <Gold.PLP.PLP>
-37.5031

> <Gold.PLP.part.hbond>
-3.0000

> <Gold.PLP.part.metal>
0.0000

> <Gold.PLP.part.buried>
-5.7777

> <Gold.PLP.part.nonpolar>
-28.1630

> <Gold.PLP.part.repulsive>
0.1406

> <Gold.PLP.ligand.clash>
2.1526

> <Gold.PLP.ligand.torsion>
0.4263

> <Gold.PLP.Chemscore.Hbond>
1.1261

> <Gold.PLP.Chemscore.CHOScore>
0.0000

> <Gold.PLP.Chemscore.Metal>
0.0000

> <Gold.Chemscore.Hbonds>
donor molecule, donor type, donor heavy atom, donor atom, acceptor molecule, acceptor atom, score
      L1  H    10    30       P1  7957  0.03
      P1  H  7989  7998       L1    10  0.05
      P1  H  8011  8017       L1    10  1.00

> <Gold.PLP.Chemscore.Internal.Correction>
0.0360

> <Gold.Rescore>
     Score         DG    S(hbond)    S(metal)    S(lipo)     H(rot)  DE(clash)    DE(int)     intcor
     10.67     -13.90       1.11        0.00      83.02       1.95       0.25       2.98       ----

> <Gold.Chemscore.Fitness>
10.6719

> <Gold.Chemscore.DG>
-13.8992

> <Gold.Chemscore.ZeroCoef>
-5.4800

> <Gold.Chemscore.Hbond>
1.1073

> <Gold.Chemscore.Metal>
0.0000

> <Gold.Chemscore.Lipo>
83.0225

> <Gold.Chemscore.Internal_Hbond>
0.0000

> <Gold.Chemscore.DEClash>
0.2494

> <Gold.Chemscore.DEInternal>
2.9778

> <Gold.Chemscore.Rot>
1.9503

> <Gold.Chemscore.Internal.Correction>
   9.000000E+99

> <Gold.Chemscore.Hbonds>
donor molecule, donor type, donor heavy atom, donor atom, acceptor molecule, acceptor atom, score
      L1  H    10    30       P1  7957  0.05
      P1  H  7989  7998       L1    10  0.04
      P1  H  8011  8017       L1    10  0.58

> <Gold.Chemscore.Hbond.Weighted>
-3.6983

> <Gold.Chemscore.Metal.Weighted>
-0.0000

> <Gold.Chemscore.Lipo.Weighted>
-9.7136

> <Gold.Chemscore.Internal_Hbond.Weighted>
0.0000

> <Gold.Chemscore.DEClash.Weighted>
0.2494

> <Gold.Chemscore.DEInternal.Weighted>
2.9778

> <Gold.Chemscore.Rot.Weighted>
4.9928

> <Gold.Chemscore.Internal.Correction.Weighted>
   9.000000E+99

> <Gold.Protein.RotatedTorsions>
[ 6907 6896 6895 6894 ] final   21.72 input  -60.11 | X-H torsion
[ 7974 7965 7964 7962 ] final   54.99 input  175.53 | X-H torsion
[ 8008 7997 7996 7995 ] final   70.77 input   59.86 | X-H torsion
[ 10167 10162 10161 10158 ] final -153.26 input  -65.29 | X-H torsion
[ 10718 10713 10712 10709 ] final  -12.02 input   66.30 | X-H torsion
[ 10763 10752 10751 10750 ] final  -85.51 input  -60.55 | X-H torsion
[ 11005 11000 10999 10996 ] final -179.76 input  -57.11 | X-H torsion

> <Gold.Protein.ActiveResidues>
 VAL166  LYS551  ARG553  GLY616  TRP617  ASP618  TYR619  PRO620  LYS621  CYS622 
 ASP623  PHE694  ASN695  SER759  ASP760  ASP761  ALA762  ILE779  LEU786  VAL792 
 PHE793  MET794  SER795  GLU796  ALA797  LYS798  CYS799  TRP800  GLU811  SER814 

> <Gold.Protein.RotatedAtoms>
  151.9161  135.0318  160.0518 H   0  0  0  0  0  0  0  0  0  0  0  0  # atno 6907 bound_to 6896
  152.2238  133.5000  159.5186 H   0  0  0  0  0  0  0  0  0  0  0  0  # atno 6908 bound_to 6896
  150.7007  134.1223  159.4082 H   0  0  0  0  0  0  0  0  0  0  0  0  # atno 6909 bound_to 6896
  145.9550  139.4007  143.0282 H   0  0  0  0  0  0  0  0  0  0  0  0  # atno 7974 bound_to 7965
  155.7438  140.3490  155.5117 H   0  0  0  0  0  0  0  0  0  0  0  0  # atno 8008 bound_to 7997
  155.9069  140.1044  157.1329 H   0  0  0  0  0  0  0  0  0  0  0  0  # atno 8009 bound_to 7997
  154.4051  140.1275  156.4495 H   0  0  0  0  0  0  0  0  0  0  0  0  # atno 8010 bound_to 7997
  139.7112  143.9106  152.2468 H   0  0  0  0  0  0  0  0  0  0  0  0  # atno 10167 bound_to 10162
  156.6506  130.4954  149.6063 H   0  0  0  0  0  0  0  0  0  0  0  0  # atno 10718 bound_to 10713
  154.6119  135.5482  153.7482 H   0  0  0  0  0  0  0  0  0  0  0  0  # atno 10763 bound_to 10752
  153.0199  135.6391  154.1566 H   0  0  0  0  0  0  0  0  0  0  0  0  # atno 10764 bound_to 10752
  154.1503  135.2903  155.3117 H   0  0  0  0  0  0  0  0  0  0  0  0  # atno 10765 bound_to 10752
  140.4151  134.6657  157.4634 H   0  0  0  0  0  0  0  0  0  0  0  0  # atno 11005 bound_to 11000
  145.8118  140.9722  143.0945 LP  0  0  0  0  0  0  0  0  0  0  0  0  # atno 17320 bound_to 7965
  144.6803  139.9931  143.7484 LP  0  0  0  0  0  0  0  0  0  0  0  0  # atno 17321 bound_to 7965
  139.8975  144.6930  150.8701 LP  0  0  0  0  0  0  0  0  0  0  0  0  # atno 17342 bound_to 10162
  140.7733  143.3539  151.1960 LP  0  0  0  0  0  0  0  0  0  0  0  0  # atno 17343 bound_to 10162
  156.2087  130.6665  151.1246 LP  0  0  0  0  0  0  0  0  0  0  0  0  # atno 17370 bound_to 10713
  157.7142  131.0718  150.6390 LP  0  0  0  0  0  0  0  0  0  0  0  0  # atno 17371 bound_to 10713
  140.0240  134.6505  155.9199 LP  0  0  0  0  0  0  0  0  0  0  0  0  # atno 17394 bound_to 11000
  141.1806  133.6546  156.5005 LP  0  0  0  0  0  0  0  0  0  0  0  0  # atno 17395 bound_to 11000

$$$$
