AV-unprocessed.smi:22|AV-procd|sdf|171|dock4
  -GOLD-   2262015423D 1   1.00000     0.00000
 Structure written by MMmdl.
 56 59  0  0  0  0  0  0  0  0  2 V2000
  146.2929  133.2135  151.8735 C   0  0  0  0  0  0  0  0  0  0  0  0
  145.0069  133.9418  152.0391 N   0  3  2  0  0  0  0  0  0  0  0  0
  144.1133  133.7797  150.8523 C   0  0  0  0  0  0  0  0  0  0  0  0
  143.9865  132.3281  150.3515 C   0  0  0  0  0  0  0  0  0  0  0  0
  142.9937  132.2387  149.3511 O   0  0  0  0  0  0  0  0  0  0  0  0
  145.2335  135.3544  152.4913 C   0  0  0  0  0  0  0  0  0  0  0  0
  145.8499  136.1931  151.3460 C   0  0  0  0  0  0  0  0  0  0  0  0
  146.0714  137.6557  151.7615 C   0  0  0  0  0  0  0  0  0  0  0  0
  146.8889  137.7360  152.9704 N   0  0  0  0  0  0  0  0  0  0  0  0
  147.4150  138.9447  153.2939 C   0  0  0  0  0  0  0  0  0  0  0  0
  146.8304  140.0845  152.8368 N   0  0  0  0  0  0  0  0  0  0  0  0
  147.3332  141.2787  153.1631 C   0  0  0  0  0  0  0  0  0  0  0  0
  148.3969  141.5578  153.9184 N   0  0  0  0  0  0  0  0  0  0  0  0
  148.9953  140.4191  154.3712 C   0  0  0  0  0  0  0  0  0  0  0  0
  148.5721  139.0848  154.1112 C   0  0  0  0  0  0  0  0  0  0  0  0
  149.4300  138.1866  154.7347 N   0  0  0  0  0  0  0  0  0  0  0  0
  150.3047  138.9465  155.3356 C   0  0  0  0  0  0  0  0  0  0  0  0
  150.1241  140.3005  155.1636 N   0  0  0  0  0  0  0  0  0  0  0  0
  150.9457  141.3664  155.7179 C   0  0  0  0  0  0  0  0  0  0  0  0
  150.4383  141.8968  157.0795 C   0  0  2  0  0  0  0  0  0  0  0  0
  149.0839  142.2927  156.9431 O   0  0  0  0  0  0  0  0  0  0  0  0
  151.2368  143.0917  157.5854 C   0  0  0  0  0  0  0  0  0  0  0  0
  151.0960  142.9736  159.0970 C   0  0  0  0  0  0  0  0  0  0  0  0
  151.1902  141.5762  159.3162 O   0  0  0  0  0  0  0  0  0  0  0  0
  150.5393  140.8938  158.2479 C   0  0  0  0  0  0  0  0  0  0  0  0
  146.3676  136.9815  154.1068 C   0  0  0  0  0  0  0  0  0  0  0  0
  146.1478  135.5060  153.7349 C   0  0  0  0  0  0  0  0  0  0  0  0
  146.7973  133.5193  150.9560 H   0  0  0  0  0  0  0  0  0  0  0  0
  146.1392  132.1359  151.8396 H   0  0  0  0  0  0  0  0  0  0  0  0
  146.9796  133.3909  152.6993 H   0  0  0  0  0  0  0  0  0  0  0  0
  143.1015  134.1073  151.0880 H   0  0  0  0  0  0  0  0  0  0  0  0
  144.4737  134.4178  150.0441 H   0  0  0  0  0  0  0  0  0  0  0  0
  144.9334  132.0087  149.9153 H   0  0  0  0  0  0  0  0  0  0  0  0
  143.7738  131.6249  151.1556 H   0  0  0  0  0  0  0  0  0  0  0  0
  142.4296  132.9948  149.4149 H   0  0  0  0  0  0  0  0  0  0  0  0
  144.2632  135.7780  152.7570 H   0  0  0  0  0  0  0  0  0  0  0  0
  146.8037  135.7560  151.0466 H   0  0  0  0  0  0  0  0  0  0  0  0
  145.2206  136.1833  150.4576 H   0  0  0  0  0  0  0  0  0  0  0  0
  146.5588  138.1929  150.9462 H   0  0  0  0  0  0  0  0  0  0  0  0
  145.1107  138.1412  151.9397 H   0  0  0  0  0  0  0  0  0  0  0  0
  146.8069  142.1329  152.7630 H   0  0  0  0  0  0  0  0  0  0  0  0
  151.1156  138.5374  155.9207 H   0  0  0  0  0  0  0  0  0  0  0  0
  151.9658  140.9935  155.8175 H   0  0  0  0  0  0  0  0  0  0  0  0
  150.9884  142.1774  154.9896 H   0  0  0  0  0  0  0  0  0  0  0  0
  149.0307  142.9449  156.2613 H   0  0  0  0  0  0  0  0  0  0  0  0
  152.2892  142.9850  157.3186 H   0  0  0  0  0  0  0  0  0  0  0  0
  150.8908  144.0497  157.1947 H   0  0  0  0  0  0  0  0  0  0  0  0
  151.8686  143.5189  159.6391 H   0  0  0  0  0  0  0  0  0  0  0  0
  150.1207  143.3321  159.4295 H   0  0  0  0  0  0  0  0  0  0  0  0
  149.5613  140.5338  158.5707 H   0  0  0  0  0  0  0  0  0  0  0  0
  151.1397  140.0211  157.9947 H   0  0  0  0  0  0  0  0  0  0  0  0
  147.0390  137.0395  154.9630 H   0  0  0  0  0  0  0  0  0  0  0  0
  145.4239  137.4293  154.4211 H   0  0  0  0  0  0  0  0  0  0  0  0
  145.7126  135.0101  154.6026 H   0  0  0  0  0  0  0  0  0  0  0  0
  147.1156  135.0375  153.5489 H   0  0  0  0  0  0  0  0  0  0  0  0
  144.5187  133.4904  152.7997 H   0  0  0  0  0  0  0  0  0  0  0  0
  1  2  1  0  0  0  0
  1 28  1  0  0  0  0
  1 29  1  0  0  0  0
  1 30  1  0  0  0  0
  2  3  1  0  0  0  0
  2  6  1  0  0  0  0
  2 56  1  0  0  0  0
  3  4  1  0  0  0  0
  3 31  1  0  0  0  0
  3 32  1  0  0  0  0
  4  5  1  0  0  0  0
  4 33  1  0  0  0  0
  4 34  1  0  0  0  0
  5 35  1  0  0  0  0
  6 27  1  0  0  0  0
  6  7  1  0  0  0  0
  6 36  1  0  0  0  0
  7  8  1  0  0  0  0
  7 37  1  0  0  0  0
  7 38  1  0  0  0  0
  8  9  1  0  0  0  0
  8 39  1  0  0  0  0
  8 40  1  0  0  0  0
  9 10  1  0  0  0  0
  9 26  1  0  0  0  0
 10 15  1  0  0  0  0
 10 11  2  0  0  0  0
 11 12  1  0  0  0  0
 12 13  2  0  0  0  0
 12 41  1  0  0  0  0
 13 14  1  0  0  0  0
 14 18  1  0  0  0  0
 14 15  2  0  0  0  0
 15 16  1  0  0  0  0
 16 17  2  0  0  0  0
 17 18  1  0  0  0  0
 17 42  1  0  0  0  0
 18 19  1  0  0  0  0
 19 20  1  0  0  0  0
 19 43  1  0  0  0  0
 19 44  1  0  0  0  0
 20 25  1  0  0  0  0
 20 21  1  0  0  0  0
 20 22  1  0  0  0  0
 21 45  1  0  0  0  0
 22 23  1  0  0  0  0
 22 46  1  0  0  0  0
 22 47  1  0  0  0  0
 23 24  1  0  0  0  0
 23 48  1  0  0  0  0
 23 49  1  0  0  0  0
 24 25  1  0  0  0  0
 25 50  1  0  0  0  0
 25 51  1  0  0  0  0
 26 27  1  0  0  0  0
 26 52  1  0  0  0  0
 26 53  1  0  0  0  0
 27 54  1  0  0  0  0
 27 55  1  0  0  0  0
M  CHG  1   2   1
M  END
> <s_m_source_file>
AV-unprocessed.smi

> <i_m_source_file_index>
22

> <i_lp_mmshare_version>
43012

> <i_f3d_flags>
0

> <s_epik_input>
W09IXVtDSDJdW0NIMl1OKFtDSDNdKVtDSF0xW0NIMl1bQ0gyXU4oW0NIMl1bQ0gyXTEpYyhuW2NIXW4yKWMoYzIzKW5bY0hdbjNbQ0gyXVtDQEBdNChbT0hdKVtDSDJdW0NIMl1PW0NIMl00

> <s_epik_cmdline>
J2VwaWtfcHl0aG9uJywgJy1waCcsICc3LjAnLCAnLXRuJywgJzgnLCAnLW1hJywgJzIwMCcsICctbWV0YWxfYmluZGluZycsICctaW1hZScsICc8aW5maWxlLm1hZT4nLCAnLW9tYWUnLCAnPG91dGZpbGUubWFlPic=

> <r_lp_tautomer_probability>
1

> <r_epik_Ionization_Penalty>
0.00317524

> <r_epik_Ionization_Penalty_Charging>
0.00191487

> <r_epik_Ionization_Penalty_Neutral>
0.00126037

> <r_epik_State_Penalty>
-0

> <r_epik_Charging_Adjusted_Penalty>
0.00191487

> <i_epik_Tot_Q>
1

> <i_epik_Tot_abs_Q>
1

> <r_epik_Metal_State_Penalty>
-0

> <b_epik_Metal_Only>
0

> <s_lp_Force_Field>
OPLS_2005

> <r_lp_Energy>
48.0385

> <b_lp_Chiralities_Consistent>
1

> <s_lp_Variant>
AV-unprocessed.smi:22-3

> <Gold.Version>
5.8.1

> <Gold.Id.Protein>
6NUR|6NUR_protein|mol2

> <Gold.PLP.Fitness>
47.6486

> <Gold.PLP.PLP>
-40.5011

> <Gold.PLP.part.hbond>
-4.9312

> <Gold.PLP.part.metal>
0.0000

> <Gold.PLP.part.buried>
-4.1299

> <Gold.PLP.part.nonpolar>
-33.7794

> <Gold.PLP.part.repulsive>
2.9334

> <Gold.PLP.ligand.clash>
0.0000

> <Gold.PLP.ligand.torsion>
0.8648

> <Gold.PLP.Chemscore.Hbond>
2.8087

> <Gold.PLP.Chemscore.CHOScore>
0.0000

> <Gold.PLP.Chemscore.Metal>
0.0000

> <Gold.Chemscore.Hbonds>
donor molecule, donor type, donor heavy atom, donor atom, acceptor molecule, acceptor atom, score
      L1  H     5    35       P1 10186  1.00
      L1  H    21    45       P1  8028  1.00
      P1  H  8011  8017       L1    13  0.24
      P1  H 10785 10796       L1     5  0.60

> <Gold.PLP.Chemscore.Internal.Correction>
0.4510

> <Gold.Rescore>
     Score         DG    S(hbond)    S(metal)    S(lipo)     H(rot)  DE(clash)    DE(int)     intcor
     10.68     -12.44       2.12        0.00      81.26       3.76       0.94       0.83       ----

> <Gold.Chemscore.Fitness>
10.6786

> <Gold.Chemscore.DG>
-12.4427

> <Gold.Chemscore.ZeroCoef>
-5.4800

> <Gold.Chemscore.Hbond>
2.1187

> <Gold.Chemscore.Metal>
0.0000

> <Gold.Chemscore.Lipo>
81.2594

> <Gold.Chemscore.Internal_Hbond>
0.0000

> <Gold.Chemscore.DEClash>
0.9389

> <Gold.Chemscore.DEInternal>
0.8252

> <Gold.Chemscore.Rot>
3.7583

> <Gold.Chemscore.Internal.Correction>
   9.000000E+99

> <Gold.Chemscore.Hbonds>
donor molecule, donor type, donor heavy atom, donor atom, acceptor molecule, acceptor atom, score
      L1  H     5    35       P1 10186  0.95
      L1  H    21    45       P1  8028  0.96
      P1  H  8011  8017       L1    13  0.04
      P1  H 10785 10796       L1     5  0.18

> <Gold.Chemscore.Hbond.Weighted>
-7.0766

> <Gold.Chemscore.Metal.Weighted>
-0.0000

> <Gold.Chemscore.Lipo.Weighted>
-9.5074

> <Gold.Chemscore.Internal_Hbond.Weighted>
0.0000

> <Gold.Chemscore.DEClash.Weighted>
0.9389

> <Gold.Chemscore.DEInternal.Weighted>
0.8252

> <Gold.Chemscore.Rot.Weighted>
9.6213

> <Gold.Chemscore.Internal.Correction.Weighted>
   9.000000E+99

> <Gold.Protein.RotatedTorsions>
[ 6907 6896 6895 6894 ] final   46.63 input  -60.11 | X-H torsion
[ 7974 7965 7964 7962 ] final -145.54 input  175.53 | X-H torsion
[ 8008 7997 7996 7995 ] final -157.91 input   59.86 | X-H torsion
[ 10167 10162 10161 10158 ] final -156.38 input  -65.29 | X-H torsion
[ 10718 10713 10712 10709 ] final   73.77 input   66.30 | X-H torsion
[ 10763 10752 10751 10750 ] final -163.89 input  -60.55 | X-H torsion
[ 11005 11000 10999 10996 ] final -173.74 input  -57.11 | X-H torsion

> <Gold.Protein.ActiveResidues>
 VAL166  LYS551  ARG553  GLY616  TRP617  ASP618  TYR619  PRO620  LYS621  CYS622 
 ASP623  PHE694  ASN695  SER759  ASP760  ASP761  ALA762  ILE779  LEU786  VAL792 
 PHE793  MET794  SER795  GLU796  ALA797  LYS798  CYS799  TRP800  GLU811  SER814 

> <Gold.Protein.RotatedAtoms>
  152.2587  134.8057  160.0434 H   0  0  0  0  0  0  0  0  0  0  0  0  # atno 6907 bound_to 6896
  151.8711  133.3471  159.3743 H   0  0  0  0  0  0  0  0  0  0  0  0  # atno 6908 bound_to 6896
  150.7109  134.5038  159.5618 H   0  0  0  0  0  0  0  0  0  0  0  0  # atno 6909 bound_to 6896
  144.8220  140.5571  143.5572 H   0  0  0  0  0  0  0  0  0  0  0  0  # atno 7974 bound_to 7965
  155.7396  140.0812  157.2252 H   0  0  0  0  0  0  0  0  0  0  0  0  # atno 8008 bound_to 7997
  154.4023  140.1580  156.2656 H   0  0  0  0  0  0  0  0  0  0  0  0  # atno 8009 bound_to 7997
  155.9033  140.3408  155.6045 H   0  0  0  0  0  0  0  0  0  0  0  0  # atno 8010 bound_to 7997
  139.6855  143.9509  152.2359 H   0  0  0  0  0  0  0  0  0  0  0  0  # atno 10167 bound_to 10162
  157.6563  130.9645  150.1116 H   0  0  0  0  0  0  0  0  0  0  0  0  # atno 10718 bound_to 10713
  154.7080  135.3000  154.9241 H   0  0  0  0  0  0  0  0  0  0  0  0  # atno 10763 bound_to 10752
  154.0151  135.6690  153.4772 H   0  0  0  0  0  0  0  0  0  0  0  0  # atno 10764 bound_to 10752
  153.0732  135.5049  154.8262 H   0  0  0  0  0  0  0  0  0  0  0  0  # atno 10765 bound_to 10752
  140.4823  134.6063  157.4924 H   0  0  0  0  0  0  0  0  0  0  0  0  # atno 11005 bound_to 11000
  145.5083  139.1480  143.3619 LP  0  0  0  0  0  0  0  0  0  0  0  0  # atno 17320 bound_to 7965
  146.2526  140.5223  142.8887 LP  0  0  0  0  0  0  0  0  0  0  0  0  # atno 17321 bound_to 7965
  139.9311  144.6741  150.8362 LP  0  0  0  0  0  0  0  0  0  0  0  0  # atno 17342 bound_to 10162
  140.7666  143.3308  151.2414 LP  0  0  0  0  0  0  0  0  0  0  0  0  # atno 17343 bound_to 10162
  156.2011  130.3660  149.8787 LP  0  0  0  0  0  0  0  0  0  0  0  0  # atno 17370 bound_to 10713
  156.6690  130.8812  151.3559 LP  0  0  0  0  0  0  0  0  0  0  0  0  # atno 17371 bound_to 10713
  139.9819  134.7124  155.9844 LP  0  0  0  0  0  0  0  0  0  0  0  0  # atno 17394 bound_to 11000
  141.1525  133.6546  156.4057 LP  0  0  0  0  0  0  0  0  0  0  0  0  # atno 17395 bound_to 11000

$$$$
