AV-unprocessed.smi:2765|AV-procd|sdf|10644|dock3
  -GOLD-   2272015 93D 1   1.00000     0.00000
 Structure written by MMmdl.
 45 46  0  0  0  0  0  0  0  0  2 V2000
  146.5215  137.3429  153.4833 C   0  0  0  0  0  0  0  0  0  0  0  0
  147.2464  138.6882  153.2588 C   0  0  0  0  0  0  0  0  0  0  0  0
  146.7481  139.2354  151.9069 C   0  0  0  0  0  0  0  0  0  0  0  0
  146.9039  139.7304  154.3529 C   0  0  0  0  0  0  0  0  0  0  0  0
  147.6625  139.5581  155.6831 C   0  0  0  0  0  0  0  0  0  0  0  0
  147.1507  138.4716  156.5161 N   0  0  0  0  0  0  0  0  0  0  0  0
  147.6033  138.1473  157.7365 C   0  0  0  0  0  0  0  0  0  0  0  0
  148.5149  138.7505  158.3028 O   0  0  0  0  0  0  0  0  0  0  0  0
  146.9311  137.0981  158.2426 N   0  0  0  0  0  0  0  0  0  0  0  0
  147.1185  136.4597  159.4977 C   0  0  0  0  0  0  0  0  0  0  0  0
  146.8236  135.0773  159.5161 C   0  0  0  0  0  0  0  0  0  0  0  0
  146.9795  134.3512  160.7131 C   0  0  0  0  0  0  0  0  0  0  0  0
  147.4268  135.0290  161.8611 C   0  0  0  0  0  0  0  0  0  0  0  0
  147.5925  134.3734  163.0342 F   0  0  0  0  0  0  0  0  0  0  0  0
  147.6979  136.4059  161.7590 C   0  0  0  0  0  0  0  0  0  0  0  0
  147.5483  137.1028  160.6124 N   0  0  0  0  0  0  0  0  0  0  0  0
  149.1715  139.4256  155.4225 C   0  0  0  0  0  0  0  0  0  0  0  0
  149.5670  138.3790  154.3487 C   0  0  0  0  0  0  0  0  0  0  0  0
  151.0163  138.6713  153.9130 C   0  0  0  0  0  0  0  0  0  0  0  0
  149.5552  136.9365  154.9011 C   0  0  0  0  0  0  0  0  0  0  0  0
  148.7197  138.5052  153.1291 N   0  3  0  0  0  0  0  0  0  0  0  0
  145.4410  137.4690  153.4056 H   0  0  0  0  0  0  0  0  0  0  0  0
  146.7009  136.9051  154.4596 H   0  0  0  0  0  0  0  0  0  0  0  0
  146.8148  136.6057  152.7352 H   0  0  0  0  0  0  0  0  0  0  0  0
  145.6725  139.4174  151.9220 H   0  0  0  0  0  0  0  0  0  0  0  0
  146.9497  138.5364  151.0939 H   0  0  0  0  0  0  0  0  0  0  0  0
  147.2336  140.1783  151.6511 H   0  0  0  0  0  0  0  0  0  0  0  0
  147.1572  140.7222  153.9750 H   0  0  0  0  0  0  0  0  0  0  0  0
  145.8269  139.7603  154.5230 H   0  0  0  0  0  0  0  0  0  0  0  0
  147.5229  140.4732  156.2622 H   0  0  0  0  0  0  0  0  0  0  0  0
  146.4028  137.9155  156.1280 H   0  0  0  0  0  0  0  0  0  0  0  0
  146.2044  136.7065  157.6622 H   0  0  0  0  0  0  0  0  0  0  0  0
  146.4818  134.5727  158.6238 H   0  0  0  0  0  0  0  0  0  0  0  0
  146.7599  133.2944  160.7479 H   0  0  0  0  0  0  0  0  0  0  0  0
  148.0436  136.9626  162.6177 H   0  0  0  0  0  0  0  0  0  0  0  0
  149.5214  140.4057  155.0940 H   0  0  0  0  0  0  0  0  0  0  0  0
  149.7006  139.2318  156.3569 H   0  0  0  0  0  0  0  0  0  0  0  0
  151.7038  138.6277  154.7589 H   0  0  0  0  0  0  0  0  0  0  0  0
  151.1098  139.6635  153.4693 H   0  0  0  0  0  0  0  0  0  0  0  0
  151.3648  137.9513  153.1713 H   0  0  0  0  0  0  0  0  0  0  0  0
  150.2980  136.8179  155.6908 H   0  0  0  0  0  0  0  0  0  0  0  0
  149.7958  136.2131  154.1213 H   0  0  0  0  0  0  0  0  0  0  0  0
  148.6060  136.6403  155.3349 H   0  0  0  0  0  0  0  0  0  0  0  0
  148.9006  137.7201  152.5200 H   0  0  0  0  0  0  0  0  0  0  0  0
  149.0498  139.3369  152.6609 H   0  0  0  0  0  0  0  0  0  0  0  0
  1  2  1  0  0  0  0
  1 22  1  0  0  0  0
  1 23  1  0  0  0  0
  1 24  1  0  0  0  0
  2 21  1  0  0  0  0
  2  3  1  0  0  0  0
  2  4  1  0  0  0  0
  3 25  1  0  0  0  0
  3 26  1  0  0  0  0
  3 27  1  0  0  0  0
  4  5  1  0  0  0  0
  4 28  1  0  0  0  0
  4 29  1  0  0  0  0
  5  6  1  0  0  0  0
  5 17  1  0  0  0  0
  5 30  1  0  0  0  0
  6  7  1  0  0  0  0
  6 31  1  0  0  0  0
  7  8  2  0  0  0  0
  7  9  1  0  0  0  0
  9 10  1  0  0  0  0
  9 32  1  0  0  0  0
 10 16  1  0  0  0  0
 10 11  2  0  0  0  0
 11 12  1  0  0  0  0
 11 33  1  0  0  0  0
 12 13  2  0  0  0  0
 12 34  1  0  0  0  0
 13 14  1  0  0  0  0
 13 15  1  0  0  0  0
 15 16  2  0  0  0  0
 15 35  1  0  0  0  0
 17 18  1  0  0  0  0
 17 36  1  0  0  0  0
 17 37  1  0  0  0  0
 18 19  1  0  0  0  0
 18 20  1  0  0  0  0
 18 21  1  0  0  0  0
 19 38  1  0  0  0  0
 19 39  1  0  0  0  0
 19 40  1  0  0  0  0
 20 41  1  0  0  0  0
 20 42  1  0  0  0  0
 20 43  1  0  0  0  0
 21 44  1  0  0  0  0
 21 45  1  0  0  0  0
M  CHG  1  21   1
M  END
> <s_m_source_file>
AV-unprocessed.smi

> <i_m_source_file_index>
2765

> <i_lp_mmshare_version>
43012

> <i_f3d_flags>
0

> <s_epik_input>
W0NIM11DMShbQ0gzXSlbQ0gyXVtDSF0oW0NIMl1DKFtDSDNdKShbQ0gzXSlbTkhdMSlbTkhdQyg9TylbTkhdYzJbY0hdW2NIXWMoRilbY0hdbjI=

> <s_epik_cmdline>
J2VwaWtfcHl0aG9uJywgJy1waCcsICc3LjAnLCAnLXRuJywgJzgnLCAnLW1hJywgJzIwMCcsICctbWV0YWxfYmluZGluZycsICctaW1hZScsICc8aW5maWxlLm1hZT4nLCAnLW9tYWUnLCAnPG91dGZpbGUubWFlPic=

> <r_lp_tautomer_probability>
1

> <r_epik_Ionization_Penalty>
0.000124854

> <r_epik_Ionization_Penalty_Charging>
9.44458e-05

> <r_epik_Ionization_Penalty_Neutral>
3.0408e-05

> <r_epik_State_Penalty>
-0

> <r_epik_Charging_Adjusted_Penalty>
9.44458e-05

> <i_epik_Tot_Q>
1

> <i_epik_Tot_abs_Q>
1

> <r_epik_Metal_State_Penalty>
-0

> <b_epik_Metal_Only>
0

> <s_lp_Force_Field>
OPLS_2005

> <r_lp_Energy>
29.8768

> <b_lp_Chiralities_Consistent>
1

> <s_lp_Variant>
AV-unprocessed.smi:2765-1

> <Gold.Version>
5.8.1

> <Gold.Id.Protein>
6NUR|6NUR_protein|mol2

> <Gold.PLP.Fitness>
39.2526

> <Gold.PLP.PLP>
-27.9137

> <Gold.PLP.part.hbond>
-4.6887

> <Gold.PLP.part.metal>
0.0000

> <Gold.PLP.part.buried>
0.3149

> <Gold.PLP.part.nonpolar>
-23.3100

> <Gold.PLP.part.repulsive>
0.1359

> <Gold.PLP.ligand.clash>
0.0000

> <Gold.PLP.ligand.torsion>
0.2078

> <Gold.PLP.Chemscore.Hbond>
3.9120

> <Gold.PLP.Chemscore.CHOScore>
0.0000

> <Gold.PLP.Chemscore.Metal>
0.0000

> <Gold.Chemscore.Hbonds>
donor molecule, donor type, donor heavy atom, donor atom, acceptor molecule, acceptor atom, score
      L1  H    21    44       P1  7948  2.00
      L1  H    21    45       P1  7957  0.91
      P1  H  6934  6947       L1    16  1.00

> <Gold.PLP.Chemscore.Internal.Correction>
0.0186

> <Gold.Rescore>
     Score         DG    S(hbond)    S(metal)    S(lipo)     H(rot)  DE(clash)    DE(int)     intcor
     19.31     -20.74       2.83        0.00      71.52       1.00       0.29       1.14       ----

> <Gold.Chemscore.Fitness>
19.3065

> <Gold.Chemscore.DG>
-20.7439

> <Gold.Chemscore.ZeroCoef>
-5.4800

> <Gold.Chemscore.Hbond>
2.8312

> <Gold.Chemscore.Metal>
0.0000

> <Gold.Chemscore.Lipo>
71.5189

> <Gold.Chemscore.Internal_Hbond>
0.0000

> <Gold.Chemscore.DEClash>
0.2929

> <Gold.Chemscore.DEInternal>
1.1445

> <Gold.Chemscore.Rot>
1.0000

> <Gold.Chemscore.Internal.Correction>
   9.000000E+99

> <Gold.Chemscore.Hbonds>
donor molecule, donor type, donor heavy atom, donor atom, acceptor molecule, acceptor atom, score
      L1  H    21    44       P1  7948  0.98
      L1  H    21    45       P1  7957  0.90
      P1  H  6934  6947       L1    16  0.79

> <Gold.Chemscore.Hbond.Weighted>
-9.4562

> <Gold.Chemscore.Metal.Weighted>
-0.0000

> <Gold.Chemscore.Lipo.Weighted>
-8.3677

> <Gold.Chemscore.Internal_Hbond.Weighted>
0.0000

> <Gold.Chemscore.DEClash.Weighted>
0.2929

> <Gold.Chemscore.DEInternal.Weighted>
1.1445

> <Gold.Chemscore.Rot.Weighted>
2.5600

> <Gold.Chemscore.Internal.Correction.Weighted>
   9.000000E+99

> <Gold.Protein.RotatedTorsions>
[ 6907 6896 6895 6894 ] final   43.05 input  -60.11 | X-H torsion
[ 7974 7965 7964 7962 ] final  108.67 input  175.53 | X-H torsion
[ 8008 7997 7996 7995 ] final -149.25 input   59.86 | X-H torsion
[ 10167 10162 10161 10158 ] final   84.87 input  -65.29 | X-H torsion
[ 10718 10713 10712 10709 ] final   46.74 input   66.30 | X-H torsion
[ 10763 10752 10751 10750 ] final  -32.11 input  -60.55 | X-H torsion
[ 11005 11000 10999 10996 ] final   39.34 input  -57.11 | X-H torsion

> <Gold.Protein.ActiveResidues>
 VAL166  LYS551  ARG553  GLY616  TRP617  ASP618  TYR619  PRO620  LYS621  CYS622 
 ASP623  PHE694  ASN695  SER759  ASP760  ASP761  ALA762  ILE779  LEU786  VAL792 
 PHE793  MET794  SER795  GLU796  ALA797  LYS798  CYS799  TRP800  GLU811  SER814 

> <Gold.Protein.RotatedAtoms>
  152.2155  134.8462  160.0492 H   0  0  0  0  0  0  0  0  0  0  0  0  # atno 6907 bound_to 6896
  151.9265  133.3594  159.3923 H   0  0  0  0  0  0  0  0  0  0  0  0  # atno 6908 bound_to 6896
  150.6986  134.4506  159.5378 H   0  0  0  0  0  0  0  0  0  0  0  0  # atno 6909 bound_to 6896
  145.2777  139.2644  143.3932 H   0  0  0  0  0  0  0  0  0  0  0  0  # atno 7974 bound_to 7965
  155.6047  140.0665  157.2723 H   0  0  0  0  0  0  0  0  0  0  0  0  # atno 8008 bound_to 7997
  154.4269  140.1812  156.1257 H   0  0  0  0  0  0  0  0  0  0  0  0  # atno 8009 bound_to 7997
  156.0132  140.3324  155.6965 H   0  0  0  0  0  0  0  0  0  0  0  0  # atno 8010 bound_to 7997
  139.9036  144.6315  150.8611 H   0  0  0  0  0  0  0  0  0  0  0  0  # atno 10167 bound_to 10162
  157.4513  130.8140  149.7791 H   0  0  0  0  0  0  0  0  0  0  0  0  # atno 10718 bound_to 10713
  153.8084  135.6884  153.4844 H   0  0  0  0  0  0  0  0  0  0  0  0  # atno 10763 bound_to 10752
  153.1644  135.4567  154.9815 H   0  0  0  0  0  0  0  0  0  0  0  0  # atno 10764 bound_to 10752
  154.7978  135.3325  154.7567 H   0  0  0  0  0  0  0  0  0  0  0  0  # atno 10765 bound_to 10752
  140.2038  134.3838  155.8083 H   0  0  0  0  0  0  0  0  0  0  0  0  # atno 11005 bound_to 11000
  146.3226  140.3236  142.8635 LP  0  0  0  0  0  0  0  0  0  0  0  0  # atno 17320 bound_to 7965
  144.9280  140.7943  143.5707 LP  0  0  0  0  0  0  0  0  0  0  0  0  # atno 17321 bound_to 7965
  140.7701  143.3418  151.2192 LP  0  0  0  0  0  0  0  0  0  0  0  0  # atno 17342 bound_to 10162
  139.7004  143.9543  152.2902 LP  0  0  0  0  0  0  0  0  0  0  0  0  # atno 17343 bound_to 10162
  155.9988  130.3892  150.2687 LP  0  0  0  0  0  0  0  0  0  0  0  0  # atno 17370 bound_to 10713
  157.0859  131.0156  151.3139 LP  0  0  0  0  0  0  0  0  0  0  0  0  # atno 17371 bound_to 10713
  141.2227  133.7107  156.8302 LP  0  0  0  0  0  0  0  0  0  0  0  0  # atno 17394 bound_to 11000
  140.2025  134.8886  157.3185 LP  0  0  0  0  0  0  0  0  0  0  0  0  # atno 17395 bound_to 11000

$$$$
