AV-unprocessed.smi:594|AV-procd|sdf|3017|dock6
  -GOLD-   2262023523D 1   1.00000     0.00000
 Structure written by MMmdl.
 40 41  0  0  0  0  0  0  0  0  3 V2000
  153.5196  142.5597  161.4365 C   0  0  0  0  0  0  0  0  0  0  0  0
  152.4400  142.8021  160.3658 C   0  0  1  0  0  0  0  0  0  0  0  0
  152.3585  144.3014  160.0129 C   0  0  0  0  0  0  0  0  0  0  0  0
  151.2809  144.5848  158.9555 C   0  0  0  0  0  0  0  0  0  0  0  0
  151.5213  143.7518  157.6896 C   0  0  0  0  0  0  0  0  0  0  0  0
  151.5850  142.2543  158.0228 C   0  0  0  0  0  0  0  0  0  0  0  0
  152.6587  141.9520  159.0867 C   0  0  2  0  0  0  0  0  0  0  0  0
  152.6228  140.5239  159.3987 N   0  0  0  0  0  0  0  0  0  0  0  0
  152.6562  139.5211  158.5074 C   0  0  0  0  0  0  0  0  0  0  0  0
  152.6899  139.6953  157.2885 O   0  0  0  0  0  0  0  0  0  0  0  0
  152.6414  138.1023  159.0918 C   0  0  0  0  0  0  0  0  0  0  0  0
  151.4945  137.3047  158.6258 N   0  0  0  0  0  0  0  0  0  0  0  0
  150.3672  137.2460  159.4691 C   0  0  0  0  0  0  0  0  0  0  0  0
  149.2614  136.5504  159.1387 C   0  0  0  0  0  0  0  0  0  0  0  0
  148.1116  136.5040  160.0148 N   0  3  0  0  0  0  0  0  0  0  0  0
  147.1292  135.8588  159.6627 O   0  0  0  0  0  0  0  0  0  0  0  0
  148.1516  137.1080  161.0826 O   0  5  0  0  0  0  0  0  0  0  0  0
  149.2601  135.8495  157.8691 C   0  0  0  0  0  0  0  0  0  0  0  0
  150.3339  135.9040  157.0567 C   0  0  0  0  0  0  0  0  0  0  0  0
  151.5356  136.6634  157.4176 C   0  0  0  0  0  0  0  0  0  0  0  0
  152.5190  136.7193  156.6786 O   0  0  0  0  0  0  0  0  0  0  0  0
  154.5161  142.7711  161.0476 H   0  0  0  0  0  0  0  0  0  0  0  0
  153.5125  141.5290  161.7911 H   0  0  0  0  0  0  0  0  0  0  0  0
  153.3599  143.1981  162.3057 H   0  0  0  0  0  0  0  0  0  0  0  0
  151.4811  142.5161  160.8013 H   0  0  0  0  0  0  0  0  0  0  0  0
  152.1467  144.8844  160.9100 H   0  0  0  0  0  0  0  0  0  0  0  0
  153.3264  144.6448  159.6449 H   0  0  0  0  0  0  0  0  0  0  0  0
  150.2958  144.3559  159.3644 H   0  0  0  0  0  0  0  0  0  0  0  0
  151.2738  145.6463  158.7064 H   0  0  0  0  0  0  0  0  0  0  0  0
  150.7288  143.9391  156.9646 H   0  0  0  0  0  0  0  0  0  0  0  0
  152.4539  144.0625  157.2171 H   0  0  0  0  0  0  0  0  0  0  0  0
  150.6079  141.9234  158.3783 H   0  0  0  0  0  0  0  0  0  0  0  0
  151.7906  141.6873  157.1139 H   0  0  0  0  0  0  0  0  0  0  0  0
  153.6281  142.2174  158.6602 H   0  0  0  0  0  0  0  0  0  0  0  0
  152.5910  140.2789  160.3778 H   0  0  0  0  0  0  0  0  0  0  0  0
  153.5741  137.5914  158.8441 H   0  0  0  0  0  0  0  0  0  0  0  0
  152.6413  138.1838  160.1795 H   0  0  0  0  0  0  0  0  0  0  0  0
  150.4641  137.8072  160.3874 H   0  0  0  0  0  0  0  0  0  0  0  0
  148.3982  135.2764  157.5603 H   0  0  0  0  0  0  0  0  0  0  0  0
  150.3111  135.3753  156.1150 H   0  0  0  0  0  0  0  0  0  0  0  0
  1  2  1  0  0  0  0
  1 22  1  0  0  0  0
  1 23  1  0  0  0  0
  1 24  1  0  0  0  0
  2  7  1  0  0  0  0
  2  3  1  0  0  0  0
  2 25  1  0  0  0  0
  3  4  1  0  0  0  0
  3 26  1  0  0  0  0
  3 27  1  0  0  0  0
  4  5  1  0  0  0  0
  4 28  1  0  0  0  0
  4 29  1  0  0  0  0
  5  6  1  0  0  0  0
  5 30  1  0  0  0  0
  5 31  1  0  0  0  0
  6  7  1  0  0  0  0
  6 32  1  0  0  0  0
  6 33  1  0  0  0  0
  7  8  1  0  0  0  0
  7 34  1  0  0  0  0
  8  9  1  0  0  0  0
  8 35  1  0  0  0  0
  9 10  2  0  0  0  0
  9 11  1  0  0  0  0
 11 12  1  0  0  0  0
 11 36  1  0  0  0  0
 11 37  1  0  0  0  0
 12 20  1  0  0  0  0
 12 13  1  0  0  0  0
 13 14  2  0  0  0  0
 13 38  1  0  0  0  0
 14 15  1  0  0  0  0
 14 18  1  0  0  0  0
 15 16  2  0  0  0  0
 15 17  1  0  0  0  0
 18 19  2  0  0  0  0
 18 39  1  0  0  0  0
 19 20  1  0  0  0  0
 19 40  1  0  0  0  0
 20 21  2  0  0  0  0
M  CHG  1  15   1
M  CHG  1  17  -1
M  END
> <s_m_source_file>
AV-unprocessed.smi

> <i_m_source_file_index>
594

> <i_lp_mmshare_version>
43012

> <i_f3d_flags>
0

> <s_epik_input>
W0NIM11bQ0BASF0xW0NIMl1bQ0gyXVtDSDJdW0NIMl1bQ0BIXTFbTkhdQyg9TylbQ0gyXW4yW2NIXWMoW04rXSg9TylbTy1dKVtjSF1bY0hdYzI9Tw==

> <s_epik_cmdline>
J2VwaWtfcHl0aG9uJywgJy1waCcsICc3LjAnLCAnLXRuJywgJzgnLCAnLW1hJywgJzIwMCcsICctbWV0YWxfYmluZGluZycsICctaW1hZScsICc8aW5maWxlLm1hZT4nLCAnLW9tYWUnLCAnPG91dGZpbGUubWFlPic=

> <r_lp_tautomer_probability>
1

> <r_epik_Ionization_Penalty>
1.91305e-08

> <r_epik_Ionization_Penalty_Charging>
8.35811e-11

> <r_epik_Ionization_Penalty_Neutral>
1.90469e-08

> <r_epik_State_Penalty>
-0

> <r_epik_Charging_Adjusted_Penalty>
8.35811e-11

> <i_epik_Tot_Q>
0

> <i_epik_Tot_abs_Q>
2

> <r_epik_Metal_State_Penalty>
-0

> <b_epik_Metal_Only>
0

> <s_lp_Force_Field>
OPLS_2005

> <r_lp_Energy>
21.4369

> <b_lp_Chiralities_Consistent>
1

> <s_lp_Variant>
AV-unprocessed.smi:594-4

> <Gold.Version>
5.8.1

> <Gold.Id.Protein>
6NUR|6NUR_protein|mol2

> <Gold.PLP.Fitness>
48.8319

> <Gold.PLP.PLP>
-38.6042

> <Gold.PLP.part.hbond>
-4.0000

> <Gold.PLP.part.metal>
0.0000

> <Gold.PLP.part.buried>
-5.6179

> <Gold.PLP.part.nonpolar>
-29.5094

> <Gold.PLP.part.repulsive>
0.1296

> <Gold.PLP.ligand.clash>
0.0000

> <Gold.PLP.ligand.torsion>
0.3864

> <Gold.PLP.Chemscore.Hbond>
3.6640

> <Gold.PLP.Chemscore.CHOScore>
0.0000

> <Gold.PLP.Chemscore.Metal>
0.0000

> <Gold.Chemscore.Hbonds>
donor molecule, donor type, donor heavy atom, donor atom, acceptor molecule, acceptor atom, score
      P1  H  6931  6943       L1    17  1.00
      P1  H  6934  6947       L1    17  0.48
      P1  H  7997  8009       L1    10  1.00
      P1  H 10752 10765       L1    21  0.81

> <Gold.PLP.Chemscore.Internal.Correction>
0.0085

> <Gold.Rescore>
     Score         DG    S(hbond)    S(metal)    S(lipo)     H(rot)  DE(clash)    DE(int)     intcor
     23.22     -24.72       3.54        0.00      97.22       1.55       0.00       1.50       ----

> <Gold.Chemscore.Fitness>
23.2162

> <Gold.Chemscore.DG>
-24.7198

> <Gold.Chemscore.ZeroCoef>
-5.4800

> <Gold.Chemscore.Hbond>
3.5432

> <Gold.Chemscore.Metal>
0.0000

> <Gold.Chemscore.Lipo>
97.2195

> <Gold.Chemscore.Internal_Hbond>
0.0000

> <Gold.Chemscore.DEClash>
0.0004

> <Gold.Chemscore.DEInternal>
1.5032

> <Gold.Chemscore.Rot>
1.5505

> <Gold.Chemscore.Internal.Correction>
   9.000000E+99

> <Gold.Chemscore.Hbonds>
donor molecule, donor type, donor heavy atom, donor atom, acceptor molecule, acceptor atom, score
      P1  H  6931  6943       L1    17  0.96
      P1  H  6934  6947       L1    17  0.40
      P1  H  7997  8009       L1    10  0.74
      P1  H 10752 10765       L1    21  0.77

> <Gold.Chemscore.Hbond.Weighted>
-11.8343

> <Gold.Chemscore.Metal.Weighted>
-0.0000

> <Gold.Chemscore.Lipo.Weighted>
-11.3747

> <Gold.Chemscore.Internal_Hbond.Weighted>
0.0000

> <Gold.Chemscore.DEClash.Weighted>
0.0004

> <Gold.Chemscore.DEInternal.Weighted>
1.5032

> <Gold.Chemscore.Rot.Weighted>
3.9692

> <Gold.Chemscore.Internal.Correction.Weighted>
   9.000000E+99

> <Gold.Protein.RotatedTorsions>
[ 6907 6896 6895 6894 ] final    7.97 input  -60.11 | X-H torsion
[ 7974 7965 7964 7962 ] final   85.88 input  175.53 | X-H torsion
[ 8008 7997 7996 7995 ] final  172.08 input   59.86 | X-H torsion
[ 10167 10162 10161 10158 ] final  110.04 input  -65.29 | X-H torsion
[ 10718 10713 10712 10709 ] final  116.66 input   66.30 | X-H torsion
[ 10763 10752 10751 10750 ] final -143.77 input  -60.55 | X-H torsion
[ 11005 11000 10999 10996 ] final   98.27 input  -57.11 | X-H torsion

> <Gold.Protein.ActiveResidues>
 VAL166  LYS551  ARG553  GLY616  TRP617  ASP618  TYR619  PRO620  LYS621  CYS622 
 ASP623  PHE694  ASN695  SER759  ASP760  ASP761  ALA762  ILE779  LEU786  VAL792 
 PHE793  MET794  SER795  GLU796  ALA797  LYS798  CYS799  TRP800  GLU811  SER814 

> <Gold.Protein.RotatedAtoms>
  151.6986  135.0934  160.0246 H   0  0  0  0  0  0  0  0  0  0  0  0  # atno 6907 bound_to 6896
  152.3735  133.6445  159.6113 H   0  0  0  0  0  0  0  0  0  0  0  0  # atno 6908 bound_to 6896
  150.7691  133.9148  159.3422 H   0  0  0  0  0  0  0  0  0  0  0  0  # atno 6909 bound_to 6896
  145.5797  139.2323  143.2360 H   0  0  0  0  0  0  0  0  0  0  0  0  # atno 7974 bound_to 7965
  156.1210  140.1495  156.9205 H   0  0  0  0  0  0  0  0  0  0  0  0  # atno 8008 bound_to 7997
  154.4835  140.0872  156.7475 H   0  0  0  0  0  0  0  0  0  0  0  0  # atno 8009 bound_to 7997
  155.4429  140.3431  155.4294 H   0  0  0  0  0  0  0  0  0  0  0  0  # atno 8010 bound_to 7997
  139.6719  144.7125  151.1672 H   0  0  0  0  0  0  0  0  0  0  0  0  # atno 10167 bound_to 10162
  157.6146  131.1028  150.7504 H   0  0  0  0  0  0  0  0  0  0  0  0  # atno 10718 bound_to 10713
  154.8456  135.3458  154.6240 H   0  0  0  0  0  0  0  0  0  0  0  0  # atno 10763 bound_to 10752
  153.6849  135.6978  153.5111 H   0  0  0  0  0  0  0  0  0  0  0  0  # atno 10764 bound_to 10752
  153.2639  135.4314  155.0877 H   0  0  0  0  0  0  0  0  0  0  0  0  # atno 10765 bound_to 10752
  139.8773  134.9041  156.4431 H   0  0  0  0  0  0  0  0  0  0  0  0  # atno 11005 bound_to 11000
  146.1725  140.6623  142.9226 LP  0  0  0  0  0  0  0  0  0  0  0  0  # atno 17320 bound_to 7965
  144.7399  140.4914  143.6876 LP  0  0  0  0  0  0  0  0  0  0  0  0  # atno 17321 bound_to 7965
  140.7621  143.5831  150.8874 LP  0  0  0  0  0  0  0  0  0  0  0  0  # atno 17342 bound_to 10162
  139.9497  143.6286  152.3032 LP  0  0  0  0  0  0  0  0  0  0  0  0  # atno 17343 bound_to 10162
  156.7874  130.4879  149.5390 LP  0  0  0  0  0  0  0  0  0  0  0  0  # atno 17370 bound_to 10713
  156.1263  130.6146  151.0268 LP  0  0  0  0  0  0  0  0  0  0  0  0  # atno 17371 bound_to 10713
  140.8985  133.7796  155.9653 LP  0  0  0  0  0  0  0  0  0  0  0  0  # atno 17394 bound_to 11000
  140.8676  134.2765  157.5205 LP  0  0  0  0  0  0  0  0  0  0  0  0  # atno 17395 bound_to 11000

$$$$
