AV-unprocessed.smi:214|AV-procd|sdf|1649|dock8
  -GOLD-   2262020 33D 1   1.00000     0.00000
 Structure written by MMmdl.
 47 50  0  0  0  0  0  0  0  0  1 V2000
  150.3836  141.8670  155.5904 C   0  0  0  0  0  0  0  0  0  0  0  0
  150.4198  140.7479  156.5262 N   0  0  0  0  0  0  0  0  0  0  0  0
  151.0397  140.9398  157.8420 C   0  0  0  0  0  0  0  0  0  0  0  0
  150.8531  142.3623  158.3843 C   0  0  0  0  0  0  0  0  0  0  0  0
  149.7281  142.8456  158.5223 O   0  0  0  0  0  0  0  0  0  0  0  0
  151.9793  143.0159  158.7044 N   0  0  0  0  0  0  0  0  0  0  0  0
  152.0478  144.3413  159.2299 C   0  0  0  0  0  0  0  0  0  0  0  0
  152.2212  144.4951  160.7255 C   0  0  0  0  0  0  0  0  0  0  0  0
  150.8975  144.8185  160.0898 C   0  0  0  0  0  0  0  0  0  0  0  0
  150.5659  139.5437  155.9263 C   0  0  0  0  0  0  0  0  0  0  0  0
  150.5610  139.5210  154.5698 N   0  0  0  0  0  0  0  0  0  0  0  0
  150.6977  138.3633  153.9172 C   0  0  0  0  0  0  0  0  0  0  0  0
  150.8597  137.1374  154.4183 N   0  0  0  0  0  0  0  0  0  0  0  0
  150.8886  137.1571  155.7813 C   0  0  0  0  0  0  0  0  0  0  0  0
  150.7485  138.3069  156.6098 C   0  0  0  0  0  0  0  0  0  0  0  0
  150.8390  137.9377  157.9472 N   0  0  0  0  0  0  0  0  0  0  0  0
  151.0104  136.6445  157.9108 C   0  0  0  0  0  0  0  0  0  0  0  0
  151.0613  136.0934  156.6501 N   0  0  0  0  0  0  0  0  0  0  0  0
  151.2439  134.6861  156.3270 C   0  0  0  0  0  0  0  0  0  0  0  0
  149.9525  133.9573  155.8986 C   0  0  0  0  0  0  0  0  0  0  0  0
  148.9072  133.9780  157.0281 C   0  0  0  0  0  0  0  0  0  0  0  0
  149.4098  133.3851  158.2087 O   0  0  0  0  0  0  0  0  0  0  0  0
  149.4073  134.3291  154.5126 C   0  0  0  0  0  0  0  0  0  0  0  0
  149.3012  132.9439  154.1223 O   0  0  0  0  0  0  0  0  0  0  0  0
  150.1413  132.5834  155.2384 C   0  0  0  0  0  0  0  0  0  0  0  0
  149.5032  141.8099  154.9494 H   0  0  0  0  0  0  0  0  0  0  0  0
  151.2719  141.8713  154.9568 H   0  0  0  0  0  0  0  0  0  0  0  0
  150.3441  142.8204  156.1180 H   0  0  0  0  0  0  0  0  0  0  0  0
  150.6096  140.2609  158.5800 H   0  0  0  0  0  0  0  0  0  0  0  0
  152.1043  140.7094  157.7759 H   0  0  0  0  0  0  0  0  0  0  0  0
  152.8577  142.5385  158.5634 H   0  0  0  0  0  0  0  0  0  0  0  0
  152.5320  145.0989  158.6153 H   0  0  0  0  0  0  0  0  0  0  0  0
  152.2797  143.5910  161.3288 H   0  0  0  0  0  0  0  0  0  0  0  0
  152.8273  145.3280  161.0761 H   0  0  0  0  0  0  0  0  0  0  0  0
  150.6186  145.8676  160.0157 H   0  0  0  0  0  0  0  0  0  0  0  0
  150.0737  144.1297  160.2672 H   0  0  0  0  0  0  0  0  0  0  0  0
  150.6736  138.4287  152.8393 H   0  0  0  0  0  0  0  0  0  0  0  0
  151.1142  136.0534  158.8092 H   0  0  0  0  0  0  0  0  0  0  0  0
  151.9971  134.6140  155.5416 H   0  0  0  0  0  0  0  0  0  0  0  0
  151.6867  134.2007  157.1977 H   0  0  0  0  0  0  0  0  0  0  0  0
  148.6234  135.0036  157.2667 H   0  0  0  0  0  0  0  0  0  0  0  0
  147.9862  133.4731  156.7359 H   0  0  0  0  0  0  0  0  0  0  0  0
  149.3465  132.4459  158.1231 H   0  0  0  0  0  0  0  0  0  0  0  0
  148.4420  134.8360  154.5326 H   0  0  0  0  0  0  0  0  0  0  0  0
  150.1188  134.8718  153.8879 H   0  0  0  0  0  0  0  0  0  0  0  0
  151.1626  132.3769  154.9152 H   0  0  0  0  0  0  0  0  0  0  0  0
  149.7409  131.7514  155.8185 H   0  0  0  0  0  0  0  0  0  0  0  0
  1  2  1  0  0  0  0
  1 26  1  0  0  0  0
  1 27  1  0  0  0  0
  1 28  1  0  0  0  0
  2  3  1  0  0  0  0
  2 10  1  0  0  0  0
  3  4  1  0  0  0  0
  3 29  1  0  0  0  0
  3 30  1  0  0  0  0
  4  5  2  0  0  0  0
  4  6  1  0  0  0  0
  6  7  1  0  0  0  0
  6 31  1  0  0  0  0
  7  9  1  0  0  0  0
  7  8  1  0  0  0  0
  7 32  1  0  0  0  0
  8  9  1  0  0  0  0
  8 33  1  0  0  0  0
  8 34  1  0  0  0  0
  9 35  1  0  0  0  0
  9 36  1  0  0  0  0
 10 15  1  0  0  0  0
 10 11  2  0  0  0  0
 11 12  1  0  0  0  0
 12 13  2  0  0  0  0
 12 37  1  0  0  0  0
 13 14  1  0  0  0  0
 14 18  1  0  0  0  0
 14 15  2  0  0  0  0
 15 16  1  0  0  0  0
 16 17  2  0  0  0  0
 17 18  1  0  0  0  0
 17 38  1  0  0  0  0
 18 19  1  0  0  0  0
 19 20  1  0  0  0  0
 19 39  1  0  0  0  0
 19 40  1  0  0  0  0
 20 25  1  0  0  0  0
 20 21  1  0  0  0  0
 20 23  1  0  0  0  0
 21 22  1  0  0  0  0
 21 41  1  0  0  0  0
 21 42  1  0  0  0  0
 22 43  1  0  0  0  0
 23 24  1  0  0  0  0
 23 44  1  0  0  0  0
 23 45  1  0  0  0  0
 24 25  1  0  0  0  0
 25 46  1  0  0  0  0
 25 47  1  0  0  0  0
M  END
> <s_m_source_file>
AV-unprocessed.smi

> <i_m_source_file_index>
214

> <i_lp_mmshare_version>
43012

> <i_f3d_flags>
0

> <s_epik_input>
W0NIMl0xW0NIMl1bQ0hdMVtOSF1DKD1PKVtDSDJdTihbQ0gzXSljKG5bY0hdbjIpYyhjMjMpbltjSF1uM1tDSDJdQzQoW0NIMl1bT0hdKVtDSDJdT1tDSDJdNA==

> <s_epik_cmdline>
J2VwaWtfcHl0aG9uJywgJy1waCcsICc3LjAnLCAnLXRuJywgJzgnLCAnLW1hJywgJzIwMCcsICctbWV0YWxfYmluZGluZycsICctaW1hZScsICc8aW5maWxlLm1hZT4nLCAnLW9tYWUnLCAnPG91dGZpbGUubWFlPic=

> <r_lp_tautomer_probability>
1

> <r_epik_Ionization_Penalty>
0.000508869

> <r_epik_Ionization_Penalty_Charging>
0

> <r_epik_Ionization_Penalty_Neutral>
0.000508869

> <r_epik_State_Penalty>
0.000243319

> <r_epik_Charging_Adjusted_Penalty>
0.000243319

> <i_epik_Tot_Q>
0

> <i_epik_Tot_abs_Q>
0

> <r_epik_Metal_State_Penalty>
-0

> <b_epik_Metal_Only>
0

> <s_lp_Force_Field>
OPLS_2005

> <r_lp_Energy>
39.3286

> <b_lp_Chiralities_Consistent>
1

> <s_lp_Variant>
AV-unprocessed.smi:214-1

> <Gold.Version>
5.8.1

> <Gold.Id.Protein>
6NUR|6NUR_protein|mol2

> <Gold.PLP.Fitness>
42.6818

> <Gold.PLP.PLP>
-35.1810

> <Gold.PLP.part.hbond>
-2.0000

> <Gold.PLP.part.metal>
0.0000

> <Gold.PLP.part.buried>
-6.2467

> <Gold.PLP.part.nonpolar>
-27.4886

> <Gold.PLP.part.repulsive>
0.6253

> <Gold.PLP.ligand.clash>
0.0000

> <Gold.PLP.ligand.torsion>
1.1056

> <Gold.PLP.Chemscore.Hbond>
2.0000

> <Gold.PLP.Chemscore.CHOScore>
0.8798

> <Gold.PLP.Chemscore.Metal>
0.0000

> <Gold.Chemscore.Hbonds>
donor molecule, donor type, donor heavy atom, donor atom, acceptor molecule, acceptor atom, score
      P1  H  6896  6909       L1    22  1.00
      P1  H  7989  7998       L1    11  1.00
      L1  C    12    37       P1  7948  0.03
      L1  C    12    37       P1  7949  0.14
      L1  C    12    37       P1  7957  0.72

> <Gold.PLP.Chemscore.Internal.Correction>
1.0727

> <Gold.Rescore>
     Score         DG    S(hbond)    S(metal)    S(lipo)     H(rot)  DE(clash)    DE(int)     intcor
      8.17     -11.86       1.80        0.00      75.42       3.31       0.43       3.26       ----

> <Gold.Chemscore.Fitness>
8.1655

> <Gold.Chemscore.DG>
-11.8606

> <Gold.Chemscore.ZeroCoef>
-5.4800

> <Gold.Chemscore.Hbond>
1.8019

> <Gold.Chemscore.Metal>
0.0000

> <Gold.Chemscore.Lipo>
75.4152

> <Gold.Chemscore.Internal_Hbond>
0.0000

> <Gold.Chemscore.DEClash>
0.4348

> <Gold.Chemscore.DEInternal>
3.2603

> <Gold.Chemscore.Rot>
3.3052

> <Gold.Chemscore.Internal.Correction>
   9.000000E+99

> <Gold.Chemscore.Hbonds>
donor molecule, donor type, donor heavy atom, donor atom, acceptor molecule, acceptor atom, score
      P1  H  6896  6909       L1    22  0.38
      P1  H  7989  7998       L1    11  0.46

> <Gold.Chemscore.Hbond.Weighted>
-6.0184

> <Gold.Chemscore.Metal.Weighted>
-0.0000

> <Gold.Chemscore.Lipo.Weighted>
-8.8236

> <Gold.Chemscore.Internal_Hbond.Weighted>
0.0000

> <Gold.Chemscore.DEClash.Weighted>
0.4348

> <Gold.Chemscore.DEInternal.Weighted>
3.2603

> <Gold.Chemscore.Rot.Weighted>
8.4614

> <Gold.Chemscore.Internal.Correction.Weighted>
   9.000000E+99

> <Gold.Protein.RotatedTorsions>
[ 6907 6896 6895 6894 ] final  -14.80 input  -60.11 | X-H torsion
[ 7974 7965 7964 7962 ] final  -84.07 input  175.53 | X-H torsion
[ 8008 7997 7996 7995 ] final   18.05 input   59.86 | X-H torsion
[ 10167 10162 10161 10158 ] final   11.13 input  -65.29 | X-H torsion
[ 10718 10713 10712 10709 ] final   22.69 input   66.30 | X-H torsion
[ 10763 10752 10751 10750 ] final  -98.57 input  -60.55 | X-H torsion
[ 11005 11000 10999 10996 ] final -131.90 input  -57.11 | X-H torsion

> <Gold.Protein.ActiveResidues>
 VAL166  LYS551  ARG553  GLY616  TRP617  ASP618  TYR619  PRO620  LYS621  CYS622 
 ASP623  PHE694  ASN695  SER759  ASP760  ASP761  ALA762  ILE779  LEU786  VAL792 
 PHE793  MET794  SER795  GLU796  ALA797  LYS798  CYS799  TRP800  GLU811  SER814 

> <Gold.Protein.RotatedAtoms>
  151.3338  135.0848  159.9347 H   0  0  0  0  0  0  0  0  0  0  0  0  # atno 6907 bound_to 6896
  152.5228  133.9516  159.7685 H   0  0  0  0  0  0  0  0  0  0  0  0  # atno 6908 bound_to 6896
  150.9860  133.6144  159.2745 H   0  0  0  0  0  0  0  0  0  0  0  0  # atno 6909 bound_to 6896
  145.5115  140.9539  143.1705 H   0  0  0  0  0  0  0  0  0  0  0  0  # atno 7974 bound_to 7965
  154.9003  140.2999  155.5321 H   0  0  0  0  0  0  0  0  0  0  0  0  # atno 8008 bound_to 7997
  156.3018  140.2408  156.3965 H   0  0  0  0  0  0  0  0  0  0  0  0  # atno 8009 bound_to 7997
  154.8528  140.0408  157.1604 H   0  0  0  0  0  0  0  0  0  0  0  0  # atno 8010 bound_to 7997
  140.6151  143.8325  150.7109 H   0  0  0  0  0  0  0  0  0  0  0  0  # atno 10167 bound_to 10162
  157.1558  130.6695  149.6027 H   0  0  0  0  0  0  0  0  0  0  0  0  # atno 10718 bound_to 10713
  154.7425  135.5004  153.9148 H   0  0  0  0  0  0  0  0  0  0  0  0  # atno 10763 bound_to 10752
  153.1058  135.6697  153.9597 H   0  0  0  0  0  0  0  0  0  0  0  0  # atno 10764 bound_to 10752
  153.9370  135.3072  155.3423 H   0  0  0  0  0  0  0  0  0  0  0  0  # atno 10765 bound_to 10752
  140.9217  134.1435  157.4308 H   0  0  0  0  0  0  0  0  0  0  0  0  # atno 11005 bound_to 11000
  144.7725  139.6703  143.7189 LP  0  0  0  0  0  0  0  0  0  0  0  0  # atno 17320 bound_to 7965
  146.2164  139.5556  142.9647 LP  0  0  0  0  0  0  0  0  0  0  0  0  # atno 17321 bound_to 7965
  140.1902  143.4042  152.1869 LP  0  0  0  0  0  0  0  0  0  0  0  0  # atno 17342 bound_to 10162
  139.5392  144.7240  151.4790 LP  0  0  0  0  0  0  0  0  0  0  0  0  # atno 17343 bound_to 10162
  155.9762  130.4728  150.6514 LP  0  0  0  0  0  0  0  0  0  0  0  0  # atno 17370 bound_to 10713
  157.4178  131.0832  151.1160 LP  0  0  0  0  0  0  0  0  0  0  0  0  # atno 17371 bound_to 10713
  139.8777  134.9974  156.5844 LP  0  0  0  0  0  0  0  0  0  0  0  0  # atno 17394 bound_to 11000
  140.7978  133.8529  155.8701 LP  0  0  0  0  0  0  0  0  0  0  0  0  # atno 17395 bound_to 11000

$$$$
