AV-unprocessed.smi:1005|AV-procd|sdf|4381|dock8
  -GOLD-   22720 2303D 1   1.00000     0.00000
 Structure written by MMmdl.
 58 60  0  0  0  0  0  0  0  0  4 V2000
  152.3042  143.0596  160.8066 C   0  0  0  0  0  0  0  0  0  0  0  0
  152.0372  142.2228  159.5671 C   0  0  0  0  0  0  0  0  0  0  0  0
  151.1415  142.7231  158.5959 C   0  0  0  0  0  0  0  0  0  0  0  0
  150.9179  141.9354  157.4731 C   0  0  0  0  0  0  0  0  0  0  0  0
  150.1063  142.1463  156.3569 N   0  3  0  0  0  0  0  0  0  0  0  0
  150.2159  141.0873  155.5083 C   0  0  0  0  0  0  0  0  0  0  0  0
  151.0857  140.2012  156.0659 N   0  0  0  0  0  0  0  0  0  0  0  0
  151.5498  138.9006  155.5608 C   0  0  0  0  0  0  0  0  0  0  0  0
  150.4219  138.0721  154.9137 C   0  0  1  0  0  0  0  0  0  0  0  0
  150.5247  138.1470  153.5046 O   0  0  0  0  0  0  0  0  0  0  0  0
  150.4820  136.5903  155.3353 C   0  0  0  0  0  0  0  0  0  0  0  0
  149.4509  135.7660  154.6480 N   0  3  2  0  0  0  0  0  0  0  0  0
  148.0780  135.9038  155.1971 C   0  0  0  0  0  0  0  0  0  0  0  0
  147.8946  135.0698  156.4795 C   0  0  0  0  0  0  0  0  0  0  0  0
  148.2486  133.7148  156.2294 O   0  0  0  0  0  0  0  0  0  0  0  0
  149.6097  133.5679  155.8373 C   0  0  1  0  0  0  0  0  0  0  0  0
  149.8995  132.0634  155.6727 C   0  0  0  0  0  0  0  0  0  0  0  0
  151.3499  131.7571  155.5688 N   0  3  0  0  0  0  0  0  0  0  0  0
  151.6394  130.3157  155.3870 C   0  0  0  0  0  0  0  0  0  0  0  0
  152.1178  132.3232  156.7003 C   0  0  0  0  0  0  0  0  0  0  0  0
  149.8170  134.3343  154.5129 C   0  0  0  0  0  0  0  0  0  0  0  0
  151.5486  140.6883  157.2953 C   0  0  0  0  0  0  0  0  0  0  0  0
  152.4339  140.1807  158.2440 C   0  0  0  0  0  0  0  0  0  0  0  0
  152.6752  140.9674  159.3932 C   0  0  0  0  0  0  0  0  0  0  0  0
  153.6371  140.4395  160.4440 C   0  0  0  0  0  0  0  0  0  0  0  0
  151.7352  143.9898  160.7901 H   0  0  0  0  0  0  0  0  0  0  0  0
  153.3613  143.3176  160.8745 H   0  0  0  0  0  0  0  0  0  0  0  0
  152.0216  142.5128  161.7064 H   0  0  0  0  0  0  0  0  0  0  0  0
  150.6525  143.6784  158.7214 H   0  0  0  0  0  0  0  0  0  0  0  0
  149.7043  140.9729  154.5634 H   0  0  0  0  0  0  0  0  0  0  0  0
  152.3785  139.0553  154.8696 H   0  0  0  0  0  0  0  0  0  0  0  0
  151.9631  138.3591  156.4126 H   0  0  0  0  0  0  0  0  0  0  0  0
  149.4660  138.5082  155.2033 H   0  0  0  0  0  0  0  0  0  0  0  0
  149.9219  137.5281  153.1215 H   0  0  0  0  0  0  0  0  0  0  0  0
  151.4774  136.2079  155.1034 H   0  0  0  0  0  0  0  0  0  0  0  0
  150.3714  136.4986  156.4159 H   0  0  0  0  0  0  0  0  0  0  0  0
  147.8283  136.9482  155.3805 H   0  0  0  0  0  0  0  0  0  0  0  0
  147.3752  135.5518  154.4407 H   0  0  0  0  0  0  0  0  0  0  0  0
  148.4878  135.4670  157.3039 H   0  0  0  0  0  0  0  0  0  0  0  0
  146.8532  135.1053  156.7996 H   0  0  0  0  0  0  0  0  0  0  0  0
  150.2618  133.9910  156.6017 H   0  0  0  0  0  0  0  0  0  0  0  0
  149.4821  131.5396  156.5343 H   0  0  0  0  0  0  0  0  0  0  0  0
  149.3846  131.6687  154.7956 H   0  0  0  0  0  0  0  0  0  0  0  0
  151.2696  129.7325  156.2314 H   0  0  0  0  0  0  0  0  0  0  0  0
  152.7142  130.1488  155.3068 H   0  0  0  0  0  0  0  0  0  0  0  0
  151.1870  129.9257  154.4762 H   0  0  0  0  0  0  0  0  0  0  0  0
  151.8054  131.8795  157.6466 H   0  0  0  0  0  0  0  0  0  0  0  0
  151.9763  133.4025  156.7649 H   0  0  0  0  0  0  0  0  0  0  0  0
  153.1855  132.1402  156.5734 H   0  0  0  0  0  0  0  0  0  0  0  0
  149.1868  133.8971  153.7369 H   0  0  0  0  0  0  0  0  0  0  0  0
  150.8442  134.2354  154.1598 H   0  0  0  0  0  0  0  0  0  0  0  0
  152.9235  139.2275  158.1151 H   0  0  0  0  0  0  0  0  0  0  0  0
  154.0500  139.4719  160.1573 H   0  0  0  0  0  0  0  0  0  0  0  0
  153.1285  140.3147  161.4002 H   0  0  0  0  0  0  0  0  0  0  0  0
  154.4707  141.1284  160.5818 H   0  0  0  0  0  0  0  0  0  0  0  0
  151.6870  132.2313  154.7427 H   0  0  0  0  0  0  0  0  0  0  0  0
  149.4213  136.1303  153.7055 H   0  0  0  0  0  0  0  0  0  0  0  0
  149.5198  142.9532  156.1853 H   0  0  0  0  0  0  0  0  0  0  0  0
  1  2  1  0  0  0  0
  1 26  1  0  0  0  0
  1 27  1  0  0  0  0
  1 28  1  0  0  0  0
  2 24  1  0  0  0  0
  2  3  2  0  0  0  0
  3  4  1  0  0  0  0
  3 29  1  0  0  0  0
  4 22  2  0  0  0  0
  4  5  1  0  0  0  0
  5  6  2  0  0  0  0
  5 58  1  0  0  0  0
  6  7  1  0  0  0  0
  6 30  1  0  0  0  0
  7  8  1  0  0  0  0
  7 22  1  0  0  0  0
  8  9  1  0  0  0  0
  8 31  1  0  0  0  0
  8 32  1  0  0  0  0
  9 10  1  0  0  0  0
  9 11  1  0  0  0  0
  9 33  1  0  0  0  0
 10 34  1  0  0  0  0
 11 12  1  0  0  0  0
 11 35  1  0  0  0  0
 11 36  1  0  0  0  0
 12 21  1  0  0  0  0
 12 13  1  0  0  0  0
 12 57  1  0  0  0  0
 13 14  1  0  0  0  0
 13 37  1  0  0  0  0
 13 38  1  0  0  0  0
 14 15  1  0  0  0  0
 14 39  1  0  0  0  0
 14 40  1  0  0  0  0
 15 16  1  0  0  0  0
 16 17  1  0  0  0  0
 16 21  1  0  0  0  0
 16 41  1  0  0  0  0
 17 18  1  0  0  0  0
 17 42  1  0  0  0  0
 17 43  1  0  0  0  0
 18 19  1  0  0  0  0
 18 20  1  0  0  0  0
 18 56  1  0  0  0  0
 19 44  1  0  0  0  0
 19 45  1  0  0  0  0
 19 46  1  0  0  0  0
 20 47  1  0  0  0  0
 20 48  1  0  0  0  0
 20 49  1  0  0  0  0
 21 50  1  0  0  0  0
 21 51  1  0  0  0  0
 22 23  1  0  0  0  0
 23 24  2  0  0  0  0
 23 52  1  0  0  0  0
 24 25  1  0  0  0  0
 25 53  1  0  0  0  0
 25 54  1  0  0  0  0
 25 55  1  0  0  0  0
M  CHG  1   5   1
M  CHG  1  12   1
M  CHG  1  18   1
M  END
> <s_m_source_file>
AV-unprocessed.smi

> <i_m_source_file_index>
1005

> <i_lp_mmshare_version>
43012

> <i_f3d_flags>
0

> <s_epik_input>
W0NIM11jKFtjSF0xKWMoW0NIM10pW2NIXWMoYzEyKW4oW2NIXW4yKVtDSDJdW0NASF0oW09IXSlbQ0gyXU4zW0NIMl1bQ0gyXU9bQ0BIXShbQ0gyXTMpW0NIMl1OKFtDSDNdKVtDSDNd

> <s_epik_cmdline>
J2VwaWtfcHl0aG9uJywgJy1waCcsICc3LjAnLCAnLXRuJywgJzgnLCAnLW1hJywgJzIwMCcsICctbWV0YWxfYmluZGluZycsICctaW1hZScsICc8aW5maWxlLm1hZT4nLCAnLW9tYWUnLCAnPG91dGZpbGUubWFlPic=

> <r_epik_Ionization_Penalty>
2.30802

> <r_epik_Ionization_Penalty_Charging>
2.30798

> <r_epik_Ionization_Penalty_Neutral>
3.4851e-05

> <r_epik_State_Penalty>
2.52618

> <r_epik_Charging_Adjusted_Penalty>
4.83416

> <i_epik_Tot_Q>
3

> <i_epik_Tot_abs_Q>
3

> <r_epik_Metal_State_Penalty>
6.53149

> <b_epik_Metal_Only>
0

> <s_lp_Force_Field>
OPLS_2005

> <r_lp_Energy>
46.6076

> <b_lp_Chiralities_Consistent>
1

> <s_lp_Variant>
AV-unprocessed.smi:1005-20

> <Gold.Version>
5.8.1

> <Gold.Id.Protein>
6NUR|6NUR_protein|mol2

> <Gold.PLP.Fitness>
57.8923

> <Gold.PLP.PLP>
-45.1483

> <Gold.PLP.part.hbond>
-4.7005

> <Gold.PLP.part.metal>
0.0000

> <Gold.PLP.part.buried>
-3.2192

> <Gold.PLP.part.nonpolar>
-36.4283

> <Gold.PLP.part.repulsive>
0.1880

> <Gold.PLP.ligand.clash>
0.0000

> <Gold.PLP.ligand.torsion>
1.2118

> <Gold.PLP.Chemscore.Hbond>
5.0000

> <Gold.PLP.Chemscore.CHOScore>
0.0000

> <Gold.PLP.Chemscore.Metal>
0.0000

> <Gold.Chemscore.Hbonds>
donor molecule, donor type, donor heavy atom, donor atom, acceptor molecule, acceptor atom, score
      L1  H     5    58       P1  8028  2.00
      L1  H    10    34       P1  7948  1.00
      L1  H    12    57       P1  7948  2.00

> <Gold.PLP.Chemscore.Internal.Correction>
0.1675

> <Gold.Rescore>
     Score         DG    S(hbond)    S(metal)    S(lipo)     H(rot)  DE(clash)    DE(int)     intcor
     19.91     -21.29       2.71        0.00     113.82       2.56       0.02       1.36       ----

> <Gold.Chemscore.Fitness>
19.9137

> <Gold.Chemscore.DG>
-21.2946

> <Gold.Chemscore.ZeroCoef>
-5.4800

> <Gold.Chemscore.Hbond>
2.7074

> <Gold.Chemscore.Metal>
0.0000

> <Gold.Chemscore.Lipo>
113.8208

> <Gold.Chemscore.Internal_Hbond>
0.0000

> <Gold.Chemscore.DEClash>
0.0207

> <Gold.Chemscore.DEInternal>
1.3602

> <Gold.Chemscore.Rot>
2.5566

> <Gold.Chemscore.Internal.Correction>
   9.000000E+99

> <Gold.Chemscore.Hbonds>
donor molecule, donor type, donor heavy atom, donor atom, acceptor molecule, acceptor atom, score
      L1  H     5    58       P1  8028  0.99
      L1  H    10    34       P1  7948  0.33
      L1  H    12    57       P1  7948  0.70

> <Gold.Chemscore.Hbond.Weighted>
-9.0426

> <Gold.Chemscore.Metal.Weighted>
-0.0000

> <Gold.Chemscore.Lipo.Weighted>
-13.3170

> <Gold.Chemscore.Internal_Hbond.Weighted>
0.0000

> <Gold.Chemscore.DEClash.Weighted>
0.0207

> <Gold.Chemscore.DEInternal.Weighted>
1.3602

> <Gold.Chemscore.Rot.Weighted>
6.5450

> <Gold.Chemscore.Internal.Correction.Weighted>
   9.000000E+99

> <Gold.Protein.RotatedTorsions>
[ 6907 6896 6895 6894 ] final -104.08 input  -60.11 | X-H torsion
[ 7974 7965 7964 7962 ] final   -3.84 input  175.53 | X-H torsion
[ 8008 7997 7996 7995 ] final  116.88 input   59.86 | X-H torsion
[ 10167 10162 10161 10158 ] final  -39.01 input  -65.29 | X-H torsion
[ 10718 10713 10712 10709 ] final  -20.93 input   66.30 | X-H torsion
[ 10763 10752 10751 10750 ] final -154.58 input  -60.55 | X-H torsion
[ 11005 11000 10999 10996 ] final  145.03 input  -57.11 | X-H torsion

> <Gold.Protein.ActiveResidues>
 VAL166  LYS551  ARG553  GLY616  TRP617  ASP618  TYR619  PRO620  LYS621  CYS622 
 ASP623  PHE694  ASN695  SER759  ASP760  ASP761  ALA762  ILE779  LEU786  VAL792 
 PHE793  MET794  SER795  GLU796  ALA797  LYS798  CYS799  TRP800  GLU811  SER814 

> <Gold.Protein.RotatedAtoms>
  150.7270  134.0332  159.3740 H   0  0  0  0  0  0  0  0  0  0  0  0  # atno 6907 bound_to 6896
  151.8302  135.0622  160.0445 H   0  0  0  0  0  0  0  0  0  0  0  0  # atno 6908 bound_to 6896
  152.2939  133.5552  159.5611 H   0  0  0  0  0  0  0  0  0  0  0  0  # atno 6909 bound_to 6896
  146.2383  140.1782  142.8332 H   0  0  0  0  0  0  0  0  0  0  0  0  # atno 7974 bound_to 7965
  156.2463  140.2908  156.0591 H   0  0  0  0  0  0  0  0  0  0  0  0  # atno 8008 bound_to 7997
  155.1796  140.0404  157.2896 H   0  0  0  0  0  0  0  0  0  0  0  0  # atno 8009 bound_to 7997
  154.6269  140.2490  155.7487 H   0  0  0  0  0  0  0  0  0  0  0  0  # atno 8010 bound_to 7997
  140.7076  143.3241  151.2721 H   0  0  0  0  0  0  0  0  0  0  0  0  # atno 10167 bound_to 10162
  156.5250  130.4641  149.6576 H   0  0  0  0  0  0  0  0  0  0  0  0  # atno 10718 bound_to 10713
  154.7848  135.3187  154.7910 H   0  0  0  0  0  0  0  0  0  0  0  0  # atno 10763 bound_to 10752
  153.8612  135.6853  153.4787 H   0  0  0  0  0  0  0  0  0  0  0  0  # atno 10764 bound_to 10752
  153.1496  135.4705  154.9556 H   0  0  0  0  0  0  0  0  0  0  0  0  # atno 10765 bound_to 10752
  140.0679  134.9168  157.1296 H   0  0  0  0  0  0  0  0  0  0  0  0  # atno 11005 bound_to 11000
  144.9956  140.8586  143.5313 LP  0  0  0  0  0  0  0  0  0  0  0  0  # atno 17320 bound_to 7965
  145.1794  139.2360  143.5300 LP  0  0  0  0  0  0  0  0  0  0  0  0  # atno 17321 bound_to 7965
  139.6704  144.0030  152.2749 LP  0  0  0  0  0  0  0  0  0  0  0  0  # atno 17342 bound_to 10162
  139.9627  144.6547  150.8064 LP  0  0  0  0  0  0  0  0  0  0  0  0  # atno 17343 bound_to 10162
  156.3113  130.7230  151.2124 LP  0  0  0  0  0  0  0  0  0  0  0  0  # atno 17370 bound_to 10713
  157.7431  131.0480  150.4975 LP  0  0  0  0  0  0  0  0  0  0  0  0  # atno 17371 bound_to 10713
  140.3671  134.2431  155.7181 LP  0  0  0  0  0  0  0  0  0  0  0  0  # atno 17394 bound_to 11000
  141.2000  133.7997  157.0509 LP  0  0  0  0  0  0  0  0  0  0  0  0  # atno 17395 bound_to 11000

$$$$
