AV-unprocessed.smi:1128|AV-procd|sdf|4845|dock10
  -GOLD-   22720 3413D 1   1.00000     0.00000
 Structure written by MMmdl.
 37 38  0  0  0  0  0  0  0  0  2 V2000
  146.6911  133.1496  154.2898 O   0  0  0  0  0  0  0  0  0  0  0  0
  147.4662  134.0162  153.8866 C   0  0  0  0  0  0  0  0  0  0  0  0
  147.1153  134.9560  152.9975 N   0  0  0  0  0  0  0  0  0  0  0  0
  145.7937  135.0907  152.3937 C   0  0  0  0  0  0  0  0  0  0  0  0
  145.1593  133.7276  152.0464 C   0  0  1  0  0  0  0  0  0  0  0  0
  143.7776  133.8771  151.3662 C   0  0  0  0  0  0  0  0  0  0  0  0
  143.2785  132.5778  150.7592 C   0  0  0  0  0  0  0  0  0  0  0  0
  144.0616  131.5048  150.5584 C   0  0  0  0  0  0  0  0  0  0  0  0
  145.5375  131.4734  150.9082 C   0  0  0  0  0  0  0  0  0  0  0  0
  146.1034  132.8813  151.1717 C   0  0  0  0  0  0  0  0  0  0  0  0
  148.7554  134.1585  154.2442 N   0  0  0  0  0  0  0  0  0  0  0  0
  149.5318  133.4033  155.1408 C   0  0  0  0  0  0  0  0  0  0  0  0
  150.0347  132.1623  154.8902 C   0  0  0  0  0  0  0  0  0  0  0  0
  150.8314  131.4309  155.8678 C   0  0  0  0  0  0  0  0  0  0  0  0
  151.3383  130.0158  155.6532 C   0  0  0  0  0  0  0  0  0  0  0  0
  152.6698  129.9875  155.5897 F   0  0  0  0  0  0  0  0  0  0  0  0
  150.9476  129.2126  156.6429 F   0  0  0  0  0  0  0  0  0  0  0  0
  150.8578  129.5303  154.5094 F   0  0  0  0  0  0  0  0  0  0  0  0
  150.9808  132.1290  157.0503 C   0  0  0  0  0  0  0  0  0  0  0  0
  150.5268  133.3589  157.3752 N   0  5  0  0  0  0  0  0  0  0  0  0
  149.7863  134.0354  156.4523 C   0  0  0  0  0  0  0  0  0  0  0  0
  149.3300  135.1547  156.6889 O   0  0  0  0  0  0  0  0  0  0  0  0
  147.8152  135.6264  152.7150 H   0  0  0  0  0  0  0  0  0  0  0  0
  145.1570  135.6287  153.0966 H   0  0  0  0  0  0  0  0  0  0  0  0
  145.8612  135.7170  151.5025 H   0  0  0  0  0  0  0  0  0  0  0  0
  145.0132  133.1795  152.9788 H   0  0  0  0  0  0  0  0  0  0  0  0
  143.0405  134.2284  152.0889 H   0  0  0  0  0  0  0  0  0  0  0  0
  143.8217  134.6218  150.5708 H   0  0  0  0  0  0  0  0  0  0  0  0
  142.2373  132.5426  150.4742 H   0  0  0  0  0  0  0  0  0  0  0  0
  143.6412  130.6032  150.1372 H   0  0  0  0  0  0  0  0  0  0  0  0
  145.6619  130.8453  151.7907 H   0  0  0  0  0  0  0  0  0  0  0  0
  146.0902  130.9970  150.0981 H   0  0  0  0  0  0  0  0  0  0  0  0
  146.2622  133.3910  150.2204 H   0  0  0  0  0  0  0  0  0  0  0  0
  147.0842  132.7954  151.6406 H   0  0  0  0  0  0  0  0  0  0  0  0
  149.2646  134.9005  153.7867 H   0  0  0  0  0  0  0  0  0  0  0  0
  149.8530  131.6670  153.9515 H   0  0  0  0  0  0  0  0  0  0  0  0
  151.5464  131.6196  157.8598 H   0  0  0  0  0  0  0  0  0  0  0  0
  1  2  2  0  0  0  0
  2  3  1  0  0  0  0
  2 11  1  0  0  0  0
  3  4  1  0  0  0  0
  3 23  1  0  0  0  0
  4  5  1  0  0  0  0
  4 24  1  0  0  0  0
  4 25  1  0  0  0  0
  5 10  1  0  0  0  0
  5  6  1  0  0  0  0
  5 26  1  0  0  0  0
  6  7  1  0  0  0  0
  6 27  1  0  0  0  0
  6 28  1  0  0  0  0
  7  8  2  0  0  0  0
  7 29  1  0  0  0  0
  8  9  1  0  0  0  0
  8 30  1  0  0  0  0
  9 10  1  0  0  0  0
  9 31  1  0  0  0  0
  9 32  1  0  0  0  0
 10 33  1  0  0  0  0
 10 34  1  0  0  0  0
 11 12  1  0  0  0  0
 11 35  1  0  0  0  0
 12 21  1  0  0  0  0
 12 13  2  0  0  0  0
 13 14  1  0  0  0  0
 13 36  1  0  0  0  0
 14 15  1  0  0  0  0
 14 19  2  0  0  0  0
 15 16  1  0  0  0  0
 15 17  1  0  0  0  0
 15 18  1  0  0  0  0
 19 20  1  0  0  0  0
 19 37  1  0  0  0  0
 20 21  1  0  0  0  0
 21 22  2  0  0  0  0
M  CHG  1  20  -1
M  END
> <s_m_source_file>
AV-unprocessed.smi

> <i_m_source_file_index>
1128

> <i_lp_mmshare_version>
43012

> <i_f3d_flags>
0

> <s_epik_input>
Tz1jMVtuSF1bY0hdYyhDKEYpKEYpRilbY0hdYzFbTkhdQyg9TylbTkhdW0NIMl1bQ0BASF0yW0NIMl1bQ0hdPVtDSF1bQ0gyXVtDSDJdMg==

> <s_epik_cmdline>
J2VwaWtfcHl0aG9uJywgJy1waCcsICc3LjAnLCAnLXRuJywgJzgnLCAnLW1hJywgJzIwMCcsICctbWV0YWxfYmluZGluZycsICctaW1hZScsICc8aW5maWxlLm1hZT4nLCAnLW9tYWUnLCAnPG91dGZpbGUubWFlPic=

> <r_lp_tautomer_probability>
1

> <r_epik_Ionization_Penalty>
3.16664

> <r_epik_Ionization_Penalty_Charging>
0.172425

> <r_epik_Ionization_Penalty_Neutral>
2.99422

> <r_epik_State_Penalty>
2.99038

> <r_epik_Charging_Adjusted_Penalty>
3.16281

> <i_epik_Tot_Q>
-1

> <i_epik_Tot_abs_Q>
1

> <r_epik_Metal_State_Penalty>
0.453031

> <b_epik_Metal_Only>
1

> <s_lp_Force_Field>
OPLS_2005

> <r_lp_Energy>
22.2299

> <b_lp_Chiralities_Consistent>
1

> <s_lp_Variant>
AV-unprocessed.smi:1128-4

> <Gold.Version>
5.8.1

> <Gold.Id.Protein>
6NUR|6NUR_protein|mol2

> <Gold.PLP.Fitness>
42.0797

> <Gold.PLP.PLP>
-35.1077

> <Gold.PLP.part.hbond>
-2.5314

> <Gold.PLP.part.metal>
0.0000

> <Gold.PLP.part.buried>
-3.7995

> <Gold.PLP.part.nonpolar>
-30.2554

> <Gold.PLP.part.repulsive>
0.0612

> <Gold.PLP.ligand.clash>
0.0000

> <Gold.PLP.ligand.torsion>
1.0473

> <Gold.PLP.Chemscore.Hbond>
3.0010

> <Gold.PLP.Chemscore.CHOScore>
0.0000

> <Gold.PLP.Chemscore.Metal>
0.0000

> <Gold.Chemscore.Hbonds>
donor molecule, donor type, donor heavy atom, donor atom, acceptor molecule, acceptor atom, score
      L1  H     3    23       P1  7948  1.00
      L1  H    11    35       P1  7948  0.18
      P1  H  6896  6907       L1    20  1.82

> <Gold.PLP.Chemscore.Internal.Correction>
0.0635

> <Gold.Rescore>
     Score         DG    S(hbond)    S(metal)    S(lipo)     H(rot)  DE(clash)    DE(int)     intcor
     15.02     -17.34       1.93        0.00      74.59       1.29       0.02       2.31       ----

> <Gold.Chemscore.Fitness>
15.0150

> <Gold.Chemscore.DG>
-17.3445

> <Gold.Chemscore.ZeroCoef>
-5.4800

> <Gold.Chemscore.Hbond>
1.9315

> <Gold.Chemscore.Metal>
0.0000

> <Gold.Chemscore.Lipo>
74.5861

> <Gold.Chemscore.Internal_Hbond>
0.0000

> <Gold.Chemscore.DEClash>
0.0242

> <Gold.Chemscore.DEInternal>
2.3053

> <Gold.Chemscore.Rot>
1.2943

> <Gold.Chemscore.Internal.Correction>
   9.000000E+99

> <Gold.Chemscore.Hbonds>
donor molecule, donor type, donor heavy atom, donor atom, acceptor molecule, acceptor atom, score
      L1  H     3    23       P1  7948  0.92
      L1  H    11    35       P1  7948  0.03
      P1  H  6896  6907       L1    20  0.27

> <Gold.Chemscore.Hbond.Weighted>
-6.4512

> <Gold.Chemscore.Metal.Weighted>
-0.0000

> <Gold.Chemscore.Lipo.Weighted>
-8.7266

> <Gold.Chemscore.Internal_Hbond.Weighted>
0.0000

> <Gold.Chemscore.DEClash.Weighted>
0.0242

> <Gold.Chemscore.DEInternal.Weighted>
2.3053

> <Gold.Chemscore.Rot.Weighted>
3.3133

> <Gold.Chemscore.Internal.Correction.Weighted>
   9.000000E+99

> <Gold.Protein.RotatedTorsions>
[ 6907 6896 6895 6894 ] final -146.37 input  -60.11 | X-H torsion
[ 7974 7965 7964 7962 ] final -170.84 input  175.53 | X-H torsion
[ 8008 7997 7996 7995 ] final  -76.17 input   59.86 | X-H torsion
[ 10167 10162 10161 10158 ] final   94.17 input  -65.29 | X-H torsion
[ 10718 10713 10712 10709 ] final   99.03 input   66.30 | X-H torsion
[ 10763 10752 10751 10750 ] final   65.90 input  -60.55 | X-H torsion
[ 11005 11000 10999 10996 ] final    4.92 input  -57.11 | X-H torsion

> <Gold.Protein.ActiveResidues>
 VAL166  LYS551  ARG553  GLY616  TRP617  ASP618  TYR619  PRO620  LYS621  CYS622 
 ASP623  PHE694  ASN695  SER759  ASP760  ASP761  ALA762  ILE779  LEU786  VAL792 
 PHE793  MET794  SER795  GLU796  ALA797  LYS798  CYS799  TRP800  GLU811  SER814 

> <Gold.Protein.RotatedAtoms>
  151.1407  133.4973  159.2596 H   0  0  0  0  0  0  0  0  0  0  0  0  # atno 6907 bound_to 6896
  151.1658  135.0294  159.8740 H   0  0  0  0  0  0  0  0  0  0  0  0  # atno 6908 bound_to 6896
  152.5462  134.1276  159.8479 H   0  0  0  0  0  0  0  0  0  0  0  0  # atno 6909 bound_to 6896
  144.7164  140.2012  143.6338 H   0  0  0  0  0  0  0  0  0  0  0  0  # atno 7974 bound_to 7965
  154.5482  140.0731  156.8623 H   0  0  0  0  0  0  0  0  0  0  0  0  # atno 8008 bound_to 7997
  155.3046  140.3386  155.4228 H   0  0  0  0  0  0  0  0  0  0  0  0  # atno 8009 bound_to 7997
  156.1937  140.1695  156.8027 H   0  0  0  0  0  0  0  0  0  0  0  0  # atno 8010 bound_to 7997
  139.8109  144.6774  150.9642 H   0  0  0  0  0  0  0  0  0  0  0  0  # atno 10167 bound_to 10162
  157.6884  131.0657  150.4886 H   0  0  0  0  0  0  0  0  0  0  0  0  # atno 10718 bound_to 10713
  153.0116  135.5340  154.6740 H   0  0  0  0  0  0  0  0  0  0  0  0  # atno 10763 bound_to 10752
  154.5917  135.2859  155.0630 H   0  0  0  0  0  0  0  0  0  0  0  0  # atno 10764 bound_to 10752
  154.1720  135.6530  153.5064 H   0  0  0  0  0  0  0  0  0  0  0  0  # atno 10765 bound_to 10752
  140.5765  134.0053  155.8030 H   0  0  0  0  0  0  0  0  0  0  0  0  # atno 11005 bound_to 11000
  145.8678  139.2256  143.1679 LP  0  0  0  0  0  0  0  0  0  0  0  0  # atno 17320 bound_to 7965
  146.0113  140.8432  142.9969 LP  0  0  0  0  0  0  0  0  0  0  0  0  # atno 17321 bound_to 7965
  140.7818  143.4186  151.0877 LP  0  0  0  0  0  0  0  0  0  0  0  0  # atno 17342 bound_to 10162
  139.7853  143.8297  152.3144 LP  0  0  0  0  0  0  0  0  0  0  0  0  # atno 17343 bound_to 10162
  156.5213  130.4162  149.6249 LP  0  0  0  0  0  0  0  0  0  0  0  0  # atno 17370 bound_to 10713
  156.3151  130.7250  151.2151 LP  0  0  0  0  0  0  0  0  0  0  0  0  # atno 17371 bound_to 10713
  141.1023  133.9749  157.3057 LP  0  0  0  0  0  0  0  0  0  0  0  0  # atno 17394 bound_to 11000
  139.9337  135.0198  156.8485 LP  0  0  0  0  0  0  0  0  0  0  0  0  # atno 17395 bound_to 11000

$$$$
