AV-unprocessed.smi:36|AV-procd|sdf|283|dock9
  -GOLD-   2262016 63D 1   1.00000     0.00000
 Structure written by MMmdl.
 64 67  0  0  0  0  0  0  0  0  1 V2000
  146.5127  134.0947  151.1903 C   0  0  0  0  0  0  0  0  0  0  0  0
  145.2380  134.3846  152.0001 C   0  0  0  0  0  0  0  0  0  0  0  0
  144.5316  135.6284  151.4356 C   0  0  0  0  0  0  0  0  0  0  0  0
  144.2897  133.1757  151.9342 C   0  0  0  0  0  0  0  0  0  0  0  0
  145.7042  134.7064  153.8244 Si  0  0  0  0  0  0  0  0  0  0  0  0
  146.7011  136.3152  153.9968 C   0  0  0  0  0  0  0  0  0  0  0  0
  144.1612  134.7850  154.9295 C   0  0  0  0  0  0  0  0  0  0  0  0
  146.6675  133.4176  154.3490 O   0  0  0  0  0  0  0  0  0  0  0  0
  146.8180  133.0484  155.7045 C   0  0  0  0  0  0  0  0  0  0  0  0
  148.1019  133.6831  156.2604 C   0  0  2  0  0  0  0  0  0  0  0  0
  148.6672  134.6112  155.3423 O   0  0  0  0  0  0  0  0  0  0  0  0
  150.0345  134.7578  155.5941 C   0  0  1  0  0  0  0  0  0  0  0  0
  150.2672  136.1150  156.1724 N   0  0  0  0  0  0  0  0  0  0  0  0
  149.8653  136.6254  157.3885 C   0  0  0  0  0  0  0  0  0  0  0  0
  150.2221  137.8606  157.6200 N   0  0  0  0  0  0  0  0  0  0  0  0
  150.9252  138.2277  156.4795 C   0  0  0  0  0  0  0  0  0  0  0  0
  151.5793  139.4174  156.0662 C   0  0  0  0  0  0  0  0  0  0  0  0
  151.5831  140.5054  156.8717 N   0  0  0  0  0  0  0  0  0  0  0  0
  152.4315  140.7689  158.0207 C   0  0  0  0  0  0  0  0  0  0  0  0
  153.2241  139.9328  158.4558 O   0  0  0  0  0  0  0  0  0  0  0  0
  152.2273  142.0915  158.7013 C   0  0  0  0  0  0  0  0  0  0  0  0
  152.6382  142.2678  160.0419 C   0  0  0  0  0  0  0  0  0  0  0  0
  152.4693  143.5113  160.6820 C   0  0  0  0  0  0  0  0  0  0  0  0
  151.8948  144.5908  159.9852 C   0  0  0  0  0  0  0  0  0  0  0  0
  151.4925  144.4274  158.6463 C   0  0  0  0  0  0  0  0  0  0  0  0
  151.6612  143.1848  158.0047 C   0  0  0  0  0  0  0  0  0  0  0  0
  152.1826  139.4082  154.8480 N   0  0  0  0  0  0  0  0  0  0  0  0
  152.1465  138.3104  154.0868 C   0  0  0  0  0  0  0  0  0  0  0  0
  151.5701  137.1343  154.3453 N   0  0  0  0  0  0  0  0  0  0  0  0
  150.9623  137.1380  155.5666 C   0  0  0  0  0  0  0  0  0  0  0  0
  150.4418  133.6803  156.6090 C   0  0  0  0  0  0  0  0  0  0  0  0
  149.2595  132.7311  156.5813 C   0  0  2  0  0  0  0  0  0  0  0  0
  149.4347  131.7442  155.5827 O   0  0  0  0  0  0  0  0  0  0  0  0
  146.2815  133.9086  150.1410 H   0  0  0  0  0  0  0  0  0  0  0  0
  147.0346  133.2166  151.5714 H   0  0  0  0  0  0  0  0  0  0  0  0
  147.2078  134.9336  151.2297 H   0  0  0  0  0  0  0  0  0  0  0  0
  145.1839  136.5017  151.4593 H   0  0  0  0  0  0  0  0  0  0  0  0
  143.6370  135.8706  152.0101 H   0  0  0  0  0  0  0  0  0  0  0  0
  144.2267  135.4757  150.3997 H   0  0  0  0  0  0  0  0  0  0  0  0
  143.9819  132.9684  150.9089 H   0  0  0  0  0  0  0  0  0  0  0  0
  143.3865  133.3487  152.5204 H   0  0  0  0  0  0  0  0  0  0  0  0
  144.7653  132.2747  152.3225 H   0  0  0  0  0  0  0  0  0  0  0  0
  146.1331  137.1766  153.6465 H   0  0  0  0  0  0  0  0  0  0  0  0
  147.6244  136.2791  153.4193 H   0  0  0  0  0  0  0  0  0  0  0  0
  146.9730  136.5102  155.0336 H   0  0  0  0  0  0  0  0  0  0  0  0
  143.4934  135.5917  154.6288 H   0  0  0  0  0  0  0  0  0  0  0  0
  144.4267  134.9556  155.9725 H   0  0  0  0  0  0  0  0  0  0  0  0
  143.5904  133.8577  154.8890 H   0  0  0  0  0  0  0  0  0  0  0  0
  145.9440  133.3336  156.2908 H   0  0  0  0  0  0  0  0  0  0  0  0
  146.8895  131.9619  155.7551 H   0  0  0  0  0  0  0  0  0  0  0  0
  147.8531  134.2403  157.1651 H   0  0  0  0  0  0  0  0  0  0  0  0
  150.6022  134.7350  154.6632 H   0  0  0  0  0  0  0  0  0  0  0  0
  149.2929  136.0544  158.1047 H   0  0  0  0  0  0  0  0  0  0  0  0
  150.9354  141.2393  156.6246 H   0  0  0  0  0  0  0  0  0  0  0  0
  153.0828  141.4496  160.5903 H   0  0  0  0  0  0  0  0  0  0  0  0
  152.7826  143.6364  161.7081 H   0  0  0  0  0  0  0  0  0  0  0  0
  151.7666  145.5444  160.4758 H   0  0  0  0  0  0  0  0  0  0  0  0
  151.0573  145.2570  158.1087 H   0  0  0  0  0  0  0  0  0  0  0  0
  151.3551  143.0856  156.9733 H   0  0  0  0  0  0  0  0  0  0  0  0
  152.6502  138.3856  153.1344 H   0  0  0  0  0  0  0  0  0  0  0  0
  151.3926  133.2200  156.3379 H   0  0  0  0  0  0  0  0  0  0  0  0
  150.5403  134.1237  157.6014 H   0  0  0  0  0  0  0  0  0  0  0  0
  149.1167  132.2304  157.5394 H   0  0  0  0  0  0  0  0  0  0  0  0
  148.8977  130.9978  155.8016 H   0  0  0  0  0  0  0  0  0  0  0  0
  1  2  1  0  0  0  0
  1 34  1  0  0  0  0
  1 35  1  0  0  0  0
  1 36  1  0  0  0  0
  2  3  1  0  0  0  0
  2  4  1  0  0  0  0
  2  5  1  0  0  0  0
  3 37  1  0  0  0  0
  3 38  1  0  0  0  0
  3 39  1  0  0  0  0
  4 40  1  0  0  0  0
  4 41  1  0  0  0  0
  4 42  1  0  0  0  0
  5  6  1  0  0  0  0
  5  7  1  0  0  0  0
  5  8  1  0  0  0  0
  6 43  1  0  0  0  0
  6 44  1  0  0  0  0
  6 45  1  0  0  0  0
  7 46  1  0  0  0  0
  7 47  1  0  0  0  0
  7 48  1  0  0  0  0
  8  9  1  0  0  0  0
  9 10  1  0  0  0  0
  9 49  1  0  0  0  0
  9 50  1  0  0  0  0
 10 32  1  0  0  0  0
 10 11  1  0  0  0  0
 10 51  1  0  0  0  0
 11 12  1  0  0  0  0
 12 13  1  0  0  0  0
 12 31  1  0  0  0  0
 12 52  1  0  0  0  0
 13 30  1  0  0  0  0
 13 14  1  0  0  0  0
 14 15  2  0  0  0  0
 14 53  1  0  0  0  0
 15 16  1  0  0  0  0
 16 30  2  0  0  0  0
 16 17  1  0  0  0  0
 17 18  1  0  0  0  0
 17 27  2  0  0  0  0
 18 19  1  0  0  0  0
 18 54  1  0  0  0  0
 19 20  2  0  0  0  0
 19 21  1  0  0  0  0
 21 26  1  0  0  0  0
 21 22  2  0  0  0  0
 22 23  1  0  0  0  0
 22 55  1  0  0  0  0
 23 24  2  0  0  0  0
 23 56  1  0  0  0  0
 24 25  1  0  0  0  0
 24 57  1  0  0  0  0
 25 26  2  0  0  0  0
 25 58  1  0  0  0  0
 26 59  1  0  0  0  0
 27 28  1  0  0  0  0
 28 29  2  0  0  0  0
 28 60  1  0  0  0  0
 29 30  1  0  0  0  0
 31 32  1  0  0  0  0
 31 61  1  0  0  0  0
 31 62  1  0  0  0  0
 32 33  1  0  0  0  0
 32 63  1  0  0  0  0
 33 64  1  0  0  0  0
M  END
> <s_m_source_file>
AV-unprocessed.smi

> <i_m_source_file_index>
36

> <i_lp_mmshare_version>
43012

> <i_f3d_flags>
0

> <s_epik_input>
W0NIM11DKFtDSDNdKShbQ0gzXSlbU2ldKFtDSDNdKShbQ0gzXSlPW0NIMl1bQ0BASF0xT1tDQEhdKFtDSDJdW0NASF0xW09IXSluKFtjSF1uMiljKGMyMyluW2NIXW5jM1tOSF1DKD1PKWM0W2NIXVtjSF1bY0hdW2NIXVtjSF00

> <s_epik_cmdline>
J2VwaWtfcHl0aG9uJywgJy1waCcsICc3LjAnLCAnLXRuJywgJzgnLCAnLW1hJywgJzIwMCcsICctbWV0YWxfYmluZGluZycsICctaW1hZScsICc8aW5maWxlLm1hZT4nLCAnLW9tYWUnLCAnPG91dGZpbGUubWFlPic=

> <r_lp_tautomer_probability>
1

> <r_epik_Ionization_Penalty>
0.00150433

> <r_epik_Ionization_Penalty_Charging>
0

> <r_epik_Ionization_Penalty_Neutral>
0.00150433

> <r_epik_State_Penalty>
0.00724046

> <r_epik_Charging_Adjusted_Penalty>
0.00724046

> <i_epik_Tot_Q>
0

> <i_epik_Tot_abs_Q>
0

> <r_epik_Metal_State_Penalty>
0.323355

> <b_epik_Metal_Only>
0

> <s_epik_Chemistry_Notes>
This compound contains an acetal/aminal-like group ( X-CH(R)-Y where X, Y are N, S, or O) that may be acid/base labile, releasing an aldehyde.

> <s_lp_Force_Field>
OPLS_2005

> <r_lp_Energy>
37.4738

> <b_lp_Chiralities_Consistent>
1

> <s_lp_Variant>
AV-unprocessed.smi:36-5

> <Gold.Version>
5.8.1

> <Gold.Id.Protein>
6NUR|6NUR_protein|mol2

> <Gold.PLP.Fitness>
48.9794

> <Gold.PLP.PLP>
-45.4964

> <Gold.PLP.part.hbond>
-3.0000

> <Gold.PLP.part.metal>
0.0000

> <Gold.PLP.part.buried>
-7.7614

> <Gold.PLP.part.nonpolar>
-34.5572

> <Gold.PLP.part.repulsive>
0.5138

> <Gold.PLP.ligand.clash>
0.0000

> <Gold.PLP.ligand.torsion>
2.5176

> <Gold.PLP.Chemscore.Hbond>
2.8112

> <Gold.PLP.Chemscore.CHOScore>
0.0000

> <Gold.PLP.Chemscore.Metal>
0.0000

> <Gold.Chemscore.Hbonds>
donor molecule, donor type, donor heavy atom, donor atom, acceptor molecule, acceptor atom, score
      P1  H  7989  7998       L1    27  0.80
      P1  H  7997  8008       L1    20  1.00
      P1  H 10752 10765       L1    29  1.00

> <Gold.PLP.Chemscore.Internal.Correction>
0.0847

> <Gold.Rescore>
     Score         DG    S(hbond)    S(metal)    S(lipo)     H(rot)  DE(clash)    DE(int)     intcor
     13.00     -16.78       1.78        0.00     105.02       2.70       0.47       3.31       ----

> <Gold.Chemscore.Fitness>
13.0043

> <Gold.Chemscore.DG>
-16.7760

> <Gold.Chemscore.ZeroCoef>
-5.4800

> <Gold.Chemscore.Hbond>
1.7758

> <Gold.Chemscore.Metal>
0.0000

> <Gold.Chemscore.Lipo>
105.0200

> <Gold.Chemscore.Internal_Hbond>
0.0000

> <Gold.Chemscore.DEClash>
0.4656

> <Gold.Chemscore.DEInternal>
3.3060

> <Gold.Chemscore.Rot>
2.7041

> <Gold.Chemscore.Internal.Correction>
   9.000000E+99

> <Gold.Chemscore.Hbonds>
donor molecule, donor type, donor heavy atom, donor atom, acceptor molecule, acceptor atom, score
      P1  H  7989  7998       L1    27  0.22
      P1  H  7997  8008       L1    20  0.37
      P1  H 10752 10765       L1    29  0.49

> <Gold.Chemscore.Hbond.Weighted>
-5.9311

> <Gold.Chemscore.Metal.Weighted>
-0.0000

> <Gold.Chemscore.Lipo.Weighted>
-12.2873

> <Gold.Chemscore.Internal_Hbond.Weighted>
0.0000

> <Gold.Chemscore.DEClash.Weighted>
0.4656

> <Gold.Chemscore.DEInternal.Weighted>
3.3060

> <Gold.Chemscore.Rot.Weighted>
6.9225

> <Gold.Chemscore.Internal.Correction.Weighted>
   9.000000E+99

> <Gold.Protein.RotatedTorsions>
[ 6907 6896 6895 6894 ] final  -32.27 input  -60.11 | X-H torsion
[ 7974 7965 7964 7962 ] final -148.60 input  175.53 | X-H torsion
[ 8008 7997 7996 7995 ] final  -97.56 input   59.86 | X-H torsion
[ 10167 10162 10161 10158 ] final  148.37 input  -65.29 | X-H torsion
[ 10718 10713 10712 10709 ] final -101.74 input   66.30 | X-H torsion
[ 10763 10752 10751 10750 ] final  162.61 input  -60.55 | X-H torsion
[ 11005 11000 10999 10996 ] final   71.31 input  -57.11 | X-H torsion

> <Gold.Protein.ActiveResidues>
 VAL166  LYS551  ARG553  GLY616  TRP617  ASP618  TYR619  PRO620  LYS621  CYS622 
 ASP623  PHE694  ASN695  SER759  ASP760  ASP761  ALA762  ILE779  LEU786  VAL792 
 PHE793  MET794  SER795  GLU796  ALA797  LYS798  CYS799  TRP800  GLU811  SER814 

> <Gold.Protein.RotatedAtoms>
  151.0810  134.9858  159.8355 H   0  0  0  0  0  0  0  0  0  0  0  0  # atno 6907 bound_to 6896
  152.5419  134.2182  159.8787 H   0  0  0  0  0  0  0  0  0  0  0  0  # atno 6908 bound_to 6896
  151.2212  133.4457  159.2634 H   0  0  0  0  0  0  0  0  0  0  0  0  # atno 6909 bound_to 6896
  144.8019  140.5175  143.5701 H   0  0  0  0  0  0  0  0  0  0  0  0  # atno 7974 bound_to 7965
  154.7893  140.0462  157.1189 H   0  0  0  0  0  0  0  0  0  0  0  0  # atno 8008 bound_to 7997
  154.9610  140.3077  155.5011 H   0  0  0  0  0  0  0  0  0  0  0  0  # atno 8009 bound_to 7997
  156.2947  140.2270  156.4695 H   0  0  0  0  0  0  0  0  0  0  0  0  # atno 8010 bound_to 7997
  139.4876  144.5684  151.7101 H   0  0  0  0  0  0  0  0  0  0  0  0  # atno 10167 bound_to 10162
  156.0205  130.5387  150.7007 H   0  0  0  0  0  0  0  0  0  0  0  0  # atno 10718 bound_to 10713
  154.2810  135.2763  155.2697 H   0  0  0  0  0  0  0  0  0  0  0  0  # atno 10763 bound_to 10752
  154.5218  135.5754  153.6690 H   0  0  0  0  0  0  0  0  0  0  0  0  # atno 10764 bound_to 10752
  152.9929  135.6206  154.2969 H   0  0  0  0  0  0  0  0  0  0  0  0  # atno 10765 bound_to 10752
  139.9550  134.7159  156.0773 H   0  0  0  0  0  0  0  0  0  0  0  0  # atno 11005 bound_to 11000
  145.5532  139.1477  143.3382 LP  0  0  0  0  0  0  0  0  0  0  0  0  # atno 17320 bound_to 7965
  146.2302  140.5670  142.8978 LP  0  0  0  0  0  0  0  0  0  0  0  0  # atno 17321 bound_to 7965
  140.5267  144.0795  150.6040 LP  0  0  0  0  0  0  0  0  0  0  0  0  # atno 17342 bound_to 10162
  140.3771  143.2823  152.0213 LP  0  0  0  0  0  0  0  0  0  0  0  0  # atno 17343 bound_to 10162
  157.4668  131.0889  151.0686 LP  0  0  0  0  0  0  0  0  0  0  0  0  # atno 17370 bound_to 10713
  157.1158  130.6041  149.5493 LP  0  0  0  0  0  0  0  0  0  0  0  0  # atno 17371 bound_to 10713
  141.1220  133.6610  156.3240 LP  0  0  0  0  0  0  0  0  0  0  0  0  # atno 17394 bound_to 11000
  140.5630  134.5916  157.5438 LP  0  0  0  0  0  0  0  0  0  0  0  0  # atno 17395 bound_to 11000

$$$$
