AV-unprocessed.smi:2664|AV-procd|sdf|10329|dock5
  -GOLD-   2272014343D 1   1.00000     0.00000
 Structure written by MMmdl.
 44 45  0  0  0  0  0  0  0  0  2 V2000
  144.4190  136.4981  152.5670 O   0  0  0  0  0  0  0  0  0  0  0  0
  145.6244  136.3950  152.3429 C   0  0  0  0  0  0  0  0  0  0  0  0
  146.2133  135.3477  151.7399 N   0  0  0  0  0  0  0  0  0  0  0  0
  145.6212  134.1381  151.2844 C   0  0  0  0  0  0  0  0  0  0  0  0
  146.4685  133.1857  150.6755 C   0  0  0  0  0  0  0  0  0  0  0  0
  145.9306  131.9633  150.2239 C   0  0  0  0  0  0  0  0  0  0  0  0
  144.6145  131.7078  150.3839 N   0  3  0  0  0  0  0  0  0  0  0  0
  143.7679  132.5803  150.9714 C   0  0  0  0  0  0  0  0  0  0  0  0
  144.2483  133.8187  151.4439 C   0  0  0  0  0  0  0  0  0  0  0  0
  146.5248  137.3386  152.6585 N   0  0  0  0  0  0  0  0  0  0  0  0
  146.2425  138.6102  153.3311 C   0  0  1  0  0  0  0  0  0  0  0  0
  145.5972  138.3166  154.7095 C   0  0  0  0  0  0  0  0  0  0  0  0
  144.8691  139.5086  155.3596 C   0  0  0  0  0  0  0  0  0  0  0  0
  143.5978  139.6935  154.7739 O   0  0  0  0  0  0  0  0  0  0  0  0
  147.5397  139.4658  153.4217 C   0  0  0  0  0  0  0  0  0  0  0  0
  148.6446  138.7796  154.2631 C   0  0  0  0  0  0  0  0  0  0  0  0
  149.9209  139.6307  154.3621 C   0  0  0  0  0  0  0  0  0  0  0  0
  149.6234  141.0244  154.9279 C   0  0  0  0  0  0  0  0  0  0  0  0
  148.5508  141.7290  154.0888 C   0  0  0  0  0  0  0  0  0  0  0  0
  147.2714  140.8826  153.9933 C   0  0  0  0  0  0  0  0  0  0  0  0
  147.1987  135.4479  151.5450 H   0  0  0  0  0  0  0  0  0  0  0  0
  147.5221  133.3890  150.5485 H   0  0  0  0  0  0  0  0  0  0  0  0
  146.5099  131.1875  149.7447 H   0  0  0  0  0  0  0  0  0  0  0  0
  142.7387  132.2618  151.0520 H   0  0  0  0  0  0  0  0  0  0  0  0
  143.5569  134.4906  151.9287 H   0  0  0  0  0  0  0  0  0  0  0  0
  147.4911  137.1641  152.4244 H   0  0  0  0  0  0  0  0  0  0  0  0
  145.5198  139.1817  152.7462 H   0  0  0  0  0  0  0  0  0  0  0  0
  144.8902  137.4931  154.6025 H   0  0  0  0  0  0  0  0  0  0  0  0
  146.3518  137.9729  155.4155 H   0  0  0  0  0  0  0  0  0  0  0  0
  144.7602  139.3780  156.4362 H   0  0  0  0  0  0  0  0  0  0  0  0
  145.4485  140.4202  155.2118 H   0  0  0  0  0  0  0  0  0  0  0  0
  143.7054  140.1626  153.9605 H   0  0  0  0  0  0  0  0  0  0  0  0
  147.9258  139.5901  152.4086 H   0  0  0  0  0  0  0  0  0  0  0  0
  148.2676  138.5716  155.2654 H   0  0  0  0  0  0  0  0  0  0  0  0
  148.9220  137.8195  153.8316 H   0  0  0  0  0  0  0  0  0  0  0  0
  150.6557  139.1253  154.9896 H   0  0  0  0  0  0  0  0  0  0  0  0
  150.3727  139.7263  153.3741 H   0  0  0  0  0  0  0  0  0  0  0  0
  149.2862  140.9388  155.9617 H   0  0  0  0  0  0  0  0  0  0  0  0
  150.5353  141.6220  154.9461 H   0  0  0  0  0  0  0  0  0  0  0  0
  148.3206  142.7022  154.5234 H   0  0  0  0  0  0  0  0  0  0  0  0
  148.9373  141.9213  153.0872 H   0  0  0  0  0  0  0  0  0  0  0  0
  146.5557  141.4226  153.3739 H   0  0  0  0  0  0  0  0  0  0  0  0
  146.8176  140.7982  154.9819 H   0  0  0  0  0  0  0  0  0  0  0  0
  144.2451  130.8166  150.0514 H   0  0  0  0  0  0  0  0  0  0  0  0
  1  2  2  0  0  0  0
  2  3  1  0  0  0  0
  2 10  1  0  0  0  0
  3  4  1  0  0  0  0
  3 21  1  0  0  0  0
  4  9  1  0  0  0  0
  4  5  2  0  0  0  0
  5  6  1  0  0  0  0
  5 22  1  0  0  0  0
  6  7  2  0  0  0  0
  6 23  1  0  0  0  0
  7  8  1  0  0  0  0
  7 44  1  0  0  0  0
  8  9  2  0  0  0  0
  8 24  1  0  0  0  0
  9 25  1  0  0  0  0
 10 11  1  0  0  0  0
 10 26  1  0  0  0  0
 11 12  1  0  0  0  0
 11 15  1  0  0  0  0
 11 27  1  0  0  0  0
 12 13  1  0  0  0  0
 12 28  1  0  0  0  0
 12 29  1  0  0  0  0
 13 14  1  0  0  0  0
 13 30  1  0  0  0  0
 13 31  1  0  0  0  0
 14 32  1  0  0  0  0
 15 20  1  0  0  0  0
 15 16  1  0  0  0  0
 15 33  1  0  0  0  0
 16 17  1  0  0  0  0
 16 34  1  0  0  0  0
 16 35  1  0  0  0  0
 17 18  1  0  0  0  0
 17 36  1  0  0  0  0
 17 37  1  0  0  0  0
 18 19  1  0  0  0  0
 18 38  1  0  0  0  0
 18 39  1  0  0  0  0
 19 20  1  0  0  0  0
 19 40  1  0  0  0  0
 19 41  1  0  0  0  0
 20 42  1  0  0  0  0
 20 43  1  0  0  0  0
M  CHG  1   7   1
M  END
> <s_m_source_file>
AV-unprocessed.smi

> <i_m_source_file_index>
2664

> <i_lp_mmshare_version>
43012

> <i_f3d_flags>
0

> <s_epik_input>
W2NIXTFbY0hdbltjSF1bY0hdYzFbTkhdQyg9TylbTkhdW0NASF0oW0NIMl1bQ0gyXVtPSF0pW0NIXTJbQ0gyXVtDSDJdW0NIMl1bQ0gyXVtDSDJdMg==

> <s_epik_cmdline>
J2VwaWtfcHl0aG9uJywgJy1waCcsICc3LjAnLCAnLXRuJywgJzgnLCAnLW1hJywgJzIwMCcsICctbWV0YWxfYmluZGluZycsICctaW1hZScsICc8aW5maWxlLm1hZT4nLCAnLW9tYWUnLCAnPG91dGZpbGUubWFlPic=

> <r_epik_Ionization_Penalty>
1.0085

> <r_epik_Ionization_Penalty_Charging>
1.00848

> <r_epik_Ionization_Penalty_Neutral>
2.14516e-05

> <r_epik_State_Penalty>
1.05769

> <r_epik_Charging_Adjusted_Penalty>
2.06617

> <i_epik_Tot_Q>
1

> <i_epik_Tot_abs_Q>
1

> <r_epik_Metal_State_Penalty>
1.15842

> <b_epik_Metal_Only>
0

> <s_lp_Force_Field>
OPLS_2005

> <r_lp_Energy>
27.8621

> <b_lp_Chiralities_Consistent>
1

> <s_lp_Variant>
AV-unprocessed.smi:2664-4

> <Gold.Version>
5.8.1

> <Gold.Id.Protein>
6NUR|6NUR_protein|mol2

> <Gold.PLP.Fitness>
43.4151

> <Gold.PLP.PLP>
-34.8112

> <Gold.PLP.part.hbond>
-3.0000

> <Gold.PLP.part.metal>
0.0000

> <Gold.PLP.part.buried>
-3.6077

> <Gold.PLP.part.nonpolar>
-28.0971

> <Gold.PLP.part.repulsive>
0.3520

> <Gold.PLP.ligand.clash>
0.0000

> <Gold.PLP.ligand.torsion>
0.2247

> <Gold.PLP.Chemscore.Hbond>
3.0000

> <Gold.PLP.Chemscore.CHOScore>
0.0000

> <Gold.PLP.Chemscore.Metal>
0.0000

> <Gold.Chemscore.Hbonds>
donor molecule, donor type, donor heavy atom, donor atom, acceptor molecule, acceptor atom, score
      L1  H     3    21       P1  7948  1.00
      L1  H    10    26       P1  7948  1.00
      L1  H    14    32       P1 10175  0.89

> <Gold.PLP.Chemscore.Internal.Correction>
0.0532

> <Gold.Rescore>
     Score         DG    S(hbond)    S(metal)    S(lipo)     H(rot)  DE(clash)    DE(int)     intcor
     18.08     -19.47       2.95        0.00      85.07       2.27       0.07       1.32       ----

> <Gold.Chemscore.Fitness>
18.0757

> <Gold.Chemscore.DG>
-19.4680

> <Gold.Chemscore.ZeroCoef>
-5.4800

> <Gold.Chemscore.Hbond>
2.9502

> <Gold.Chemscore.Metal>
0.0000

> <Gold.Chemscore.Lipo>
85.0732

> <Gold.Chemscore.Internal_Hbond>
0.0000

> <Gold.Chemscore.DEClash>
0.0700

> <Gold.Chemscore.DEInternal>
1.3222

> <Gold.Chemscore.Rot>
2.2731

> <Gold.Chemscore.Internal.Correction>
   9.000000E+99

> <Gold.Chemscore.Hbonds>
donor molecule, donor type, donor heavy atom, donor atom, acceptor molecule, acceptor atom, score
      L1  H     3    21       P1  7948  0.95
      L1  H    10    26       P1  7948  0.99
      L1  H    14    32       P1 10175  0.87

> <Gold.Chemscore.Hbond.Weighted>
-9.8537

> <Gold.Chemscore.Metal.Weighted>
-0.0000

> <Gold.Chemscore.Lipo.Weighted>
-9.9536

> <Gold.Chemscore.Internal_Hbond.Weighted>
0.0000

> <Gold.Chemscore.DEClash.Weighted>
0.0700

> <Gold.Chemscore.DEInternal.Weighted>
1.3222

> <Gold.Chemscore.Rot.Weighted>
5.8192

> <Gold.Chemscore.Internal.Correction.Weighted>
   9.000000E+99

> <Gold.Protein.RotatedTorsions>
[ 6907 6896 6895 6894 ] final  -21.00 input  -60.11 | X-H torsion
[ 7974 7965 7964 7962 ] final   37.08 input  175.53 | X-H torsion
[ 8008 7997 7996 7995 ] final   10.50 input   59.86 | X-H torsion
[ 10167 10162 10161 10158 ] final -105.95 input  -65.29 | X-H torsion
[ 10718 10713 10712 10709 ] final -123.79 input   66.30 | X-H torsion
[ 10763 10752 10751 10750 ] final -136.20 input  -60.55 | X-H torsion
[ 11005 11000 10999 10996 ] final  163.60 input  -57.11 | X-H torsion

> <Gold.Protein.ActiveResidues>
 VAL166  LYS551  ARG553  GLY616  TRP617  ASP618  TYR619  PRO620  LYS621  CYS622 
 ASP623  PHE694  ASN695  SER759  ASP760  ASP761  ALA762  ILE779  LEU786  VAL792 
 PHE793  MET794  SER795  GLU796  ALA797  LYS798  CYS799  TRP800  GLU811  SER814 

> <Gold.Protein.RotatedAtoms>
  151.2398  135.0585  159.9020 H   0  0  0  0  0  0  0  0  0  0  0  0  # atno 6907 bound_to 6896
  152.5394  134.0446  159.8093 H   0  0  0  0  0  0  0  0  0  0  0  0  # atno 6908 bound_to 6896
  151.0638  133.5473  159.2663 H   0  0  0  0  0  0  0  0  0  0  0  0  # atno 6909 bound_to 6896
  146.1164  139.5938  142.9319 H   0  0  0  0  0  0  0  0  0  0  0  0  # atno 7974 bound_to 7965
  154.7943  140.2841  155.5968 H   0  0  0  0  0  0  0  0  0  0  0  0  # atno 8008 bound_to 7997
  156.2969  140.2599  156.2726 H   0  0  0  0  0  0  0  0  0  0  0  0  # atno 8009 bound_to 7997
  154.9633  140.0377  157.2190 H   0  0  0  0  0  0  0  0  0  0  0  0  # atno 8010 bound_to 7997
  140.1930  143.3877  152.1191 H   0  0  0  0  0  0  0  0  0  0  0  0  # atno 10167 bound_to 10162
  156.1532  130.6549  150.9944 H   0  0  0  0  0  0  0  0  0  0  0  0  # atno 10718 bound_to 10713
  154.8688  135.3680  154.5022 H   0  0  0  0  0  0  0  0  0  0  0  0  # atno 10763 bound_to 10752
  153.5662  135.7022  153.5530 H   0  0  0  0  0  0  0  0  0  0  0  0  # atno 10764 bound_to 10752
  153.3583  135.4053  155.1662 H   0  0  0  0  0  0  0  0  0  0  0  0  # atno 10765 bound_to 10752
  140.2374  134.8077  157.3377 H   0  0  0  0  0  0  0  0  0  0  0  0  # atno 11005 bound_to 11000
  145.5558  141.0409  143.2253 LP  0  0  0  0  0  0  0  0  0  0  0  0  # atno 17320 bound_to 7965
  144.7557  139.7082  143.7255 LP  0  0  0  0  0  0  0  0  0  0  0  0  # atno 17321 bound_to 7965
  139.5248  144.7088  151.5271 LP  0  0  0  0  0  0  0  0  0  0  0  0  # atno 17342 bound_to 10162
  140.6443  143.8827  150.6721 LP  0  0  0  0  0  0  0  0  0  0  0  0  # atno 17343 bound_to 10162
  157.6674  131.0869  150.7696 LP  0  0  0  0  0  0  0  0  0  0  0  0  # atno 17370 bound_to 10713
  156.7763  130.4845  149.5409 LP  0  0  0  0  0  0  0  0  0  0  0  0  # atno 17371 bound_to 10713
  140.1688  134.4635  155.7845 LP  0  0  0  0  0  0  0  0  0  0  0  0  # atno 17394 bound_to 11000
  141.2213  133.6932  156.7671 LP  0  0  0  0  0  0  0  0  0  0  0  0  # atno 17395 bound_to 11000

$$$$
