AV-unprocessed.smi:2477|AV-procd|sdf|9760|dock3
  -GOLD-   2272013403D 1   1.00000     0.00000
 Structure written by MMmdl.
 51 53  0  0  0  0  0  0  0  0  1 V2000
  144.1176  136.5028  162.6585 C   0  0  0  0  0  0  0  0  0  0  0  0
  145.3881  135.9510  162.1806 N   0  0  0  0  0  0  0  0  0  0  0  0
  145.7337  134.6558  162.6017 C   0  0  0  0  0  0  0  0  0  0  0  0
  146.8762  134.0720  162.2144 C   0  0  0  0  0  0  0  0  0  0  0  0
  147.7613  134.8069  161.3430 C   0  0  0  0  0  0  0  0  0  0  0  0
  147.4431  136.0555  160.9170 C   0  0  0  0  0  0  0  0  0  0  0  0
  148.2498  136.8423  160.0763 N   0  0  0  0  0  0  0  0  0  0  0  0
  149.0093  136.4691  159.0298 C   0  0  0  0  0  0  0  0  0  0  0  0
  149.1107  135.3268  158.5831 O   0  0  0  0  0  0  0  0  0  0  0  0
  149.6513  137.5225  158.5055 N   0  0  0  0  0  0  0  0  0  0  0  0
  150.5624  137.4749  157.3641 C   0  0  1  0  0  0  0  0  0  0  0  0
  149.7628  137.5551  156.0494 C   0  0  0  0  0  0  0  0  0  0  0  0
  150.6912  137.5245  154.8250 C   0  0  0  0  0  0  0  0  0  0  0  0
  151.7490  138.6364  154.8980 C   0  0  0  0  0  0  0  0  0  0  0  0
  152.5463  138.5612  156.2104 C   0  0  0  0  0  0  0  0  0  0  0  0
  151.6222  138.5983  157.4462 C   0  0  1  0  0  0  0  0  0  0  0  0
  150.9403  139.8454  157.5488 O   0  0  0  0  0  0  0  0  0  0  0  0
  151.7702  140.9991  157.5766 C   0  0  0  0  0  0  0  0  0  0  0  0
  152.4385  141.1406  158.9426 C   0  0  0  0  0  0  0  0  0  0  0  0
  152.7827  142.6298  159.0568 C   0  0  0  0  0  0  0  0  0  0  0  0
  151.8278  143.3651  158.1020 C   0  0  0  0  0  0  0  0  0  0  0  0
  150.9529  142.2855  157.4552 C   0  0  0  0  0  0  0  0  0  0  0  0
  146.1875  136.6940  161.3583 C   0  0  0  0  0  0  0  0  0  0  0  0
  145.8629  137.8324  161.0115 O   0  0  0  0  0  0  0  0  0  0  0  0
  143.5597  135.8001  163.2784 H   0  0  0  0  0  0  0  0  0  0  0  0
  143.4761  136.7727  161.8185 H   0  0  0  0  0  0  0  0  0  0  0  0
  144.2905  137.3988  163.2563 H   0  0  0  0  0  0  0  0  0  0  0  0
  145.0196  134.1717  163.2521 H   0  0  0  0  0  0  0  0  0  0  0  0
  147.1288  133.0755  162.5454 H   0  0  0  0  0  0  0  0  0  0  0  0
  148.6848  134.3271  161.0628 H   0  0  0  0  0  0  0  0  0  0  0  0
  148.2202  137.8318  160.2755 H   0  0  0  0  0  0  0  0  0  0  0  0
  149.5126  138.4255  158.9347 H   0  0  0  0  0  0  0  0  0  0  0  0
  151.0769  136.5119  157.3784 H   0  0  0  0  0  0  0  0  0  0  0  0
  149.0554  136.7270  155.9918 H   0  0  0  0  0  0  0  0  0  0  0  0
  149.1685  138.4697  156.0297 H   0  0  0  0  0  0  0  0  0  0  0  0
  151.1852  136.5538  154.7666 H   0  0  0  0  0  0  0  0  0  0  0  0
  150.1051  137.6285  153.9114 H   0  0  0  0  0  0  0  0  0  0  0  0
  152.4271  138.5590  154.0479 H   0  0  0  0  0  0  0  0  0  0  0  0
  151.2641  139.6101  154.8180 H   0  0  0  0  0  0  0  0  0  0  0  0
  153.1198  137.6338  156.2243 H   0  0  0  0  0  0  0  0  0  0  0  0
  153.2816  139.3643  156.2504 H   0  0  0  0  0  0  0  0  0  0  0  0
  152.2216  138.4448  158.3453 H   0  0  0  0  0  0  0  0  0  0  0  0
  152.5449  140.9791  156.8072 H   0  0  0  0  0  0  0  0  0  0  0  0
  151.7293  140.8731  159.7275 H   0  0  0  0  0  0  0  0  0  0  0  0
  153.3104  140.4950  159.0523 H   0  0  0  0  0  0  0  0  0  0  0  0
  152.6856  142.9822  160.0842 H   0  0  0  0  0  0  0  0  0  0  0  0
  153.8152  142.8011  158.7494 H   0  0  0  0  0  0  0  0  0  0  0  0
  151.2230  144.1092  158.6211 H   0  0  0  0  0  0  0  0  0  0  0  0
  152.4032  143.8883  157.3374 H   0  0  0  0  0  0  0  0  0  0  0  0
  150.6848  142.5246  156.4262 H   0  0  0  0  0  0  0  0  0  0  0  0
  150.0258  142.1840  158.0213 H   0  0  0  0  0  0  0  0  0  0  0  0
  1  2  1  0  0  0  0
  1 25  1  0  0  0  0
  1 26  1  0  0  0  0
  1 27  1  0  0  0  0
  2 23  1  0  0  0  0
  2  3  1  0  0  0  0
  3  4  2  0  0  0  0
  3 28  1  0  0  0  0
  4  5  1  0  0  0  0
  4 29  1  0  0  0  0
  5  6  2  0  0  0  0
  5 30  1  0  0  0  0
  6  7  1  0  0  0  0
  6 23  1  0  0  0  0
  7  8  1  0  0  0  0
  7 31  1  0  0  0  0
  8  9  2  0  0  0  0
  8 10  1  0  0  0  0
 10 11  1  0  0  0  0
 10 32  1  0  0  0  0
 11 16  1  0  0  0  0
 11 12  1  0  0  0  0
 11 33  1  0  0  0  0
 12 13  1  0  0  0  0
 12 34  1  0  0  0  0
 12 35  1  0  0  0  0
 13 14  1  0  0  0  0
 13 36  1  0  0  0  0
 13 37  1  0  0  0  0
 14 15  1  0  0  0  0
 14 38  1  0  0  0  0
 14 39  1  0  0  0  0
 15 16  1  0  0  0  0
 15 40  1  0  0  0  0
 15 41  1  0  0  0  0
 16 17  1  0  0  0  0
 16 42  1  0  0  0  0
 17 18  1  0  0  0  0
 18 22  1  0  0  0  0
 18 19  1  0  0  0  0
 18 43  1  0  0  0  0
 19 20  1  0  0  0  0
 19 44  1  0  0  0  0
 19 45  1  0  0  0  0
 20 21  1  0  0  0  0
 20 46  1  0  0  0  0
 20 47  1  0  0  0  0
 21 22  1  0  0  0  0
 21 48  1  0  0  0  0
 21 49  1  0  0  0  0
 22 50  1  0  0  0  0
 22 51  1  0  0  0  0
 23 24  2  0  0  0  0
M  END
> <s_m_source_file>
AV-unprocessed.smi

> <i_m_source_file_index>
2477

> <i_lp_mmshare_version>
43012

> <i_f3d_flags>
0

> <s_epik_input>
W0NIM11uMVtjSF1bY0hdW2NIXWMoYzE9TylbTkhdQyg9TylbTkhdW0NAQEhdMltDSDJdW0NIMl1bQ0gyXVtDSDJdW0NASF0yT1tDSF0zW0NIMl1bQ0gyXVtDSDJdW0NIMl0z

> <s_epik_cmdline>
J2VwaWtfcHl0aG9uJywgJy1waCcsICc3LjAnLCAnLXRuJywgJzgnLCAnLW1hJywgJzIwMCcsICctbWV0YWxfYmluZGluZycsICctaW1hZScsICc8aW5maWxlLm1hZT4nLCAnLW9tYWUnLCAnPG91dGZpbGUubWFlPic=

> <r_lp_tautomer_probability>
1

> <r_epik_Ionization_Penalty>
2.40753e-05

> <r_epik_Ionization_Penalty_Charging>
4.84018e-06

> <r_epik_Ionization_Penalty_Neutral>
1.92352e-05

> <r_epik_State_Penalty>
-0

> <r_epik_Charging_Adjusted_Penalty>
4.84018e-06

> <i_epik_Tot_Q>
0

> <i_epik_Tot_abs_Q>
0

> <r_epik_Metal_State_Penalty>
-0

> <b_epik_Metal_Only>
0

> <s_lp_Force_Field>
OPLS_2005

> <r_lp_Energy>
43.088

> <b_lp_Chiralities_Consistent>
1

> <s_lp_Variant>
AV-unprocessed.smi:2477-2

> <Gold.Version>
5.8.1

> <Gold.Id.Protein>
6NUR|6NUR_protein|mol2

> <Gold.PLP.Fitness>
46.6094

> <Gold.PLP.PLP>
-42.0025

> <Gold.PLP.part.hbond>
-2.0000

> <Gold.PLP.part.metal>
0.0000

> <Gold.PLP.part.buried>
-6.8926

> <Gold.PLP.part.nonpolar>
-34.5850

> <Gold.PLP.part.repulsive>
0.3881

> <Gold.PLP.ligand.clash>
0.0000

> <Gold.PLP.ligand.torsion>
0.7198

> <Gold.PLP.Chemscore.Hbond>
1.9920

> <Gold.PLP.Chemscore.CHOScore>
0.0000

> <Gold.PLP.Chemscore.Metal>
0.0000

> <Gold.Chemscore.Hbonds>
donor molecule, donor type, donor heavy atom, donor atom, acceptor molecule, acceptor atom, score
      P1  H  6896  6908       L1     9  1.00
      P1  H  6934  6947       L1    24  1.00

> <Gold.PLP.Chemscore.Internal.Correction>
0.0705

> <Gold.Rescore>
     Score         DG    S(hbond)    S(metal)    S(lipo)     H(rot)  DE(clash)    DE(int)     intcor
     20.75     -21.51       1.86        0.00     113.54       1.36       0.00       0.76       ----

> <Gold.Chemscore.Fitness>
20.7496

> <Gold.Chemscore.DG>
-21.5071

> <Gold.Chemscore.ZeroCoef>
-5.4800

> <Gold.Chemscore.Hbond>
1.8610

> <Gold.Chemscore.Metal>
0.0000

> <Gold.Chemscore.Lipo>
113.5351

> <Gold.Chemscore.Internal_Hbond>
0.0000

> <Gold.Chemscore.DEClash>
0.0015

> <Gold.Chemscore.DEInternal>
0.7560

> <Gold.Chemscore.Rot>
1.3564

> <Gold.Chemscore.Internal.Correction>
   9.000000E+99

> <Gold.Chemscore.Hbonds>
donor molecule, donor type, donor heavy atom, donor atom, acceptor molecule, acceptor atom, score
      P1  H  6896  6908       L1     9  0.59
      P1  H  6934  6947       L1    24  0.90

> <Gold.Chemscore.Hbond.Weighted>
-6.2158

> <Gold.Chemscore.Metal.Weighted>
-0.0000

> <Gold.Chemscore.Lipo.Weighted>
-13.2836

> <Gold.Chemscore.Internal_Hbond.Weighted>
0.0000

> <Gold.Chemscore.DEClash.Weighted>
0.0015

> <Gold.Chemscore.DEInternal.Weighted>
0.7560

> <Gold.Chemscore.Rot.Weighted>
3.4724

> <Gold.Chemscore.Internal.Correction.Weighted>
   9.000000E+99

> <Gold.Protein.RotatedTorsions>
[ 6907 6896 6895 6894 ] final  162.45 input  -60.11 | X-H torsion
[ 7974 7965 7964 7962 ] final  143.32 input  175.53 | X-H torsion
[ 8008 7997 7996 7995 ] final -109.72 input   59.86 | X-H torsion
[ 10167 10162 10161 10158 ] final  -10.78 input  -65.29 | X-H torsion
[ 10718 10713 10712 10709 ] final  -84.14 input   66.30 | X-H torsion
[ 10763 10752 10751 10750 ] final   -0.56 input  -60.55 | X-H torsion
[ 11005 11000 10999 10996 ] final  161.57 input  -57.11 | X-H torsion

> <Gold.Protein.ActiveResidues>
 VAL166  LYS551  ARG553  GLY616  TRP617  ASP618  TYR619  PRO620  LYS621  CYS622 
 ASP623  PHE694  ASN695  SER759  ASP760  ASP761  ALA762  ILE779  LEU786  VAL792 
 PHE793  MET794  SER795  GLU796  ALA797  LYS798  CYS799  TRP800  GLU811  SER814 

> <Gold.Protein.RotatedAtoms>
  151.9402  133.3635  159.3962 H   0  0  0  0  0  0  0  0  0  0  0  0  # atno 6907 bound_to 6896
  150.7000  134.4447  159.5318 H   0  0  0  0  0  0  0  0  0  0  0  0  # atno 6908 bound_to 6896
  152.2103  134.8508  160.0549 H   0  0  0  0  0  0  0  0  0  0  0  0  # atno 6909 bound_to 6896
  144.8931  139.5529  143.5789 H   0  0  0  0  0  0  0  0  0  0  0  0  # atno 7974 bound_to 7965
  154.9636  140.0398  157.2201 H   0  0  0  0  0  0  0  0  0  0  0  0  # atno 8008 bound_to 7997
  154.7866  140.2828  155.6001 H   0  0  0  0  0  0  0  0  0  0  0  0  # atno 8009 bound_to 7997
  156.2944  140.2581  156.2704 H   0  0  0  0  0  0  0  0  0  0  0  0  # atno 8010 bound_to 7997
  140.7122  143.5711  150.9092 H   0  0  0  0  0  0  0  0  0  0  0  0  # atno 10167 bound_to 10162
  156.0009  130.4688  150.4365 H   0  0  0  0  0  0  0  0  0  0  0  0  # atno 10718 bound_to 10713
  153.3335  135.6976  153.6927 H   0  0  0  0  0  0  0  0  0  0  0  0  # atno 10763 bound_to 10752
  153.5721  135.3514  155.2842 H   0  0  0  0  0  0  0  0  0  0  0  0  # atno 10764 bound_to 10752
  154.8623  135.4274  154.2530 H   0  0  0  0  0  0  0  0  0  0  0  0  # atno 10765 bound_to 10752
  140.2171  134.8224  157.3182 H   0  0  0  0  0  0  0  0  0  0  0  0  # atno 11005 bound_to 11000
  146.3066  139.7600  142.9052 LP  0  0  0  0  0  0  0  0  0  0  0  0  # atno 17320 bound_to 7965
  145.3747  141.0348  143.3211 LP  0  0  0  0  0  0  0  0  0  0  0  0  # atno 17321 bound_to 7965
  139.9437  143.6352  152.3047 LP  0  0  0  0  0  0  0  0  0  0  0  0  # atno 17342 bound_to 10162
  139.6846  144.7652  151.1547 LP  0  0  0  0  0  0  0  0  0  0  0  0  # atno 17343 bound_to 10162
  157.2409  131.0525  151.2437 LP  0  0  0  0  0  0  0  0  0  0  0  0  # atno 17370 bound_to 10713
  157.3621  130.7136  149.6508 LP  0  0  0  0  0  0  0  0  0  0  0  0  # atno 17371 bound_to 10713
  140.1889  134.4397  155.7727 LP  0  0  0  0  0  0  0  0  0  0  0  0  # atno 17394 bound_to 11000
  141.2224  133.7018  156.7993 LP  0  0  0  0  0  0  0  0  0  0  0  0  # atno 17395 bound_to 11000

$$$$
