AV-unprocessed.smi:2009|AV-procd|sdf|8148|dock10
  -GOLD-   2272010393D 1   1.00000     0.00000
 Structure written by MMmdl.
 37 38  0  0  0  0  0  0  0  0  2 V2000
  151.1283  139.5124  155.4686 C   0  0  0  0  0  0  0  0  0  0  0  0
  151.8133  140.6605  156.2222 C   0  0  1  0  0  0  0  0  0  0  0  0
  150.7932  141.7070  156.7364 C   0  0  0  0  0  0  0  0  0  0  0  0
  151.3394  142.6457  157.7130 N   0  0  0  0  0  0  0  0  0  0  0  0
  151.5783  143.9992  157.5650 C   0  0  0  0  0  0  0  0  0  0  0  0
  152.1042  144.4545  158.7395 C   0  0  0  0  0  0  0  0  0  0  0  0
  152.1627  143.2911  159.5558 C   0  0  0  0  0  0  0  0  0  0  0  0
  151.7148  142.2098  158.9389 N   0  0  0  0  0  0  0  0  0  0  0  0
  152.5607  140.1073  157.3431 N   0  5  0  0  0  0  0  0  0  0  0  0
  151.8440  139.0370  158.3279 S   0  0  0  0  0  0  0  0  0  0  0  0
  150.5907  139.5283  158.9232 O   0  0  0  0  0  0  0  0  0  0  0  0
  151.8571  137.6675  157.7875 O   0  0  0  0  0  0  0  0  0  0  0  0
  153.0270  139.0762  159.6022 N   0  0  0  0  0  0  0  0  0  0  0  0
  153.0237  137.9460  160.5545 C   0  0  0  0  0  0  0  0  0  0  0  0
  154.3261  137.8889  161.3706 C   0  0  0  0  0  0  0  0  0  0  0  0
  154.5975  139.2173  162.0808 C   0  0  0  0  0  0  0  0  0  0  0  0
  154.6195  140.3445  161.0457 C   0  0  0  0  0  0  0  0  0  0  0  0
  153.3118  140.3834  160.2384 C   0  0  0  0  0  0  0  0  0  0  0  0
  150.5673  139.8879  154.6126 H   0  0  0  0  0  0  0  0  0  0  0  0
  150.4319  138.9725  156.1113 H   0  0  0  0  0  0  0  0  0  0  0  0
  151.8600  138.7965  155.0921 H   0  0  0  0  0  0  0  0  0  0  0  0
  152.4703  141.1621  155.5100 H   0  0  0  0  0  0  0  0  0  0  0  0
  150.4044  142.2827  155.8951 H   0  0  0  0  0  0  0  0  0  0  0  0
  149.9318  141.2096  157.1846 H   0  0  0  0  0  0  0  0  0  0  0  0
  151.3444  144.5186  156.6471 H   0  0  0  0  0  0  0  0  0  0  0  0
  152.4000  145.4650  158.9786 H   0  0  0  0  0  0  0  0  0  0  0  0
  152.5180  143.2004  160.5716 H   0  0  0  0  0  0  0  0  0  0  0  0
  152.1619  138.0436  161.2160 H   0  0  0  0  0  0  0  0  0  0  0  0
  152.9042  137.0062  160.0162 H   0  0  0  0  0  0  0  0  0  0  0  0
  154.2713  137.0810  162.1005 H   0  0  0  0  0  0  0  0  0  0  0  0
  155.1599  137.6504  160.7086 H   0  0  0  0  0  0  0  0  0  0  0  0
  153.8233  139.4081  162.8250 H   0  0  0  0  0  0  0  0  0  0  0  0
  155.5472  139.1743  162.6144 H   0  0  0  0  0  0  0  0  0  0  0  0
  154.7773  141.3024  161.5416 H   0  0  0  0  0  0  0  0  0  0  0  0
  155.4619  140.2044  160.3668 H   0  0  0  0  0  0  0  0  0  0  0  0
  153.3832  141.1676  159.4857 H   0  0  0  0  0  0  0  0  0  0  0  0
  152.4751  140.6499  160.8851 H   0  0  0  0  0  0  0  0  0  0  0  0
  1  2  1  0  0  0  0
  1 19  1  0  0  0  0
  1 20  1  0  0  0  0
  1 21  1  0  0  0  0
  2  3  1  0  0  0  0
  2  9  1  0  0  0  0
  2 22  1  0  0  0  0
  3  4  1  0  0  0  0
  3 23  1  0  0  0  0
  3 24  1  0  0  0  0
  4  8  1  0  0  0  0
  4  5  1  0  0  0  0
  5  6  2  0  0  0  0
  5 25  1  0  0  0  0
  6  7  1  0  0  0  0
  6 26  1  0  0  0  0
  7  8  2  0  0  0  0
  7 27  1  0  0  0  0
  9 10  1  0  0  0  0
 10 11  2  0  0  0  0
 10 12  2  0  0  0  0
 10 13  1  0  0  0  0
 13 18  1  0  0  0  0
 13 14  1  0  0  0  0
 14 15  1  0  0  0  0
 14 28  1  0  0  0  0
 14 29  1  0  0  0  0
 15 16  1  0  0  0  0
 15 30  1  0  0  0  0
 15 31  1  0  0  0  0
 16 17  1  0  0  0  0
 16 32  1  0  0  0  0
 16 33  1  0  0  0  0
 17 18  1  0  0  0  0
 17 34  1  0  0  0  0
 17 35  1  0  0  0  0
 18 36  1  0  0  0  0
 18 37  1  0  0  0  0
M  CHG  1   9  -1
M  END
> <s_m_source_file>
AV-unprocessed.smi

> <i_m_source_file_index>
2009

> <i_lp_mmshare_version>
43012

> <i_f3d_flags>
0

> <s_epik_input>
bjFbY0hdW2NIXVtjSF1uMVtDSDJdW0NAQEhdKFtDSDNdKVtOSF1TKD1PKSg9TylOMltDSDJdW0NIMl1bQ0gyXVtDSDJdW0NIMl0y

> <s_epik_cmdline>
J2VwaWtfcHl0aG9uJywgJy1waCcsICc3LjAnLCAnLXRuJywgJzgnLCAnLW1hJywgJzIwMCcsICctbWV0YWxfYmluZGluZycsICctaW1hZScsICc8aW5maWxlLm1hZT4nLCAnLW9tYWUnLCAnPG91dGZpbGUubWFlPic=

> <r_lp_tautomer_probability>
1

> <r_epik_Ionization_Penalty>
1.75622

> <r_epik_Ionization_Penalty_Charging>
1.7562

> <r_epik_Ionization_Penalty_Neutral>
2.38826e-05

> <r_epik_State_Penalty>
1.86645

> <r_epik_Charging_Adjusted_Penalty>
3.62264

> <i_epik_Tot_Q>
-1

> <i_epik_Tot_abs_Q>
1

> <r_epik_Metal_State_Penalty>
0.460135

> <b_epik_Metal_Only>
0

> <s_lp_Force_Field>
OPLS_2005

> <r_lp_Energy>
6.21629

> <b_lp_Chiralities_Consistent>
1

> <s_lp_Variant>
AV-unprocessed.smi:2009-4

> <Gold.Version>
5.8.1

> <Gold.Id.Protein>
6NUR|6NUR_protein|mol2

> <Gold.PLP.Fitness>
42.6373

> <Gold.PLP.PLP>
-34.9979

> <Gold.PLP.part.hbond>
-1.0522

> <Gold.PLP.part.metal>
0.0000

> <Gold.PLP.part.buried>
-2.6814

> <Gold.PLP.part.nonpolar>
-30.7046

> <Gold.PLP.part.repulsive>
0.0015

> <Gold.PLP.ligand.clash>
0.0000

> <Gold.PLP.ligand.torsion>
1.3477

> <Gold.PLP.Chemscore.Hbond>
2.0000

> <Gold.PLP.Chemscore.CHOScore>
0.9178

> <Gold.PLP.Chemscore.Metal>
0.0000

> <Gold.Chemscore.Hbonds>
donor molecule, donor type, donor heavy atom, donor atom, acceptor molecule, acceptor atom, score
      P1  H  7997  8008       L1     9  2.00
      L1  C     5    25       P1  8028  0.69

> <Gold.PLP.Chemscore.Internal.Correction>
1.5815

> <Gold.Rescore>
     Score         DG    S(hbond)    S(metal)    S(lipo)     H(rot)  DE(clash)    DE(int)     intcor
     11.22     -15.28       0.85        0.00      93.86       1.57       0.17       3.90       ----

> <Gold.Chemscore.Fitness>
11.2181

> <Gold.Chemscore.DG>
-15.2840

> <Gold.Chemscore.ZeroCoef>
-5.4800

> <Gold.Chemscore.Hbond>
0.8485

> <Gold.Chemscore.Metal>
0.0000

> <Gold.Chemscore.Lipo>
93.8617

> <Gold.Chemscore.Internal_Hbond>
0.0000

> <Gold.Chemscore.DEClash>
0.1662

> <Gold.Chemscore.DEInternal>
3.8996

> <Gold.Chemscore.Rot>
1.5672

> <Gold.Chemscore.Internal.Correction>
   9.000000E+99

> <Gold.Chemscore.Hbonds>
donor molecule, donor type, donor heavy atom, donor atom, acceptor molecule, acceptor atom, score
      P1  H  7997  8008       L1     9  0.29

> <Gold.Chemscore.Hbond.Weighted>
-2.8340

> <Gold.Chemscore.Metal.Weighted>
-0.0000

> <Gold.Chemscore.Lipo.Weighted>
-10.9818

> <Gold.Chemscore.Internal_Hbond.Weighted>
0.0000

> <Gold.Chemscore.DEClash.Weighted>
0.1662

> <Gold.Chemscore.DEInternal.Weighted>
3.8996

> <Gold.Chemscore.Rot.Weighted>
4.0119

> <Gold.Chemscore.Internal.Correction.Weighted>
   9.000000E+99

> <Gold.Protein.RotatedTorsions>
[ 6907 6896 6895 6894 ] final -167.22 input  -60.11 | X-H torsion
[ 7974 7965 7964 7962 ] final   17.16 input  175.53 | X-H torsion
[ 8008 7997 7996 7995 ] final  -58.83 input   59.86 | X-H torsion
[ 10167 10162 10161 10158 ] final  178.86 input  -65.29 | X-H torsion
[ 10718 10713 10712 10709 ] final   29.76 input   66.30 | X-H torsion
[ 10763 10752 10751 10750 ] final   97.31 input  -60.55 | X-H torsion
[ 11005 11000 10999 10996 ] final -140.57 input  -57.11 | X-H torsion

> <Gold.Protein.ActiveResidues>
 VAL166  LYS551  ARG553  GLY616  TRP617  ASP618  TYR619  PRO620  LYS621  CYS622 
 ASP623  PHE694  ASN695  SER759  ASP760  ASP761  ALA762  ILE779  LEU786  VAL792 
 PHE793  MET794  SER795  GLU796  ALA797  LYS798  CYS799  TRP800  GLU811  SER814 

> <Gold.Protein.RotatedAtoms>
  151.4560  133.3605  159.2801 H   0  0  0  0  0  0  0  0  0  0  0  0  # atno 6907 bound_to 6896
  150.9058  134.8474  159.7402 H   0  0  0  0  0  0  0  0  0  0  0  0  # atno 6908 bound_to 6896
  152.4905  134.4485  159.9618 H   0  0  0  0  0  0  0  0  0  0  0  0  # atno 6909 bound_to 6896
  146.2227  139.8643  142.8599 H   0  0  0  0  0  0  0  0  0  0  0  0  # atno 7974 bound_to 7965
  154.4325  140.1075  156.6018 H   0  0  0  0  0  0  0  0  0  0  0  0  # atno 8008 bound_to 7997
  155.5902  140.3492  155.4546 H   0  0  0  0  0  0  0  0  0  0  0  0  # atno 8009 bound_to 7997
  156.0252  140.1248  157.0305 H   0  0  0  0  0  0  0  0  0  0  0  0  # atno 8010 bound_to 7997
  139.5311  144.2630  152.0691 H   0  0  0  0  0  0  0  0  0  0  0  0  # atno 10167 bound_to 10162
  157.2508  130.7114  149.6404 H   0  0  0  0  0  0  0  0  0  0  0  0  # atno 10718 bound_to 10713
  153.2754  135.4187  155.1028 H   0  0  0  0  0  0  0  0  0  0  0  0  # atno 10763 bound_to 10752
  154.8471  135.3482  154.6186 H   0  0  0  0  0  0  0  0  0  0  0  0  # atno 10764 bound_to 10752
  153.6606  135.7048  153.5236 H   0  0  0  0  0  0  0  0  0  0  0  0  # atno 10765 bound_to 10752
  140.8409  134.2403  157.4810 H   0  0  0  0  0  0  0  0  0  0  0  0  # atno 11005 bound_to 11000
  145.2672  141.0097  143.3792 LP  0  0  0  0  0  0  0  0  0  0  0  0  # atno 17320 bound_to 7965
  144.9252  139.4364  143.6522 LP  0  0  0  0  0  0  0  0  0  0  0  0  # atno 17321 bound_to 7965
  140.2094  144.4578  150.6393 LP  0  0  0  0  0  0  0  0  0  0  0  0  # atno 17342 bound_to 10162
  140.6490  143.2220  151.6120 LP  0  0  0  0  0  0  0  0  0  0  0  0  # atno 17343 bound_to 10162
  155.9666  130.4428  150.5396 LP  0  0  0  0  0  0  0  0  0  0  0  0  # atno 17370 bound_to 10713
  157.3279  131.0694  151.1883 LP  0  0  0  0  0  0  0  0  0  0  0  0  # atno 17371 bound_to 10713
  139.8703  134.9635  156.4463 LP  0  0  0  0  0  0  0  0  0  0  0  0  # atno 17394 bound_to 11000
  140.8896  133.7858  155.9557 LP  0  0  0  0  0  0  0  0  0  0  0  0  # atno 17395 bound_to 11000

$$$$
