AV-unprocessed.smi:1578|AV-procd|sdf|6350|dock9
  -GOLD-   22720 6573D 1   1.00000     0.00000
 Structure written by MMmdl.
 44 45  0  0  0  0  0  0  0  0  1 V2000
  149.4934  136.9885  157.1217 C   0  0  0  0  0  0  0  0  0  0  0  0
  149.6932  138.4384  156.6507 C   0  0  2  0  0  0  0  0  0  0  0  0
  149.4856  138.5646  155.1252 C   0  0  0  0  0  0  0  0  0  0  0  0
  148.5402  139.5970  154.6941 N   0  0  0  0  0  0  0  0  0  0  0  0
  149.0782  140.9507  154.8187 C   0  0  0  0  0  0  0  0  0  0  0  0
  148.0914  142.0180  154.3158 C   0  0  0  0  0  0  0  0  0  0  0  0
  147.7238  141.7363  152.9698 O   0  0  0  0  0  0  0  0  0  0  0  0
  147.1388  140.4470  152.8229 C   0  0  0  0  0  0  0  0  0  0  0  0
  148.1299  139.3767  153.3109 C   0  0  0  0  0  0  0  0  0  0  0  0
  151.0417  138.8769  156.9969 N   0  0  0  0  0  0  0  0  0  0  0  0
  151.5431  138.9840  158.2393 C   0  0  0  0  0  0  0  0  0  0  0  0
  150.9137  138.6549  159.2436 O   0  0  0  0  0  0  0  0  0  0  0  0
  152.9599  139.5622  158.3981 C   0  0  0  0  0  0  0  0  0  0  0  0
  153.0525  140.7205  159.3061 N   0  0  0  0  0  0  0  0  0  0  0  0
  152.4249  141.9121  158.8921 C   0  0  0  0  0  0  0  0  0  0  0  0
  152.4070  143.0300  159.6429 C   0  0  0  0  0  0  0  0  0  0  0  0
  151.7613  144.3148  159.1479 C   0  0  0  0  0  0  0  0  0  0  0  0
  151.8615  145.2846  160.0572 F   0  0  0  0  0  0  0  0  0  0  0  0
  152.3335  144.7372  158.0198 F   0  0  0  0  0  0  0  0  0  0  0  0
  150.4684  144.1058  158.9039 F   0  0  0  0  0  0  0  0  0  0  0  0
  153.1076  142.9672  160.9106 C   0  0  0  0  0  0  0  0  0  0  0  0
  153.7196  141.8382  161.3181 C   0  0  0  0  0  0  0  0  0  0  0  0
  153.7080  140.6225  160.5018 C   0  0  0  0  0  0  0  0  0  0  0  0
  154.2459  139.5793  160.8734 O   0  0  0  0  0  0  0  0  0  0  0  0
  148.4875  136.6364  156.8915 H   0  0  0  0  0  0  0  0  0  0  0  0
  149.6290  136.8988  158.2001 H   0  0  0  0  0  0  0  0  0  0  0  0
  150.2012  136.3131  156.6397 H   0  0  0  0  0  0  0  0  0  0  0  0
  148.9569  139.0636  157.1596 H   0  0  0  0  0  0  0  0  0  0  0  0
  150.4457  138.6968  154.6231 H   0  0  0  0  0  0  0  0  0  0  0  0
  149.1062  137.6056  154.7694 H   0  0  0  0  0  0  0  0  0  0  0  0
  149.3106  141.1694  155.8599 H   0  0  0  0  0  0  0  0  0  0  0  0
  150.0129  141.0309  154.2617 H   0  0  0  0  0  0  0  0  0  0  0  0
  147.2005  142.0469  154.9451 H   0  0  0  0  0  0  0  0  0  0  0  0
  148.5486  143.0066  154.3619 H   0  0  0  0  0  0  0  0  0  0  0  0
  146.2046  140.3959  153.3846 H   0  0  0  0  0  0  0  0  0  0  0  0
  146.8917  140.2852  151.7736 H   0  0  0  0  0  0  0  0  0  0  0  0
  149.0065  139.3779  152.6610 H   0  0  0  0  0  0  0  0  0  0  0  0
  147.6711  138.3922  153.2128 H   0  0  0  0  0  0  0  0  0  0  0  0
  151.6301  139.1652  156.2289 H   0  0  0  0  0  0  0  0  0  0  0  0
  153.6252  138.7649  158.7342 H   0  0  0  0  0  0  0  0  0  0  0  0
  153.3254  139.8309  157.4061 H   0  0  0  0  0  0  0  0  0  0  0  0
  151.9508  141.8563  157.9228 H   0  0  0  0  0  0  0  0  0  0  0  0
  153.1390  143.8388  161.5476 H   0  0  0  0  0  0  0  0  0  0  0  0
  154.2300  141.8266  162.2701 H   0  0  0  0  0  0  0  0  0  0  0  0
  1  2  1  0  0  0  0
  1 25  1  0  0  0  0
  1 26  1  0  0  0  0
  1 27  1  0  0  0  0
  2  3  1  0  0  0  0
  2 10  1  0  0  0  0
  2 28  1  0  0  0  0
  3  4  1  0  0  0  0
  3 29  1  0  0  0  0
  3 30  1  0  0  0  0
  4  9  1  0  0  0  0
  4  5  1  0  0  0  0
  5  6  1  0  0  0  0
  5 31  1  0  0  0  0
  5 32  1  0  0  0  0
  6  7  1  0  0  0  0
  6 33  1  0  0  0  0
  6 34  1  0  0  0  0
  7  8  1  0  0  0  0
  8  9  1  0  0  0  0
  8 35  1  0  0  0  0
  8 36  1  0  0  0  0
  9 37  1  0  0  0  0
  9 38  1  0  0  0  0
 10 11  1  0  0  0  0
 10 39  1  0  0  0  0
 11 12  2  0  0  0  0
 11 13  1  0  0  0  0
 13 14  1  0  0  0  0
 13 40  1  0  0  0  0
 13 41  1  0  0  0  0
 14 23  1  0  0  0  0
 14 15  1  0  0  0  0
 15 16  2  0  0  0  0
 15 42  1  0  0  0  0
 16 17  1  0  0  0  0
 16 21  1  0  0  0  0
 17 18  1  0  0  0  0
 17 19  1  0  0  0  0
 17 20  1  0  0  0  0
 21 22  2  0  0  0  0
 21 43  1  0  0  0  0
 22 23  1  0  0  0  0
 22 44  1  0  0  0  0
 23 24  2  0  0  0  0
M  END
> <s_m_source_file>
AV-unprocessed.smi

> <i_m_source_file_index>
1578

> <i_lp_mmshare_version>
43012

> <i_f3d_flags>
0

> <s_epik_input>
W0NIMl0xW0NIMl1PW0NIMl1bQ0gyXU4xW0NIMl1bQ0BASF0oW0NIM10pW05IXUMoPU8pW0NIMl1uMltjSF1jKEMoRikoRilGKVtjSF1bY0hdYzI9Tw==

> <s_epik_cmdline>
J2VwaWtfcHl0aG9uJywgJy1waCcsICc3LjAnLCAnLXRuJywgJzgnLCAnLW1hJywgJzIwMCcsICctbWV0YWxfYmluZGluZycsICctaW1hZScsICc8aW5maWxlLm1hZT4nLCAnLW9tYWUnLCAnPG91dGZpbGUubWFlPic=

> <r_lp_tautomer_probability>
1

> <r_epik_Ionization_Penalty>
0.237382

> <r_epik_Ionization_Penalty_Charging>
1.80451e-08

> <r_epik_Ionization_Penalty_Neutral>
0.237382

> <r_epik_State_Penalty>
0.228245

> <r_epik_Charging_Adjusted_Penalty>
0.228245

> <i_epik_Tot_Q>
0

> <i_epik_Tot_abs_Q>
0

> <r_epik_Metal_State_Penalty>
0.228219

> <b_epik_Metal_Only>
0

> <s_lp_Force_Field>
OPLS_2005

> <r_lp_Energy>
37.3685

> <b_lp_Chiralities_Consistent>
1

> <s_lp_Variant>
AV-unprocessed.smi:1578-1

> <Gold.Version>
5.8.1

> <Gold.Id.Protein>
6NUR|6NUR_protein|mol2

> <Gold.PLP.Fitness>
42.1329

> <Gold.PLP.PLP>
-43.7213

> <Gold.PLP.part.hbond>
-1.9690

> <Gold.PLP.part.metal>
0.0000

> <Gold.PLP.part.buried>
4.1611

> <Gold.PLP.part.nonpolar>
-44.5125

> <Gold.PLP.part.repulsive>
0.4012

> <Gold.PLP.ligand.clash>
0.0000

> <Gold.PLP.ligand.torsion>
0.9521

> <Gold.PLP.Chemscore.Hbond>
0.0762

> <Gold.PLP.Chemscore.CHOScore>
0.0000

> <Gold.PLP.Chemscore.Metal>
0.0000

> <Gold.Chemscore.Hbonds>
donor molecule, donor type, donor heavy atom, donor atom, acceptor molecule, acceptor atom, score
      P1  H  8011  8017       L1     7  0.10

> <Gold.PLP.Chemscore.Internal.Correction>
0.0872

> <Gold.Rescore>
     Score         DG    S(hbond)    S(metal)    S(lipo)     H(rot)  DE(clash)    DE(int)     intcor
      8.92     -11.21       0.00        0.00      94.80       2.09       0.67       1.62       ----

> <Gold.Chemscore.Fitness>
8.9191

> <Gold.Chemscore.DG>
-11.2148

> <Gold.Chemscore.ZeroCoef>
-5.4800

> <Gold.Chemscore.Hbond>
0.0000

> <Gold.Chemscore.Metal>
0.0000

> <Gold.Chemscore.Lipo>
94.7984

> <Gold.Chemscore.Internal_Hbond>
0.0000

> <Gold.Chemscore.DEClash>
0.6744

> <Gold.Chemscore.DEInternal>
1.6213

> <Gold.Chemscore.Rot>
2.0924

> <Gold.Chemscore.Internal.Correction>
   9.000000E+99

> <Gold.Chemscore.Hbond.Weighted>
-0.0000

> <Gold.Chemscore.Metal.Weighted>
-0.0000

> <Gold.Chemscore.Lipo.Weighted>
-11.0914

> <Gold.Chemscore.Internal_Hbond.Weighted>
0.0000

> <Gold.Chemscore.DEClash.Weighted>
0.6744

> <Gold.Chemscore.DEInternal.Weighted>
1.6213

> <Gold.Chemscore.Rot.Weighted>
5.3566

> <Gold.Chemscore.Internal.Correction.Weighted>
   9.000000E+99

> <Gold.Protein.RotatedTorsions>
[ 6907 6896 6895 6894 ] final -140.53 input  -60.11 | X-H torsion
[ 7974 7965 7964 7962 ] final -135.91 input  175.53 | X-H torsion
[ 8008 7997 7996 7995 ] final  -77.98 input   59.86 | X-H torsion
[ 10167 10162 10161 10158 ] final  -91.96 input  -65.29 | X-H torsion
[ 10718 10713 10712 10709 ] final -122.28 input   66.30 | X-H torsion
[ 10763 10752 10751 10750 ] final   57.98 input  -60.55 | X-H torsion
[ 11005 11000 10999 10996 ] final   89.93 input  -57.11 | X-H torsion

> <Gold.Protein.ActiveResidues>
 VAL166  LYS551  ARG553  GLY616  TRP617  ASP618  TYR619  PRO620  LYS621  CYS622 
 ASP623  PHE694  ASN695  SER759  ASP760  ASP761  ALA762  ILE779  LEU786  VAL792 
 PHE793  MET794  SER795  GLU796  ALA797  LYS798  CYS799  TRP800  GLU811  SER814 

> <Gold.Protein.RotatedAtoms>
  151.0619  133.5537  159.2633 H   0  0  0  0  0  0  0  0  0  0  0  0  # atno 6907 bound_to 6896
  151.2509  135.0621  159.9071 H   0  0  0  0  0  0  0  0  0  0  0  0  # atno 6908 bound_to 6896
  152.5399  134.0380  159.8108 H   0  0  0  0  0  0  0  0  0  0  0  0  # atno 6909 bound_to 6896
  144.8972  140.6723  143.5107 H   0  0  0  0  0  0  0  0  0  0  0  0  # atno 7974 bound_to 7965
  154.5647  140.0701  156.8873 H   0  0  0  0  0  0  0  0  0  0  0  0  # atno 8008 bound_to 7997
  155.2746  140.3367  155.4244 H   0  0  0  0  0  0  0  0  0  0  0  0  # atno 8009 bound_to 7997
  156.2071  140.1744  156.7763 H   0  0  0  0  0  0  0  0  0  0  0  0  # atno 8010 bound_to 7997
  140.3396  143.2949  151.9850 H   0  0  0  0  0  0  0  0  0  0  0  0  # atno 10167 bound_to 10162
  156.1406  130.6463  150.9764 H   0  0  0  0  0  0  0  0  0  0  0  0  # atno 10718 bound_to 10713
  152.9861  135.5622  154.5479 H   0  0  0  0  0  0  0  0  0  0  0  0  # atno 10763 bound_to 10752
  154.4921  135.2793  155.1490 H   0  0  0  0  0  0  0  0  0  0  0  0  # atno 10764 bound_to 10752
  154.2955  135.6318  153.5456 H   0  0  0  0  0  0  0  0  0  0  0  0  # atno 10765 bound_to 10752
  139.8865  134.8582  156.3212 H   0  0  0  0  0  0  0  0  0  0  0  0  # atno 11005 bound_to 11000
  145.3678  139.1666  143.4348 LP  0  0  0  0  0  0  0  0  0  0  0  0  # atno 17320 bound_to 7965
  146.3088  140.3747  142.8678 LP  0  0  0  0  0  0  0  0  0  0  0  0  # atno 17321 bound_to 7965
  139.4842  144.6168  151.7332 LP  0  0  0  0  0  0  0  0  0  0  0  0  # atno 17342 bound_to 10162
  140.5321  144.0713  150.6057 LP  0  0  0  0  0  0  0  0  0  0  0  0  # atno 17343 bound_to 10162
  157.6572  131.0887  150.7921 LP  0  0  0  0  0  0  0  0  0  0  0  0  # atno 17370 bound_to 10713
  156.7997  130.4917  149.5372 LP  0  0  0  0  0  0  0  0  0  0  0  0  # atno 17371 bound_to 10713
  140.9785  133.7282  156.0638 LP  0  0  0  0  0  0  0  0  0  0  0  0  # atno 17394 bound_to 11000
  140.7779  134.3758  157.5494 LP  0  0  0  0  0  0  0  0  0  0  0  0  # atno 17395 bound_to 11000

$$$$
