AV-unprocessed.smi:1179|AV-procd|sdf|4959|dock10
  -GOLD-   22720 3553D 1   1.00000     0.00000
 Structure written by MMmdl.
 47 48  0  0  0  0  0  0  0  0  2 V2000
  143.0929  132.6377  148.5727 C   0  0  0  0  0  0  0  0  0  0  0  0
  144.0390  132.5414  149.7332 C   0  0  0  0  0  0  0  0  0  0  0  0
  144.3389  131.4046  150.5349 C   0  0  0  0  0  0  0  0  0  0  0  0
  145.2533  131.8620  151.4416 C   0  0  0  0  0  0  0  0  0  0  0  0
  145.9517  131.1465  152.5509 C   0  0  0  0  0  0  0  0  0  0  0  0
  145.4593  133.2014  151.1625 N   0  0  0  0  0  0  0  0  0  0  0  0
  146.3376  134.1532  151.8256 C   0  0  0  0  0  0  0  0  0  0  0  0
  145.6449  135.5014  152.0330 C   0  0  0  0  0  0  0  0  0  0  0  0
  144.4223  135.5524  152.1666 O   0  0  0  0  0  0  0  0  0  0  0  0
  146.4350  136.5863  152.0554 N   0  0  0  0  0  0  0  0  0  0  0  0
  145.9701  137.9557  152.2354 C   0  0  0  0  0  0  0  0  0  0  0  0
  146.8464  138.7243  153.2439 C   0  0  0  0  0  0  0  0  0  0  0  0
  146.0942  139.7949  153.9457 N   0  3  2  0  0  0  0  0  0  0  0  0
  146.7746  141.1125  153.8548 C   0  0  0  0  0  0  0  0  0  0  0  0
  145.9079  142.2311  154.4612 C   0  0  0  0  0  0  0  0  0  0  0  0
  145.5021  141.9323  155.9159 C   0  0  2  0  0  0  0  0  0  0  0  0
  146.6634  142.1156  156.9086 C   0  0  0  0  0  0  0  0  0  0  0  0
  144.8687  140.5313  155.9933 C   0  0  0  0  0  0  0  0  0  0  0  0
  145.7603  139.4516  155.3538 C   0  0  0  0  0  0  0  0  0  0  0  0
  144.7150  133.6132  150.1125 N   0  0  0  0  0  0  0  0  0  0  0  0
  142.5285  131.7137  148.4462 H   0  0  0  0  0  0  0  0  0  0  0  0
  143.6305  132.8280  147.6435 H   0  0  0  0  0  0  0  0  0  0  0  0
  142.3755  133.4463  148.7153 H   0  0  0  0  0  0  0  0  0  0  0  0
  143.9413  130.4035  150.4564 H   0  0  0  0  0  0  0  0  0  0  0  0
  145.6482  130.1002  152.5916 H   0  0  0  0  0  0  0  0  0  0  0  0
  145.7179  131.6004  153.5141 H   0  0  0  0  0  0  0  0  0  0  0  0
  147.0327  131.1765  152.4140 H   0  0  0  0  0  0  0  0  0  0  0  0
  146.6536  133.7484  152.7886 H   0  0  0  0  0  0  0  0  0  0  0  0
  147.2395  134.2824  151.2263 H   0  0  0  0  0  0  0  0  0  0  0  0
  147.4294  136.4485  151.9393 H   0  0  0  0  0  0  0  0  0  0  0  0
  145.9984  138.4522  151.2651 H   0  0  0  0  0  0  0  0  0  0  0  0
  144.9244  137.9359  152.5434 H   0  0  0  0  0  0  0  0  0  0  0  0
  147.2893  138.0496  153.9781 H   0  0  0  0  0  0  0  0  0  0  0  0
  147.6783  139.1683  152.6949 H   0  0  0  0  0  0  0  0  0  0  0  0
  147.7425  141.0621  154.3554 H   0  0  0  0  0  0  0  0  0  0  0  0
  146.9748  141.3504  152.8094 H   0  0  0  0  0  0  0  0  0  0  0  0
  146.4327  143.1854  154.4037 H   0  0  0  0  0  0  0  0  0  0  0  0
  145.0072  142.3456  153.8563 H   0  0  0  0  0  0  0  0  0  0  0  0
  144.7372  142.6562  156.2007 H   0  0  0  0  0  0  0  0  0  0  0  0
  147.4891  141.4338  156.7076 H   0  0  0  0  0  0  0  0  0  0  0  0
  146.3323  141.9388  157.9323 H   0  0  0  0  0  0  0  0  0  0  0  0
  147.0567  143.1314  156.8648 H   0  0  0  0  0  0  0  0  0  0  0  0
  144.6511  140.2718  157.0302 H   0  0  0  0  0  0  0  0  0  0  0  0
  143.9069  140.5456  155.4786 H   0  0  0  0  0  0  0  0  0  0  0  0
  145.2351  138.4986  155.3977 H   0  0  0  0  0  0  0  0  0  0  0  0
  146.6788  139.3251  155.9288 H   0  0  0  0  0  0  0  0  0  0  0  0
  145.2193  139.8985  153.4521 H   0  0  0  0  0  0  0  0  0  0  0  0
  1  2  1  0  0  0  0
  1 21  1  0  0  0  0
  1 22  1  0  0  0  0
  1 23  1  0  0  0  0
  2 20  2  0  0  0  0
  2  3  1  0  0  0  0
  3  4  2  0  0  0  0
  3 24  1  0  0  0  0
  4  5  1  0  0  0  0
  4  6  1  0  0  0  0
  5 25  1  0  0  0  0
  5 26  1  0  0  0  0
  5 27  1  0  0  0  0
  6  7  1  0  0  0  0
  6 20  1  0  0  0  0
  7  8  1  0  0  0  0
  7 28  1  0  0  0  0
  7 29  1  0  0  0  0
  8  9  2  0  0  0  0
  8 10  1  0  0  0  0
 10 11  1  0  0  0  0
 10 30  1  0  0  0  0
 11 12  1  0  0  0  0
 11 31  1  0  0  0  0
 11 32  1  0  0  0  0
 12 13  1  0  0  0  0
 12 33  1  0  0  0  0
 12 34  1  0  0  0  0
 13 19  1  0  0  0  0
 13 14  1  0  0  0  0
 13 47  1  0  0  0  0
 14 15  1  0  0  0  0
 14 35  1  0  0  0  0
 14 36  1  0  0  0  0
 15 16  1  0  0  0  0
 15 37  1  0  0  0  0
 15 38  1  0  0  0  0
 16 17  1  0  0  0  0
 16 18  1  0  0  0  0
 16 39  1  0  0  0  0
 17 40  1  0  0  0  0
 17 41  1  0  0  0  0
 17 42  1  0  0  0  0
 18 19  1  0  0  0  0
 18 43  1  0  0  0  0
 18 44  1  0  0  0  0
 19 45  1  0  0  0  0
 19 46  1  0  0  0  0
M  CHG  1  13   1
M  END
> <s_m_source_file>
AV-unprocessed.smi

> <i_m_source_file_index>
1179

> <i_lp_mmshare_version>
43012

> <i_f3d_flags>
0

> <s_epik_input>
W0NIM11jMVtjSF1jKFtDSDNdKW4objEpW0NIMl1DKD1PKVtOSF1bQ0gyXVtDSDJdTjJbQ0gyXVtDSDJdW0NIXShbQ0gzXSlbQ0gyXVtDSDJdMg==

> <s_epik_cmdline>
J2VwaWtfcHl0aG9uJywgJy1waCcsICc3LjAnLCAnLXRuJywgJzgnLCAnLW1hJywgJzIwMCcsICctbWV0YWxfYmluZGluZycsICctaW1hZScsICc8aW5maWxlLm1hZT4nLCAnLW9tYWUnLCAnPG91dGZpbGUubWFlPic=

> <r_lp_tautomer_probability>
1

> <r_epik_Ionization_Penalty>
0.00206343

> <r_epik_Ionization_Penalty_Charging>
0.00187095

> <r_epik_Ionization_Penalty_Neutral>
0.000192474

> <r_epik_State_Penalty>
-0

> <r_epik_Charging_Adjusted_Penalty>
0.00187095

> <i_epik_Tot_Q>
1

> <i_epik_Tot_abs_Q>
1

> <r_epik_Metal_State_Penalty>
-0

> <b_epik_Metal_Only>
0

> <s_lp_Force_Field>
OPLS_2005

> <r_lp_Energy>
16.047

> <b_lp_Chiralities_Consistent>
1

> <s_lp_Variant>
AV-unprocessed.smi:1179-2

> <Gold.Version>
5.8.1

> <Gold.Id.Protein>
6NUR|6NUR_protein|mol2

> <Gold.PLP.Fitness>
40.7470

> <Gold.PLP.PLP>
-35.5165

> <Gold.PLP.part.hbond>
-1.7116

> <Gold.PLP.part.metal>
0.0000

> <Gold.PLP.part.buried>
-3.0547

> <Gold.PLP.part.nonpolar>
-33.1051

> <Gold.PLP.part.repulsive>
1.5976

> <Gold.PLP.ligand.clash>
0.0000

> <Gold.PLP.ligand.torsion>
1.5410

> <Gold.PLP.Chemscore.Hbond>
2.7638

> <Gold.PLP.Chemscore.CHOScore>
0.0000

> <Gold.PLP.Chemscore.Metal>
0.0000

> <Gold.Chemscore.Hbonds>
donor molecule, donor type, donor heavy atom, donor atom, acceptor molecule, acceptor atom, score
      L1  H    10    30       P1  7948  0.98
      L1  H    13    47       P1 10175  2.00

> <Gold.PLP.Chemscore.Internal.Correction>
0.0214

> <Gold.Rescore>
     Score         DG    S(hbond)    S(metal)    S(lipo)     H(rot)  DE(clash)    DE(int)     intcor
     14.43     -17.64       1.72        0.00      91.26       1.67       0.28       2.93       ----

> <Gold.Chemscore.Fitness>
14.4300

> <Gold.Chemscore.DG>
-17.6447

> <Gold.Chemscore.ZeroCoef>
-5.4800

> <Gold.Chemscore.Hbond>
1.7218

> <Gold.Chemscore.Metal>
0.0000

> <Gold.Chemscore.Lipo>
91.2647

> <Gold.Chemscore.Internal_Hbond>
0.0000

> <Gold.Chemscore.DEClash>
0.2827

> <Gold.Chemscore.DEInternal>
2.9319

> <Gold.Chemscore.Rot>
1.6657

> <Gold.Chemscore.Internal.Correction>
   9.000000E+99

> <Gold.Chemscore.Hbonds>
donor molecule, donor type, donor heavy atom, donor atom, acceptor molecule, acceptor atom, score
      L1  H    10    30       P1  7948  0.91
      L1  H    13    47       P1 10175  1.00

> <Gold.Chemscore.Hbond.Weighted>
-5.7508

> <Gold.Chemscore.Metal.Weighted>
-0.0000

> <Gold.Chemscore.Lipo.Weighted>
-10.6780

> <Gold.Chemscore.Internal_Hbond.Weighted>
0.0000

> <Gold.Chemscore.DEClash.Weighted>
0.2827

> <Gold.Chemscore.DEInternal.Weighted>
2.9319

> <Gold.Chemscore.Rot.Weighted>
4.2641

> <Gold.Chemscore.Internal.Correction.Weighted>
   9.000000E+99

> <Gold.Protein.RotatedTorsions>
[ 6907 6896 6895 6894 ] final  133.00 input  -60.11 | X-H torsion
[ 7974 7965 7964 7962 ] final  -37.42 input  175.53 | X-H torsion
[ 8008 7997 7996 7995 ] final -169.90 input   59.86 | X-H torsion
[ 10167 10162 10161 10158 ] final  -66.14 input  -65.29 | X-H torsion
[ 10718 10713 10712 10709 ] final  139.80 input   66.30 | X-H torsion
[ 10763 10752 10751 10750 ] final   54.39 input  -60.55 | X-H torsion
[ 11005 11000 10999 10996 ] final -121.84 input  -57.11 | X-H torsion

> <Gold.Protein.ActiveResidues>
 VAL166  LYS551  ARG553  GLY616  TRP617  ASP618  TYR619  PRO620  LYS621  CYS622 
 ASP623  PHE694  ASN695  SER759  ASP760  ASP761  ALA762  ILE779  LEU786  VAL792 
 PHE793  MET794  SER795  GLU796  ALA797  LYS798  CYS799  TRP800  GLU811  SER814 

> <Gold.Protein.RotatedAtoms>
  152.3266  133.5911  159.5780 H   0  0  0  0  0  0  0  0  0  0  0  0  # atno 6907 bound_to 6896
  150.7400  133.9932  159.3622 H   0  0  0  0  0  0  0  0  0  0  0  0  # atno 6908 bound_to 6896
  151.7811  135.0762  160.0425 H   0  0  0  0  0  0  0  0  0  0  0  0  # atno 6909 bound_to 6896
  146.0576  140.6393  142.9012 H   0  0  0  0  0  0  0  0  0  0  0  0  # atno 7974 bound_to 7965
  155.9112  140.1058  157.1278 H   0  0  0  0  0  0  0  0  0  0  0  0  # atno 8008 bound_to 7997
  154.4040  140.1274  156.4625 H   0  0  0  0  0  0  0  0  0  0  0  0  # atno 8009 bound_to 7997
  155.7308  140.3468  155.5061 H   0  0  0  0  0  0  0  0  0  0  0  0  # atno 8010 bound_to 7997
  140.5678  143.2316  151.6599 H   0  0  0  0  0  0  0  0  0  0  0  0  # atno 10167 bound_to 10162
  157.4104  131.1027  151.0460 H   0  0  0  0  0  0  0  0  0  0  0  0  # atno 10718 bound_to 10713
  152.9804  135.5746  154.4897 H   0  0  0  0  0  0  0  0  0  0  0  0  # atno 10763 bound_to 10752
  154.4433  135.2776  155.1834 H   0  0  0  0  0  0  0  0  0  0  0  0  # atno 10764 bound_to 10752
  154.3493  135.6212  153.5688 H   0  0  0  0  0  0  0  0  0  0  0  0  # atno 10765 bound_to 10752
  141.0040  134.0361  157.3501 H   0  0  0  0  0  0  0  0  0  0  0  0  # atno 11005 bound_to 11000
  144.7157  140.4200  143.7046 LP  0  0  0  0  0  0  0  0  0  0  0  0  # atno 17320 bound_to 7965
  145.6616  139.1582  143.2805 LP  0  0  0  0  0  0  0  0  0  0  0  0  # atno 17321 bound_to 7965
  139.5102  144.3551  152.0615 LP  0  0  0  0  0  0  0  0  0  0  0  0  # atno 17342 bound_to 10162
  140.2685  144.3990  150.6160 LP  0  0  0  0  0  0  0  0  0  0  0  0  # atno 17343 bound_to 10162
  157.1426  130.6149  149.5559 LP  0  0  0  0  0  0  0  0  0  0  0  0  # atno 17370 bound_to 10713
  155.9849  130.4876  150.7005 LP  0  0  0  0  0  0  0  0  0  0  0  0  # atno 17371 bound_to 10713
  139.9053  135.0178  156.7459 LP  0  0  0  0  0  0  0  0  0  0  0  0  # atno 17394 bound_to 11000
  140.6843  133.9447  155.7928 LP  0  0  0  0  0  0  0  0  0  0  0  0  # atno 17395 bound_to 11000

$$$$
