AV-unprocessed.smi:659|AV-procd|sdf|3238|dock1
  -GOLD-   22720 0183D 1   1.00000     0.00000
 Structure written by MMmdl.
 29 30  0  0  0  0  0  0  0  0  1 V2000
  151.6736  141.3977  157.0912 O   0  0  0  0  0  0  0  0  0  0  0  0
  150.9982  142.3605  156.7315 C   0  0  0  0  0  0  0  0  0  0  0  0
  150.0041  142.2139  155.8295 N   0  0  0  0  0  0  0  0  0  0  0  0
  149.5209  141.0675  155.1327 C   0  0  0  0  0  0  0  0  0  0  0  0
  148.1407  141.0937  154.8381 C   0  0  0  0  0  0  0  0  0  0  0  0
  147.5809  140.0025  154.1518 C   0  0  0  0  0  0  0  0  0  0  0  0
  148.4437  138.9491  153.8055 C   0  0  0  0  0  0  0  0  0  0  0  0
  149.7595  138.9619  154.1084 N   0  0  0  0  0  0  0  0  0  0  0  0
  150.2835  140.0048  154.7610 N   0  0  0  0  0  0  0  0  0  0  0  0
  151.1975  143.6019  157.2036 N   0  0  0  0  0  0  0  0  0  0  0  0
  152.2008  143.9840  158.1930 C   0  0  0  0  0  0  0  0  0  0  0  0
  152.2897  142.9273  159.3115 C   0  0  0  0  0  0  0  0  0  0  0  0
  152.2188  143.6976  160.6316 C   0  0  0  0  0  0  0  0  0  0  0  0
  151.3951  144.9381  160.3016 C   0  0  0  0  0  0  0  0  0  0  0  0
  151.8369  145.3118  158.8869 C   0  0  0  0  0  0  0  0  0  0  0  0
  149.5193  143.0704  155.6047 H   0  0  0  0  0  0  0  0  0  0  0  0
  147.5221  141.9305  155.1287 H   0  0  0  0  0  0  0  0  0  0  0  0
  146.5310  139.9739  153.9007 H   0  0  0  0  0  0  0  0  0  0  0  0
  148.0743  138.0823  153.2780 H   0  0  0  0  0  0  0  0  0  0  0  0
  150.6008  144.3383  156.8538 H   0  0  0  0  0  0  0  0  0  0  0  0
  153.1726  144.0814  157.7051 H   0  0  0  0  0  0  0  0  0  0  0  0
  151.4452  142.2380  159.2584 H   0  0  0  0  0  0  0  0  0  0  0  0
  153.1974  142.3274  159.2392 H   0  0  0  0  0  0  0  0  0  0  0  0
  151.7858  143.1076  161.4398 H   0  0  0  0  0  0  0  0  0  0  0  0
  153.2224  143.9961  160.9373 H   0  0  0  0  0  0  0  0  0  0  0  0
  150.3335  144.6862  160.3017 H   0  0  0  0  0  0  0  0  0  0  0  0
  151.5471  145.7470  161.0166 H   0  0  0  0  0  0  0  0  0  0  0  0
  152.7268  145.9397  158.9446 H   0  0  0  0  0  0  0  0  0  0  0  0
  151.0749  145.8870  158.3591 H   0  0  0  0  0  0  0  0  0  0  0  0
  1  2  2  0  0  0  0
  2  3  1  0  0  0  0
  2 10  1  0  0  0  0
  3  4  1  0  0  0  0
  3 16  1  0  0  0  0
  4  9  1  0  0  0  0
  4  5  2  0  0  0  0
  5  6  1  0  0  0  0
  5 17  1  0  0  0  0
  6  7  2  0  0  0  0
  6 18  1  0  0  0  0
  7  8  1  0  0  0  0
  7 19  1  0  0  0  0
  8  9  2  0  0  0  0
 10 11  1  0  0  0  0
 10 20  1  0  0  0  0
 11 15  1  0  0  0  0
 11 12  1  0  0  0  0
 11 21  1  0  0  0  0
 12 13  1  0  0  0  0
 12 22  1  0  0  0  0
 12 23  1  0  0  0  0
 13 14  1  0  0  0  0
 13 24  1  0  0  0  0
 13 25  1  0  0  0  0
 14 15  1  0  0  0  0
 14 26  1  0  0  0  0
 14 27  1  0  0  0  0
 15 28  1  0  0  0  0
 15 29  1  0  0  0  0
M  END
> <s_m_source_file>
AV-unprocessed.smi

> <i_m_source_file_index>
659

> <i_lp_mmshare_version>
43012

> <i_f3d_flags>
0

> <s_epik_input>
W0NIMl0xW0NIMl1bQ0gyXVtDSDJdW0NIXTFbTkhdQyg9TylbTkhdYzJbY0hdW2NIXVtjSF1ubjI=

> <s_epik_cmdline>
J2VwaWtfcHl0aG9uJywgJy1waCcsICc3LjAnLCAnLXRuJywgJzgnLCAnLW1hJywgJzIwMCcsICctbWV0YWxfYmluZGluZycsICctaW1hZScsICc8aW5maWxlLm1hZT4nLCAnLW9tYWUnLCAnPG91dGZpbGUubWFlPic=

> <r_lp_tautomer_probability>
1

> <r_epik_Ionization_Penalty>
0.00496132

> <r_epik_Ionization_Penalty_Charging>
0

> <r_epik_Ionization_Penalty_Neutral>
0.00496132

> <r_epik_State_Penalty>
-0

> <r_epik_Charging_Adjusted_Penalty>
0

> <i_epik_Tot_Q>
0

> <i_epik_Tot_abs_Q>
0

> <r_epik_Metal_State_Penalty>
-0

> <b_epik_Metal_Only>
0

> <s_lp_Force_Field>
OPLS_2005

> <r_lp_Energy>
27.086

> <b_lp_Chiralities_Consistent>
1

> <s_lp_Variant>
AV-unprocessed.smi:659-1

> <Gold.Version>
5.8.1

> <Gold.Id.Protein>
6NUR|6NUR_protein|mol2

> <Gold.PLP.Fitness>
43.9486

> <Gold.PLP.PLP>
-33.6462

> <Gold.PLP.part.hbond>
-3.0000

> <Gold.PLP.part.metal>
0.0000

> <Gold.PLP.part.buried>
-4.0716

> <Gold.PLP.part.nonpolar>
-27.9488

> <Gold.PLP.part.repulsive>
0.4899

> <Gold.PLP.ligand.clash>
0.0000

> <Gold.PLP.ligand.torsion>
0.4861

> <Gold.PLP.Chemscore.Hbond>
2.7571

> <Gold.PLP.Chemscore.CHOScore>
1.0000

> <Gold.PLP.Chemscore.Metal>
0.0000

> <Gold.Chemscore.Hbonds>
donor molecule, donor type, donor heavy atom, donor atom, acceptor molecule, acceptor atom, score
      L1  H     3    16       P1  8028  1.00
      L1  H    10    20       P1  8028  0.76
      P1  H  7989  7998       L1     9  0.98
      L1  C     7    19       P1  7948  1.00

> <Gold.PLP.Chemscore.Internal.Correction>
0.0032

> <Gold.Rescore>
     Score         DG    S(hbond)    S(metal)    S(lipo)     H(rot)  DE(clash)    DE(int)     intcor
     17.20     -19.12       2.20        0.00      75.78       1.00       0.06       1.86       ----

> <Gold.Chemscore.Fitness>
17.2005

> <Gold.Chemscore.DG>
-19.1241

> <Gold.Chemscore.ZeroCoef>
-5.4800

> <Gold.Chemscore.Hbond>
2.1971

> <Gold.Chemscore.Metal>
0.0000

> <Gold.Chemscore.Lipo>
75.7768

> <Gold.Chemscore.Internal_Hbond>
0.0000

> <Gold.Chemscore.DEClash>
0.0650

> <Gold.Chemscore.DEInternal>
1.8587

> <Gold.Chemscore.Rot>
1.0000

> <Gold.Chemscore.Internal.Correction>
   9.000000E+99

> <Gold.Chemscore.Hbonds>
donor molecule, donor type, donor heavy atom, donor atom, acceptor molecule, acceptor atom, score
      L1  H     3    16       P1  8028  1.00
      L1  H    10    20       P1  8028  0.70
      P1  H  7989  7998       L1     9  0.19

> <Gold.Chemscore.Hbond.Weighted>
-7.3382

> <Gold.Chemscore.Metal.Weighted>
-0.0000

> <Gold.Chemscore.Lipo.Weighted>
-8.8659

> <Gold.Chemscore.Internal_Hbond.Weighted>
0.0000

> <Gold.Chemscore.DEClash.Weighted>
0.0650

> <Gold.Chemscore.DEInternal.Weighted>
1.8587

> <Gold.Chemscore.Rot.Weighted>
2.5600

> <Gold.Chemscore.Internal.Correction.Weighted>
   9.000000E+99

> <Gold.Protein.RotatedTorsions>
[ 6907 6896 6895 6894 ] final  -77.07 input  -60.11 | X-H torsion
[ 7974 7965 7964 7962 ] final   17.13 input  175.53 | X-H torsion
[ 8008 7997 7996 7995 ] final  -32.21 input   59.86 | X-H torsion
[ 10167 10162 10161 10158 ] final  119.54 input  -65.29 | X-H torsion
[ 10718 10713 10712 10709 ] final   34.70 input   66.30 | X-H torsion
[ 10763 10752 10751 10750 ] final   60.70 input  -60.55 | X-H torsion
[ 11005 11000 10999 10996 ] final  -93.25 input  -57.11 | X-H torsion

> <Gold.Protein.ActiveResidues>
 VAL166  LYS551  ARG553  GLY616  TRP617  ASP618  TYR619  PRO620  LYS621  CYS622 
 ASP623  PHE694  ASN695  SER759  ASP760  ASP761  ALA762  ILE779  LEU786  VAL792 
 PHE793  MET794  SER795  GLU796  ALA797  LYS798  CYS799  TRP800  GLU811  SER814 

> <Gold.Protein.RotatedAtoms>
  150.7009  134.4477  159.5321 H   0  0  0  0  0  0  0  0  0  0  0  0  # atno 6907 bound_to 6896
  152.2175  134.8441  160.0499 H   0  0  0  0  0  0  0  0  0  0  0  0  # atno 6908 bound_to 6896
  151.9304  133.3574  159.3965 H   0  0  0  0  0  0  0  0  0  0  0  0  # atno 6909 bound_to 6896
  146.2228  139.8646  142.8598 H   0  0  0  0  0  0  0  0  0  0  0  0  # atno 7974 bound_to 7965
  154.4187  140.1743  156.1691 H   0  0  0  0  0  0  0  0  0  0  0  0  # atno 8008 bound_to 7997
  155.9775  140.3380  155.6608 H   0  0  0  0  0  0  0  0  0  0  0  0  # atno 8009 bound_to 7997
  155.6544  140.0694  157.2566 H   0  0  0  0  0  0  0  0  0  0  0  0  # atno 8010 bound_to 7997
  139.6039  144.7064  151.2998 H   0  0  0  0  0  0  0  0  0  0  0  0  # atno 10167 bound_to 10162
  157.3136  130.7412  149.6740 H   0  0  0  0  0  0  0  0  0  0  0  0  # atno 10718 bound_to 10713
  152.9929  135.5527  154.5916 H   0  0  0  0  0  0  0  0  0  0  0  0  # atno 10763 bound_to 10752
  154.5276  135.2811  155.1210 H   0  0  0  0  0  0  0  0  0  0  0  0  # atno 10764 bound_to 10752
  154.2538  135.6394  153.5302 H   0  0  0  0  0  0  0  0  0  0  0  0  # atno 10765 bound_to 10752
  141.1502  133.7875  157.0134 H   0  0  0  0  0  0  0  0  0  0  0  0  # atno 11005 bound_to 11000
  145.2669  141.0096  143.3794 LP  0  0  0  0  0  0  0  0  0  0  0  0  # atno 17320 bound_to 7965
  144.9254  139.4362  143.6521 LP  0  0  0  0  0  0  0  0  0  0  0  0  # atno 17321 bound_to 7965
  140.7270  143.6974  150.7873 LP  0  0  0  0  0  0  0  0  0  0  0  0  # atno 17342 bound_to 10162
  140.0555  143.5206  152.2653 LP  0  0  0  0  0  0  0  0  0  0  0  0  # atno 17343 bound_to 10162
  155.9680  130.4244  150.4607 LP  0  0  0  0  0  0  0  0  0  0  0  0  # atno 17370 bound_to 10713
  157.2609  131.0567  151.2320 LP  0  0  0  0  0  0  0  0  0  0  0  0  # atno 17371 bound_to 10713
  140.0863  134.9619  157.1705 LP  0  0  0  0  0  0  0  0  0  0  0  0  # atno 17394 bound_to 11000
  140.3507  134.2602  155.7199 LP  0  0  0  0  0  0  0  0  0  0  0  0  # atno 17395 bound_to 11000

$$$$
