AV-unprocessed.smi:2053|AV-procd|sdf|8331|dock6
  -GOLD-   2272010593D 1   1.00000     0.00000
 Structure written by MMmdl.
 44 45  0  0  0  0  0  0  0  0  1 V2000
  148.1391  126.2017  151.2640 C   0  0  0  0  0  0  0  0  0  0  0  0
  147.7361  127.3059  152.0549 O   0  0  0  0  0  0  0  0  0  0  0  0
  148.6391  127.5720  153.1153 C   0  0  0  0  0  0  0  0  0  0  0  0
  148.2257  128.8699  153.8156 C   0  0  0  0  0  0  0  0  0  0  0  0
  149.3719  129.4365  154.4435 O   0  0  0  0  0  0  0  0  0  0  0  0
  149.3833  130.7929  154.6955 C   0  0  0  0  0  0  0  0  0  0  0  0
  150.5215  131.3532  155.3081 C   0  0  0  0  0  0  0  0  0  0  0  0
  150.5429  132.7361  155.5715 C   0  0  0  0  0  0  0  0  0  0  0  0
  149.4158  133.5165  155.2202 C   0  0  0  0  0  0  0  0  0  0  0  0
  149.3186  134.9212  155.4108 N   0  0  0  0  0  0  0  0  0  0  0  0
  150.2589  135.7891  155.8278 C   0  0  0  0  0  0  0  0  0  0  0  0
  151.3991  135.4703  156.1651 O   0  0  0  0  0  0  0  0  0  0  0  0
  149.8104  137.2591  155.8797 C   0  0  1  0  0  0  0  0  0  0  0  0
  148.4824  137.4876  156.6237 C   0  0  0  0  0  0  0  0  0  0  0  0
  148.9166  137.8265  158.0427 C   0  0  0  0  0  0  0  0  0  0  0  0
  150.1998  138.6258  157.8262 C   0  0  0  0  0  0  0  0  0  0  0  0
  150.7830  138.1192  156.5748 N   0  0  0  0  0  0  0  0  0  0  0  0
  151.7728  139.1813  155.6315 S   0  0  0  0  0  0  0  0  0  0  0  0
  152.4642  138.0606  154.3484 C   0  0  0  0  0  0  0  0  0  0  0  0
  150.8830  140.1463  154.9678 O   0  0  0  0  0  0  0  0  0  0  0  0
  152.8636  139.6628  156.4926 O   0  0  0  0  0  0  0  0  0  0  0  0
  148.3326  132.8612  154.5989 C   0  0  0  0  0  0  0  0  0  0  0  0
  148.3054  131.5362  154.3437 N   0  0  0  0  0  0  0  0  0  0  0  0
  147.4142  126.0379  150.4666 H   0  0  0  0  0  0  0  0  0  0  0  0
  148.1963  125.2895  151.8591 H   0  0  0  0  0  0  0  0  0  0  0  0
  149.1116  126.3809  150.8034 H   0  0  0  0  0  0  0  0  0  0  0  0
  148.6050  126.7476  153.8290 H   0  0  0  0  0  0  0  0  0  0  0  0
  149.6641  127.6467  152.7485 H   0  0  0  0  0  0  0  0  0  0  0  0
  147.7829  129.5624  153.0976 H   0  0  0  0  0  0  0  0  0  0  0  0
  147.4725  128.6421  154.5716 H   0  0  0  0  0  0  0  0  0  0  0  0
  151.3673  130.7335  155.5667 H   0  0  0  0  0  0  0  0  0  0  0  0
  151.4241  133.1655  156.0213 H   0  0  0  0  0  0  0  0  0  0  0  0
  148.4054  135.3171  155.2377 H   0  0  0  0  0  0  0  0  0  0  0  0
  149.6893  137.6027  154.8510 H   0  0  0  0  0  0  0  0  0  0  0  0
  147.9613  138.3401  156.1856 H   0  0  0  0  0  0  0  0  0  0  0  0
  147.7956  136.6410  156.5881 H   0  0  0  0  0  0  0  0  0  0  0  0
  148.1598  138.3832  158.5962 H   0  0  0  0  0  0  0  0  0  0  0  0
  149.1348  136.9121  158.5959 H   0  0  0  0  0  0  0  0  0  0  0  0
  149.9644  139.6850  157.7160 H   0  0  0  0  0  0  0  0  0  0  0  0
  150.9019  138.5170  158.6530 H   0  0  0  0  0  0  0  0  0  0  0  0
  153.0895  138.6353  153.6653 H   0  0  0  0  0  0  0  0  0  0  0  0
  151.6490  137.5996  153.7912 H   0  0  0  0  0  0  0  0  0  0  0  0
  153.0662  137.2858  154.8218 H   0  0  0  0  0  0  0  0  0  0  0  0
  147.4561  133.4167  154.2988 H   0  0  0  0  0  0  0  0  0  0  0  0
  1  2  1  0  0  0  0
  1 24  1  0  0  0  0
  1 25  1  0  0  0  0
  1 26  1  0  0  0  0
  2  3  1  0  0  0  0
  3  4  1  0  0  0  0
  3 27  1  0  0  0  0
  3 28  1  0  0  0  0
  4  5  1  0  0  0  0
  4 29  1  0  0  0  0
  4 30  1  0  0  0  0
  5  6  1  0  0  0  0
  6 23  1  0  0  0  0
  6  7  2  0  0  0  0
  7  8  1  0  0  0  0
  7 31  1  0  0  0  0
  8  9  2  0  0  0  0
  8 32  1  0  0  0  0
  9 10  1  0  0  0  0
  9 22  1  0  0  0  0
 10 11  1  0  0  0  0
 10 33  1  0  0  0  0
 11 12  2  0  0  0  0
 11 13  1  0  0  0  0
 13 17  1  0  0  0  0
 13 14  1  0  0  0  0
 13 34  1  0  0  0  0
 14 15  1  0  0  0  0
 14 35  1  0  0  0  0
 14 36  1  0  0  0  0
 15 16  1  0  0  0  0
 15 37  1  0  0  0  0
 15 38  1  0  0  0  0
 16 17  1  0  0  0  0
 16 39  1  0  0  0  0
 16 40  1  0  0  0  0
 17 18  1  0  0  0  0
 18 19  1  0  0  0  0
 18 20  2  0  0  0  0
 18 21  2  0  0  0  0
 19 41  1  0  0  0  0
 19 42  1  0  0  0  0
 19 43  1  0  0  0  0
 22 23  2  0  0  0  0
 22 44  1  0  0  0  0
M  END
> <s_m_source_file>
AV-unprocessed.smi

> <i_m_source_file_index>
2053

> <i_lp_mmshare_version>
43012

> <i_f3d_flags>
0

> <s_epik_input>
W0NIM11PW0NIMl1bQ0gyXU9jMVtjSF1bY0hdYyhbY0hdbjEpW05IXUMoPU8pW0NAQEhdMltDSDJdW0NIMl1bQ0gyXU4yUyg9TykoPU8pW0NIM10=

> <s_epik_cmdline>
J2VwaWtfcHl0aG9uJywgJy1waCcsICc3LjAnLCAnLXRuJywgJzgnLCAnLW1hJywgJzIwMCcsICctbWV0YWxfYmluZGluZycsICctaW1hZScsICc8aW5maWxlLm1hZT4nLCAnLW9tYWUnLCAnPG91dGZpbGUubWFlPic=

> <r_lp_tautomer_probability>
1

> <r_epik_Ionization_Penalty>
1.28704e-05

> <r_epik_Ionization_Penalty_Charging>
0

> <r_epik_Ionization_Penalty_Neutral>
1.28704e-05

> <r_epik_State_Penalty>
-0

> <r_epik_Charging_Adjusted_Penalty>
0

> <i_epik_Tot_Q>
0

> <i_epik_Tot_abs_Q>
0

> <r_epik_Metal_State_Penalty>
-0

> <b_epik_Metal_Only>
0

> <s_lp_Force_Field>
OPLS_2005

> <r_lp_Energy>
12.3258

> <b_lp_Chiralities_Consistent>
1

> <s_lp_Variant>
AV-unprocessed.smi:2053-2

> <Gold.Version>
5.8.1

> <Gold.Id.Protein>
6NUR|6NUR_protein|mol2

> <Gold.PLP.Fitness>
41.0003

> <Gold.PLP.PLP>
-32.9225

> <Gold.PLP.part.hbond>
-3.0000

> <Gold.PLP.part.metal>
0.0000

> <Gold.PLP.part.buried>
-5.7680

> <Gold.PLP.part.nonpolar>
-23.6442

> <Gold.PLP.part.repulsive>
0.4646

> <Gold.PLP.ligand.clash>
0.0000

> <Gold.PLP.ligand.torsion>
0.7369

> <Gold.PLP.Chemscore.Hbond>
2.9913

> <Gold.PLP.Chemscore.CHOScore>
0.0000

> <Gold.PLP.Chemscore.Metal>
0.0000

> <Gold.Chemscore.Hbonds>
donor molecule, donor type, donor heavy atom, donor atom, acceptor molecule, acceptor atom, score
      P1  H  7989  7998       L1    20  1.00
      P1  H  7997  8008       L1    21  1.00
      P1  H 10752 10764       L1    12  0.94

> <Gold.PLP.Chemscore.Internal.Correction>
0.5777

> <Gold.Rescore>
     Score         DG    S(hbond)    S(metal)    S(lipo)     H(rot)  DE(clash)    DE(int)     intcor
     13.12     -15.48       2.65        0.00      59.31       2.26       0.24       2.12       ----

> <Gold.Chemscore.Fitness>
13.1183

> <Gold.Chemscore.DG>
-15.4789

> <Gold.Chemscore.ZeroCoef>
-5.4800

> <Gold.Chemscore.Hbond>
2.6464

> <Gold.Chemscore.Metal>
0.0000

> <Gold.Chemscore.Lipo>
59.3111

> <Gold.Chemscore.Internal_Hbond>
0.0000

> <Gold.Chemscore.DEClash>
0.2444

> <Gold.Chemscore.DEInternal>
2.1161

> <Gold.Chemscore.Rot>
2.2576

> <Gold.Chemscore.Internal.Correction>
   9.000000E+99

> <Gold.Chemscore.Hbonds>
donor molecule, donor type, donor heavy atom, donor atom, acceptor molecule, acceptor atom, score
      P1  H  7989  7998       L1    20  0.82
      P1  H  7997  8008       L1    21  0.95
      P1  H 10752 10764       L1    12  0.90

> <Gold.Chemscore.Hbond.Weighted>
-8.8391

> <Gold.Chemscore.Metal.Weighted>
-0.0000

> <Gold.Chemscore.Lipo.Weighted>
-6.9394

> <Gold.Chemscore.Internal_Hbond.Weighted>
0.0000

> <Gold.Chemscore.DEClash.Weighted>
0.2444

> <Gold.Chemscore.DEInternal.Weighted>
2.1161

> <Gold.Chemscore.Rot.Weighted>
5.7796

> <Gold.Chemscore.Internal.Correction.Weighted>
   9.000000E+99

> <Gold.Protein.RotatedTorsions>
[ 6907 6896 6895 6894 ] final  161.83 input  -60.11 | X-H torsion
[ 7974 7965 7964 7962 ] final -103.76 input  175.53 | X-H torsion
[ 8008 7997 7996 7995 ] final  -42.34 input   59.86 | X-H torsion
[ 10167 10162 10161 10158 ] final  118.36 input  -65.29 | X-H torsion
[ 10718 10713 10712 10709 ] final   33.56 input   66.30 | X-H torsion
[ 10763 10752 10751 10750 ] final  -36.09 input  -60.55 | X-H torsion
[ 11005 11000 10999 10996 ] final  -40.17 input  -57.11 | X-H torsion

> <Gold.Protein.ActiveResidues>
 VAL166  LYS551  ARG553  GLY616  TRP617  ASP618  TYR619  PRO620  LYS621  CYS622 
 ASP623  PHE694  ASN695  SER759  ASP760  ASP761  ALA762  ILE779  LEU786  VAL792 
 PHE793  MET794  SER795  GLU796  ALA797  LYS798  CYS799  TRP800  GLU811  SER814 

> <Gold.Protein.RotatedAtoms>
  151.9497  133.3662  159.3994 H   0  0  0  0  0  0  0  0  0  0  0  0  # atno 6907 bound_to 6896
  150.6983  134.4353  159.5276 H   0  0  0  0  0  0  0  0  0  0  0  0  # atno 6908 bound_to 6896
  152.2024  134.8575  160.0557 H   0  0  0  0  0  0  0  0  0  0  0  0  # atno 6909 bound_to 6896
  145.2518  140.9240  143.3091 H   0  0  0  0  0  0  0  0  0  0  0  0  # atno 7974 bound_to 7965
  154.3999  140.1476  156.3339 H   0  0  0  0  0  0  0  0  0  0  0  0  # atno 8008 bound_to 7997
  155.8418  140.3461  155.5616 H   0  0  0  0  0  0  0  0  0  0  0  0  # atno 8009 bound_to 7997
  155.8078  140.0879  157.1911 H   0  0  0  0  0  0  0  0  0  0  0  0  # atno 8010 bound_to 7997
  139.6116  144.7083  151.2830 H   0  0  0  0  0  0  0  0  0  0  0  0  # atno 10167 bound_to 10162
  157.2994  130.7343  149.6657 H   0  0  0  0  0  0  0  0  0  0  0  0  # atno 10718 bound_to 10713
  153.8741  135.6828  153.4772 H   0  0  0  0  0  0  0  0  0  0  0  0  # atno 10763 bound_to 10752
  153.1271  135.4714  154.9287 H   0  0  0  0  0  0  0  0  0  0  0  0  # atno 10764 bound_to 10752
  154.7700  135.3236  154.8159 H   0  0  0  0  0  0  0  0  0  0  0  0  # atno 10765 bound_to 10752
  141.0155  133.6887  156.2285 H   0  0  0  0  0  0  0  0  0  0  0  0  # atno 11005 bound_to 11000
  144.9496  139.4097  143.6409 LP  0  0  0  0  0  0  0  0  0  0  0  0  # atno 17320 bound_to 7965
  146.3300  139.8497  142.8875 LP  0  0  0  0  0  0  0  0  0  0  0  0  # atno 17321 bound_to 7965
  140.7323  143.6827  150.7988 LP  0  0  0  0  0  0  0  0  0  0  0  0  # atno 17342 bound_to 10162
  140.0422  143.5334  152.2712 LP  0  0  0  0  0  0  0  0  0  0  0  0  # atno 17343 bound_to 10162
  155.9671  130.4284  150.4789 LP  0  0  0  0  0  0  0  0  0  0  0  0  # atno 17370 bound_to 10713
  157.2767  131.0598  151.2224 LP  0  0  0  0  0  0  0  0  0  0  0  0  # atno 17371 bound_to 10713
  140.6662  134.4916  157.5585 LP  0  0  0  0  0  0  0  0  0  0  0  0  # atno 17394 bound_to 11000
  139.9114  134.8336  156.1514 LP  0  0  0  0  0  0  0  0  0  0  0  0  # atno 17395 bound_to 11000

$$$$
