AV-unprocessed.smi:2644|AV-procd|sdf|10277|dock3
  -GOLD-   2272014283D 1   1.00000     0.00000
 Structure written by MMmdl.
 42 44  0  0  0  0  0  0  0  0  1 V2000
  145.0769  143.6276  154.6689 C   0  0  0  0  0  0  0  0  0  0  0  0
  144.8342  142.5252  155.5308 O   0  0  0  0  0  0  0  0  0  0  0  0
  145.8193  141.5687  155.6506 C   0  0  0  0  0  0  0  0  0  0  0  0
  145.5589  140.4829  156.5109 C   0  0  0  0  0  0  0  0  0  0  0  0
  146.5202  139.4739  156.7070 C   0  0  0  0  0  0  0  0  0  0  0  0
  147.7584  139.5419  156.0430 C   0  0  0  0  0  0  0  0  0  0  0  0
  148.0358  140.6166  155.1719 C   0  0  0  0  0  0  0  0  0  0  0  0
  149.3964  140.7376  154.4951 C   0  0  2  0  0  0  0  0  0  0  0  0
  149.3046  141.2567  153.1837 O   0  0  0  0  0  0  0  0  0  0  0  0
  150.1523  139.3888  154.4391 C   0  0  0  0  0  0  0  0  0  0  0  0
  151.0266  139.1859  155.6026 N   0  0  0  0  0  0  0  0  0  0  0  0
  151.1358  140.2915  156.4279 N   0  0  0  0  0  0  0  0  0  0  0  0
  151.9447  140.2982  157.4361 C   0  0  0  0  0  0  0  0  0  0  0  0
  152.0252  141.5349  158.1922 C   0  0  0  0  0  0  0  0  0  0  0  0
  152.7575  141.6190  159.3502 C   0  0  0  0  0  0  0  0  0  0  0  0
  152.7063  142.9290  159.9143 C   0  0  0  0  0  0  0  0  0  0  0  0
  151.9489  143.8114  159.1828 C   0  0  0  0  0  0  0  0  0  0  0  0
  151.6843  145.2485  159.4792 C   0  0  0  0  0  0  0  0  0  0  0  0
  151.2716  143.0494  157.7650 S   0  0  0  0  0  0  0  0  0  0  0  0
  152.7158  139.1012  157.7398 C   0  0  0  0  0  0  0  0  0  0  0  0
  152.5945  138.0205  156.9388 C   0  0  0  0  0  0  0  0  0  0  0  0
  151.7138  138.0194  155.7726 C   0  0  0  0  0  0  0  0  0  0  0  0
  151.6129  137.0639  155.0035 O   0  0  0  0  0  0  0  0  0  0  0  0
  147.0637  141.6211  154.9743 C   0  0  0  0  0  0  0  0  0  0  0  0
  144.2294  144.3115  154.7115 H   0  0  0  0  0  0  0  0  0  0  0  0
  145.1889  143.3061  153.6325 H   0  0  0  0  0  0  0  0  0  0  0  0
  145.9647  144.1840  154.9737 H   0  0  0  0  0  0  0  0  0  0  0  0
  144.6149  140.4273  157.0328 H   0  0  0  0  0  0  0  0  0  0  0  0
  146.3108  138.6525  157.3761 H   0  0  0  0  0  0  0  0  0  0  0  0
  148.4984  138.7744  156.2158 H   0  0  0  0  0  0  0  0  0  0  0  0
  149.9950  141.4506  155.0633 H   0  0  0  0  0  0  0  0  0  0  0  0
  149.4346  140.5477  152.5725 H   0  0  0  0  0  0  0  0  0  0  0  0
  149.4303  138.5713  154.3887 H   0  0  0  0  0  0  0  0  0  0  0  0
  150.7296  139.3176  153.5152 H   0  0  0  0  0  0  0  0  0  0  0  0
  153.3193  140.8273  159.8218 H   0  0  0  0  0  0  0  0  0  0  0  0
  153.2235  143.1771  160.8296 H   0  0  0  0  0  0  0  0  0  0  0  0
  152.1016  145.5340  160.4452 H   0  0  0  0  0  0  0  0  0  0  0  0
  150.6130  145.4479  159.5040 H   0  0  0  0  0  0  0  0  0  0  0  0
  152.1301  145.8882  158.7172 H   0  0  0  0  0  0  0  0  0  0  0  0
  153.3800  139.0640  158.5886 H   0  0  0  0  0  0  0  0  0  0  0  0
  153.1669  137.1322  157.1624 H   0  0  0  0  0  0  0  0  0  0  0  0
  147.3059  142.4413  154.3157 H   0  0  0  0  0  0  0  0  0  0  0  0
  1  2  1  0  0  0  0
  1 25  1  0  0  0  0
  1 26  1  0  0  0  0
  1 27  1  0  0  0  0
  2  3  1  0  0  0  0
  3 24  1  0  0  0  0
  3  4  2  0  0  0  0
  4  5  1  0  0  0  0
  4 28  1  0  0  0  0
  5  6  2  0  0  0  0
  5 29  1  0  0  0  0
  6  7  1  0  0  0  0
  6 30  1  0  0  0  0
  7  8  1  0  0  0  0
  7 24  2  0  0  0  0
  8  9  1  0  0  0  0
  8 10  1  0  0  0  0
  8 31  1  0  0  0  0
  9 32  1  0  0  0  0
 10 11  1  0  0  0  0
 10 33  1  0  0  0  0
 10 34  1  0  0  0  0
 11 22  1  0  0  0  0
 11 12  1  0  0  0  0
 12 13  2  0  0  0  0
 13 14  1  0  0  0  0
 13 20  1  0  0  0  0
 14 19  1  0  0  0  0
 14 15  2  0  0  0  0
 15 16  1  0  0  0  0
 15 35  1  0  0  0  0
 16 17  2  0  0  0  0
 16 36  1  0  0  0  0
 17 18  1  0  0  0  0
 17 19  1  0  0  0  0
 18 37  1  0  0  0  0
 18 38  1  0  0  0  0
 18 39  1  0  0  0  0
 20 21  2  0  0  0  0
 20 40  1  0  0  0  0
 21 22  1  0  0  0  0
 21 41  1  0  0  0  0
 22 23  2  0  0  0  0
 24 42  1  0  0  0  0
M  END
> <s_m_source_file>
AV-unprocessed.smi

> <i_m_source_file_index>
2644

> <i_lp_mmshare_version>
43012

> <i_f3d_flags>
0

> <s_epik_input>
W0NIM11PYzFbY0hdW2NIXVtjSF1jKFtjSF0xKVtDQEhdKFtPSF0pW0NIMl1uMm5jKFtjSF1bY0hdYzI9TyktYzNbY0hdW2NIXWMoczMpW0NIM10=

> <s_epik_cmdline>
J2VwaWtfcHl0aG9uJywgJy1waCcsICc3LjAnLCAnLXRuJywgJzgnLCAnLW1hJywgJzIwMCcsICctbWV0YWxfYmluZGluZycsICctaW1hZScsICc8aW5maWxlLm1hZT4nLCAnLW9tYWUnLCAnPG91dGZpbGUubWFlPic=

> <r_lp_tautomer_probability>
1

> <r_epik_Ionization_Penalty>
1.30631e-07

> <r_epik_Ionization_Penalty_Charging>
5.89185e-08

> <r_epik_Ionization_Penalty_Neutral>
7.1713e-08

> <r_epik_State_Penalty>
-0

> <r_epik_Charging_Adjusted_Penalty>
5.89185e-08

> <i_epik_Tot_Q>
0

> <i_epik_Tot_abs_Q>
0

> <r_epik_Metal_State_Penalty>
-0

> <b_epik_Metal_Only>
0

> <s_lp_Force_Field>
OPLS_2005

> <r_lp_Energy>
28.4714

> <b_lp_Chiralities_Consistent>
1

> <s_lp_Variant>
AV-unprocessed.smi:2644-1

> <Gold.Version>
5.8.1

> <Gold.Id.Protein>
6NUR|6NUR_protein|mol2

> <Gold.PLP.Fitness>
49.4482

> <Gold.PLP.PLP>
-42.7745

> <Gold.PLP.part.hbond>
-3.4076

> <Gold.PLP.part.metal>
0.0000

> <Gold.PLP.part.buried>
-5.2874

> <Gold.PLP.part.nonpolar>
-34.9824

> <Gold.PLP.part.repulsive>
0.2465

> <Gold.PLP.ligand.clash>
0.0000

> <Gold.PLP.ligand.torsion>
1.1106

> <Gold.PLP.Chemscore.Hbond>
2.9429

> <Gold.PLP.Chemscore.CHOScore>
0.0000

> <Gold.PLP.Chemscore.Metal>
0.0000

> <Gold.Chemscore.Hbonds>
donor molecule, donor type, donor heavy atom, donor atom, acceptor molecule, acceptor atom, score
      L1  H     9    32       P1  7957  0.93
      P1  H  8011  8017       L1     9  0.93
      P1  H 10752 10765       L1    23  1.00

> <Gold.PLP.Chemscore.Internal.Correction>
0.0664

> <Gold.Rescore>
     Score         DG    S(hbond)    S(metal)    S(lipo)     H(rot)  DE(clash)    DE(int)     intcor
     20.86     -21.71       2.33        0.00     115.47       1.98       0.02       0.82       ----

> <Gold.Chemscore.Fitness>
20.8634

> <Gold.Chemscore.DG>
-21.7062

> <Gold.Chemscore.ZeroCoef>
-5.4800

> <Gold.Chemscore.Hbond>
2.3292

> <Gold.Chemscore.Metal>
0.0000

> <Gold.Chemscore.Lipo>
115.4650

> <Gold.Chemscore.Internal_Hbond>
0.0000

> <Gold.Chemscore.DEClash>
0.0207

> <Gold.Chemscore.DEInternal>
0.8221

> <Gold.Chemscore.Rot>
1.9777

> <Gold.Chemscore.Internal.Correction>
   9.000000E+99

> <Gold.Chemscore.Hbonds>
donor molecule, donor type, donor heavy atom, donor atom, acceptor molecule, acceptor atom, score
      L1  H     9    32       P1  7957  0.85
      P1  H  8011  8017       L1     9  0.19
      P1  H 10752 10765       L1    23  0.92

> <Gold.Chemscore.Hbond.Weighted>
-7.7797

> <Gold.Chemscore.Metal.Weighted>
-0.0000

> <Gold.Chemscore.Lipo.Weighted>
-13.5094

> <Gold.Chemscore.Internal_Hbond.Weighted>
0.0000

> <Gold.Chemscore.DEClash.Weighted>
0.0207

> <Gold.Chemscore.DEInternal.Weighted>
0.8221

> <Gold.Chemscore.Rot.Weighted>
5.0629

> <Gold.Chemscore.Internal.Correction.Weighted>
   9.000000E+99

> <Gold.Protein.RotatedTorsions>
[ 6907 6896 6895 6894 ] final   68.16 input  -60.11 | X-H torsion
[ 7974 7965 7964 7962 ] final  -55.20 input  175.53 | X-H torsion
[ 8008 7997 7996 7995 ] final  133.41 input   59.86 | X-H torsion
[ 10167 10162 10161 10158 ] final  -22.06 input  -65.29 | X-H torsion
[ 10718 10713 10712 10709 ] final  -76.05 input   66.30 | X-H torsion
[ 10763 10752 10751 10750 ] final  168.37 input  -60.55 | X-H torsion
[ 11005 11000 10999 10996 ] final   36.63 input  -57.11 | X-H torsion

> <Gold.Protein.ActiveResidues>
 VAL166  LYS551  ARG553  GLY616  TRP617  ASP618  TYR619  PRO620  LYS621  CYS622 
 ASP623  PHE694  ASN695  SER759  ASP760  ASP761  ALA762  ILE779  LEU786  VAL792 
 PHE793  MET794  SER795  GLU796  ALA797  LYS798  CYS799  TRP800  GLU811  SER814 

> <Gold.Protein.RotatedAtoms>
  152.4601  134.5203  159.9780 H   0  0  0  0  0  0  0  0  0  0  0  0  # atno 6907 bound_to 6896
  151.5254  133.3453  159.2916 H   0  0  0  0  0  0  0  0  0  0  0  0  # atno 6908 bound_to 6896
  150.8561  134.7930  159.7109 H   0  0  0  0  0  0  0  0  0  0  0  0  # atno 6909 bound_to 6896
  145.8768  140.8174  142.9860 H   0  0  0  0  0  0  0  0  0  0  0  0  # atno 7974 bound_to 7965
  156.2992  140.2522  156.3248 H   0  0  0  0  0  0  0  0  0  0  0  0  # atno 8008 bound_to 7997
  154.9200  140.0401  157.2012 H   0  0  0  0  0  0  0  0  0  0  0  0  # atno 8009 bound_to 7997
  154.8320  140.2877  155.5720 H   0  0  0  0  0  0  0  0  0  0  0  0  # atno 8010 bound_to 7997
  140.7284  143.4569  151.0435 H   0  0  0  0  0  0  0  0  0  0  0  0  # atno 10167 bound_to 10162
  156.0187  130.4456  150.3135 H   0  0  0  0  0  0  0  0  0  0  0  0  # atno 10718 bound_to 10713
  154.3676  135.2753  155.2284 H   0  0  0  0  0  0  0  0  0  0  0  0  # atno 10763 bound_to 10752
  154.4446  135.5946  153.6155 H   0  0  0  0  0  0  0  0  0  0  0  0  # atno 10764 bound_to 10752
  152.9840  135.6027  154.3904 H   0  0  0  0  0  0  0  0  0  0  0  0  # atno 10765 bound_to 10752
  140.2306  134.3532  155.7965 H   0  0  0  0  0  0  0  0  0  0  0  0  # atno 11005 bound_to 11000
  144.6726  140.1323  143.7443 LP  0  0  0  0  0  0  0  0  0  0  0  0  # atno 17320 bound_to 7965
  145.9071  139.2464  143.1459 LP  0  0  0  0  0  0  0  0  0  0  0  0  # atno 17321 bound_to 7965
  139.8251  143.7767  152.3178 LP  0  0  0  0  0  0  0  0  0  0  0  0  # atno 17342 bound_to 10162
  139.7863  144.7426  151.0017 LP  0  0  0  0  0  0  0  0  0  0  0  0  # atno 17343 bound_to 10162
  157.1237  131.0253  151.2999 LP  0  0  0  0  0  0  0  0  0  0  0  0  # atno 17370 bound_to 10713
  157.4607  130.7652  149.7234 LP  0  0  0  0  0  0  0  0  0  0  0  0  # atno 17371 bound_to 10713
  141.2218  133.7243  156.8726 LP  0  0  0  0  0  0  0  0  0  0  0  0  # atno 17394 bound_to 11000
  140.1754  134.9070  157.2884 LP  0  0  0  0  0  0  0  0  0  0  0  0  # atno 17395 bound_to 11000

$$$$
