AV-unprocessed.smi:3231|AV-procd|sdf|12337|dock6
  -GOLD-   2272018193D 1   1.00000     0.00000
 Structure written by MMmdl.
 40 41  0  0  0  0  0  0  0  0  1 V2000
  149.2678  141.2691  153.2781 O   0  0  0  0  0  0  0  0  0  0  0  0
  148.5187  140.8047  154.3821 C   0  0  2  0  0  0  0  0  0  0  0  0
  149.4578  139.9421  155.2416 C   0  0  0  0  0  0  0  0  0  0  0  0
  150.7965  140.5192  155.3080 N   0  0  0  0  0  0  0  0  0  0  0  0
  150.8438  141.8070  155.9949 C   0  0  0  0  0  0  0  0  0  0  0  0
  150.8390  141.6320  157.5219 C   0  0  0  0  0  0  0  0  0  0  0  0
  151.5562  142.6963  158.2007 N   0  0  0  0  0  0  0  0  0  0  0  0
  151.4597  144.0576  158.0019 C   0  0  0  0  0  0  0  0  0  0  0  0
  152.3217  144.6575  158.8746 C   0  0  0  0  0  0  0  0  0  0  0  0
  152.9085  143.5660  159.5738 C   0  0  0  0  0  0  0  0  0  0  0  0
  152.4494  142.3933  159.1674 N   0  0  0  0  0  0  0  0  0  0  0  0
  147.3151  139.9995  153.8432 C   0  0  0  0  0  0  0  0  0  0  0  0
  146.3998  139.4711  154.8561 N   0  0  0  0  0  0  0  0  0  0  0  0
  145.5299  140.5244  155.3692 C   0  0  0  0  0  0  0  0  0  0  0  0
  144.5576  139.9991  156.4393 C   0  0  0  0  0  0  0  0  0  0  0  0
  143.7868  138.9316  155.8981 O   0  0  0  0  0  0  0  0  0  0  0  0
  144.5943  137.8586  155.4253 C   0  0  0  0  0  0  0  0  0  0  0  0
  145.5708  138.3764  154.3546 C   0  0  0  0  0  0  0  0  0  0  0  0
  149.2680  140.5979  152.6129 H   0  0  0  0  0  0  0  0  0  0  0  0
  148.1997  141.6667  154.9670 H   0  0  0  0  0  0  0  0  0  0  0  0
  149.0455  139.8263  156.2448 H   0  0  0  0  0  0  0  0  0  0  0  0
  149.5199  138.9408  154.8132 H   0  0  0  0  0  0  0  0  0  0  0  0
  151.4286  139.8656  155.7594 H   0  0  0  0  0  0  0  0  0  0  0  0
  151.7292  142.3660  155.6894 H   0  0  0  0  0  0  0  0  0  0  0  0
  149.9821  142.4086  155.7040 H   0  0  0  0  0  0  0  0  0  0  0  0
  149.8125  141.6220  157.8904 H   0  0  0  0  0  0  0  0  0  0  0  0
  151.2798  140.6741  157.8015 H   0  0  0  0  0  0  0  0  0  0  0  0
  150.7914  144.4802  157.2665 H   0  0  0  0  0  0  0  0  0  0  0  0
  152.5049  145.7148  158.9956 H   0  0  0  0  0  0  0  0  0  0  0  0
  153.6495  143.5908  160.3592 H   0  0  0  0  0  0  0  0  0  0  0  0
  146.7604  140.6422  153.1579 H   0  0  0  0  0  0  0  0  0  0  0  0
  147.6791  139.1704  153.2344 H   0  0  0  0  0  0  0  0  0  0  0  0
  146.1326  141.3269  155.7960 H   0  0  0  0  0  0  0  0  0  0  0  0
  144.9595  140.9651  154.5500 H   0  0  0  0  0  0  0  0  0  0  0  0
  145.1013  139.6550  157.3205 H   0  0  0  0  0  0  0  0  0  0  0  0
  143.8865  140.7935  156.7657 H   0  0  0  0  0  0  0  0  0  0  0  0
  145.1379  137.4098  156.2581 H   0  0  0  0  0  0  0  0  0  0  0  0
  143.9502  137.0843  155.0086 H   0  0  0  0  0  0  0  0  0  0  0  0
  145.0059  138.7087  153.4823 H   0  0  0  0  0  0  0  0  0  0  0  0
  146.1929  137.5451  154.0267 H   0  0  0  0  0  0  0  0  0  0  0  0
  1  2  1  0  0  0  0
  1 19  1  0  0  0  0
  2  3  1  0  0  0  0
  2 12  1  0  0  0  0
  2 20  1  0  0  0  0
  3  4  1  0  0  0  0
  3 21  1  0  0  0  0
  3 22  1  0  0  0  0
  4  5  1  0  0  0  0
  4 23  1  0  0  0  0
  5  6  1  0  0  0  0
  5 24  1  0  0  0  0
  5 25  1  0  0  0  0
  6  7  1  0  0  0  0
  6 26  1  0  0  0  0
  6 27  1  0  0  0  0
  7 11  1  0  0  0  0
  7  8  1  0  0  0  0
  8  9  2  0  0  0  0
  8 28  1  0  0  0  0
  9 10  1  0  0  0  0
  9 29  1  0  0  0  0
 10 11  2  0  0  0  0
 10 30  1  0  0  0  0
 12 13  1  0  0  0  0
 12 31  1  0  0  0  0
 12 32  1  0  0  0  0
 13 18  1  0  0  0  0
 13 14  1  0  0  0  0
 14 15  1  0  0  0  0
 14 33  1  0  0  0  0
 14 34  1  0  0  0  0
 15 16  1  0  0  0  0
 15 35  1  0  0  0  0
 15 36  1  0  0  0  0
 16 17  1  0  0  0  0
 17 18  1  0  0  0  0
 17 37  1  0  0  0  0
 17 38  1  0  0  0  0
 18 39  1  0  0  0  0
 18 40  1  0  0  0  0
M  END
> <s_m_source_file>
AV-unprocessed.smi

> <i_m_source_file_index>
3231

> <i_lp_mmshare_version>
43012

> <i_f3d_flags>
0

> <s_epik_input>
W0NIMl0xW0NIMl1PW0NIMl1bQ0gyXU4xW0NIMl1bQ0BIXShbT0hdKVtDSDJdW05IXVtDSDJdW0NIMl1uMltjSF1bY0hdW2NIXW4y

> <s_epik_cmdline>
J2VwaWtfcHl0aG9uJywgJy1waCcsICc3LjAnLCAnLXRuJywgJzgnLCAnLW1hJywgJzIwMCcsICctbWV0YWxfYmluZGluZycsICctaW1hZScsICc8aW5maWxlLm1hZT4nLCAnLW9tYWUnLCAnPG91dGZpbGUubWFlPic=

> <r_lp_tautomer_probability>
1

> <r_epik_Ionization_Penalty>
2.37071

> <r_epik_Ionization_Penalty_Charging>
0

> <r_epik_Ionization_Penalty_Neutral>
2.37071

> <r_epik_State_Penalty>
1.72455

> <r_epik_Charging_Adjusted_Penalty>
1.72455

> <i_epik_Tot_Q>
0

> <i_epik_Tot_abs_Q>
0

> <r_epik_Metal_State_Penalty>
1.72366

> <b_epik_Metal_Only>
0

> <s_lp_Force_Field>
OPLS_2005

> <r_lp_Energy>
31.2728

> <b_lp_Chiralities_Consistent>
1

> <s_lp_Variant>
AV-unprocessed.smi:3231-7

> <Gold.Version>
5.8.1

> <Gold.Id.Protein>
6NUR|6NUR_protein|mol2

> <Gold.PLP.Fitness>
41.9314

> <Gold.PLP.PLP>
-31.6604

> <Gold.PLP.part.hbond>
-3.4806

> <Gold.PLP.part.metal>
0.0000

> <Gold.PLP.part.buried>
-5.2776

> <Gold.PLP.part.nonpolar>
-23.1112

> <Gold.PLP.part.repulsive>
0.1314

> <Gold.PLP.ligand.clash>
0.0000

> <Gold.PLP.ligand.torsion>
0.8095

> <Gold.PLP.Chemscore.Hbond>
2.9040

> <Gold.PLP.Chemscore.CHOScore>
1.0000

> <Gold.PLP.Chemscore.Metal>
0.0000

> <Gold.Chemscore.Hbonds>
donor molecule, donor type, donor heavy atom, donor atom, acceptor molecule, acceptor atom, score
      L1  H     1    19       P1  7957  1.00
      P1  H  7989  7998       L1     4  0.98
      P1  H  8011  8017       L1     1  0.75
      L1  C     8    28       P1  8028  1.00

> <Gold.PLP.Chemscore.Internal.Correction>
0.1781

> <Gold.Rescore>
     Score         DG    S(hbond)    S(metal)    S(lipo)     H(rot)  DE(clash)    DE(int)     intcor
     11.97     -12.68       1.55        0.00      76.78       2.72       0.01       0.70       ----

> <Gold.Chemscore.Fitness>
11.9703

> <Gold.Chemscore.DG>
-12.6806

> <Gold.Chemscore.ZeroCoef>
-5.4800

> <Gold.Chemscore.Hbond>
1.5498

> <Gold.Chemscore.Metal>
0.0000

> <Gold.Chemscore.Lipo>
76.7798

> <Gold.Chemscore.Internal_Hbond>
0.0000

> <Gold.Chemscore.DEClash>
0.0149

> <Gold.Chemscore.DEInternal>
0.6954

> <Gold.Chemscore.Rot>
2.7183

> <Gold.Chemscore.Internal.Correction>
   9.000000E+99

> <Gold.Chemscore.Hbonds>
donor molecule, donor type, donor heavy atom, donor atom, acceptor molecule, acceptor atom, score
      L1  H     1    19       P1  7957  0.94
      P1  H  7989  7998       L1     4  0.17
      P1  H  8011  8017       L1     1  0.09

> <Gold.Chemscore.Hbond.Weighted>
-5.1762

> <Gold.Chemscore.Metal.Weighted>
-0.0000

> <Gold.Chemscore.Lipo.Weighted>
-8.9832

> <Gold.Chemscore.Internal_Hbond.Weighted>
0.0000

> <Gold.Chemscore.DEClash.Weighted>
0.0149

> <Gold.Chemscore.DEInternal.Weighted>
0.6954

> <Gold.Chemscore.Rot.Weighted>
6.9589

> <Gold.Chemscore.Internal.Correction.Weighted>
   9.000000E+99

> <Gold.Protein.RotatedTorsions>
[ 6907 6896 6895 6894 ] final  -43.11 input  -60.11 | X-H torsion
[ 7974 7965 7964 7962 ] final   89.10 input  175.53 | X-H torsion
[ 8008 7997 7996 7995 ] final   30.58 input   59.86 | X-H torsion
[ 10167 10162 10161 10158 ] final -111.69 input  -65.29 | X-H torsion
[ 10718 10713 10712 10709 ] final  -63.16 input   66.30 | X-H torsion
[ 10763 10752 10751 10750 ] final  -34.78 input  -60.55 | X-H torsion
[ 11005 11000 10999 10996 ] final  -26.30 input  -57.11 | X-H torsion

> <Gold.Protein.ActiveResidues>
 VAL166  LYS551  ARG553  GLY616  TRP617  ASP618  TYR619  PRO620  LYS621  CYS622 
 ASP623  PHE694  ASN695  SER759  ASP760  ASP761  ALA762  ILE779  LEU786  VAL792 
 PHE793  MET794  SER795  GLU796  ALA797  LYS798  CYS799  TRP800  GLU811  SER814 

> <Gold.Protein.RotatedAtoms>
  150.9476  134.8879  159.7651 H   0  0  0  0  0  0  0  0  0  0  0  0  # atno 6907 bound_to 6896
  152.5106  134.3852  159.9375 H   0  0  0  0  0  0  0  0  0  0  0  0  # atno 6908 bound_to 6896
  151.3870  133.3761  159.2751 H   0  0  0  0  0  0  0  0  0  0  0  0  # atno 6909 bound_to 6896
  145.5369  139.2286  143.2588 H   0  0  0  0  0  0  0  0  0  0  0  0  # atno 7974 bound_to 7965
  155.0927  140.3221  155.4569 H   0  0  0  0  0  0  0  0  0  0  0  0  # atno 8008 bound_to 7997
  156.2738  140.2075  156.6000 H   0  0  0  0  0  0  0  0  0  0  0  0  # atno 8009 bound_to 7997
  154.6891  140.0518  157.0332 H   0  0  0  0  0  0  0  0  0  0  0  0  # atno 8010 bound_to 7997
  140.1308  143.4362  152.1629 H   0  0  0  0  0  0  0  0  0  0  0  0  # atno 10167 bound_to 10162
  156.0808  130.4217  150.1238 H   0  0  0  0  0  0  0  0  0  0  0  0  # atno 10718 bound_to 10713
  153.8524  135.6847  153.4791 H   0  0  0  0  0  0  0  0  0  0  0  0  # atno 10763 bound_to 10752
  153.1389  135.4666  154.9464 H   0  0  0  0  0  0  0  0  0  0  0  0  # atno 10764 bound_to 10752
  154.7796  135.3264  154.7966 H   0  0  0  0  0  0  0  0  0  0  0  0  # atno 10765 bound_to 10752
  140.9017  133.7520  156.0552 H   0  0  0  0  0  0  0  0  0  0  0  0  # atno 11005 bound_to 11000
  146.2007  140.6187  142.9103 LP  0  0  0  0  0  0  0  0  0  0  0  0  # atno 17320 bound_to 7965
  144.7597  140.5392  143.6744 LP  0  0  0  0  0  0  0  0  0  0  0  0  # atno 17321 bound_to 7965
  139.5521  144.7345  151.4405 LP  0  0  0  0  0  0  0  0  0  0  0  0  # atno 17342 bound_to 10162
  140.6818  143.8064  150.7132 LP  0  0  0  0  0  0  0  0  0  0  0  0  # atno 17343 bound_to 10162
  156.9269  130.9701  151.3539 LP  0  0  0  0  0  0  0  0  0  0  0  0  # atno 17370 bound_to 10713
  157.5924  130.8453  149.8679 LP  0  0  0  0  0  0  0  0  0  0  0  0  # atno 17371 bound_to 10713
  140.8222  134.3276  157.5378 LP  0  0  0  0  0  0  0  0  0  0  0  0  # atno 17394 bound_to 11000
  139.8743  134.9316  156.3531 LP  0  0  0  0  0  0  0  0  0  0  0  0  # atno 17395 bound_to 11000

$$$$
