AV-unprocessed.smi:212|AV-procd|sdf|1632|dock10
  -GOLD-   2262019593D 1   1.00000     0.00000
 Structure written by MMmdl.
 65 68  0  0  0  0  0  0  0  0  2 V2000
  148.6760  129.8418  153.8219 C   0  0  0  0  0  0  0  0  0  0  0  0
  148.2999  131.1846  153.1657 C   0  0  1  0  0  0  0  0  0  0  0  0
  146.8101  131.5347  153.3537 C   0  0  0  0  0  0  0  0  0  0  0  0
  146.4679  132.7941  152.6415 N   0  3  1  0  0  0  0  0  0  0  0  0
  145.0179  133.1227  152.6895 C   0  0  0  0  0  0  0  0  0  0  0  0
  144.3975  133.3291  151.2866 C   0  0  0  0  0  0  0  0  0  0  0  0
  144.7048  134.7481  150.7789 C   0  0  0  0  0  0  0  0  0  0  0  0
  144.8886  132.2823  150.2696 C   0  0  0  0  0  0  0  0  0  0  0  0
  142.9899  133.2349  151.3765 O   0  0  0  0  0  0  0  0  0  0  0  0
  147.3330  133.9275  153.0591 C   0  0  0  0  0  0  0  0  0  0  0  0
  148.8301  133.5772  152.9313 C   0  0  0  0  0  0  0  0  0  0  0  0
  149.1572  132.3043  153.5685 N   0  0  0  0  0  0  0  0  0  0  0  0
  149.5143  132.3893  154.8722 C   0  0  0  0  0  0  0  0  0  0  0  0
  150.7484  131.9880  155.2736 N   0  0  0  0  0  0  0  0  0  0  0  0
  151.0971  132.0871  156.5602 C   0  0  0  0  0  0  0  0  0  0  0  0
  150.3795  132.5495  157.5866 N   0  0  0  0  0  0  0  0  0  0  0  0
  149.1399  132.9514  157.1833 C   0  0  0  0  0  0  0  0  0  0  0  0
  148.6308  132.9047  155.8561 C   0  0  0  0  0  0  0  0  0  0  0  0
  147.3322  133.3960  155.8232 N   0  0  0  0  0  0  0  0  0  0  0  0
  147.0837  133.7116  157.0655 C   0  0  0  0  0  0  0  0  0  0  0  0
  148.1129  133.4748  157.9487 N   0  0  0  0  0  0  0  0  0  0  0  0
  148.1034  133.7321  159.3774 C   0  0  0  0  0  0  0  0  0  0  0  0
  147.0947  132.8582  160.1690 C   0  0  1  0  0  0  0  0  0  0  0  0
  147.6897  131.4846  160.5731 C   0  0  0  0  0  0  0  0  0  0  0  0
  148.1780  130.7700  159.4560 O   0  0  0  0  0  0  0  0  0  0  0  0
  146.5795  133.6261  161.4144 C   0  0  1  0  0  0  0  0  0  0  0  0
  147.4743  133.5371  162.6400 C   0  0  0  0  0  0  0  0  0  0  0  0
  146.9860  134.7122  163.4757 C   0  0  0  0  0  0  0  0  0  0  0  0
  146.6798  135.7281  162.5311 O   0  0  0  0  0  0  0  0  0  0  0  0
  146.4852  135.1497  161.2431 C   0  0  0  0  0  0  0  0  0  0  0  0
  148.0830  129.0278  153.4043 H   0  0  0  0  0  0  0  0  0  0  0  0
  148.5029  129.8507  154.8985 H   0  0  0  0  0  0  0  0  0  0  0  0
  149.7258  129.6011  153.6511 H   0  0  0  0  0  0  0  0  0  0  0  0
  148.4688  131.0588  152.0953 H   0  0  0  0  0  0  0  0  0  0  0  0
  146.1973  130.7178  152.9742 H   0  0  0  0  0  0  0  0  0  0  0  0
  146.5705  131.6357  154.4130 H   0  0  0  0  0  0  0  0  0  0  0  0
  144.4765  132.3549  153.2451 H   0  0  0  0  0  0  0  0  0  0  0  0
  144.8733  134.0436  153.2572 H   0  0  0  0  0  0  0  0  0  0  0  0
  145.7788  134.9040  150.6702 H   0  0  0  0  0  0  0  0  0  0  0  0
  144.3310  135.5076  151.4669 H   0  0  0  0  0  0  0  0  0  0  0  0
  144.2477  134.9331  149.8057 H   0  0  0  0  0  0  0  0  0  0  0  0
  145.9741  132.3099  150.1701 H   0  0  0  0  0  0  0  0  0  0  0  0
  144.4646  132.4617  149.2807 H   0  0  0  0  0  0  0  0  0  0  0  0
  144.6096  131.2692  150.5611 H   0  0  0  0  0  0  0  0  0  0  0  0
  142.6077  133.7367  150.6720 H   0  0  0  0  0  0  0  0  0  0  0  0
  147.1164  134.7995  152.4410 H   0  0  0  0  0  0  0  0  0  0  0  0
  147.0904  134.2051  154.0852 H   0  0  0  0  0  0  0  0  0  0  0  0
  149.0990  133.5025  151.8771 H   0  0  0  0  0  0  0  0  0  0  0  0
  149.4424  134.3788  153.3475 H   0  0  0  0  0  0  0  0  0  0  0  0
  152.0939  131.7489  156.8025 H   0  0  0  0  0  0  0  0  0  0  0  0
  146.1351  134.1247  157.3764 H   0  0  0  0  0  0  0  0  0  0  0  0
  149.1125  133.5827  159.7638 H   0  0  0  0  0  0  0  0  0  0  0  0
  147.8799  134.7907  159.5090 H   0  0  0  0  0  0  0  0  0  0  0  0
  146.2323  132.6733  159.5262 H   0  0  0  0  0  0  0  0  0  0  0  0
  148.4869  131.6076  161.3071 H   0  0  0  0  0  0  0  0  0  0  0  0
  146.9375  130.8469  161.0349 H   0  0  0  0  0  0  0  0  0  0  0  0
  149.1225  130.8023  159.4688 H   0  0  0  0  0  0  0  0  0  0  0  0
  145.5926  133.2481  161.6869 H   0  0  0  0  0  0  0  0  0  0  0  0
  147.3871  132.5892  163.1718 H   0  0  0  0  0  0  0  0  0  0  0  0
  148.5198  133.6828  162.3642 H   0  0  0  0  0  0  0  0  0  0  0  0
  146.0748  134.4450  164.0123 H   0  0  0  0  0  0  0  0  0  0  0  0
  147.7244  135.0484  164.2036 H   0  0  0  0  0  0  0  0  0  0  0  0
  147.2719  135.5197  160.5842 H   0  0  0  0  0  0  0  0  0  0  0  0
  145.5262  135.4581  160.8264 H   0  0  0  0  0  0  0  0  0  0  0  0
  146.6816  132.6340  151.6676 H   0  0  0  0  0  0  0  0  0  0  0  0
  1  2  1  0  0  0  0
  1 31  1  0  0  0  0
  1 32  1  0  0  0  0
  1 33  1  0  0  0  0
  2 12  1  0  0  0  0
  2  3  1  0  0  0  0
  2 34  1  0  0  0  0
  3  4  1  0  0  0  0
  3 35  1  0  0  0  0
  3 36  1  0  0  0  0
  4  5  1  0  0  0  0
  4 10  1  0  0  0  0
  4 65  1  0  0  0  0
  5  6  1  0  0  0  0
  5 37  1  0  0  0  0
  5 38  1  0  0  0  0
  6  7  1  0  0  0  0
  6  8  1  0  0  0  0
  6  9  1  0  0  0  0
  7 39  1  0  0  0  0
  7 40  1  0  0  0  0
  7 41  1  0  0  0  0
  8 42  1  0  0  0  0
  8 43  1  0  0  0  0
  8 44  1  0  0  0  0
  9 45  1  0  0  0  0
 10 11  1  0  0  0  0
 10 46  1  0  0  0  0
 10 47  1  0  0  0  0
 11 12  1  0  0  0  0
 11 48  1  0  0  0  0
 11 49  1  0  0  0  0
 12 13  1  0  0  0  0
 13 18  1  0  0  0  0
 13 14  2  0  0  0  0
 14 15  1  0  0  0  0
 15 16  2  0  0  0  0
 15 50  1  0  0  0  0
 16 17  1  0  0  0  0
 17 21  1  0  0  0  0
 17 18  2  0  0  0  0
 18 19  1  0  0  0  0
 19 20  2  0  0  0  0
 20 21  1  0  0  0  0
 20 51  1  0  0  0  0
 21 22  1  0  0  0  0
 22 23  1  0  0  0  0
 22 52  1  0  0  0  0
 22 53  1  0  0  0  0
 23 24  1  0  0  0  0
 23 26  1  0  0  0  0
 23 54  1  0  0  0  0
 24 25  1  0  0  0  0
 24 55  1  0  0  0  0
 24 56  1  0  0  0  0
 25 57  1  0  0  0  0
 26 30  1  0  0  0  0
 26 27  1  0  0  0  0
 26 58  1  0  0  0  0
 27 28  1  0  0  0  0
 27 59  1  0  0  0  0
 27 60  1  0  0  0  0
 28 29  1  0  0  0  0
 28 61  1  0  0  0  0
 28 62  1  0  0  0  0
 29 30  1  0  0  0  0
 30 63  1  0  0  0  0
 30 64  1  0  0  0  0
M  CHG  1   4   1
M  END
> <s_m_source_file>
AV-unprocessed.smi

> <i_m_source_file_index>
212

> <i_lp_mmshare_version>
43012

> <i_f3d_flags>
0

> <s_epik_input>
W0NIM11bQ0BASF0xW0NIMl1OKFtDSDJdQyhbQ0gzXSkoW0NIM10pW09IXSlbQ0gyXVtDSDJdTjFjKG5bY0hdbjIpYyhjMjMpbltjSF1uM1tDSDJdW0NASF0oW0NIMl1bT0hdKVtDQEBIXTRbQ0gyXVtDSDJdT1tDSDJdNA==

> <s_epik_cmdline>
J2VwaWtfcHl0aG9uJywgJy1waCcsICc3LjAnLCAnLXRuJywgJzgnLCAnLW1hJywgJzIwMCcsICctbWV0YWxfYmluZGluZycsICctaW1hZScsICc8aW5maWxlLm1hZT4nLCAnLW9tYWUnLCAnPG91dGZpbGUubWFlPic=

> <r_lp_tautomer_probability>
1

> <r_epik_Ionization_Penalty>
0.00182193

> <r_epik_Ionization_Penalty_Charging>
0.00173996

> <r_epik_Ionization_Penalty_Neutral>
8.19718e-05

> <r_epik_State_Penalty>
-0

> <r_epik_Charging_Adjusted_Penalty>
0.00173996

> <i_epik_Tot_Q>
1

> <i_epik_Tot_abs_Q>
1

> <r_epik_Metal_State_Penalty>
-0

> <b_epik_Metal_Only>
0

> <s_lp_Force_Field>
OPLS_2005

> <r_lp_Energy>
59.0262

> <b_lp_Chiralities_Consistent>
1

> <s_lp_Variant>
AV-unprocessed.smi:212-16

> <Gold.Version>
5.8.1

> <Gold.Id.Protein>
6NUR|6NUR_protein|mol2

> <Gold.PLP.Fitness>
48.9079

> <Gold.PLP.PLP>
-41.6322

> <Gold.PLP.part.hbond>
-4.0000

> <Gold.PLP.part.metal>
0.0000

> <Gold.PLP.part.buried>
-5.9739

> <Gold.PLP.part.nonpolar>
-31.9708

> <Gold.PLP.part.repulsive>
0.0885

> <Gold.PLP.ligand.clash>
0.0000

> <Gold.PLP.ligand.torsion>
2.0920

> <Gold.PLP.Chemscore.Hbond>
3.4720

> <Gold.PLP.Chemscore.CHOScore>
0.0000

> <Gold.PLP.Chemscore.Metal>
0.0000

> <Gold.Chemscore.Hbonds>
donor molecule, donor type, donor heavy atom, donor atom, acceptor molecule, acceptor atom, score
      L1  H     9    45       P1 10186  0.91
      P1  H  6896  6908       L1    16  1.00

> <Gold.PLP.Chemscore.Internal.Correction>
1.0436

> <Gold.Rescore>
     Score         DG    S(hbond)    S(metal)    S(lipo)     H(rot)  DE(clash)    DE(int)     intcor
     13.27     -16.65       2.81        0.00      95.72       3.68       0.00       3.38       ----

> <Gold.Chemscore.Fitness>
13.2676

> <Gold.Chemscore.DG>
-16.6463

> <Gold.Chemscore.ZeroCoef>
-5.4800

> <Gold.Chemscore.Hbond>
2.8116

> <Gold.Chemscore.Metal>
0.0000

> <Gold.Chemscore.Lipo>
95.7211

> <Gold.Chemscore.Internal_Hbond>
0.0000

> <Gold.Chemscore.DEClash>
0.0018

> <Gold.Chemscore.DEInternal>
3.3768

> <Gold.Chemscore.Rot>
3.6812

> <Gold.Chemscore.Internal.Correction>
   9.000000E+99

> <Gold.Chemscore.Hbonds>
donor molecule, donor type, donor heavy atom, donor atom, acceptor molecule, acceptor atom, score
      L1  H     9    45       P1 10186  0.77
      P1  H  6896  6908       L1    16  0.92

> <Gold.Chemscore.Hbond.Weighted>
-9.3908

> <Gold.Chemscore.Metal.Weighted>
-0.0000

> <Gold.Chemscore.Lipo.Weighted>
-11.1994

> <Gold.Chemscore.Internal_Hbond.Weighted>
0.0000

> <Gold.Chemscore.DEClash.Weighted>
0.0018

> <Gold.Chemscore.DEInternal.Weighted>
3.3768

> <Gold.Chemscore.Rot.Weighted>
9.4239

> <Gold.Chemscore.Internal.Correction.Weighted>
   9.000000E+99

> <Gold.Protein.RotatedTorsions>
[ 6907 6896 6895 6894 ] final   89.36 input  -60.11 | X-H torsion
[ 7974 7965 7964 7962 ] final   -5.44 input  175.53 | X-H torsion
[ 8008 7997 7996 7995 ] final -147.03 input   59.86 | X-H torsion
[ 10167 10162 10161 10158 ] final  170.18 input  -65.29 | X-H torsion
[ 10718 10713 10712 10709 ] final  143.52 input   66.30 | X-H torsion
[ 10763 10752 10751 10750 ] final  -38.99 input  -60.55 | X-H torsion
[ 11005 11000 10999 10996 ] final -123.39 input  -57.11 | X-H torsion

> <Gold.Protein.ActiveResidues>
 VAL166  LYS551  ARG553  GLY616  TRP617  ASP618  TYR619  PRO620  LYS621  CYS622 
 ASP623  PHE694  ASN695  SER759  ASP760  ASP761  ALA762  ILE779  LEU786  VAL792 
 PHE793  MET794  SER795  GLU796  ALA797  LYS798  CYS799  TRP800  GLU811  SER814 

> <Gold.Protein.RotatedAtoms>
  152.5435  134.1979  159.8700 H   0  0  0  0  0  0  0  0  0  0  0  0  # atno 6907 bound_to 6896
  151.1970  133.4626  159.2603 H   0  0  0  0  0  0  0  0  0  0  0  0  # atno 6908 bound_to 6896
  151.1027  134.9994  159.8512 H   0  0  0  0  0  0  0  0  0  0  0  0  # atno 6909 bound_to 6896
  146.2352  140.2022  142.8334 H   0  0  0  0  0  0  0  0  0  0  0  0  # atno 7974 bound_to 7965
  155.5689  140.0632  157.2811 H   0  0  0  0  0  0  0  0  0  0  0  0  # atno 8008 bound_to 7997
  154.4367  140.1872  156.0905 H   0  0  0  0  0  0  0  0  0  0  0  0  # atno 8009 bound_to 7997
  156.0391  140.3297  155.7227 H   0  0  0  0  0  0  0  0  0  0  0  0  # atno 8010 bound_to 7997
  139.5011  144.3625  151.9810 H   0  0  0  0  0  0  0  0  0  0  0  0  # atno 10167 bound_to 10162
  157.3680  131.0975  151.0855 H   0  0  0  0  0  0  0  0  0  0  0  0  # atno 10718 bound_to 10713
  153.9220  135.6781  153.4747 H   0  0  0  0  0  0  0  0  0  0  0  0  # atno 10763 bound_to 10752
  153.1023  135.4822  154.8887 H   0  0  0  0  0  0  0  0  0  0  0  0  # atno 10764 bound_to 10752
  154.7473  135.3175  154.8578 H   0  0  0  0  0  0  0  0  0  0  0  0  # atno 10765 bound_to 10752
  140.9922  134.0523  157.3640 H   0  0  0  0  0  0  0  0  0  0  0  0  # atno 11005 bound_to 11000
  144.9773  140.8426  143.5418 LP  0  0  0  0  0  0  0  0  0  0  0  0  # atno 17320 bound_to 7965
  145.2010  139.2252  143.5192 LP  0  0  0  0  0  0  0  0  0  0  0  0  # atno 17321 bound_to 7965
  140.3061  144.3591  150.6046 LP  0  0  0  0  0  0  0  0  0  0  0  0  # atno 17342 bound_to 10162
  140.5835  143.2171  151.7385 LP  0  0  0  0  0  0  0  0  0  0  0  0  # atno 17343 bound_to 10162
  157.1970  130.6377  149.5724 LP  0  0  0  0  0  0  0  0  0  0  0  0  # atno 17370 bound_to 10713
  155.9750  130.4703  150.6426 LP  0  0  0  0  0  0  0  0  0  0  0  0  # atno 17371 bound_to 10713
  139.8998  135.0160  156.7211 LP  0  0  0  0  0  0  0  0  0  0  0  0  # atno 17394 bound_to 11000
  140.7022  133.9296  155.8031 LP  0  0  0  0  0  0  0  0  0  0  0  0  # atno 17395 bound_to 11000

$$$$
