AV-unprocessed.smi:1012|AV-procd|sdf|4423|dock4
  -GOLD-   22720 2373D 1   1.00000     0.00000
 Structure written by MMmdl.
 43 45  0  0  0  0  0  0  0  0  1 V2000
  144.5809  145.2920  158.8209 C   0  0  0  0  0  0  0  0  0  0  0  0
  144.9644  144.4497  157.7443 O   0  0  0  0  0  0  0  0  0  0  0  0
  144.5363  144.7746  156.4730 C   0  0  0  0  0  0  0  0  0  0  0  0
  143.6826  145.8713  156.1893 C   0  0  0  0  0  0  0  0  0  0  0  0
  143.2878  146.1488  154.8667 C   0  0  0  0  0  0  0  0  0  0  0  0
  143.7386  145.3372  153.8110 C   0  0  0  0  0  0  0  0  0  0  0  0
  144.5855  144.2468  154.0792 C   0  0  0  0  0  0  0  0  0  0  0  0
  144.9827  143.9620  155.4029 C   0  0  0  0  0  0  0  0  0  0  0  0
  145.9063  142.7870  155.6708 C   0  0  0  0  0  0  0  0  0  0  0  0
  146.0691  141.9781  154.5172 O   0  0  0  0  0  0  0  0  0  0  0  0
  147.4037  141.9612  154.0393 C   0  0  0  0  0  0  0  0  0  0  0  0
  148.2881  141.2267  155.0586 C   0  0  1  0  0  0  0  0  0  0  0  0
  148.2185  139.8392  154.7931 O   0  0  0  0  0  0  0  0  0  0  0  0
  149.7582  141.6818  154.9786 C   0  0  0  0  0  0  0  0  0  0  0  0
  150.5556  141.1838  156.0856 N   0  0  0  0  0  0  0  0  0  0  0  0
  150.8695  139.8996  156.3418 C   0  0  0  0  0  0  0  0  0  0  0  0
  151.6155  139.6568  157.4157 N   0  0  0  0  0  0  0  0  0  0  0  0
  151.8105  140.9333  157.9146 C   0  0  0  0  0  0  0  0  0  0  0  0
  152.5249  141.3739  159.0514 C   0  0  0  0  0  0  0  0  0  0  0  0
  152.5892  142.7469  159.3673 C   0  0  0  0  0  0  0  0  0  0  0  0
  153.2790  143.1522  160.4597 F   0  0  0  0  0  0  0  0  0  0  0  0
  151.9408  143.6987  158.5524 C   0  0  0  0  0  0  0  0  0  0  0  0
  152.0092  145.0151  158.8620 F   0  0  0  0  0  0  0  0  0  0  0  0
  151.2218  143.2832  157.4153 C   0  0  0  0  0  0  0  0  0  0  0  0
  151.1600  141.9123  157.1044 C   0  0  0  0  0  0  0  0  0  0  0  0
  144.9765  144.8864  159.7519 H   0  0  0  0  0  0  0  0  0  0  0  0
  143.4957  145.3437  158.9194 H   0  0  0  0  0  0  0  0  0  0  0  0
  144.9829  146.2990  158.7027 H   0  0  0  0  0  0  0  0  0  0  0  0
  143.3165  146.5196  156.9706 H   0  0  0  0  0  0  0  0  0  0  0  0
  142.6383  146.9874  154.6629 H   0  0  0  0  0  0  0  0  0  0  0  0
  143.4365  145.5512  152.7965 H   0  0  0  0  0  0  0  0  0  0  0  0
  144.9281  143.6286  153.2625 H   0  0  0  0  0  0  0  0  0  0  0  0
  146.8809  143.1447  156.0063 H   0  0  0  0  0  0  0  0  0  0  0  0
  145.4832  142.1992  156.4869 H   0  0  0  0  0  0  0  0  0  0  0  0
  147.4697  141.5023  153.0510 H   0  0  0  0  0  0  0  0  0  0  0  0
  147.7426  142.9938  153.9393 H   0  0  0  0  0  0  0  0  0  0  0  0
  147.9147  141.4135  156.0667 H   0  0  0  0  0  0  0  0  0  0  0  0
  148.9513  139.4184  155.2163 H   0  0  0  0  0  0  0  0  0  0  0  0
  150.2117  141.3539  154.0424 H   0  0  0  0  0  0  0  0  0  0  0  0
  149.8147  142.7711  154.9858 H   0  0  0  0  0  0  0  0  0  0  0  0
  150.5310  139.0975  155.7026 H   0  0  0  0  0  0  0  0  0  0  0  0
  153.0258  140.6545  159.6818 H   0  0  0  0  0  0  0  0  0  0  0  0
  150.7274  144.0093  156.7875 H   0  0  0  0  0  0  0  0  0  0  0  0
  1  2  1  0  0  0  0
  1 26  1  0  0  0  0
  1 27  1  0  0  0  0
  1 28  1  0  0  0  0
  2  3  1  0  0  0  0
  3  8  1  0  0  0  0
  3  4  2  0  0  0  0
  4  5  1  0  0  0  0
  4 29  1  0  0  0  0
  5  6  2  0  0  0  0
  5 30  1  0  0  0  0
  6  7  1  0  0  0  0
  6 31  1  0  0  0  0
  7  8  2  0  0  0  0
  7 32  1  0  0  0  0
  8  9  1  0  0  0  0
  9 10  1  0  0  0  0
  9 33  1  0  0  0  0
  9 34  1  0  0  0  0
 10 11  1  0  0  0  0
 11 12  1  0  0  0  0
 11 35  1  0  0  0  0
 11 36  1  0  0  0  0
 12 13  1  0  0  0  0
 12 14  1  0  0  0  0
 12 37  1  0  0  0  0
 13 38  1  0  0  0  0
 14 15  1  0  0  0  0
 14 39  1  0  0  0  0
 14 40  1  0  0  0  0
 15 25  1  0  0  0  0
 15 16  1  0  0  0  0
 16 17  2  0  0  0  0
 16 41  1  0  0  0  0
 17 18  1  0  0  0  0
 18 25  2  0  0  0  0
 18 19  1  0  0  0  0
 19 20  2  0  0  0  0
 19 42  1  0  0  0  0
 20 21  1  0  0  0  0
 20 22  1  0  0  0  0
 22 23  1  0  0  0  0
 22 24  2  0  0  0  0
 24 25  1  0  0  0  0
 24 43  1  0  0  0  0
M  END
> <s_m_source_file>
AV-unprocessed.smi

> <i_m_source_file_index>
1012

> <i_lp_mmshare_version>
43012

> <i_f3d_flags>
0

> <s_epik_input>
W0NIM11PYzFbY0hdW2NIXVtjSF1bY0hdYzFbQ0gyXU9bQ0gyXVtDQEhdKFtPSF0pW0NIMl1uKFtjSF1uMiljKGMyMylbY0hdYyhGKWMoRilbY0hdMw==

> <s_epik_cmdline>
J2VwaWtfcHl0aG9uJywgJy1waCcsICc3LjAnLCAnLXRuJywgJzgnLCAnLW1hJywgJzIwMCcsICctbWV0YWxfYmluZGluZycsICctaW1hZScsICc8aW5maWxlLm1hZT4nLCAnLW9tYWUnLCAnPG91dGZpbGUubWFlPic=

> <r_lp_tautomer_probability>
1

> <r_epik_Ionization_Penalty>
0.0160257

> <r_epik_Ionization_Penalty_Charging>
0

> <r_epik_Ionization_Penalty_Neutral>
0.0160257

> <r_epik_State_Penalty>
0.0126263

> <r_epik_Charging_Adjusted_Penalty>
0.0126263

> <i_epik_Tot_Q>
0

> <i_epik_Tot_abs_Q>
0

> <r_epik_Metal_State_Penalty>
1.27616e-05

> <b_epik_Metal_Only>
0

> <s_lp_Force_Field>
OPLS_2005

> <r_lp_Energy>
17.5925

> <b_lp_Chiralities_Consistent>
1

> <s_lp_Variant>
AV-unprocessed.smi:1012-2

> <Gold.Version>
5.8.1

> <Gold.Id.Protein>
6NUR|6NUR_protein|mol2

> <Gold.PLP.Fitness>
50.1947

> <Gold.PLP.PLP>
-51.7913

> <Gold.PLP.part.hbond>
0.0000

> <Gold.PLP.part.metal>
0.0000

> <Gold.PLP.part.buried>
-6.9137

> <Gold.PLP.part.nonpolar>
-44.2518

> <Gold.PLP.part.repulsive>
0.3028

> <Gold.PLP.ligand.clash>
0.0000

> <Gold.PLP.ligand.torsion>
0.8614

> <Gold.PLP.Chemscore.Hbond>
0.0000

> <Gold.PLP.Chemscore.CHOScore>
0.0000

> <Gold.PLP.Chemscore.Metal>
0.0000

> <Gold.PLP.Chemscore.Internal.Correction>
0.1263

> <Gold.Rescore>
     Score         DG    S(hbond)    S(metal)    S(lipo)     H(rot)  DE(clash)    DE(int)     intcor
     11.26     -12.59       0.00        0.00     124.99       2.93       0.36       0.97       ----

> <Gold.Chemscore.Fitness>
11.2641

> <Gold.Chemscore.DG>
-12.5937

> <Gold.Chemscore.ZeroCoef>
-5.4800

> <Gold.Chemscore.Hbond>
0.0000

> <Gold.Chemscore.Metal>
0.0000

> <Gold.Chemscore.Lipo>
124.9860

> <Gold.Chemscore.Internal_Hbond>
0.0000

> <Gold.Chemscore.DEClash>
0.3582

> <Gold.Chemscore.DEInternal>
0.9713

> <Gold.Chemscore.Rot>
2.9335

> <Gold.Chemscore.Internal.Correction>
   9.000000E+99

> <Gold.Chemscore.Hbond.Weighted>
-0.0000

> <Gold.Chemscore.Metal.Weighted>
-0.0000

> <Gold.Chemscore.Lipo.Weighted>
-14.6234

> <Gold.Chemscore.Internal_Hbond.Weighted>
0.0000

> <Gold.Chemscore.DEClash.Weighted>
0.3582

> <Gold.Chemscore.DEInternal.Weighted>
0.9713

> <Gold.Chemscore.Rot.Weighted>
7.5097

> <Gold.Chemscore.Internal.Correction.Weighted>
   9.000000E+99

> <Gold.Protein.RotatedTorsions>
[ 6907 6896 6895 6894 ] final   13.77 input  -60.11 | X-H torsion
[ 7974 7965 7964 7962 ] final  134.00 input  175.53 | X-H torsion
[ 8008 7997 7996 7995 ] final   36.19 input   59.86 | X-H torsion
[ 10167 10162 10161 10158 ] final  -96.09 input  -65.29 | X-H torsion
[ 10718 10713 10712 10709 ] final  -49.63 input   66.30 | X-H torsion
[ 10763 10752 10751 10750 ] final  150.67 input  -60.55 | X-H torsion
[ 11005 11000 10999 10996 ] final  -14.21 input  -57.11 | X-H torsion

> <Gold.Protein.ActiveResidues>
 VAL166  LYS551  ARG553  GLY616  TRP617  ASP618  TYR619  PRO620  LYS621  CYS622 
 ASP623  PHE694  ASN695  SER759  ASP760  ASP761  ALA762  ILE779  LEU786  VAL792 
 PHE793  MET794  SER795  GLU796  ALA797  LYS798  CYS799  TRP800  GLU811  SER814 

> <Gold.Protein.RotatedAtoms>
  151.7916  135.0734  160.0387 H   0  0  0  0  0  0  0  0  0  0  0  0  # atno 6907 bound_to 6896
  152.3153  133.5791  159.5716 H   0  0  0  0  0  0  0  0  0  0  0  0  # atno 6908 bound_to 6896
  150.7341  134.0008  159.3679 H   0  0  0  0  0  0  0  0  0  0  0  0  # atno 6909 bound_to 6896
  144.9808  139.4506  143.5387 H   0  0  0  0  0  0  0  0  0  0  0  0  # atno 7974 bound_to 7965
  155.1833  140.3302  155.4371 H   0  0  0  0  0  0  0  0  0  0  0  0  # atno 8008 bound_to 7997
  156.2469  140.1923  156.6880 H   0  0  0  0  0  0  0  0  0  0  0  0  # atno 8009 bound_to 7997
  154.6256  140.0589  156.9655 H   0  0  0  0  0  0  0  0  0  0  0  0  # atno 8010 bound_to 7997
  140.2974  143.3183  152.0283 H   0  0  0  0  0  0  0  0  0  0  0  0  # atno 10167 bound_to 10162
  156.1876  130.4152  149.9417 H   0  0  0  0  0  0  0  0  0  0  0  0  # atno 10718 bound_to 10713
  154.0913  135.2852  155.3271 H   0  0  0  0  0  0  0  0  0  0  0  0  # atno 10763 bound_to 10752
  154.6618  135.5332  153.8030 H   0  0  0  0  0  0  0  0  0  0  0  0  # atno 10764 bound_to 10752
  153.0412  135.6535  154.1082 H   0  0  0  0  0  0  0  0  0  0  0  0  # atno 10765 bound_to 10752
  140.7840  133.8340  155.9318 H   0  0  0  0  0  0  0  0  0  0  0  0  # atno 11005 bound_to 11000
  146.3407  139.9080  142.8784 LP  0  0  0  0  0  0  0  0  0  0  0  0  # atno 17320 bound_to 7965
  145.2424  141.0014  143.3928 LP  0  0  0  0  0  0  0  0  0  0  0  0  # atno 17321 bound_to 7965
  139.4923  144.6481  151.6736 LP  0  0  0  0  0  0  0  0  0  0  0  0  # atno 17342 bound_to 10162
  140.5680  144.0157  150.6202 LP  0  0  0  0  0  0  0  0  0  0  0  0  # atno 17343 bound_to 10162
  156.7168  130.8991  151.3614 LP  0  0  0  0  0  0  0  0  0  0  0  0  # atno 17370 bound_to 10713
  157.6908  130.9232  150.0510 LP  0  0  0  0  0  0  0  0  0  0  0  0  # atno 17371 bound_to 10713
  140.9454  134.1847  157.4767 LP  0  0  0  0  0  0  0  0  0  0  0  0  # atno 17394 bound_to 11000
  139.8739  134.9888  156.5430 LP  0  0  0  0  0  0  0  0  0  0  0  0  # atno 17395 bound_to 11000

$$$$
