AV-unprocessed.smi:903|AV-procd|sdf|4095|dock3
  -GOLD-   22720 1583D 1   1.00000     0.00000
 Structure written by MMmdl.
 28 29  0  0  0  0  0  0  0  0  2 V2000
  152.3092  137.6989  154.4598 O   0  0  0  0  0  0  0  0  0  0  0  0
  152.9095  138.6871  154.9349 C   0  0  0  0  0  0  0  0  0  0  0  0
  154.1182  138.8919  154.6766 O   0  5  0  0  0  0  0  0  0  0  0  0
  152.1896  139.6659  155.8386 C   0  0  0  0  0  0  0  0  0  0  0  0
  152.8851  140.0492  156.9387 N   0  0  0  0  0  0  0  0  0  0  0  0
  152.3381  140.9211  157.8174 C   0  0  0  0  0  0  0  0  0  0  0  0
  153.0651  141.2934  158.9293 O   0  0  0  0  0  0  0  0  0  0  0  0
  152.8221  142.5763  159.4991 C   0  0  0  0  0  0  0  0  0  0  0  0
  152.5618  142.4090  161.0009 C   0  0  2  0  0  0  0  0  0  0  0  0
  152.4084  143.7334  161.7453 C   0  0  0  0  0  0  0  0  0  0  0  0
  152.7500  143.3268  163.1606 C   0  0  0  0  0  0  0  0  0  0  0  0
  153.8744  142.3186  162.9377 C   0  0  0  0  0  0  0  0  0  0  0  0
  153.6711  141.7770  161.6343 O   0  0  0  0  0  0  0  0  0  0  0  0
  151.0538  141.4624  157.6382 C   0  0  0  0  0  0  0  0  0  0  0  0
  150.3183  141.0767  156.5047 C   0  0  0  0  0  0  0  0  0  0  0  0
  150.8777  140.1684  155.5839 C   0  0  0  0  0  0  0  0  0  0  0  0
  149.9101  139.7417  154.2118 Cl  0  0  0  0  0  0  0  0  0  0  0  0
  153.6664  143.2486  159.3363 H   0  0  0  0  0  0  0  0  0  0  0  0
  151.9433  143.0193  159.0270 H   0  0  0  0  0  0  0  0  0  0  0  0
  151.6713  141.8009  161.1684 H   0  0  0  0  0  0  0  0  0  0  0  0
  153.1312  144.4655  161.3821 H   0  0  0  0  0  0  0  0  0  0  0  0
  151.4102  144.1614  161.6516 H   0  0  0  0  0  0  0  0  0  0  0  0
  153.0470  144.1659  163.7901 H   0  0  0  0  0  0  0  0  0  0  0  0
  151.8929  142.8369  163.6247 H   0  0  0  0  0  0  0  0  0  0  0  0
  154.8450  142.8154  162.9574 H   0  0  0  0  0  0  0  0  0  0  0  0
  153.8800  141.5350  163.6957 H   0  0  0  0  0  0  0  0  0  0  0  0
  150.6408  142.1568  158.3547 H   0  0  0  0  0  0  0  0  0  0  0  0
  149.3278  141.4764  156.3432 H   0  0  0  0  0  0  0  0  0  0  0  0
  1  2  2  0  0  0  0
  2  3  1  0  0  0  0
  2  4  1  0  0  0  0
  4 16  1  0  0  0  0
  4  5  2  0  0  0  0
  5  6  1  0  0  0  0
  6  7  1  0  0  0  0
  6 14  2  0  0  0  0
  7  8  1  0  0  0  0
  8  9  1  0  0  0  0
  8 18  1  0  0  0  0
  8 19  1  0  0  0  0
  9 13  1  0  0  0  0
  9 10  1  0  0  0  0
  9 20  1  0  0  0  0
 10 11  1  0  0  0  0
 10 21  1  0  0  0  0
 10 22  1  0  0  0  0
 11 12  1  0  0  0  0
 11 23  1  0  0  0  0
 11 24  1  0  0  0  0
 12 13  1  0  0  0  0
 12 25  1  0  0  0  0
 12 26  1  0  0  0  0
 14 15  1  0  0  0  0
 14 27  1  0  0  0  0
 15 16  2  0  0  0  0
 15 28  1  0  0  0  0
 16 17  1  0  0  0  0
M  CHG  1   3  -1
M  END
> <s_m_source_file>
AV-unprocessed.smi

> <i_m_source_file_index>
903

> <i_lp_mmshare_version>
43012

> <i_f3d_flags>
0

> <s_epik_input>
Tz1DKFtPSF0pYzFuYyhbY0hdW2NIXWMxQ2wpT1tDSDJdW0NAQEhdMltDSDJdW0NIMl1bQ0gyXU8y

> <s_epik_cmdline>
J2VwaWtfcHl0aG9uJywgJy1waCcsICc3LjAnLCAnLXRuJywgJzgnLCAnLW1hJywgJzIwMCcsICctbWV0YWxfYmluZGluZycsICctaW1hZScsICc8aW5maWxlLm1hZT4nLCAnLW9tYWUnLCAnPG91dGZpbGUubWFlPic=

> <r_lp_tautomer_probability>
1

> <r_epik_Ionization_Penalty>
1.22588e-05

> <r_epik_Ionization_Penalty_Charging>
1.01343e-05

> <r_epik_Ionization_Penalty_Neutral>
2.12445e-06

> <r_epik_State_Penalty>
-0

> <r_epik_Charging_Adjusted_Penalty>
1.01343e-05

> <i_epik_Tot_Q>
-1

> <i_epik_Tot_abs_Q>
1

> <r_epik_Metal_State_Penalty>
-0

> <b_epik_Metal_Only>
0

> <s_lp_Force_Field>
OPLS_2005

> <r_lp_Energy>
26.032

> <b_lp_Chiralities_Consistent>
1

> <s_lp_Variant>
AV-unprocessed.smi:903-1

> <Gold.Version>
5.8.1

> <Gold.Id.Protein>
6NUR|6NUR_protein|mol2

> <Gold.PLP.Fitness>
46.3663

> <Gold.PLP.PLP>
-39.1701

> <Gold.PLP.part.hbond>
-3.0000

> <Gold.PLP.part.metal>
0.0000

> <Gold.PLP.part.buried>
-0.5839

> <Gold.PLP.part.nonpolar>
-33.3587

> <Gold.PLP.part.repulsive>
0.1148

> <Gold.PLP.ligand.clash>
0.0000

> <Gold.PLP.ligand.torsion>
1.4555

> <Gold.PLP.Chemscore.Hbond>
3.3600

> <Gold.PLP.Chemscore.CHOScore>
0.0000

> <Gold.PLP.Chemscore.Metal>
0.0000

> <Gold.Chemscore.Hbonds>
donor molecule, donor type, donor heavy atom, donor atom, acceptor molecule, acceptor atom, score
      P1  H  7997  8009       L1     5  0.42
      P1  H  7997  8010       L1     3  1.44
      P1  H 10752 10765       L1     1  1.03

> <Gold.PLP.Chemscore.Internal.Correction>
0.0271

> <Gold.Rescore>
     Score         DG    S(hbond)    S(metal)    S(lipo)     H(rot)  DE(clash)    DE(int)     intcor
     15.24     -18.26       1.89        0.00      88.41       1.51       1.51       1.51       ----

> <Gold.Chemscore.Fitness>
15.2369

> <Gold.Chemscore.DG>
-18.2586

> <Gold.Chemscore.ZeroCoef>
-5.4800

> <Gold.Chemscore.Hbond>
1.8857

> <Gold.Chemscore.Metal>
0.0000

> <Gold.Chemscore.Lipo>
88.4138

> <Gold.Chemscore.Internal_Hbond>
0.0000

> <Gold.Chemscore.DEClash>
1.5105

> <Gold.Chemscore.DEInternal>
1.5112

> <Gold.Chemscore.Rot>
1.5094

> <Gold.Chemscore.Internal.Correction>
   9.000000E+99

> <Gold.Chemscore.Hbonds>
donor molecule, donor type, donor heavy atom, donor atom, acceptor molecule, acceptor atom, score
      P1  H  7997  8009       L1     5  0.31
      P1  H  7997  8010       L1     3  0.70
      P1  H 10752 10765       L1     1  0.51

> <Gold.Chemscore.Hbond.Weighted>
-6.2982

> <Gold.Chemscore.Metal.Weighted>
-0.0000

> <Gold.Chemscore.Lipo.Weighted>
-10.3444

> <Gold.Chemscore.Internal_Hbond.Weighted>
0.0000

> <Gold.Chemscore.DEClash.Weighted>
1.5105

> <Gold.Chemscore.DEInternal.Weighted>
1.5112

> <Gold.Chemscore.Rot.Weighted>
3.8641

> <Gold.Chemscore.Internal.Correction.Weighted>
   9.000000E+99

> <Gold.Protein.RotatedTorsions>
[ 6907 6896 6895 6894 ] final -150.51 input  -60.11 | X-H torsion
[ 7974 7965 7964 7962 ] final -120.75 input  175.53 | X-H torsion
[ 8008 7997 7996 7995 ] final  145.07 input   59.86 | X-H torsion
[ 10167 10162 10161 10158 ] final -125.42 input  -65.29 | X-H torsion
[ 10718 10713 10712 10709 ] final -106.16 input   66.30 | X-H torsion
[ 10763 10752 10751 10750 ] final  166.15 input  -60.55 | X-H torsion
[ 11005 11000 10999 10996 ] final -169.16 input  -57.11 | X-H torsion

> <Gold.Protein.ActiveResidues>
 VAL166  LYS551  ARG553  GLY616  TRP617  ASP618  TYR619  PRO620  LYS621  CYS622 
 ASP623  PHE694  ASN695  SER759  ASP760  ASP761  ALA762  ILE779  LEU786  VAL792 
 PHE793  MET794  SER795  GLU796  ALA797  LYS798  CYS799  TRP800  GLU811  SER814 

> <Gold.Protein.RotatedAtoms>
  151.1996  133.4618  159.2595 H   0  0  0  0  0  0  0  0  0  0  0  0  # atno 6907 bound_to 6896
  151.1082  135.0012  159.8491 H   0  0  0  0  0  0  0  0  0  0  0  0  # atno 6908 bound_to 6896
  152.5448  134.1917  159.8730 H   0  0  0  0  0  0  0  0  0  0  0  0  # atno 6909 bound_to 6896
  145.0479  140.8196  143.4227 H   0  0  0  0  0  0  0  0  0  0  0  0  # atno 7974 bound_to 7965
  156.2892  140.2219  156.5156 H   0  0  0  0  0  0  0  0  0  0  0  0  # atno 8008 bound_to 7997
  154.7572  140.0476  157.0965 H   0  0  0  0  0  0  0  0  0  0  0  0  # atno 8009 bound_to 7997
  155.0036  140.3104  155.4860 H   0  0  0  0  0  0  0  0  0  0  0  0  # atno 8010 bound_to 7997
  139.9823  143.5729  152.2373 H   0  0  0  0  0  0  0  0  0  0  0  0  # atno 10167 bound_to 10162
  156.0377  130.5599  150.7641 H   0  0  0  0  0  0  0  0  0  0  0  0  # atno 10718 bound_to 10713
  154.3347  135.2754  155.2453 H   0  0  0  0  0  0  0  0  0  0  0  0  # atno 10763 bound_to 10752
  154.4750  135.5873  153.6352 H   0  0  0  0  0  0  0  0  0  0  0  0  # atno 10764 bound_to 10752
  152.9863  135.6097  154.3543 H   0  0  0  0  0  0  0  0  0  0  0  0  # atno 10765 bound_to 10752
  140.5339  134.5589  157.5082 H   0  0  0  0  0  0  0  0  0  0  0  0  # atno 11005 bound_to 11000
  145.1564  139.2484  143.5414 LP  0  0  0  0  0  0  0  0  0  0  0  0  # atno 17320 bound_to 7965
  146.3515  140.1280  142.8598 LP  0  0  0  0  0  0  0  0  0  0  0  0  # atno 17321 bound_to 7965
  139.6400  144.7654  151.2357 LP  0  0  0  0  0  0  0  0  0  0  0  0  # atno 17342 bound_to 10162
  140.7484  143.6332  150.8403 LP  0  0  0  0  0  0  0  0  0  0  0  0  # atno 17343 bound_to 10162
  157.5152  131.0928  151.0148 LP  0  0  0  0  0  0  0  0  0  0  0  0  # atno 17370 bound_to 10713
  157.0493  130.5780  149.5368 LP  0  0  0  0  0  0  0  0  0  0  0  0  # atno 17371 bound_to 10713
  139.9540  134.7568  156.0384 LP  0  0  0  0  0  0  0  0  0  0  0  0  # atno 17394 bound_to 11000
  141.1266  133.6597  156.3353 LP  0  0  0  0  0  0  0  0  0  0  0  0  # atno 17395 bound_to 11000

$$$$
