AV-unprocessed.smi:1962|AV-procd|sdf|7925|dock3
  -GOLD-   2272010 93D 1   1.00000     0.00000
 Structure written by MMmdl.
 35 36  0  0  0  0  0  0  0  0  2 V2000
  154.2764  140.6009  161.3567 C   0  0  0  0  0  0  0  0  0  0  0  0
  153.1013  141.2550  160.6170 C   0  0  1  0  0  0  0  0  0  0  0  0
  153.3187  142.7834  160.4593 C   0  0  0  0  0  0  0  0  0  0  0  0
  152.1621  143.5104  159.9404 N   0  0  0  0  0  0  0  0  0  0  0  0
  151.4239  144.5113  160.5445 C   0  0  0  0  0  0  0  0  0  0  0  0
  150.4496  144.8906  159.6664 C   0  0  0  0  0  0  0  0  0  0  0  0
  150.6800  144.0660  158.5306 C   0  0  0  0  0  0  0  0  0  0  0  0
  151.7104  143.2528  158.6905 N   0  0  0  0  0  0  0  0  0  0  0  0
  152.9654  140.6220  159.2998 N   0  5  0  0  0  0  0  0  0  0  0  0
  151.7817  140.3125  158.6871 C   0  0  0  0  0  0  0  0  0  0  0  0
  150.6696  140.7701  158.9776 O   0  0  0  0  0  0  0  0  0  0  0  0
  151.7921  139.3374  157.5563 C   0  0  0  0  0  0  0  0  0  0  0  0
  150.8745  139.4055  156.6425 N   0  0  0  0  0  0  0  0  0  0  0  0
  150.8393  138.5435  155.5662 N   0  0  0  0  0  0  0  0  0  0  0  0
  149.9082  138.9264  154.5071 C   0  0  0  0  0  0  0  0  0  0  0  0
  151.5714  137.4069  155.4645 C   0  0  0  0  0  0  0  0  0  0  0  0
  151.5465  136.6614  154.4848 O   0  0  0  0  0  0  0  0  0  0  0  0
  152.4426  137.0470  156.6705 C   0  0  0  0  0  0  0  0  0  0  0  0
  152.8906  138.2927  157.4598 C   0  0  0  0  0  0  0  0  0  0  0  0
  154.3998  141.0309  162.3507 H   0  0  0  0  0  0  0  0  0  0  0  0
  155.2146  140.7383  160.8174 H   0  0  0  0  0  0  0  0  0  0  0  0
  154.1165  139.5293  161.4817 H   0  0  0  0  0  0  0  0  0  0  0  0
  152.2148  141.1033  161.2350 H   0  0  0  0  0  0  0  0  0  0  0  0
  153.5649  143.2172  161.4290 H   0  0  0  0  0  0  0  0  0  0  0  0
  154.1780  142.9779  159.8148 H   0  0  0  0  0  0  0  0  0  0  0  0
  151.6478  144.8590  161.5423 H   0  0  0  0  0  0  0  0  0  0  0  0
  149.6891  145.6427  159.8136 H   0  0  0  0  0  0  0  0  0  0  0  0
  150.1363  144.0381  157.5980 H   0  0  0  0  0  0  0  0  0  0  0  0
  150.4464  139.1303  153.5806 H   0  0  0  0  0  0  0  0  0  0  0  0
  149.3420  139.8228  154.7652 H   0  0  0  0  0  0  0  0  0  0  0  0
  149.1891  138.1284  154.3173 H   0  0  0  0  0  0  0  0  0  0  0  0
  151.8526  136.3969  157.3177 H   0  0  0  0  0  0  0  0  0  0  0  0
  153.3099  136.4688  156.3499 H   0  0  0  0  0  0  0  0  0  0  0  0
  153.7678  138.7374  156.9886 H   0  0  0  0  0  0  0  0  0  0  0  0
  153.2054  137.9666  158.4515 H   0  0  0  0  0  0  0  0  0  0  0  0
  1  2  1  0  0  0  0
  1 20  1  0  0  0  0
  1 21  1  0  0  0  0
  1 22  1  0  0  0  0
  2  3  1  0  0  0  0
  2  9  1  0  0  0  0
  2 23  1  0  0  0  0
  3  4  1  0  0  0  0
  3 24  1  0  0  0  0
  3 25  1  0  0  0  0
  4  8  1  0  0  0  0
  4  5  1  0  0  0  0
  5  6  2  0  0  0  0
  5 26  1  0  0  0  0
  6  7  1  0  0  0  0
  6 27  1  0  0  0  0
  7  8  2  0  0  0  0
  7 28  1  0  0  0  0
  9 10  1  0  0  0  0
 10 11  2  0  0  0  0
 10 12  1  0  0  0  0
 12 19  1  0  0  0  0
 12 13  2  0  0  0  0
 13 14  1  0  0  0  0
 14 15  1  0  0  0  0
 14 16  1  0  0  0  0
 15 29  1  0  0  0  0
 15 30  1  0  0  0  0
 15 31  1  0  0  0  0
 16 17  2  0  0  0  0
 16 18  1  0  0  0  0
 18 19  1  0  0  0  0
 18 32  1  0  0  0  0
 18 33  1  0  0  0  0
 19 34  1  0  0  0  0
 19 35  1  0  0  0  0
M  CHG  1   9  -1
M  END
> <s_m_source_file>
AV-unprocessed.smi

> <i_m_source_file_index>
1962

> <i_lp_mmshare_version>
43012

> <i_f3d_flags>
0

> <s_epik_input>
bjFbY0hdW2NIXVtjSF1uMVtDSDJdW0NAQEhdKFtDSDNdKVtOSF1DKD1PKUMyPU5OKFtDSDNdKUMoPU8pW0NIMl1bQ0gyXTI=

> <s_epik_cmdline>
J2VwaWtfcHl0aG9uJywgJy1waCcsICc3LjAnLCAnLXRuJywgJzgnLCAnLW1hJywgJzIwMCcsICctbWV0YWxfYmluZGluZycsICctaW1hZScsICc8aW5maWxlLm1hZT4nLCAnLW9tYWUnLCAnPG91dGZpbGUubWFlPic=

> <r_lp_tautomer_probability>
1

> <r_epik_Ionization_Penalty>
5.21086

> <r_epik_Ionization_Penalty_Charging>
5.21084

> <r_epik_Ionization_Penalty_Neutral>
2.41961e-05

> <r_epik_State_Penalty>
5.21075

> <r_epik_Charging_Adjusted_Penalty>
10.4216

> <i_epik_Tot_Q>
-1

> <i_epik_Tot_abs_Q>
1

> <r_epik_Metal_State_Penalty>
1.27477

> <b_epik_Metal_Only>
1

> <s_epik_Chemistry_Notes>
This compound has an imine and may undergo hydrolysis.

> <s_lp_Force_Field>
OPLS_2005

> <r_lp_Energy>
25.3594

> <b_lp_Chiralities_Consistent>
1

> <s_lp_Variant>
AV-unprocessed.smi:1962-4

> <Gold.Version>
5.8.1

> <Gold.Id.Protein>
6NUR|6NUR_protein|mol2

> <Gold.PLP.Fitness>
42.9470

> <Gold.PLP.PLP>
-38.3458

> <Gold.PLP.part.hbond>
-1.0000

> <Gold.PLP.part.metal>
0.0000

> <Gold.PLP.part.buried>
-5.0665

> <Gold.PLP.part.nonpolar>
-32.5316

> <Gold.PLP.part.repulsive>
0.8797

> <Gold.PLP.ligand.clash>
0.0000

> <Gold.PLP.ligand.torsion>
0.7144

> <Gold.PLP.Chemscore.Hbond>
1.0000

> <Gold.PLP.Chemscore.CHOScore>
1.0000

> <Gold.PLP.Chemscore.Metal>
0.0000

> <Gold.Chemscore.Hbonds>
donor molecule, donor type, donor heavy atom, donor atom, acceptor molecule, acceptor atom, score
      P1  H 10752 10765       L1    17  1.00
      L1  C     7    28       P1  8028  1.00

> <Gold.PLP.Chemscore.Internal.Correction>
0.0300

> <Gold.Rescore>
     Score         DG    S(hbond)    S(metal)    S(lipo)     H(rot)  DE(clash)    DE(int)     intcor
     14.61     -15.47       0.97        0.00      90.55       1.50       0.07       0.80       ----

> <Gold.Chemscore.Fitness>
14.6097

> <Gold.Chemscore.DG>
-15.4750

> <Gold.Chemscore.ZeroCoef>
-5.4800

> <Gold.Chemscore.Hbond>
0.9675

> <Gold.Chemscore.Metal>
0.0000

> <Gold.Chemscore.Lipo>
90.5492

> <Gold.Chemscore.Internal_Hbond>
0.0000

> <Gold.Chemscore.DEClash>
0.0682

> <Gold.Chemscore.DEInternal>
0.7970

> <Gold.Chemscore.Rot>
1.4964

> <Gold.Chemscore.Internal.Correction>
   9.000000E+99

> <Gold.Chemscore.Hbonds>
donor molecule, donor type, donor heavy atom, donor atom, acceptor molecule, acceptor atom, score
      P1  H 10752 10765       L1    17  0.93

> <Gold.Chemscore.Hbond.Weighted>
-3.2316

> <Gold.Chemscore.Metal.Weighted>
-0.0000

> <Gold.Chemscore.Lipo.Weighted>
-10.5943

> <Gold.Chemscore.Internal_Hbond.Weighted>
0.0000

> <Gold.Chemscore.DEClash.Weighted>
0.0682

> <Gold.Chemscore.DEInternal.Weighted>
0.7970

> <Gold.Chemscore.Rot.Weighted>
3.8309

> <Gold.Chemscore.Internal.Correction.Weighted>
   9.000000E+99

> <Gold.Protein.RotatedTorsions>
[ 6907 6896 6895 6894 ] final  -51.98 input  -60.11 | X-H torsion
[ 7974 7965 7964 7962 ] final  128.08 input  175.53 | X-H torsion
[ 8008 7997 7996 7995 ] final -128.14 input   59.86 | X-H torsion
[ 10167 10162 10161 10158 ] final  166.77 input  -65.29 | X-H torsion
[ 10718 10713 10712 10709 ] final   57.08 input   66.30 | X-H torsion
[ 10763 10752 10751 10750 ] final  158.03 input  -60.55 | X-H torsion
[ 11005 11000 10999 10996 ] final  173.11 input  -57.11 | X-H torsion

> <Gold.Protein.ActiveResidues>
 VAL166  LYS551  ARG553  GLY616  TRP617  ASP618  TYR619  PRO620  LYS621  CYS622 
 ASP623  PHE694  ASN695  SER759  ASP760  ASP761  ALA762  ILE779  LEU786  VAL792 
 PHE793  MET794  SER795  GLU796  ALA797  LYS798  CYS799  TRP800  GLU811  SER814 

> <Gold.Protein.RotatedAtoms>
  150.8560  134.7899  159.7045 H   0  0  0  0  0  0  0  0  0  0  0  0  # atno 6907 bound_to 6896
  152.4611  134.5178  159.9783 H   0  0  0  0  0  0  0  0  0  0  0  0  # atno 6908 bound_to 6896
  151.5290  133.3414  159.2950 H   0  0  0  0  0  0  0  0  0  0  0  0  # atno 6909 bound_to 6896
  145.0435  139.3943  143.5090 H   0  0  0  0  0  0  0  0  0  0  0  0  # atno 7974 bound_to 7965
  155.2577  140.0435  157.2994 H   0  0  0  0  0  0  0  0  0  0  0  0  # atno 8008 bound_to 7997
  154.5730  140.2379  155.8134 H   0  0  0  0  0  0  0  0  0  0  0  0  # atno 8009 bound_to 7997
  156.2136  140.2991  155.9797 H   0  0  0  0  0  0  0  0  0  0  0  0  # atno 8010 bound_to 7997
  139.4931  144.3993  151.9428 H   0  0  0  0  0  0  0  0  0  0  0  0  # atno 10167 bound_to 10162
  157.5485  130.8748  149.8927 H   0  0  0  0  0  0  0  0  0  0  0  0  # atno 10718 bound_to 10713
  154.2096  135.2786  155.2963 H   0  0  0  0  0  0  0  0  0  0  0  0  # atno 10763 bound_to 10752
  154.5789  135.5595  153.7169 H   0  0  0  0  0  0  0  0  0  0  0  0  # atno 10764 bound_to 10752
  153.0067  135.6340  154.2235 H   0  0  0  0  0  0  0  0  0  0  0  0  # atno 10765 bound_to 10752
  140.3370  134.7309  157.4175 H   0  0  0  0  0  0  0  0  0  0  0  0  # atno 11005 bound_to 11000
  146.3511  140.0048  142.8672 LP  0  0  0  0  0  0  0  0  0  0  0  0  # atno 17320 bound_to 7965
  145.1617  140.9676  143.4373 LP  0  0  0  0  0  0  0  0  0  0  0  0  # atno 17321 bound_to 7965
  140.3431  144.3179  150.5963 LP  0  0  0  0  0  0  0  0  0  0  0  0  # atno 17342 bound_to 10162
  140.5548  143.2200  151.7865 LP  0  0  0  0  0  0  0  0  0  0  0  0  # atno 17343 bound_to 10162
  156.0556  130.3709  150.1099 LP  0  0  0  0  0  0  0  0  0  0  0  0  # atno 17370 bound_to 10713
  156.9274  130.9702  151.3539 LP  0  0  0  0  0  0  0  0  0  0  0  0  # atno 17371 bound_to 10713
  140.0813  134.5727  155.8538 LP  0  0  0  0  0  0  0  0  0  0  0  0  # atno 17394 bound_to 11000
  141.2049  133.6642  156.6146 LP  0  0  0  0  0  0  0  0  0  0  0  0  # atno 17395 bound_to 11000

$$$$
