AV-unprocessed.smi:646|AV-procd|sdf|3167|dock4
  -GOLD-   22720 0 93D 1   1.00000     0.00000
 Structure written by MMmdl.
 44 45  0  0  0  0  0  0  0  0  1 V2000
  141.6888  134.8163  153.3533 C   0  0  0  0  0  0  0  0  0  0  0  0
  142.8440  134.8563  152.5246 O   0  0  0  0  0  0  0  0  0  0  0  0
  143.8619  135.8107  152.8571 C   0  0  1  0  0  0  0  0  0  0  0  0
  143.2571  137.2126  153.0015 C   0  0  0  0  0  0  0  0  0  0  0  0
  144.7678  135.2603  153.9757 C   0  0  0  0  0  0  0  0  0  0  0  0
  145.5357  134.5159  152.8857 C   0  0  2  0  0  0  0  0  0  0  0  0
  146.9730  134.4906  153.1275 N   0  0  0  0  0  0  0  0  0  0  0  0
  147.6136  133.5138  153.7861 C   0  0  0  0  0  0  0  0  0  0  0  0
  147.0392  132.5731  154.3336 O   0  0  0  0  0  0  0  0  0  0  0  0
  149.1394  133.5940  153.8015 C   0  0  0  0  0  0  0  0  0  0  0  0
  149.6128  133.8431  155.2115 C   0  0  0  0  0  0  0  0  0  0  0  0
  150.3169  132.9513  156.0713 C   0  0  0  0  0  0  0  0  0  0  0  0
  150.7654  131.5452  155.7941 C   0  0  0  0  0  0  0  0  0  0  0  0
  150.5929  133.5063  157.2394 N   0  0  0  0  0  0  0  0  0  0  0  0
  150.0694  134.8013  157.1818 O   0  0  0  0  0  0  0  0  0  0  0  0
  149.4951  134.9786  155.9650 C   0  0  0  0  0  0  0  0  0  0  0  0
  148.8862  136.3136  155.7000 C   0  0  0  0  0  0  0  0  0  0  0  0
  145.0684  135.6036  151.8836 C   0  0  0  0  0  0  0  0  0  0  0  0
  144.7349  135.1128  150.4705 C   0  0  0  0  0  0  0  0  0  0  0  0
  145.9991  136.8176  151.6939 C   0  0  0  0  0  0  0  0  0  0  0  0
  141.0771  133.9608  153.0671 H   0  0  0  0  0  0  0  0  0  0  0  0
  141.0723  135.7064  153.2295 H   0  0  0  0  0  0  0  0  0  0  0  0
  141.9365  134.7057  154.4083 H   0  0  0  0  0  0  0  0  0  0  0  0
  144.0243  137.9725  153.1457 H   0  0  0  0  0  0  0  0  0  0  0  0
  142.5959  137.2847  153.8647 H   0  0  0  0  0  0  0  0  0  0  0  0
  142.6850  137.4899  152.1158 H   0  0  0  0  0  0  0  0  0  0  0  0
  145.3528  136.0392  154.4685 H   0  0  0  0  0  0  0  0  0  0  0  0
  144.2889  134.6110  154.7077 H   0  0  0  0  0  0  0  0  0  0  0  0
  145.1012  133.5338  152.6843 H   0  0  0  0  0  0  0  0  0  0  0  0
  147.5230  135.2273  152.7104 H   0  0  0  0  0  0  0  0  0  0  0  0
  149.5468  132.6669  153.3964 H   0  0  0  0  0  0  0  0  0  0  0  0
  149.4652  134.3884  153.1293 H   0  0  0  0  0  0  0  0  0  0  0  0
  150.0266  131.0077  155.1995 H   0  0  0  0  0  0  0  0  0  0  0  0
  150.9192  130.9826  156.7155 H   0  0  0  0  0  0  0  0  0  0  0  0
  151.7037  131.5402  155.2389 H   0  0  0  0  0  0  0  0  0  0  0  0
  149.0844  136.6327  154.6765 H   0  0  0  0  0  0  0  0  0  0  0  0
  149.2916  137.0706  156.3720 H   0  0  0  0  0  0  0  0  0  0  0  0
  147.8060  136.2787  155.8409 H   0  0  0  0  0  0  0  0  0  0  0  0
  145.6371  134.9294  149.8857 H   0  0  0  0  0  0  0  0  0  0  0  0
  144.1317  135.8416  149.9284 H   0  0  0  0  0  0  0  0  0  0  0  0
  144.1779  134.1759  150.4846 H   0  0  0  0  0  0  0  0  0  0  0  0
  146.9002  136.5526  151.1399 H   0  0  0  0  0  0  0  0  0  0  0  0
  146.3252  137.2409  152.6441 H   0  0  0  0  0  0  0  0  0  0  0  0
  145.5062  137.6160  151.1383 H   0  0  0  0  0  0  0  0  0  0  0  0
  1  2  1  0  0  0  0
  1 21  1  0  0  0  0
  1 22  1  0  0  0  0
  1 23  1  0  0  0  0
  2  3  1  0  0  0  0
  3 18  1  0  0  0  0
  3  4  1  0  0  0  0
  3  5  1  0  0  0  0
  4 24  1  0  0  0  0
  4 25  1  0  0  0  0
  4 26  1  0  0  0  0
  5  6  1  0  0  0  0
  5 27  1  0  0  0  0
  5 28  1  0  0  0  0
  6  7  1  0  0  0  0
  6 18  1  0  0  0  0
  6 29  1  0  0  0  0
  7  8  1  0  0  0  0
  7 30  1  0  0  0  0
  8  9  2  0  0  0  0
  8 10  1  0  0  0  0
 10 11  1  0  0  0  0
 10 31  1  0  0  0  0
 10 32  1  0  0  0  0
 11 16  2  0  0  0  0
 11 12  1  0  0  0  0
 12 13  1  0  0  0  0
 12 14  2  0  0  0  0
 13 33  1  0  0  0  0
 13 34  1  0  0  0  0
 13 35  1  0  0  0  0
 14 15  1  0  0  0  0
 15 16  1  0  0  0  0
 16 17  1  0  0  0  0
 17 36  1  0  0  0  0
 17 37  1  0  0  0  0
 17 38  1  0  0  0  0
 18 19  1  0  0  0  0
 18 20  1  0  0  0  0
 19 39  1  0  0  0  0
 19 40  1  0  0  0  0
 19 41  1  0  0  0  0
 20 42  1  0  0  0  0
 20 43  1  0  0  0  0
 20 44  1  0  0  0  0
M  END
> <s_m_source_file>
AV-unprocessed.smi

> <i_m_source_file_index>
646

> <i_lp_mmshare_version>
43012

> <i_f3d_flags>
0

> <s_epik_input>
W0NIM11PW0NAQF0xKFtDSDNdKVtDSDJdW0NASF0oQzEoW0NIM10pW0NIM10pW05IXUMoPU8pW0NIMl1jMmMoW0NIM10pbm9jMltDSDNd

> <s_epik_cmdline>
J2VwaWtfcHl0aG9uJywgJy1waCcsICc3LjAnLCAnLXRuJywgJzgnLCAnLW1hJywgJzIwMCcsICctbWV0YWxfYmluZGluZycsICctaW1hZScsICc8aW5maWxlLm1hZT4nLCAnLW9tYWUnLCAnPG91dGZpbGUubWFlPic=

> <r_lp_tautomer_probability>
1

> <r_epik_Ionization_Penalty>
2.13169e-08

> <r_epik_Ionization_Penalty_Charging>
0

> <r_epik_Ionization_Penalty_Neutral>
2.13169e-08

> <r_epik_State_Penalty>
-0

> <r_epik_Charging_Adjusted_Penalty>
0

> <i_epik_Tot_Q>
0

> <i_epik_Tot_abs_Q>
0

> <r_epik_Metal_State_Penalty>
-0

> <b_epik_Metal_Only>
0

> <s_lp_Force_Field>
OPLS_2005

> <r_lp_Energy>
15.7725

> <b_lp_Chiralities_Consistent>
1

> <s_lp_Variant>
AV-unprocessed.smi:646-3

> <Gold.Version>
5.8.1

> <Gold.Id.Protein>
6NUR|6NUR_protein|mol2

> <Gold.PLP.Fitness>
33.8505

> <Gold.PLP.PLP>
-29.2098

> <Gold.PLP.part.hbond>
-2.5846

> <Gold.PLP.part.metal>
0.0000

> <Gold.PLP.part.buried>
-2.3589

> <Gold.PLP.part.nonpolar>
-24.7740

> <Gold.PLP.part.repulsive>
0.2497

> <Gold.PLP.ligand.clash>
0.0000

> <Gold.PLP.ligand.torsion>
0.5133

> <Gold.PLP.Chemscore.Hbond>
1.7613

> <Gold.PLP.Chemscore.CHOScore>
0.0000

> <Gold.PLP.Chemscore.Metal>
0.0000

> <Gold.Chemscore.Hbonds>
donor molecule, donor type, donor heavy atom, donor atom, acceptor molecule, acceptor atom, score
      L1  H     7    30       P1  7948  1.00
      P1  H  6896  6907       L1    14  0.73

> <Gold.PLP.Chemscore.Internal.Correction>
0.3835

> <Gold.Rescore>
     Score         DG    S(hbond)    S(metal)    S(lipo)     H(rot)  DE(clash)    DE(int)     intcor
     12.06     -13.90       1.47        0.00      62.69       1.49       1.32       0.52       ----

> <Gold.Chemscore.Fitness>
12.0562

> <Gold.Chemscore.DG>
-13.8998

> <Gold.Chemscore.ZeroCoef>
-5.4800

> <Gold.Chemscore.Hbond>
1.4690

> <Gold.Chemscore.Metal>
0.0000

> <Gold.Chemscore.Lipo>
62.6932

> <Gold.Chemscore.Internal_Hbond>
0.0000

> <Gold.Chemscore.DEClash>
1.3194

> <Gold.Chemscore.DEInternal>
0.5242

> <Gold.Chemscore.Rot>
1.4928

> <Gold.Chemscore.Internal.Correction>
   9.000000E+99

> <Gold.Chemscore.Hbonds>
donor molecule, donor type, donor heavy atom, donor atom, acceptor molecule, acceptor atom, score
      L1  H     7    30       P1  7948  0.99
      P1  H  6896  6907       L1    14  0.15

> <Gold.Chemscore.Hbond.Weighted>
-4.9064

> <Gold.Chemscore.Metal.Weighted>
-0.0000

> <Gold.Chemscore.Lipo.Weighted>
-7.3351

> <Gold.Chemscore.Internal_Hbond.Weighted>
0.0000

> <Gold.Chemscore.DEClash.Weighted>
1.3194

> <Gold.Chemscore.DEInternal.Weighted>
0.5242

> <Gold.Chemscore.Rot.Weighted>
3.8217

> <Gold.Chemscore.Internal.Correction.Weighted>
   9.000000E+99

> <Gold.Protein.RotatedTorsions>
[ 6907 6896 6895 6894 ] final -150.12 input  -60.11 | X-H torsion
[ 7974 7965 7964 7962 ] final -121.40 input  175.53 | X-H torsion
[ 8008 7997 7996 7995 ] final  112.01 input   59.86 | X-H torsion
[ 10167 10162 10161 10158 ] final -144.72 input  -65.29 | X-H torsion
[ 10718 10713 10712 10709 ] final  -10.67 input   66.30 | X-H torsion
[ 10763 10752 10751 10750 ] final  -94.78 input  -60.55 | X-H torsion
[ 11005 11000 10999 10996 ] final  144.74 input  -57.11 | X-H torsion

> <Gold.Protein.ActiveResidues>
 VAL166  LYS551  ARG553  GLY616  TRP617  ASP618  TYR619  PRO620  LYS621  CYS622 
 ASP623  PHE694  ASN695  SER759  ASP760  ASP761  ALA762  ILE779  LEU786  VAL792 
 PHE793  MET794  SER795  GLU796  ALA797  LYS798  CYS799  TRP800  GLU811  SER814 

> <Gold.Protein.RotatedAtoms>
  151.1939  133.4650  159.2595 H   0  0  0  0  0  0  0  0  0  0  0  0  # atno 6907 bound_to 6896
  151.1136  135.0040  159.8515 H   0  0  0  0  0  0  0  0  0  0  0  0  # atno 6908 bound_to 6896
  152.5452  134.1857  159.8706 H   0  0  0  0  0  0  0  0  0  0  0  0  # atno 6909 bound_to 6896
  145.0408  140.8143  143.4267 H   0  0  0  0  0  0  0  0  0  0  0  0  # atno 7974 bound_to 7965
  156.2163  140.3008  155.9847 H   0  0  0  0  0  0  0  0  0  0  0  0  # atno 8008 bound_to 7997
  155.2597  140.0429  157.3013 H   0  0  0  0  0  0  0  0  0  0  0  0  # atno 8009 bound_to 7997
  154.5772  140.2365  155.8113 H   0  0  0  0  0  0  0  0  0  0  0  0  # atno 8010 bound_to 7997
  139.7873  143.8016  152.2646 H   0  0  0  0  0  0  0  0  0  0  0  0  # atno 10167 bound_to 10162
  156.6702  130.5007  149.6003 H   0  0  0  0  0  0  0  0  0  0  0  0  # atno 10718 bound_to 10713
  154.7087  135.5145  153.8634 H   0  0  0  0  0  0  0  0  0  0  0  0  # atno 10763 bound_to 10752
  153.0762  135.6617  154.0149 H   0  0  0  0  0  0  0  0  0  0  0  0  # atno 10764 bound_to 10752
  153.9995  135.3012  155.3383 H   0  0  0  0  0  0  0  0  0  0  0  0  # atno 10765 bound_to 10752
  140.0656  134.9180  157.1258 H   0  0  0  0  0  0  0  0  0  0  0  0  # atno 11005 bound_to 11000
  145.1650  139.2436  143.5371 LP  0  0  0  0  0  0  0  0  0  0  0  0  # atno 17320 bound_to 7965
  146.3509  140.1387  142.8595 LP  0  0  0  0  0  0  0  0  0  0  0  0  # atno 17321 bound_to 7965
  139.8097  144.7341  150.9714 LP  0  0  0  0  0  0  0  0  0  0  0  0  # atno 17342 bound_to 10162
  140.7820  143.4263  151.0763 LP  0  0  0  0  0  0  0  0  0  0  0  0  # atno 17343 bound_to 10162
  156.1945  130.6580  151.1098 LP  0  0  0  0  0  0  0  0  0  0  0  0  # atno 17370 bound_to 10713
  157.7080  131.0747  150.6601 LP  0  0  0  0  0  0  0  0  0  0  0  0  # atno 17371 bound_to 10713
  140.3704  134.2396  155.7178 LP  0  0  0  0  0  0  0  0  0  0  0  0  # atno 17394 bound_to 11000
  141.1991  133.8019  157.0551 LP  0  0  0  0  0  0  0  0  0  0  0  0  # atno 17395 bound_to 11000

$$$$
