AV-unprocessed.smi:610|AV-procd|sdf|3056|dock5
  -GOLD-   2262023583D 1   1.00000     0.00000
 Structure written by MMmdl.
 38 39  0  0  0  0  0  0  0  0  2 V2000
  148.2701  142.1253  157.4322 C   0  0  0  0  0  0  0  0  0  0  0  0
  149.6560  141.8021  156.8579 C   0  0  1  0  0  0  0  0  0  0  0  0
  150.7327  141.7912  157.9632 C   0  0  0  0  0  0  0  0  0  0  0  0
  151.2047  143.1222  158.2975 N   0  0  0  0  0  0  0  0  0  0  0  0
  152.5164  143.5117  158.5343 C   0  0  0  0  0  0  0  0  0  0  0  0
  152.4808  144.8573  158.8221 C   0  0  0  0  0  0  0  0  0  0  0  0
  151.1669  145.3157  158.7591 N   0  0  0  0  0  0  0  0  0  0  0  0
  150.4702  144.2343  158.4354 C   0  0  0  0  0  0  0  0  0  0  0  0
  149.5966  140.5085  156.1777 N   0  0  0  0  0  0  0  0  0  0  0  0
  149.7665  140.2990  154.8602 C   0  0  0  0  0  0  0  0  0  0  0  0
  149.9699  141.2181  154.0666 O   0  0  0  0  0  0  0  0  0  0  0  0
  149.6732  138.8477  154.3322 C   0  0  0  0  0  0  0  0  0  0  0  0
  148.6399  138.8357  153.2809 N   0  3  0  0  0  0  0  0  0  0  0  0
  151.0292  138.3605  153.7867 C   0  0  0  0  0  0  0  0  0  0  0  0
  151.7992  137.8302  155.0052 C   0  0  0  0  0  0  0  0  0  0  0  0
  150.7417  137.5002  156.0705 C   0  0  0  0  0  0  0  0  0  0  0  0
  149.3850  137.7860  155.4143 C   0  0  0  0  0  0  0  0  0  0  0  0
  148.2680  143.0978  157.9255 H   0  0  0  0  0  0  0  0  0  0  0  0
  147.9585  141.3800  158.1650 H   0  0  0  0  0  0  0  0  0  0  0  0
  147.5157  142.1555  156.6451 H   0  0  0  0  0  0  0  0  0  0  0  0
  149.8971  142.5903  156.1424 H   0  0  0  0  0  0  0  0  0  0  0  0
  150.3310  141.3443  158.8734 H   0  0  0  0  0  0  0  0  0  0  0  0
  151.5842  141.1780  157.6642 H   0  0  0  0  0  0  0  0  0  0  0  0
  153.3425  142.8175  158.4870 H   0  0  0  0  0  0  0  0  0  0  0  0
  153.2936  145.5256  159.0655 H   0  0  0  0  0  0  0  0  0  0  0  0
  149.3979  144.2502  158.3061 H   0  0  0  0  0  0  0  0  0  0  0  0
  149.4304  139.7025  156.7632 H   0  0  0  0  0  0  0  0  0  0  0  0
  148.9025  139.4693  152.5398 H   0  0  0  0  0  0  0  0  0  0  0  0
  147.7589  139.1278  153.6796 H   0  0  0  0  0  0  0  0  0  0  0  0
  150.8709  137.5403  153.0844 H   0  0  0  0  0  0  0  0  0  0  0  0
  151.5943  139.1242  153.2505 H   0  0  0  0  0  0  0  0  0  0  0  0
  152.3972  136.9570  154.7428 H   0  0  0  0  0  0  0  0  0  0  0  0
  152.4840  138.5902  155.3822 H   0  0  0  0  0  0  0  0  0  0  0  0
  150.8122  136.4674  156.4136 H   0  0  0  0  0  0  0  0  0  0  0  0
  150.8813  138.1427  156.9407 H   0  0  0  0  0  0  0  0  0  0  0  0
  148.6213  138.0693  156.1393 H   0  0  0  0  0  0  0  0  0  0  0  0
  149.0279  136.8709  154.9385 H   0  0  0  0  0  0  0  0  0  0  0  0
  148.5466  137.9005  152.9116 H   0  0  0  0  0  0  0  0  0  0  0  0
  1  2  1  0  0  0  0
  1 18  1  0  0  0  0
  1 19  1  0  0  0  0
  1 20  1  0  0  0  0
  2  3  1  0  0  0  0
  2  9  1  0  0  0  0
  2 21  1  0  0  0  0
  3  4  1  0  0  0  0
  3 22  1  0  0  0  0
  3 23  1  0  0  0  0
  4  8  1  0  0  0  0
  4  5  1  0  0  0  0
  5  6  2  0  0  0  0
  5 24  1  0  0  0  0
  6  7  1  0  0  0  0
  6 25  1  0  0  0  0
  7  8  2  0  0  0  0
  8 26  1  0  0  0  0
  9 10  1  0  0  0  0
  9 27  1  0  0  0  0
 10 11  2  0  0  0  0
 10 12  1  0  0  0  0
 12 17  1  0  0  0  0
 12 13  1  0  0  0  0
 12 14  1  0  0  0  0
 13 28  1  0  0  0  0
 13 29  1  0  0  0  0
 13 38  1  0  0  0  0
 14 15  1  0  0  0  0
 14 30  1  0  0  0  0
 14 31  1  0  0  0  0
 15 16  1  0  0  0  0
 15 32  1  0  0  0  0
 15 33  1  0  0  0  0
 16 17  1  0  0  0  0
 16 34  1  0  0  0  0
 16 35  1  0  0  0  0
 17 36  1  0  0  0  0
 17 37  1  0  0  0  0
M  CHG  1  13   1
M  END
> <s_m_source_file>
AV-unprocessed.smi

> <i_m_source_file_index>
610

> <i_lp_mmshare_version>
43012

> <i_f3d_flags>
0

> <s_epik_input>
W2NIXTFuW2NIXVtjSF1uMVtDSDJdW0NAQEhdKFtDSDNdKVtOSF1DKD1PKUMyKFtOSDJdKVtDSDJdW0NIMl1bQ0gyXVtDSDJdMg==

> <s_epik_cmdline>
J2VwaWtfcHl0aG9uJywgJy1waCcsICc3LjAnLCAnLXRuJywgJzgnLCAnLW1hJywgJzIwMCcsICctbWV0YWxfYmluZGluZycsICctaW1hZScsICc8aW5maWxlLm1hZT4nLCAnLW9tYWUnLCAnPG91dGZpbGUubWFlPic=

> <r_lp_tautomer_probability>
1

> <r_epik_Ionization_Penalty>
0.661147

> <r_epik_Ionization_Penalty_Charging>
0.661145

> <r_epik_Ionization_Penalty_Neutral>
1.19451e-06

> <r_epik_State_Penalty>
0.679243

> <r_epik_Charging_Adjusted_Penalty>
1.34039

> <i_epik_Tot_Q>
1

> <i_epik_Tot_abs_Q>
1

> <r_epik_Metal_State_Penalty>
0.372892

> <b_epik_Metal_Only>
0

> <s_lp_Force_Field>
OPLS_2005

> <r_lp_Energy>
24.5235

> <b_lp_Chiralities_Consistent>
1

> <s_lp_Variant>
AV-unprocessed.smi:610-4

> <Gold.Version>
5.8.1

> <Gold.Id.Protein>
6NUR|6NUR_protein|mol2

> <Gold.PLP.Fitness>
44.2692

> <Gold.PLP.PLP>
-30.6910

> <Gold.PLP.part.hbond>
-4.1222

> <Gold.PLP.part.metal>
0.0000

> <Gold.PLP.part.buried>
-3.5675

> <Gold.PLP.part.nonpolar>
-24.0620

> <Gold.PLP.part.repulsive>
0.4404

> <Gold.PLP.ligand.clash>
0.0000

> <Gold.PLP.ligand.torsion>
0.5569

> <Gold.PLP.Chemscore.Hbond>
3.8914

> <Gold.PLP.Chemscore.CHOScore>
0.9854

> <Gold.PLP.Chemscore.Metal>
0.0000

> <Gold.Chemscore.Hbonds>
donor molecule, donor type, donor heavy atom, donor atom, acceptor molecule, acceptor atom, score
      L1  H    13    28       P1  7957  1.00
      L1  H    13    38       P1  7948  2.00
      P1  H  7989  7998       L1    11  0.37
      P1  H  8011  8017       L1    11  0.57
      L1  C     8    26       P1  8028  0.13
      L1  C     8    26       P1  8029  0.90

> <Gold.PLP.Chemscore.Internal.Correction>
0.0617

> <Gold.Rescore>
     Score         DG    S(hbond)    S(metal)    S(lipo)     H(rot)  DE(clash)    DE(int)     intcor
     16.29     -17.77       2.75        0.00      70.26       2.00       0.97       0.51       ----

> <Gold.Chemscore.Fitness>
16.2899

> <Gold.Chemscore.DG>
-17.7750

> <Gold.Chemscore.ZeroCoef>
-5.4800

> <Gold.Chemscore.Hbond>
2.7507

> <Gold.Chemscore.Metal>
0.0000

> <Gold.Chemscore.Lipo>
70.2594

> <Gold.Chemscore.Internal_Hbond>
0.0000

> <Gold.Chemscore.DEClash>
0.9722

> <Gold.Chemscore.DEInternal>
0.5129

> <Gold.Chemscore.Rot>
1.9972

> <Gold.Chemscore.Internal.Correction>
   9.000000E+99

> <Gold.Chemscore.Hbonds>
donor molecule, donor type, donor heavy atom, donor atom, acceptor molecule, acceptor atom, score
      L1  H    13    28       P1  7957  0.99
      L1  H    13    38       P1  7948  0.96
      P1  H  7989  7998       L1    11  0.17
      P1  H  8011  8017       L1    11  0.58

> <Gold.Chemscore.Hbond.Weighted>
-9.1873

> <Gold.Chemscore.Metal.Weighted>
-0.0000

> <Gold.Chemscore.Lipo.Weighted>
-8.2203

> <Gold.Chemscore.Internal_Hbond.Weighted>
0.0000

> <Gold.Chemscore.DEClash.Weighted>
0.9722

> <Gold.Chemscore.DEInternal.Weighted>
0.5129

> <Gold.Chemscore.Rot.Weighted>
5.1127

> <Gold.Chemscore.Internal.Correction.Weighted>
   9.000000E+99

> <Gold.Protein.RotatedTorsions>
[ 6907 6896 6895 6894 ] final   13.49 input  -60.11 | X-H torsion
[ 7974 7965 7964 7962 ] final   77.58 input  175.53 | X-H torsion
[ 8008 7997 7996 7995 ] final -143.95 input   59.86 | X-H torsion
[ 10167 10162 10161 10158 ] final  -36.72 input  -65.29 | X-H torsion
[ 10718 10713 10712 10709 ] final  -11.70 input   66.30 | X-H torsion
[ 10763 10752 10751 10750 ] final  120.04 input  -60.55 | X-H torsion
[ 11005 11000 10999 10996 ] final -107.95 input  -57.11 | X-H torsion

> <Gold.Protein.ActiveResidues>
 VAL166  LYS551  ARG553  GLY616  TRP617  ASP618  TYR619  PRO620  LYS621  CYS622 
 ASP623  PHE694  ASN695  SER759  ASP760  ASP761  ALA762  ILE779  LEU786  VAL792 
 PHE793  MET794  SER795  GLU796  ALA797  LYS798  CYS799  TRP800  GLU811  SER814 

> <Gold.Protein.RotatedAtoms>
  151.7871  135.0746  160.0381 H   0  0  0  0  0  0  0  0  0  0  0  0  # atno 6907 bound_to 6896
  152.3182  133.5821  159.5735 H   0  0  0  0  0  0  0  0  0  0  0  0  # atno 6908 bound_to 6896
  150.7355  133.9966  159.3666 H   0  0  0  0  0  0  0  0  0  0  0  0  # atno 6909 bound_to 6896
  145.6882  139.2544  143.1775 H   0  0  0  0  0  0  0  0  0  0  0  0  # atno 7974 bound_to 7965
  155.5189  140.0590  157.2910 H   0  0  0  0  0  0  0  0  0  0  0  0  # atno 8008 bound_to 7997
  154.4525  140.1956  156.0424 H   0  0  0  0  0  0  0  0  0  0  0  0  # atno 8009 bound_to 7997
  156.0732  140.3257  155.7606 H   0  0  0  0  0  0  0  0  0  0  0  0  # atno 8010 bound_to 7997
  140.7136  143.3390  151.2399 H   0  0  0  0  0  0  0  0  0  0  0  0  # atno 10167 bound_to 10162
  156.6553  130.4966  149.6048 H   0  0  0  0  0  0  0  0  0  0  0  0  # atno 10718 bound_to 10713
  153.5923  135.3463  155.2915 H   0  0  0  0  0  0  0  0  0  0  0  0  # atno 10763 bound_to 10752
  154.8650  135.4208  154.2502 H   0  0  0  0  0  0  0  0  0  0  0  0  # atno 10764 bound_to 10752
  153.3312  135.7044  153.7017 H   0  0  0  0  0  0  0  0  0  0  0  0  # atno 10765 bound_to 10752
  141.0927  133.9026  157.2037 H   0  0  0  0  0  0  0  0  0  0  0  0  # atno 11005 bound_to 11000
  146.0905  140.7661  142.9598 LP  0  0  0  0  0  0  0  0  0  0  0  0  # atno 17320 bound_to 7965
  144.7005  140.3629  143.7160 LP  0  0  0  0  0  0  0  0  0  0  0  0  # atno 17321 bound_to 7965
  139.6892  143.9720  152.2850 LP  0  0  0  0  0  0  0  0  0  0  0  0  # atno 17342 bound_to 10162
  139.9376  144.6702  150.8299 LP  0  0  0  0  0  0  0  0  0  0  0  0  # atno 17343 bound_to 10162
  156.2053  130.6645  151.1211 LP  0  0  0  0  0  0  0  0  0  0  0  0  # atno 17370 bound_to 10713
  157.7128  131.0726  150.6440 LP  0  0  0  0  0  0  0  0  0  0  0  0  # atno 17371 bound_to 10713
  139.9756  135.0115  156.9623 LP  0  0  0  0  0  0  0  0  0  0  0  0  # atno 17394 bound_to 11000
  140.5214  134.0904  155.7293 LP  0  0  0  0  0  0  0  0  0  0  0  0  # atno 17395 bound_to 11000

$$$$
