AV-unprocessed.smi:1131|AV-procd|sdf|4850|dock2
  -GOLD-   22720 3423D 1   1.00000     0.00000
 Structure written by MMmdl.
 33 34  0  0  0  0  0  0  0  0  1 V2000
  151.1526  139.8778  157.0007 O   0  0  0  0  0  0  0  0  0  0  0  0
  151.1458  141.1097  157.0030 C   0  0  0  0  0  0  0  0  0  0  0  0
  150.5971  141.8969  155.8041 C   0  0  0  0  0  0  0  0  0  0  0  0
  149.5358  141.1816  155.0805 N   0  0  0  0  0  0  0  0  0  0  0  0
  148.2437  141.6873  155.0531 C   0  0  0  0  0  0  0  0  0  0  0  0
  147.2164  141.0750  154.4176 C   0  0  0  0  0  0  0  0  0  0  0  0
  147.4296  139.8157  153.7125 C   0  0  0  0  0  0  0  0  0  0  0  0
  146.5646  139.1863  153.1074 O   0  0  0  0  0  0  0  0  0  0  0  0
  148.7417  139.3377  153.7656 N   0  0  0  0  0  0  0  0  0  0  0  0
  149.8046  139.9632  154.4192 C   0  0  0  0  0  0  0  0  0  0  0  0
  150.9241  139.4527  154.4074 O   0  0  0  0  0  0  0  0  0  0  0  0
  151.5861  141.8426  158.0367 N   0  0  0  0  0  0  0  0  0  0  0  0
  152.1348  141.3015  159.2756 C   0  0  0  0  0  0  0  0  0  0  0  0
  152.8819  142.3710  160.0952 C   0  0  2  0  0  0  0  0  0  0  0  0
  153.1567  141.9913  161.5370 C   0  0  0  0  0  0  0  0  0  0  0  0
  153.4263  143.3514  162.1724 C   0  0  0  0  0  0  0  0  0  0  0  0
  152.6265  144.2834  161.4501 O   0  0  0  0  0  0  0  0  0  0  0  0
  152.1000  143.6716  160.2758 C   0  0  0  0  0  0  0  0  0  0  0  0
  148.9364  138.4665  153.2940 H   0  0  0  0  0  0  0  0  0  0  0  0
  150.2250  142.8555  156.1694 H   0  0  0  0  0  0  0  0  0  0  0  0
  151.4137  142.1462  155.1233 H   0  0  0  0  0  0  0  0  0  0  0  0
  148.0381  142.6160  155.5662 H   0  0  0  0  0  0  0  0  0  0  0  0
  146.2312  141.5184  154.4327 H   0  0  0  0  0  0  0  0  0  0  0  0
  151.5409  142.8483  157.9588 H   0  0  0  0  0  0  0  0  0  0  0  0
  151.3361  140.8573  159.8723 H   0  0  0  0  0  0  0  0  0  0  0  0
  152.8121  140.4875  159.0156 H   0  0  0  0  0  0  0  0  0  0  0  0
  153.8312  142.6078  159.6117 H   0  0  0  0  0  0  0  0  0  0  0  0
  152.2730  141.5365  161.9867 H   0  0  0  0  0  0  0  0  0  0  0  0
  153.9924  141.3000  161.6487 H   0  0  0  0  0  0  0  0  0  0  0  0
  153.1943  143.3674  163.2375 H   0  0  0  0  0  0  0  0  0  0  0  0
  154.4744  143.6268  162.0500 H   0  0  0  0  0  0  0  0  0  0  0  0
  152.1837  144.3317  159.4123 H   0  0  0  0  0  0  0  0  0  0  0  0
  151.0414  143.4679  160.4424 H   0  0  0  0  0  0  0  0  0  0  0  0
  1  2  2  0  0  0  0
  2  3  1  0  0  0  0
  2 12  1  0  0  0  0
  3  4  1  0  0  0  0
  3 20  1  0  0  0  0
  3 21  1  0  0  0  0
  4 10  1  0  0  0  0
  4  5  1  0  0  0  0
  5  6  2  0  0  0  0
  5 22  1  0  0  0  0
  6  7  1  0  0  0  0
  6 23  1  0  0  0  0
  7  8  2  0  0  0  0
  7  9  1  0  0  0  0
  9 19  1  0  0  0  0
  9 10  1  0  0  0  0
 10 11  2  0  0  0  0
 12 13  1  0  0  0  0
 12 24  1  0  0  0  0
 13 14  1  0  0  0  0
 13 25  1  0  0  0  0
 13 26  1  0  0  0  0
 14 18  1  0  0  0  0
 14 15  1  0  0  0  0
 14 27  1  0  0  0  0
 15 16  1  0  0  0  0
 15 28  1  0  0  0  0
 15 29  1  0  0  0  0
 16 17  1  0  0  0  0
 16 30  1  0  0  0  0
 16 31  1  0  0  0  0
 17 18  1  0  0  0  0
 18 32  1  0  0  0  0
 18 33  1  0  0  0  0
M  END
> <s_m_source_file>
AV-unprocessed.smi

> <i_m_source_file_index>
1131

> <i_lp_mmshare_version>
43012

> <i_f3d_flags>
0

> <s_epik_input>
W0NIMl0xT1tDSDJdW0NIMl1bQ0BIXTFbQ0gyXVtOSF1DKD1PKVtDSDJdbjJbY0hdW2NIXWMoPU8pW25IXWMyPU8=

> <s_epik_cmdline>
J2VwaWtfcHl0aG9uJywgJy1waCcsICc3LjAnLCAnLXRuJywgJzgnLCAnLW1hJywgJzIwMCcsICctbWV0YWxfYmluZGluZycsICctaW1hZScsICc8aW5maWxlLm1hZT4nLCAnLW9tYWUnLCAnPG91dGZpbGUubWFlPic=

> <r_lp_tautomer_probability>
0.999537

> <r_epik_Ionization_Penalty>
0.00329016

> <r_epik_Ionization_Penalty_Charging>
0.00329014

> <r_epik_Ionization_Penalty_Neutral>
1.87063e-08

> <r_epik_State_Penalty>
0.00232461

> <r_epik_Charging_Adjusted_Penalty>
0.00561475

> <i_epik_Tot_Q>
0

> <i_epik_Tot_abs_Q>
0

> <r_epik_Metal_State_Penalty>
0.365289

> <b_epik_Metal_Only>
0

> <s_lp_Force_Field>
OPLS_2005

> <r_lp_Energy>
17.5195

> <b_lp_Chiralities_Consistent>
1

> <s_lp_Variant>
AV-unprocessed.smi:1131-1

> <Gold.Version>
5.8.1

> <Gold.Id.Protein>
6NUR|6NUR_protein|mol2

> <Gold.PLP.Fitness>
39.3266

> <Gold.PLP.PLP>
-34.7801

> <Gold.PLP.part.hbond>
-2.0000

> <Gold.PLP.part.metal>
0.0000

> <Gold.PLP.part.buried>
-4.2376

> <Gold.PLP.part.nonpolar>
-27.9598

> <Gold.PLP.part.repulsive>
0.7218

> <Gold.PLP.ligand.clash>
0.0000

> <Gold.PLP.ligand.torsion>
0.5815

> <Gold.PLP.Chemscore.Hbond>
0.9000

> <Gold.PLP.Chemscore.CHOScore>
1.0000

> <Gold.PLP.Chemscore.Metal>
0.0000

> <Gold.Chemscore.Hbonds>
donor molecule, donor type, donor heavy atom, donor atom, acceptor molecule, acceptor atom, score
      P1  H  7989  7998       L1    11  0.60
      L1  C     5    22       P1  8028  1.00

> <Gold.PLP.Chemscore.Internal.Correction>
0.0096

> <Gold.Rescore>
     Score         DG    S(hbond)    S(metal)    S(lipo)     H(rot)  DE(clash)    DE(int)     intcor
      6.90     -11.54       0.99        0.00      69.37       2.09       0.30       4.34       ----

> <Gold.Chemscore.Fitness>
6.9008

> <Gold.Chemscore.DG>
-11.5424

> <Gold.Chemscore.ZeroCoef>
-5.4800

> <Gold.Chemscore.Hbond>
0.9885

> <Gold.Chemscore.Metal>
0.0000

> <Gold.Chemscore.Lipo>
69.3685

> <Gold.Chemscore.Internal_Hbond>
0.0000

> <Gold.Chemscore.DEClash>
0.3010

> <Gold.Chemscore.DEInternal>
4.3407

> <Gold.Chemscore.Rot>
2.0919

> <Gold.Chemscore.Internal.Correction>
   9.000000E+99

> <Gold.Chemscore.Hbonds>
donor molecule, donor type, donor heavy atom, donor atom, acceptor molecule, acceptor atom, score
      P1  H  7989  7998       L1    11  0.04

> <Gold.Chemscore.Hbond.Weighted>
-3.3016

> <Gold.Chemscore.Metal.Weighted>
-0.0000

> <Gold.Chemscore.Lipo.Weighted>
-8.1161

> <Gold.Chemscore.Internal_Hbond.Weighted>
0.0000

> <Gold.Chemscore.DEClash.Weighted>
0.3010

> <Gold.Chemscore.DEInternal.Weighted>
4.3407

> <Gold.Chemscore.Rot.Weighted>
5.3552

> <Gold.Chemscore.Internal.Correction.Weighted>
   9.000000E+99

> <Gold.Protein.RotatedTorsions>
[ 6907 6896 6895 6894 ] final   21.06 input  -60.11 | X-H torsion
[ 7974 7965 7964 7962 ] final   44.15 input  175.53 | X-H torsion
[ 8008 7997 7996 7995 ] final  -30.82 input   59.86 | X-H torsion
[ 10167 10162 10161 10158 ] final -172.46 input  -65.29 | X-H torsion
[ 10718 10713 10712 10709 ] final  -62.88 input   66.30 | X-H torsion
[ 10763 10752 10751 10750 ] final  128.22 input  -60.55 | X-H torsion
[ 11005 11000 10999 10996 ] final -130.74 input  -57.11 | X-H torsion

> <Gold.Protein.ActiveResidues>
 VAL166  LYS551  ARG553  GLY616  TRP617  ASP618  TYR619  PRO620  LYS621  CYS622 
 ASP623  PHE694  ASN695  SER759  ASP760  ASP761  ALA762  ILE779  LEU786  VAL792 
 PHE793  MET794  SER795  GLU796  ALA797  LYS798  CYS799  TRP800  GLU811  SER814 

> <Gold.Protein.RotatedAtoms>
  151.9059  135.0359  160.0510 H   0  0  0  0  0  0  0  0  0  0  0  0  # atno 6907 bound_to 6896
  152.2319  133.5061  159.5229 H   0  0  0  0  0  0  0  0  0  0  0  0  # atno 6908 bound_to 6896
  150.7028  134.1121  159.4046 H   0  0  0  0  0  0  0  0  0  0  0  0  # atno 6909 bound_to 6896
  146.0593  139.5106  142.9668 H   0  0  0  0  0  0  0  0  0  0  0  0  # atno 7974 bound_to 7965
  154.4236  140.1781  156.1468 H   0  0  0  0  0  0  0  0  0  0  0  0  # atno 8008 bound_to 7997
  155.9947  140.3365  155.6763 H   0  0  0  0  0  0  0  0  0  0  0  0  # atno 8009 bound_to 7997
  155.6324  140.0671  157.2635 H   0  0  0  0  0  0  0  0  0  0  0  0  # atno 8010 bound_to 7997
  139.5743  144.1568  152.1429 H   0  0  0  0  0  0  0  0  0  0  0  0  # atno 10167 bound_to 10162
  156.0826  130.4214  150.1198 H   0  0  0  0  0  0  0  0  0  0  0  0  # atno 10718 bound_to 10713
  153.7220  135.3252  155.3268 H   0  0  0  0  0  0  0  0  0  0  0  0  # atno 10763 bound_to 10752
  154.8353  135.4501  154.1208 H   0  0  0  0  0  0  0  0  0  0  0  0  # atno 10764 bound_to 10752
  153.2331  135.6962  153.7947 H   0  0  0  0  0  0  0  0  0  0  0  0  # atno 10765 bound_to 10752
  140.9319  134.1308  157.4227 H   0  0  0  0  0  0  0  0  0  0  0  0  # atno 11005 bound_to 11000
  145.6588  141.0245  143.1720 LP  0  0  0  0  0  0  0  0  0  0  0  0  # atno 17320 bound_to 7965
  144.7166  139.8176  143.7396 LP  0  0  0  0  0  0  0  0  0  0  0  0  # atno 17321 bound_to 7965
  140.1107  144.5459  150.6927 LP  0  0  0  0  0  0  0  0  0  0  0  0  # atno 17342 bound_to 10162
  140.7027  143.2446  151.4818 LP  0  0  0  0  0  0  0  0  0  0  0  0  # atno 17343 bound_to 10162
  156.9226  130.9688  151.3546 LP  0  0  0  0  0  0  0  0  0  0  0  0  # atno 17370 bound_to 10713
  157.5949  130.8470  149.8714 LP  0  0  0  0  0  0  0  0  0  0  0  0  # atno 17371 bound_to 10713
  139.8798  135.0008  156.6030 LP  0  0  0  0  0  0  0  0  0  0  0  0  # atno 17394 bound_to 11000
  140.7851  133.8628  155.8599 LP  0  0  0  0  0  0  0  0  0  0  0  0  # atno 17395 bound_to 11000

$$$$
