AV-unprocessed.smi:2106|AV-procd|sdf|8598|dock8
  -GOLD-   2272011333D 1   1.00000     0.00000
 Structure written by MMmdl.
 48 49  0  0  0  0  0  0  0  0  2 V2000
  146.2914  127.3654  155.5034 C   0  0  0  0  0  0  0  0  0  0  0  0
  146.6640  127.7145  154.0929 C   0  0  0  0  0  0  0  0  0  0  0  0
  147.6101  127.0715  153.2469 C   0  0  0  0  0  0  0  0  0  0  0  0
  147.5584  127.7815  152.0807 C   0  0  0  0  0  0  0  0  0  0  0  0
  148.3168  127.5969  150.8076 C   0  0  0  0  0  0  0  0  0  0  0  0
  146.6211  128.7833  152.2624 N   0  0  0  0  0  0  0  0  0  0  0  0
  146.1790  129.8070  151.3291 C   0  0  0  0  0  0  0  0  0  0  0  0
  146.2292  131.1946  151.9707 C   0  0  0  0  0  0  0  0  0  0  0  0
  145.2906  131.5891  152.6624 O   0  0  0  0  0  0  0  0  0  0  0  0
  147.3311  131.9240  151.7356 N   0  0  0  0  0  0  0  0  0  0  0  0
  147.5885  133.2536  152.2764 C   0  0  0  0  0  0  0  0  0  0  0  0
  148.7452  133.2423  153.2956 C   0  0  0  0  0  0  0  0  0  0  0  0
  148.9281  134.5529  153.9681 N   0  3  1  0  0  0  0  0  0  0  0  0
  147.7179  134.9743  154.7117 C   0  0  0  0  0  0  0  0  0  0  0  0
  147.9089  136.3805  155.3088 C   0  0  1  0  0  0  0  0  0  0  0  0
  146.7143  136.8059  156.1696 C   0  0  0  0  0  0  0  0  0  0  0  0
  149.0683  136.3921  156.1374 O   0  0  0  0  0  0  0  0  0  0  0  0
  150.2767  136.0061  155.4836 C   0  0  2  0  0  0  0  0  0  0  0  0
  150.7715  137.0755  154.4929 C   0  0  0  0  0  0  0  0  0  0  0  0
  150.1184  134.6087  154.8527 C   0  0  0  0  0  0  0  0  0  0  0  0
  146.0746  128.7385  153.4976 N   0  0  0  0  0  0  0  0  0  0  0  0
  146.8806  126.5243  155.8690 H   0  0  0  0  0  0  0  0  0  0  0  0
  145.2393  127.0893  155.5747 H   0  0  0  0  0  0  0  0  0  0  0  0
  146.4633  128.2068  156.1754 H   0  0  0  0  0  0  0  0  0  0  0  0
  148.2330  126.2163  153.4636 H   0  0  0  0  0  0  0  0  0  0  0  0
  148.9771  126.7320  150.8702 H   0  0  0  0  0  0  0  0  0  0  0  0
  148.9303  128.4714  150.5903 H   0  0  0  0  0  0  0  0  0  0  0  0
  147.6389  127.4395  149.9687 H   0  0  0  0  0  0  0  0  0  0  0  0
  146.8063  129.7788  150.4364 H   0  0  0  0  0  0  0  0  0  0  0  0
  145.1619  129.5836  151.0058 H   0  0  0  0  0  0  0  0  0  0  0  0
  148.0542  131.5145  151.1612 H   0  0  0  0  0  0  0  0  0  0  0  0
  147.7894  133.9342  151.4489 H   0  0  0  0  0  0  0  0  0  0  0  0
  146.6744  133.6059  152.7550 H   0  0  0  0  0  0  0  0  0  0  0  0
  148.5250  132.4844  154.0489 H   0  0  0  0  0  0  0  0  0  0  0  0
  149.6828  132.9443  152.8237 H   0  0  0  0  0  0  0  0  0  0  0  0
  146.8566  134.9776  154.0424 H   0  0  0  0  0  0  0  0  0  0  0  0
  147.5066  134.2515  155.5018 H   0  0  0  0  0  0  0  0  0  0  0  0
  148.0220  137.1083  154.5051 H   0  0  0  0  0  0  0  0  0  0  0  0
  145.7942  136.8244  155.5848 H   0  0  0  0  0  0  0  0  0  0  0  0
  146.8663  137.8040  156.5812 H   0  0  0  0  0  0  0  0  0  0  0  0
  146.5662  136.1215  157.0054 H   0  0  0  0  0  0  0  0  0  0  0  0
  151.0312  135.9319  156.2676 H   0  0  0  0  0  0  0  0  0  0  0  0
  151.7599  136.8195  154.1107 H   0  0  0  0  0  0  0  0  0  0  0  0
  150.8495  138.0483  154.9789 H   0  0  0  0  0  0  0  0  0  0  0  0
  150.1111  137.1833  153.6328 H   0  0  0  0  0  0  0  0  0  0  0  0
  150.0102  133.8621  155.6412 H   0  0  0  0  0  0  0  0  0  0  0  0
  151.0255  134.3563  154.3049 H   0  0  0  0  0  0  0  0  0  0  0  0
  149.0677  135.2368  153.2381 H   0  0  0  0  0  0  0  0  0  0  0  0
  1  2  1  0  0  0  0
  1 22  1  0  0  0  0
  1 23  1  0  0  0  0
  1 24  1  0  0  0  0
  2 21  2  0  0  0  0
  2  3  1  0  0  0  0
  3  4  2  0  0  0  0
  3 25  1  0  0  0  0
  4  5  1  0  0  0  0
  4  6  1  0  0  0  0
  5 26  1  0  0  0  0
  5 27  1  0  0  0  0
  5 28  1  0  0  0  0
  6  7  1  0  0  0  0
  6 21  1  0  0  0  0
  7  8  1  0  0  0  0
  7 29  1  0  0  0  0
  7 30  1  0  0  0  0
  8  9  2  0  0  0  0
  8 10  1  0  0  0  0
 10 11  1  0  0  0  0
 10 31  1  0  0  0  0
 11 12  1  0  0  0  0
 11 32  1  0  0  0  0
 11 33  1  0  0  0  0
 12 13  1  0  0  0  0
 12 34  1  0  0  0  0
 12 35  1  0  0  0  0
 13 20  1  0  0  0  0
 13 14  1  0  0  0  0
 13 48  1  0  0  0  0
 14 15  1  0  0  0  0
 14 36  1  0  0  0  0
 14 37  1  0  0  0  0
 15 16  1  0  0  0  0
 15 17  1  0  0  0  0
 15 38  1  0  0  0  0
 16 39  1  0  0  0  0
 16 40  1  0  0  0  0
 16 41  1  0  0  0  0
 17 18  1  0  0  0  0
 18 19  1  0  0  0  0
 18 20  1  0  0  0  0
 18 42  1  0  0  0  0
 19 43  1  0  0  0  0
 19 44  1  0  0  0  0
 19 45  1  0  0  0  0
 20 46  1  0  0  0  0
 20 47  1  0  0  0  0
M  CHG  1  13   1
M  END
> <s_m_source_file>
AV-unprocessed.smi

> <i_m_source_file_index>
2106

> <i_lp_mmshare_version>
43012

> <i_f3d_flags>
0

> <s_epik_input>
W0NIM11jMVtjSF1jKFtDSDNdKW4objEpW0NIMl1DKD1PKVtOSF1bQ0gyXVtDSDJdTjJbQ0gyXVtDQEBIXShbQ0gzXSlPW0NAQEhdKFtDSDNdKVtDSDJdMg==

> <s_epik_cmdline>
J2VwaWtfcHl0aG9uJywgJy1waCcsICc3LjAnLCAnLXRuJywgJzgnLCAnLW1hJywgJzIwMCcsICctbWV0YWxfYmluZGluZycsICctaW1hZScsICc8aW5maWxlLm1hZT4nLCAnLW9tYWUnLCAnPG91dGZpbGUubWFlPic=

> <r_lp_tautomer_probability>
1

> <r_epik_Ionization_Penalty>
0.748586

> <r_epik_Ionization_Penalty_Charging>
0.748396

> <r_epik_Ionization_Penalty_Neutral>
0.000189656

> <r_epik_State_Penalty>
0.775162

> <r_epik_Charging_Adjusted_Penalty>
1.52356

> <i_epik_Tot_Q>
1

> <i_epik_Tot_abs_Q>
1

> <r_epik_Metal_State_Penalty>
0.775295

> <b_epik_Metal_Only>
0

> <s_lp_Force_Field>
OPLS_2005

> <r_lp_Energy>
15.4858

> <b_lp_Chiralities_Consistent>
1

> <s_lp_Variant>
AV-unprocessed.smi:2106-6

> <Gold.Version>
5.8.1

> <Gold.Id.Protein>
6NUR|6NUR_protein|mol2

> <Gold.PLP.Fitness>
39.6769

> <Gold.PLP.PLP>
-32.1436

> <Gold.PLP.part.hbond>
-1.7662

> <Gold.PLP.part.metal>
0.0000

> <Gold.PLP.part.buried>
-3.7267

> <Gold.PLP.part.nonpolar>
-27.6233

> <Gold.PLP.part.repulsive>
0.3587

> <Gold.PLP.ligand.clash>
0.0000

> <Gold.PLP.ligand.torsion>
0.4732

> <Gold.PLP.Chemscore.Hbond>
2.8125

> <Gold.PLP.Chemscore.CHOScore>
0.0000

> <Gold.PLP.Chemscore.Metal>
0.0000

> <Gold.Chemscore.Hbonds>
donor molecule, donor type, donor heavy atom, donor atom, acceptor molecule, acceptor atom, score
      L1  H    10    31       P1 10747  0.76
      L1  H    13    48       P1  7948  2.00

> <Gold.PLP.Chemscore.Internal.Correction>
0.0423

> <Gold.Rescore>
     Score         DG    S(hbond)    S(metal)    S(lipo)     H(rot)  DE(clash)    DE(int)     intcor
     15.19     -15.91       1.84        0.00      74.41       1.73       0.21       0.51       ----

> <Gold.Chemscore.Fitness>
15.1887

> <Gold.Chemscore.DG>
-15.9135

> <Gold.Chemscore.ZeroCoef>
-5.4800

> <Gold.Chemscore.Hbond>
1.8446

> <Gold.Chemscore.Metal>
0.0000

> <Gold.Chemscore.Lipo>
74.4076

> <Gold.Chemscore.Internal_Hbond>
0.0000

> <Gold.Chemscore.DEClash>
0.2110

> <Gold.Chemscore.DEInternal>
0.5138

> <Gold.Chemscore.Rot>
1.7316

> <Gold.Chemscore.Internal.Correction>
   9.000000E+99

> <Gold.Chemscore.Hbonds>
donor molecule, donor type, donor heavy atom, donor atom, acceptor molecule, acceptor atom, score
      L1  H    10    31       P1 10747  0.77
      L1  H    13    48       P1  7948  0.30

> <Gold.Chemscore.Hbond.Weighted>
-6.1608

> <Gold.Chemscore.Metal.Weighted>
-0.0000

> <Gold.Chemscore.Lipo.Weighted>
-8.7057

> <Gold.Chemscore.Internal_Hbond.Weighted>
0.0000

> <Gold.Chemscore.DEClash.Weighted>
0.2110

> <Gold.Chemscore.DEInternal.Weighted>
0.5138

> <Gold.Chemscore.Rot.Weighted>
4.4330

> <Gold.Chemscore.Internal.Correction.Weighted>
   9.000000E+99

> <Gold.Protein.RotatedTorsions>
[ 6907 6896 6895 6894 ] final   58.19 input  -60.11 | X-H torsion
[ 7974 7965 7964 7962 ] final  175.38 input  175.53 | X-H torsion
[ 8008 7997 7996 7995 ] final  118.87 input   59.86 | X-H torsion
[ 10167 10162 10161 10158 ] final   23.72 input  -65.29 | X-H torsion
[ 10718 10713 10712 10709 ] final  -48.28 input   66.30 | X-H torsion
[ 10763 10752 10751 10750 ] final  -59.00 input  -60.55 | X-H torsion
[ 11005 11000 10999 10996 ] final   26.99 input  -57.11 | X-H torsion

> <Gold.Protein.ActiveResidues>
 VAL166  LYS551  ARG553  GLY616  TRP617  ASP618  TYR619  PRO620  LYS621  CYS622 
 ASP623  PHE694  ASN695  SER759  ASP760  ASP761  ALA762  ILE779  LEU786  VAL792 
 PHE793  MET794  SER795  GLU796  ALA797  LYS798  CYS799  TRP800  GLU811  SER814 

> <Gold.Protein.RotatedAtoms>
  152.3801  134.6603  160.0145 H   0  0  0  0  0  0  0  0  0  0  0  0  # atno 6907 bound_to 6896
  151.6869  133.3306  159.3241 H   0  0  0  0  0  0  0  0  0  0  0  0  # atno 6908 bound_to 6896
  150.7741  134.6668  159.6414 H   0  0  0  0  0  0  0  0  0  0  0  0  # atno 6909 bound_to 6896
  144.7203  139.9938  143.6440 H   0  0  0  0  0  0  0  0  0  0  0  0  # atno 7974 bound_to 7965
  156.2568  140.2865  156.0902 H   0  0  0  0  0  0  0  0  0  0  0  0  # atno 8008 bound_to 7997
  155.1471  140.0396  157.2830 H   0  0  0  0  0  0  0  0  0  0  0  0  # atno 8009 bound_to 7997
  154.6487  140.2539  155.7245 H   0  0  0  0  0  0  0  0  0  0  0  0  # atno 8010 bound_to 7997
  140.5246  143.9945  150.6434 H   0  0  0  0  0  0  0  0  0  0  0  0  # atno 10167 bound_to 10162
  156.2003  130.4156  149.9251 H   0  0  0  0  0  0  0  0  0  0  0  0  # atno 10718 bound_to 10713
  154.2470  135.6333  153.5227 H   0  0  0  0  0  0  0  0  0  0  0  0  # atno 10763 bound_to 10752
  152.9919  135.5555  154.5849 H   0  0  0  0  0  0  0  0  0  0  0  0  # atno 10764 bound_to 10752
  154.5368  135.2892  155.1106 H   0  0  0  0  0  0  0  0  0  0  0  0  # atno 10765 bound_to 10752
  140.3311  134.2437  155.7702 H   0  0  0  0  0  0  0  0  0  0  0  0  # atno 11005 bound_to 11000
  146.0390  139.3404  143.0709 LP  0  0  0  0  0  0  0  0  0  0  0  0  # atno 17320 bound_to 7965
  145.8358  140.9607  143.0825 LP  0  0  0  0  0  0  0  0  0  0  0  0  # atno 17321 bound_to 7965
  140.3303  143.3081  152.0694 LP  0  0  0  0  0  0  0  0  0  0  0  0  # atno 17342 bound_to 10162
  139.4934  144.6513  151.6668 LP  0  0  0  0  0  0  0  0  0  0  0  0  # atno 17343 bound_to 10162
  156.6962  130.8915  151.3594 LP  0  0  0  0  0  0  0  0  0  0  0  0  # atno 17370 bound_to 10713
  157.6981  130.9304  150.0705 LP  0  0  0  0  0  0  0  0  0  0  0  0  # atno 17371 bound_to 10713
  141.2063  133.7836  157.0184 LP  0  0  0  0  0  0  0  0  0  0  0  0  # atno 17394 bound_to 11000
  140.0860  134.9620  157.1701 LP  0  0  0  0  0  0  0  0  0  0  0  0  # atno 17395 bound_to 11000

$$$$
