AV-unprocessed.smi:2531|AV-procd|sdf|9966|dock5
  -GOLD-   2272014 03D 1   1.00000     0.00000
 Structure written by MMmdl.
 45 47  0  0  0  0  0  0  0  0  2 V2000
  152.9157  140.1878  157.8903 O   0  0  0  0  0  0  0  0  0  0  0  0
  151.8720  140.8184  157.7155 C   0  0  0  0  0  0  0  0  0  0  0  0
  151.4203  141.8877  158.7318 C   0  0  0  0  0  0  0  0  0  0  0  0
  151.2247  143.2775  158.0840 C   0  0  0  0  0  0  0  0  0  0  0  0
  152.3609  144.1801  158.5906 C   0  0  0  0  0  0  0  0  0  0  0  0
  153.3443  143.2602  159.3139 C   0  0  0  0  0  0  0  0  0  0  0  0
  152.4794  142.1092  159.8245 C   0  0  0  0  0  0  0  0  0  0  0  0
  151.0175  140.5298  156.6475 N   0  0  0  0  0  0  0  0  0  0  0  0
  151.0302  139.2180  156.0170 C   0  0  0  0  0  0  0  0  0  0  0  0
  149.5526  139.4738  155.7025 C   0  0  0  0  0  0  0  0  0  0  0  0
  148.4811  138.0100  156.0636 S   0  0  0  0  0  0  0  0  0  0  0  0
  147.5565  137.9110  154.9226 O   0  0  0  0  0  0  0  0  0  0  0  0
  149.3756  136.8630  156.2904 O   0  0  0  0  0  0  0  0  0  0  0  0
  147.7567  138.5068  157.4278 N   0  5  0  0  0  0  0  0  0  0  0  0
  147.2555  137.5243  158.3776 C   0  0  0  0  0  0  0  0  0  0  0  0
  148.4124  136.9077  159.2012 C   0  0  0  0  0  0  0  0  0  0  0  0
  148.0215  136.3182  160.5539 C   0  0  0  0  0  0  0  0  0  0  0  0
  148.0054  134.9180  160.7478 C   0  0  0  0  0  0  0  0  0  0  0  0
  147.6471  134.4160  162.0130 C   0  0  0  0  0  0  0  0  0  0  0  0
  147.3054  135.3255  163.0318 C   0  0  0  0  0  0  0  0  0  0  0  0
  147.3370  136.7029  162.7377 C   0  0  0  0  0  0  0  0  0  0  0  0
  147.6786  137.1960  161.5281 N   0  0  0  0  0  0  0  0  0  0  0  0
  149.5685  140.5546  156.7923 C   0  0  0  0  0  0  0  0  0  0  0  0
  150.4798  141.5706  159.1840 H   0  0  0  0  0  0  0  0  0  0  0  0
  151.2287  143.2323  156.9939 H   0  0  0  0  0  0  0  0  0  0  0  0
  150.2597  143.6981  158.3686 H   0  0  0  0  0  0  0  0  0  0  0  0
  152.8402  144.7360  157.7842 H   0  0  0  0  0  0  0  0  0  0  0  0
  151.9582  144.9091  159.2949 H   0  0  0  0  0  0  0  0  0  0  0  0
  154.0837  142.8815  158.6072 H   0  0  0  0  0  0  0  0  0  0  0  0
  153.8818  143.7678  160.1153 H   0  0  0  0  0  0  0  0  0  0  0  0
  151.9880  142.4002  160.7537 H   0  0  0  0  0  0  0  0  0  0  0  0
  153.0750  141.2207  160.0402 H   0  0  0  0  0  0  0  0  0  0  0  0
  151.6751  139.1520  155.1406 H   0  0  0  0  0  0  0  0  0  0  0  0
  151.1905  138.3978  156.7201 H   0  0  0  0  0  0  0  0  0  0  0  0
  149.3933  139.8522  154.6917 H   0  0  0  0  0  0  0  0  0  0  0  0
  146.5073  137.9384  159.0543 H   0  0  0  0  0  0  0  0  0  0  0  0
  146.7481  136.7154  157.8514 H   0  0  0  0  0  0  0  0  0  0  0  0
  148.8785  136.1167  158.6128 H   0  0  0  0  0  0  0  0  0  0  0  0
  149.1926  137.6547  159.3537 H   0  0  0  0  0  0  0  0  0  0  0  0
  148.2810  134.2453  159.9489 H   0  0  0  0  0  0  0  0  0  0  0  0
  147.6366  133.3524  162.1988 H   0  0  0  0  0  0  0  0  0  0  0  0
  147.0272  134.9765  164.0149 H   0  0  0  0  0  0  0  0  0  0  0  0
  147.0781  137.4287  163.4943 H   0  0  0  0  0  0  0  0  0  0  0  0
  149.2234  140.2198  157.7708 H   0  0  0  0  0  0  0  0  0  0  0  0
  149.1118  141.4978  156.4921 H   0  0  0  0  0  0  0  0  0  0  0  0
  1  2  2  0  0  0  0
  2  3  1  0  0  0  0
  2  8  1  0  0  0  0
  3  7  1  0  0  0  0
  3  4  1  0  0  0  0
  3 24  1  0  0  0  0
  4  5  1  0  0  0  0
  4 25  1  0  0  0  0
  4 26  1  0  0  0  0
  5  6  1  0  0  0  0
  5 27  1  0  0  0  0
  5 28  1  0  0  0  0
  6  7  1  0  0  0  0
  6 29  1  0  0  0  0
  6 30  1  0  0  0  0
  7 31  1  0  0  0  0
  7 32  1  0  0  0  0
  8 23  1  0  0  0  0
  8  9  1  0  0  0  0
  9 10  1  0  0  0  0
  9 33  1  0  0  0  0
  9 34  1  0  0  0  0
 10 11  1  0  0  0  0
 10 23  1  0  0  0  0
 10 35  1  0  0  0  0
 11 12  2  0  0  0  0
 11 13  2  0  0  0  0
 11 14  1  0  0  0  0
 14 15  1  0  0  0  0
 15 16  1  0  0  0  0
 15 36  1  0  0  0  0
 15 37  1  0  0  0  0
 16 17  1  0  0  0  0
 16 38  1  0  0  0  0
 16 39  1  0  0  0  0
 17 22  1  0  0  0  0
 17 18  2  0  0  0  0
 18 19  1  0  0  0  0
 18 40  1  0  0  0  0
 19 20  2  0  0  0  0
 19 41  1  0  0  0  0
 20 21  1  0  0  0  0
 20 42  1  0  0  0  0
 21 22  2  0  0  0  0
 21 43  1  0  0  0  0
 23 44  1  0  0  0  0
 23 45  1  0  0  0  0
M  CHG  1  14  -1
M  END
> <s_m_source_file>
AV-unprocessed.smi

> <i_m_source_file_index>
2531

> <i_lp_mmshare_version>
43012

> <i_f3d_flags>
0

> <s_epik_input>
W0NIMl0xW0NIMl1bQ0gyXVtDSDJdW0NIXTFDKD1PKU4yW0NIMl1bQ0hdKFtDSDJdMilTKD1PKSg9TylbTkhdW0NIMl1bQ0gyXWMzW2NIXVtjSF1bY0hdW2NIXW4z

> <s_epik_cmdline>
J2VwaWtfcHl0aG9uJywgJy1waCcsICc3LjAnLCAnLXRuJywgJzgnLCAnLW1hJywgJzIwMCcsICctbWV0YWxfYmluZGluZycsICctaW1hZScsICc8aW5maWxlLm1hZT4nLCAnLW9tYWUnLCAnPG91dGZpbGUubWFlPic=

> <r_epik_Ionization_Penalty>
5.87379

> <r_epik_Ionization_Penalty_Charging>
5.8024

> <r_epik_Ionization_Penalty_Neutral>
0.0713848

> <r_epik_State_Penalty>
5.81862

> <r_epik_Charging_Adjusted_Penalty>
11.621

> <i_epik_Tot_Q>
-1

> <i_epik_Tot_abs_Q>
1

> <r_epik_Metal_State_Penalty>
1.80653

> <b_epik_Metal_Only>
1

> <s_lp_Force_Field>
OPLS_2005

> <r_lp_Energy>
33.3625

> <b_lp_Chiralities_Consistent>
1

> <s_lp_Variant>
AV-unprocessed.smi:2531-3

> <Gold.Version>
5.8.1

> <Gold.Id.Protein>
6NUR|6NUR_protein|mol2

> <Gold.PLP.Fitness>
51.0897

> <Gold.PLP.PLP>
-43.6266

> <Gold.PLP.part.hbond>
-3.0000

> <Gold.PLP.part.metal>
0.0000

> <Gold.PLP.part.buried>
-4.0552

> <Gold.PLP.part.nonpolar>
-36.3353

> <Gold.PLP.part.repulsive>
0.1024

> <Gold.PLP.ligand.clash>
0.0000

> <Gold.PLP.ligand.torsion>
1.7343

> <Gold.PLP.Chemscore.Hbond>
2.8000

> <Gold.PLP.Chemscore.CHOScore>
0.0000

> <Gold.PLP.Chemscore.Metal>
0.0000

> <Gold.Chemscore.Hbonds>
donor molecule, donor type, donor heavy atom, donor atom, acceptor molecule, acceptor atom, score
      P1  H  6931  6943       L1    22  1.00
      P1  H  6934  6947       L1    22  0.77
      P1  H  7997  8009       L1     1  0.99

> <Gold.PLP.Chemscore.Internal.Correction>
2.5317

> <Gold.Rescore>
     Score         DG    S(hbond)    S(metal)    S(lipo)     H(rot)  DE(clash)    DE(int)     intcor
     19.61     -21.57       2.21        0.00     109.75       1.61       0.05       1.91       ----

> <Gold.Chemscore.Fitness>
19.6105

> <Gold.Chemscore.DG>
-21.5684

> <Gold.Chemscore.ZeroCoef>
-5.4800

> <Gold.Chemscore.Hbond>
2.2071

> <Gold.Chemscore.Metal>
0.0000

> <Gold.Chemscore.Lipo>
109.7520

> <Gold.Chemscore.Internal_Hbond>
0.0000

> <Gold.Chemscore.DEClash>
0.0456

> <Gold.Chemscore.DEInternal>
1.9123

> <Gold.Chemscore.Rot>
1.6110

> <Gold.Chemscore.Internal.Correction>
   9.000000E+99

> <Gold.Chemscore.Hbonds>
donor molecule, donor type, donor heavy atom, donor atom, acceptor molecule, acceptor atom, score
      P1  H  6931  6943       L1    22  0.29
      P1  H  6934  6947       L1    22  0.71
      P1  H  7997  8009       L1     1  0.94

> <Gold.Chemscore.Hbond.Weighted>
-7.3717

> <Gold.Chemscore.Metal.Weighted>
-0.0000

> <Gold.Chemscore.Lipo.Weighted>
-12.8410

> <Gold.Chemscore.Internal_Hbond.Weighted>
0.0000

> <Gold.Chemscore.DEClash.Weighted>
0.0456

> <Gold.Chemscore.DEInternal.Weighted>
1.9123

> <Gold.Chemscore.Rot.Weighted>
4.1243

> <Gold.Chemscore.Internal.Correction.Weighted>
   9.000000E+99

> <Gold.Protein.RotatedTorsions>
[ 6907 6896 6895 6894 ] final  118.30 input  -60.11 | X-H torsion
[ 7974 7965 7964 7962 ] final   51.09 input  175.53 | X-H torsion
[ 8008 7997 7996 7995 ] final  166.56 input   59.86 | X-H torsion
[ 10167 10162 10161 10158 ] final -155.76 input  -65.29 | X-H torsion
[ 10718 10713 10712 10709 ] final  -23.98 input   66.30 | X-H torsion
[ 10763 10752 10751 10750 ] final  -54.04 input  -60.55 | X-H torsion
[ 11005 11000 10999 10996 ] final   50.09 input  -57.11 | X-H torsion

> <Gold.Protein.ActiveResidues>
 VAL166  LYS551  ARG553  GLY616  TRP617  ASP618  TYR619  PRO620  LYS621  CYS622 
 ASP623  PHE694  ASN695  SER759  ASP760  ASP761  ALA762  ILE779  LEU786  VAL792 
 PHE793  MET794  SER795  GLU796  ALA797  LYS798  CYS799  TRP800  GLU811  SER814 

> <Gold.Protein.RotatedAtoms>
  152.4553  133.7710  159.6798 H   0  0  0  0  0  0  0  0  0  0  0  0  # atno 6907 bound_to 6896
  150.8477  133.7826  159.3043 H   0  0  0  0  0  0  0  0  0  0  0  0  # atno 6908 bound_to 6896
  151.5431  135.1071  159.9983 H   0  0  0  0  0  0  0  0  0  0  0  0  # atno 6909 bound_to 6896
  145.9948  139.4377  143.0051 H   0  0  0  0  0  0  0  0  0  0  0  0  # atno 7974 bound_to 7965
  156.1708  140.1640  156.8451 H   0  0  0  0  0  0  0  0  0  0  0  0  # atno 8008 bound_to 7997
  154.5254  140.0768  156.8284 H   0  0  0  0  0  0  0  0  0  0  0  0  # atno 8009 bound_to 7997
  155.3517  140.3390  155.4241 H   0  0  0  0  0  0  0  0  0  0  0  0  # atno 8010 bound_to 7997
  139.6905  143.9428  152.2382 H   0  0  0  0  0  0  0  0  0  0  0  0  # atno 10167 bound_to 10162
  156.4837  130.4551  149.6796 H   0  0  0  0  0  0  0  0  0  0  0  0  # atno 10718 bound_to 10713
  154.1684  135.6463  153.5003 H   0  0  0  0  0  0  0  0  0  0  0  0  # atno 10763 bound_to 10752
  153.0091  135.5377  154.6638 H   0  0  0  0  0  0  0  0  0  0  0  0  # atno 10764 bound_to 10752
  154.5971  135.2940  155.0547 H   0  0  0  0  0  0  0  0  0  0  0  0  # atno 10765 bound_to 10752
  140.1047  134.5034  155.8731 H   0  0  0  0  0  0  0  0  0  0  0  0  # atno 11005 bound_to 11000
  145.7576  140.9948  143.1217 LP  0  0  0  0  0  0  0  0  0  0  0  0  # atno 17320 bound_to 7965
  144.6900  139.9291  143.7471 LP  0  0  0  0  0  0  0  0  0  0  0  0  # atno 17321 bound_to 7965
  139.9243  144.6780  150.8429 LP  0  0  0  0  0  0  0  0  0  0  0  0  # atno 17342 bound_to 10162
  140.7681  143.3353  151.2323 LP  0  0  0  0  0  0  0  0  0  0  0  0  # atno 17343 bound_to 10162
  156.3495  130.7425  151.2382 LP  0  0  0  0  0  0  0  0  0  0  0  0  # atno 17370 bound_to 10713
  157.7481  131.0381  150.4486 LP  0  0  0  0  0  0  0  0  0  0  0  0  # atno 17371 bound_to 10713
  141.2115  133.6707  156.6587 LP  0  0  0  0  0  0  0  0  0  0  0  0  # atno 17394 bound_to 11000
  140.3172  134.8038  157.4223 LP  0  0  0  0  0  0  0  0  0  0  0  0  # atno 17395 bound_to 11000

$$$$
