AV-unprocessed.smi:1115|AV-procd|sdf|4802|dock7
  -GOLD-   22720 3353D 1   1.00000     0.00000
 Structure written by MMmdl.
 51 52  0  0  0  0  0  0  0  0  2 V2000
  147.8866  128.4799  152.4229 C   0  0  0  0  0  0  0  0  0  0  0  0
  148.8019  129.0101  153.4270 N   0  0  0  0  0  0  0  0  0  0  0  0
  149.5225  128.1060  154.3137 C   0  0  0  0  0  0  0  0  0  0  0  0
  148.8910  130.4047  153.6272 C   0  0  0  0  0  0  0  0  0  0  0  0
  149.6854  130.9923  154.6418 C   0  0  0  0  0  0  0  0  0  0  0  0
  149.7214  132.3945  154.7803 C   0  0  0  0  0  0  0  0  0  0  0  0
  148.9623  133.2074  153.9132 C   0  0  0  0  0  0  0  0  0  0  0  0
  149.0428  134.6149  154.0970 N   0  0  0  0  0  0  0  0  0  0  0  0
  149.2787  135.3114  155.2222 C   0  0  0  0  0  0  0  0  0  0  0  0
  149.4767  134.8250  156.3349 O   0  0  0  0  0  0  0  0  0  0  0  0
  149.2741  136.6293  154.9791 N   0  0  0  0  0  0  0  0  0  0  0  0
  149.4647  137.6856  155.9729 C   0  0  0  0  0  0  0  0  0  0  0  0
  150.0141  139.0043  155.3527 C   0  0  0  0  0  0  0  0  0  0  0  0
  151.2991  138.6239  154.5741 C   0  0  0  0  0  0  0  0  0  0  0  0
  148.9770  139.4849  154.3092 C   0  0  0  0  0  0  0  0  0  0  0  0
  150.3045  140.0244  156.3999 N   0  0  0  0  0  0  0  0  0  0  0  0
  151.2055  139.5755  157.4677 C   0  0  0  0  0  0  0  0  0  0  0  0
  151.3644  140.6328  158.5736 C   0  0  0  0  0  0  0  0  0  0  0  0
  151.8277  141.8531  158.0085 O   0  0  0  0  0  0  0  0  0  0  0  0
  150.9501  142.3552  157.0084 C   0  0  0  0  0  0  0  0  0  0  0  0
  150.7898  141.3122  155.8895 C   0  0  0  0  0  0  0  0  0  0  0  0
  148.1917  132.5739  152.9088 C   0  0  0  0  0  0  0  0  0  0  0  0
  148.1875  131.2269  152.8109 N   0  3  0  0  0  0  0  0  0  0  0  0
  148.1232  128.8819  151.4373 H   0  0  0  0  0  0  0  0  0  0  0  0
  146.8569  128.7426  152.6675 H   0  0  0  0  0  0  0  0  0  0  0  0
  147.9504  127.3933  152.3618 H   0  0  0  0  0  0  0  0  0  0  0  0
  149.2243  128.2664  155.3503 H   0  0  0  0  0  0  0  0  0  0  0  0
  150.5980  128.2649  154.2313 H   0  0  0  0  0  0  0  0  0  0  0  0
  149.3202  127.0638  154.0666 H   0  0  0  0  0  0  0  0  0  0  0  0
  150.2717  130.3900  155.3193 H   0  0  0  0  0  0  0  0  0  0  0  0
  150.3287  132.8402  155.5545 H   0  0  0  0  0  0  0  0  0  0  0  0
  148.9378  135.1649  153.2570 H   0  0  0  0  0  0  0  0  0  0  0  0
  149.0967  136.9348  154.0335 H   0  0  0  0  0  0  0  0  0  0  0  0
  148.5346  137.8792  156.5103 H   0  0  0  0  0  0  0  0  0  0  0  0
  150.1413  137.3029  156.7367 H   0  0  0  0  0  0  0  0  0  0  0  0
  151.1387  137.7524  153.9381 H   0  0  0  0  0  0  0  0  0  0  0  0
  152.1237  138.3875  155.2474 H   0  0  0  0  0  0  0  0  0  0  0  0
  151.6334  139.4238  153.9134 H   0  0  0  0  0  0  0  0  0  0  0  0
  148.7971  138.7172  153.5560 H   0  0  0  0  0  0  0  0  0  0  0  0
  149.3099  140.3750  153.7759 H   0  0  0  0  0  0  0  0  0  0  0  0
  148.0115  139.7114  154.7614 H   0  0  0  0  0  0  0  0  0  0  0  0
  150.8330  138.6650  157.9336 H   0  0  0  0  0  0  0  0  0  0  0  0
  152.1892  139.3440  157.0589 H   0  0  0  0  0  0  0  0  0  0  0  0
  150.4167  140.7982  159.0886 H   0  0  0  0  0  0  0  0  0  0  0  0
  152.0798  140.2929  159.3222 H   0  0  0  0  0  0  0  0  0  0  0  0
  149.9830  142.5995  157.4507 H   0  0  0  0  0  0  0  0  0  0  0  0
  151.3614  143.2811  156.6063 H   0  0  0  0  0  0  0  0  0  0  0  0
  151.7512  141.1825  155.3924 H   0  0  0  0  0  0  0  0  0  0  0  0
  150.1044  141.7222  155.1501 H   0  0  0  0  0  0  0  0  0  0  0  0
  147.5834  133.0776  152.1735 H   0  0  0  0  0  0  0  0  0  0  0  0
  147.6197  130.8042  152.0764 H   0  0  0  0  0  0  0  0  0  0  0  0
  1  2  1  0  0  0  0
  1 24  1  0  0  0  0
  1 25  1  0  0  0  0
  1 26  1  0  0  0  0
  2  3  1  0  0  0  0
  2  4  1  0  0  0  0
  3 27  1  0  0  0  0
  3 28  1  0  0  0  0
  3 29  1  0  0  0  0
  4 23  1  0  0  0  0
  4  5  2  0  0  0  0
  5  6  1  0  0  0  0
  5 30  1  0  0  0  0
  6  7  2  0  0  0  0
  6 31  1  0  0  0  0
  7  8  1  0  0  0  0
  7 22  1  0  0  0  0
  8  9  1  0  0  0  0
  8 32  1  0  0  0  0
  9 10  2  0  0  0  0
  9 11  1  0  0  0  0
 11 12  1  0  0  0  0
 11 33  1  0  0  0  0
 12 13  1  0  0  0  0
 12 34  1  0  0  0  0
 12 35  1  0  0  0  0
 13 14  1  0  0  0  0
 13 15  1  0  0  0  0
 13 16  1  0  0  0  0
 14 36  1  0  0  0  0
 14 37  1  0  0  0  0
 14 38  1  0  0  0  0
 15 39  1  0  0  0  0
 15 40  1  0  0  0  0
 15 41  1  0  0  0  0
 16 21  1  0  0  0  0
 16 17  1  0  0  0  0
 17 18  1  0  0  0  0
 17 42  1  0  0  0  0
 17 43  1  0  0  0  0
 18 19  1  0  0  0  0
 18 44  1  0  0  0  0
 18 45  1  0  0  0  0
 19 20  1  0  0  0  0
 20 21  1  0  0  0  0
 20 46  1  0  0  0  0
 20 47  1  0  0  0  0
 21 48  1  0  0  0  0
 21 49  1  0  0  0  0
 22 23  2  0  0  0  0
 22 50  1  0  0  0  0
 23 51  1  0  0  0  0
M  CHG  1  23   1
M  END
> <s_m_source_file>
AV-unprocessed.smi

> <i_m_source_file_index>
1115

> <i_lp_mmshare_version>
43012

> <i_f3d_flags>
0

> <s_epik_input>
W0NIM11OKFtDSDNdKWMxW2NIXVtjSF1jKFtjSF1uMSlbTkhdQyg9TylbTkhdW0NIMl1DKFtDSDNdKShbQ0gzXSlOMltDSDJdW0NIMl1PW0NIMl1bQ0gyXTI=

> <s_epik_cmdline>
J2VwaWtfcHl0aG9uJywgJy1waCcsICc3LjAnLCAnLXRuJywgJzgnLCAnLW1hJywgJzIwMCcsICctbWV0YWxfYmluZGluZycsICctaW1hZScsICc8aW5maWxlLm1hZT4nLCAnLW9tYWUnLCAnPG91dGZpbGUubWFlPic=

> <r_lp_tautomer_probability>
0.999994

> <r_epik_Ionization_Penalty>
0.525804

> <r_epik_Ionization_Penalty_Charging>
0.259793

> <r_epik_Ionization_Penalty_Neutral>
0.266011

> <r_epik_State_Penalty>
0.517093

> <r_epik_Charging_Adjusted_Penalty>
0.776886

> <i_epik_Tot_Q>
1

> <i_epik_Tot_abs_Q>
1

> <r_epik_Metal_State_Penalty>
0.804287

> <b_epik_Metal_Only>
0

> <s_lp_Force_Field>
OPLS_2005

> <r_lp_Energy>
49.9386

> <b_lp_Chiralities_Consistent>
1

> <s_lp_Variant>
AV-unprocessed.smi:1115-1

> <Gold.Version>
5.8.1

> <Gold.Id.Protein>
6NUR|6NUR_protein|mol2

> <Gold.PLP.Fitness>
42.0433

> <Gold.PLP.PLP>
-38.3829

> <Gold.PLP.part.hbond>
-2.7358

> <Gold.PLP.part.metal>
0.0000

> <Gold.PLP.part.buried>
-2.4290

> <Gold.PLP.part.nonpolar>
-31.7526

> <Gold.PLP.part.repulsive>
0.0643

> <Gold.PLP.ligand.clash>
0.0000

> <Gold.PLP.ligand.torsion>
0.3879

> <Gold.PLP.Chemscore.Hbond>
1.4550

> <Gold.PLP.Chemscore.CHOScore>
0.0000

> <Gold.PLP.Chemscore.Metal>
0.0000

> <Gold.Chemscore.Hbonds>
donor molecule, donor type, donor heavy atom, donor atom, acceptor molecule, acceptor atom, score
      L1  H     8    32       P1  7948  1.00
      L1  H    11    33       P1  7948  0.36
      L1  H    23    51       P1 10747  0.03

> <Gold.PLP.Chemscore.Internal.Correction>
0.0711

> <Gold.Rescore>
     Score         DG    S(hbond)    S(metal)    S(lipo)     H(rot)  DE(clash)    DE(int)     intcor
     13.18     -15.09       1.07        0.00      83.03       1.44       0.16       1.74       ----

> <Gold.Chemscore.Fitness>
13.1781

> <Gold.Chemscore.DG>
-15.0854

> <Gold.Chemscore.ZeroCoef>
-5.4800

> <Gold.Chemscore.Hbond>
1.0746

> <Gold.Chemscore.Metal>
0.0000

> <Gold.Chemscore.Lipo>
83.0320

> <Gold.Chemscore.Internal_Hbond>
0.0000

> <Gold.Chemscore.DEClash>
0.1627

> <Gold.Chemscore.DEInternal>
1.7445

> <Gold.Chemscore.Rot>
1.4447

> <Gold.Chemscore.Internal.Correction>
   9.000000E+99

> <Gold.Chemscore.Hbonds>
donor molecule, donor type, donor heavy atom, donor atom, acceptor molecule, acceptor atom, score
      L1  H     8    32       P1  7948  0.40
      L1  H    11    33       P1  7948  0.34
      L1  H    23    51       P1 10747  0.04

> <Gold.Chemscore.Hbond.Weighted>
-3.5891

> <Gold.Chemscore.Metal.Weighted>
-0.0000

> <Gold.Chemscore.Lipo.Weighted>
-9.7147

> <Gold.Chemscore.Internal_Hbond.Weighted>
0.0000

> <Gold.Chemscore.DEClash.Weighted>
0.1627

> <Gold.Chemscore.DEInternal.Weighted>
1.7445

> <Gold.Chemscore.Rot.Weighted>
3.6985

> <Gold.Chemscore.Internal.Correction.Weighted>
   9.000000E+99

> <Gold.Protein.RotatedTorsions>
[ 6907 6896 6895 6894 ] final   22.54 input  -60.11 | X-H torsion
[ 7974 7965 7964 7962 ] final   44.57 input  175.53 | X-H torsion
[ 8008 7997 7996 7995 ] final  -13.02 input   59.86 | X-H torsion
[ 10167 10162 10161 10158 ] final  113.19 input  -65.29 | X-H torsion
[ 10718 10713 10712 10709 ] final   42.12 input   66.30 | X-H torsion
[ 10763 10752 10751 10750 ] final  -36.13 input  -60.55 | X-H torsion
[ 11005 11000 10999 10996 ] final   58.25 input  -57.11 | X-H torsion

> <Gold.Protein.ActiveResidues>
 VAL166  LYS551  ARG553  GLY616  TRP617  ASP618  TYR619  PRO620  LYS621  CYS622 
 ASP623  PHE694  ASN695  SER759  ASP760  ASP761  ALA762  ILE779  LEU786  VAL792 
 PHE793  MET794  SER795  GLU796  ALA797  LYS798  CYS799  TRP800  GLU811  SER814 

> <Gold.Protein.RotatedAtoms>
  151.9287  135.0266  160.0527 H   0  0  0  0  0  0  0  0  0  0  0  0  # atno 6907 bound_to 6896
  152.2137  133.4926  159.5132 H   0  0  0  0  0  0  0  0  0  0  0  0  # atno 6908 bound_to 6896
  150.6982  134.1350  159.4126 H   0  0  0  0  0  0  0  0  0  0  0  0  # atno 6909 bound_to 6896
  146.0556  139.5059  142.9690 H   0  0  0  0  0  0  0  0  0  0  0  0  # atno 7974 bound_to 7965
  154.5328  140.2261  155.8775 H   0  0  0  0  0  0  0  0  0  0  0  0  # atno 8008 bound_to 7997
  156.1781  140.3106  155.9060 H   0  0  0  0  0  0  0  0  0  0  0  0  # atno 8009 bound_to 7997
  155.3417  140.0451  157.3035 H   0  0  0  0  0  0  0  0  0  0  0  0  # atno 8010 bound_to 7997
  139.6480  144.7127  151.2105 H   0  0  0  0  0  0  0  0  0  0  0  0  # atno 10167 bound_to 10162
  157.4013  130.7861  149.7351 H   0  0  0  0  0  0  0  0  0  0  0  0  # atno 10718 bound_to 10713
  153.8746  135.6827  153.4771 H   0  0  0  0  0  0  0  0  0  0  0  0  # atno 10763 bound_to 10752
  153.1268  135.4715  154.9282 H   0  0  0  0  0  0  0  0  0  0  0  0  # atno 10764 bound_to 10752
  154.7698  135.3235  154.8164 H   0  0  0  0  0  0  0  0  0  0  0  0  # atno 10765 bound_to 10752
  140.0391  134.5899  155.9405 H   0  0  0  0  0  0  0  0  0  0  0  0  # atno 11005 bound_to 11000
  145.6648  141.0231  143.1689 LP  0  0  0  0  0  0  0  0  0  0  0  0  # atno 17320 bound_to 7965
  144.7146  139.8243  143.7403 LP  0  0  0  0  0  0  0  0  0  0  0  0  # atno 17321 bound_to 7965
  140.7524  143.6199  150.8523 LP  0  0  0  0  0  0  0  0  0  0  0  0  # atno 17342 bound_to 10162
  139.9844  143.5916  152.2932 LP  0  0  0  0  0  0  0  0  0  0  0  0  # atno 17343 bound_to 10162
  155.9824  130.4010  150.3419 LP  0  0  0  0  0  0  0  0  0  0  0  0  # atno 17370 bound_to 10713
  157.1547  131.0330  151.2869 LP  0  0  0  0  0  0  0  0  0  0  0  0  # atno 17371 bound_to 10713
  141.1873  133.6559  156.5278 LP  0  0  0  0  0  0  0  0  0  0  0  0  # atno 17394 bound_to 11000
  140.4098  134.7282  157.4829 LP  0  0  0  0  0  0  0  0  0  0  0  0  # atno 17395 bound_to 11000

$$$$
