AV-unprocessed.smi:2468|AV-procd|sdf|9732|dock4
  -GOLD-   2272013373D 1   1.00000     0.00000
 Structure written by MMmdl.
 32 33  0  0  0  0  0  0  0  0  1 V2000
  153.5611  142.6076  162.5772 C   0  0  0  0  0  0  0  0  0  0  0  0
  152.7594  142.8936  161.3214 C   0  0  0  0  0  0  0  0  0  0  0  0
  152.0368  144.0351  161.3364 N   0  0  0  0  0  0  0  0  0  0  0  0
  151.3118  144.3415  160.2413 C   0  0  0  0  0  0  0  0  0  0  0  0
  151.2660  143.5314  159.0906 C   0  0  0  0  0  0  0  0  0  0  0  0
  152.0083  142.3262  159.0779 C   0  0  0  0  0  0  0  0  0  0  0  0
  152.0504  141.4461  157.9615 N   0  0  0  0  0  0  0  0  0  0  0  0
  151.3101  141.4682  156.8378 C   0  0  0  0  0  0  0  0  0  0  0  0
  150.4385  142.3030  156.5952 O   0  0  0  0  0  0  0  0  0  0  0  0
  151.6113  140.3506  155.8273 C   0  0  1  0  0  0  0  0  0  0  0  0
  152.6483  139.5095  156.3330 O   0  0  0  0  0  0  0  0  0  0  0  0
  152.3836  138.1468  156.0123 C   0  0  0  0  0  0  0  0  0  0  0  0
  151.1861  138.1619  155.0680 C   0  0  0  0  0  0  0  0  0  0  0  0
  150.4415  139.4032  155.5160 C   0  0  2  0  0  0  0  0  0  0  0  0
  149.4432  139.9312  154.4734 C   0  0  0  0  0  0  0  0  0  0  0  0
  152.7839  142.0086  160.2178 C   0  0  0  0  0  0  0  0  0  0  0  0
  153.7382  140.5638  160.2652 Cl  0  0  0  0  0  0  0  0  0  0  0  0
  153.2499  141.6605  163.0183 H   0  0  0  0  0  0  0  0  0  0  0  0
  153.4257  143.3887  163.3264 H   0  0  0  0  0  0  0  0  0  0  0  0
  154.6242  142.5468  162.3426 H   0  0  0  0  0  0  0  0  0  0  0  0
  150.7556  145.2664  160.2800 H   0  0  0  0  0  0  0  0  0  0  0  0
  150.6794  143.8546  158.2447 H   0  0  0  0  0  0  0  0  0  0  0  0
  152.6646  140.6506  158.0628 H   0  0  0  0  0  0  0  0  0  0  0  0
  151.9760  140.8028  154.9037 H   0  0  0  0  0  0  0  0  0  0  0  0
  153.2557  137.6644  155.5701 H   0  0  0  0  0  0  0  0  0  0  0  0
  152.1352  137.6187  156.9336 H   0  0  0  0  0  0  0  0  0  0  0  0
  151.5273  138.2737  154.0374 H   0  0  0  0  0  0  0  0  0  0  0  0
  150.5850  137.2542  155.1311 H   0  0  0  0  0  0  0  0  0  0  0  0
  149.9047  139.1681  156.4372 H   0  0  0  0  0  0  0  0  0  0  0  0
  149.9414  140.1818  153.5364 H   0  0  0  0  0  0  0  0  0  0  0  0
  148.9342  140.8273  154.8281 H   0  0  0  0  0  0  0  0  0  0  0  0
  148.6795  139.1846  154.2544 H   0  0  0  0  0  0  0  0  0  0  0  0
  1  2  1  0  0  0  0
  1 18  1  0  0  0  0
  1 19  1  0  0  0  0
  1 20  1  0  0  0  0
  2 16  1  0  0  0  0
  2  3  2  0  0  0  0
  3  4  1  0  0  0  0
  4  5  2  0  0  0  0
  4 21  1  0  0  0  0
  5  6  1  0  0  0  0
  5 22  1  0  0  0  0
  6  7  1  0  0  0  0
  6 16  2  0  0  0  0
  7  8  1  0  0  0  0
  7 23  1  0  0  0  0
  8  9  2  0  0  0  0
  8 10  1  0  0  0  0
 10 14  1  0  0  0  0
 10 11  1  0  0  0  0
 10 24  1  0  0  0  0
 11 12  1  0  0  0  0
 12 13  1  0  0  0  0
 12 25  1  0  0  0  0
 12 26  1  0  0  0  0
 13 14  1  0  0  0  0
 13 27  1  0  0  0  0
 13 28  1  0  0  0  0
 14 15  1  0  0  0  0
 14 29  1  0  0  0  0
 15 30  1  0  0  0  0
 15 31  1  0  0  0  0
 15 32  1  0  0  0  0
 16 17  1  0  0  0  0
M  END
> <s_m_source_file>
AV-unprocessed.smi

> <i_m_source_file_index>
2468

> <i_lp_mmshare_version>
43012

> <i_f3d_flags>
0

> <s_epik_input>
W0NIM11jMW5bY0hdW2NIXWMoYzFDbClbTkhdQyg9TylbQ0BASF0yT1tDSDJdW0NIMl1bQ0BIXTJbQ0gzXQ==

> <s_epik_cmdline>
J2VwaWtfcHl0aG9uJywgJy1waCcsICc3LjAnLCAnLXRuJywgJzgnLCAnLW1hJywgJzIwMCcsICctbWV0YWxfYmluZGluZycsICctaW1hZScsICc8aW5maWxlLm1hZT4nLCAnLW9tYWUnLCAnPG91dGZpbGUubWFlPic=

> <r_epik_Ionization_Penalty>
0.000361027

> <r_epik_Ionization_Penalty_Charging>
0

> <r_epik_Ionization_Penalty_Neutral>
0.000361027

> <r_epik_State_Penalty>
0.000217849

> <r_epik_Charging_Adjusted_Penalty>
0.000217849

> <i_epik_Tot_Q>
0

> <i_epik_Tot_abs_Q>
0

> <r_epik_Metal_State_Penalty>
-0

> <b_epik_Metal_Only>
0

> <s_lp_Force_Field>
OPLS_2005

> <r_lp_Energy>
24.7843

> <b_lp_Chiralities_Consistent>
1

> <s_lp_Variant>
AV-unprocessed.smi:2468-4

> <Gold.Version>
5.8.1

> <Gold.Id.Protein>
6NUR|6NUR_protein|mol2

> <Gold.PLP.Fitness>
41.1887

> <Gold.PLP.PLP>
-38.2211

> <Gold.PLP.part.hbond>
-1.0000

> <Gold.PLP.part.metal>
0.0000

> <Gold.PLP.part.buried>
-4.5600

> <Gold.PLP.part.nonpolar>
-31.3292

> <Gold.PLP.part.repulsive>
0.3547

> <Gold.PLP.ligand.clash>
0.0000

> <Gold.PLP.ligand.torsion>
0.0175

> <Gold.PLP.Chemscore.Hbond>
1.0000

> <Gold.PLP.Chemscore.CHOScore>
0.0000

> <Gold.PLP.Chemscore.Metal>
0.0000

> <Gold.Chemscore.Hbonds>
donor molecule, donor type, donor heavy atom, donor atom, acceptor molecule, acceptor atom, score
      P1  H  7997  8008       L1    11  1.00

> <Gold.PLP.Chemscore.Internal.Correction>
0.0027

> <Gold.Rescore>
     Score         DG    S(hbond)    S(metal)    S(lipo)     H(rot)  DE(clash)    DE(int)     intcor
     16.87     -18.25       0.89        0.00     105.63       1.00       0.09       1.29       ----

> <Gold.Chemscore.Fitness>
16.8713

> <Gold.Chemscore.DG>
-18.2486

> <Gold.Chemscore.ZeroCoef>
-5.4800

> <Gold.Chemscore.Hbond>
0.8891

> <Gold.Chemscore.Metal>
0.0000

> <Gold.Chemscore.Lipo>
105.6327

> <Gold.Chemscore.Internal_Hbond>
0.0000

> <Gold.Chemscore.DEClash>
0.0920

> <Gold.Chemscore.DEInternal>
1.2852

> <Gold.Chemscore.Rot>
1.0000

> <Gold.Chemscore.Internal.Correction>
   9.000000E+99

> <Gold.Chemscore.Hbonds>
donor molecule, donor type, donor heavy atom, donor atom, acceptor molecule, acceptor atom, score
      P1  H  7997  8008       L1    11  0.93

> <Gold.Chemscore.Hbond.Weighted>
-2.9695

> <Gold.Chemscore.Metal.Weighted>
-0.0000

> <Gold.Chemscore.Lipo.Weighted>
-12.3590

> <Gold.Chemscore.Internal_Hbond.Weighted>
0.0000

> <Gold.Chemscore.DEClash.Weighted>
0.0920

> <Gold.Chemscore.DEInternal.Weighted>
1.2852

> <Gold.Chemscore.Rot.Weighted>
2.5600

> <Gold.Chemscore.Internal.Correction.Weighted>
   9.000000E+99

> <Gold.Protein.RotatedTorsions>
[ 6907 6896 6895 6894 ] final  -49.90 input  -60.11 | X-H torsion
[ 7974 7965 7964 7962 ] final -166.69 input  175.53 | X-H torsion
[ 8008 7997 7996 7995 ] final  -65.62 input   59.86 | X-H torsion
[ 10167 10162 10161 10158 ] final  176.09 input  -65.29 | X-H torsion
[ 10718 10713 10712 10709 ] final   86.62 input   66.30 | X-H torsion
[ 10763 10752 10751 10750 ] final   11.04 input  -60.55 | X-H torsion
[ 11005 11000 10999 10996 ] final -165.54 input  -57.11 | X-H torsion

> <Gold.Protein.ActiveResidues>
 VAL166  LYS551  ARG553  GLY616  TRP617  ASP618  TYR619  PRO620  LYS621  CYS622 
 ASP623  PHE694  ASN695  SER759  ASP760  ASP761  ALA762  ILE779  LEU786  VAL792 
 PHE793  MET794  SER795  GLU796  ALA797  LYS798  CYS799  TRP800  GLU811  SER814 

> <Gold.Protein.RotatedAtoms>
  150.8759  134.8142  159.7189 H   0  0  0  0  0  0  0  0  0  0  0  0  # atno 6907 bound_to 6896
  152.4746  134.4872  159.9694 H   0  0  0  0  0  0  0  0  0  0  0  0  # atno 6908 bound_to 6896
  151.4954  133.3477  159.2895 H   0  0  0  0  0  0  0  0  0  0  0  0  # atno 6909 bound_to 6896
  144.7239  140.2629  143.6262 H   0  0  0  0  0  0  0  0  0  0  0  0  # atno 7974 bound_to 7965
  154.4683  140.0929  156.7078 H   0  0  0  0  0  0  0  0  0  0  0  0  # atno 8008 bound_to 7997
  155.4796  140.3467  155.4319 H   0  0  0  0  0  0  0  0  0  0  0  0  # atno 8009 bound_to 7997
  156.0995  140.1418  156.9475 H   0  0  0  0  0  0  0  0  0  0  0  0  # atno 8010 bound_to 7997
  139.5201  144.2956  152.0424 H   0  0  0  0  0  0  0  0  0  0  0  0  # atno 10167 bound_to 10162
  157.6931  131.0223  150.3000 H   0  0  0  0  0  0  0  0  0  0  0  0  # atno 10718 bound_to 10713
  153.1968  135.6850  153.8282 H   0  0  0  0  0  0  0  0  0  0  0  0  # atno 10763 bound_to 10752
  153.7562  135.3216  155.3330 H   0  0  0  0  0  0  0  0  0  0  0  0  # atno 10764 bound_to 10752
  154.8149  135.4692  154.0716 H   0  0  0  0  0  0  0  0  0  0  0  0  # atno 10765 bound_to 10752
  140.5746  134.5203  157.5168 H   0  0  0  0  0  0  0  0  0  0  0  0  # atno 11005 bound_to 11000
  145.8118  139.2006  143.1989 LP  0  0  0  0  0  0  0  0  0  0  0  0  # atno 17320 bound_to 7965
  146.0590  140.7991  142.9744 LP  0  0  0  0  0  0  0  0  0  0  0  0  # atno 17321 bound_to 7965
  140.2406  144.4274  150.6262 LP  0  0  0  0  0  0  0  0  0  0  0  0  # atno 17342 bound_to 10162
  140.6293  143.2185  151.6529 LP  0  0  0  0  0  0  0  0  0  0  0  0  # atno 17343 bound_to 10162
  156.3517  130.3832  149.7323 LP  0  0  0  0  0  0  0  0  0  0  0  0  # atno 17370 bound_to 10713
  156.4799  130.8036  151.3051 LP  0  0  0  0  0  0  0  0  0  0  0  0  # atno 17371 bound_to 10713
  139.9345  134.7900  156.0839 LP  0  0  0  0  0  0  0  0  0  0  0  0  # atno 17394 bound_to 11000
  141.1035  133.6668  156.2808 LP  0  0  0  0  0  0  0  0  0  0  0  0  # atno 17395 bound_to 11000

$$$$
