AV-unprocessed.smi:763|AV-procd|sdf|3640|dock9
  -GOLD-   22720 1 43D 1   1.00000     0.00000
 Structure written by MMmdl.
 43 44  0  0  0  0  0  0  0  0  2 V2000
  154.3019  136.1397  161.8493 C   0  0  0  0  0  0  0  0  0  0  0  0
  153.8234  136.1208  160.5136 O   0  0  0  0  0  0  0  0  0  0  0  0
  154.2837  137.2059  159.7194 C   0  0  0  0  0  0  0  0  0  0  0  0
  153.7838  138.5589  160.2462 C   0  0  0  0  0  0  0  0  0  0  0  0
  152.8724  139.1004  159.2956 O   0  0  0  0  0  0  0  0  0  0  0  0
  152.5787  140.4513  159.3425 C   0  0  0  0  0  0  0  0  0  0  0  0
  153.2101  141.2069  160.2771 N   0  0  0  0  0  0  0  0  0  0  0  0
  152.9356  142.5242  160.3325 C   0  0  0  0  0  0  0  0  0  0  0  0
  152.0268  143.1532  159.4660 C   0  0  0  0  0  0  0  0  0  0  0  0
  151.3758  142.3663  158.4991 C   0  0  0  0  0  0  0  0  0  0  0  0
  151.6416  140.9770  158.4168 C   0  0  0  0  0  0  0  0  0  0  0  0
  151.0540  140.1698  157.5167 N   0  5  0  0  0  0  0  0  0  0  0  0
  150.4896  140.5995  156.0621 S   0  0  0  0  0  0  0  0  0  0  0  0
  150.5411  142.0576  155.8754 O   0  0  0  0  0  0  0  0  0  0  0  0
  151.0834  139.7823  154.9937 O   0  0  0  0  0  0  0  0  0  0  0  0
  148.6871  140.1197  156.2319 C   0  0  2  0  0  0  0  0  0  0  0  0
  148.2999  138.9573  155.2844 C   0  0  0  0  0  0  0  0  0  0  0  0
  148.1179  139.3728  153.8085 C   0  0  0  0  0  0  0  0  0  0  0  0
  147.2070  140.6025  153.6550 C   0  0  0  0  0  0  0  0  0  0  0  0
  147.6438  141.7614  154.5666 C   0  0  0  0  0  0  0  0  0  0  0  0
  147.6949  141.2926  156.0296 C   0  0  2  0  0  0  0  0  0  0  0  0
  147.9460  142.3791  156.8962 O   0  0  0  0  0  0  0  0  0  0  0  0
  153.9515  135.2499  162.3722 H   0  0  0  0  0  0  0  0  0  0  0  0
  153.9386  137.0087  162.3978 H   0  0  0  0  0  0  0  0  0  0  0  0
  155.3923  136.1362  161.8791 H   0  0  0  0  0  0  0  0  0  0  0  0
  155.3711  137.1945  159.6305 H   0  0  0  0  0  0  0  0  0  0  0  0
  153.8905  137.0549  158.7138 H   0  0  0  0  0  0  0  0  0  0  0  0
  153.2838  138.4147  161.2051 H   0  0  0  0  0  0  0  0  0  0  0  0
  154.6198  139.2432  160.3960 H   0  0  0  0  0  0  0  0  0  0  0  0
  153.4555  143.0930  161.0890 H   0  0  0  0  0  0  0  0  0  0  0  0
  151.8324  144.2127  159.5398 H   0  0  0  0  0  0  0  0  0  0  0  0
  150.6756  142.8439  157.8302 H   0  0  0  0  0  0  0  0  0  0  0  0
  148.5789  139.7725  157.2602 H   0  0  0  0  0  0  0  0  0  0  0  0
  149.0314  138.1521  155.3546 H   0  0  0  0  0  0  0  0  0  0  0  0
  147.3592  138.5316  155.6355 H   0  0  0  0  0  0  0  0  0  0  0  0
  149.0798  139.5706  153.3405 H   0  0  0  0  0  0  0  0  0  0  0  0
  147.6958  138.5377  153.2488 H   0  0  0  0  0  0  0  0  0  0  0  0
  147.1964  140.9295  152.6148 H   0  0  0  0  0  0  0  0  0  0  0  0
  146.1817  140.3219  153.8989 H   0  0  0  0  0  0  0  0  0  0  0  0
  148.6141  142.1457  154.2513 H   0  0  0  0  0  0  0  0  0  0  0  0
  146.9379  142.5864  154.4634 H   0  0  0  0  0  0  0  0  0  0  0  0
  146.6990  140.9366  156.2971 H   0  0  0  0  0  0  0  0  0  0  0  0
  148.1967  143.1263  156.3724 H   0  0  0  0  0  0  0  0  0  0  0  0
  1  2  1  0  0  0  0
  1 23  1  0  0  0  0
  1 24  1  0  0  0  0
  1 25  1  0  0  0  0
  2  3  1  0  0  0  0
  3  4  1  0  0  0  0
  3 26  1  0  0  0  0
  3 27  1  0  0  0  0
  4  5  1  0  0  0  0
  4 28  1  0  0  0  0
  4 29  1  0  0  0  0
  5  6  1  0  0  0  0
  6 11  1  0  0  0  0
  6  7  2  0  0  0  0
  7  8  1  0  0  0  0
  8  9  2  0  0  0  0
  8 30  1  0  0  0  0
  9 10  1  0  0  0  0
  9 31  1  0  0  0  0
 10 11  2  0  0  0  0
 10 32  1  0  0  0  0
 11 12  1  0  0  0  0
 12 13  1  0  0  0  0
 13 14  2  0  0  0  0
 13 15  2  0  0  0  0
 13 16  1  0  0  0  0
 16 21  1  0  0  0  0
 16 17  1  0  0  0  0
 16 33  1  0  0  0  0
 17 18  1  0  0  0  0
 17 34  1  0  0  0  0
 17 35  1  0  0  0  0
 18 19  1  0  0  0  0
 18 36  1  0  0  0  0
 18 37  1  0  0  0  0
 19 20  1  0  0  0  0
 19 38  1  0  0  0  0
 19 39  1  0  0  0  0
 20 21  1  0  0  0  0
 20 40  1  0  0  0  0
 20 41  1  0  0  0  0
 21 22  1  0  0  0  0
 21 42  1  0  0  0  0
 22 43  1  0  0  0  0
M  CHG  1  12  -1
M  END
> <s_m_source_file>
AV-unprocessed.smi

> <i_m_source_file_index>
763

> <i_lp_mmshare_version>
43012

> <i_f3d_flags>
0

> <s_epik_input>
W0NIM11PW0NIMl1bQ0gyXU9jMW5bY0hdW2NIXVtjSF1jMVtOSF1TKD1PKSg9TylbQ0BASF0yW0NIMl1bQ0gyXVtDSDJdW0NIMl1bQ0BIXTJbT0hd

> <s_epik_cmdline>
J2VwaWtfcHl0aG9uJywgJy1waCcsICc3LjAnLCAnLXRuJywgJzgnLCAnLW1hJywgJzIwMCcsICctbWV0YWxfYmluZGluZycsICctaW1hZScsICc8aW5maWxlLm1hZT4nLCAnLW9tYWUnLCAnPG91dGZpbGUubWFlPic=

> <r_epik_Ionization_Penalty>
0.985866

> <r_epik_Ionization_Penalty_Charging>
0.984689

> <r_epik_Ionization_Penalty_Neutral>
0.00117669

> <r_epik_State_Penalty>
1.03185

> <r_epik_Charging_Adjusted_Penalty>
2.01654

> <i_epik_Tot_Q>
-1

> <i_epik_Tot_abs_Q>
1

> <r_epik_Metal_State_Penalty>
0.379327

> <b_epik_Metal_Only>
0

> <s_lp_Force_Field>
OPLS_2005

> <r_lp_Energy>
11.7701

> <b_lp_Chiralities_Consistent>
1

> <s_lp_Variant>
AV-unprocessed.smi:763-7

> <Gold.Version>
5.8.1

> <Gold.Id.Protein>
6NUR|6NUR_protein|mol2

> <Gold.PLP.Fitness>
39.9532

> <Gold.PLP.PLP>
-32.1450

> <Gold.PLP.part.hbond>
-3.0000

> <Gold.PLP.part.metal>
0.0000

> <Gold.PLP.part.buried>
-4.6489

> <Gold.PLP.part.nonpolar>
-25.5548

> <Gold.PLP.part.repulsive>
0.1527

> <Gold.PLP.ligand.clash>
0.0000

> <Gold.PLP.ligand.torsion>
1.2194

> <Gold.PLP.Chemscore.Hbond>
3.0000

> <Gold.PLP.Chemscore.CHOScore>
0.0000

> <Gold.PLP.Chemscore.Metal>
0.0000

> <Gold.Chemscore.Hbonds>
donor molecule, donor type, donor heavy atom, donor atom, acceptor molecule, acceptor atom, score
      L1  H    22    43       P1  8028  1.00
      P1  H  6896  6909       L1     2  0.99
      P1  H  7989  7998       L1    15  1.00

> <Gold.PLP.Chemscore.Internal.Correction>
1.2470

> <Gold.Rescore>
     Score         DG    S(hbond)    S(metal)    S(lipo)     H(rot)  DE(clash)    DE(int)     intcor
     14.13     -16.84       2.38        0.00      80.69       2.35       0.06       2.66       ----

> <Gold.Chemscore.Fitness>
14.1274

> <Gold.Chemscore.DG>
-16.8393

> <Gold.Chemscore.ZeroCoef>
-5.4800

> <Gold.Chemscore.Hbond>
2.3765

> <Gold.Chemscore.Metal>
0.0000

> <Gold.Chemscore.Lipo>
80.6856

> <Gold.Chemscore.Internal_Hbond>
0.0000

> <Gold.Chemscore.DEClash>
0.0557

> <Gold.Chemscore.DEInternal>
2.6563

> <Gold.Chemscore.Rot>
2.3509

> <Gold.Chemscore.Internal.Correction>
   9.000000E+99

> <Gold.Chemscore.Hbonds>
donor molecule, donor type, donor heavy atom, donor atom, acceptor molecule, acceptor atom, score
      L1  H    22    43       P1  8028  0.50
      P1  H  6896  6909       L1     2  0.88
      P1  H  7989  7998       L1    15  0.82

> <Gold.Chemscore.Hbond.Weighted>
-7.9374

> <Gold.Chemscore.Metal.Weighted>
-0.0000

> <Gold.Chemscore.Lipo.Weighted>
-9.4402

> <Gold.Chemscore.Internal_Hbond.Weighted>
0.0000

> <Gold.Chemscore.DEClash.Weighted>
0.0557

> <Gold.Chemscore.DEInternal.Weighted>
2.6563

> <Gold.Chemscore.Rot.Weighted>
6.0182

> <Gold.Chemscore.Internal.Correction.Weighted>
   9.000000E+99

> <Gold.Protein.RotatedTorsions>
[ 6907 6896 6895 6894 ] final  162.88 input  -60.11 | X-H torsion
[ 7974 7965 7964 7962 ] final  131.13 input  175.53 | X-H torsion
[ 8008 7997 7996 7995 ] final   56.91 input   59.86 | X-H torsion
[ 10167 10162 10161 10158 ] final  135.99 input  -65.29 | X-H torsion
[ 10718 10713 10712 10709 ] final -124.25 input   66.30 | X-H torsion
[ 10763 10752 10751 10750 ] final   80.02 input  -60.55 | X-H torsion
[ 11005 11000 10999 10996 ] final  124.00 input  -57.11 | X-H torsion

> <Gold.Protein.ActiveResidues>
 VAL166  LYS551  ARG553  GLY616  TRP617  ASP618  TYR619  PRO620  LYS621  CYS622 
 ASP623  PHE694  ASN695  SER759  ASP760  ASP761  ALA762  ILE779  LEU786  VAL792 
 PHE793  MET794  SER795  GLU796  ALA797  LYS798  CYS799  TRP800  GLU811  SER814 

> <Gold.Protein.RotatedAtoms>
  151.9336  133.3618  159.3939 H   0  0  0  0  0  0  0  0  0  0  0  0  # atno 6907 bound_to 6896
  150.7012  134.4512  159.5346 H   0  0  0  0  0  0  0  0  0  0  0  0  # atno 6908 bound_to 6896
  152.2156  134.8460  160.0543 H   0  0  0  0  0  0  0  0  0  0  0  0  # atno 6909 bound_to 6896
  145.0106  139.4224  143.5247 H   0  0  0  0  0  0  0  0  0  0  0  0  # atno 7974 bound_to 7965
  155.5251  140.3480  155.4415 H   0  0  0  0  0  0  0  0  0  0  0  0  # atno 8008 bound_to 7997
  156.0757  140.1374  156.9801 H   0  0  0  0  0  0  0  0  0  0  0  0  # atno 8009 bound_to 7997
  154.4552  140.0956  156.6712 H   0  0  0  0  0  0  0  0  0  0  0  0  # atno 8010 bound_to 7997
  139.5196  144.6488  151.5362 H   0  0  0  0  0  0  0  0  0  0  0  0  # atno 10167 bound_to 10162
  156.1572  130.6576  150.9998 H   0  0  0  0  0  0  0  0  0  0  0  0  # atno 10718 bound_to 10713
  153.0999  135.4818  154.8848 H   0  0  0  0  0  0  0  0  0  0  0  0  # atno 10763 bound_to 10752
  154.7367  135.3072  154.8802 H   0  0  0  0  0  0  0  0  0  0  0  0  # atno 10764 bound_to 10752
  153.9421  135.6833  153.4797 H   0  0  0  0  0  0  0  0  0  0  0  0  # atno 10765 bound_to 10752
  139.9338  134.9640  156.8344 H   0  0  0  0  0  0  0  0  0  0  0  0  # atno 11005 bound_to 11000
  146.3469  139.9548  142.8724 LP  0  0  0  0  0  0  0  0  0  0  0  0  # atno 17320 bound_to 7965
  145.2028  140.9862  143.4145 LP  0  0  0  0  0  0  0  0  0  0  0  0  # atno 17321 bound_to 7965
  140.6284  143.9124  150.6584 LP  0  0  0  0  0  0  0  0  0  0  0  0  # atno 17342 bound_to 10162
  140.2420  143.3657  152.1479 LP  0  0  0  0  0  0  0  0  0  0  0  0  # atno 17343 bound_to 10162
  157.6704  131.0862  150.7626 LP  0  0  0  0  0  0  0  0  0  0  0  0  # atno 17370 bound_to 10713
  156.7690  130.4823  149.5422 LP  0  0  0  0  0  0  0  0  0  0  0  0  # atno 17371 bound_to 10713
  140.6129  134.0065  155.7584 LP  0  0  0  0  0  0  0  0  0  0  0  0  # atno 17394 bound_to 11000
  141.0942  133.9870  157.3188 LP  0  0  0  0  0  0  0  0  0  0  0  0  # atno 17395 bound_to 11000

$$$$
