AV-unprocessed.smi:1885|AV-procd|sdf|7652|dock3
  -GOLD-   22720 9383D 1   1.00000     0.00000
 Structure written by MMmdl.
 44 46  0  0  0  0  0  0  0  0  2 V2000
  148.8559  130.4366  153.9005 C   0  0  0  0  0  0  0  0  0  0  0  0
  149.4116  130.8960  155.1238 O   0  0  0  0  0  0  0  0  0  0  0  0
  149.6538  132.2461  155.2596 C   0  0  0  0  0  0  0  0  0  0  0  0
  149.2088  133.2321  154.3432 C   0  0  0  0  0  0  0  0  0  0  0  0
  149.5035  134.5923  154.5603 C   0  0  0  0  0  0  0  0  0  0  0  0
  150.2382  134.9911  155.6949 C   0  0  0  0  0  0  0  0  0  0  0  0
  150.5656  136.4571  155.9090 C   0  0  0  0  0  0  0  0  0  0  0  0
  151.6880  136.8717  155.1473 O   0  0  0  0  0  0  0  0  0  0  0  0
  151.5029  138.1364  154.5341 C   0  0  0  0  0  0  0  0  0  0  0  0
  152.4205  139.1574  155.2210 C   0  0  2  0  0  0  0  0  0  0  0  0
  153.7229  138.6143  155.3080 O   0  0  0  0  0  0  0  0  0  0  0  0
  151.9243  139.5400  156.6298 C   0  0  0  0  0  0  0  0  0  0  0  0
  151.5222  140.9489  156.7255 N   0  0  0  0  0  0  0  0  0  0  0  0
  150.9059  141.7502  155.8148 C   0  0  0  0  0  0  0  0  0  0  0  0
  150.7478  142.9761  156.3874 N   0  3  0  0  0  0  0  0  0  0  0  0
  151.2711  142.9570  157.6825 C   0  0  0  0  0  0  0  0  0  0  0  0
  151.3439  143.9513  158.6526 C   0  0  0  0  0  0  0  0  0  0  0  0
  151.9423  143.5982  159.8803 C   0  0  0  0  0  0  0  0  0  0  0  0
  152.0382  144.5284  160.8596 F   0  0  0  0  0  0  0  0  0  0  0  0
  152.4416  142.2977  160.1069 C   0  0  0  0  0  0  0  0  0  0  0  0
  153.0084  142.0003  161.3001 F   0  0  0  0  0  0  0  0  0  0  0  0
  152.3633  141.2982  159.1146 C   0  0  0  0  0  0  0  0  0  0  0  0
  151.7699  141.6570  157.9055 C   0  0  0  0  0  0  0  0  0  0  0  0
  150.6914  134.0130  156.6040 C   0  0  0  0  0  0  0  0  0  0  0  0
  150.3964  132.6536  156.3863 C   0  0  0  0  0  0  0  0  0  0  0  0
  148.7203  129.3562  153.9505 H   0  0  0  0  0  0  0  0  0  0  0  0
  149.5165  130.6471  153.0583 H   0  0  0  0  0  0  0  0  0  0  0  0
  147.8782  130.8832  153.7144 H   0  0  0  0  0  0  0  0  0  0  0  0
  148.6406  132.9705  153.4637 H   0  0  0  0  0  0  0  0  0  0  0  0
  149.1612  135.3308  153.8501 H   0  0  0  0  0  0  0  0  0  0  0  0
  149.6900  137.0473  155.6338 H   0  0  0  0  0  0  0  0  0  0  0  0
  150.7586  136.6324  156.9688 H   0  0  0  0  0  0  0  0  0  0  0  0
  151.7232  138.0819  153.4666 H   0  0  0  0  0  0  0  0  0  0  0  0
  150.4595  138.4377  154.6407 H   0  0  0  0  0  0  0  0  0  0  0  0
  152.4815  140.0492  154.5964 H   0  0  0  0  0  0  0  0  0  0  0  0
  153.8741  138.0737  154.5477 H   0  0  0  0  0  0  0  0  0  0  0  0
  151.0769  138.9217  156.9293 H   0  0  0  0  0  0  0  0  0  0  0  0
  152.7078  139.3696  157.3694 H   0  0  0  0  0  0  0  0  0  0  0  0
  150.5953  141.4646  154.8200 H   0  0  0  0  0  0  0  0  0  0  0  0
  150.9628  144.9477  158.4837 H   0  0  0  0  0  0  0  0  0  0  0  0
  152.7466  140.3052  159.2974 H   0  0  0  0  0  0  0  0  0  0  0  0
  151.2673  134.2986  157.4719 H   0  0  0  0  0  0  0  0  0  0  0  0
  150.7468  131.9142  157.0916 H   0  0  0  0  0  0  0  0  0  0  0  0
  150.3128  143.7648  155.9257 H   0  0  0  0  0  0  0  0  0  0  0  0
  1  2  1  0  0  0  0
  1 26  1  0  0  0  0
  1 27  1  0  0  0  0
  1 28  1  0  0  0  0
  2  3  1  0  0  0  0
  3 25  1  0  0  0  0
  3  4  2  0  0  0  0
  4  5  1  0  0  0  0
  4 29  1  0  0  0  0
  5  6  2  0  0  0  0
  5 30  1  0  0  0  0
  6  7  1  0  0  0  0
  6 24  1  0  0  0  0
  7  8  1  0  0  0  0
  7 31  1  0  0  0  0
  7 32  1  0  0  0  0
  8  9  1  0  0  0  0
  9 10  1  0  0  0  0
  9 33  1  0  0  0  0
  9 34  1  0  0  0  0
 10 11  1  0  0  0  0
 10 12  1  0  0  0  0
 10 35  1  0  0  0  0
 11 36  1  0  0  0  0
 12 13  1  0  0  0  0
 12 37  1  0  0  0  0
 12 38  1  0  0  0  0
 13 23  1  0  0  0  0
 13 14  1  0  0  0  0
 14 15  2  0  0  0  0
 14 39  1  0  0  0  0
 15 16  1  0  0  0  0
 15 44  1  0  0  0  0
 16 23  2  0  0  0  0
 16 17  1  0  0  0  0
 17 18  2  0  0  0  0
 17 40  1  0  0  0  0
 18 19  1  0  0  0  0
 18 20  1  0  0  0  0
 20 21  1  0  0  0  0
 20 22  2  0  0  0  0
 22 23  1  0  0  0  0
 22 41  1  0  0  0  0
 24 25  2  0  0  0  0
 24 42  1  0  0  0  0
 25 43  1  0  0  0  0
M  CHG  1  15   1
M  END
> <s_m_source_file>
AV-unprocessed.smi

> <i_m_source_file_index>
1885

> <i_lp_mmshare_version>
43012

> <i_f3d_flags>
0

> <s_epik_input>
W0NIM11PYzFbY0hdW2NIXWMoW2NIXVtjSF0xKVtDSDJdT1tDSDJdW0NASF0oW09IXSlbQ0gyXW4oW2NIXW4yKWMoYzIzKVtjSF1jKEYpYyhGKVtjSF0z

> <s_epik_cmdline>
J2VwaWtfcHl0aG9uJywgJy1waCcsICc3LjAnLCAnLXRuJywgJzgnLCAnLW1hJywgJzIwMCcsICctbWV0YWxfYmluZGluZycsICctaW1hZScsICc8aW5maWxlLm1hZT4nLCAnLW9tYWUnLCAnPG91dGZpbGUubWFlPic=

> <r_lp_tautomer_probability>
1

> <r_epik_Ionization_Penalty>
2.14697

> <r_epik_Ionization_Penalty_Charging>
2.14697

> <r_epik_Ionization_Penalty_Neutral>
9.74819e-07

> <r_epik_State_Penalty>
2.28651

> <r_epik_Charging_Adjusted_Penalty>
4.43348

> <i_epik_Tot_Q>
1

> <i_epik_Tot_abs_Q>
1

> <r_epik_Metal_State_Penalty>
6.36664

> <b_epik_Metal_Only>
0

> <s_lp_Force_Field>
OPLS_2005

> <r_lp_Energy>
20.6569

> <b_lp_Chiralities_Consistent>
1

> <s_lp_Variant>
AV-unprocessed.smi:1885-3

> <Gold.Version>
5.8.1

> <Gold.Id.Protein>
6NUR|6NUR_protein|mol2

> <Gold.PLP.Fitness>
66.0715

> <Gold.PLP.PLP>
-58.4427

> <Gold.PLP.part.hbond>
-3.0000

> <Gold.PLP.part.metal>
0.0000

> <Gold.PLP.part.buried>
-8.2314

> <Gold.PLP.part.nonpolar>
-47.2856

> <Gold.PLP.part.repulsive>
0.1953

> <Gold.PLP.ligand.clash>
0.0000

> <Gold.PLP.ligand.torsion>
2.2067

> <Gold.PLP.Chemscore.Hbond>
3.9920

> <Gold.PLP.Chemscore.CHOScore>
0.0000

> <Gold.PLP.Chemscore.Metal>
0.0000

> <Gold.Chemscore.Hbonds>
donor molecule, donor type, donor heavy atom, donor atom, acceptor molecule, acceptor atom, score
      L1  H    15    44       P1  8028  1.98
      P1  H  7997  8009       L1    11  0.59
      P1  H 10752 10765       L1     8  1.00

> <Gold.PLP.Chemscore.Internal.Correction>
0.0662

> <Gold.Rescore>
     Score         DG    S(hbond)    S(metal)    S(lipo)     H(rot)  DE(clash)    DE(int)     intcor
     17.59     -20.04       2.56        0.00     117.55       3.03       0.00       2.46       ----

> <Gold.Chemscore.Fitness>
17.5868

> <Gold.Chemscore.DG>
-20.0425

> <Gold.Chemscore.ZeroCoef>
-5.4800

> <Gold.Chemscore.Hbond>
2.5630

> <Gold.Chemscore.Metal>
0.0000

> <Gold.Chemscore.Lipo>
117.5504

> <Gold.Chemscore.Internal_Hbond>
0.0000

> <Gold.Chemscore.DEClash>
0.0002

> <Gold.Chemscore.DEInternal>
2.4555

> <Gold.Chemscore.Rot>
3.0278

> <Gold.Chemscore.Internal.Correction>
   9.000000E+99

> <Gold.Chemscore.Hbonds>
donor molecule, donor type, donor heavy atom, donor atom, acceptor molecule, acceptor atom, score
      L1  H    15    44       P1  8028  0.93
      P1  H  7997  8009       L1    11  0.09
      P1  H 10752 10765       L1     8  0.97

> <Gold.Chemscore.Hbond.Weighted>
-8.5603

> <Gold.Chemscore.Metal.Weighted>
-0.0000

> <Gold.Chemscore.Lipo.Weighted>
-13.7534

> <Gold.Chemscore.Internal_Hbond.Weighted>
0.0000

> <Gold.Chemscore.DEClash.Weighted>
0.0002

> <Gold.Chemscore.DEInternal.Weighted>
2.4555

> <Gold.Chemscore.Rot.Weighted>
7.7512

> <Gold.Chemscore.Internal.Correction.Weighted>
   9.000000E+99

> <Gold.Protein.RotatedTorsions>
[ 6907 6896 6895 6894 ] final  -37.85 input  -60.11 | X-H torsion
[ 7974 7965 7964 7962 ] final  -59.52 input  175.53 | X-H torsion
[ 8008 7997 7996 7995 ] final -125.52 input   59.86 | X-H torsion
[ 10167 10162 10161 10158 ] final -139.26 input  -65.29 | X-H torsion
[ 10718 10713 10712 10709 ] final -111.23 input   66.30 | X-H torsion
[ 10763 10752 10751 10750 ] final  175.34 input  -60.55 | X-H torsion
[ 11005 11000 10999 10996 ] final -173.30 input  -57.11 | X-H torsion

> <Gold.Protein.ActiveResidues>
 VAL166  LYS551  ARG553  GLY616  TRP617  ASP618  TYR619  PRO620  LYS621  CYS622 
 ASP623  PHE694  ASN695  SER759  ASP760  ASP761  ALA762  ILE779  LEU786  VAL792 
 PHE793  MET794  SER795  GLU796  ALA797  LYS798  CYS799  TRP800  GLU811  SER814 

> <Gold.Protein.RotatedAtoms>
  151.0096  134.9386  159.7999 H   0  0  0  0  0  0  0  0  0  0  0  0  # atno 6907 bound_to 6896
  152.5299  134.3045  159.9101 H   0  0  0  0  0  0  0  0  0  0  0  0  # atno 6908 bound_to 6896
  151.3051  133.4063  159.2677 H   0  0  0  0  0  0  0  0  0  0  0  0  # atno 6909 bound_to 6896
  145.8265  140.8507  143.0106 H   0  0  0  0  0  0  0  0  0  0  0  0  # atno 7974 bound_to 7965
  155.2147  140.0420  157.2939 H   0  0  0  0  0  0  0  0  0  0  0  0  # atno 8008 bound_to 7997
  154.5989  140.2447  155.7791 H   0  0  0  0  0  0  0  0  0  0  0  0  # atno 8009 bound_to 7997
  156.2308  140.2939  156.0192 H   0  0  0  0  0  0  0  0  0  0  0  0  # atno 8010 bound_to 7997
  139.8397  143.7338  152.2663 H   0  0  0  0  0  0  0  0  0  0  0  0  # atno 10167 bound_to 10162
  156.0635  130.5856  150.8345 H   0  0  0  0  0  0  0  0  0  0  0  0  # atno 10718 bound_to 10713
  154.4662  135.2769  155.1676 H   0  0  0  0  0  0  0  0  0  0  0  0  # atno 10763 bound_to 10752
  154.3443  135.6163  153.5615 H   0  0  0  0  0  0  0  0  0  0  0  0  # atno 10764 bound_to 10752
  152.9859  135.5796  154.5035 H   0  0  0  0  0  0  0  0  0  0  0  0  # atno 10765 bound_to 10752
  140.4872  134.6019  157.4941 H   0  0  0  0  0  0  0  0  0  0  0  0  # atno 11005 bound_to 11000
  144.6743  140.0609  143.7476 LP  0  0  0  0  0  0  0  0  0  0  0  0  # atno 17320 bound_to 7965
  145.9618  139.2806  143.1151 LP  0  0  0  0  0  0  0  0  0  0  0  0  # atno 17321 bound_to 7965
  139.7571  144.7517  151.0419 LP  0  0  0  0  0  0  0  0  0  0  0  0  # atno 17342 bound_to 10162
  140.7799  143.4793  151.0040 LP  0  0  0  0  0  0  0  0  0  0  0  0  # atno 17343 bound_to 10162
  157.5661  131.0946  150.9488 LP  0  0  0  0  0  0  0  0  0  0  0  0  # atno 17370 bound_to 10713
  156.9714  130.5492  149.5291 LP  0  0  0  0  0  0  0  0  0  0  0  0  # atno 17371 bound_to 10713
  139.9790  134.7167  155.9894 LP  0  0  0  0  0  0  0  0  0  0  0  0  # atno 17394 bound_to 11000
  141.1502  133.6549  156.3989 LP  0  0  0  0  0  0  0  0  0  0  0  0  # atno 17395 bound_to 11000

$$$$
