AV-unprocessed.smi:1212|AV-procd|sdf|5082|dock1
  -GOLD-   22720 4133D 1   1.00000     0.00000
 Structure written by MMmdl.
 39 40  0  0  0  0  0  0  0  0  1 V2000
  148.4010  129.2863  153.9098 C   0  0  0  0  0  0  0  0  0  0  0  0
  148.8011  130.6715  154.2889 C   0  0  0  0  0  0  0  0  0  0  0  0
  149.4486  130.9547  155.4260 N   0  0  0  0  0  0  0  0  0  0  0  0
  149.7122  132.3114  155.5576 N   0  0  0  0  0  0  0  0  0  0  0  0
  149.2554  133.0129  154.5109 C   0  0  0  0  0  0  0  0  0  0  0  0
  149.3878  134.4210  154.3854 N   0  0  0  0  0  0  0  0  0  0  0  0
  149.8254  135.3029  155.3016 C   0  0  0  0  0  0  0  0  0  0  0  0
  150.1954  135.0216  156.4419 O   0  0  0  0  0  0  0  0  0  0  0  0
  149.8116  136.5531  154.8171 N   0  0  0  0  0  0  0  0  0  0  0  0
  150.2336  137.7386  155.5529 C   0  0  0  0  0  0  0  0  0  0  0  0
  150.6270  138.8848  154.6024 C   0  0  0  0  0  0  0  0  0  0  0  0
  150.6649  140.1702  155.3113 N   0  0  0  0  0  0  0  0  0  0  0  0
  149.7192  141.1988  154.8471 C   0  0  0  0  0  0  0  0  0  0  0  0
  148.5741  141.4892  155.8457 C   0  0  0  0  0  0  0  0  0  0  0  0
  148.8973  141.2816  157.3387 C   0  0  0  0  0  0  0  0  0  0  0  0
  150.1607  142.0111  157.8409 C   0  0  0  0  0  0  0  0  0  0  0  0
  151.4665  141.7502  157.0531 C   0  0  0  0  0  0  0  0  0  0  0  0
  151.5160  140.3867  156.3444 C   0  0  0  0  0  0  0  0  0  0  0  0
  152.3184  139.5414  156.7419 O   0  0  0  0  0  0  0  0  0  0  0  0
  148.4592  132.0628  153.2678 S   0  0  0  0  0  0  0  0  0  0  0  0
  148.4412  128.6238  154.7751 H   0  0  0  0  0  0  0  0  0  0  0  0
  149.0727  128.9018  153.1423 H   0  0  0  0  0  0  0  0  0  0  0  0
  147.3837  129.2851  153.5182 H   0  0  0  0  0  0  0  0  0  0  0  0
  149.1182  134.8021  153.4907 H   0  0  0  0  0  0  0  0  0  0  0  0
  149.4896  136.6960  153.8710 H   0  0  0  0  0  0  0  0  0  0  0  0
  149.4411  138.0595  156.2312 H   0  0  0  0  0  0  0  0  0  0  0  0
  151.0805  137.4599  156.1803 H   0  0  0  0  0  0  0  0  0  0  0  0
  151.5992  138.6777  154.1515 H   0  0  0  0  0  0  0  0  0  0  0  0
  149.9314  138.9293  153.7638 H   0  0  0  0  0  0  0  0  0  0  0  0
  150.2667  142.1175  154.6353 H   0  0  0  0  0  0  0  0  0  0  0  0
  149.2790  140.9285  153.8870 H   0  0  0  0  0  0  0  0  0  0  0  0
  148.2187  142.5076  155.6864 H   0  0  0  0  0  0  0  0  0  0  0  0
  147.7307  140.8429  155.5991 H   0  0  0  0  0  0  0  0  0  0  0  0
  148.0428  141.6091  157.9317 H   0  0  0  0  0  0  0  0  0  0  0  0
  148.9880  140.2139  157.5433 H   0  0  0  0  0  0  0  0  0  0  0  0
  149.9695  143.0847  157.8483 H   0  0  0  0  0  0  0  0  0  0  0  0
  150.3200  141.7367  158.8842 H   0  0  0  0  0  0  0  0  0  0  0  0
  151.6245  142.5383  156.3172 H   0  0  0  0  0  0  0  0  0  0  0  0
  152.3158  141.8308  157.7327 H   0  0  0  0  0  0  0  0  0  0  0  0
  1  2  1  0  0  0  0
  1 21  1  0  0  0  0
  1 22  1  0  0  0  0
  1 23  1  0  0  0  0
  2 20  1  0  0  0  0
  2  3  2  0  0  0  0
  3  4  1  0  0  0  0
  4  5  2  0  0  0  0
  5  6  1  0  0  0  0
  5 20  1  0  0  0  0
  6  7  1  0  0  0  0
  6 24  1  0  0  0  0
  7  8  2  0  0  0  0
  7  9  1  0  0  0  0
  9 10  1  0  0  0  0
  9 25  1  0  0  0  0
 10 11  1  0  0  0  0
 10 26  1  0  0  0  0
 10 27  1  0  0  0  0
 11 12  1  0  0  0  0
 11 28  1  0  0  0  0
 11 29  1  0  0  0  0
 12 18  1  0  0  0  0
 12 13  1  0  0  0  0
 13 14  1  0  0  0  0
 13 30  1  0  0  0  0
 13 31  1  0  0  0  0
 14 15  1  0  0  0  0
 14 32  1  0  0  0  0
 14 33  1  0  0  0  0
 15 16  1  0  0  0  0
 15 34  1  0  0  0  0
 15 35  1  0  0  0  0
 16 17  1  0  0  0  0
 16 36  1  0  0  0  0
 16 37  1  0  0  0  0
 17 18  1  0  0  0  0
 17 38  1  0  0  0  0
 17 39  1  0  0  0  0
 18 19  2  0  0  0  0
M  END
> <s_m_source_file>
AV-unprocessed.smi

> <i_m_source_file_index>
1212

> <i_lp_mmshare_version>
43012

> <i_f3d_flags>
0

> <s_epik_input>
W0NIM11jMW5uYyhzMSlbTkhdQyg9TylbTkhdW0NIMl1bQ0gyXU4yW0NIMl1bQ0gyXVtDSDJdW0NIMl1bQ0gyXUMyPU8=

> <s_epik_cmdline>
J2VwaWtfcHl0aG9uJywgJy1waCcsICc3LjAnLCAnLXRuJywgJzgnLCAnLW1hJywgJzIwMCcsICctbWV0YWxfYmluZGluZycsICctaW1hZScsICc8aW5maWxlLm1hZT4nLCAnLW9tYWUnLCAnPG91dGZpbGUubWFlPic=

> <r_lp_tautomer_probability>
1

> <r_epik_Ionization_Penalty>
0.00255187

> <r_epik_Ionization_Penalty_Charging>
0

> <r_epik_Ionization_Penalty_Neutral>
0.00255187

> <r_epik_State_Penalty>
-0

> <r_epik_Charging_Adjusted_Penalty>
0

> <i_epik_Tot_Q>
0

> <i_epik_Tot_abs_Q>
0

> <r_epik_Metal_State_Penalty>
0.352847

> <b_epik_Metal_Only>
0

> <s_lp_Force_Field>
OPLS_2005

> <r_lp_Energy>
20.0291

> <b_lp_Chiralities_Consistent>
1

> <s_lp_Variant>
AV-unprocessed.smi:1212-1

> <Gold.Version>
5.8.1

> <Gold.Id.Protein>
6NUR|6NUR_protein|mol2

> <Gold.PLP.Fitness>
41.1656

> <Gold.PLP.PLP>
-32.9797

> <Gold.PLP.part.hbond>
-3.0000

> <Gold.PLP.part.metal>
0.0000

> <Gold.PLP.part.buried>
-4.3808

> <Gold.PLP.part.nonpolar>
-26.1047

> <Gold.PLP.part.repulsive>
0.0959

> <Gold.PLP.ligand.clash>
0.0000

> <Gold.PLP.ligand.torsion>
0.2464

> <Gold.PLP.Chemscore.Hbond>
2.8833

> <Gold.PLP.Chemscore.CHOScore>
0.0000

> <Gold.PLP.Chemscore.Metal>
0.0000

> <Gold.Chemscore.Hbonds>
donor molecule, donor type, donor heavy atom, donor atom, acceptor molecule, acceptor atom, score
      L1  H     6    24       P1  7948  0.64
      L1  H     9    25       P1  7948  0.81
      P1  H  7997  8009       L1    19  0.78

> <Gold.PLP.Chemscore.Internal.Correction>
0.0289

> <Gold.Rescore>
     Score         DG    S(hbond)    S(metal)    S(lipo)     H(rot)  DE(clash)    DE(int)     intcor
     14.48     -15.97       2.61        0.00      51.33       1.65       0.02       1.48       ----

> <Gold.Chemscore.Fitness>
14.4803

> <Gold.Chemscore.DG>
-15.9750

> <Gold.Chemscore.ZeroCoef>
-5.4800

> <Gold.Chemscore.Hbond>
2.6122

> <Gold.Chemscore.Metal>
0.0000

> <Gold.Chemscore.Lipo>
51.3297

> <Gold.Chemscore.Internal_Hbond>
0.0000

> <Gold.Chemscore.DEClash>
0.0183

> <Gold.Chemscore.DEInternal>
1.4764

> <Gold.Chemscore.Rot>
1.6544

> <Gold.Chemscore.Internal.Correction>
   9.000000E+99

> <Gold.Chemscore.Hbonds>
donor molecule, donor type, donor heavy atom, donor atom, acceptor molecule, acceptor atom, score
      L1  H     6    24       P1  7948  0.11
      L1  H     9    25       P1  7948  0.68
      P1  H  7997  8009       L1    19  0.70

> <Gold.Chemscore.Hbond.Weighted>
-8.7246

> <Gold.Chemscore.Metal.Weighted>
-0.0000

> <Gold.Chemscore.Lipo.Weighted>
-6.0056

> <Gold.Chemscore.Internal_Hbond.Weighted>
0.0000

> <Gold.Chemscore.DEClash.Weighted>
0.0183

> <Gold.Chemscore.DEInternal.Weighted>
1.4764

> <Gold.Chemscore.Rot.Weighted>
4.2352

> <Gold.Chemscore.Internal.Correction.Weighted>
   9.000000E+99

> <Gold.Protein.RotatedTorsions>
[ 6907 6896 6895 6894 ] final  -50.47 input  -60.11 | X-H torsion
[ 7974 7965 7964 7962 ] final -176.39 input  175.53 | X-H torsion
[ 8008 7997 7996 7995 ] final -177.97 input   59.86 | X-H torsion
[ 10167 10162 10161 10158 ] final   30.46 input  -65.29 | X-H torsion
[ 10718 10713 10712 10709 ] final   43.07 input   66.30 | X-H torsion
[ 10763 10752 10751 10750 ] final  -72.56 input  -60.55 | X-H torsion
[ 11005 11000 10999 10996 ] final  -91.64 input  -57.11 | X-H torsion

> <Gold.Protein.ActiveResidues>
 VAL166  LYS551  ARG553  GLY616  TRP617  ASP618  TYR619  PRO620  LYS621  CYS622 
 ASP623  PHE694  ASN695  SER759  ASP760  ASP761  ALA762  ILE779  LEU786  VAL792 
 PHE793  MET794  SER795  GLU796  ALA797  LYS798  CYS799  TRP800  GLU811  SER814 

> <Gold.Protein.RotatedAtoms>
  150.8704  134.8077  159.7150 H   0  0  0  0  0  0  0  0  0  0  0  0  # atno 6907 bound_to 6896
  152.4711  134.4955  159.9718 H   0  0  0  0  0  0  0  0  0  0  0  0  # atno 6908 bound_to 6896
  151.5045  133.3459  159.2910 H   0  0  0  0  0  0  0  0  0  0  0  0  # atno 6909 bound_to 6896
  144.7127  140.1177  143.6407 H   0  0  0  0  0  0  0  0  0  0  0  0  # atno 7974 bound_to 7965
  156.0132  140.1245  157.0432 H   0  0  0  0  0  0  0  0  0  0  0  0  # atno 8008 bound_to 7997
  154.4283  140.1083  156.5929 H   0  0  0  0  0  0  0  0  0  0  0  0  # atno 8009 bound_to 7997
  155.6050  140.3471  155.4607 H   0  0  0  0  0  0  0  0  0  0  0  0  # atno 8010 bound_to 7997
  140.4676  144.0812  150.6228 H   0  0  0  0  0  0  0  0  0  0  0  0  # atno 10167 bound_to 10162
  157.4119  130.7919  149.7438 H   0  0  0  0  0  0  0  0  0  0  0  0  # atno 10718 bound_to 10713
  154.4474  135.5926  153.6169 H   0  0  0  0  0  0  0  0  0  0  0  0  # atno 10763 bound_to 10752
  152.9810  135.6012  154.3648 H   0  0  0  0  0  0  0  0  0  0  0  0  # atno 10764 bound_to 10752
  154.3505  135.2841  155.2353 H   0  0  0  0  0  0  0  0  0  0  0  0  # atno 10765 bound_to 10752
  141.1540  133.7769  156.9908 H   0  0  0  0  0  0  0  0  0  0  0  0  # atno 11005 bound_to 11000
  145.9399  139.2662  143.1275 LP  0  0  0  0  0  0  0  0  0  0  0  0  # atno 17320 bound_to 7965
  145.9435  140.8962  143.0296 LP  0  0  0  0  0  0  0  0  0  0  0  0  # atno 17321 bound_to 7965
  140.4017  143.2700  151.9940 LP  0  0  0  0  0  0  0  0  0  0  0  0  # atno 17342 bound_to 10162
  139.4814  144.5992  151.7636 LP  0  0  0  0  0  0  0  0  0  0  0  0  # atno 17343 bound_to 10162
  155.9853  130.3984  150.3268 LP  0  0  0  0  0  0  0  0  0  0  0  0  # atno 17370 bound_to 10713
  157.1407  131.0295  151.2929 LP  0  0  0  0  0  0  0  0  0  0  0  0  # atno 17371 bound_to 10713
  140.1004  134.9539  157.1914 LP  0  0  0  0  0  0  0  0  0  0  0  0  # atno 17394 bound_to 11000
  140.3326  134.2793  155.7225 LP  0  0  0  0  0  0  0  0  0  0  0  0  # atno 17395 bound_to 11000

$$$$
