AV-unprocessed.smi:994|AV-procd|sdf|4340|dock9
  -GOLD-   22720 2243D 1   1.00000     0.00000
 Structure written by MMmdl.
 38 39  0  0  0  0  0  0  0  0  3 V2000
  149.3749  140.0943  158.0602 O   0  0  0  0  0  0  0  0  0  0  0  0
  150.4025  140.6425  157.6607 C   0  0  0  0  0  0  0  0  0  0  0  0
  151.1941  140.1221  156.7101 N   0  0  0  0  0  0  0  0  0  0  0  0
  150.9997  138.8284  156.0547 C   0  0  1  0  0  0  0  0  0  0  0  0
  150.7858  139.0554  154.5426 C   0  0  0  0  0  0  0  0  0  0  0  0
  149.4217  139.5806  154.1577 C   0  0  0  0  0  0  0  0  0  0  0  0
  148.7760  140.7678  154.4580 C   0  0  0  0  0  0  0  0  0  0  0  0
  147.5327  140.7318  153.8488 N   0  0  0  0  0  0  0  0  0  0  0  0
  147.4479  139.5620  153.2189 C   0  0  0  0  0  0  0  0  0  0  0  0
  148.5530  138.8354  153.3753 N   0  3  0  0  0  0  0  0  0  0  0  0
  152.2602  137.9733  156.2439 C   0  0  0  0  0  0  0  0  0  0  0  0
  153.2255  138.5105  156.8287 O   0  0  0  0  0  0  0  0  0  0  0  0
  152.2362  136.7985  155.8126 O   0  5  0  0  0  0  0  0  0  0  0  0
  150.8305  141.9985  158.2370 C   0  0  0  0  0  0  0  0  0  0  0  0
  151.1706  142.9981  157.1106 C   0  0  0  0  0  0  0  0  0  0  0  0
  151.6241  144.3526  157.6804 C   0  0  0  0  0  0  0  0  0  0  0  0
  152.8142  144.1839  158.6384 C   0  0  0  0  0  0  0  0  0  0  0  0
  152.4860  143.1876  159.7617 C   0  0  0  0  0  0  0  0  0  0  0  0
  152.0330  141.8336  159.1909 C   0  0  0  0  0  0  0  0  0  0  0  0
  146.8260  141.4530  153.8804 H   0  0  0  0  0  0  0  0  0  0  0  0
  152.0285  140.6322  156.4595 H   0  0  0  0  0  0  0  0  0  0  0  0
  150.1398  138.2987  156.4696 H   0  0  0  0  0  0  0  0  0  0  0  0
  151.5352  139.7471  154.1536 H   0  0  0  0  0  0  0  0  0  0  0  0
  150.9287  138.1159  154.0064 H   0  0  0  0  0  0  0  0  0  0  0  0
  149.0839  141.6244  155.0401 H   0  0  0  0  0  0  0  0  0  0  0  0
  146.5875  139.2407  152.6502 H   0  0  0  0  0  0  0  0  0  0  0  0
  149.9958  142.4069  158.8100 H   0  0  0  0  0  0  0  0  0  0  0  0
  151.9604  142.5957  156.4740 H   0  0  0  0  0  0  0  0  0  0  0  0
  150.3030  143.1471  156.4663 H   0  0  0  0  0  0  0  0  0  0  0  0
  151.8953  145.0255  156.8667 H   0  0  0  0  0  0  0  0  0  0  0  0
  150.7938  144.8238  158.2078 H   0  0  0  0  0  0  0  0  0  0  0  0
  153.6840  143.8328  158.0816 H   0  0  0  0  0  0  0  0  0  0  0  0
  153.0886  145.1489  159.0651 H   0  0  0  0  0  0  0  0  0  0  0  0
  153.3580  143.0484  160.4014 H   0  0  0  0  0  0  0  0  0  0  0  0
  151.6990  143.5984  160.3958 H   0  0  0  0  0  0  0  0  0  0  0  0
  151.7724  141.1626  160.0104 H   0  0  0  0  0  0  0  0  0  0  0  0
  152.8693  141.3686  158.6662 H   0  0  0  0  0  0  0  0  0  0  0  0
  148.7277  137.9156  152.9953 H   0  0  0  0  0  0  0  0  0  0  0  0
  1  2  2  0  0  0  0
  2  3  1  0  0  0  0
  2 14  1  0  0  0  0
  3  4  1  0  0  0  0
  3 21  1  0  0  0  0
  4  5  1  0  0  0  0
  4 11  1  0  0  0  0
  4 22  1  0  0  0  0
  5  6  1  0  0  0  0
  5 23  1  0  0  0  0
  5 24  1  0  0  0  0
  6 10  1  0  0  0  0
  6  7  2  0  0  0  0
  7  8  1  0  0  0  0
  7 25  1  0  0  0  0
  8 20  1  0  0  0  0
  8  9  1  0  0  0  0
  9 10  2  0  0  0  0
  9 26  1  0  0  0  0
 10 38  1  0  0  0  0
 11 12  2  0  0  0  0
 11 13  1  0  0  0  0
 14 19  1  0  0  0  0
 14 15  1  0  0  0  0
 14 27  1  0  0  0  0
 15 16  1  0  0  0  0
 15 28  1  0  0  0  0
 15 29  1  0  0  0  0
 16 17  1  0  0  0  0
 16 30  1  0  0  0  0
 16 31  1  0  0  0  0
 17 18  1  0  0  0  0
 17 32  1  0  0  0  0
 17 33  1  0  0  0  0
 18 19  1  0  0  0  0
 18 34  1  0  0  0  0
 18 35  1  0  0  0  0
 19 36  1  0  0  0  0
 19 37  1  0  0  0  0
M  CHG  1  10   1
M  CHG  1  13  -1
M  END
> <s_m_source_file>
AV-unprocessed.smi

> <i_m_source_file_index>
994

> <i_lp_mmshare_version>
43012

> <i_f3d_flags>
0

> <s_epik_input>
W0NIMl0xW0NIMl1bQ0gyXVtDSDJdW0NIMl1bQ0hdMUMoPU8pW05IXVtDQEBIXShDKD1PKVtPSF0pW0NIMl1jMltjSF1bbkhdW2NIXW4y

> <s_epik_cmdline>
J2VwaWtfcHl0aG9uJywgJy1waCcsICc3LjAnLCAnLXRuJywgJzgnLCAnLW1hJywgJzIwMCcsICctbWV0YWxfYmluZGluZycsICctaW1hZScsICc8aW5maWxlLm1hZT4nLCAnLW9tYWUnLCAnPG91dGZpbGUubWFlPic=

> <r_lp_tautomer_probability>
1

> <r_epik_Ionization_Penalty>
0.469853

> <r_epik_Ionization_Penalty_Charging>
5.5863e-05

> <r_epik_Ionization_Penalty_Neutral>
0.469797

> <r_epik_State_Penalty>
0.377582

> <r_epik_Charging_Adjusted_Penalty>
0.377638

> <i_epik_Tot_Q>
0

> <i_epik_Tot_abs_Q>
2

> <r_epik_Metal_State_Penalty>
0.796804

> <b_epik_Metal_Only>
0

> <s_lp_Force_Field>
OPLS_2005

> <r_lp_Energy>
8.41083

> <b_lp_Chiralities_Consistent>
1

> <s_lp_Variant>
AV-unprocessed.smi:994-2

> <Gold.Version>
5.8.1

> <Gold.Id.Protein>
6NUR|6NUR_protein|mol2

> <Gold.PLP.Fitness>
53.9539

> <Gold.PLP.PLP>
-36.8835

> <Gold.PLP.part.hbond>
-4.0000

> <Gold.PLP.part.metal>
0.0000

> <Gold.PLP.part.buried>
-2.0316

> <Gold.PLP.part.nonpolar>
-31.7599

> <Gold.PLP.part.repulsive>
0.2305

> <Gold.PLP.ligand.clash>
0.0000

> <Gold.PLP.ligand.torsion>
0.4673

> <Gold.PLP.Chemscore.Hbond>
5.9840

> <Gold.PLP.Chemscore.CHOScore>
0.0000

> <Gold.PLP.Chemscore.Metal>
0.0000

> <Gold.Chemscore.Hbonds>
donor molecule, donor type, donor heavy atom, donor atom, acceptor molecule, acceptor atom, score
      L1  H    10    38       P1  7948  2.00
      P1  H  7997  8008       L1    12  2.00
      P1  H 10752 10765       L1    13  2.00

> <Gold.PLP.Chemscore.Internal.Correction>
0.0530

> <Gold.Rescore>
     Score         DG    S(hbond)    S(metal)    S(lipo)     H(rot)  DE(clash)    DE(int)     intcor
     18.68     -19.31       2.94        0.00      93.86       2.72       0.12       0.51       ----

> <Gold.Chemscore.Fitness>
18.6845

> <Gold.Chemscore.DG>
-19.3141

> <Gold.Chemscore.ZeroCoef>
-5.4800

> <Gold.Chemscore.Hbond>
2.9395

> <Gold.Chemscore.Metal>
0.0000

> <Gold.Chemscore.Lipo>
93.8569

> <Gold.Chemscore.Internal_Hbond>
0.0000

> <Gold.Chemscore.DEClash>
0.1185

> <Gold.Chemscore.DEInternal>
0.5111

> <Gold.Chemscore.Rot>
2.7208

> <Gold.Chemscore.Internal.Correction>
   9.000000E+99

> <Gold.Chemscore.Hbonds>
donor molecule, donor type, donor heavy atom, donor atom, acceptor molecule, acceptor atom, score
      L1  H    10    38       P1  7948  0.94
      P1  H  7997  8008       L1    12  0.93
      P1  H 10752 10765       L1    13  0.95

> <Gold.Chemscore.Hbond.Weighted>
-9.8181

> <Gold.Chemscore.Metal.Weighted>
-0.0000

> <Gold.Chemscore.Lipo.Weighted>
-10.9813

> <Gold.Chemscore.Internal_Hbond.Weighted>
0.0000

> <Gold.Chemscore.DEClash.Weighted>
0.1185

> <Gold.Chemscore.DEInternal.Weighted>
0.5111

> <Gold.Chemscore.Rot.Weighted>
6.9652

> <Gold.Chemscore.Internal.Correction.Weighted>
   9.000000E+99

> <Gold.Protein.RotatedTorsions>
[ 6907 6896 6895 6894 ] final  133.58 input  -60.11 | X-H torsion
[ 7974 7965 7964 7962 ] final -143.91 input  175.53 | X-H torsion
[ 8008 7997 7996 7995 ] final  -52.93 input   59.86 | X-H torsion
[ 10167 10162 10161 10158 ] final -148.51 input  -65.29 | X-H torsion
[ 10718 10713 10712 10709 ] final  -20.76 input   66.30 | X-H torsion
[ 10763 10752 10751 10750 ] final -161.78 input  -60.55 | X-H torsion
[ 11005 11000 10999 10996 ] final  161.88 input  -57.11 | X-H torsion

> <Gold.Protein.ActiveResidues>
 VAL166  LYS551  ARG553  GLY616  TRP617  ASP618  TYR619  PRO620  LYS621  CYS622 
 ASP623  PHE694  ASN695  SER759  ASP760  ASP761  ALA762  ILE779  LEU786  VAL792 
 PHE793  MET794  SER795  GLU796  ALA797  LYS798  CYS799  TRP800  GLU811  SER814 

> <Gold.Protein.RotatedAtoms>
  152.3204  133.5848  159.5740 H   0  0  0  0  0  0  0  0  0  0  0  0  # atno 6907 bound_to 6896
  150.7369  134.0019  159.3650 H   0  0  0  0  0  0  0  0  0  0  0  0  # atno 6908 bound_to 6896
  151.7904  135.0738  160.0437 H   0  0  0  0  0  0  0  0  0  0  0  0  # atno 6909 bound_to 6896
  144.8335  140.5775  143.5499 H   0  0  0  0  0  0  0  0  0  0  0  0  # atno 7974 bound_to 7965
  154.4119  140.1212  156.5072 H   0  0  0  0  0  0  0  0  0  0  0  0  # atno 8008 bound_to 7997
  155.6835  140.3496  155.4845 H   0  0  0  0  0  0  0  0  0  0  0  0  # atno 8009 bound_to 7997
  155.9530  140.1108  157.0950 H   0  0  0  0  0  0  0  0  0  0  0  0  # atno 8010 bound_to 7997
  139.7525  143.8496  152.2590 H   0  0  0  0  0  0  0  0  0  0  0  0  # atno 10167 bound_to 10162
  156.5274  130.4647  149.6564 H   0  0  0  0  0  0  0  0  0  0  0  0  # atno 10718 bound_to 10713
  154.7273  135.3038  154.8950 H   0  0  0  0  0  0  0  0  0  0  0  0  # atno 10763 bound_to 10752
  153.9804  135.6731  153.4754 H   0  0  0  0  0  0  0  0  0  0  0  0  # atno 10764 bound_to 10752
  153.0886  135.4971  154.8565 H   0  0  0  0  0  0  0  0  0  0  0  0  # atno 10765 bound_to 10752
  140.2202  134.8202  157.3212 H   0  0  0  0  0  0  0  0  0  0  0  0  # atno 11005 bound_to 11000
  145.4845  139.1493  143.3744 LP  0  0  0  0  0  0  0  0  0  0  0  0  # atno 17320 bound_to 7965
  146.2636  140.4981  142.8843 LP  0  0  0  0  0  0  0  0  0  0  0  0  # atno 17321 bound_to 7965
  139.8479  144.7179  150.9250 LP  0  0  0  0  0  0  0  0  0  0  0  0  # atno 17342 bound_to 10162
  140.7799  143.3925  151.1285 LP  0  0  0  0  0  0  0  0  0  0  0  0  # atno 17343 bound_to 10162
  156.3091  130.7219  151.2108 LP  0  0  0  0  0  0  0  0  0  0  0  0  # atno 17370 bound_to 10713
  157.7427  131.0486  150.5003 LP  0  0  0  0  0  0  0  0  0  0  0  0  # atno 17371 bound_to 10713
  140.1858  134.4433  155.7745 LP  0  0  0  0  0  0  0  0  0  0  0  0  # atno 17394 bound_to 11000
  141.2223  133.7004  156.7944 LP  0  0  0  0  0  0  0  0  0  0  0  0  # atno 17395 bound_to 11000

$$$$
