AV-unprocessed.smi:1|AV-procd|sdf|14|dock8
  -GOLD-   2262015113D 1   1.00000     0.00000
 Structure written by MMmdl.
 57 62  0  0  0  0  0  0  0  0  1 V2000
  149.9586  129.4492  153.9506 O   0  0  0  0  0  0  0  0  0  0  0  0
  149.2695  130.4264  153.6455 C   0  0  0  0  0  0  0  0  0  0  0  0
  149.5256  131.7741  153.8620 N   0  0  0  0  0  0  0  0  0  0  0  0
  149.5576  132.2452  155.0719 C   0  0  0  0  0  0  0  0  0  0  0  0
  149.3665  131.6488  156.3248 N   0  0  0  0  0  0  0  0  0  0  0  0
  149.4104  132.3054  157.5636 C   0  0  0  0  0  0  0  0  0  0  0  0
  149.6455  133.5797  157.7246 N   0  0  0  0  0  0  0  0  0  0  0  0
  149.8559  134.2214  156.5109 C   0  0  0  0  0  0  0  0  0  0  0  0
  149.8354  133.6880  155.2394 C   0  0  0  0  0  0  0  0  0  0  0  0
  150.0961  134.6664  154.2860 N   0  0  0  0  0  0  0  0  0  0  0  0
  150.2671  135.7566  155.0280 C   0  0  0  0  0  0  0  0  0  0  0  0
  150.1444  135.5780  156.3562 N   0  0  0  0  0  0  0  0  0  0  0  0
  150.3020  136.6409  157.3996 C   0  0  1  0  0  0  0  0  0  0  0  0
  151.2748  137.5422  156.9707 O   0  0  0  0  0  0  0  0  0  0  0  0
  150.9363  138.8461  157.4150 C   0  0  1  0  0  0  0  0  0  0  0  0
  151.6584  139.9098  156.5783 C   0  0  0  0  0  0  0  0  0  0  0  0
  151.8272  141.0843  157.3560 O   0  0  0  0  0  0  0  0  0  0  0  0
  152.7308  141.1101  158.3556 C   0  0  0  0  0  0  0  0  0  0  0  0
  153.5511  140.2124  158.5581 O   0  0  0  0  0  0  0  0  0  0  0  0
  152.6378  142.3431  159.1894 C   0  0  0  0  0  0  0  0  0  0  0  0
  152.4799  143.5977  158.5554 C   0  0  0  0  0  0  0  0  0  0  0  0
  152.3869  144.7794  159.3161 C   0  0  0  0  0  0  0  0  0  0  0  0
  152.4535  144.7212  160.7203 C   0  0  0  0  0  0  0  0  0  0  0  0
  152.6128  143.4795  161.3629 C   0  0  0  0  0  0  0  0  0  0  0  0
  152.7035  142.2964  160.6038 C   0  0  0  0  0  0  0  0  0  0  0  0
  149.4092  138.8786  157.3348 C   0  0  1  0  0  0  0  0  0  0  0  0
  148.9546  139.2087  156.0337 O   0  0  0  0  0  0  0  0  0  0  0  0
  147.6242  138.2602  155.6990 S   0  0  0  0  0  0  0  0  0  0  0  0
  146.4249  138.9801  156.1543 O   0  0  0  0  0  0  0  0  0  0  0  0
  147.7529  137.7271  154.3347 O   0  0  0  0  0  0  0  0  0  0  0  0
  147.9328  137.0313  156.7879 O   0  0  0  0  0  0  0  0  0  0  0  0
  148.9981  137.4299  157.6418 C   0  0  1  0  0  0  0  0  0  0  0  0
  147.9766  130.1770  152.9398 C   0  0  0  0  0  0  0  0  0  0  0  0
  147.0203  131.2088  152.8305 C   0  0  0  0  0  0  0  0  0  0  0  0
  145.8033  130.9759  152.1606 C   0  0  0  0  0  0  0  0  0  0  0  0
  145.5401  129.7126  151.5960 C   0  0  0  0  0  0  0  0  0  0  0  0
  146.4944  128.6820  151.7004 C   0  0  0  0  0  0  0  0  0  0  0  0
  147.7117  128.9131  152.3705 C   0  0  0  0  0  0  0  0  0  0  0  0
  149.2268  131.6532  158.4187 H   0  0  0  0  0  0  0  0  0  0  0  0
  150.4949  136.7180  154.5916 H   0  0  0  0  0  0  0  0  0  0  0  0
  150.6462  136.1118  158.2893 H   0  0  0  0  0  0  0  0  0  0  0  0
  151.2431  138.9244  158.4595 H   0  0  0  0  0  0  0  0  0  0  0  0
  152.6381  139.5431  156.2703 H   0  0  0  0  0  0  0  0  0  0  0  0
  151.0914  140.1215  155.6705 H   0  0  0  0  0  0  0  0  0  0  0  0
  152.4259  143.6674  157.4784 H   0  0  0  0  0  0  0  0  0  0  0  0
  152.2643  145.7314  158.8208 H   0  0  0  0  0  0  0  0  0  0  0  0
  152.3828  145.6277  161.3033 H   0  0  0  0  0  0  0  0  0  0  0  0
  152.6654  143.4338  162.4406 H   0  0  0  0  0  0  0  0  0  0  0  0
  152.8259  141.3603  161.1288 H   0  0  0  0  0  0  0  0  0  0  0  0
  148.9790  139.5877  158.0431 H   0  0  0  0  0  0  0  0  0  0  0  0
  148.7105  137.3137  158.6871 H   0  0  0  0  0  0  0  0  0  0  0  0
  147.2164  132.1813  153.2588 H   0  0  0  0  0  0  0  0  0  0  0  0
  145.0725  131.7668  152.0782 H   0  0  0  0  0  0  0  0  0  0  0  0
  144.6069  129.5355  151.0820 H   0  0  0  0  0  0  0  0  0  0  0  0
  146.2931  127.7139  151.2658 H   0  0  0  0  0  0  0  0  0  0  0  0
  148.4394  128.1180  152.4449 H   0  0  0  0  0  0  0  0  0  0  0  0
  149.1742  130.6576  156.3356 H   0  0  0  0  0  0  0  0  0  0  0  0
  1  2  2  0  0  0  0
  2  3  1  0  0  0  0
  2 33  1  0  0  0  0
  3  4  2  0  0  0  0
  4  9  1  0  0  0  0
  4  5  1  0  0  0  0
  5  6  1  0  0  0  0
  5 57  1  0  0  0  0
  6  7  2  0  0  0  0
  6 39  1  0  0  0  0
  7  8  1  0  0  0  0
  8 12  1  0  0  0  0
  8  9  2  0  0  0  0
  9 10  1  0  0  0  0
 10 11  2  0  0  0  0
 11 12  1  0  0  0  0
 11 40  1  0  0  0  0
 12 13  1  0  0  0  0
 13 32  1  0  0  0  0
 13 14  1  0  0  0  0
 13 41  1  0  0  0  0
 14 15  1  0  0  0  0
 15 16  1  0  0  0  0
 15 26  1  0  0  0  0
 15 42  1  0  0  0  0
 16 17  1  0  0  0  0
 16 43  1  0  0  0  0
 16 44  1  0  0  0  0
 17 18  1  0  0  0  0
 18 19  2  0  0  0  0
 18 20  1  0  0  0  0
 20 25  1  0  0  0  0
 20 21  2  0  0  0  0
 21 22  1  0  0  0  0
 21 45  1  0  0  0  0
 22 23  2  0  0  0  0
 22 46  1  0  0  0  0
 23 24  1  0  0  0  0
 23 47  1  0  0  0  0
 24 25  2  0  0  0  0
 24 48  1  0  0  0  0
 25 49  1  0  0  0  0
 26 32  1  0  0  0  0
 26 27  1  0  0  0  0
 26 50  1  0  0  0  0
 27 28  1  0  0  0  0
 28 29  2  0  0  0  0
 28 30  2  0  0  0  0
 28 31  1  0  0  0  0
 31 32  1  0  0  0  0
 32 51  1  0  0  0  0
 33 38  1  0  0  0  0
 33 34  2  0  0  0  0
 34 35  1  0  0  0  0
 34 52  1  0  0  0  0
 35 36  2  0  0  0  0
 35 53  1  0  0  0  0
 36 37  1  0  0  0  0
 36 54  1  0  0  0  0
 37 38  2  0  0  0  0
 37 55  1  0  0  0  0
 38 56  1  0  0  0  0
M  END
> <s_m_source_file>
AV-unprocessed.smi

> <i_m_source_file_index>
1

> <i_lp_mmshare_version>
43012

> <i_f3d_flags>
0

> <s_epik_input>
W2NIXTFbY0hdW2NIXVtjSF1bY0hdYzFDKD1PKVtOSF1jKG5bY0hdbjIpYyhjMjMpbltjSF1uM1tDQEBIXShbQ0BIXShbQ0BIXTQ1KU9TKE81KSg9Tyk9TylPW0NASF00W0NIMl1PQyg9TyljNltjSF1bY0hdW2NIXVtjSF1bY0hdNg==

> <s_epik_cmdline>
J2VwaWtfcHl0aG9uJywgJy1waCcsICc3LjAnLCAnLXRuJywgJzgnLCAnLW1hJywgJzIwMCcsICctbWV0YWxfYmluZGluZycsICctaW1hZScsICc8aW5maWxlLm1hZT4nLCAnLW9tYWUnLCAnPG91dGZpbGUubWFlPic=

> <r_epik_Ionization_Penalty>
0.122545

> <r_epik_Ionization_Penalty_Charging>
0.122545

> <r_epik_Ionization_Penalty_Neutral>
7.8935e-16

> <r_epik_State_Penalty>
2.69178

> <r_epik_Charging_Adjusted_Penalty>
2.81433

> <i_epik_Tot_Q>
0

> <i_epik_Tot_abs_Q>
0

> <r_epik_Metal_State_Penalty>
3.02665

> <b_epik_Metal_Only>
0

> <s_epik_Chemistry_Notes>
This compound has an ester and may undergo hydrolysis at high or low pH. This compound contains an acetal/aminal-like group ( X-CH(R)-Y where X, Y are N, S, or O) that may be acid/base labile, releasing an aldehyde.

> <s_lp_Force_Field>
OPLS_2005

> <r_lp_Energy>
60.6373

> <b_lp_Chiralities_Consistent>
1

> <s_lp_Variant>
AV-unprocessed.smi:1-14

> <Gold.Version>
5.8.1

> <Gold.Id.Protein>
6NUR|6NUR_protein|mol2

> <Gold.PLP.Fitness>
55.8151

> <Gold.PLP.PLP>
-55.1386

> <Gold.PLP.part.hbond>
-2.0000

> <Gold.PLP.part.metal>
0.0000

> <Gold.PLP.part.buried>
-7.4107

> <Gold.PLP.part.nonpolar>
-44.8795

> <Gold.PLP.part.repulsive>
0.4779

> <Gold.PLP.ligand.clash>
0.0000

> <Gold.PLP.ligand.torsion>
2.5958

> <Gold.PLP.Chemscore.Hbond>
1.9200

> <Gold.PLP.Chemscore.CHOScore>
0.0000

> <Gold.PLP.Chemscore.Metal>
0.0000

> <Gold.Chemscore.Hbonds>
donor molecule, donor type, donor heavy atom, donor atom, acceptor molecule, acceptor atom, score
      P1  H  6896  6909       L1     7  0.98
      P1  H  7997  8009       L1    19  0.93

> <Gold.PLP.Chemscore.Internal.Correction>
0.1081

> <Gold.Rescore>
     Score         DG    S(hbond)    S(metal)    S(lipo)     H(rot)  DE(clash)    DE(int)     intcor
     17.83     -21.12       1.59        0.00     135.07       2.13       0.50       2.79       ----

> <Gold.Chemscore.Fitness>
17.8343

> <Gold.Chemscore.DG>
-21.1236

> <Gold.Chemscore.ZeroCoef>
-5.4800

> <Gold.Chemscore.Hbond>
1.5874

> <Gold.Chemscore.Metal>
0.0000

> <Gold.Chemscore.Lipo>
135.0696

> <Gold.Chemscore.Internal_Hbond>
0.0000

> <Gold.Chemscore.DEClash>
0.5009

> <Gold.Chemscore.DEInternal>
2.7883

> <Gold.Chemscore.Rot>
2.1333

> <Gold.Chemscore.Internal.Correction>
   9.000000E+99

> <Gold.Chemscore.Hbonds>
donor molecule, donor type, donor heavy atom, donor atom, acceptor molecule, acceptor atom, score
      P1  H  6896  6909       L1     7  0.83
      P1  H  7997  8009       L1    19  0.63

> <Gold.Chemscore.Hbond.Weighted>
-5.3018

> <Gold.Chemscore.Metal.Weighted>
-0.0000

> <Gold.Chemscore.Lipo.Weighted>
-15.8031

> <Gold.Chemscore.Internal_Hbond.Weighted>
0.0000

> <Gold.Chemscore.DEClash.Weighted>
0.5009

> <Gold.Chemscore.DEInternal.Weighted>
2.7883

> <Gold.Chemscore.Rot.Weighted>
5.4614

> <Gold.Chemscore.Internal.Correction.Weighted>
   9.000000E+99

> <Gold.Protein.RotatedTorsions>
[ 6907 6896 6895 6894 ] final   23.54 input  -60.11 | X-H torsion
[ 7974 7965 7964 7962 ] final  132.36 input  175.53 | X-H torsion
[ 8008 7997 7996 7995 ] final  150.29 input   59.86 | X-H torsion
[ 10167 10162 10161 10158 ] final  -92.14 input  -65.29 | X-H torsion
[ 10718 10713 10712 10709 ] final  -22.38 input   66.30 | X-H torsion
[ 10763 10752 10751 10750 ] final -174.76 input  -60.55 | X-H torsion
[ 11005 11000 10999 10996 ] final  125.76 input  -57.11 | X-H torsion

> <Gold.Protein.ActiveResidues>
 VAL166  LYS551  ARG553  GLY616  TRP617  ASP618  TYR619  PRO620  LYS621  CYS622 
 ASP623  PHE694  ASN695  SER759  ASP760  ASP761  ALA762  ILE779  LEU786  VAL792 
 PHE793  MET794  SER795  GLU796  ALA797  LYS798  CYS799  TRP800  GLU811  SER814 

> <Gold.Protein.RotatedAtoms>
  151.9439  135.0201  160.0537 H   0  0  0  0  0  0  0  0  0  0  0  0  # atno 6907 bound_to 6896
  152.2012  133.4838  159.5068 H   0  0  0  0  0  0  0  0  0  0  0  0  # atno 6908 bound_to 6896
  150.6955  134.1504  159.4181 H   0  0  0  0  0  0  0  0  0  0  0  0  # atno 6909 bound_to 6896
  144.9977  139.4343  143.5308 H   0  0  0  0  0  0  0  0  0  0  0  0  # atno 7974 bound_to 7965
  156.2722  140.2079  156.5993 H   0  0  0  0  0  0  0  0  0  0  0  0  # atno 8008 bound_to 7997
  154.6919  140.0529  157.0396 H   0  0  0  0  0  0  0  0  0  0  0  0  # atno 8009 bound_to 7997
  155.0854  140.3191  155.4592 H   0  0  0  0  0  0  0  0  0  0  0  0  # atno 8010 bound_to 7997
  140.3378  143.2959  151.9869 H   0  0  0  0  0  0  0  0  0  0  0  0  # atno 10167 bound_to 10162
  156.5054  130.4597  149.6678 H   0  0  0  0  0  0  0  0  0  0  0  0  # atno 10718 bound_to 10713
  154.5925  135.2846  155.0621 H   0  0  0  0  0  0  0  0  0  0  0  0  # atno 10763 bound_to 10752
  154.1916  135.6440  153.5065 H   0  0  0  0  0  0  0  0  0  0  0  0  # atno 10764 bound_to 10752
  153.0126  135.5447  154.6615 H   0  0  0  0  0  0  0  0  0  0  0  0  # atno 10765 bound_to 10752
  139.9422  134.9634  156.8607 H   0  0  0  0  0  0  0  0  0  0  0  0  # atno 11005 bound_to 11000
  146.3445  139.9346  142.8749 LP  0  0  0  0  0  0  0  0  0  0  0  0  # atno 17320 bound_to 7965
  145.2197  140.9930  143.4053 LP  0  0  0  0  0  0  0  0  0  0  0  0  # atno 17321 bound_to 7965
  139.4845  144.6182  151.7306 LP  0  0  0  0  0  0  0  0  0  0  0  0  # atno 17342 bound_to 10162
  140.5337  144.0689  150.6063 LP  0  0  0  0  0  0  0  0  0  0  0  0  # atno 17343 bound_to 10162
  156.3292  130.7322  151.2249 LP  0  0  0  0  0  0  0  0  0  0  0  0  # atno 17370 bound_to 10713
  157.7457  131.0434  150.4744 LP  0  0  0  0  0  0  0  0  0  0  0  0  # atno 17371 bound_to 10713
  140.5922  134.0251  155.7504 LP  0  0  0  0  0  0  0  0  0  0  0  0  # atno 17394 bound_to 11000
  141.1061  133.9691  157.2994 LP  0  0  0  0  0  0  0  0  0  0  0  0  # atno 17395 bound_to 11000

$$$$
