AV-unprocessed.smi:2121|AV-procd|sdf|8645|dock6
  -GOLD-   2272011393D 1   1.00000     0.00000
 Structure written by MMmdl.
 49 50  0  0  0  0  0  0  0  0  1 V2000
  153.7425  141.7812  161.2476 C   0  0  0  0  0  0  0  0  0  0  0  0
  153.0557  142.3976  160.0243 C   0  0  1  0  0  0  0  0  0  0  0  0
  152.2407  141.3560  159.2375 C   0  0  0  0  0  0  0  0  0  0  0  0
  151.5052  142.0019  158.1548 N   0  0  0  0  0  0  0  0  0  0  0  0
  150.9458  141.1849  157.1502 C   0  0  0  0  0  0  0  0  0  0  0  0
  150.4271  141.7699  155.9718 C   0  0  0  0  0  0  0  0  0  0  0  0
  149.8723  140.9400  154.9795 C   0  0  0  0  0  0  0  0  0  0  0  0
  149.8429  139.5441  155.1899 C   0  0  0  0  0  0  0  0  0  0  0  0
  149.2665  138.5715  154.1682 C   0  0  0  0  0  0  0  0  0  0  0  0
  149.1491  137.1935  154.6346 N   0  0  0  0  0  0  0  0  0  0  0  0
  150.1811  136.3652  154.8545 C   0  0  0  0  0  0  0  0  0  0  0  0
  151.3540  136.6751  154.6390 O   0  0  0  0  0  0  0  0  0  0  0  0
  149.8276  134.9746  155.4045 C   0  0  1  0  0  0  0  0  0  0  0  0
  148.9307  134.2591  154.3809 C   0  0  0  0  0  0  0  0  0  0  0  0
  151.0379  134.1752  155.5908 N   0  0  0  0  0  0  0  0  0  0  0  0
  151.2690  133.3586  156.6297 C   0  0  0  0  0  0  0  0  0  0  0  0
  152.4623  132.7687  156.5558 N   0  0  0  0  0  0  0  0  0  0  0  0
  150.4818  133.1664  157.5545 O   0  0  0  0  0  0  0  0  0  0  0  0
  150.3914  139.0528  156.3914 C   0  0  0  0  0  0  0  0  0  0  0  0
  150.9287  139.8432  157.3444 N   0  0  0  0  0  0  0  0  0  0  0  0
  150.6592  143.1008  158.6099 C   0  0  0  0  0  0  0  0  0  0  0  0
  151.4684  144.1119  159.4460 C   0  0  2  0  0  0  0  0  0  0  0  0
  152.3783  145.0177  158.5973 C   0  0  0  0  0  0  0  0  0  0  0  0
  152.1898  143.4370  160.4795 O   0  0  0  0  0  0  0  0  0  0  0  0
  154.4264  140.9845  160.9539 H   0  0  0  0  0  0  0  0  0  0  0  0
  153.0126  141.3584  161.9388 H   0  0  0  0  0  0  0  0  0  0  0  0
  154.3195  142.5312  161.7891 H   0  0  0  0  0  0  0  0  0  0  0  0
  153.8286  142.8188  159.3812 H   0  0  0  0  0  0  0  0  0  0  0  0
  152.9139  140.5978  158.8352 H   0  0  0  0  0  0  0  0  0  0  0  0
  151.5356  140.8497  159.8982 H   0  0  0  0  0  0  0  0  0  0  0  0
  150.4624  142.8375  155.8130 H   0  0  0  0  0  0  0  0  0  0  0  0
  149.4822  141.3807  154.0741 H   0  0  0  0  0  0  0  0  0  0  0  0
  148.2713  138.9195  153.8913 H   0  0  0  0  0  0  0  0  0  0  0  0
  149.8673  138.6020  153.2575 H   0  0  0  0  0  0  0  0  0  0  0  0
  148.2183  136.8562  154.8337 H   0  0  0  0  0  0  0  0  0  0  0  0
  149.2964  135.0657  156.3540 H   0  0  0  0  0  0  0  0  0  0  0  0
  148.0089  134.8154  154.2062 H   0  0  0  0  0  0  0  0  0  0  0  0
  148.6474  133.2684  154.7378 H   0  0  0  0  0  0  0  0  0  0  0  0
  149.4303  134.1323  153.4191 H   0  0  0  0  0  0  0  0  0  0  0  0
  151.7553  134.2682  154.8870 H   0  0  0  0  0  0  0  0  0  0  0  0
  152.7572  132.1258  157.2758 H   0  0  0  0  0  0  0  0  0  0  0  0
  153.0675  132.9671  155.7723 H   0  0  0  0  0  0  0  0  0  0  0  0
  150.4012  137.9922  156.5959 H   0  0  0  0  0  0  0  0  0  0  0  0
  150.1789  143.6176  157.7800 H   0  0  0  0  0  0  0  0  0  0  0  0
  149.8583  142.6812  159.2201 H   0  0  0  0  0  0  0  0  0  0  0  0
  150.7575  144.7662  159.9511 H   0  0  0  0  0  0  0  0  0  0  0  0
  151.7864  145.6192  157.9069 H   0  0  0  0  0  0  0  0  0  0  0  0
  153.0895  144.4480  157.9996 H   0  0  0  0  0  0  0  0  0  0  0  0
  152.9440  145.7025  159.2291 H   0  0  0  0  0  0  0  0  0  0  0  0
  1  2  1  0  0  0  0
  1 25  1  0  0  0  0
  1 26  1  0  0  0  0
  1 27  1  0  0  0  0
  2 24  1  0  0  0  0
  2  3  1  0  0  0  0
  2 28  1  0  0  0  0
  3  4  1  0  0  0  0
  3 29  1  0  0  0  0
  3 30  1  0  0  0  0
  4  5  1  0  0  0  0
  4 21  1  0  0  0  0
  5 20  1  0  0  0  0
  5  6  2  0  0  0  0
  6  7  1  0  0  0  0
  6 31  1  0  0  0  0
  7  8  2  0  0  0  0
  7 32  1  0  0  0  0
  8  9  1  0  0  0  0
  8 19  1  0  0  0  0
  9 10  1  0  0  0  0
  9 33  1  0  0  0  0
  9 34  1  0  0  0  0
 10 11  1  0  0  0  0
 10 35  1  0  0  0  0
 11 12  2  0  0  0  0
 11 13  1  0  0  0  0
 13 14  1  0  0  0  0
 13 15  1  0  0  0  0
 13 36  1  0  0  0  0
 14 37  1  0  0  0  0
 14 38  1  0  0  0  0
 14 39  1  0  0  0  0
 15 16  1  0  0  0  0
 15 40  1  0  0  0  0
 16 17  1  0  0  0  0
 16 18  2  0  0  0  0
 17 41  1  0  0  0  0
 17 42  1  0  0  0  0
 19 20  2  0  0  0  0
 19 43  1  0  0  0  0
 21 22  1  0  0  0  0
 21 44  1  0  0  0  0
 21 45  1  0  0  0  0
 22 23  1  0  0  0  0
 22 24  1  0  0  0  0
 22 46  1  0  0  0  0
 23 47  1  0  0  0  0
 23 48  1  0  0  0  0
 23 49  1  0  0  0  0
M  END
> <s_m_source_file>
AV-unprocessed.smi

> <i_m_source_file_index>
2121

> <i_lp_mmshare_version>
43012

> <i_f3d_flags>
0

> <s_epik_input>
W0NIM11bQ0BASF0xW0NIMl1OKFtDSDJdW0NASF0oTzEpW0NIM10pYzJbY0hdW2NIXWMoW2NIXW4yKVtDSDJdW05IXUMoPU8pW0NASF0oW0NIM10pW05IXUMoPU8pW05IMl0=

> <s_epik_cmdline>
J2VwaWtfcHl0aG9uJywgJy1waCcsICc3LjAnLCAnLXRuJywgJzgnLCAnLW1hJywgJzIwMCcsICctbWV0YWxfYmluZGluZycsICctaW1hZScsICc8aW5maWxlLm1hZT4nLCAnLW9tYWUnLCAnPG91dGZpbGUubWFlPic=

> <r_lp_tautomer_probability>
1

> <r_epik_Ionization_Penalty>
0.0063713

> <r_epik_Ionization_Penalty_Charging>
0

> <r_epik_Ionization_Penalty_Neutral>
0.0063713

> <r_epik_State_Penalty>
0.00467069

> <r_epik_Charging_Adjusted_Penalty>
0.00467069

> <i_epik_Tot_Q>
0

> <i_epik_Tot_abs_Q>
0

> <r_epik_Metal_State_Penalty>
-0

> <b_epik_Metal_Only>
0

> <s_lp_Force_Field>
OPLS_2005

> <r_lp_Energy>
11.1976

> <b_lp_Chiralities_Consistent>
1

> <s_lp_Variant>
AV-unprocessed.smi:2121-6

> <Gold.Version>
5.8.1

> <Gold.Id.Protein>
6NUR|6NUR_protein|mol2

> <Gold.PLP.Fitness>
45.8198

> <Gold.PLP.PLP>
-40.5784

> <Gold.PLP.part.hbond>
-3.0000

> <Gold.PLP.part.metal>
0.0000

> <Gold.PLP.part.buried>
-3.1681

> <Gold.PLP.part.nonpolar>
-34.7969

> <Gold.PLP.part.repulsive>
0.5038

> <Gold.PLP.ligand.clash>
0.0000

> <Gold.PLP.ligand.torsion>
0.5573

> <Gold.PLP.Chemscore.Hbond>
2.0000

> <Gold.PLP.Chemscore.CHOScore>
0.0000

> <Gold.PLP.Chemscore.Metal>
0.0000

> <Gold.Chemscore.Hbonds>
donor molecule, donor type, donor heavy atom, donor atom, acceptor molecule, acceptor atom, score
      P1  H  6896  6909       L1    18  1.00
      P1  H 10752 10764       L1    12  1.00

> <Gold.PLP.Chemscore.Internal.Correction>
0.3560

> <Gold.Rescore>
     Score         DG    S(hbond)    S(metal)    S(lipo)     H(rot)  DE(clash)    DE(int)     intcor
     17.10     -17.58       1.95        0.00     104.36       2.58       0.03       0.45       ----

> <Gold.Chemscore.Fitness>
17.0964

> <Gold.Chemscore.DG>
-17.5783

> <Gold.Chemscore.ZeroCoef>
-5.4800

> <Gold.Chemscore.Hbond>
1.9470

> <Gold.Chemscore.Metal>
0.0000

> <Gold.Chemscore.Lipo>
104.3556

> <Gold.Chemscore.Internal_Hbond>
0.0000

> <Gold.Chemscore.DEClash>
0.0291

> <Gold.Chemscore.DEInternal>
0.4527

> <Gold.Chemscore.Rot>
2.5838

> <Gold.Chemscore.Internal.Correction>
   9.000000E+99

> <Gold.Chemscore.Hbonds>
donor molecule, donor type, donor heavy atom, donor atom, acceptor molecule, acceptor atom, score
      P1  H  6896  6909       L1    18  0.94
      P1  H 10752 10764       L1    12  1.00

> <Gold.Chemscore.Hbond.Weighted>
-6.5031

> <Gold.Chemscore.Metal.Weighted>
-0.0000

> <Gold.Chemscore.Lipo.Weighted>
-12.2096

> <Gold.Chemscore.Internal_Hbond.Weighted>
0.0000

> <Gold.Chemscore.DEClash.Weighted>
0.0291

> <Gold.Chemscore.DEInternal.Weighted>
0.4527

> <Gold.Chemscore.Rot.Weighted>
6.6145

> <Gold.Chemscore.Internal.Correction.Weighted>
   9.000000E+99

> <Gold.Protein.RotatedTorsions>
[ 6907 6896 6895 6894 ] final   -7.64 input  -60.11 | X-H torsion
[ 7974 7965 7964 7962 ] final  143.95 input  175.53 | X-H torsion
[ 8008 7997 7996 7995 ] final   11.21 input   59.86 | X-H torsion
[ 10167 10162 10161 10158 ] final   25.70 input  -65.29 | X-H torsion
[ 10718 10713 10712 10709 ] final  -34.57 input   66.30 | X-H torsion
[ 10763 10752 10751 10750 ] final  -66.48 input  -60.55 | X-H torsion
[ 11005 11000 10999 10996 ] final  -51.85 input  -57.11 | X-H torsion

> <Gold.Protein.ActiveResidues>
 VAL166  LYS551  ARG553  GLY616  TRP617  ASP618  TYR619  PRO620  LYS621  CYS622 
 ASP623  PHE694  ASN695  SER759  ASP760  ASP761  ALA762  ILE779  LEU786  VAL792 
 PHE793  MET794  SER795  GLU796  ALA797  LYS798  CYS799  TRP800  GLU811  SER814 

> <Gold.Protein.RotatedAtoms>
  151.4464  135.1025  159.9684 H   0  0  0  0  0  0  0  0  0  0  0  0  # atno 6907 bound_to 6896
  152.4904  133.8481  159.7198 H   0  0  0  0  0  0  0  0  0  0  0  0  # atno 6908 bound_to 6896
  150.9052  133.7008  159.2896 H   0  0  0  0  0  0  0  0  0  0  0  0  # atno 6909 bound_to 6896
  144.8877  139.5605  143.5813 H   0  0  0  0  0  0  0  0  0  0  0  0  # atno 7974 bound_to 7965
  154.8038  140.2856  155.5902 H   0  0  0  0  0  0  0  0  0  0  0  0  # atno 8008 bound_to 7997
  156.2980  140.2581  156.2842 H   0  0  0  0  0  0  0  0  0  0  0  0  # atno 8009 bound_to 7997
  154.9527  140.0379  157.2141 H   0  0  0  0  0  0  0  0  0  0  0  0  # atno 8010 bound_to 7997
  140.5084  144.0201  150.6362 H   0  0  0  0  0  0  0  0  0  0  0  0  # atno 10167 bound_to 10162
  156.3490  130.4305  149.7721 H   0  0  0  0  0  0  0  0  0  0  0  0  # atno 10718 bound_to 10713
  154.3604  135.6117  153.5688 H   0  0  0  0  0  0  0  0  0  0  0  0  # atno 10763 bound_to 10752
  152.9794  135.5814  154.4639 H   0  0  0  0  0  0  0  0  0  0  0  0  # atno 10764 bound_to 10752
  154.4376  135.2849  155.1847 H   0  0  0  0  0  0  0  0  0  0  0  0  # atno 10765 bound_to 10752
  141.0893  133.6636  156.3938 H   0  0  0  0  0  0  0  0  0  0  0  0  # atno 11005 bound_to 11000
  146.3034  139.7501  142.9074 LP  0  0  0  0  0  0  0  0  0  0  0  0  # atno 17320 bound_to 7965
  145.3840  141.0362  143.3161 LP  0  0  0  0  0  0  0  0  0  0  0  0  # atno 17321 bound_to 7965
  140.3516  143.2959  152.0480 LP  0  0  0  0  0  0  0  0  0  0  0  0  # atno 17342 bound_to 10162
  139.4889  144.6369  151.6957 LP  0  0  0  0  0  0  0  0  0  0  0  0  # atno 17343 bound_to 10162
  156.4929  130.8093  151.3102 LP  0  0  0  0  0  0  0  0  0  0  0  0  # atno 17370 bound_to 10713
  157.7458  130.9969  150.2799 LP  0  0  0  0  0  0  0  0  0  0  0  0  # atno 17371 bound_to 10713
  140.5289  134.6232  157.5343 LP  0  0  0  0  0  0  0  0  0  0  0  0  # atno 17394 bound_to 11000
  139.9716  134.7283  156.0030 LP  0  0  0  0  0  0  0  0  0  0  0  0  # atno 17395 bound_to 11000

$$$$
