AV-unprocessed.smi:1844|AV-procd|sdf|7511|dock3
  -GOLD-   22720 9213D 1   1.00000     0.00000
 Structure written by MMmdl.
 45 46  0  0  0  0  0  0  0  0  1 V2000
  148.0669  134.2111  154.3644 C   0  0  0  0  0  0  0  0  0  0  0  0
  148.9449  135.3547  154.5608 N   0  0  0  0  0  0  0  0  0  0  0  0
  148.5515  136.5405  155.0541 C   0  0  0  0  0  0  0  0  0  0  0  0
  147.3828  136.7480  155.3845 O   0  0  0  0  0  0  0  0  0  0  0  0
  149.6292  137.5280  155.1516 C   0  0  0  0  0  0  0  0  0  0  0  0
  151.0196  137.2230  154.8480 C   0  0  0  0  0  0  0  0  0  0  0  0
  151.9648  138.1800  154.9291 C   0  0  0  0  0  0  0  0  0  0  0  0
  151.6407  139.5542  155.3225 C   0  0  0  0  0  0  0  0  0  0  0  0
  152.4962  140.4379  155.3729 O   0  0  0  0  0  0  0  0  0  0  0  0
  150.3277  139.7923  155.6209 N   0  0  0  0  0  0  0  0  0  0  0  0
  149.8710  141.1372  156.0162 C   0  0  0  0  0  0  0  0  0  0  0  0
  150.4045  141.6214  157.3758 C   0  0  0  0  0  0  0  0  0  0  0  0
  149.7044  141.4815  158.3778 O   0  0  0  0  0  0  0  0  0  0  0  0
  151.6218  142.1898  157.4108 N   0  0  0  0  0  0  0  0  0  0  0  0
  152.2738  142.7520  158.5891 C   0  0  1  0  0  0  0  0  0  0  0  0
  151.5117  144.0064  159.0653 C   0  0  0  0  0  0  0  0  0  0  0  0
  152.1312  144.5925  160.3422 C   0  0  0  0  0  0  0  0  0  0  0  0
  152.2011  143.5384  161.4558 C   0  0  0  0  0  0  0  0  0  0  0  0
  152.9681  142.2921  160.9886 C   0  0  0  0  0  0  0  0  0  0  0  0
  152.3534  141.6864  159.7107 C   0  0  2  0  0  0  0  0  0  0  0  0
  153.1274  140.4274  159.2781 C   0  0  0  0  0  0  0  0  0  0  0  0
  149.3426  138.7896  155.5273 C   0  0  0  0  0  0  0  0  0  0  0  0
  148.6363  133.3689  153.9712 H   0  0  0  0  0  0  0  0  0  0  0  0
  147.2738  134.4482  153.6539 H   0  0  0  0  0  0  0  0  0  0  0  0
  147.6109  133.9040  155.3066 H   0  0  0  0  0  0  0  0  0  0  0  0
  149.9155  135.2397  154.3070 H   0  0  0  0  0  0  0  0  0  0  0  0
  151.3261  136.2303  154.5534 H   0  0  0  0  0  0  0  0  0  0  0  0
  152.9898  137.9295  154.6986 H   0  0  0  0  0  0  0  0  0  0  0  0
  150.1707  141.8633  155.2592 H   0  0  0  0  0  0  0  0  0  0  0  0
  148.7810  141.1882  156.0345 H   0  0  0  0  0  0  0  0  0  0  0  0
  152.1288  142.2622  156.5407 H   0  0  0  0  0  0  0  0  0  0  0  0
  153.2925  143.0419  158.3230 H   0  0  0  0  0  0  0  0  0  0  0  0
  151.5088  144.7661  158.2828 H   0  0  0  0  0  0  0  0  0  0  0  0
  150.4669  143.7544  159.2530 H   0  0  0  0  0  0  0  0  0  0  0  0
  153.1333  144.9639  160.1250 H   0  0  0  0  0  0  0  0  0  0  0  0
  151.5491  145.4512  160.6778 H   0  0  0  0  0  0  0  0  0  0  0  0
  152.6821  143.9612  162.3383 H   0  0  0  0  0  0  0  0  0  0  0  0
  151.1919  143.2569  161.7581 H   0  0  0  0  0  0  0  0  0  0  0  0
  154.0108  142.5557  160.8059 H   0  0  0  0  0  0  0  0  0  0  0  0
  152.9749  141.5500  161.7878 H   0  0  0  0  0  0  0  0  0  0  0  0
  151.3360  141.3742  159.9522 H   0  0  0  0  0  0  0  0  0  0  0  0
  154.1492  140.6728  158.9873 H   0  0  0  0  0  0  0  0  0  0  0  0
  152.6511  139.9291  158.4332 H   0  0  0  0  0  0  0  0  0  0  0  0
  153.1791  139.7022  160.0905 H   0  0  0  0  0  0  0  0  0  0  0  0
  148.3434  139.1270  155.7666 H   0  0  0  0  0  0  0  0  0  0  0  0
  1  2  1  0  0  0  0
  1 23  1  0  0  0  0
  1 24  1  0  0  0  0
  1 25  1  0  0  0  0
  2  3  1  0  0  0  0
  2 26  1  0  0  0  0
  3  4  2  0  0  0  0
  3  5  1  0  0  0  0
  5 22  2  0  0  0  0
  5  6  1  0  0  0  0
  6  7  2  0  0  0  0
  6 27  1  0  0  0  0
  7  8  1  0  0  0  0
  7 28  1  0  0  0  0
  8  9  2  0  0  0  0
  8 10  1  0  0  0  0
 10 11  1  0  0  0  0
 10 22  1  0  0  0  0
 11 12  1  0  0  0  0
 11 29  1  0  0  0  0
 11 30  1  0  0  0  0
 12 13  2  0  0  0  0
 12 14  1  0  0  0  0
 14 15  1  0  0  0  0
 14 31  1  0  0  0  0
 15 20  1  0  0  0  0
 15 16  1  0  0  0  0
 15 32  1  0  0  0  0
 16 17  1  0  0  0  0
 16 33  1  0  0  0  0
 16 34  1  0  0  0  0
 17 18  1  0  0  0  0
 17 35  1  0  0  0  0
 17 36  1  0  0  0  0
 18 19  1  0  0  0  0
 18 37  1  0  0  0  0
 18 38  1  0  0  0  0
 19 20  1  0  0  0  0
 19 39  1  0  0  0  0
 19 40  1  0  0  0  0
 20 21  1  0  0  0  0
 20 41  1  0  0  0  0
 21 42  1  0  0  0  0
 21 43  1  0  0  0  0
 21 44  1  0  0  0  0
 22 45  1  0  0  0  0
M  END
> <s_m_source_file>
AV-unprocessed.smi

> <i_m_source_file_index>
1844

> <i_lp_mmshare_version>
43012

> <i_f3d_flags>
0

> <s_epik_input>
W0NIM11bTkhdQyg9TyljMVtjSF1bY0hdYyg9TyluKFtjSF0xKVtDSDJdQyg9TylbTkhdW0NAQEhdMltDSDJdW0NIMl1bQ0gyXVtDSDJdW0NASF0yW0NIM10=

> <s_epik_cmdline>
J2VwaWtfcHl0aG9uJywgJy1waCcsICc3LjAnLCAnLXRuJywgJzgnLCAnLW1hJywgJzIwMCcsICctbWV0YWxfYmluZGluZycsICctaW1hZScsICc8aW5maWxlLm1hZT4nLCAnLW9tYWUnLCAnPG91dGZpbGUubWFlPic=

> <r_lp_tautomer_probability>
1

> <r_epik_Ionization_Penalty>
3.66612e-07

> <r_epik_Ionization_Penalty_Charging>
5.18929e-08

> <r_epik_Ionization_Penalty_Neutral>
3.14719e-07

> <r_epik_State_Penalty>
-0

> <r_epik_Charging_Adjusted_Penalty>
5.18929e-08

> <i_epik_Tot_Q>
0

> <i_epik_Tot_abs_Q>
0

> <r_epik_Metal_State_Penalty>
-0

> <b_epik_Metal_Only>
0

> <s_lp_Force_Field>
OPLS_2005

> <r_lp_Energy>
22.567

> <b_lp_Chiralities_Consistent>
1

> <s_lp_Variant>
AV-unprocessed.smi:1844-4

> <Gold.Version>
5.8.1

> <Gold.Id.Protein>
6NUR|6NUR_protein|mol2

> <Gold.PLP.Fitness>
40.6433

> <Gold.PLP.PLP>
-38.3266

> <Gold.PLP.part.hbond>
-3.0000

> <Gold.PLP.part.metal>
0.0000

> <Gold.PLP.part.buried>
0.9883

> <Gold.PLP.part.nonpolar>
-35.7731

> <Gold.PLP.part.repulsive>
0.1666

> <Gold.PLP.ligand.clash>
0.0000

> <Gold.PLP.ligand.torsion>
0.4235

> <Gold.PLP.Chemscore.Hbond>
1.0421

> <Gold.PLP.Chemscore.CHOScore>
0.0000

> <Gold.PLP.Chemscore.Metal>
0.0000

> <Gold.Chemscore.Hbonds>
donor molecule, donor type, donor heavy atom, donor atom, acceptor molecule, acceptor atom, score
      P1  H  7989  7998       L1     9  0.02
      P1  H  7997  8010       L1     9  1.00

> <Gold.PLP.Chemscore.Internal.Correction>
0.0373

> <Gold.Rescore>
     Score         DG    S(hbond)    S(metal)    S(lipo)     H(rot)  DE(clash)    DE(int)     intcor
     15.21     -16.55       1.00        0.00      98.77       1.49       0.09       1.25       ----

> <Gold.Chemscore.Fitness>
15.2064

> <Gold.Chemscore.DG>
-16.5453

> <Gold.Chemscore.ZeroCoef>
-5.4800

> <Gold.Chemscore.Hbond>
0.9969

> <Gold.Chemscore.Metal>
0.0000

> <Gold.Chemscore.Lipo>
98.7710

> <Gold.Chemscore.Internal_Hbond>
0.0000

> <Gold.Chemscore.DEClash>
0.0939

> <Gold.Chemscore.DEInternal>
1.2450

> <Gold.Chemscore.Rot>
1.4923

> <Gold.Chemscore.Internal.Correction>
   9.000000E+99

> <Gold.Chemscore.Hbonds>
donor molecule, donor type, donor heavy atom, donor atom, acceptor molecule, acceptor atom, score
      P1  H  7997  8010       L1     9  0.91

> <Gold.Chemscore.Hbond.Weighted>
-3.3295

> <Gold.Chemscore.Metal.Weighted>
-0.0000

> <Gold.Chemscore.Lipo.Weighted>
-11.5562

> <Gold.Chemscore.Internal_Hbond.Weighted>
0.0000

> <Gold.Chemscore.DEClash.Weighted>
0.0939

> <Gold.Chemscore.DEInternal.Weighted>
1.2450

> <Gold.Chemscore.Rot.Weighted>
3.8204

> <Gold.Chemscore.Internal.Correction.Weighted>
   9.000000E+99

> <Gold.Protein.RotatedTorsions>
[ 6907 6896 6895 6894 ] final  115.04 input  -60.11 | X-H torsion
[ 7974 7965 7964 7962 ] final  -99.82 input  175.53 | X-H torsion
[ 8008 7997 7996 7995 ] final   92.46 input   59.86 | X-H torsion
[ 10167 10162 10161 10158 ] final  -42.69 input  -65.29 | X-H torsion
[ 10718 10713 10712 10709 ] final -179.96 input   66.30 | X-H torsion
[ 10763 10752 10751 10750 ] final  123.26 input  -60.55 | X-H torsion
[ 11005 11000 10999 10996 ] final   77.90 input  -57.11 | X-H torsion

> <Gold.Protein.ActiveResidues>
 VAL166  LYS551  ARG553  GLY616  TRP617  ASP618  TYR619  PRO620  LYS621  CYS622 
 ASP623  PHE694  ASN695  SER759  ASP760  ASP761  ALA762  ILE779  LEU786  VAL792 
 PHE793  MET794  SER795  GLU796  ALA797  LYS798  CYS799  TRP800  GLU811  SER814 

> <Gold.Protein.RotatedAtoms>
  152.4766  133.8153  159.7024 H   0  0  0  0  0  0  0  0  0  0  0  0  # atno 6907 bound_to 6896
  150.8787  133.7393  159.2945 H   0  0  0  0  0  0  0  0  0  0  0  0  # atno 6908 bound_to 6896
  151.4904  135.1060  159.9854 H   0  0  0  0  0  0  0  0  0  0  0  0  # atno 6909 bound_to 6896
  145.3025  140.9381  143.2815 H   0  0  0  0  0  0  0  0  0  0  0  0  # atno 7974 bound_to 7965
  156.0356  140.3325  155.7187 H   0  0  0  0  0  0  0  0  0  0  0  0  # atno 8008 bound_to 7997
  155.5821  140.0638  157.2798 H   0  0  0  0  0  0  0  0  0  0  0  0  # atno 8009 bound_to 7997
  154.4371  140.1842  156.0975 H   0  0  0  0  0  0  0  0  0  0  0  0  # atno 8010 bound_to 7997
  140.6960  143.3024  151.3245 H   0  0  0  0  0  0  0  0  0  0  0  0  # atno 10167 bound_to 10162
  156.8669  130.9770  151.3077 H   0  0  0  0  0  0  0  0  0  0  0  0  # atno 10718 bound_to 10713
  153.6428  135.3376  155.3076 H   0  0  0  0  0  0  0  0  0  0  0  0  # atno 10763 bound_to 10752
  154.8555  135.4322  154.1987 H   0  0  0  0  0  0  0  0  0  0  0  0  # atno 10764 bound_to 10752
  153.2910  135.7017  153.7367 H   0  0  0  0  0  0  0  0  0  0  0  0  # atno 10765 bound_to 10752
  139.9235  134.7721  156.1581 H   0  0  0  0  0  0  0  0  0  0  0  0  # atno 11005 bound_to 11000
  144.9081  139.4563  143.6600 LP  0  0  0  0  0  0  0  0  0  0  0  0  # atno 17320 bound_to 7965
  146.3147  139.7874  142.8993 LP  0  0  0  0  0  0  0  0  0  0  0  0  # atno 17321 bound_to 7965
  139.6416  144.0528  152.2559 LP  0  0  0  0  0  0  0  0  0  0  0  0  # atno 17342 bound_to 10162
  140.0035  144.6276  150.7709 LP  0  0  0  0  0  0  0  0  0  0  0  0  # atno 17343 bound_to 10162
  157.6218  130.8661  149.9122 LP  0  0  0  0  0  0  0  0  0  0  0  0  # atno 17370 bound_to 10713
  156.0747  130.3680  150.0702 LP  0  0  0  0  0  0  0  0  0  0  0  0  # atno 17371 bound_to 10713
  141.0774  133.6769  156.2265 LP  0  0  0  0  0  0  0  0  0  0  0  0  # atno 17394 bound_to 11000
  140.6405  134.5171  157.5569 LP  0  0  0  0  0  0  0  0  0  0  0  0  # atno 17395 bound_to 11000

$$$$
