AV-unprocessed.smi:3330|AV-procd|sdf|12812|dock6
  -GOLD-   2272019183D 1   1.00000     0.00000
 Structure written by MMmdl.
 38 39  0  0  0  0  0  0  0  0  3 V2000
  149.4396  143.4922  158.6263 C   0  0  0  0  0  0  0  0  0  0  0  0
  150.8035  142.9077  158.2164 C   0  0  1  0  0  0  0  0  0  0  0  0
  150.9004  142.8547  156.7404 N   0  3  0  0  0  0  0  0  0  0  0  0
  150.6295  141.5383  156.1268 C   0  0  0  0  0  0  0  0  0  0  0  0
  151.7407  140.5231  156.4547 C   0  0  0  0  0  0  0  0  0  0  0  0
  151.5510  139.2385  155.7659 N   0  0  0  0  0  0  0  0  0  0  0  0
  150.4832  138.4471  155.9145 C   0  0  0  0  0  0  0  0  0  0  0  0
  149.4906  138.6424  156.6157 O   0  0  0  0  0  0  0  0  0  0  0  0
  150.6789  137.2435  155.0236 C   0  0  0  0  0  0  0  0  0  0  0  0
  151.9449  137.5335  154.3904 N   0  5  0  0  0  0  0  0  0  0  0  0
  152.4067  138.7111  154.8699 C   0  0  0  0  0  0  0  0  0  0  0  0
  153.4538  139.2748  154.5547 O   0  0  0  0  0  0  0  0  0  0  0  0
  152.0022  143.7145  158.7839 C   0  0  1  0  0  0  0  0  0  0  0  0
  151.6959  145.2125  158.9679 C   0  0  0  0  0  0  0  0  0  0  0  0
  152.4725  143.1518  160.0461 N   0  0  0  0  0  0  0  0  0  0  0  0
  153.0967  141.9402  160.2607 C   0  0  0  0  0  0  0  0  0  0  0  0
  153.3507  141.8429  161.5985 C   0  0  0  0  0  0  0  0  0  0  0  0
  152.8399  143.0590  162.1302 C   0  0  0  0  0  0  0  0  0  0  0  0
  152.3227  143.8432  161.1988 N   0  0  0  0  0  0  0  0  0  0  0  0
  149.2988  143.4670  159.7065 H   0  0  0  0  0  0  0  0  0  0  0  0
  148.6169  142.9249  158.1907 H   0  0  0  0  0  0  0  0  0  0  0  0
  149.3370  144.5275  158.2999 H   0  0  0  0  0  0  0  0  0  0  0  0
  150.8695  141.8895  158.6031 H   0  0  0  0  0  0  0  0  0  0  0  0
  150.2977  143.5552  156.3334 H   0  0  0  0  0  0  0  0  0  0  0  0
  149.6775  141.1608  156.5020 H   0  0  0  0  0  0  0  0  0  0  0  0
  150.5256  141.6445  155.0471 H   0  0  0  0  0  0  0  0  0  0  0  0
  152.7125  140.9403  156.1867 H   0  0  0  0  0  0  0  0  0  0  0  0
  151.7796  140.3670  157.5340 H   0  0  0  0  0  0  0  0  0  0  0  0
  150.6973  136.3350  155.6261 H   0  0  0  0  0  0  0  0  0  0  0  0
  149.8508  137.1634  154.3189 H   0  0  0  0  0  0  0  0  0  0  0  0
  152.8289  143.6330  158.0761 H   0  0  0  0  0  0  0  0  0  0  0  0
  151.4979  145.7045  158.0163 H   0  0  0  0  0  0  0  0  0  0  0  0
  152.5416  145.7292  159.4228 H   0  0  0  0  0  0  0  0  0  0  0  0
  150.8292  145.3670  159.6115 H   0  0  0  0  0  0  0  0  0  0  0  0
  153.3024  141.2523  159.4540 H   0  0  0  0  0  0  0  0  0  0  0  0
  153.8224  141.0238  162.1209 H   0  0  0  0  0  0  0  0  0  0  0  0
  152.8297  143.3928  163.1574 H   0  0  0  0  0  0  0  0  0  0  0  0
  151.8563  143.0820  156.5039 H   0  0  0  0  0  0  0  0  0  0  0  0
  1  2  1  0  0  0  0
  1 20  1  0  0  0  0
  1 21  1  0  0  0  0
  1 22  1  0  0  0  0
  2  3  1  0  0  0  0
  2 13  1  0  0  0  0
  2 23  1  0  0  0  0
  3  4  1  0  0  0  0
  3 24  1  0  0  0  0
  3 38  1  0  0  0  0
  4  5  1  0  0  0  0
  4 25  1  0  0  0  0
  4 26  1  0  0  0  0
  5  6  1  0  0  0  0
  5 27  1  0  0  0  0
  5 28  1  0  0  0  0
  6 11  1  0  0  0  0
  6  7  1  0  0  0  0
  7  8  2  0  0  0  0
  7  9  1  0  0  0  0
  9 10  1  0  0  0  0
  9 29  1  0  0  0  0
  9 30  1  0  0  0  0
 10 11  1  0  0  0  0
 11 12  2  0  0  0  0
 13 14  1  0  0  0  0
 13 15  1  0  0  0  0
 13 31  1  0  0  0  0
 14 32  1  0  0  0  0
 14 33  1  0  0  0  0
 14 34  1  0  0  0  0
 15 19  1  0  0  0  0
 15 16  1  0  0  0  0
 16 17  2  0  0  0  0
 16 35  1  0  0  0  0
 17 18  1  0  0  0  0
 17 36  1  0  0  0  0
 18 19  2  0  0  0  0
 18 37  1  0  0  0  0
M  CHG  1   3   1
M  CHG  1  10  -1
M  END
> <s_m_source_file>
AV-unprocessed.smi

> <i_m_source_file_index>
3330

> <i_lp_mmshare_version>
43012

> <i_f3d_flags>
0

> <s_epik_input>
bjFbY0hdW2NIXVtjSF1uMVtDQEBIXShbQ0gzXSlbQ0BIXShbQ0gzXSlbTkhdW0NIMl1bQ0gyXU4yQyg9TylbQ0gyXVtOSF1DMj1P

> <s_epik_cmdline>
J2VwaWtfcHl0aG9uJywgJy1waCcsICc3LjAnLCAnLXRuJywgJzgnLCAnLW1hJywgJzIwMCcsICctbWV0YWxfYmluZGluZycsICctaW1hZScsICc8aW5maWxlLm1hZT4nLCAnLW9tYWUnLCAnPG91dGZpbGUubWFlPic=

> <r_lp_tautomer_probability>
1

> <r_epik_Ionization_Penalty>
5.18149

> <r_epik_Ionization_Penalty_Charging>
5.18148

> <r_epik_Ionization_Penalty_Neutral>
9.83265e-06

> <r_epik_State_Penalty>
5.18201

> <r_epik_Charging_Adjusted_Penalty>
10.3635

> <i_epik_Tot_Q>
0

> <i_epik_Tot_abs_Q>
2

> <r_epik_Metal_State_Penalty>
1.25422

> <b_epik_Metal_Only>
1

> <s_lp_Force_Field>
OPLS_2005

> <r_lp_Energy>
19.5827

> <b_lp_Chiralities_Consistent>
1

> <s_lp_Variant>
AV-unprocessed.smi:3330-12

> <Gold.Version>
5.8.1

> <Gold.Id.Protein>
6NUR|6NUR_protein|mol2

> <Gold.PLP.Fitness>
56.6035

> <Gold.PLP.PLP>
-46.0206

> <Gold.PLP.part.hbond>
-3.2094

> <Gold.PLP.part.metal>
0.0000

> <Gold.PLP.part.buried>
-6.4287

> <Gold.PLP.part.nonpolar>
-36.6441

> <Gold.PLP.part.repulsive>
0.3083

> <Gold.PLP.ligand.clash>
0.0000

> <Gold.PLP.ligand.torsion>
1.7102

> <Gold.PLP.Chemscore.Hbond>
4.6320

> <Gold.PLP.Chemscore.CHOScore>
0.0000

> <Gold.PLP.Chemscore.Metal>
0.0000

> <Gold.Chemscore.Hbonds>
donor molecule, donor type, donor heavy atom, donor atom, acceptor molecule, acceptor atom, score
      L1  H     3    24       P1  8028  2.00
      P1  H  7997  8009       L1    12  1.00
      P1  H 10752 10765       L1    10  1.40

> <Gold.PLP.Chemscore.Internal.Correction>
0.1073

> <Gold.Rescore>
     Score         DG    S(hbond)    S(metal)    S(lipo)     H(rot)  DE(clash)    DE(int)     intcor
     17.20     -18.88       2.86        0.00      89.70       2.59       0.00       1.69       ----

> <Gold.Chemscore.Fitness>
17.1955

> <Gold.Chemscore.DG>
-18.8829

> <Gold.Chemscore.ZeroCoef>
-5.4800

> <Gold.Chemscore.Hbond>
2.8559

> <Gold.Chemscore.Metal>
0.0000

> <Gold.Chemscore.Lipo>
89.7018

> <Gold.Chemscore.Internal_Hbond>
0.0000

> <Gold.Chemscore.DEClash>
0.0000

> <Gold.Chemscore.DEInternal>
1.6874

> <Gold.Chemscore.Rot>
2.5903

> <Gold.Chemscore.Internal.Correction>
   9.000000E+99

> <Gold.Chemscore.Hbonds>
donor molecule, donor type, donor heavy atom, donor atom, acceptor molecule, acceptor atom, score
      L1  H     3    24       P1  8028  0.99
      P1  H  7997  8009       L1    12  1.00
      P1  H 10752 10765       L1    10  0.30

> <Gold.Chemscore.Hbond.Weighted>
-9.5388

> <Gold.Chemscore.Metal.Weighted>
-0.0000

> <Gold.Chemscore.Lipo.Weighted>
-10.4951

> <Gold.Chemscore.Internal_Hbond.Weighted>
0.0000

> <Gold.Chemscore.DEClash.Weighted>
0.0000

> <Gold.Chemscore.DEInternal.Weighted>
1.6874

> <Gold.Chemscore.Rot.Weighted>
6.6311

> <Gold.Chemscore.Internal.Correction.Weighted>
   9.000000E+99

> <Gold.Protein.RotatedTorsions>
[ 6907 6896 6895 6894 ] final  -58.31 input  -60.11 | X-H torsion
[ 7974 7965 7964 7962 ] final   79.56 input  175.53 | X-H torsion
[ 8008 7997 7996 7995 ] final -125.89 input   59.86 | X-H torsion
[ 10167 10162 10161 10158 ] final  -21.29 input  -65.29 | X-H torsion
[ 10718 10713 10712 10709 ] final -150.47 input   66.30 | X-H torsion
[ 10763 10752 10751 10750 ] final  166.17 input  -60.55 | X-H torsion
[ 11005 11000 10999 10996 ] final -103.56 input  -57.11 | X-H torsion

> <Gold.Protein.ActiveResidues>
 VAL166  LYS551  ARG553  GLY616  TRP617  ASP618  TYR619  PRO620  LYS621  CYS622 
 ASP623  PHE694  ASN695  SER759  ASP760  ASP761  ALA762  ILE779  LEU786  VAL792 
 PHE793  MET794  SER795  GLU796  ALA797  LYS798  CYS799  TRP800  GLU811  SER814 

> <Gold.Protein.RotatedAtoms>
  150.8017  134.7115  159.6606 H   0  0  0  0  0  0  0  0  0  0  0  0  # atno 6907 bound_to 6896
  152.4134  134.6081  160.0028 H   0  0  0  0  0  0  0  0  0  0  0  0  # atno 6908 bound_to 6896
  151.6317  133.3294  159.3146 H   0  0  0  0  0  0  0  0  0  0  0  0  # atno 6909 bound_to 6896
  145.6626  139.2475  143.1914 H   0  0  0  0  0  0  0  0  0  0  0  0  # atno 7974 bound_to 7965
  155.2207  140.0422  157.2948 H   0  0  0  0  0  0  0  0  0  0  0  0  # atno 8008 bound_to 7997
  154.5951  140.2437  155.7838 H   0  0  0  0  0  0  0  0  0  0  0  0  # atno 8009 bound_to 7997
  156.2285  140.2946  156.0136 H   0  0  0  0  0  0  0  0  0  0  0  0  # atno 8010 bound_to 7997
  140.7281  143.4642  151.0337 H   0  0  0  0  0  0  0  0  0  0  0  0  # atno 10167 bound_to 10162
  156.4466  130.8147  151.2378 H   0  0  0  0  0  0  0  0  0  0  0  0  # atno 10718 bound_to 10713
  154.3350  135.2754  155.2452 H   0  0  0  0  0  0  0  0  0  0  0  0  # atno 10763 bound_to 10752
  154.4748  135.5874  153.6350 H   0  0  0  0  0  0  0  0  0  0  0  0  # atno 10764 bound_to 10752
  152.9863  135.6097  154.3546 H   0  0  0  0  0  0  0  0  0  0  0  0  # atno 10765 bound_to 10752
  141.1140  133.8650  157.1501 H   0  0  0  0  0  0  0  0  0  0  0  0  # atno 11005 bound_to 11000
  146.1112  140.7425  142.9502 LP  0  0  0  0  0  0  0  0  0  0  0  0  # atno 17320 bound_to 7965
  144.7084  140.3943  143.7100 LP  0  0  0  0  0  0  0  0  0  0  0  0  # atno 17321 bound_to 7965
  139.8329  143.7667  152.3180 LP  0  0  0  0  0  0  0  0  0  0  0  0  # atno 17342 bound_to 10162
  139.7789  144.7451  151.0117 LP  0  0  0  0  0  0  0  0  0  0  0  0  # atno 17343 bound_to 10162
  157.7504  131.0151  150.3492 LP  0  0  0  0  0  0  0  0  0  0  0  0  # atno 17370 bound_to 10713
  156.3861  130.3889  149.7065 LP  0  0  0  0  0  0  0  0  0  0  0  0  # atno 17371 bound_to 10713
  140.0051  135.0012  157.0274 LP  0  0  0  0  0  0  0  0  0  0  0  0  # atno 17394 bound_to 11000
  140.4697  134.1399  155.7201 LP  0  0  0  0  0  0  0  0  0  0  0  0  # atno 17395 bound_to 11000

$$$$
