AV-unprocessed.smi:3148|AV-procd|sdf|11995|dock2
  -GOLD-   2272017403D 1   1.00000     0.00000
 Structure written by MMmdl.
 35 37  0  0  0  0  0  0  0  0  2 V2000
  153.9752  141.2636  160.6523 C   0  0  0  0  0  0  0  0  0  0  0  0
  152.9735  140.9060  159.7060 O   0  0  0  0  0  0  0  0  0  0  0  0
  152.2556  141.9166  159.1005 C   0  0  0  0  0  0  0  0  0  0  0  0
  152.4647  143.2482  159.4955 C   0  0  0  0  0  0  0  0  0  0  0  0
  151.7052  144.2371  158.8410 C   0  0  0  0  0  0  0  0  0  0  0  0
  151.8434  145.7078  159.1713 C   0  0  0  0  0  0  0  0  0  0  0  0
  150.8179  143.8860  157.8770 N   0  3  0  0  0  0  0  0  0  0  0  0
  150.6660  142.5955  157.5446 C   0  0  0  0  0  0  0  0  0  0  0  0
  149.7544  142.2935  156.5491 N   0  0  0  0  0  0  0  0  0  0  0  0
  149.4780  140.9422  156.0781 C   0  0  2  0  0  0  0  0  0  0  0  0
  150.7381  140.2008  155.6130 C   0  0  0  0  0  0  0  0  0  0  0  0
  150.3682  139.8217  154.1737 C   0  0  1  0  0  0  0  0  0  0  0  0
  149.2686  138.7524  154.1188 C   0  0  0  0  0  0  0  0  0  0  0  0
  148.0333  139.5530  154.5302 C   0  0  0  0  0  0  0  0  0  0  0  0
  148.6301  140.9420  154.7956 C   0  0  2  0  0  0  0  0  0  0  0  0
  149.6351  140.9730  153.7949 O   0  0  0  0  0  0  0  0  0  0  0  0
  151.3603  141.6112  158.1326 N   0  0  0  0  0  0  0  0  0  0  0  0
  154.4420  140.3595  161.0427 H   0  0  0  0  0  0  0  0  0  0  0  0
  153.5505  141.8076  161.4974 H   0  0  0  0  0  0  0  0  0  0  0  0
  154.7590  141.8692  160.1948 H   0  0  0  0  0  0  0  0  0  0  0  0
  153.1794  143.4974  160.2665 H   0  0  0  0  0  0  0  0  0  0  0  0
  152.4987  145.8589  160.0295 H   0  0  0  0  0  0  0  0  0  0  0  0
  150.8700  146.1390  159.4072 H   0  0  0  0  0  0  0  0  0  0  0  0
  152.2630  146.2477  158.3220 H   0  0  0  0  0  0  0  0  0  0  0  0
  149.3667  143.0639  156.0243 H   0  0  0  0  0  0  0  0  0  0  0  0
  148.9613  140.3930  156.8664 H   0  0  0  0  0  0  0  0  0  0  0  0
  151.6146  140.8508  155.6159 H   0  0  0  0  0  0  0  0  0  0  0  0
  150.9637  139.3294  156.2285 H   0  0  0  0  0  0  0  0  0  0  0  0
  151.2277  139.6072  153.5381 H   0  0  0  0  0  0  0  0  0  0  0  0
  149.1525  138.3637  153.1065 H   0  0  0  0  0  0  0  0  0  0  0  0
  149.4732  137.9145  154.7859 H   0  0  0  0  0  0  0  0  0  0  0  0
  147.3139  139.5919  153.7113 H   0  0  0  0  0  0  0  0  0  0  0  0
  147.5311  139.1390  155.4051 H   0  0  0  0  0  0  0  0  0  0  0  0
  147.8990  141.7490  154.7331 H   0  0  0  0  0  0  0  0  0  0  0  0
  150.2757  144.6121  157.4084 H   0  0  0  0  0  0  0  0  0  0  0  0
  1  2  1  0  0  0  0
  1 18  1  0  0  0  0
  1 19  1  0  0  0  0
  1 20  1  0  0  0  0
  2  3  1  0  0  0  0
  3 17  1  0  0  0  0
  3  4  2  0  0  0  0
  4  5  1  0  0  0  0
  4 21  1  0  0  0  0
  5  6  1  0  0  0  0
  5  7  2  0  0  0  0
  6 22  1  0  0  0  0
  6 23  1  0  0  0  0
  6 24  1  0  0  0  0
  7  8  1  0  0  0  0
  7 35  1  0  0  0  0
  8  9  1  0  0  0  0
  8 17  2  0  0  0  0
  9 10  1  0  0  0  0
  9 25  1  0  0  0  0
 10 15  1  0  0  0  0
 10 11  1  0  0  0  0
 10 26  1  0  0  0  0
 11 12  1  0  0  0  0
 11 27  1  0  0  0  0
 11 28  1  0  0  0  0
 12 16  1  0  0  0  0
 12 13  1  0  0  0  0
 12 29  1  0  0  0  0
 13 14  1  0  0  0  0
 13 30  1  0  0  0  0
 13 31  1  0  0  0  0
 14 15  1  0  0  0  0
 14 32  1  0  0  0  0
 14 33  1  0  0  0  0
 15 16  1  0  0  0  0
 15 34  1  0  0  0  0
M  CHG  1   7   1
M  END
> <s_m_source_file>
AV-unprocessed.smi

> <i_m_source_file_index>
3148

> <i_lp_mmshare_version>
43012

> <i_f3d_flags>
0

> <s_epik_input>
W0NIM11PYzFbY0hdYyhbQ0gzXSluYyhuMSlbTkhdW0NASF0oW0NIMl1bQ0BASF0yMylbQ0BASF0oTzMpW0NIMl1bQ0gyXTI=

> <s_epik_cmdline>
J2VwaWtfcHl0aG9uJywgJy1waCcsICc3LjAnLCAnLXRuJywgJzgnLCAnLW1hJywgJzIwMCcsICctbWV0YWxfYmluZGluZycsICctaW1hZScsICc8aW5maWxlLm1hZT4nLCAnLW9tYWUnLCAnPG91dGZpbGUubWFlPic=

> <r_lp_tautomer_probability>
0.999985

> <r_epik_Ionization_Penalty>
1.09461

> <r_epik_Ionization_Penalty_Charging>
1.0946

> <r_epik_Ionization_Penalty_Neutral>
6.69406e-06

> <r_epik_State_Penalty>
1.15119

> <r_epik_Charging_Adjusted_Penalty>
2.24579

> <i_epik_Tot_Q>
1

> <i_epik_Tot_abs_Q>
1

> <r_epik_Metal_State_Penalty>
1.2392

> <b_epik_Metal_Only>
0

> <s_lp_Force_Field>
OPLS_2005

> <r_lp_Energy>
35.8621

> <b_lp_Chiralities_Consistent>
1

> <s_lp_Variant>
AV-unprocessed.smi:3148-5

> <Gold.Version>
5.8.1

> <Gold.Id.Protein>
6NUR|6NUR_protein|mol2

> <Gold.PLP.Fitness>
43.2272

> <Gold.PLP.PLP>
-31.9037

> <Gold.PLP.part.hbond>
-3.9866

> <Gold.PLP.part.metal>
0.0000

> <Gold.PLP.part.buried>
1.7956

> <Gold.PLP.part.nonpolar>
-30.9125

> <Gold.PLP.part.repulsive>
2.4382

> <Gold.PLP.ligand.clash>
0.0300

> <Gold.PLP.ligand.torsion>
0.0848

> <Gold.PLP.Chemscore.Hbond>
3.8346

> <Gold.PLP.Chemscore.CHOScore>
0.0000

> <Gold.PLP.Chemscore.Metal>
0.0000

> <Gold.Chemscore.Hbonds>
donor molecule, donor type, donor heavy atom, donor atom, acceptor molecule, acceptor atom, score
      L1  H     7    35       P1  8028  0.88
      L1  H     9    25       P1  8028  2.00
      P1  H  8011  8017       L1    16  0.89

> <Gold.PLP.Chemscore.Internal.Correction>
0.0195

> <Gold.Rescore>
     Score         DG    S(hbond)    S(metal)    S(lipo)     H(rot)  DE(clash)    DE(int)     intcor
     15.49     -18.26       1.80        0.00      85.00       1.24       2.05       0.72       ----

> <Gold.Chemscore.Fitness>
15.4938

> <Gold.Chemscore.DG>
-18.2639

> <Gold.Chemscore.ZeroCoef>
-5.4800

> <Gold.Chemscore.Hbond>
1.7985

> <Gold.Chemscore.Metal>
0.0000

> <Gold.Chemscore.Lipo>
84.9990

> <Gold.Chemscore.Internal_Hbond>
0.0000

> <Gold.Chemscore.DEClash>
2.0526

> <Gold.Chemscore.DEInternal>
0.7175

> <Gold.Chemscore.Rot>
1.2376

> <Gold.Chemscore.Internal.Correction>
   9.000000E+99

> <Gold.Chemscore.Hbonds>
donor molecule, donor type, donor heavy atom, donor atom, acceptor molecule, acceptor atom, score
      L1  H     7    35       P1  8028  0.15
      L1  H     9    25       P1  8028  0.99
      P1  H  8011  8017       L1    16  0.81

> <Gold.Chemscore.Hbond.Weighted>
-6.0072

> <Gold.Chemscore.Metal.Weighted>
-0.0000

> <Gold.Chemscore.Lipo.Weighted>
-9.9449

> <Gold.Chemscore.Internal_Hbond.Weighted>
0.0000

> <Gold.Chemscore.DEClash.Weighted>
2.0526

> <Gold.Chemscore.DEInternal.Weighted>
0.7175

> <Gold.Chemscore.Rot.Weighted>
3.1681

> <Gold.Chemscore.Internal.Correction.Weighted>
   9.000000E+99

> <Gold.Protein.RotatedTorsions>
[ 6907 6896 6895 6894 ] final   70.12 input  -60.11 | X-H torsion
[ 7974 7965 7964 7962 ] final  141.96 input  175.53 | X-H torsion
[ 8008 7997 7996 7995 ] final   -3.29 input   59.86 | X-H torsion
[ 10167 10162 10161 10158 ] final   15.89 input  -65.29 | X-H torsion
[ 10718 10713 10712 10709 ] final   12.67 input   66.30 | X-H torsion
[ 10763 10752 10751 10750 ] final  -75.29 input  -60.55 | X-H torsion
[ 11005 11000 10999 10996 ] final   59.92 input  -57.11 | X-H torsion

> <Gold.Protein.ActiveResidues>
 VAL166  LYS551  ARG553  GLY616  TRP617  ASP618  TYR619  PRO620  LYS621  CYS622 
 ASP623  PHE694  ASN695  SER759  ASP760  ASP761  ALA762  ILE779  LEU786  VAL792 
 PHE793  MET794  SER795  GLU796  ALA797  LYS798  CYS799  TRP800  GLU811  SER814 

> <Gold.Protein.RotatedAtoms>
  152.4729  134.4915  159.9696 H   0  0  0  0  0  0  0  0  0  0  0  0  # atno 6907 bound_to 6896
  151.4937  133.3513  159.2865 H   0  0  0  0  0  0  0  0  0  0  0  0  # atno 6908 bound_to 6896
  150.8750  134.8159  159.7245 H   0  0  0  0  0  0  0  0  0  0  0  0  # atno 6909 bound_to 6896
  144.9050  139.5370  143.5736 H   0  0  0  0  0  0  0  0  0  0  0  0  # atno 7974 bound_to 7965
  154.6265  140.2513  155.7485 H   0  0  0  0  0  0  0  0  0  0  0  0  # atno 8008 bound_to 7997
  156.2456  140.2916  156.0517 H   0  0  0  0  0  0  0  0  0  0  0  0  # atno 8009 bound_to 7997
  155.1812  140.0389  157.2873 H   0  0  0  0  0  0  0  0  0  0  0  0  # atno 8010 bound_to 7997
  140.5836  143.8934  150.6810 H   0  0  0  0  0  0  0  0  0  0  0  0  # atno 10167 bound_to 10162
  157.0134  130.6126  149.5711 H   0  0  0  0  0  0  0  0  0  0  0  0  # atno 10718 bound_to 10713
  154.4846  135.5836  153.6414 H   0  0  0  0  0  0  0  0  0  0  0  0  # atno 10763 bound_to 10752
  152.9853  135.6098  154.3202 H   0  0  0  0  0  0  0  0  0  0  0  0  # atno 10764 bound_to 10752
  154.3097  135.2845  155.2551 H   0  0  0  0  0  0  0  0  0  0  0  0  # atno 10765 bound_to 10752
  140.0269  134.6070  155.9561 H   0  0  0  0  0  0  0  0  0  0  0  0  # atno 11005 bound_to 11000
  146.3129  139.7811  142.9006 LP  0  0  0  0  0  0  0  0  0  0  0  0  # atno 17320 bound_to 7965
  145.3551  141.0315  143.3316 LP  0  0  0  0  0  0  0  0  0  0  0  0  # atno 17321 bound_to 7965
  140.2439  143.3643  152.1463 LP  0  0  0  0  0  0  0  0  0  0  0  0  # atno 17342 bound_to 10162
  139.5184  144.7005  151.5506 LP  0  0  0  0  0  0  0  0  0  0  0  0  # atno 17343 bound_to 10162
  156.0128  130.5220  150.8041 LP  0  0  0  0  0  0  0  0  0  0  0  0  # atno 17370 bound_to 10713
  157.5303  131.0936  150.9963 LP  0  0  0  0  0  0  0  0  0  0  0  0  # atno 17371 bound_to 10713
  141.1808  133.6546  156.5012 LP  0  0  0  0  0  0  0  0  0  0  0  0  # atno 17394 bound_to 11000
  140.4292  134.7117  157.4932 LP  0  0  0  0  0  0  0  0  0  0  0  0  # atno 17395 bound_to 11000

$$$$
