AV-unprocessed.smi:1277|AV-procd|sdf|5346|dock2
  -GOLD-   22720 4483D 1   1.00000     0.00000
 Structure written by MMmdl.
 43 44  0  0  0  0  0  0  0  0  1 V2000
  145.1252  135.5694  150.7803 C   0  0  0  0  0  0  0  0  0  0  0  0
  145.5808  136.1258  152.0010 O   0  0  0  0  0  0  0  0  0  0  0  0
  145.7103  137.5362  151.9392 C   0  0  0  0  0  0  0  0  0  0  0  0
  146.3341  138.0385  153.2438 C   0  0  0  0  0  0  0  0  0  0  0  0
  146.3238  139.4628  153.2359 O   0  0  0  0  0  0  0  0  0  0  0  0
  147.2380  140.1329  154.0227 C   0  0  0  0  0  0  0  0  0  0  0  0
  147.8771  139.4279  155.0619 C   0  0  0  0  0  0  0  0  0  0  0  0
  148.8100  140.1042  155.8712 C   0  0  0  0  0  0  0  0  0  0  0  0
  149.0689  141.4719  155.6179 C   0  0  0  0  0  0  0  0  0  0  0  0
  150.0059  142.2510  156.3471 N   0  0  0  0  0  0  0  0  0  0  0  0
  150.8024  141.8633  157.3594 C   0  0  0  0  0  0  0  0  0  0  0  0
  150.7830  140.7430  157.8708 O   0  0  0  0  0  0  0  0  0  0  0  0
  151.7395  142.9506  157.9215 C   0  0  1  0  0  0  0  0  0  0  0  0
  150.9246  144.1912  158.3199 C   0  0  0  0  0  0  0  0  0  0  0  0
  151.7096  144.8214  159.4543 C   0  0  0  0  0  0  0  0  0  0  0  0
  152.4191  143.6511  160.1342 C   0  0  0  0  0  0  0  0  0  0  0  0
  152.4849  142.5760  159.1402 N   0  0  0  0  0  0  0  0  0  0  0  0
  153.1960  141.4364  159.3224 C   0  0  0  0  0  0  0  0  0  0  0  0
  153.8747  141.2051  160.6747 C   0  0  0  0  0  0  0  0  0  0  0  0
  153.3333  140.5828  158.4461 O   0  0  0  0  0  0  0  0  0  0  0  0
  148.3891  142.0817  154.5437 C   0  0  0  0  0  0  0  0  0  0  0  0
  147.4921  141.4402  153.7659 N   0  0  0  0  0  0  0  0  0  0  0  0
  152.4779  143.2268  157.1662 H   0  0  0  0  0  0  0  0  0  0  0  0
  145.0451  134.4869  150.8786 H   0  0  0  0  0  0  0  0  0  0  0  0
  145.8192  135.7827  149.9663 H   0  0  0  0  0  0  0  0  0  0  0  0
  144.1413  135.9571  150.5132 H   0  0  0  0  0  0  0  0  0  0  0  0
  146.3402  137.8167  151.0936 H   0  0  0  0  0  0  0  0  0  0  0  0
  144.7326  137.9974  151.7912 H   0  0  0  0  0  0  0  0  0  0  0  0
  145.7656  137.6571  154.0937 H   0  0  0  0  0  0  0  0  0  0  0  0
  147.3575  137.6685  153.3268 H   0  0  0  0  0  0  0  0  0  0  0  0
  147.6595  138.3838  155.2330 H   0  0  0  0  0  0  0  0  0  0  0  0
  149.3172  139.5616  156.6542 H   0  0  0  0  0  0  0  0  0  0  0  0
  150.0410  143.2304  156.1041 H   0  0  0  0  0  0  0  0  0  0  0  0
  150.7775  144.8786  157.4861 H   0  0  0  0  0  0  0  0  0  0  0  0
  149.9372  143.9114  158.6920 H   0  0  0  0  0  0  0  0  0  0  0  0
  152.4540  145.5015  159.0382 H   0  0  0  0  0  0  0  0  0  0  0  0
  151.0836  145.3941  160.1390 H   0  0  0  0  0  0  0  0  0  0  0  0
  153.4065  143.9507  160.4883 H   0  0  0  0  0  0  0  0  0  0  0  0
  151.8385  143.3080  160.9915 H   0  0  0  0  0  0  0  0  0  0  0  0
  153.1522  141.2694  161.4886 H   0  0  0  0  0  0  0  0  0  0  0  0
  154.6613  141.9406  160.8432 H   0  0  0  0  0  0  0  0  0  0  0  0
  154.3300  140.2151  160.7111 H   0  0  0  0  0  0  0  0  0  0  0  0
  148.5653  143.1199  154.3022 H   0  0  0  0  0  0  0  0  0  0  0  0
  1  2  1  0  0  0  0
  1 24  1  0  0  0  0
  1 25  1  0  0  0  0
  1 26  1  0  0  0  0
  2  3  1  0  0  0  0
  3  4  1  0  0  0  0
  3 27  1  0  0  0  0
  3 28  1  0  0  0  0
  4  5  1  0  0  0  0
  4 29  1  0  0  0  0
  4 30  1  0  0  0  0
  5  6  1  0  0  0  0
  6 22  1  0  0  0  0
  6  7  2  0  0  0  0
  7  8  1  0  0  0  0
  7 31  1  0  0  0  0
  8  9  2  0  0  0  0
  8 32  1  0  0  0  0
  9 10  1  0  0  0  0
  9 21  1  0  0  0  0
 10 11  1  0  0  0  0
 10 33  1  0  0  0  0
 11 12  2  0  0  0  0
 11 13  1  0  0  0  0
 13 23  1  0  0  0  0
 13 17  1  0  0  0  0
 13 14  1  0  0  0  0
 14 15  1  0  0  0  0
 14 34  1  0  0  0  0
 14 35  1  0  0  0  0
 15 16  1  0  0  0  0
 15 36  1  0  0  0  0
 15 37  1  0  0  0  0
 16 17  1  0  0  0  0
 16 38  1  0  0  0  0
 16 39  1  0  0  0  0
 17 18  1  0  0  0  0
 18 19  1  0  0  0  0
 18 20  2  0  0  0  0
 19 40  1  0  0  0  0
 19 41  1  0  0  0  0
 19 42  1  0  0  0  0
 21 22  2  0  0  0  0
 21 43  1  0  0  0  0
M  END
> <s_m_source_file>
AV-unprocessed.smi

> <i_m_source_file_index>
1277

> <i_lp_mmshare_version>
43012

> <i_f3d_flags>
0

> <s_epik_input>
W0NIM11PW0NIMl1bQ0gyXU9jMVtjSF1bY0hdYyhbY0hdbjEpW05IXUMoPU8pW0NAQEhdMltDSDJdW0NIMl1bQ0gyXU4yQyg9TylbQ0gzXQ==

> <s_epik_cmdline>
J2VwaWtfcHl0aG9uJywgJy1waCcsICc3LjAnLCAnLXRuJywgJzgnLCAnLW1hJywgJzIwMCcsICctbWV0YWxfYmluZGluZycsICctaW1hZScsICc8aW5maWxlLm1hZT4nLCAnLW9tYWUnLCAnPG91dGZpbGUubWFlPic=

> <r_lp_tautomer_probability>
1

> <r_epik_Ionization_Penalty>
1.62854e-05

> <r_epik_Ionization_Penalty_Charging>
0

> <r_epik_Ionization_Penalty_Neutral>
1.62854e-05

> <r_epik_State_Penalty>
-0

> <r_epik_Charging_Adjusted_Penalty>
0

> <i_epik_Tot_Q>
0

> <i_epik_Tot_abs_Q>
0

> <r_epik_Metal_State_Penalty>
-0

> <b_epik_Metal_Only>
0

> <s_lp_Force_Field>
OPLS_2005

> <r_lp_Energy>
20.2537

> <b_lp_Chiralities_Consistent>
1

> <s_lp_Variant>
AV-unprocessed.smi:1277-2

> <Gold.Version>
5.8.1

> <Gold.Id.Protein>
6NUR|6NUR_protein|mol2

> <Gold.PLP.Fitness>
45.2003

> <Gold.PLP.PLP>
-38.5134

> <Gold.PLP.part.hbond>
-2.0000

> <Gold.PLP.part.metal>
0.0000

> <Gold.PLP.part.buried>
-1.8401

> <Gold.PLP.part.nonpolar>
-35.7364

> <Gold.PLP.part.repulsive>
0.6568

> <Gold.PLP.ligand.clash>
0.0000

> <Gold.PLP.ligand.torsion>
0.4573

> <Gold.PLP.Chemscore.Hbond>
1.5226

> <Gold.PLP.Chemscore.CHOScore>
0.9691

> <Gold.PLP.Chemscore.Metal>
0.0000

> <Gold.Chemscore.Hbonds>
donor molecule, donor type, donor heavy atom, donor atom, acceptor molecule, acceptor atom, score
      L1  H    10    33       P1  8028  0.83
      P1  H  7997  8009       L1    20  0.74
      L1  C    21    43       P1  8028  0.97

> <Gold.PLP.Chemscore.Internal.Correction>
0.1266

> <Gold.Rescore>
     Score         DG    S(hbond)    S(metal)    S(lipo)     H(rot)  DE(clash)    DE(int)     intcor
      8.75     -16.44       1.43        0.00      94.07       1.89       2.14       5.55       ----

> <Gold.Chemscore.Fitness>
8.7549

> <Gold.Chemscore.DG>
-16.4445

> <Gold.Chemscore.ZeroCoef>
-5.4800

> <Gold.Chemscore.Hbond>
1.4349

> <Gold.Chemscore.Metal>
0.0000

> <Gold.Chemscore.Lipo>
94.0705

> <Gold.Chemscore.Internal_Hbond>
0.0000

> <Gold.Chemscore.DEClash>
2.1446

> <Gold.Chemscore.DEInternal>
5.5450

> <Gold.Chemscore.Rot>
1.8884

> <Gold.Chemscore.Internal.Correction>
   9.000000E+99

> <Gold.Chemscore.Hbonds>
donor molecule, donor type, donor heavy atom, donor atom, acceptor molecule, acceptor atom, score
      L1  H    10    33       P1  8028  0.83
      P1  H  7997  8009       L1    20  0.73

> <Gold.Chemscore.Hbond.Weighted>
-4.7925

> <Gold.Chemscore.Metal.Weighted>
-0.0000

> <Gold.Chemscore.Lipo.Weighted>
-11.0062

> <Gold.Chemscore.Internal_Hbond.Weighted>
0.0000

> <Gold.Chemscore.DEClash.Weighted>
2.1446

> <Gold.Chemscore.DEInternal.Weighted>
5.5450

> <Gold.Chemscore.Rot.Weighted>
4.8342

> <Gold.Chemscore.Internal.Correction.Weighted>
   9.000000E+99

> <Gold.Protein.RotatedTorsions>
[ 6907 6896 6895 6894 ] final  -21.15 input  -60.11 | X-H torsion
[ 7974 7965 7964 7962 ] final -159.26 input  175.53 | X-H torsion
[ 8008 7997 7996 7995 ] final  149.72 input   59.86 | X-H torsion
[ 10167 10162 10161 10158 ] final  166.10 input  -65.29 | X-H torsion
[ 10718 10713 10712 10709 ] final   38.06 input   66.30 | X-H torsion
[ 10763 10752 10751 10750 ] final -108.10 input  -60.55 | X-H torsion
[ 11005 11000 10999 10996 ] final -175.45 input  -57.11 | X-H torsion

> <Gold.Protein.ActiveResidues>
 VAL166  LYS551  ARG553  GLY616  TRP617  ASP618  TYR619  PRO620  LYS621  CYS622 
 ASP623  PHE694  ASN695  SER759  ASP760  ASP761  ALA762  ILE779  LEU786  VAL792 
 PHE793  MET794  SER795  GLU796  ALA797  LYS798  CYS799  TRP800  GLU811  SER814 

> <Gold.Protein.RotatedAtoms>
  151.2375  135.0577  159.9011 H   0  0  0  0  0  0  0  0  0  0  0  0  # atno 6907 bound_to 6896
  152.5397  134.0470  159.8103 H   0  0  0  0  0  0  0  0  0  0  0  0  # atno 6908 bound_to 6896
  151.0659  133.5457  159.2662 H   0  0  0  0  0  0  0  0  0  0  0  0  # atno 6909 bound_to 6896
  144.7472  140.3710  143.6076 H   0  0  0  0  0  0  0  0  0  0  0  0  # atno 7974 bound_to 7965
  156.2744  140.2094  156.5903 H   0  0  0  0  0  0  0  0  0  0  0  0  # atno 8008 bound_to 7997
  154.6988  140.0523  157.0460 H   0  0  0  0  0  0  0  0  0  0  0  0  # atno 8009 bound_to 7997
  155.0764  140.3182  155.4617 H   0  0  0  0  0  0  0  0  0  0  0  0  # atno 8010 bound_to 7997
  139.4918  144.4062  151.9352 H   0  0  0  0  0  0  0  0  0  0  0  0  # atno 10167 bound_to 10162
  157.3543  130.7615  149.7001 H   0  0  0  0  0  0  0  0  0  0  0  0  # atno 10718 bound_to 10713
  154.8115  135.4650  154.0529 H   0  0  0  0  0  0  0  0  0  0  0  0  # atno 10763 bound_to 10752
  153.1956  135.6861  153.8303 H   0  0  0  0  0  0  0  0  0  0  0  0  # atno 10764 bound_to 10752
  153.7805  135.3257  155.3342 H   0  0  0  0  0  0  0  0  0  0  0  0  # atno 10765 bound_to 10752
  140.4631  134.6236  157.4851 H   0  0  0  0  0  0  0  0  0  0  0  0  # atno 11005 bound_to 11000
  145.7077  139.1677  143.2556 LP  0  0  0  0  0  0  0  0  0  0  0  0  # atno 17320 bound_to 7965
  146.1369  140.7110  142.9385 LP  0  0  0  0  0  0  0  0  0  0  0  0  # atno 17321 bound_to 7965
  140.3503  144.3097  150.5950 LP  0  0  0  0  0  0  0  0  0  0  0  0  # atno 17342 bound_to 10162
  140.5491  143.2209  151.7957 LP  0  0  0  0  0  0  0  0  0  0  0  0  # atno 17343 bound_to 10162
  155.9726  130.4131  150.4068 LP  0  0  0  0  0  0  0  0  0  0  0  0  # atno 17370 bound_to 10713
  157.2136  131.0466  151.2586 LP  0  0  0  0  0  0  0  0  0  0  0  0  # atno 17371 bound_to 10713
  139.9932  134.6952  155.9653 LP  0  0  0  0  0  0  0  0  0  0  0  0  # atno 17394 bound_to 11000
  141.1612  133.6539  156.4325 LP  0  0  0  0  0  0  0  0  0  0  0  0  # atno 17395 bound_to 11000

$$$$
