AV-unprocessed.smi:1224|AV-procd|sdf|5130|dock10
  -GOLD-   22720 4193D 1   1.00000     0.00000
 Structure written by MMmdl.
 45 47  0  0  0  0  0  0  0  0  3 V2000
  152.1797  143.7719  160.7461 C   0  0  0  0  0  0  0  0  0  0  0  0
  151.9236  142.8891  159.5364 C   0  0  0  0  0  0  0  0  0  0  0  0
  151.1026  143.3880  158.4999 C   0  0  0  0  0  0  0  0  0  0  0  0
  150.8864  142.5576  157.4068 C   0  0  0  0  0  0  0  0  0  0  0  0
  150.1370  142.7510  156.2443 N   0  3  0  0  0  0  0  0  0  0  0  0
  150.2247  141.6433  155.4572 C   0  0  0  0  0  0  0  0  0  0  0  0
  151.0246  140.7475  156.0980 N   0  0  0  0  0  0  0  0  0  0  0  0
  151.4439  139.3987  155.6932 C   0  0  0  0  0  0  0  0  0  0  0  0
  150.8305  138.9502  154.3513 C   0  0  2  0  0  0  0  0  0  0  0  0
  151.2749  139.8145  153.3231 O   0  0  0  0  0  0  0  0  0  0  0  0
  149.2939  138.9811  154.3896 C   0  0  0  0  0  0  0  0  0  0  0  0
  148.7229  139.1272  153.0332 N   0  3  0  0  0  0  0  0  0  0  0  0
  147.2788  139.4380  152.9944 C   0  0  0  0  0  0  0  0  0  0  0  0
  146.9758  140.8093  153.5052 C   0  0  0  0  0  0  0  0  0  0  0  0
  147.5466  141.9959  153.1184 C   0  0  0  0  0  0  0  0  0  0  0  0
  147.0108  143.1255  153.8038 C   0  0  0  0  0  0  0  0  0  0  0  0
  146.0380  142.7864  154.7059 C   0  0  0  0  0  0  0  0  0  0  0  0
  145.7600  141.0666  154.7316 S   0  0  0  0  0  0  0  0  0  0  0  0
  151.4557  141.2723  157.3208 C   0  0  0  0  0  0  0  0  0  0  0  0
  152.2659  140.7643  158.3333 C   0  0  0  0  0  0  0  0  0  0  0  0
  152.4966  141.5933  159.4546 C   0  0  0  0  0  0  0  0  0  0  0  0
  153.3742  141.0663  160.5773 C   0  0  0  0  0  0  0  0  0  0  0  0
  151.7015  144.7459  160.6375 H   0  0  0  0  0  0  0  0  0  0  0  0
  153.2485  143.9402  160.8796 H   0  0  0  0  0  0  0  0  0  0  0  0
  151.7863  143.3059  161.6496 H   0  0  0  0  0  0  0  0  0  0  0  0
  150.6612  144.3726  158.5564 H   0  0  0  0  0  0  0  0  0  0  0  0
  149.7477  141.5024  154.4977 H   0  0  0  0  0  0  0  0  0  0  0  0
  152.5338  139.3727  155.6541 H   0  0  0  0  0  0  0  0  0  0  0  0
  151.1474  138.7155  156.4907 H   0  0  0  0  0  0  0  0  0  0  0  0
  151.1703  137.9401  154.1187 H   0  0  0  0  0  0  0  0  0  0  0  0
  150.6046  139.8597  152.6579 H   0  0  0  0  0  0  0  0  0  0  0  0
  148.9167  138.0538  154.8232 H   0  0  0  0  0  0  0  0  0  0  0  0
  148.9545  139.7941  155.0328 H   0  0  0  0  0  0  0  0  0  0  0  0
  149.2214  139.8646  152.5549 H   0  0  0  0  0  0  0  0  0  0  0  0
  146.9408  139.3534  151.9613 H   0  0  0  0  0  0  0  0  0  0  0  0
  146.7279  138.6875  153.5625 H   0  0  0  0  0  0  0  0  0  0  0  0
  148.3212  142.0928  152.3718 H   0  0  0  0  0  0  0  0  0  0  0  0
  147.3526  144.1325  153.6139 H   0  0  0  0  0  0  0  0  0  0  0  0
  145.4708  143.4385  155.3540 H   0  0  0  0  0  0  0  0  0  0  0  0
  152.7008  139.7778  158.2716 H   0  0  0  0  0  0  0  0  0  0  0  0
  153.7142  140.0501  160.3754 H   0  0  0  0  0  0  0  0  0  0  0  0
  152.8248  141.0520  161.5188 H   0  0  0  0  0  0  0  0  0  0  0  0
  154.2568  141.6946  160.7001 H   0  0  0  0  0  0  0  0  0  0  0  0
  148.8735  138.2625  152.5340 H   0  0  0  0  0  0  0  0  0  0  0  0
  149.6012  143.5759  156.0050 H   0  0  0  0  0  0  0  0  0  0  0  0
  1  2  1  0  0  0  0
  1 23  1  0  0  0  0
  1 24  1  0  0  0  0
  1 25  1  0  0  0  0
  2 21  1  0  0  0  0
  2  3  2  0  0  0  0
  3  4  1  0  0  0  0
  3 26  1  0  0  0  0
  4 19  2  0  0  0  0
  4  5  1  0  0  0  0
  5  6  2  0  0  0  0
  5 45  1  0  0  0  0
  6  7  1  0  0  0  0
  6 27  1  0  0  0  0
  7  8  1  0  0  0  0
  7 19  1  0  0  0  0
  8  9  1  0  0  0  0
  8 28  1  0  0  0  0
  8 29  1  0  0  0  0
  9 10  1  0  0  0  0
  9 11  1  0  0  0  0
  9 30  1  0  0  0  0
 10 31  1  0  0  0  0
 11 12  1  0  0  0  0
 11 32  1  0  0  0  0
 11 33  1  0  0  0  0
 12 13  1  0  0  0  0
 12 34  1  0  0  0  0
 12 44  1  0  0  0  0
 13 14  1  0  0  0  0
 13 35  1  0  0  0  0
 13 36  1  0  0  0  0
 14 18  1  0  0  0  0
 14 15  2  0  0  0  0
 15 16  1  0  0  0  0
 15 37  1  0  0  0  0
 16 17  2  0  0  0  0
 16 38  1  0  0  0  0
 17 18  1  0  0  0  0
 17 39  1  0  0  0  0
 19 20  1  0  0  0  0
 20 21  2  0  0  0  0
 20 40  1  0  0  0  0
 21 22  1  0  0  0  0
 22 41  1  0  0  0  0
 22 42  1  0  0  0  0
 22 43  1  0  0  0  0
M  CHG  1   5   1
M  CHG  1  12   1
M  END
> <s_m_source_file>
AV-unprocessed.smi

> <i_m_source_file_index>
1224

> <i_lp_mmshare_version>
43012

> <i_f3d_flags>
0

> <s_epik_input>
W0NIM11jKFtjSF0xKWMoW0NIM10pW2NIXWMoYzEyKW4oW2NIXW4yKVtDSDJdW0NASF0oW09IXSlbQ0gyXVtOSF1bQ0gyXWMzW2NIXVtjSF1bY0hdczM=

> <s_epik_cmdline>
J2VwaWtfcHl0aG9uJywgJy1waCcsICc3LjAnLCAnLXRuJywgJzgnLCAnLW1hJywgJzIwMCcsICctbWV0YWxfYmluZGluZycsICctaW1hZScsICc8aW5maWxlLm1hZT4nLCAnLW9tYWUnLCAnPG91dGZpbGUubWFlPic=

> <r_epik_Ionization_Penalty>
1.2222

> <r_epik_Ionization_Penalty_Charging>
1.2222

> <r_epik_Ionization_Penalty_Neutral>
3.40394e-06

> <r_epik_State_Penalty>
1.23781

> <r_epik_Charging_Adjusted_Penalty>
2.46001

> <i_epik_Tot_Q>
2

> <i_epik_Tot_abs_Q>
2

> <r_epik_Metal_State_Penalty>
5.24642

> <b_epik_Metal_Only>
0

> <s_lp_Force_Field>
OPLS_2005

> <r_lp_Energy>
16.8702

> <b_lp_Chiralities_Consistent>
1

> <s_lp_Variant>
AV-unprocessed.smi:1224-3

> <Gold.Version>
5.8.1

> <Gold.Id.Protein>
6NUR|6NUR_protein|mol2

> <Gold.PLP.Fitness>
64.1171

> <Gold.PLP.PLP>
-44.5376

> <Gold.PLP.part.hbond>
-4.5900

> <Gold.PLP.part.metal>
0.0000

> <Gold.PLP.part.buried>
0.2593

> <Gold.PLP.part.nonpolar>
-39.2544

> <Gold.PLP.part.repulsive>
0.1417

> <Gold.PLP.ligand.clash>
0.0000

> <Gold.PLP.ligand.torsion>
0.4034

> <Gold.PLP.Chemscore.Hbond>
6.7846

> <Gold.PLP.Chemscore.CHOScore>
0.0000

> <Gold.PLP.Chemscore.Metal>
0.0000

> <Gold.Chemscore.Hbonds>
donor molecule, donor type, donor heavy atom, donor atom, acceptor molecule, acceptor atom, score
      L1  H     5    45       P1  8028  1.30
      L1  H    10    31       P1  7957  1.00
      L1  H    12    34       P1  7957  0.52
      L1  H    12    44       P1  7948  1.62

> <Gold.PLP.Chemscore.Internal.Correction>
0.0326

> <Gold.Rescore>
     Score         DG    S(hbond)    S(metal)    S(lipo)     H(rot)  DE(clash)    DE(int)     intcor
     21.32     -25.39       3.52        0.00     124.33       2.50       1.68       2.39       ----

> <Gold.Chemscore.Fitness>
21.3161

> <Gold.Chemscore.DG>
-25.3873

> <Gold.Chemscore.ZeroCoef>
-5.4800

> <Gold.Chemscore.Hbond>
3.5243

> <Gold.Chemscore.Metal>
0.0000

> <Gold.Chemscore.Lipo>
124.3324

> <Gold.Chemscore.Internal_Hbond>
0.0000

> <Gold.Chemscore.DEClash>
1.6813

> <Gold.Chemscore.DEInternal>
2.3899

> <Gold.Chemscore.Rot>
2.5042

> <Gold.Chemscore.Internal.Correction>
   9.000000E+99

> <Gold.Chemscore.Hbonds>
donor molecule, donor type, donor heavy atom, donor atom, acceptor molecule, acceptor atom, score
      L1  H     5    45       P1  8028  0.65
      L1  H    10    31       P1  7957  0.78
      L1  H    12    34       P1  7957  0.51
      L1  H    12    44       P1  7948  0.80
      P1  H  7989  7998       L1    10  0.01

> <Gold.Chemscore.Hbond.Weighted>
-11.7712

> <Gold.Chemscore.Metal.Weighted>
-0.0000

> <Gold.Chemscore.Lipo.Weighted>
-14.5469

> <Gold.Chemscore.Internal_Hbond.Weighted>
0.0000

> <Gold.Chemscore.DEClash.Weighted>
1.6813

> <Gold.Chemscore.DEInternal.Weighted>
2.3899

> <Gold.Chemscore.Rot.Weighted>
6.4108

> <Gold.Chemscore.Internal.Correction.Weighted>
   9.000000E+99

> <Gold.Protein.RotatedTorsions>
[ 6907 6896 6895 6894 ] final   -0.52 input  -60.11 | X-H torsion
[ 7974 7965 7964 7962 ] final  -76.48 input  175.53 | X-H torsion
[ 8008 7997 7996 7995 ] final -103.69 input   59.86 | X-H torsion
[ 10167 10162 10161 10158 ] final  141.39 input  -65.29 | X-H torsion
[ 10718 10713 10712 10709 ] final  156.93 input   66.30 | X-H torsion
[ 10763 10752 10751 10750 ] final -116.78 input  -60.55 | X-H torsion
[ 11005 11000 10999 10996 ] final  -45.48 input  -57.11 | X-H torsion

> <Gold.Protein.ActiveResidues>
 VAL166  LYS551  ARG553  GLY616  TRP617  ASP618  TYR619  PRO620  LYS621  CYS622 
 ASP623  PHE694  ASN695  SER759  ASP760  ASP761  ALA762  ILE779  LEU786  VAL792 
 PHE793  MET794  SER795  GLU796  ALA797  LYS798  CYS799  TRP800  GLU811  SER814 

> <Gold.Protein.RotatedAtoms>
  151.5609  135.1065  159.9972 H   0  0  0  0  0  0  0  0  0  0  0  0  # atno 6907 bound_to 6896
  152.4447  133.7510  159.6704 H   0  0  0  0  0  0  0  0  0  0  0  0  # atno 6908 bound_to 6896
  150.8360  133.7945  159.3103 H   0  0  0  0  0  0  0  0  0  0  0  0  # atno 6909 bound_to 6896
  145.6123  140.9383  143.1183 H   0  0  0  0  0  0  0  0  0  0  0  0  # atno 7974 bound_to 7965
  154.8745  140.0421  157.1745 H   0  0  0  0  0  0  0  0  0  0  0  0  # atno 8008 bound_to 7997
  154.8704  140.2957  155.5464 H   0  0  0  0  0  0  0  0  0  0  0  0  # atno 8009 bound_to 7997
  156.2999  140.2430  156.3691 H   0  0  0  0  0  0  0  0  0  0  0  0  # atno 8010 bound_to 7997
  139.5022  144.6174  151.6131 H   0  0  0  0  0  0  0  0  0  0  0  0  # atno 10167 bound_to 10162
  157.1984  131.0670  151.2039 H   0  0  0  0  0  0  0  0  0  0  0  0  # atno 10718 bound_to 10713
  154.8531  135.4333  154.1875 H   0  0  0  0  0  0  0  0  0  0  0  0  # atno 10763 bound_to 10752
  153.2951  135.6964  153.7262 H   0  0  0  0  0  0  0  0  0  0  0  0  # atno 10764 bound_to 10752
  153.6414  135.3467  155.3047 H   0  0  0  0  0  0  0  0  0  0  0  0  # atno 10765 bound_to 10752
  141.0518  133.6740  156.3020 H   0  0  0  0  0  0  0  0  0  0  0  0  # atno 11005 bound_to 11000
  144.7265  139.7860  143.7363 LP  0  0  0  0  0  0  0  0  0  0  0  0  # atno 17320 bound_to 7965
  146.1495  139.4574  143.0058 LP  0  0  0  0  0  0  0  0  0  0  0  0  # atno 17321 bound_to 7965
  140.5866  143.9852  150.6299 LP  0  0  0  0  0  0  0  0  0  0  0  0  # atno 17342 bound_to 10162
  140.3019  143.3255  152.0963 LP  0  0  0  0  0  0  0  0  0  0  0  0  # atno 17343 bound_to 10162
  157.3792  130.7222  149.6618 LP  0  0  0  0  0  0  0  0  0  0  0  0  # atno 17370 bound_to 10713
  155.9703  130.4177  150.4293 LP  0  0  0  0  0  0  0  0  0  0  0  0  # atno 17371 bound_to 10713
  140.6040  134.5526  157.5522 LP  0  0  0  0  0  0  0  0  0  0  0  0  # atno 17394 bound_to 11000
  139.9357  134.7880  156.0810 LP  0  0  0  0  0  0  0  0  0  0  0  0  # atno 17395 bound_to 11000

$$$$
