AV-unprocessed.smi:1048|AV-procd|sdf|4606|dock1
  -GOLD-   22720 3103D 1   1.00000     0.00000
 Structure written by MMmdl.
 46 47  0  0  0  0  0  0  0  0  2 V2000
  144.2002  132.7358  151.6192 C   0  0  0  0  0  0  0  0  0  0  0  0
  145.6496  133.1615  151.3263 C   0  0  2  0  0  0  0  0  0  0  0  0
  146.4436  133.4861  152.6047 C   0  0  0  0  0  0  0  0  0  0  0  0
  146.0289  134.8339  153.2219 C   0  0  0  0  0  0  0  0  0  0  0  0
  146.1577  135.9364  152.2354 N   0  3  2  0  0  0  0  0  0  0  0  0
  145.9094  137.2714  152.8384 C   0  0  0  0  0  0  0  0  0  0  0  0
  146.2248  138.4240  151.8628 C   0  0  2  0  0  0  0  0  0  0  0  0
  147.3968  138.0588  151.1603 O   0  0  0  0  0  0  0  0  0  0  0  0
  146.4953  139.7436  152.6140 C   0  0  0  0  0  0  0  0  0  0  0  0
  147.8966  139.8759  153.0009 N   0  0  0  0  0  0  0  0  0  0  0  0
  148.3514  139.8585  154.2616 C   0  0  0  0  0  0  0  0  0  0  0  0
  147.6238  139.6997  155.2411 O   0  0  0  0  0  0  0  0  0  0  0  0
  149.6861  140.0102  154.3004 N   0  0  0  0  0  0  0  0  0  0  0  0
  150.5332  140.0875  155.4390 C   0  0  0  0  0  0  0  0  0  0  0  0
  150.0306  140.7161  156.5970 C   0  0  0  0  0  0  0  0  0  0  0  0
  150.8403  140.7867  157.7463 C   0  0  0  0  0  0  0  0  0  0  0  0
  152.1261  140.2147  157.6956 C   0  0  0  0  0  0  0  0  0  0  0  0
  152.6178  139.5964  156.6016 N   0  0  0  0  0  0  0  0  0  0  0  0
  151.8363  139.5335  155.5019 C   0  0  0  0  0  0  0  0  0  0  0  0
  145.3427  135.6818  151.0185 C   0  0  0  0  0  0  0  0  0  0  0  0
  145.7376  134.3514  150.3528 C   0  0  0  0  0  0  0  0  0  0  0  0
  143.6268  133.5285  152.0990 H   0  0  0  0  0  0  0  0  0  0  0  0
  144.1746  131.8669  152.2776 H   0  0  0  0  0  0  0  0  0  0  0  0
  143.6803  132.4633  150.7005 H   0  0  0  0  0  0  0  0  0  0  0  0
  146.1302  132.3074  150.8472 H   0  0  0  0  0  0  0  0  0  0  0  0
  146.3269  132.6864  153.3370 H   0  0  0  0  0  0  0  0  0  0  0  0
  147.5071  133.5215  152.3640 H   0  0  0  0  0  0  0  0  0  0  0  0
  145.0046  134.7894  153.5937 H   0  0  0  0  0  0  0  0  0  0  0  0
  146.6669  135.0372  154.0829 H   0  0  0  0  0  0  0  0  0  0  0  0
  144.8738  137.3231  153.1777 H   0  0  0  0  0  0  0  0  0  0  0  0
  146.5241  137.3979  153.7313 H   0  0  0  0  0  0  0  0  0  0  0  0
  145.4056  138.5650  151.1578 H   0  0  0  0  0  0  0  0  0  0  0  0
  147.9334  137.5247  151.7281 H   0  0  0  0  0  0  0  0  0  0  0  0
  146.2893  140.5851  151.9518 H   0  0  0  0  0  0  0  0  0  0  0  0
  145.8284  139.8652  153.4699 H   0  0  0  0  0  0  0  0  0  0  0  0
  148.5657  140.0064  152.2561 H   0  0  0  0  0  0  0  0  0  0  0  0
  150.1576  140.0359  153.4082 H   0  0  0  0  0  0  0  0  0  0  0  0
  149.0381  141.1430  156.6066 H   0  0  0  0  0  0  0  0  0  0  0  0
  150.4843  141.2662  158.6461 H   0  0  0  0  0  0  0  0  0  0  0  0
  152.7742  140.2495  158.5588 H   0  0  0  0  0  0  0  0  0  0  0  0
  152.2733  139.0038  154.6700 H   0  0  0  0  0  0  0  0  0  0  0  0
  144.2838  135.6762  151.2809 H   0  0  0  0  0  0  0  0  0  0  0  0
  145.4789  136.4885  150.2990 H   0  0  0  0  0  0  0  0  0  0  0  0
  146.7600  134.4337  149.9810 H   0  0  0  0  0  0  0  0  0  0  0  0
  145.1123  134.1706  149.4776 H   0  0  0  0  0  0  0  0  0  0  0  0
  147.1263  135.9383  151.9482 H   0  0  0  0  0  0  0  0  0  0  0  0
  1  2  1  0  0  0  0
  1 22  1  0  0  0  0
  1 23  1  0  0  0  0
  1 24  1  0  0  0  0
  2 21  1  0  0  0  0
  2  3  1  0  0  0  0
  2 25  1  0  0  0  0
  3  4  1  0  0  0  0
  3 26  1  0  0  0  0
  3 27  1  0  0  0  0
  4  5  1  0  0  0  0
  4 28  1  0  0  0  0
  4 29  1  0  0  0  0
  5  6  1  0  0  0  0
  5 20  1  0  0  0  0
  5 46  1  0  0  0  0
  6  7  1  0  0  0  0
  6 30  1  0  0  0  0
  6 31  1  0  0  0  0
  7  8  1  0  0  0  0
  7  9  1  0  0  0  0
  7 32  1  0  0  0  0
  8 33  1  0  0  0  0
  9 10  1  0  0  0  0
  9 34  1  0  0  0  0
  9 35  1  0  0  0  0
 10 11  1  0  0  0  0
 10 36  1  0  0  0  0
 11 12  2  0  0  0  0
 11 13  1  0  0  0  0
 13 14  1  0  0  0  0
 13 37  1  0  0  0  0
 14 19  1  0  0  0  0
 14 15  2  0  0  0  0
 15 16  1  0  0  0  0
 15 38  1  0  0  0  0
 16 17  2  0  0  0  0
 16 39  1  0  0  0  0
 17 18  1  0  0  0  0
 17 40  1  0  0  0  0
 18 19  2  0  0  0  0
 19 41  1  0  0  0  0
 20 21  1  0  0  0  0
 20 42  1  0  0  0  0
 20 43  1  0  0  0  0
 21 44  1  0  0  0  0
 21 45  1  0  0  0  0
M  CHG  1   5   1
M  END
> <s_m_source_file>
AV-unprocessed.smi

> <i_m_source_file_index>
1048

> <i_lp_mmshare_version>
43012

> <i_f3d_flags>
0

> <s_epik_input>
W0NIM11bQ0hdMVtDSDJdW0NIMl1OKFtDSDJdW0NIMl0xKVtDSDJdW0NASF0oW09IXSlbQ0gyXVtOSF1DKD1PKVtOSF1jMltjSF1bY0hdW2NIXW5bY0hdMg==

> <s_epik_cmdline>
J2VwaWtfcHl0aG9uJywgJy1waCcsICc3LjAnLCAnLXRuJywgJzgnLCAnLW1hJywgJzIwMCcsICctbWV0YWxfYmluZGluZycsICctaW1hZScsICc8aW5maWxlLm1hZT4nLCAnLW9tYWUnLCAnPG91dGZpbGUubWFlPic=

> <r_lp_tautomer_probability>
1

> <r_epik_Ionization_Penalty>
0.00581049

> <r_epik_Ionization_Penalty_Charging>
0.00147689

> <r_epik_Ionization_Penalty_Neutral>
0.0043336

> <r_epik_State_Penalty>
-0

> <r_epik_Charging_Adjusted_Penalty>
0.00147689

> <i_epik_Tot_Q>
1

> <i_epik_Tot_abs_Q>
1

> <r_epik_Metal_State_Penalty>
-0

> <b_epik_Metal_Only>
0

> <s_lp_Force_Field>
OPLS_2005

> <r_lp_Energy>
24.4675

> <b_lp_Chiralities_Consistent>
1

> <s_lp_Variant>
AV-unprocessed.smi:1048-3

> <Gold.Version>
5.8.1

> <Gold.Id.Protein>
6NUR|6NUR_protein|mol2

> <Gold.PLP.Fitness>
50.8718

> <Gold.PLP.PLP>
-34.9765

> <Gold.PLP.part.hbond>
-6.2091

> <Gold.PLP.part.metal>
0.0000

> <Gold.PLP.part.buried>
1.7959

> <Gold.PLP.part.nonpolar>
-30.9633

> <Gold.PLP.part.repulsive>
0.7487

> <Gold.PLP.ligand.clash>
0.0000

> <Gold.PLP.ligand.torsion>
0.8471

> <Gold.PLP.Chemscore.Hbond>
5.8401

> <Gold.PLP.Chemscore.CHOScore>
0.0000

> <Gold.PLP.Chemscore.Metal>
0.0000

> <Gold.Chemscore.Hbonds>
donor molecule, donor type, donor heavy atom, donor atom, acceptor molecule, acceptor atom, score
      L1  H     5    46       P1  7948  2.00
      L1  H     8    33       P1  7948  0.91
      L1  H    10    36       P1  7957  0.93
      L1  H    13    37       P1  7957  0.24
      P1  H  7954  7966       L1     8  0.80
      P1  H  7997  8008       L1    18  1.00

> <Gold.PLP.Chemscore.Internal.Correction>
0.0692

> <Gold.Rescore>
     Score         DG    S(hbond)    S(metal)    S(lipo)     H(rot)  DE(clash)    DE(int)     intcor
     20.37     -22.95       4.20        0.00      79.55       2.29       0.51       2.07       ----

> <Gold.Chemscore.Fitness>
20.3657

> <Gold.Chemscore.DG>
-22.9456

> <Gold.Chemscore.ZeroCoef>
-5.4800

> <Gold.Chemscore.Hbond>
4.1952

> <Gold.Chemscore.Metal>
0.0000

> <Gold.Chemscore.Lipo>
79.5488

> <Gold.Chemscore.Internal_Hbond>
0.0000

> <Gold.Chemscore.DEClash>
0.5136

> <Gold.Chemscore.DEInternal>
2.0663

> <Gold.Chemscore.Rot>
2.2865

> <Gold.Chemscore.Internal.Correction>
   9.000000E+99

> <Gold.Chemscore.Hbonds>
donor molecule, donor type, donor heavy atom, donor atom, acceptor molecule, acceptor atom, score
      L1  H     5    46       P1  7948  1.00
      L1  H     8    33       P1  7948  0.87
      L1  H    10    36       P1  7957  0.89
      L1  H    13    37       P1  7957  0.24
      P1  H  7954  7966       L1     8  0.16
      P1  H  7997  8008       L1    18  0.65

> <Gold.Chemscore.Hbond.Weighted>
-14.0119

> <Gold.Chemscore.Metal.Weighted>
-0.0000

> <Gold.Chemscore.Lipo.Weighted>
-9.3072

> <Gold.Chemscore.Internal_Hbond.Weighted>
0.0000

> <Gold.Chemscore.DEClash.Weighted>
0.5136

> <Gold.Chemscore.DEInternal.Weighted>
2.0663

> <Gold.Chemscore.Rot.Weighted>
5.8536

> <Gold.Chemscore.Internal.Correction.Weighted>
   9.000000E+99

> <Gold.Protein.RotatedTorsions>
[ 6907 6896 6895 6894 ] final  137.68 input  -60.11 | X-H torsion
[ 7974 7965 7964 7962 ] final  118.58 input  175.53 | X-H torsion
[ 8008 7997 7996 7995 ] final  -41.64 input   59.86 | X-H torsion
[ 10167 10162 10161 10158 ] final  172.19 input  -65.29 | X-H torsion
[ 10718 10713 10712 10709 ] final   96.22 input   66.30 | X-H torsion
[ 10763 10752 10751 10750 ] final -156.15 input  -60.55 | X-H torsion
[ 11005 11000 10999 10996 ] final  -18.81 input  -57.11 | X-H torsion

> <Gold.Protein.ActiveResidues>
 VAL166  LYS551  ARG553  GLY616  TRP617  ASP618  TYR619  PRO620  LYS621  CYS622 
 ASP623  PHE694  ASN695  SER759  ASP760  ASP761  ALA762  ILE779  LEU786  VAL792 
 PHE793  MET794  SER795  GLU796  ALA797  LYS798  CYS799  TRP800  GLU811  SER814 

> <Gold.Protein.RotatedAtoms>
  152.2753  133.5420  159.5463 H   0  0  0  0  0  0  0  0  0  0  0  0  # atno 6907 bound_to 6896
  150.7175  134.0640  159.3850 H   0  0  0  0  0  0  0  0  0  0  0  0  # atno 6908 bound_to 6896
  151.8553  135.0543  160.0514 H   0  0  0  0  0  0  0  0  0  0  0  0  # atno 6909 bound_to 6896
  145.1534  139.3197  143.4554 H   0  0  0  0  0  0  0  0  0  0  0  0  # atno 7974 bound_to 7965
  154.4003  140.1494  156.3224 H   0  0  0  0  0  0  0  0  0  0  0  0  # atno 8008 bound_to 7997
  155.8517  140.3457  155.5676 H   0  0  0  0  0  0  0  0  0  0  0  0  # atno 8009 bound_to 7997
  155.7977  140.0865  157.1965 H   0  0  0  0  0  0  0  0  0  0  0  0  # atno 8010 bound_to 7997
  139.5069  144.3402  152.0026 H   0  0  0  0  0  0  0  0  0  0  0  0  # atno 10167 bound_to 10162
  157.6929  131.0571  150.4459 H   0  0  0  0  0  0  0  0  0  0  0  0  # atno 10718 bound_to 10713
  154.7734  135.3152  154.8143 H   0  0  0  0  0  0  0  0  0  0  0  0  # atno 10763 bound_to 10752
  153.8872  135.6829  153.4767 H   0  0  0  0  0  0  0  0  0  0  0  0  # atno 10764 bound_to 10752
  153.1352  135.4763  154.9347 H   0  0  0  0  0  0  0  0  0  0  0  0  # atno 10765 bound_to 10752
  140.8304  133.8001  155.9753 H   0  0  0  0  0  0  0  0  0  0  0  0  # atno 11005 bound_to 11000
  146.3492  140.1617  142.8590 LP  0  0  0  0  0  0  0  0  0  0  0  0  # atno 17320 bound_to 7965
  145.0406  140.8942  143.5054 LP  0  0  0  0  0  0  0  0  0  0  0  0  # atno 17321 bound_to 7965
  140.2840  144.3828  150.6110 LP  0  0  0  0  0  0  0  0  0  0  0  0  # atno 17342 bound_to 10162
  140.5997  143.2167  151.7096 LP  0  0  0  0  0  0  0  0  0  0  0  0  # atno 17343 bound_to 10162
  156.4814  130.4074  149.6459 LP  0  0  0  0  0  0  0  0  0  0  0  0  # atno 17370 bound_to 10713
  156.3504  130.7429  151.2387 LP  0  0  0  0  0  0  0  0  0  0  0  0  # atno 17371 bound_to 10713
  140.9004  134.2386  157.5045 LP  0  0  0  0  0  0  0  0  0  0  0  0  # atno 17394 bound_to 11000
  139.8705  134.9703  156.4699 LP  0  0  0  0  0  0  0  0  0  0  0  0  # atno 17395 bound_to 11000

$$$$
