AV-unprocessed.smi:1230|AV-procd|sdf|5153|dock5
  -GOLD-   22720 4223D 1   1.00000     0.00000
 Structure written by MMmdl.
 38 39  0  0  0  0  0  0  0  0  2 V2000
  153.1397  140.8582  160.1970 C   0  0  0  0  0  0  0  0  0  0  0  0
  152.4726  142.1912  159.8242 C   0  0  1  0  0  0  0  0  0  0  0  0
  153.4717  143.1706  159.1762 C   0  0  0  0  0  0  0  0  0  0  0  0
  152.8079  144.5182  158.8501 C   0  0  0  0  0  0  0  0  0  0  0  0
  151.5713  144.3301  157.9585 C   0  0  0  0  0  0  0  0  0  0  0  0
  150.5690  143.3514  158.5936 C   0  0  0  0  0  0  0  0  0  0  0  0
  151.2223  141.9994  158.9343 C   0  0  1  0  0  0  0  0  0  0  0  0
  151.5867  141.3694  157.7108 O   0  0  0  0  0  0  0  0  0  0  0  0
  150.5407  141.3070  156.7548 C   0  0  0  0  0  0  0  0  0  0  0  0
  151.0492  140.5528  155.5189 C   0  0  0  0  0  0  0  0  0  0  0  0
  150.9511  139.0995  155.7040 N   0  0  0  0  0  0  0  0  0  0  0  0
  149.6856  138.5672  156.0035 C   0  0  0  0  0  0  0  0  0  0  0  0
  149.5028  137.2475  156.1982 C   0  0  0  0  0  0  0  0  0  0  0  0
  148.2309  136.6819  156.5071 C   0  0  0  0  0  0  0  0  0  0  0  0
  147.2120  136.2044  156.7803 N   0  0  0  0  0  0  0  0  0  0  0  0
  150.6573  136.3580  156.0939 C   0  0  0  0  0  0  0  0  0  0  0  0
  150.5185  135.1470  156.2615 O   0  0  0  0  0  0  0  0  0  0  0  0
  151.8642  136.9306  155.8098 N   0  5  0  0  0  0  0  0  0  0  0  0
  152.0386  138.2757  155.6190 C   0  0  0  0  0  0  0  0  0  0  0  0
  153.1407  138.7683  155.3765 O   0  0  0  0  0  0  0  0  0  0  0  0
  153.5449  140.3550  159.3186 H   0  0  0  0  0  0  0  0  0  0  0  0
  152.4281  140.1814  160.6705 H   0  0  0  0  0  0  0  0  0  0  0  0
  153.9613  141.0129  160.8967 H   0  0  0  0  0  0  0  0  0  0  0  0
  152.1353  142.6437  160.7580 H   0  0  0  0  0  0  0  0  0  0  0  0
  154.3182  143.3348  159.8437 H   0  0  0  0  0  0  0  0  0  0  0  0
  153.8804  142.7344  158.2637 H   0  0  0  0  0  0  0  0  0  0  0  0
  152.5183  145.0160  159.7764 H   0  0  0  0  0  0  0  0  0  0  0  0
  153.5247  145.1755  158.3573 H   0  0  0  0  0  0  0  0  0  0  0  0
  151.0897  145.2924  157.7831 H   0  0  0  0  0  0  0  0  0  0  0  0
  151.8798  143.9582  156.9808 H   0  0  0  0  0  0  0  0  0  0  0  0
  150.1625  143.7941  159.5036 H   0  0  0  0  0  0  0  0  0  0  0  0
  149.7226  143.1972  157.9236 H   0  0  0  0  0  0  0  0  0  0  0  0
  150.4886  141.4002  159.4779 H   0  0  0  0  0  0  0  0  0  0  0  0
  149.6740  140.7985  157.1789 H   0  0  0  0  0  0  0  0  0  0  0  0
  150.2306  142.3166  156.4803 H   0  0  0  0  0  0  0  0  0  0  0  0
  150.4758  140.8591  154.6430 H   0  0  0  0  0  0  0  0  0  0  0  0
  152.0782  140.8444  155.3017 H   0  0  0  0  0  0  0  0  0  0  0  0
  148.8860  139.2906  156.0700 H   0  0  0  0  0  0  0  0  0  0  0  0
  1  2  1  0  0  0  0
  1 21  1  0  0  0  0
  1 22  1  0  0  0  0
  1 23  1  0  0  0  0
  2  7  1  0  0  0  0
  2  3  1  0  0  0  0
  2 24  1  0  0  0  0
  3  4  1  0  0  0  0
  3 25  1  0  0  0  0
  3 26  1  0  0  0  0
  4  5  1  0  0  0  0
  4 27  1  0  0  0  0
  4 28  1  0  0  0  0
  5  6  1  0  0  0  0
  5 29  1  0  0  0  0
  5 30  1  0  0  0  0
  6  7  1  0  0  0  0
  6 31  1  0  0  0  0
  6 32  1  0  0  0  0
  7  8  1  0  0  0  0
  7 33  1  0  0  0  0
  8  9  1  0  0  0  0
  9 10  1  0  0  0  0
  9 34  1  0  0  0  0
  9 35  1  0  0  0  0
 10 11  1  0  0  0  0
 10 36  1  0  0  0  0
 10 37  1  0  0  0  0
 11 19  1  0  0  0  0
 11 12  1  0  0  0  0
 12 13  2  0  0  0  0
 12 38  1  0  0  0  0
 13 14  1  0  0  0  0
 13 16  1  0  0  0  0
 14 15  3  0  0  0  0
 16 17  2  0  0  0  0
 16 18  1  0  0  0  0
 18 19  1  0  0  0  0
 19 20  2  0  0  0  0
M  CHG  1  18  -1
M  END
> <s_m_source_file>
AV-unprocessed.smi

> <i_m_source_file_index>
1230

> <i_lp_mmshare_version>
43012

> <i_f3d_flags>
0

> <s_epik_input>
W0NIM11bQ0BASF0xW0NIMl1bQ0gyXVtDSDJdW0NIMl1bQ0BIXTFPW0NIMl1bQ0gyXW4yW2NIXWMoQyNOKWMoPU8pW25IXWMyPU8=

> <s_epik_cmdline>
J2VwaWtfcHl0aG9uJywgJy1waCcsICc3LjAnLCAnLXRuJywgJzgnLCAnLW1hJywgJzIwMCcsICctbWV0YWxfYmluZGluZycsICctaW1hZScsICc8aW5maWxlLm1hZT4nLCAnLW9tYWUnLCAnPG91dGZpbGUubWFlPic=

> <r_epik_Ionization_Penalty>
0.400014

> <r_epik_Ionization_Penalty_Charging>
4.81474e-10

> <r_epik_Ionization_Penalty_Neutral>
0.400014

> <r_epik_State_Penalty>
0.399305

> <r_epik_Charging_Adjusted_Penalty>
0.399305

> <i_epik_Tot_Q>
-1

> <i_epik_Tot_abs_Q>
1

> <r_epik_Metal_State_Penalty>
0.00056968

> <b_epik_Metal_Only>
0

> <s_lp_Force_Field>
OPLS_2005

> <r_lp_Energy>
24.4713

> <b_lp_Chiralities_Consistent>
1

> <s_lp_Variant>
AV-unprocessed.smi:1230-2

> <Gold.Version>
5.8.1

> <Gold.Id.Protein>
6NUR|6NUR_protein|mol2

> <Gold.PLP.Fitness>
43.3664

> <Gold.PLP.PLP>
-34.7503

> <Gold.PLP.part.hbond>
-2.0000

> <Gold.PLP.part.metal>
0.0000

> <Gold.PLP.part.buried>
-4.2328

> <Gold.PLP.part.nonpolar>
-29.4180

> <Gold.PLP.part.repulsive>
0.0405

> <Gold.PLP.ligand.clash>
0.0083

> <Gold.PLP.ligand.torsion>
0.1658

> <Gold.PLP.Chemscore.Hbond>
2.9840

> <Gold.PLP.Chemscore.CHOScore>
0.0000

> <Gold.PLP.Chemscore.Metal>
0.0000

> <Gold.Chemscore.Hbonds>
donor molecule, donor type, donor heavy atom, donor atom, acceptor molecule, acceptor atom, score
      P1  H  7997  8010       L1    20  1.00
      P1  H 10752 10764       L1    18  1.89

> <Gold.PLP.Chemscore.Internal.Correction>
0.0038

> <Gold.Rescore>
     Score         DG    S(hbond)    S(metal)    S(lipo)     H(rot)  DE(clash)    DE(int)     intcor
     16.46     -16.59       1.58        0.00      91.31       1.90       0.00       0.13       ----

> <Gold.Chemscore.Fitness>
16.4582

> <Gold.Chemscore.DG>
-16.5906

> <Gold.Chemscore.ZeroCoef>
-5.4800

> <Gold.Chemscore.Hbond>
1.5830

> <Gold.Chemscore.Metal>
0.0000

> <Gold.Chemscore.Lipo>
91.3093

> <Gold.Chemscore.Internal_Hbond>
0.0000

> <Gold.Chemscore.DEClash>
0.0009

> <Gold.Chemscore.DEInternal>
0.1315

> <Gold.Chemscore.Rot>
1.8984

> <Gold.Chemscore.Internal.Correction>
   9.000000E+99

> <Gold.Chemscore.Hbonds>
donor molecule, donor type, donor heavy atom, donor atom, acceptor molecule, acceptor atom, score
      P1  H  7997  8010       L1    20  0.95
      P1  H 10752 10764       L1    18  0.61

> <Gold.Chemscore.Hbond.Weighted>
-5.2872

> <Gold.Chemscore.Metal.Weighted>
-0.0000

> <Gold.Chemscore.Lipo.Weighted>
-10.6832

> <Gold.Chemscore.Internal_Hbond.Weighted>
0.0000

> <Gold.Chemscore.DEClash.Weighted>
0.0009

> <Gold.Chemscore.DEInternal.Weighted>
0.1315

> <Gold.Chemscore.Rot.Weighted>
4.8598

> <Gold.Chemscore.Internal.Correction.Weighted>
   9.000000E+99

> <Gold.Protein.RotatedTorsions>
[ 6907 6896 6895 6894 ] final  -74.39 input  -60.11 | X-H torsion
[ 7974 7965 7964 7962 ] final -108.43 input  175.53 | X-H torsion
[ 8008 7997 7996 7995 ] final   94.35 input   59.86 | X-H torsion
[ 10167 10162 10161 10158 ] final   83.91 input  -65.29 | X-H torsion
[ 10718 10713 10712 10709 ] final -154.52 input   66.30 | X-H torsion
[ 10763 10752 10751 10750 ] final  -36.33 input  -60.55 | X-H torsion
[ 11005 11000 10999 10996 ] final  -76.62 input  -57.11 | X-H torsion

> <Gold.Protein.ActiveResidues>
 VAL166  LYS551  ARG553  GLY616  TRP617  ASP618  TYR619  PRO620  LYS621  CYS622 
 ASP623  PHE694  ASN695  SER759  ASP760  ASP761  ALA762  ILE779  LEU786  VAL792 
 PHE793  MET794  SER795  GLU796  ALA797  LYS798  CYS799  TRP800  GLU811  SER814 

> <Gold.Protein.RotatedAtoms>
  150.7095  134.4876  159.5500 H   0  0  0  0  0  0  0  0  0  0  0  0  # atno 6907 bound_to 6896
  152.2500  134.8139  160.0456 H   0  0  0  0  0  0  0  0  0  0  0  0  # atno 6908 bound_to 6896
  151.8890  133.3476  159.3828 H   0  0  0  0  0  0  0  0  0  0  0  0  # atno 6909 bound_to 6896
  145.1929  140.9023  143.3414 H   0  0  0  0  0  0  0  0  0  0  0  0  # atno 7974 bound_to 7965
  156.0569  140.3301  155.7416 H   0  0  0  0  0  0  0  0  0  0  0  0  # atno 8008 bound_to 7997
  155.5515  140.0610  157.2866 H   0  0  0  0  0  0  0  0  0  0  0  0  # atno 8009 bound_to 7997
  154.4462  140.1893  156.0679 H   0  0  0  0  0  0  0  0  0  0  0  0  # atno 8010 bound_to 7997
  139.9135  144.6257  150.8513 H   0  0  0  0  0  0  0  0  0  0  0  0  # atno 10167 bound_to 10162
  156.5004  130.8389  151.2607 H   0  0  0  0  0  0  0  0  0  0  0  0  # atno 10718 bound_to 10713
  153.8780  135.6824  153.4769 H   0  0  0  0  0  0  0  0  0  0  0  0  # atno 10763 bound_to 10752
  153.1250  135.4723  154.9255 H   0  0  0  0  0  0  0  0  0  0  0  0  # atno 10764 bound_to 10752
  154.7683  135.3231  154.8194 H   0  0  0  0  0  0  0  0  0  0  0  0  # atno 10765 bound_to 10752
  141.1655  133.6990  156.7696 H   0  0  0  0  0  0  0  0  0  0  0  0  # atno 11005 bound_to 11000
  145.0023  139.3587  143.6161 LP  0  0  0  0  0  0  0  0  0  0  0  0  # atno 17320 bound_to 7965
  146.3432  139.9251  142.8761 LP  0  0  0  0  0  0  0  0  0  0  0  0  # atno 17321 bound_to 7965
  140.7680  143.3348  151.2331 LP  0  0  0  0  0  0  0  0  0  0  0  0  # atno 17342 bound_to 10162
  139.6922  143.9672  152.2865 LP  0  0  0  0  0  0  0  0  0  0  0  0  # atno 17343 bound_to 10162
  157.7463  130.9983  150.2849 LP  0  0  0  0  0  0  0  0  0  0  0  0  # atno 17370 bound_to 10713
  156.3338  130.3804  149.7468 LP  0  0  0  0  0  0  0  0  0  0  0  0  # atno 17371 bound_to 10713
  140.2474  134.8567  157.3634 LP  0  0  0  0  0  0  0  0  0  0  0  0  # atno 17394 bound_to 11000
  140.1736  134.4577  155.7816 LP  0  0  0  0  0  0  0  0  0  0  0  0  # atno 17395 bound_to 11000

$$$$
