AV-unprocessed.smi:21|AV-procd|sdf|132|dock8
  -GOLD-   2262015323D 1   1.00000     0.00000
 Structure written by MMmdl.
 62 65  0  0  0  0  0  0  0  0  2 V2000
  145.4804  131.1150  151.3279 C   0  0  0  0  0  0  0  0  0  0  0  0
  145.9003  132.4295  151.6569 O   0  0  0  0  0  0  0  0  0  0  0  0
  145.0876  133.4459  151.0883 C   0  0  2  0  0  0  0  0  0  0  0  0
  145.3284  134.8209  151.7013 C   0  0  0  0  0  0  0  0  0  0  0  0
  144.0191  135.5839  151.4428 C   0  0  2  0  0  0  0  0  0  0  0  0
  143.7391  136.7075  152.4746 C   0  0  0  0  0  0  0  0  0  0  0  0
  144.1670  136.3700  153.8336 N   0  0  0  0  0  0  0  0  0  0  0  0
  143.2634  135.5486  154.6357 C   0  0  0  0  0  0  0  0  0  0  0  0
  145.0369  137.1927  154.4847 C   0  0  0  0  0  0  0  0  0  0  0  0
  144.9846  137.2546  155.8430 N   0  0  0  0  0  0  0  0  0  0  0  0
  145.7975  138.0669  156.5231 C   0  0  0  0  0  0  0  0  0  0  0  0
  146.7294  138.8955  156.0529 N   0  0  0  0  0  0  0  0  0  0  0  0
  146.8012  138.8359  154.6932 C   0  0  0  0  0  0  0  0  0  0  0  0
  146.0051  138.0192  153.8380 C   0  0  0  0  0  0  0  0  0  0  0  0
  146.3850  138.2279  152.5160 N   0  0  0  0  0  0  0  0  0  0  0  0
  147.3344  139.1199  152.5846 C   0  0  0  0  0  0  0  0  0  0  0  0
  147.6519  139.5361  153.8559 N   0  0  0  0  0  0  0  0  0  0  0  0
  148.6643  140.5136  154.2191 C   0  0  0  0  0  0  0  0  0  0  0  0
  149.5413  140.0777  155.4205 C   0  0  2  0  0  0  0  0  0  0  0  0
  149.8329  141.2720  156.3662 C   0  0  0  0  0  0  0  0  0  0  0  0
  150.4705  142.3343  155.6887 O   0  0  0  0  0  0  0  0  0  0  0  0
  150.8423  139.3942  154.9151 C   0  0  1  0  0  0  0  0  0  0  0  0
  151.9165  139.1596  155.9642 C   0  0  0  0  0  0  0  0  0  0  0  0
  152.7964  138.1015  155.3081 C   0  0  0  0  0  0  0  0  0  0  0  0
  151.9241  137.3253  154.4960 O   0  0  0  0  0  0  0  0  0  0  0  0
  150.6541  137.9616  154.4008 C   0  0  0  0  0  0  0  0  0  0  0  0
  142.9629  134.5333  151.3273 N   0  3  2  0  0  0  0  0  0  0  0  0
  141.7623  134.6549  152.1877 C   0  0  0  0  0  0  0  0  0  0  0  0
  143.6189  133.2105  151.4273 C   0  0  0  0  0  0  0  0  0  0  0  0
  145.2085  133.4851  150.0040 H   0  0  0  0  0  0  0  0  0  0  0  0
  144.0800  136.0332  150.4506 H   0  0  0  0  0  0  0  0  0  0  0  0
  146.1176  130.3919  151.8369 H   0  0  0  0  0  0  0  0  0  0  0  0
  145.5553  130.9262  150.2566 H   0  0  0  0  0  0  0  0  0  0  0  0
  144.4521  130.9370  151.6446 H   0  0  0  0  0  0  0  0  0  0  0  0
  145.4915  134.7103  152.7742 H   0  0  0  0  0  0  0  0  0  0  0  0
  146.1988  135.3243  151.2796 H   0  0  0  0  0  0  0  0  0  0  0  0
  144.2933  137.6035  152.1960 H   0  0  0  0  0  0  0  0  0  0  0  0
  142.6928  136.9986  152.4441 H   0  0  0  0  0  0  0  0  0  0  0  0
  143.8130  135.0053  155.4055 H   0  0  0  0  0  0  0  0  0  0  0  0
  142.7540  134.8123  154.0136 H   0  0  0  0  0  0  0  0  0  0  0  0
  142.5047  136.1648  155.1199 H   0  0  0  0  0  0  0  0  0  0  0  0
  145.6838  138.0511  157.5972 H   0  0  0  0  0  0  0  0  0  0  0  0
  147.8368  139.4973  151.7057 H   0  0  0  0  0  0  0  0  0  0  0  0
  149.2766  140.6805  153.3330 H   0  0  0  0  0  0  0  0  0  0  0  0
  148.1750  141.4636  154.4376 H   0  0  0  0  0  0  0  0  0  0  0  0
  148.9660  139.3404  155.9830 H   0  0  0  0  0  0  0  0  0  0  0  0
  148.9147  141.6313  156.8316 H   0  0  0  0  0  0  0  0  0  0  0  0
  150.5034  140.9897  157.1766 H   0  0  0  0  0  0  0  0  0  0  0  0
  149.9541  143.1175  155.8044 H   0  0  0  0  0  0  0  0  0  0  0  0
  151.2743  139.9934  154.1115 H   0  0  0  0  0  0  0  0  0  0  0  0
  152.4776  140.0593  156.2166 H   0  0  0  0  0  0  0  0  0  0  0  0
  151.4750  138.7622  156.8795 H   0  0  0  0  0  0  0  0  0  0  0  0
  153.5429  138.5707  154.6662 H   0  0  0  0  0  0  0  0  0  0  0  0
  153.3180  137.4827  156.0384 H   0  0  0  0  0  0  0  0  0  0  0  0
  149.9509  137.4143  155.0302 H   0  0  0  0  0  0  0  0  0  0  0  0
  150.2840  137.9304  153.3757 H   0  0  0  0  0  0  0  0  0  0  0  0
  142.0230  134.6265  153.2463 H   0  0  0  0  0  0  0  0  0  0  0  0
  141.0778  133.8293  151.9904 H   0  0  0  0  0  0  0  0  0  0  0  0
  141.2207  135.5779  151.9808 H   0  0  0  0  0  0  0  0  0  0  0  0
  143.1493  132.4756  150.7730 H   0  0  0  0  0  0  0  0  0  0  0  0
  143.5395  132.8432  152.4526 H   0  0  0  0  0  0  0  0  0  0  0  0
  142.6288  134.6024  150.3764 H   0  0  0  0  0  0  0  0  0  0  0  0
  1  2  1  0  0  0  0
  1 32  1  0  0  0  0
  1 33  1  0  0  0  0
  1 34  1  0  0  0  0
  2  3  1  0  0  0  0
  3 30  1  0  0  0  0
  3 29  1  0  0  0  0
  3  4  1  0  0  0  0
  4  5  1  0  0  0  0
  4 35  1  0  0  0  0
  4 36  1  0  0  0  0
  5 31  1  0  0  0  0
  5  6  1  0  0  0  0
  5 27  1  0  0  0  0
  6  7  1  0  0  0  0
  6 37  1  0  0  0  0
  6 38  1  0  0  0  0
  7  8  1  0  0  0  0
  7  9  1  0  0  0  0
  8 39  1  0  0  0  0
  8 40  1  0  0  0  0
  8 41  1  0  0  0  0
  9 14  1  0  0  0  0
  9 10  2  0  0  0  0
 10 11  1  0  0  0  0
 11 12  2  0  0  0  0
 11 42  1  0  0  0  0
 12 13  1  0  0  0  0
 13 17  1  0  0  0  0
 13 14  2  0  0  0  0
 14 15  1  0  0  0  0
 15 16  2  0  0  0  0
 16 17  1  0  0  0  0
 16 43  1  0  0  0  0
 17 18  1  0  0  0  0
 18 19  1  0  0  0  0
 18 44  1  0  0  0  0
 18 45  1  0  0  0  0
 19 20  1  0  0  0  0
 19 22  1  0  0  0  0
 19 46  1  0  0  0  0
 20 21  1  0  0  0  0
 20 47  1  0  0  0  0
 20 48  1  0  0  0  0
 21 49  1  0  0  0  0
 22 26  1  0  0  0  0
 22 23  1  0  0  0  0
 22 50  1  0  0  0  0
 23 24  1  0  0  0  0
 23 51  1  0  0  0  0
 23 52  1  0  0  0  0
 24 25  1  0  0  0  0
 24 53  1  0  0  0  0
 24 54  1  0  0  0  0
 25 26  1  0  0  0  0
 26 55  1  0  0  0  0
 26 56  1  0  0  0  0
 27 28  1  0  0  0  0
 27 29  1  0  0  0  0
 27 62  1  0  0  0  0
 28 57  1  0  0  0  0
 28 58  1  0  0  0  0
 28 59  1  0  0  0  0
 29 60  1  0  0  0  0
 29 61  1  0  0  0  0
M  CHG  1  27   1
M  END
> <s_m_source_file>
AV-unprocessed.smi

> <i_m_source_file_index>
21

> <i_lp_mmshare_version>
43012

> <i_f3d_flags>
0

> <s_epik_input>
W0NIM11PW0NASF0xW0NIMl1bQ0BIXShOKFtDSDNdKVtDSDJdMSlbQ0gyXU4oW0NIM10pYyhuW2NIXW4yKWMoYzIzKW5bY0hdbjNbQ0gyXVtDQEhdKFtDSDJdW09IXSlbQ0BASF00W0NIMl1bQ0gyXU9bQ0gyXTQ=

> <s_epik_cmdline>
J2VwaWtfcHl0aG9uJywgJy1waCcsICc3LjAnLCAnLXRuJywgJzgnLCAnLW1hJywgJzIwMCcsICctbWV0YWxfYmluZGluZycsICctaW1hZScsICc8aW5maWxlLm1hZT4nLCAnLW9tYWUnLCAnPG91dGZpbGUubWFlPic=

> <r_lp_tautomer_probability>
1

> <r_epik_Ionization_Penalty>
0.0157465

> <r_epik_Ionization_Penalty_Charging>
0.015354

> <r_epik_Ionization_Penalty_Neutral>
0.000392529

> <r_epik_State_Penalty>
0.0120612

> <r_epik_Charging_Adjusted_Penalty>
0.0274152

> <i_epik_Tot_Q>
1

> <i_epik_Tot_abs_Q>
1

> <r_epik_Metal_State_Penalty>
0.0121253

> <b_epik_Metal_Only>
0

> <s_lp_Force_Field>
OPLS_2005

> <r_lp_Energy>
62.0887

> <b_lp_Chiralities_Consistent>
1

> <s_lp_Variant>
AV-unprocessed.smi:21-12

> <Gold.Version>
5.8.1

> <Gold.Id.Protein>
6NUR|6NUR_protein|mol2

> <Gold.PLP.Fitness>
51.6845

> <Gold.PLP.PLP>
-39.7043

> <Gold.PLP.part.hbond>
-3.0000

> <Gold.PLP.part.metal>
0.0000

> <Gold.PLP.part.buried>
-3.9285

> <Gold.PLP.part.nonpolar>
-33.6940

> <Gold.PLP.part.repulsive>
0.5644

> <Gold.PLP.ligand.clash>
0.0000

> <Gold.PLP.ligand.torsion>
1.6410

> <Gold.PLP.Chemscore.Hbond>
3.8154

> <Gold.PLP.Chemscore.CHOScore>
1.0000

> <Gold.PLP.Chemscore.Metal>
0.0000

> <Gold.Chemscore.Hbonds>
donor molecule, donor type, donor heavy atom, donor atom, acceptor molecule, acceptor atom, score
      L1  H    21    49       P1  8028  1.00
      L1  H    27    62       P1 10186  1.41
      P1  H 10752 10765       L1    25  0.90
      L1  C    16    43       P1  7957  0.66

> <Gold.PLP.Chemscore.Internal.Correction>
0.8160

> <Gold.Rescore>
     Score         DG    S(hbond)    S(metal)    S(lipo)     H(rot)  DE(clash)    DE(int)     intcor
     11.28     -12.77       1.25        0.00      93.96       3.08       0.05       1.45       ----

> <Gold.Chemscore.Fitness>
11.2786

> <Gold.Chemscore.DG>
-12.7741

> <Gold.Chemscore.ZeroCoef>
-5.4800

> <Gold.Chemscore.Hbond>
1.2501

> <Gold.Chemscore.Metal>
0.0000

> <Gold.Chemscore.Lipo>
93.9565

> <Gold.Chemscore.Internal_Hbond>
0.0000

> <Gold.Chemscore.DEClash>
0.0476

> <Gold.Chemscore.DEInternal>
1.4480

> <Gold.Chemscore.Rot>
3.0758

> <Gold.Chemscore.Internal.Correction>
   9.000000E+99

> <Gold.Chemscore.Hbonds>
donor molecule, donor type, donor heavy atom, donor atom, acceptor molecule, acceptor atom, score
      L1  H    21    49       P1  8028  1.00
      L1  H    27    62       P1 10186  0.28
      P1  H 10752 10765       L1    25  0.34

> <Gold.Chemscore.Hbond.Weighted>
-4.1754

> <Gold.Chemscore.Metal.Weighted>
-0.0000

> <Gold.Chemscore.Lipo.Weighted>
-10.9929

> <Gold.Chemscore.Internal_Hbond.Weighted>
0.0000

> <Gold.Chemscore.DEClash.Weighted>
0.0476

> <Gold.Chemscore.DEInternal.Weighted>
1.4480

> <Gold.Chemscore.Rot.Weighted>
7.8741

> <Gold.Chemscore.Internal.Correction.Weighted>
   9.000000E+99

> <Gold.Protein.RotatedTorsions>
[ 6907 6896 6895 6894 ] final -156.35 input  -60.11 | X-H torsion
[ 7974 7965 7964 7962 ] final  -76.81 input  175.53 | X-H torsion
[ 8008 7997 7996 7995 ] final  -13.37 input   59.86 | X-H torsion
[ 10167 10162 10161 10158 ] final   34.91 input  -65.29 | X-H torsion
[ 10718 10713 10712 10709 ] final  -45.55 input   66.30 | X-H torsion
[ 10763 10752 10751 10750 ] final  151.05 input  -60.55 | X-H torsion
[ 11005 11000 10999 10996 ] final -106.55 input  -57.11 | X-H torsion

> <Gold.Protein.ActiveResidues>
 VAL166  LYS551  ARG553  GLY616  TRP617  ASP618  TYR619  PRO620  LYS621  CYS622 
 ASP623  PHE694  ASN695  SER759  ASP760  ASP761  ALA762  ILE779  LEU786  VAL792 
 PHE793  MET794  SER795  GLU796  ALA797  LYS798  CYS799  TRP800  GLU811  SER814 

> <Gold.Protein.RotatedAtoms>
  151.2863  133.4186  159.2629 H   0  0  0  0  0  0  0  0  0  0  0  0  # atno 6907 bound_to 6896
  151.0317  134.9544  159.8125 H   0  0  0  0  0  0  0  0  0  0  0  0  # atno 6908 bound_to 6896
  152.5347  134.2823  159.9065 H   0  0  0  0  0  0  0  0  0  0  0  0  # atno 6909 bound_to 6896
  145.6080  140.9393  143.1205 H   0  0  0  0  0  0  0  0  0  0  0  0  # atno 7974 bound_to 7965
  154.5298  140.2251  155.8824 H   0  0  0  0  0  0  0  0  0  0  0  0  # atno 8008 bound_to 7997
  156.1752  140.3113  155.9010 H   0  0  0  0  0  0  0  0  0  0  0  0  # atno 8009 bound_to 7997
  155.3474  140.0454  157.3036 H   0  0  0  0  0  0  0  0  0  0  0  0  # atno 8010 bound_to 7997
  140.4271  144.1378  150.6154 H   0  0  0  0  0  0  0  0  0  0  0  0  # atno 10167 bound_to 10162
  156.2272  130.4170  149.8920 H   0  0  0  0  0  0  0  0  0  0  0  0  # atno 10718 bound_to 10713
  154.0974  135.2848  155.3259 H   0  0  0  0  0  0  0  0  0  0  0  0  # atno 10763 bound_to 10752
  154.6578  135.5345  153.7984 H   0  0  0  0  0  0  0  0  0  0  0  0  # atno 10764 bound_to 10752
  153.0391  135.6526  154.1140 H   0  0  0  0  0  0  0  0  0  0  0  0  # atno 10765 bound_to 10752
  141.0999  133.8903  157.1869 H   0  0  0  0  0  0  0  0  0  0  0  0  # atno 11005 bound_to 11000
  144.7282  139.7809  143.7357 LP  0  0  0  0  0  0  0  0  0  0  0  0  # atno 17320 bound_to 7965
  146.1526  139.4613  143.0039 LP  0  0  0  0  0  0  0  0  0  0  0  0  # atno 17321 bound_to 7965
  140.4469  143.2503  151.9399 LP  0  0  0  0  0  0  0  0  0  0  0  0  # atno 17342 bound_to 10162
  139.4784  144.5600  151.8254 LP  0  0  0  0  0  0  0  0  0  0  0  0  # atno 17343 bound_to 10162
  156.6546  130.8757  151.3537 LP  0  0  0  0  0  0  0  0  0  0  0  0  # atno 17370 bound_to 10713
  157.7116  130.9447  150.1108 LP  0  0  0  0  0  0  0  0  0  0  0  0  # atno 17371 bound_to 10713
  139.9847  135.0086  156.9834 LP  0  0  0  0  0  0  0  0  0  0  0  0  # atno 17394 bound_to 11000
  140.5048  134.1061  155.7258 LP  0  0  0  0  0  0  0  0  0  0  0  0  # atno 17395 bound_to 11000

$$$$
