AV-unprocessed.smi:290|AV-procd|sdf|2220|dock10
  -GOLD-   2262022 63D 1   1.00000     0.00000
 Structure written by MMmdl.
 59 62  0  0  0  0  0  0  0  0  2 V2000
  151.0006  144.9997  159.0265 C   0  0  0  0  0  0  0  0  0  0  0  0
  152.0464  143.8737  158.9823 C   0  0  1  0  0  0  0  0  0  0  0  0
  152.7750  143.8252  160.2011 O   0  0  0  0  0  0  0  0  0  0  0  0
  153.3902  142.5516  160.2696 C   0  0  0  0  0  0  0  0  0  0  0  0
  152.2712  141.6192  159.8242 C   0  0  0  0  0  0  0  0  0  0  0  0
  151.5193  142.4295  158.7645 C   0  0  1  0  0  0  0  0  0  0  0  0
  150.1309  142.3272  159.0335 O   0  0  0  0  0  0  0  0  0  0  0  0
  151.7821  141.8961  157.3342 C   0  0  0  0  0  0  0  0  0  0  0  0
  151.2313  140.5703  157.0971 N   0  0  0  0  0  0  0  0  0  0  0  0
  151.3936  139.4534  157.8869 C   0  0  0  0  0  0  0  0  0  0  0  0
  150.8012  138.3731  157.4555 N   0  0  0  0  0  0  0  0  0  0  0  0
  150.1748  138.7807  156.2855 C   0  0  0  0  0  0  0  0  0  0  0  0
  149.3621  138.1258  155.3249 C   0  0  0  0  0  0  0  0  0  0  0  0
  149.0387  136.8179  155.4440 N   0  0  0  0  0  0  0  0  0  0  0  0
  150.1681  135.9086  155.3983 C   0  0  0  0  0  0  0  0  0  0  0  0
  149.5672  134.5261  155.1492 C   0  0  0  0  0  0  0  0  0  0  0  0
  148.1349  134.7718  154.6288 C   0  0  2  0  0  0  0  0  0  0  0  0
  147.8613  133.9759  153.3904 N   0  3  1  0  0  0  0  0  0  0  0  0
  148.5032  132.6372  153.4648 C   0  0  0  0  0  0  0  0  0  0  0  0
  146.4287  133.8942  152.9843 C   0  0  0  0  0  0  0  0  0  0  0  0
  146.1577  132.8843  151.8528 C   0  0  0  0  0  0  0  0  0  0  0  0
  147.1089  133.0374  150.8199 O   0  0  0  0  0  0  0  0  0  0  0  0
  148.0571  136.3127  154.4920 C   0  0  1  0  0  0  0  0  0  0  0  0
  146.6630  136.9040  154.7976 C   0  0  0  0  0  0  0  0  0  0  0  0
  148.8946  138.8584  154.2795 N   0  0  0  0  0  0  0  0  0  0  0  0
  149.2105  140.1537  154.1799 C   0  0  0  0  0  0  0  0  0  0  0  0
  149.9593  140.8960  154.9988 N   0  0  0  0  0  0  0  0  0  0  0  0
  150.4269  140.1602  156.0482 C   0  0  0  0  0  0  0  0  0  0  0  0
  147.4295  134.4639  155.4032 H   0  0  0  0  0  0  0  0  0  0  0  0
  148.3734  136.6049  153.4895 H   0  0  0  0  0  0  0  0  0  0  0  0
  150.4221  145.0360  158.1029 H   0  0  0  0  0  0  0  0  0  0  0  0
  151.4825  145.9691  159.1533 H   0  0  0  0  0  0  0  0  0  0  0  0
  150.3055  144.8684  159.8561 H   0  0  0  0  0  0  0  0  0  0  0  0
  152.7778  144.1119  158.2089 H   0  0  0  0  0  0  0  0  0  0  0  0
  154.2349  142.5101  159.5798 H   0  0  0  0  0  0  0  0  0  0  0  0
  153.7504  142.3298  161.2742 H   0  0  0  0  0  0  0  0  0  0  0  0
  152.6474  140.6630  159.4585 H   0  0  0  0  0  0  0  0  0  0  0  0
  151.6309  141.4092  160.6827 H   0  0  0  0  0  0  0  0  0  0  0  0
  149.9591  141.4781  159.4110 H   0  0  0  0  0  0  0  0  0  0  0  0
  151.3570  142.5774  156.5958 H   0  0  0  0  0  0  0  0  0  0  0  0
  152.8538  141.8614  157.1327 H   0  0  0  0  0  0  0  0  0  0  0  0
  151.9736  139.4622  158.7983 H   0  0  0  0  0  0  0  0  0  0  0  0
  150.8484  136.1716  154.5868 H   0  0  0  0  0  0  0  0  0  0  0  0
  150.7313  135.9372  156.3318 H   0  0  0  0  0  0  0  0  0  0  0  0
  150.1897  133.9743  154.4434 H   0  0  0  0  0  0  0  0  0  0  0  0
  149.5338  133.9498  156.0746 H   0  0  0  0  0  0  0  0  0  0  0  0
  147.9633  131.9844  154.1519 H   0  0  0  0  0  0  0  0  0  0  0  0
  149.5346  132.7001  153.8103 H   0  0  0  0  0  0  0  0  0  0  0  0
  148.5409  132.1547  152.4894 H   0  0  0  0  0  0  0  0  0  0  0  0
  145.8220  133.6447  153.8559 H   0  0  0  0  0  0  0  0  0  0  0  0
  146.0809  134.8589  152.6203 H   0  0  0  0  0  0  0  0  0  0  0  0
  146.1508  131.8538  152.2051 H   0  0  0  0  0  0  0  0  0  0  0  0
  145.1692  133.0655  151.4298 H   0  0  0  0  0  0  0  0  0  0  0  0
  147.7061  132.3049  150.8456 H   0  0  0  0  0  0  0  0  0  0  0  0
  145.8846  136.5102  154.1475 H   0  0  0  0  0  0  0  0  0  0  0  0
  146.6588  137.9875  154.6759 H   0  0  0  0  0  0  0  0  0  0  0  0
  146.3635  136.6905  155.8243 H   0  0  0  0  0  0  0  0  0  0  0  0
  148.8054  140.6696  153.3219 H   0  0  0  0  0  0  0  0  0  0  0  0
  148.3224  134.4743  152.6421 H   0  0  0  0  0  0  0  0  0  0  0  0
  1  2  1  0  0  0  0
  1 31  1  0  0  0  0
  1 32  1  0  0  0  0
  1 33  1  0  0  0  0
  2  6  1  0  0  0  0
  2  3  1  0  0  0  0
  2 34  1  0  0  0  0
  3  4  1  0  0  0  0
  4  5  1  0  0  0  0
  4 35  1  0  0  0  0
  4 36  1  0  0  0  0
  5  6  1  0  0  0  0
  5 37  1  0  0  0  0
  5 38  1  0  0  0  0
  6  7  1  0  0  0  0
  6  8  1  0  0  0  0
  7 39  1  0  0  0  0
  8  9  1  0  0  0  0
  8 40  1  0  0  0  0
  8 41  1  0  0  0  0
  9 28  1  0  0  0  0
  9 10  1  0  0  0  0
 10 11  2  0  0  0  0
 10 42  1  0  0  0  0
 11 12  1  0  0  0  0
 12 28  2  0  0  0  0
 12 13  1  0  0  0  0
 13 14  1  0  0  0  0
 13 25  2  0  0  0  0
 14 23  1  0  0  0  0
 14 15  1  0  0  0  0
 15 16  1  0  0  0  0
 15 43  1  0  0  0  0
 15 44  1  0  0  0  0
 16 17  1  0  0  0  0
 16 45  1  0  0  0  0
 16 46  1  0  0  0  0
 17 29  1  0  0  0  0
 17 18  1  0  0  0  0
 17 23  1  0  0  0  0
 18 19  1  0  0  0  0
 18 20  1  0  0  0  0
 18 59  1  0  0  0  0
 19 47  1  0  0  0  0
 19 48  1  0  0  0  0
 19 49  1  0  0  0  0
 20 21  1  0  0  0  0
 20 50  1  0  0  0  0
 20 51  1  0  0  0  0
 21 22  1  0  0  0  0
 21 52  1  0  0  0  0
 21 53  1  0  0  0  0
 22 54  1  0  0  0  0
 23 30  1  0  0  0  0
 23 24  1  0  0  0  0
 24 55  1  0  0  0  0
 24 56  1  0  0  0  0
 24 57  1  0  0  0  0
 25 26  1  0  0  0  0
 26 27  2  0  0  0  0
 26 58  1  0  0  0  0
 27 28  1  0  0  0  0
M  CHG  1  18   1
M  END
> <s_m_source_file>
AV-unprocessed.smi

> <i_m_source_file_index>
290

> <i_lp_mmshare_version>
43012

> <i_f3d_flags>
0

> <s_epik_input>
W0NIMl0xW0NIMl1PW0NAQEhdKFtDSDNdKVtDQEBdMShbT0hdKVtDSDJdbihbY0hdbjIpYyhjMjMpbltjSF1uYzNONFtDSDJdW0NIMl1bQ0BIXShbQ0BIXTRbQ0gzXSlOKFtDSDNdKVtDSDJdW0NIMl1bT0hd

> <s_epik_cmdline>
J2VwaWtfcHl0aG9uJywgJy1waCcsICc3LjAnLCAnLXRuJywgJzgnLCAnLW1hJywgJzIwMCcsICctbWV0YWxfYmluZGluZycsICctaW1hZScsICc8aW5maWxlLm1hZT4nLCAnLW9tYWUnLCAnPG91dGZpbGUubWFlPic=

> <r_lp_tautomer_probability>
1

> <r_epik_Ionization_Penalty>
0.0036983

> <r_epik_Ionization_Penalty_Charging>
0.0032725

> <r_epik_Ionization_Penalty_Neutral>
0.000425798

> <r_epik_State_Penalty>
-0

> <r_epik_Charging_Adjusted_Penalty>
0.0032725

> <i_epik_Tot_Q>
1

> <i_epik_Tot_abs_Q>
1

> <r_epik_Metal_State_Penalty>
-0

> <b_epik_Metal_Only>
0

> <s_lp_Force_Field>
OPLS_2005

> <r_lp_Energy>
65.0723

> <b_lp_Chiralities_Consistent>
1

> <s_lp_Variant>
AV-unprocessed.smi:290-6

> <Gold.Version>
5.8.1

> <Gold.Id.Protein>
6NUR|6NUR_protein|mol2

> <Gold.PLP.Fitness>
48.8405

> <Gold.PLP.PLP>
-37.8105

> <Gold.PLP.part.hbond>
-4.0000

> <Gold.PLP.part.metal>
0.0000

> <Gold.PLP.part.buried>
-2.3924

> <Gold.PLP.part.nonpolar>
-31.3163

> <Gold.PLP.part.repulsive>
0.3905

> <Gold.PLP.ligand.clash>
0.1645

> <Gold.PLP.ligand.torsion>
0.6766

> <Gold.PLP.Chemscore.Hbond>
3.2415

> <Gold.PLP.Chemscore.CHOScore>
0.8669

> <Gold.PLP.Chemscore.Metal>
0.0000

> <Gold.Chemscore.Hbonds>
donor molecule, donor type, donor heavy atom, donor atom, acceptor molecule, acceptor atom, score
      L1  H    18    59       P1  7948  1.90
      L1  H    22    54       P1 10747  1.00
      P1  H  7989  7998       L1    27  0.18
      L1  C    26    58       P1  7957  0.77

> <Gold.PLP.Chemscore.Internal.Correction>
0.2226

> <Gold.Rescore>
     Score         DG    S(hbond)    S(metal)    S(lipo)     H(rot)  DE(clash)    DE(int)     intcor
      7.49     -10.36       1.13        0.00      89.78       3.67       1.15       1.72       ----

> <Gold.Chemscore.Fitness>
7.4871

> <Gold.Chemscore.DG>
-10.3597

> <Gold.Chemscore.ZeroCoef>
-5.4800

> <Gold.Chemscore.Hbond>
1.1257

> <Gold.Chemscore.Metal>
0.0000

> <Gold.Chemscore.Lipo>
89.7791

> <Gold.Chemscore.Internal_Hbond>
0.0000

> <Gold.Chemscore.DEClash>
1.1496

> <Gold.Chemscore.DEInternal>
1.7230

> <Gold.Chemscore.Rot>
3.6658

> <Gold.Chemscore.Internal.Correction>
   9.000000E+99

> <Gold.Chemscore.Hbonds>
donor molecule, donor type, donor heavy atom, donor atom, acceptor molecule, acceptor atom, score
      L1  H    18    59       P1  7948  0.20
      L1  H    22    54       P1 10747  0.96

> <Gold.Chemscore.Hbond.Weighted>
-3.7600

> <Gold.Chemscore.Metal.Weighted>
-0.0000

> <Gold.Chemscore.Lipo.Weighted>
-10.5042

> <Gold.Chemscore.Internal_Hbond.Weighted>
0.0000

> <Gold.Chemscore.DEClash.Weighted>
1.1496

> <Gold.Chemscore.DEInternal.Weighted>
1.7230

> <Gold.Chemscore.Rot.Weighted>
9.3844

> <Gold.Chemscore.Internal.Correction.Weighted>
   9.000000E+99

> <Gold.Protein.RotatedTorsions>
[ 6907 6896 6895 6894 ] final  -51.75 input  -60.11 | X-H torsion
[ 7974 7965 7964 7962 ] final  -15.97 input  175.53 | X-H torsion
[ 8008 7997 7996 7995 ] final  114.31 input   59.86 | X-H torsion
[ 10167 10162 10161 10158 ] final -100.82 input  -65.29 | X-H torsion
[ 10718 10713 10712 10709 ] final   80.02 input   66.30 | X-H torsion
[ 10763 10752 10751 10750 ] final  176.62 input  -60.55 | X-H torsion
[ 11005 11000 10999 10996 ] final  -90.29 input  -57.11 | X-H torsion

> <Gold.Protein.ActiveResidues>
 VAL166  LYS551  ARG553  GLY616  TRP617  ASP618  TYR619  PRO620  LYS621  CYS622 
 ASP623  PHE694  ASN695  SER759  ASP760  ASP761  ALA762  ILE779  LEU786  VAL792 
 PHE793  MET794  SER795  GLU796  ALA797  LYS798  CYS799  TRP800  GLU811  SER814 

> <Gold.Protein.RotatedAtoms>
  150.8582  134.7927  159.7061 H   0  0  0  0  0  0  0  0  0  0  0  0  # atno 6907 bound_to 6896
  152.4627  134.5143  159.9773 H   0  0  0  0  0  0  0  0  0  0  0  0  # atno 6908 bound_to 6896
  151.5252  133.3421  159.2944 H   0  0  0  0  0  0  0  0  0  0  0  0  # atno 6909 bound_to 6896
  146.2008  140.3570  142.8424 H   0  0  0  0  0  0  0  0  0  0  0  0  # atno 7974 bound_to 7965
  156.2313  140.2962  156.0196 H   0  0  0  0  0  0  0  0  0  0  0  0  # atno 8008 bound_to 7997
  155.2217  140.0416  157.2966 H   0  0  0  0  0  0  0  0  0  0  0  0  # atno 8009 bound_to 7997
  154.6001  140.2424  155.7812 H   0  0  0  0  0  0  0  0  0  0  0  0  # atno 8010 bound_to 7997
  140.2478  143.3493  152.0742 H   0  0  0  0  0  0  0  0  0  0  0  0  # atno 10167 bound_to 10162
  157.6794  130.9940  150.2018 H   0  0  0  0  0  0  0  0  0  0  0  0  # atno 10718 bound_to 10713
  154.4835  135.2776  155.1552 H   0  0  0  0  0  0  0  0  0  0  0  0  # atno 10763 bound_to 10752
  154.3252  135.6201  153.5530 H   0  0  0  0  0  0  0  0  0  0  0  0  # atno 10764 bound_to 10752
  152.9878  135.5752  154.5241 H   0  0  0  0  0  0  0  0  0  0  0  0  # atno 10765 bound_to 10752
  141.1568  133.7682  156.9716 H   0  0  0  0  0  0  0  0  0  0  0  0  # atno 11005 bound_to 11000
  144.8680  140.7233  143.6065 LP  0  0  0  0  0  0  0  0  0  0  0  0  # atno 17320 bound_to 7965
  145.3489  139.1711  143.4445 LP  0  0  0  0  0  0  0  0  0  0  0  0  # atno 17321 bound_to 7965
  139.5056  144.6798  151.6038 LP  0  0  0  0  0  0  0  0  0  0  0  0  # atno 17342 bound_to 10162
  140.6064  143.9517  150.6421 LP  0  0  0  0  0  0  0  0  0  0  0  0  # atno 17343 bound_to 10162
  156.2707  130.3721  149.8034 LP  0  0  0  0  0  0  0  0  0  0  0  0  # atno 17370 bound_to 10713
  156.5752  130.8442  151.3368 LP  0  0  0  0  0  0  0  0  0  0  0  0  # atno 17371 bound_to 10713
  140.1126  134.9467  157.2087 LP  0  0  0  0  0  0  0  0  0  0  0  0  # atno 17394 bound_to 11000
  140.3175  134.2954  155.7253 LP  0  0  0  0  0  0  0  0  0  0  0  0  # atno 17395 bound_to 11000

$$$$
