AV-unprocessed.smi:290|AV-procd|sdf|2222|dock8
  -GOLD-   2262022 73D 1   1.00000     0.00000
 Structure written by MMmdl.
 59 62  0  0  0  0  0  0  0  0  2 V2000
  152.9621  142.0501  159.3661 C   0  0  0  0  0  0  0  0  0  0  0  0
  151.7915  143.0358  159.5066 C   0  0  1  0  0  0  0  0  0  0  0  0
  152.3044  144.1084  160.2998 O   0  0  0  0  0  0  0  0  0  0  0  0
  151.9280  145.3595  159.7490 C   0  0  0  0  0  0  0  0  0  0  0  0
  151.8701  145.0824  158.2544 C   0  0  0  0  0  0  0  0  0  0  0  0
  151.2615  143.6883  158.1975 C   0  0  2  0  0  0  0  0  0  0  0  0
  149.8579  143.8419  158.3249 O   0  0  0  0  0  0  0  0  0  0  0  0
  151.5480  142.9791  156.8444 C   0  0  0  0  0  0  0  0  0  0  0  0
  150.9353  141.6656  156.6688 N   0  0  0  0  0  0  0  0  0  0  0  0
  151.1401  140.5257  157.4193 C   0  0  0  0  0  0  0  0  0  0  0  0
  150.4370  139.4852  157.0634 N   0  0  0  0  0  0  0  0  0  0  0  0
  149.6666  139.9481  156.0069 C   0  0  0  0  0  0  0  0  0  0  0  0
  148.6831  139.3565  155.1733 C   0  0  0  0  0  0  0  0  0  0  0  0
  148.3132  138.0643  155.3214 N   0  0  0  0  0  0  0  0  0  0  0  0
  149.4096  137.1177  155.2521 C   0  0  0  0  0  0  0  0  0  0  0  0
  148.7598  135.7539  155.0185 C   0  0  0  0  0  0  0  0  0  0  0  0
  147.3051  136.0399  154.5881 C   0  0  2  0  0  0  0  0  0  0  0  0
  146.9232  135.2288  153.3889 N   0  3  1  0  0  0  0  0  0  0  0  0
  147.1698  133.7818  153.6229 C   0  0  0  0  0  0  0  0  0  0  0  0
  145.5582  135.4915  152.8490 C   0  0  0  0  0  0  0  0  0  0  0  0
  145.5383  135.9035  151.3648 C   0  0  0  0  0  0  0  0  0  0  0  0
  146.1686  137.1557  151.1937 O   0  0  0  0  0  0  0  0  0  0  0  0
  147.2737  137.5789  154.4220 C   0  0  1  0  0  0  0  0  0  0  0  0
  145.9194  138.2298  154.7814 C   0  0  0  0  0  0  0  0  0  0  0  0
  148.1027  140.1334  154.2208 N   0  0  0  0  0  0  0  0  0  0  0  0
  148.4666  141.4132  154.0936 C   0  0  0  0  0  0  0  0  0  0  0  0
  149.3690  142.0983  154.7998 N   0  0  0  0  0  0  0  0  0  0  0  0
  149.9532  141.3177  155.7548 C   0  0  0  0  0  0  0  0  0  0  0  0
  146.6422  135.7753  155.4145 H   0  0  0  0  0  0  0  0  0  0  0  0
  147.5529  137.8380  153.3996 H   0  0  0  0  0  0  0  0  0  0  0  0
  152.6461  141.1089  158.9222 H   0  0  0  0  0  0  0  0  0  0  0  0
  153.3773  141.8072  160.3445 H   0  0  0  0  0  0  0  0  0  0  0  0
  153.7681  142.4659  158.7613 H   0  0  0  0  0  0  0  0  0  0  0  0
  150.9845  142.5451  160.0533 H   0  0  0  0  0  0  0  0  0  0  0  0
  150.9483  145.6466  160.1337 H   0  0  0  0  0  0  0  0  0  0  0  0
  152.6417  146.1422  160.0064 H   0  0  0  0  0  0  0  0  0  0  0  0
  151.3043  145.8333  157.7012 H   0  0  0  0  0  0  0  0  0  0  0  0
  152.8848  145.0687  157.8537 H   0  0  0  0  0  0  0  0  0  0  0  0
  149.4955  144.0085  157.4684 H   0  0  0  0  0  0  0  0  0  0  0  0
  151.2170  143.6101  156.0186 H   0  0  0  0  0  0  0  0  0  0  0  0
  152.6251  142.8715  156.7146 H   0  0  0  0  0  0  0  0  0  0  0  0
  151.8273  140.4784  158.2504 H   0  0  0  0  0  0  0  0  0  0  0  0
  150.0818  137.3603  154.4275 H   0  0  0  0  0  0  0  0  0  0  0  0
  149.9912  137.1305  156.1745 H   0  0  0  0  0  0  0  0  0  0  0  0
  149.3237  135.2035  154.2641 H   0  0  0  0  0  0  0  0  0  0  0  0
  148.7715  135.1586  155.9324 H   0  0  0  0  0  0  0  0  0  0  0  0
  146.4128  133.3602  154.2855 H   0  0  0  0  0  0  0  0  0  0  0  0
  148.1437  133.6038  154.0777 H   0  0  0  0  0  0  0  0  0  0  0  0
  147.1653  133.2191  152.6905 H   0  0  0  0  0  0  0  0  0  0  0  0
  144.9403  134.6042  152.9925 H   0  0  0  0  0  0  0  0  0  0  0  0
  145.0854  136.3034  153.3986 H   0  0  0  0  0  0  0  0  0  0  0  0
  146.0019  135.1590  150.7188 H   0  0  0  0  0  0  0  0  0  0  0  0
  144.5061  135.9963  151.0259 H   0  0  0  0  0  0  0  0  0  0  0  0
  147.0675  137.0846  151.4777 H   0  0  0  0  0  0  0  0  0  0  0  0
  145.0943  137.8565  154.1792 H   0  0  0  0  0  0  0  0  0  0  0  0
  145.9514  139.3101  154.6374 H   0  0  0  0  0  0  0  0  0  0  0  0
  145.6642  138.0482  155.8260 H   0  0  0  0  0  0  0  0  0  0  0  0
  147.9632  141.9683  153.3158 H   0  0  0  0  0  0  0  0  0  0  0  0
  147.5589  135.5122  152.6564 H   0  0  0  0  0  0  0  0  0  0  0  0
  1  2  1  0  0  0  0
  1 31  1  0  0  0  0
  1 32  1  0  0  0  0
  1 33  1  0  0  0  0
  2  6  1  0  0  0  0
  2  3  1  0  0  0  0
  2 34  1  0  0  0  0
  3  4  1  0  0  0  0
  4  5  1  0  0  0  0
  4 35  1  0  0  0  0
  4 36  1  0  0  0  0
  5  6  1  0  0  0  0
  5 37  1  0  0  0  0
  5 38  1  0  0  0  0
  6  7  1  0  0  0  0
  6  8  1  0  0  0  0
  7 39  1  0  0  0  0
  8  9  1  0  0  0  0
  8 40  1  0  0  0  0
  8 41  1  0  0  0  0
  9 28  1  0  0  0  0
  9 10  1  0  0  0  0
 10 11  2  0  0  0  0
 10 42  1  0  0  0  0
 11 12  1  0  0  0  0
 12 28  2  0  0  0  0
 12 13  1  0  0  0  0
 13 14  1  0  0  0  0
 13 25  2  0  0  0  0
 14 23  1  0  0  0  0
 14 15  1  0  0  0  0
 15 16  1  0  0  0  0
 15 43  1  0  0  0  0
 15 44  1  0  0  0  0
 16 17  1  0  0  0  0
 16 45  1  0  0  0  0
 16 46  1  0  0  0  0
 17 29  1  0  0  0  0
 17 18  1  0  0  0  0
 17 23  1  0  0  0  0
 18 19  1  0  0  0  0
 18 20  1  0  0  0  0
 18 59  1  0  0  0  0
 19 47  1  0  0  0  0
 19 48  1  0  0  0  0
 19 49  1  0  0  0  0
 20 21  1  0  0  0  0
 20 50  1  0  0  0  0
 20 51  1  0  0  0  0
 21 22  1  0  0  0  0
 21 52  1  0  0  0  0
 21 53  1  0  0  0  0
 22 54  1  0  0  0  0
 23 30  1  0  0  0  0
 23 24  1  0  0  0  0
 24 55  1  0  0  0  0
 24 56  1  0  0  0  0
 24 57  1  0  0  0  0
 25 26  1  0  0  0  0
 26 27  2  0  0  0  0
 26 58  1  0  0  0  0
 27 28  1  0  0  0  0
M  CHG  1  18   1
M  END
> <s_m_source_file>
AV-unprocessed.smi

> <i_m_source_file_index>
290

> <i_lp_mmshare_version>
43012

> <i_f3d_flags>
0

> <s_epik_input>
W0NIMl0xW0NIMl1PW0NAQEhdKFtDSDNdKVtDQEBdMShbT0hdKVtDSDJdbihbY0hdbjIpYyhjMjMpbltjSF1uYzNONFtDSDJdW0NIMl1bQ0BIXShbQ0BIXTRbQ0gzXSlOKFtDSDNdKVtDSDJdW0NIMl1bT0hd

> <s_epik_cmdline>
J2VwaWtfcHl0aG9uJywgJy1waCcsICc3LjAnLCAnLXRuJywgJzgnLCAnLW1hJywgJzIwMCcsICctbWV0YWxfYmluZGluZycsICctaW1hZScsICc8aW5maWxlLm1hZT4nLCAnLW9tYWUnLCAnPG91dGZpbGUubWFlPic=

> <r_lp_tautomer_probability>
1

> <r_epik_Ionization_Penalty>
0.0036983

> <r_epik_Ionization_Penalty_Charging>
0.0032725

> <r_epik_Ionization_Penalty_Neutral>
0.000425798

> <r_epik_State_Penalty>
-0

> <r_epik_Charging_Adjusted_Penalty>
0.0032725

> <i_epik_Tot_Q>
1

> <i_epik_Tot_abs_Q>
1

> <r_epik_Metal_State_Penalty>
-0

> <b_epik_Metal_Only>
0

> <s_lp_Force_Field>
OPLS_2005

> <r_lp_Energy>
67.3345

> <b_lp_Chiralities_Consistent>
1

> <s_lp_Variant>
AV-unprocessed.smi:290-8

> <Gold.Version>
5.8.1

> <Gold.Id.Protein>
6NUR|6NUR_protein|mol2

> <Gold.PLP.Fitness>
52.5623

> <Gold.PLP.PLP>
-42.0125

> <Gold.PLP.part.hbond>
-5.8539

> <Gold.PLP.part.metal>
0.0000

> <Gold.PLP.part.buried>
-6.2152

> <Gold.PLP.part.nonpolar>
-32.0091

> <Gold.PLP.part.repulsive>
2.2690

> <Gold.PLP.ligand.clash>
0.0000

> <Gold.PLP.ligand.torsion>
0.7974

> <Gold.PLP.Chemscore.Hbond>
4.0000

> <Gold.PLP.Chemscore.CHOScore>
0.0000

> <Gold.PLP.Chemscore.Metal>
0.0000

> <Gold.Chemscore.Hbonds>
donor molecule, donor type, donor heavy atom, donor atom, acceptor molecule, acceptor atom, score
      L1  H     7    39       P1  8028  1.00
      L1  H    18    59       P1  7948  2.00
      L1  H    22    54       P1  7948  0.89

> <Gold.PLP.Chemscore.Internal.Correction>
0.1446

> <Gold.Rescore>
     Score         DG    S(hbond)    S(metal)    S(lipo)     H(rot)  DE(clash)    DE(int)     intcor
     11.19     -16.04       2.54        0.00      98.04       3.67       2.96       1.89       ----

> <Gold.Chemscore.Fitness>
11.1861

> <Gold.Chemscore.DG>
-16.0409

> <Gold.Chemscore.ZeroCoef>
-5.4800

> <Gold.Chemscore.Hbond>
2.5374

> <Gold.Chemscore.Metal>
0.0000

> <Gold.Chemscore.Lipo>
98.0378

> <Gold.Chemscore.Internal_Hbond>
0.0000

> <Gold.Chemscore.DEClash>
2.9603

> <Gold.Chemscore.DEInternal>
1.8945

> <Gold.Chemscore.Rot>
3.6658

> <Gold.Chemscore.Internal.Correction>
   9.000000E+99

> <Gold.Chemscore.Hbonds>
donor molecule, donor type, donor heavy atom, donor atom, acceptor molecule, acceptor atom, score
      L1  H     7    39       P1  8028  0.29
      L1  H    18    59       P1  7948  1.00
      L1  H    22    54       P1  7948  0.87

> <Gold.Chemscore.Hbond.Weighted>
-8.4748

> <Gold.Chemscore.Metal.Weighted>
-0.0000

> <Gold.Chemscore.Lipo.Weighted>
-11.4704

> <Gold.Chemscore.Internal_Hbond.Weighted>
0.0000

> <Gold.Chemscore.DEClash.Weighted>
2.9603

> <Gold.Chemscore.DEInternal.Weighted>
1.8945

> <Gold.Chemscore.Rot.Weighted>
9.3844

> <Gold.Chemscore.Internal.Correction.Weighted>
   9.000000E+99

> <Gold.Protein.RotatedTorsions>
[ 6907 6896 6895 6894 ] final  -59.27 input  -60.11 | X-H torsion
[ 7974 7965 7964 7962 ] final -136.43 input  175.53 | X-H torsion
[ 8008 7997 7996 7995 ] final  128.80 input   59.86 | X-H torsion
[ 10167 10162 10161 10158 ] final   -4.47 input  -65.29 | X-H torsion
[ 10718 10713 10712 10709 ] final -154.91 input   66.30 | X-H torsion
[ 10763 10752 10751 10750 ] final  -26.68 input  -60.55 | X-H torsion
[ 11005 11000 10999 10996 ] final   -6.15 input  -57.11 | X-H torsion

> <Gold.Protein.ActiveResidues>
 VAL166  LYS551  ARG553  GLY616  TRP617  ASP618  TYR619  PRO620  LYS621  CYS622 
 ASP623  PHE694  ASN695  SER759  ASP760  ASP761  ALA762  ILE779  LEU786  VAL792 
 PHE793  MET794  SER795  GLU796  ALA797  LYS798  CYS799  TRP800  GLU811  SER814 

> <Gold.Protein.RotatedAtoms>
  150.7943  134.6990  159.6539 H   0  0  0  0  0  0  0  0  0  0  0  0  # atno 6907 bound_to 6896
  152.4053  134.6214  160.0061 H   0  0  0  0  0  0  0  0  0  0  0  0  # atno 6908 bound_to 6896
  151.6473  133.3286  159.3180 H   0  0  0  0  0  0  0  0  0  0  0  0  # atno 6909 bound_to 6896
  144.8928  140.6665  143.5134 H   0  0  0  0  0  0  0  0  0  0  0  0  # atno 7974 bound_to 7965
  156.2923  140.2636  156.2494 H   0  0  0  0  0  0  0  0  0  0  0  0  # atno 8008 bound_to 7997
  154.9897  140.0389  157.2332 H   0  0  0  0  0  0  0  0  0  0  0  0  # atno 8009 bound_to 7997
  154.7697  140.2776  155.6153 H   0  0  0  0  0  0  0  0  0  0  0  0  # atno 8010 bound_to 7997
  140.6929  143.6420  150.8427 H   0  0  0  0  0  0  0  0  0  0  0  0  # atno 10167 bound_to 10162
  156.5057  130.8412  151.2627 H   0  0  0  0  0  0  0  0  0  0  0  0  # atno 10718 bound_to 10713
  153.7198  135.6945  153.5015 H   0  0  0  0  0  0  0  0  0  0  0  0  # atno 10763 bound_to 10752
  153.2212  135.4369  155.0490 H   0  0  0  0  0  0  0  0  0  0  0  0  # atno 10764 bound_to 10752
  154.8288  135.3461  154.6732 H   0  0  0  0  0  0  0  0  0  0  0  0  # atno 10765 bound_to 10752
  140.6989  133.9007  155.8669 H   0  0  0  0  0  0  0  0  0  0  0  0  # atno 11005 bound_to 11000
  145.3753  139.1649  143.4310 LP  0  0  0  0  0  0  0  0  0  0  0  0  # atno 17320 bound_to 7965
  146.3064  140.3829  142.8686 LP  0  0  0  0  0  0  0  0  0  0  0  0  # atno 17321 bound_to 7965
  140.0134  143.5618  152.2829 LP  0  0  0  0  0  0  0  0  0  0  0  0  # atno 17342 bound_to 10162
  139.6350  144.7649  151.2456 LP  0  0  0  0  0  0  0  0  0  0  0  0  # atno 17343 bound_to 10162
  157.7457  130.9966  150.2787 LP  0  0  0  0  0  0  0  0  0  0  0  0  # atno 17370 bound_to 10713
  156.3289  130.3797  149.7508 LP  0  0  0  0  0  0  0  0  0  0  0  0  # atno 17371 bound_to 10713
  141.0180  134.0928  157.4151 LP  0  0  0  0  0  0  0  0  0  0  0  0  # atno 17394 bound_to 11000
  139.8902  135.0110  156.6724 LP  0  0  0  0  0  0  0  0  0  0  0  0  # atno 17395 bound_to 11000

$$$$
