AV-unprocessed.smi:353|AV-procd|sdf|2402|dock1
  -GOLD-   2262022333D 1   1.00000     0.00000
 Structure written by MMmdl.
 36 37  0  0  0  0  0  0  0  0  1 V2000
  145.8294  137.3316  151.5884 C   0  0  0  0  0  0  0  0  0  0  0  0
  146.4862  138.7144  151.6139 C   0  0  0  0  0  0  0  0  0  0  0  0
  146.2751  139.3793  152.8891 N   0  0  0  0  0  0  0  0  0  0  0  0
  147.1833  139.5403  153.9276 C   0  0  0  0  0  0  0  0  0  0  0  0
  148.5442  139.0316  153.8622 C   0  0  0  0  0  0  0  0  0  0  0  0
  149.3912  139.1793  154.8214 N   0  0  0  0  0  0  0  0  0  0  0  0
  149.0124  139.8475  155.9688 N   0  0  0  0  0  0  0  0  0  0  0  0
  150.0836  139.9732  156.9645 C   0  0  0  0  0  0  0  0  0  0  0  0
  151.4601  140.1320  156.2987 C   0  0  0  0  0  0  0  0  0  0  0  0
  152.4681  140.1602  157.3002 O   0  0  0  0  0  0  0  0  0  0  0  0
  152.4202  141.1564  158.2502 C   0  0  0  0  0  0  0  0  0  0  0  0
  151.7726  142.3548  157.8857 C   0  0  0  0  0  0  0  0  0  0  0  0
  151.6796  143.4285  158.7919 C   0  0  0  0  0  0  0  0  0  0  0  0
  152.2358  143.3120  160.0793 C   0  0  0  0  0  0  0  0  0  0  0  0
  152.1252  144.6261  161.1916 Cl  0  0  0  0  0  0  0  0  0  0  0  0
  152.8824  142.1203  160.4575 C   0  0  0  0  0  0  0  0  0  0  0  0
  152.9746  141.0463  159.5507 C   0  0  0  0  0  0  0  0  0  0  0  0
  147.7734  140.3821  156.1839 C   0  0  0  0  0  0  0  0  0  0  0  0
  147.4797  140.9750  157.2228 O   0  0  0  0  0  0  0  0  0  0  0  0
  146.8340  140.1920  155.0690 C   0  0  0  0  0  0  0  0  0  0  0  0
  145.2376  140.8394  155.2523 Cl  0  0  0  0  0  0  0  0  0  0  0  0
  145.9936  136.8435  150.6276 H   0  0  0  0  0  0  0  0  0  0  0  0
  144.7528  137.4029  151.7455 H   0  0  0  0  0  0  0  0  0  0  0  0
  146.2406  136.6853  152.3644 H   0  0  0  0  0  0  0  0  0  0  0  0
  147.5572  138.6182  151.4330 H   0  0  0  0  0  0  0  0  0  0  0  0
  146.0764  139.3337  150.8155 H   0  0  0  0  0  0  0  0  0  0  0  0
  145.3547  139.7746  153.0204 H   0  0  0  0  0  0  0  0  0  0  0  0
  148.8171  138.5103  152.9450 H   0  0  0  0  0  0  0  0  0  0  0  0
  149.8993  140.8002  157.6524 H   0  0  0  0  0  0  0  0  0  0  0  0
  150.0932  139.0792  157.5904 H   0  0  0  0  0  0  0  0  0  0  0  0
  151.6368  139.2887  155.6296 H   0  0  0  0  0  0  0  0  0  0  0  0
  151.4787  141.0448  155.7008 H   0  0  0  0  0  0  0  0  0  0  0  0
  151.3442  142.4522  156.8988 H   0  0  0  0  0  0  0  0  0  0  0  0
  151.1821  144.3406  158.4967 H   0  0  0  0  0  0  0  0  0  0  0  0
  153.3094  142.0273  161.4451 H   0  0  0  0  0  0  0  0  0  0  0  0
  153.4754  140.1480  159.8777 H   0  0  0  0  0  0  0  0  0  0  0  0
  1  2  1  0  0  0  0
  1 22  1  0  0  0  0
  1 23  1  0  0  0  0
  1 24  1  0  0  0  0
  2  3  1  0  0  0  0
  2 25  1  0  0  0  0
  2 26  1  0  0  0  0
  3  4  1  0  0  0  0
  3 27  1  0  0  0  0
  4 20  2  0  0  0  0
  4  5  1  0  0  0  0
  5  6  2  0  0  0  0
  5 28  1  0  0  0  0
  6  7  1  0  0  0  0
  7  8  1  0  0  0  0
  7 18  1  0  0  0  0
  8  9  1  0  0  0  0
  8 29  1  0  0  0  0
  8 30  1  0  0  0  0
  9 10  1  0  0  0  0
  9 31  1  0  0  0  0
  9 32  1  0  0  0  0
 10 11  1  0  0  0  0
 11 17  1  0  0  0  0
 11 12  2  0  0  0  0
 12 13  1  0  0  0  0
 12 33  1  0  0  0  0
 13 14  2  0  0  0  0
 13 34  1  0  0  0  0
 14 15  1  0  0  0  0
 14 16  1  0  0  0  0
 16 17  2  0  0  0  0
 16 35  1  0  0  0  0
 17 36  1  0  0  0  0
 18 19  2  0  0  0  0
 18 20  1  0  0  0  0
 20 21  1  0  0  0  0
M  END
> <s_m_source_file>
AV-unprocessed.smi

> <i_m_source_file_index>
353

> <i_lp_mmshare_version>
43012

> <i_f3d_flags>
0

> <s_epik_input>
W0NIM11bQ0gyXVtOSF1jMVtjSF1ubihjKD1PKWMxQ2wpW0NIMl1bQ0gyXU9jMltjSF1bY0hdYyhDbClbY0hdW2NIXTI=

> <s_epik_cmdline>
J2VwaWtfcHl0aG9uJywgJy1waCcsICc3LjAnLCAnLXRuJywgJzgnLCAnLW1hJywgJzIwMCcsICctbWV0YWxfYmluZGluZycsICctaW1hZScsICc8aW5maWxlLm1hZT4nLCAnLW9tYWUnLCAnPG91dGZpbGUubWFlPic=

> <r_lp_tautomer_probability>
1

> <r_epik_Ionization_Penalty>
1.47008e-05

> <r_epik_Ionization_Penalty_Charging>
1.08079e-09

> <r_epik_Ionization_Penalty_Neutral>
1.46998e-05

> <r_epik_State_Penalty>
-0

> <r_epik_Charging_Adjusted_Penalty>
1.08079e-09

> <i_epik_Tot_Q>
0

> <i_epik_Tot_abs_Q>
0

> <r_epik_Metal_State_Penalty>
-0

> <b_epik_Metal_Only>
0

> <s_lp_Force_Field>
OPLS_2005

> <r_lp_Energy>
29.5526

> <b_lp_Chiralities_Consistent>
1

> <s_lp_Variant>
AV-unprocessed.smi:353-1

> <Gold.Version>
5.8.1

> <Gold.Id.Protein>
6NUR|6NUR_protein|mol2

> <Gold.PLP.Fitness>
43.8942

> <Gold.PLP.PLP>
-34.1973

> <Gold.PLP.part.hbond>
-2.0000

> <Gold.PLP.part.metal>
0.0000

> <Gold.PLP.part.buried>
-1.3233

> <Gold.PLP.part.nonpolar>
-32.1845

> <Gold.PLP.part.repulsive>
0.1280

> <Gold.PLP.ligand.clash>
0.0340

> <Gold.PLP.ligand.torsion>
0.8216

> <Gold.PLP.Chemscore.Hbond>
1.9920

> <Gold.PLP.Chemscore.CHOScore>
1.7731

> <Gold.PLP.Chemscore.Metal>
0.0000

> <Gold.Chemscore.Hbonds>
donor molecule, donor type, donor heavy atom, donor atom, acceptor molecule, acceptor atom, score
      L1  H     3    27       P1 10175  1.00
      P1  H  7997  8010       L1    10  1.00
      L1  C     5    28       P1  7948  1.00
      L1  C     5    28       P1  7957  0.68

> <Gold.PLP.Chemscore.Internal.Correction>
0.0789

> <Gold.Rescore>
     Score         DG    S(hbond)    S(metal)    S(lipo)     H(rot)  DE(clash)    DE(int)     intcor
     18.51     -19.51       1.45        0.00     114.51       1.64       0.11       0.89       ----

> <Gold.Chemscore.Fitness>
18.5143

> <Gold.Chemscore.DG>
-19.5134

> <Gold.Chemscore.ZeroCoef>
-5.4800

> <Gold.Chemscore.Hbond>
1.4459

> <Gold.Chemscore.Metal>
0.0000

> <Gold.Chemscore.Lipo>
114.5148

> <Gold.Chemscore.Internal_Hbond>
0.0000

> <Gold.Chemscore.DEClash>
0.1094

> <Gold.Chemscore.DEInternal>
0.8897

> <Gold.Chemscore.Rot>
1.6384

> <Gold.Chemscore.Internal.Correction>
   9.000000E+99

> <Gold.Chemscore.Hbonds>
donor molecule, donor type, donor heavy atom, donor atom, acceptor molecule, acceptor atom, score
      L1  H     3    27       P1 10175  0.98
      P1  H  7997  8010       L1    10  0.34

> <Gold.Chemscore.Hbond.Weighted>
-4.8294

> <Gold.Chemscore.Metal.Weighted>
-0.0000

> <Gold.Chemscore.Lipo.Weighted>
-13.3982

> <Gold.Chemscore.Internal_Hbond.Weighted>
0.0000

> <Gold.Chemscore.DEClash.Weighted>
0.1094

> <Gold.Chemscore.DEInternal.Weighted>
0.8897

> <Gold.Chemscore.Rot.Weighted>
4.1943

> <Gold.Chemscore.Internal.Correction.Weighted>
   9.000000E+99

> <Gold.Protein.RotatedTorsions>
[ 6907 6896 6895 6894 ] final -103.07 input  -60.11 | X-H torsion
[ 7974 7965 7964 7962 ] final -126.65 input  175.53 | X-H torsion
[ 8008 7997 7996 7995 ] final   50.03 input   59.86 | X-H torsion
[ 10167 10162 10161 10158 ] final   94.11 input  -65.29 | X-H torsion
[ 10718 10713 10712 10709 ] final -153.20 input   66.30 | X-H torsion
[ 10763 10752 10751 10750 ] final  -51.97 input  -60.55 | X-H torsion
[ 11005 11000 10999 10996 ] final  -48.67 input  -57.11 | X-H torsion

> <Gold.Protein.ActiveResidues>
 VAL166  LYS551  ARG553  GLY616  TRP617  ASP618  TYR619  PRO620  LYS621  CYS622 
 ASP623  PHE694  ASN695  SER759  ASP760  ASP761  ALA762  ILE779  LEU786  VAL792 
 PHE793  MET794  SER795  GLU796  ALA797  LYS798  CYS799  TRP800  GLU811  SER814 

> <Gold.Protein.RotatedAtoms>
  150.7224  134.0485  159.3789 H   0  0  0  0  0  0  0  0  0  0  0  0  # atno 6907 bound_to 6896
  151.8461  135.0571  160.0463 H   0  0  0  0  0  0  0  0  0  0  0  0  # atno 6908 bound_to 6896
  152.2826  133.5448  159.5543 H   0  0  0  0  0  0  0  0  0  0  0  0  # atno 6909 bound_to 6896
  144.9850  140.7678  143.4589 H   0  0  0  0  0  0  0  0  0  0  0  0  # atno 7974 bound_to 7965
  155.4120  140.3442  155.4264 H   0  0  0  0  0  0  0  0  0  0  0  0  # atno 8008 bound_to 7997
  156.1443  140.1551  156.8903 H   0  0  0  0  0  0  0  0  0  0  0  0  # atno 8009 bound_to 7997
  154.4997  140.0818  156.7753 H   0  0  0  0  0  0  0  0  0  0  0  0  # atno 8010 bound_to 7997
  139.8115  144.6771  150.9634 H   0  0  0  0  0  0  0  0  0  0  0  0  # atno 10167 bound_to 10162
  156.4826  130.8310  151.2536 H   0  0  0  0  0  0  0  0  0  0  0  0  # atno 10718 bound_to 10713
  154.1352  135.6514  153.4930 H   0  0  0  0  0  0  0  0  0  0  0  0  # atno 10763 bound_to 10752
  153.0183  135.5302  154.6960 H   0  0  0  0  0  0  0  0  0  0  0  0  # atno 10764 bound_to 10752
  154.6206  135.2964  155.0300 H   0  0  0  0  0  0  0  0  0  0  0  0  # atno 10765 bound_to 10752
  141.0714  133.6678  156.3474 H   0  0  0  0  0  0  0  0  0  0  0  0  # atno 11005 bound_to 11000
  145.2366  139.2091  143.5015 LP  0  0  0  0  0  0  0  0  0  0  0  0  # atno 17320 bound_to 7965
  146.3418  140.2253  142.8592 LP  0  0  0  0  0  0  0  0  0  0  0  0  # atno 17321 bound_to 7965
  140.7817  143.4180  151.0886 LP  0  0  0  0  0  0  0  0  0  0  0  0  # atno 17342 bound_to 10162
  139.7846  143.8305  152.3143 LP  0  0  0  0  0  0  0  0  0  0  0  0  # atno 17343 bound_to 10162
  157.7482  131.0040  150.3058 LP  0  0  0  0  0  0  0  0  0  0  0  0  # atno 17370 bound_to 10713
  156.3506  130.3830  149.7332 LP  0  0  0  0  0  0  0  0  0  0  0  0  # atno 17371 bound_to 10713
  140.5665  134.5883  157.5447 LP  0  0  0  0  0  0  0  0  0  0  0  0  # atno 17394 bound_to 11000
  139.9527  134.7588  156.0411 LP  0  0  0  0  0  0  0  0  0  0  0  0  # atno 17395 bound_to 11000

$$$$
