AV-unprocessed.smi:1457|AV-procd|sdf|5919|dock6
  -GOLD-   22720 6 03D 1   1.00000     0.00000
 Structure written by MMmdl.
 36 37  0  0  0  0  0  0  0  0  2 V2000
  146.7898  138.7056  151.4991 C   0  0  0  0  0  0  0  0  0  0  0  0
  147.4560  139.6398  152.4318 N   0  3  2  0  0  0  0  0  0  0  0  0
  148.0899  138.9390  153.5764 C   0  0  0  0  0  0  0  0  0  0  0  0
  148.8811  139.9215  154.4560 C   0  0  0  0  0  0  0  0  0  0  0  0
  147.9858  141.0714  154.9459 C   0  0  1  0  0  0  0  0  0  0  0  0
  148.7846  142.0417  155.6903 N   0  0  0  0  0  0  0  0  0  0  0  0
  149.6499  141.7541  156.6734 C   0  0  0  0  0  0  0  0  0  0  0  0
  149.8670  140.6126  157.0793 O   0  0  0  0  0  0  0  0  0  0  0  0
  150.2194  142.8707  157.1579 N   0  0  0  0  0  0  0  0  0  0  0  0
  151.2175  142.9866  158.1625 C   0  0  0  0  0  0  0  0  0  0  0  0
  151.8866  141.8850  158.7489 C   0  0  0  0  0  0  0  0  0  0  0  0
  152.8760  142.1296  159.7205 C   0  0  0  0  0  0  0  0  0  0  0  0
  153.1646  143.4642  160.0654 C   0  0  0  0  0  0  0  0  0  0  0  0
  152.5449  144.5241  159.5047 N   0  0  0  0  0  0  0  0  0  0  0  0
  151.5985  144.2818  158.5728 C   0  0  0  0  0  0  0  0  0  0  0  0
  147.3104  141.7537  153.7443 C   0  0  0  0  0  0  0  0  0  0  0  0
  146.5549  140.7317  152.8779 C   0  0  0  0  0  0  0  0  0  0  0  0
  145.9625  138.1882  151.9866 H   0  0  0  0  0  0  0  0  0  0  0  0
  147.4946  137.9574  151.1347 H   0  0  0  0  0  0  0  0  0  0  0  0
  146.3972  139.2405  150.6337 H   0  0  0  0  0  0  0  0  0  0  0  0
  147.3227  138.4381  154.1694 H   0  0  0  0  0  0  0  0  0  0  0  0
  148.7607  138.1632  153.2049 H   0  0  0  0  0  0  0  0  0  0  0  0
  149.3087  139.3917  155.3084 H   0  0  0  0  0  0  0  0  0  0  0  0
  149.7217  140.3208  153.8864 H   0  0  0  0  0  0  0  0  0  0  0  0
  147.2073  140.6474  155.5829 H   0  0  0  0  0  0  0  0  0  0  0  0
  148.6722  143.0116  155.4339 H   0  0  0  0  0  0  0  0  0  0  0  0
  149.8685  143.7448  156.7943 H   0  0  0  0  0  0  0  0  0  0  0  0
  151.6738  140.8663  158.4641 H   0  0  0  0  0  0  0  0  0  0  0  0
  153.4048  141.3119  160.1874 H   0  0  0  0  0  0  0  0  0  0  0  0
  153.9171  143.6861  160.8075 H   0  0  0  0  0  0  0  0  0  0  0  0
  151.1267  145.1534  158.1429 H   0  0  0  0  0  0  0  0  0  0  0  0
  146.6212  142.5250  154.0906 H   0  0  0  0  0  0  0  0  0  0  0  0
  148.0602  142.2605  153.1346 H   0  0  0  0  0  0  0  0  0  0  0  0
  146.1324  141.2355  152.0076 H   0  0  0  0  0  0  0  0  0  0  0  0
  145.7182  140.3104  153.4376 H   0  0  0  0  0  0  0  0  0  0  0  0
  148.2037  140.0774  151.9121 H   0  0  0  0  0  0  0  0  0  0  0  0
  1  2  1  0  0  0  0
  1 18  1  0  0  0  0
  1 19  1  0  0  0  0
  1 20  1  0  0  0  0
  2 17  1  0  0  0  0
  2  3  1  0  0  0  0
  2 36  1  0  0  0  0
  3  4  1  0  0  0  0
  3 21  1  0  0  0  0
  3 22  1  0  0  0  0
  4  5  1  0  0  0  0
  4 23  1  0  0  0  0
  4 24  1  0  0  0  0
  5  6  1  0  0  0  0
  5 16  1  0  0  0  0
  5 25  1  0  0  0  0
  6  7  1  0  0  0  0
  6 26  1  0  0  0  0
  7  8  2  0  0  0  0
  7  9  1  0  0  0  0
  9 10  1  0  0  0  0
  9 27  1  0  0  0  0
 10 15  1  0  0  0  0
 10 11  2  0  0  0  0
 11 12  1  0  0  0  0
 11 28  1  0  0  0  0
 12 13  2  0  0  0  0
 12 29  1  0  0  0  0
 13 14  1  0  0  0  0
 13 30  1  0  0  0  0
 14 15  2  0  0  0  0
 15 31  1  0  0  0  0
 16 17  1  0  0  0  0
 16 32  1  0  0  0  0
 16 33  1  0  0  0  0
 17 34  1  0  0  0  0
 17 35  1  0  0  0  0
M  CHG  1   2   1
M  END
> <s_m_source_file>
AV-unprocessed.smi

> <i_m_source_file_index>
1457

> <i_lp_mmshare_version>
43012

> <i_f3d_flags>
0

> <s_epik_input>
W0NIM11OMVtDSDJdW0NIMl1bQ0hdKFtDSDJdW0NIMl0xKVtOSF1DKD1PKVtOSF1jMltjSF1bY0hdW2NIXW5bY0hdMg==

> <s_epik_cmdline>
J2VwaWtfcHl0aG9uJywgJy1waCcsICc3LjAnLCAnLXRuJywgJzgnLCAnLW1hJywgJzIwMCcsICctbWV0YWxfYmluZGluZycsICctaW1hZScsICc8aW5maWxlLm1hZT4nLCAnLW9tYWUnLCAnPG91dGZpbGUubWFlPic=

> <r_lp_tautomer_probability>
1

> <r_epik_Ionization_Penalty>
0.00766642

> <r_epik_Ionization_Penalty_Charging>
0.00366825

> <r_epik_Ionization_Penalty_Neutral>
0.00399817

> <r_epik_State_Penalty>
-0

> <r_epik_Charging_Adjusted_Penalty>
0.00366825

> <i_epik_Tot_Q>
1

> <i_epik_Tot_abs_Q>
1

> <r_epik_Metal_State_Penalty>
-0

> <b_epik_Metal_Only>
0

> <s_lp_Force_Field>
OPLS_2005

> <r_lp_Energy>
19.7358

> <b_lp_Chiralities_Consistent>
1

> <s_lp_Variant>
AV-unprocessed.smi:1457-1

> <Gold.Version>
5.8.1

> <Gold.Id.Protein>
6NUR|6NUR_protein|mol2

> <Gold.PLP.Fitness>
41.5498

> <Gold.PLP.PLP>
-32.7671

> <Gold.PLP.part.hbond>
-2.8776

> <Gold.PLP.part.metal>
0.0000

> <Gold.PLP.part.buried>
0.5346

> <Gold.PLP.part.nonpolar>
-29.9635

> <Gold.PLP.part.repulsive>
0.2413

> <Gold.PLP.ligand.clash>
0.0000

> <Gold.PLP.ligand.torsion>
0.1093

> <Gold.PLP.Chemscore.Hbond>
3.0000

> <Gold.PLP.Chemscore.CHOScore>
0.0000

> <Gold.PLP.Chemscore.Metal>
0.0000

> <Gold.Chemscore.Hbonds>
donor molecule, donor type, donor heavy atom, donor atom, acceptor molecule, acceptor atom, score
      L1  H     2    36       P1  7957  1.00
      L1  H     6    26       P1  8028  1.00
      L1  H     9    27       P1  8028  1.00

> <Gold.PLP.Chemscore.Internal.Correction>
0.0012

> <Gold.Rescore>
     Score         DG    S(hbond)    S(metal)    S(lipo)     H(rot)  DE(clash)    DE(int)     intcor
     20.60     -24.27       2.95        0.00      98.23       1.00       1.00       2.67       ----

> <Gold.Chemscore.Fitness>
20.5983

> <Gold.Chemscore.DG>
-24.2710

> <Gold.Chemscore.ZeroCoef>
-5.4800

> <Gold.Chemscore.Hbond>
2.9517

> <Gold.Chemscore.Metal>
0.0000

> <Gold.Chemscore.Lipo>
98.2252

> <Gold.Chemscore.Internal_Hbond>
0.0000

> <Gold.Chemscore.DEClash>
1.0021

> <Gold.Chemscore.DEInternal>
2.6706

> <Gold.Chemscore.Rot>
1.0000

> <Gold.Chemscore.Internal.Correction>
   9.000000E+99

> <Gold.Chemscore.Hbonds>
donor molecule, donor type, donor heavy atom, donor atom, acceptor molecule, acceptor atom, score
      L1  H     2    36       P1  7957  0.94
      L1  H     6    26       P1  8028  0.98
      L1  H     9    27       P1  8028  0.97

> <Gold.Chemscore.Hbond.Weighted>
-9.8587

> <Gold.Chemscore.Metal.Weighted>
-0.0000

> <Gold.Chemscore.Lipo.Weighted>
-11.4924

> <Gold.Chemscore.Internal_Hbond.Weighted>
0.0000

> <Gold.Chemscore.DEClash.Weighted>
1.0021

> <Gold.Chemscore.DEInternal.Weighted>
2.6706

> <Gold.Chemscore.Rot.Weighted>
2.5600

> <Gold.Chemscore.Internal.Correction.Weighted>
   9.000000E+99

> <Gold.Protein.RotatedTorsions>
[ 6907 6896 6895 6894 ] final  -47.64 input  -60.11 | X-H torsion
[ 7974 7965 7964 7962 ] final  133.78 input  175.53 | X-H torsion
[ 8008 7997 7996 7995 ] final   24.25 input   59.86 | X-H torsion
[ 10167 10162 10161 10158 ] final -108.71 input  -65.29 | X-H torsion
[ 10718 10713 10712 10709 ] final  171.07 input   66.30 | X-H torsion
[ 10763 10752 10751 10750 ] final    5.75 input  -60.55 | X-H torsion
[ 11005 11000 10999 10996 ] final  -24.89 input  -57.11 | X-H torsion

> <Gold.Protein.ActiveResidues>
 VAL166  LYS551  ARG553  GLY616  TRP617  ASP618  TYR619  PRO620  LYS621  CYS622 
 ASP623  PHE694  ASN695  SER759  ASP760  ASP761  ALA762  ILE779  LEU786  VAL792 
 PHE793  MET794  SER795  GLU796  ALA797  LYS798  CYS799  TRP800  GLU811  SER814 

> <Gold.Protein.RotatedAtoms>
  150.8987  134.8397  159.7344 H   0  0  0  0  0  0  0  0  0  0  0  0  # atno 6907 bound_to 6896
  152.4880  134.4536  159.9592 H   0  0  0  0  0  0  0  0  0  0  0  0  # atno 6908 bound_to 6896
  151.4591  133.3558  159.2842 H   0  0  0  0  0  0  0  0  0  0  0  0  # atno 6909 bound_to 6896
  144.9830  139.4484  143.5377 H   0  0  0  0  0  0  0  0  0  0  0  0  # atno 7974 bound_to 7965
  154.9934  140.3116  155.4897 H   0  0  0  0  0  0  0  0  0  0  0  0  # atno 8008 bound_to 7997
  156.2936  140.2245  156.4980 H   0  0  0  0  0  0  0  0  0  0  0  0  # atno 8009 bound_to 7997
  154.7683  140.0454  157.1018 H   0  0  0  0  0  0  0  0  0  0  0  0  # atno 8010 bound_to 7997
  140.1632  143.4103  152.1410 H   0  0  0  0  0  0  0  0  0  0  0  0  # atno 10167 bound_to 10162
  156.9989  131.0170  151.2836 H   0  0  0  0  0  0  0  0  0  0  0  0  # atno 10718 bound_to 10713
  153.2557  135.6918  153.7631 H   0  0  0  0  0  0  0  0  0  0  0  0  # atno 10763 bound_to 10752
  153.6709  135.3344  155.3154 H   0  0  0  0  0  0  0  0  0  0  0  0  # atno 10764 bound_to 10752
  154.8411  135.4499  154.1530 H   0  0  0  0  0  0  0  0  0  0  0  0  # atno 10765 bound_to 10752
  140.8887  133.7603  156.0393 H   0  0  0  0  0  0  0  0  0  0  0  0  # atno 11005 bound_to 11000
  146.3413  139.9115  142.8779 LP  0  0  0  0  0  0  0  0  0  0  0  0  # atno 17320 bound_to 7965
  145.2393  141.0003  143.3945 LP  0  0  0  0  0  0  0  0  0  0  0  0  # atno 17321 bound_to 7965
  139.5371  144.7221  151.4856 LP  0  0  0  0  0  0  0  0  0  0  0  0  # atno 17342 bound_to 10162
  140.6629  143.8459  150.6909 LP  0  0  0  0  0  0  0  0  0  0  0  0  # atno 17343 bound_to 10162
  157.5404  130.8116  149.8022 LP  0  0  0  0  0  0  0  0  0  0  0  0  # atno 17370 bound_to 10713
  156.0178  130.3807  150.2055 LP  0  0  0  0  0  0  0  0  0  0  0  0  # atno 17371 bound_to 10713
  140.8373  134.3107  157.5326 LP  0  0  0  0  0  0  0  0  0  0  0  0  # atno 17394 bound_to 11000
  139.8727  134.9397  156.3748 LP  0  0  0  0  0  0  0  0  0  0  0  0  # atno 17395 bound_to 11000

$$$$
