AV-unprocessed.smi:2223|AV-procd|sdf|8990|dock7
  -GOLD-   2272012203D 1   1.00000     0.00000
 Structure written by MMmdl.
 46 47  0  0  0  0  0  0  0  0  1 V2000
  143.7692  132.3934  149.9485 C   0  0  0  0  0  0  0  0  0  0  0  0
  144.8626  132.1205  150.9600 C   0  0  0  0  0  0  0  0  0  0  0  0
  145.1334  130.8069  151.3879 C   0  0  0  0  0  0  0  0  0  0  0  0
  146.1652  130.6130  152.3271 C   0  0  0  0  0  0  0  0  0  0  0  0
  146.5105  129.2269  152.8297 C   0  0  0  0  0  0  0  0  0  0  0  0
  146.9044  131.6253  152.8286 N   0  0  0  0  0  0  0  0  0  0  0  0
  146.6545  132.8947  152.4219 C   0  0  0  0  0  0  0  0  0  0  0  0
  147.3741  134.0272  152.8885 N   0  0  0  0  0  0  0  0  0  0  0  0
  147.8515  134.2560  154.1248 C   0  0  0  0  0  0  0  0  0  0  0  0
  147.7425  133.4918  155.0842 O   0  0  0  0  0  0  0  0  0  0  0  0
  148.4816  135.4378  154.1926 N   0  0  0  0  0  0  0  0  0  0  0  0
  149.1247  135.9699  155.3912 C   0  0  1  0  0  0  0  0  0  0  0  0
  150.3655  135.1693  155.7974 C   0  0  0  0  0  0  0  0  0  0  0  0
  151.4052  136.2387  156.0830 C   0  0  0  0  0  0  0  0  0  0  0  0
  152.5026  135.9570  156.5626 O   0  0  0  0  0  0  0  0  0  0  0  0
  150.9686  137.4678  155.7466 N   0  0  0  0  0  0  0  0  0  0  0  0
  151.7265  138.7429  155.8529 C   0  0  0  0  0  0  0  0  0  0  0  0
  152.9957  138.6791  154.9739 C   0  0  0  0  0  0  0  0  0  0  0  0
  152.1757  139.0295  157.3058 C   0  0  0  0  0  0  0  0  0  0  0  0
  150.8348  139.9199  155.3978 C   0  0  0  0  0  0  0  0  0  0  0  0
  149.6286  137.4032  155.1625 C   0  0  0  0  0  0  0  0  0  0  0  0
  145.6344  133.1765  151.4857 C   0  0  0  0  0  0  0  0  0  0  0  0
  142.9953  131.6264  149.9951 H   0  0  0  0  0  0  0  0  0  0  0  0
  144.1840  132.4033  148.9405 H   0  0  0  0  0  0  0  0  0  0  0  0
  143.2997  133.3592  150.1372 H   0  0  0  0  0  0  0  0  0  0  0  0
  144.5662  129.9707  151.0052 H   0  0  0  0  0  0  0  0  0  0  0  0
  145.7496  128.5018  152.5404 H   0  0  0  0  0  0  0  0  0  0  0  0
  146.5869  129.2222  153.9175 H   0  0  0  0  0  0  0  0  0  0  0  0
  147.4662  128.9042  152.4162 H   0  0  0  0  0  0  0  0  0  0  0  0
  147.5520  134.7420  152.1988 H   0  0  0  0  0  0  0  0  0  0  0  0
  148.5264  136.0053  153.3591 H   0  0  0  0  0  0  0  0  0  0  0  0
  148.4140  135.9749  156.2205 H   0  0  0  0  0  0  0  0  0  0  0  0
  150.1822  134.5497  156.6758 H   0  0  0  0  0  0  0  0  0  0  0  0
  150.7282  134.5291  154.9919 H   0  0  0  0  0  0  0  0  0  0  0  0
  153.6013  139.5785  155.0913 H   0  0  0  0  0  0  0  0  0  0  0  0
  152.7647  138.5942  153.9123 H   0  0  0  0  0  0  0  0  0  0  0  0
  153.6211  137.8276  155.2446 H   0  0  0  0  0  0  0  0  0  0  0  0
  152.8526  138.2618  157.6818 H   0  0  0  0  0  0  0  0  0  0  0  0
  151.3291  139.1016  157.9895 H   0  0  0  0  0  0  0  0  0  0  0  0
  152.7124  139.9768  157.3695 H   0  0  0  0  0  0  0  0  0  0  0  0
  151.3478  140.8741  155.5216 H   0  0  0  0  0  0  0  0  0  0  0  0
  149.9145  139.9662  155.9812 H   0  0  0  0  0  0  0  0  0  0  0  0
  150.5552  139.8477  154.3471 H   0  0  0  0  0  0  0  0  0  0  0  0
  149.6962  137.6387  154.0988 H   0  0  0  0  0  0  0  0  0  0  0  0
  148.9450  138.1151  155.6255 H   0  0  0  0  0  0  0  0  0  0  0  0
  145.4457  134.1925  151.1694 H   0  0  0  0  0  0  0  0  0  0  0  0
  1  2  1  0  0  0  0
  1 23  1  0  0  0  0
  1 24  1  0  0  0  0
  1 25  1  0  0  0  0
  2 22  1  0  0  0  0
  2  3  2  0  0  0  0
  3  4  1  0  0  0  0
  3 26  1  0  0  0  0
  4  5  1  0  0  0  0
  4  6  2  0  0  0  0
  5 27  1  0  0  0  0
  5 28  1  0  0  0  0
  5 29  1  0  0  0  0
  6  7  1  0  0  0  0
  7  8  1  0  0  0  0
  7 22  2  0  0  0  0
  8  9  1  0  0  0  0
  8 30  1  0  0  0  0
  9 10  2  0  0  0  0
  9 11  1  0  0  0  0
 11 12  1  0  0  0  0
 11 31  1  0  0  0  0
 12 21  1  0  0  0  0
 12 13  1  0  0  0  0
 12 32  1  0  0  0  0
 13 14  1  0  0  0  0
 13 33  1  0  0  0  0
 13 34  1  0  0  0  0
 14 15  2  0  0  0  0
 14 16  1  0  0  0  0
 16 17  1  0  0  0  0
 16 21  1  0  0  0  0
 17 18  1  0  0  0  0
 17 19  1  0  0  0  0
 17 20  1  0  0  0  0
 18 35  1  0  0  0  0
 18 36  1  0  0  0  0
 18 37  1  0  0  0  0
 19 38  1  0  0  0  0
 19 39  1  0  0  0  0
 19 40  1  0  0  0  0
 20 41  1  0  0  0  0
 20 42  1  0  0  0  0
 20 43  1  0  0  0  0
 21 44  1  0  0  0  0
 21 45  1  0  0  0  0
 22 46  1  0  0  0  0
M  END
> <s_m_source_file>
AV-unprocessed.smi

> <i_m_source_file_index>
2223

> <i_lp_mmshare_version>
43012

> <i_f3d_flags>
0

> <s_epik_input>
W0NIM11jMVtjSF1jKFtDSDNdKW5jKFtjSF0xKVtOSF1DKD1PKVtOSF1bQ0BASF0yW0NIMl1DKD1PKU4oW0NIMl0yKUMoW0NIM10pKFtDSDNdKVtDSDNd

> <s_epik_cmdline>
J2VwaWtfcHl0aG9uJywgJy1waCcsICc3LjAnLCAnLXRuJywgJzgnLCAnLW1hJywgJzIwMCcsICctbWV0YWxfYmluZGluZycsICctaW1hZScsICc8aW5maWxlLm1hZT4nLCAnLW9tYWUnLCAnPG91dGZpbGUubWFlPic=

> <r_lp_tautomer_probability>
1

> <r_epik_Ionization_Penalty>
0.000228403

> <r_epik_Ionization_Penalty_Charging>
0

> <r_epik_Ionization_Penalty_Neutral>
0.000228403

> <r_epik_State_Penalty>
-0

> <r_epik_Charging_Adjusted_Penalty>
0

> <i_epik_Tot_Q>
0

> <i_epik_Tot_abs_Q>
0

> <r_epik_Metal_State_Penalty>
-0

> <b_epik_Metal_Only>
0

> <s_lp_Force_Field>
OPLS_2005

> <r_lp_Energy>
29.0753

> <b_lp_Chiralities_Consistent>
1

> <s_lp_Variant>
AV-unprocessed.smi:2223-2

> <Gold.Version>
5.8.1

> <Gold.Id.Protein>
6NUR|6NUR_protein|mol2

> <Gold.PLP.Fitness>
43.7049

> <Gold.PLP.PLP>
-36.2559

> <Gold.PLP.part.hbond>
-2.7143

> <Gold.PLP.part.metal>
0.0000

> <Gold.PLP.part.buried>
-3.3772

> <Gold.PLP.part.nonpolar>
-29.9694

> <Gold.PLP.part.repulsive>
0.1541

> <Gold.PLP.ligand.clash>
0.0000

> <Gold.PLP.ligand.torsion>
0.3555

> <Gold.PLP.Chemscore.Hbond>
2.7108

> <Gold.PLP.Chemscore.CHOScore>
0.0000

> <Gold.PLP.Chemscore.Metal>
0.0000

> <Gold.Chemscore.Hbonds>
donor molecule, donor type, donor heavy atom, donor atom, acceptor molecule, acceptor atom, score
      L1  H     8    30       P1  7948  0.77
      L1  H    11    31       P1  7948  1.00
      P1  H 10752 10765       L1    15  1.00

> <Gold.PLP.Chemscore.Internal.Correction>
0.0277

> <Gold.Rescore>
     Score         DG    S(hbond)    S(metal)    S(lipo)     H(rot)  DE(clash)    DE(int)     intcor
     19.34     -20.67       2.32        0.00      90.04       1.21       0.08       1.25       ----

> <Gold.Chemscore.Fitness>
19.3403

> <Gold.Chemscore.DG>
-20.6738

> <Gold.Chemscore.ZeroCoef>
-5.4800

> <Gold.Chemscore.Hbond>
2.3188

> <Gold.Chemscore.Metal>
0.0000

> <Gold.Chemscore.Lipo>
90.0417

> <Gold.Chemscore.Internal_Hbond>
0.0000

> <Gold.Chemscore.DEClash>
0.0786

> <Gold.Chemscore.DEInternal>
1.2549

> <Gold.Chemscore.Rot>
1.2055

> <Gold.Chemscore.Internal.Correction>
   9.000000E+99

> <Gold.Chemscore.Hbonds>
donor molecule, donor type, donor heavy atom, donor atom, acceptor molecule, acceptor atom, score
      L1  H     8    30       P1  7948  0.58
      L1  H    11    31       P1  7948  0.91
      P1  H 10752 10765       L1    15  0.30

> <Gold.Chemscore.Hbond.Weighted>
-7.7450

> <Gold.Chemscore.Metal.Weighted>
-0.0000

> <Gold.Chemscore.Lipo.Weighted>
-10.5349

> <Gold.Chemscore.Internal_Hbond.Weighted>
0.0000

> <Gold.Chemscore.DEClash.Weighted>
0.0786

> <Gold.Chemscore.DEInternal.Weighted>
1.2549

> <Gold.Chemscore.Rot.Weighted>
3.0861

> <Gold.Chemscore.Internal.Correction.Weighted>
   9.000000E+99

> <Gold.Protein.RotatedTorsions>
[ 6907 6896 6895 6894 ] final -167.22 input  -60.11 | X-H torsion
[ 7974 7965 7964 7962 ] final  -85.11 input  175.53 | X-H torsion
[ 8008 7997 7996 7995 ] final  -12.90 input   59.86 | X-H torsion
[ 10167 10162 10161 10158 ] final  -55.73 input  -65.29 | X-H torsion
[ 10718 10713 10712 10709 ] final  111.18 input   66.30 | X-H torsion
[ 10763 10752 10751 10750 ] final -137.76 input  -60.55 | X-H torsion
[ 11005 11000 10999 10996 ] final -109.47 input  -57.11 | X-H torsion

> <Gold.Protein.ActiveResidues>
 VAL166  LYS551  ARG553  GLY616  TRP617  ASP618  TYR619  PRO620  LYS621  CYS622 
 ASP623  PHE694  ASN695  SER759  ASP760  ASP761  ALA762  ILE779  LEU786  VAL792 
 PHE793  MET794  SER795  GLU796  ALA797  LYS798  CYS799  TRP800  GLU811  SER814 

> <Gold.Protein.RotatedAtoms>
  151.4560  133.3605  159.2801 H   0  0  0  0  0  0  0  0  0  0  0  0  # atno 6907 bound_to 6896
  150.9058  134.8474  159.7402 H   0  0  0  0  0  0  0  0  0  0  0  0  # atno 6908 bound_to 6896
  152.4905  134.4485  159.9618 H   0  0  0  0  0  0  0  0  0  0  0  0  # atno 6909 bound_to 6896
  145.4976  140.9549  143.1777 H   0  0  0  0  0  0  0  0  0  0  0  0  # atno 7974 bound_to 7965
  154.5338  140.2264  155.8758 H   0  0  0  0  0  0  0  0  0  0  0  0  # atno 8008 bound_to 7997
  156.1791  140.3104  155.9077 H   0  0  0  0  0  0  0  0  0  0  0  0  # atno 8009 bound_to 7997
  155.3397  140.0450  157.3035 H   0  0  0  0  0  0  0  0  0  0  0  0  # atno 8010 bound_to 7997
  140.6358  143.2481  151.5122 H   0  0  0  0  0  0  0  0  0  0  0  0  # atno 10167 bound_to 10162
  157.6458  131.0946  150.6710 H   0  0  0  0  0  0  0  0  0  0  0  0  # atno 10718 bound_to 10713
  154.8654  135.3632  154.5275 H   0  0  0  0  0  0  0  0  0  0  0  0  # atno 10763 bound_to 10752
  153.5902  135.7016  153.5431 H   0  0  0  0  0  0  0  0  0  0  0  0  # atno 10764 bound_to 10752
  153.3380  135.4106  155.1511 H   0  0  0  0  0  0  0  0  0  0  0  0  # atno 10765 bound_to 10752
  141.0845  133.9162  157.2215 H   0  0  0  0  0  0  0  0  0  0  0  0  # atno 11005 bound_to 11000
  144.7798  139.6551  143.7159 LP  0  0  0  0  0  0  0  0  0  0  0  0  # atno 17320 bound_to 7965
  146.2246  139.5698  142.9596 LP  0  0  0  0  0  0  0  0  0  0  0  0  # atno 17321 bound_to 7965
  139.5568  144.2255  152.1626 LP  0  0  0  0  0  0  0  0  0  0  0  0  # atno 17342 bound_to 10162
  140.1511  144.5114  150.6687 LP  0  0  0  0  0  0  0  0  0  0  0  0  # atno 17343 bound_to 10162
  156.7028  130.4628  149.5568 LP  0  0  0  0  0  0  0  0  0  0  0  0  # atno 17370 bound_to 10713
  156.1784  130.6482  151.0922 LP  0  0  0  0  0  0  0  0  0  0  0  0  # atno 17371 bound_to 10713
  139.9662  135.0141  156.9394 LP  0  0  0  0  0  0  0  0  0  0  0  0  # atno 17394 bound_to 11000
  140.5393  134.0736  155.7337 LP  0  0  0  0  0  0  0  0  0  0  0  0  # atno 17395 bound_to 11000

$$$$
