AV-unprocessed.smi:21|AV-procd|sdf|155|dock9
  -GOLD-   2262015383D 1   1.00000     0.00000
 Structure written by MMmdl.
 61 64  0  0  0  0  0  0  0  0  1 V2000
  145.8477  131.8563  151.3630 C   0  0  0  0  0  0  0  0  0  0  0  0
  145.9278  132.5106  152.6190 O   0  0  0  0  0  0  0  0  0  0  0  0
  147.2491  132.8959  152.9711 C   0  0  1  0  0  0  0  0  0  0  0  0
  147.2561  133.6073  154.3332 C   0  0  0  0  0  0  0  0  0  0  0  0
  148.1273  132.7175  155.2347 C   0  0  2  0  0  0  0  0  0  0  0  0
  148.8435  133.4912  156.3632 C   0  0  0  0  0  0  0  0  0  0  0  0
  149.7357  134.5353  155.8500 N   0  0  0  0  0  0  0  0  0  0  0  0
  150.7779  134.1304  154.9142 C   0  0  0  0  0  0  0  0  0  0  0  0
  149.7744  135.7724  156.4278 C   0  0  0  0  0  0  0  0  0  0  0  0
  149.0143  135.9901  157.5346 N   0  0  0  0  0  0  0  0  0  0  0  0
  149.0152  137.1734  158.1511 C   0  0  0  0  0  0  0  0  0  0  0  0
  149.6926  138.2751  157.8338 N   0  0  0  0  0  0  0  0  0  0  0  0
  150.4527  138.0827  156.7198 C   0  0  0  0  0  0  0  0  0  0  0  0
  150.5544  136.8781  155.9611 C   0  0  0  0  0  0  0  0  0  0  0  0
  151.4392  137.0785  154.9051 N   0  0  0  0  0  0  0  0  0  0  0  0
  151.8280  138.3167  155.0291 C   0  0  0  0  0  0  0  0  0  0  0  0
  151.2804  138.9968  156.0906 N   0  0  0  0  0  0  0  0  0  0  0  0
  151.5433  140.3788  156.4564 C   0  0  0  0  0  0  0  0  0  0  0  0
  150.2372  141.1836  156.6974 C   0  0  2  0  0  0  0  0  0  0  0  0
  149.5509  141.5333  155.3577 C   0  0  0  0  0  0  0  0  0  0  0  0
  148.3304  142.2105  155.5763 O   0  0  0  0  0  0  0  0  0  0  0  0
  150.4933  142.4600  157.5393 C   0  0  2  0  0  0  0  0  0  0  0  0
  151.3512  143.5140  156.8609 C   0  0  0  0  0  0  0  0  0  0  0  0
  151.8207  144.3622  158.0365 C   0  0  0  0  0  0  0  0  0  0  0  0
  151.9303  143.4674  159.1364 O   0  0  0  0  0  0  0  0  0  0  0  0
  151.3057  142.2279  158.8194 C   0  0  0  0  0  0  0  0  0  0  0  0
  149.0171  132.0261  154.3151 N   0  0  0  0  0  0  0  0  0  0  0  0
  149.6654  130.8547  154.8895 C   0  0  0  0  0  0  0  0  0  0  0  0
  148.1612  131.6827  153.1969 C   0  0  0  0  0  0  0  0  0  0  0  0
  147.6710  133.5643  152.2182 H   0  0  0  0  0  0  0  0  0  0  0  0
  147.4697  131.9745  155.6899 H   0  0  0  0  0  0  0  0  0  0  0  0
  144.8096  131.6011  151.1512 H   0  0  0  0  0  0  0  0  0  0  0  0
  146.4277  130.9330  151.3530 H   0  0  0  0  0  0  0  0  0  0  0  0
  146.2042  132.5020  150.5596 H   0  0  0  0  0  0  0  0  0  0  0  0
  147.7014  134.5959  154.2174 H   0  0  0  0  0  0  0  0  0  0  0  0
  146.2560  133.7422  154.7468 H   0  0  0  0  0  0  0  0  0  0  0  0
  148.1037  133.9884  156.9899 H   0  0  0  0  0  0  0  0  0  0  0  0
  149.3525  132.7978  157.0323 H   0  0  0  0  0  0  0  0  0  0  0  0
  150.8719  134.8509  154.1014 H   0  0  0  0  0  0  0  0  0  0  0  0
  150.5467  133.1623  154.4689 H   0  0  0  0  0  0  0  0  0  0  0  0
  151.7382  134.0396  155.4227 H   0  0  0  0  0  0  0  0  0  0  0  0
  148.3823  137.2470  159.0231 H   0  0  0  0  0  0  0  0  0  0  0  0
  152.5289  138.7704  154.3440 H   0  0  0  0  0  0  0  0  0  0  0  0
  152.1930  140.3953  157.3316 H   0  0  0  0  0  0  0  0  0  0  0  0
  152.1381  140.8207  155.6561 H   0  0  0  0  0  0  0  0  0  0  0  0
  149.5385  140.5631  157.2623 H   0  0  0  0  0  0  0  0  0  0  0  0
  150.1774  142.1885  154.7533 H   0  0  0  0  0  0  0  0  0  0  0  0
  149.3666  140.6343  154.7688 H   0  0  0  0  0  0  0  0  0  0  0  0
  148.5141  143.1299  155.6961 H   0  0  0  0  0  0  0  0  0  0  0  0
  149.5394  142.9157  157.8108 H   0  0  0  0  0  0  0  0  0  0  0  0
  152.2060  143.0521  156.3645 H   0  0  0  0  0  0  0  0  0  0  0  0
  150.8065  144.1063  156.1264 H   0  0  0  0  0  0  0  0  0  0  0  0
  152.7654  144.8675  157.8354 H   0  0  0  0  0  0  0  0  0  0  0  0
  151.0753  145.1204  158.2793 H   0  0  0  0  0  0  0  0  0  0  0  0
  150.6887  141.8833  159.6494 H   0  0  0  0  0  0  0  0  0  0  0  0
  152.0888  141.4871  158.6521 H   0  0  0  0  0  0  0  0  0  0  0  0
  150.2705  130.3463  154.1385 H   0  0  0  0  0  0  0  0  0  0  0  0
  148.9326  130.1432  155.2721 H   0  0  0  0  0  0  0  0  0  0  0  0
  150.3276  131.1352  155.7081 H   0  0  0  0  0  0  0  0  0  0  0  0
  147.5505  130.8149  153.4532 H   0  0  0  0  0  0  0  0  0  0  0  0
  148.7413  131.4282  152.3094 H   0  0  0  0  0  0  0  0  0  0  0  0
  1  2  1  0  0  0  0
  1 32  1  0  0  0  0
  1 33  1  0  0  0  0
  1 34  1  0  0  0  0
  2  3  1  0  0  0  0
  3 30  1  0  0  0  0
  3 29  1  0  0  0  0
  3  4  1  0  0  0  0
  4  5  1  0  0  0  0
  4 35  1  0  0  0  0
  4 36  1  0  0  0  0
  5 31  1  0  0  0  0
  5  6  1  0  0  0  0
  5 27  1  0  0  0  0
  6  7  1  0  0  0  0
  6 37  1  0  0  0  0
  6 38  1  0  0  0  0
  7  8  1  0  0  0  0
  7  9  1  0  0  0  0
  8 39  1  0  0  0  0
  8 40  1  0  0  0  0
  8 41  1  0  0  0  0
  9 14  1  0  0  0  0
  9 10  2  0  0  0  0
 10 11  1  0  0  0  0
 11 12  2  0  0  0  0
 11 42  1  0  0  0  0
 12 13  1  0  0  0  0
 13 17  1  0  0  0  0
 13 14  2  0  0  0  0
 14 15  1  0  0  0  0
 15 16  2  0  0  0  0
 16 17  1  0  0  0  0
 16 43  1  0  0  0  0
 17 18  1  0  0  0  0
 18 19  1  0  0  0  0
 18 44  1  0  0  0  0
 18 45  1  0  0  0  0
 19 20  1  0  0  0  0
 19 22  1  0  0  0  0
 19 46  1  0  0  0  0
 20 21  1  0  0  0  0
 20 47  1  0  0  0  0
 20 48  1  0  0  0  0
 21 49  1  0  0  0  0
 22 26  1  0  0  0  0
 22 23  1  0  0  0  0
 22 50  1  0  0  0  0
 23 24  1  0  0  0  0
 23 51  1  0  0  0  0
 23 52  1  0  0  0  0
 24 25  1  0  0  0  0
 24 53  1  0  0  0  0
 24 54  1  0  0  0  0
 25 26  1  0  0  0  0
 26 55  1  0  0  0  0
 26 56  1  0  0  0  0
 27 28  1  0  0  0  0
 27 29  1  0  0  0  0
 28 57  1  0  0  0  0
 28 58  1  0  0  0  0
 28 59  1  0  0  0  0
 29 60  1  0  0  0  0
 29 61  1  0  0  0  0
M  END
> <s_m_source_file>
AV-unprocessed.smi

> <i_m_source_file_index>
21

> <i_lp_mmshare_version>
43012

> <i_f3d_flags>
0

> <s_epik_input>
W0NIM11PW0NASF0xW0NIMl1bQ0BIXShOKFtDSDNdKVtDSDJdMSlbQ0gyXU4oW0NIM10pYyhuW2NIXW4yKWMoYzIzKW5bY0hdbjNbQ0gyXVtDQEhdKFtDSDJdW09IXSlbQ0BASF00W0NIMl1bQ0gyXU9bQ0gyXTQ=

> <s_epik_cmdline>
J2VwaWtfcHl0aG9uJywgJy1waCcsICc3LjAnLCAnLXRuJywgJzgnLCAnLW1hJywgJzIwMCcsICctbWV0YWxfYmluZGluZycsICctaW1hZScsICc8aW5maWxlLm1hZT4nLCAnLW9tYWUnLCAnPG91dGZpbGUubWFlPic=

> <r_lp_tautomer_probability>
1

> <r_epik_Ionization_Penalty>
2.17574

> <r_epik_Ionization_Penalty_Charging>
0

> <r_epik_Ionization_Penalty_Neutral>
2.17574

> <r_epik_State_Penalty>
2.31336

> <r_epik_Charging_Adjusted_Penalty>
2.31336

> <i_epik_Tot_Q>
0

> <i_epik_Tot_abs_Q>
0

> <r_epik_Metal_State_Penalty>
2.31025

> <b_epik_Metal_Only>
0

> <s_lp_Force_Field>
OPLS_2005

> <r_lp_Energy>
70.8096

> <b_lp_Chiralities_Consistent>
1

> <s_lp_Variant>
AV-unprocessed.smi:21-35

> <Gold.Version>
5.8.1

> <Gold.Id.Protein>
6NUR|6NUR_protein|mol2

> <Gold.PLP.Fitness>
42.0398

> <Gold.PLP.PLP>
-36.5798

> <Gold.PLP.part.hbond>
-1.7660

> <Gold.PLP.part.metal>
0.0000

> <Gold.PLP.part.buried>
-7.7404

> <Gold.PLP.part.nonpolar>
-27.9938

> <Gold.PLP.part.repulsive>
0.2990

> <Gold.PLP.ligand.clash>
0.0000

> <Gold.PLP.ligand.torsion>
0.4965

> <Gold.PLP.Chemscore.Hbond>
1.9750

> <Gold.PLP.Chemscore.CHOScore>
0.0000

> <Gold.PLP.Chemscore.Metal>
0.0000

> <Gold.Chemscore.Hbonds>
donor molecule, donor type, donor heavy atom, donor atom, acceptor molecule, acceptor atom, score
      L1  H    21    49       P1  8028  1.00
      P1  H 10752 10765       L1    15  0.75

> <Gold.PLP.Chemscore.Internal.Correction>
0.5280

> <Gold.Rescore>
     Score         DG    S(hbond)    S(metal)    S(lipo)     H(rot)  DE(clash)    DE(int)     intcor
     11.73     -15.64       1.84        0.00      99.96       3.00       1.16       2.75       ----

> <Gold.Chemscore.Fitness>
11.7337

> <Gold.Chemscore.DG>
-15.6432

> <Gold.Chemscore.ZeroCoef>
-5.4800

> <Gold.Chemscore.Hbond>
1.8431

> <Gold.Chemscore.Metal>
0.0000

> <Gold.Chemscore.Lipo>
99.9589

> <Gold.Chemscore.Internal_Hbond>
0.0000

> <Gold.Chemscore.DEClash>
1.1564

> <Gold.Chemscore.DEInternal>
2.7531

> <Gold.Chemscore.Rot>
3.0031

> <Gold.Chemscore.Internal.Correction>
   9.000000E+99

> <Gold.Chemscore.Hbonds>
donor molecule, donor type, donor heavy atom, donor atom, acceptor molecule, acceptor atom, score
      L1  H    21    49       P1  8028  0.98
      P1  H 10752 10765       L1    15  0.68

> <Gold.Chemscore.Hbond.Weighted>
-6.1560

> <Gold.Chemscore.Metal.Weighted>
-0.0000

> <Gold.Chemscore.Lipo.Weighted>
-11.6952

> <Gold.Chemscore.Internal_Hbond.Weighted>
0.0000

> <Gold.Chemscore.DEClash.Weighted>
1.1564

> <Gold.Chemscore.DEInternal.Weighted>
2.7531

> <Gold.Chemscore.Rot.Weighted>
7.6880

> <Gold.Chemscore.Internal.Correction.Weighted>
   9.000000E+99

> <Gold.Protein.RotatedTorsions>
[ 6907 6896 6895 6894 ] final   66.17 input  -60.11 | X-H torsion
[ 7974 7965 7964 7962 ] final  -39.01 input  175.53 | X-H torsion
[ 8008 7997 7996 7995 ] final  154.38 input   59.86 | X-H torsion
[ 10167 10162 10161 10158 ] final  126.57 input  -65.29 | X-H torsion
[ 10718 10713 10712 10709 ] final  -41.89 input   66.30 | X-H torsion
[ 10763 10752 10751 10750 ] final  165.88 input  -60.55 | X-H torsion
[ 11005 11000 10999 10996 ] final  -57.80 input  -57.11 | X-H torsion

> <Gold.Protein.ActiveResidues>
 VAL166  LYS551  ARG553  GLY616  TRP617  ASP618  TYR619  PRO620  LYS621  CYS622 
 ASP623  PHE694  ASN695  SER759  ASP760  ASP761  ALA762  ILE779  LEU786  VAL792 
 PHE793  MET794  SER795  GLU796  ALA797  LYS798  CYS799  TRP800  GLU811  SER814 

> <Gold.Protein.RotatedAtoms>
  152.4462  134.5490  159.9861 H   0  0  0  0  0  0  0  0  0  0  0  0  # atno 6907 bound_to 6896
  151.5575  133.3402  159.2972 H   0  0  0  0  0  0  0  0  0  0  0  0  # atno 6908 bound_to 6896
  150.8378  134.7691  159.6971 H   0  0  0  0  0  0  0  0  0  0  0  0  # atno 6909 bound_to 6896
  146.0435  140.6577  142.9076 H   0  0  0  0  0  0  0  0  0  0  0  0  # atno 7974 bound_to 7965
  156.2534  140.1968  156.6637 H   0  0  0  0  0  0  0  0  0  0  0  0  # atno 8008 bound_to 7997
  154.6445  140.0579  156.9910 H   0  0  0  0  0  0  0  0  0  0  0  0  # atno 8009 bound_to 7997
  155.1512  140.3251  155.4433 H   0  0  0  0  0  0  0  0  0  0  0  0  # atno 8010 bound_to 7997
  139.5624  144.6890  151.4005 H   0  0  0  0  0  0  0  0  0  0  0  0  # atno 10167 bound_to 10162
  156.2654  130.4201  149.8496 H   0  0  0  0  0  0  0  0  0  0  0  0  # atno 10718 bound_to 10713
  154.3307  135.2755  155.2473 H   0  0  0  0  0  0  0  0  0  0  0  0  # atno 10763 bound_to 10752
  154.4786  135.5864  153.6377 H   0  0  0  0  0  0  0  0  0  0  0  0  # atno 10764 bound_to 10752
  152.9867  135.6106  154.3499 H   0  0  0  0  0  0  0  0  0  0  0  0  # atno 10765 bound_to 10752
  141.1180  133.6611  156.4825 H   0  0  0  0  0  0  0  0  0  0  0  0  # atno 11005 bound_to 11000
  144.7086  140.3952  143.7098 LP  0  0  0  0  0  0  0  0  0  0  0  0  # atno 17320 bound_to 7965
  145.6844  139.1625  143.2682 LP  0  0  0  0  0  0  0  0  0  0  0  0  # atno 17321 bound_to 7965
  140.6905  143.7872  150.7248 LP  0  0  0  0  0  0  0  0  0  0  0  0  # atno 17342 bound_to 10162
  140.1353  143.4489  152.2228 LP  0  0  0  0  0  0  0  0  0  0  0  0  # atno 17343 bound_to 10162
  156.5996  130.8541  151.3428 LP  0  0  0  0  0  0  0  0  0  0  0  0  # atno 17370 bound_to 10713
  157.7265  130.9631  150.1661 LP  0  0  0  0  0  0  0  0  0  0  0  0  # atno 17371 bound_to 10713
  140.4589  134.6859  157.5076 LP  0  0  0  0  0  0  0  0  0  0  0  0  # atno 17394 bound_to 11000
  140.0116  134.6681  155.9371 LP  0  0  0  0  0  0  0  0  0  0  0  0  # atno 17395 bound_to 11000

$$$$
