AV-unprocessed.smi:2390|AV-procd|sdf|9474|dock4
  -GOLD-   2272013103D 1   1.00000     0.00000
 Structure written by MMmdl.
 45 46  0  0  0  0  0  0  0  0  1 V2000
  153.3882  141.1098  160.5083 C   0  0  0  0  0  0  0  0  0  0  0  0
  152.6569  142.3074  159.9394 C   0  0  0  0  0  0  0  0  0  0  0  0
  152.6899  143.5553  160.5921 C   0  0  0  0  0  0  0  0  0  0  0  0
  151.9910  144.6270  160.0084 C   0  0  0  0  0  0  0  0  0  0  0  0
  151.2933  144.4089  158.8047 C   0  0  0  0  0  0  0  0  0  0  0  0
  151.3110  143.1253  158.2141 C   0  0  0  0  0  0  0  0  0  0  0  0
  150.5764  143.0070  157.0044 N   0  0  0  0  0  0  0  0  0  0  0  0
  150.0276  141.9006  156.4723 C   0  0  0  0  0  0  0  0  0  0  0  0
  150.0834  140.7717  156.9616 O   0  0  0  0  0  0  0  0  0  0  0  0
  149.4017  142.1746  155.3179 N   0  0  0  0  0  0  0  0  0  0  0  0
  148.7072  141.1951  154.4822 C   0  0  1  0  0  0  0  0  0  0  0  0
  149.5643  139.9205  154.3850 C   0  0  0  0  0  0  0  0  0  0  0  0
  147.2513  140.9298  154.9883 C   0  0  2  0  0  0  0  0  0  0  0  0
  146.5985  139.8006  154.1488 C   0  0  0  0  0  0  0  0  0  0  0  0
  146.4092  142.1463  155.0781 N   0  0  0  0  0  0  0  0  0  0  0  0
  145.1315  141.9035  155.7588 C   0  0  0  0  0  0  0  0  0  0  0  0
  144.2366  143.1535  155.8172 C   0  0  0  0  0  0  0  0  0  0  0  0
  144.0072  143.6431  154.5033 O   0  0  0  0  0  0  0  0  0  0  0  0
  145.2190  143.9684  153.8371 C   0  0  0  0  0  0  0  0  0  0  0  0
  146.1173  142.7223  153.7604 C   0  0  0  0  0  0  0  0  0  0  0  0
  151.9884  142.0982  158.7852 N   0  0  0  0  0  0  0  0  0  0  0  0
  153.7849  141.3237  161.5011 H   0  0  0  0  0  0  0  0  0  0  0  0
  154.2202  140.8331  159.8601 H   0  0  0  0  0  0  0  0  0  0  0  0
  152.7160  140.2550  160.5886 H   0  0  0  0  0  0  0  0  0  0  0  0
  153.2351  143.6901  161.5145 H   0  0  0  0  0  0  0  0  0  0  0  0
  151.9896  145.6007  160.4753 H   0  0  0  0  0  0  0  0  0  0  0  0
  150.7522  145.2220  158.3428 H   0  0  0  0  0  0  0  0  0  0  0  0
  150.4535  143.8637  156.4855 H   0  0  0  0  0  0  0  0  0  0  0  0
  149.4064  143.1289  154.9888 H   0  0  0  0  0  0  0  0  0  0  0  0
  148.6815  141.6377  153.4875 H   0  0  0  0  0  0  0  0  0  0  0  0
  149.0976  139.1781  153.7374 H   0  0  0  0  0  0  0  0  0  0  0  0
  149.7211  139.4602  155.3605 H   0  0  0  0  0  0  0  0  0  0  0  0
  150.5465  140.1431  153.9670 H   0  0  0  0  0  0  0  0  0  0  0  0
  147.3457  140.5339  156.0007 H   0  0  0  0  0  0  0  0  0  0  0  0
  147.2633  138.9498  154.0049 H   0  0  0  0  0  0  0  0  0  0  0  0
  146.3028  140.1567  153.1617 H   0  0  0  0  0  0  0  0  0  0  0  0
  145.7122  139.3942  154.6345 H   0  0  0  0  0  0  0  0  0  0  0  0
  144.5939  141.0957  155.2601 H   0  0  0  0  0  0  0  0  0  0  0  0
  145.2956  141.5887  156.7871 H   0  0  0  0  0  0  0  0  0  0  0  0
  143.2791  142.9114  156.2784 H   0  0  0  0  0  0  0  0  0  0  0  0
  144.6983  143.9308  156.4283 H   0  0  0  0  0  0  0  0  0  0  0  0
  144.9877  144.3298  152.8351 H   0  0  0  0  0  0  0  0  0  0  0  0
  145.7263  144.7801  154.3611 H   0  0  0  0  0  0  0  0  0  0  0  0
  147.0372  143.0210  153.2606 H   0  0  0  0  0  0  0  0  0  0  0  0
  145.6413  141.9725  153.1266 H   0  0  0  0  0  0  0  0  0  0  0  0
  1  2  1  0  0  0  0
  1 22  1  0  0  0  0
  1 23  1  0  0  0  0
  1 24  1  0  0  0  0
  2 21  1  0  0  0  0
  2  3  2  0  0  0  0
  3  4  1  0  0  0  0
  3 25  1  0  0  0  0
  4  5  2  0  0  0  0
  4 26  1  0  0  0  0
  5  6  1  0  0  0  0
  5 27  1  0  0  0  0
  6  7  1  0  0  0  0
  6 21  2  0  0  0  0
  7  8  1  0  0  0  0
  7 28  1  0  0  0  0
  8  9  2  0  0  0  0
  8 10  1  0  0  0  0
 10 11  1  0  0  0  0
 10 29  1  0  0  0  0
 11 12  1  0  0  0  0
 11 13  1  0  0  0  0
 11 30  1  0  0  0  0
 12 31  1  0  0  0  0
 12 32  1  0  0  0  0
 12 33  1  0  0  0  0
 13 14  1  0  0  0  0
 13 15  1  0  0  0  0
 13 34  1  0  0  0  0
 14 35  1  0  0  0  0
 14 36  1  0  0  0  0
 14 37  1  0  0  0  0
 15 20  1  0  0  0  0
 15 16  1  0  0  0  0
 16 17  1  0  0  0  0
 16 38  1  0  0  0  0
 16 39  1  0  0  0  0
 17 18  1  0  0  0  0
 17 40  1  0  0  0  0
 17 41  1  0  0  0  0
 18 19  1  0  0  0  0
 19 20  1  0  0  0  0
 19 42  1  0  0  0  0
 19 43  1  0  0  0  0
 20 44  1  0  0  0  0
 20 45  1  0  0  0  0
M  END
> <s_m_source_file>
AV-unprocessed.smi

> <i_m_source_file_index>
2390

> <i_lp_mmshare_version>
43012

> <i_f3d_flags>
0

> <s_epik_input>
W0NIM11jMVtjSF1bY0hdW2NIXWMobjEpW05IXUMoPU8pW05IXVtDQEhdKFtDSDNdKVtDQEhdKFtDSDNdKU4yW0NIMl1bQ0gyXU9bQ0gyXVtDSDJdMg==

> <s_epik_cmdline>
J2VwaWtfcHl0aG9uJywgJy1waCcsICc3LjAnLCAnLXRuJywgJzgnLCAnLW1hJywgJzIwMCcsICctbWV0YWxfYmluZGluZycsICctaW1hZScsICc8aW5maWxlLm1hZT4nLCAnLW9tYWUnLCAnPG91dGZpbGUubWFlPic=

> <r_epik_Ionization_Penalty>
0.266074

> <r_epik_Ionization_Penalty_Charging>
0

> <r_epik_Ionization_Penalty_Neutral>
0.266074

> <r_epik_State_Penalty>
0.257924

> <r_epik_Charging_Adjusted_Penalty>
0.257924

> <i_epik_Tot_Q>
0

> <i_epik_Tot_abs_Q>
0

> <r_epik_Metal_State_Penalty>
0.257919

> <b_epik_Metal_Only>
0

> <s_lp_Force_Field>
OPLS_2005

> <r_lp_Energy>
32.9653

> <b_lp_Chiralities_Consistent>
1

> <s_lp_Variant>
AV-unprocessed.smi:2390-2

> <Gold.Version>
5.8.1

> <Gold.Id.Protein>
6NUR|6NUR_protein|mol2

> <Gold.PLP.Fitness>
46.1620

> <Gold.PLP.PLP>
-43.0297

> <Gold.PLP.part.hbond>
-2.0000

> <Gold.PLP.part.metal>
0.0000

> <Gold.PLP.part.buried>
-7.6186

> <Gold.PLP.part.nonpolar>
-35.2385

> <Gold.PLP.part.repulsive>
0.7933

> <Gold.PLP.ligand.clash>
0.0000

> <Gold.PLP.ligand.torsion>
0.4743

> <Gold.PLP.Chemscore.Hbond>
1.3280

> <Gold.PLP.Chemscore.CHOScore>
0.0000

> <Gold.PLP.Chemscore.Metal>
0.0000

> <Gold.Chemscore.Hbonds>
donor molecule, donor type, donor heavy atom, donor atom, acceptor molecule, acceptor atom, score
      L1  H     7    28       P1  8028  0.69
      L1  H    10    29       P1  8028  0.74

> <Gold.PLP.Chemscore.Internal.Correction>
0.0970

> <Gold.Rescore>
     Score         DG    S(hbond)    S(metal)    S(lipo)     H(rot)  DE(clash)    DE(int)     intcor
     14.80     -17.82       1.46        0.00      95.39       1.44       0.02       3.01       ----

> <Gold.Chemscore.Fitness>
14.7962

> <Gold.Chemscore.DG>
-17.8238

> <Gold.Chemscore.ZeroCoef>
-5.4800

> <Gold.Chemscore.Hbond>
1.4576

> <Gold.Chemscore.Metal>
0.0000

> <Gold.Chemscore.Lipo>
95.3932

> <Gold.Chemscore.Internal_Hbond>
0.0000

> <Gold.Chemscore.DEClash>
0.0178

> <Gold.Chemscore.DEInternal>
3.0098

> <Gold.Chemscore.Rot>
1.4396

> <Gold.Chemscore.Internal.Correction>
   9.000000E+99

> <Gold.Chemscore.Hbonds>
donor molecule, donor type, donor heavy atom, donor atom, acceptor molecule, acceptor atom, score
      L1  H     7    28       P1  8028  0.67
      L1  H    10    29       P1  8028  0.72

> <Gold.Chemscore.Hbond.Weighted>
-4.8682

> <Gold.Chemscore.Metal.Weighted>
-0.0000

> <Gold.Chemscore.Lipo.Weighted>
-11.1610

> <Gold.Chemscore.Internal_Hbond.Weighted>
0.0000

> <Gold.Chemscore.DEClash.Weighted>
0.0178

> <Gold.Chemscore.DEInternal.Weighted>
3.0098

> <Gold.Chemscore.Rot.Weighted>
3.6855

> <Gold.Chemscore.Internal.Correction.Weighted>
   9.000000E+99

> <Gold.Protein.RotatedTorsions>
[ 6907 6896 6895 6894 ] final   87.26 input  -60.11 | X-H torsion
[ 7974 7965 7964 7962 ] final  -86.76 input  175.53 | X-H torsion
[ 8008 7997 7996 7995 ] final  -96.06 input   59.86 | X-H torsion
[ 10167 10162 10161 10158 ] final  -94.42 input  -65.29 | X-H torsion
[ 10718 10713 10712 10709 ] final   20.65 input   66.30 | X-H torsion
[ 10763 10752 10751 10750 ] final -174.96 input  -60.55 | X-H torsion
[ 11005 11000 10999 10996 ] final  172.80 input  -57.11 | X-H torsion

> <Gold.Protein.ActiveResidues>
 VAL166  LYS551  ARG553  GLY616  TRP617  ASP618  TYR619  PRO620  LYS621  CYS622 
 ASP623  PHE694  ASN695  SER759  ASP760  ASP761  ALA762  ILE779  LEU786  VAL792 
 PHE793  MET794  SER795  GLU796  ALA797  LYS798  CYS799  TRP800  GLU811  SER814 

> <Gold.Protein.RotatedAtoms>
  152.5408  134.2304  159.8822 H   0  0  0  0  0  0  0  0  0  0  0  0  # atno 6907 bound_to 6896
  151.2277  133.4461  159.2610 H   0  0  0  0  0  0  0  0  0  0  0  0  # atno 6908 bound_to 6896
  151.0745  134.9833  159.8381 H   0  0  0  0  0  0  0  0  0  0  0  0  # atno 6909 bound_to 6896
  145.4756  140.9558  143.1893 H   0  0  0  0  0  0  0  0  0  0  0  0  # atno 7974 bound_to 7965
  154.7695  140.0474  157.1039 H   0  0  0  0  0  0  0  0  0  0  0  0  # atno 8008 bound_to 7997
  154.9838  140.3105  155.4915 H   0  0  0  0  0  0  0  0  0  0  0  0  # atno 8009 bound_to 7997
  156.2918  140.2231  156.4939 H   0  0  0  0  0  0  0  0  0  0  0  0  # atno 8010 bound_to 7997
  140.3146  143.3084  152.0111 H   0  0  0  0  0  0  0  0  0  0  0  0  # atno 10167 bound_to 10162
  157.1275  130.6576  149.5942 H   0  0  0  0  0  0  0  0  0  0  0  0  # atno 10718 bound_to 10713
  154.5901  135.2844  155.0644 H   0  0  0  0  0  0  0  0  0  0  0  0  # atno 10763 bound_to 10752
  154.1948  135.6434  153.5074 H   0  0  0  0  0  0  0  0  0  0  0  0  # atno 10764 bound_to 10752
  153.0118  135.5455  154.6584 H   0  0  0  0  0  0  0  0  0  0  0  0  # atno 10765 bound_to 10752
  140.3336  134.7336  157.4152 H   0  0  0  0  0  0  0  0  0  0  0  0  # atno 11005 bound_to 11000
  144.7919  139.6311  143.7109 LP  0  0  0  0  0  0  0  0  0  0  0  0  # atno 17320 bound_to 7965
  146.2371  139.5927  142.9516 LP  0  0  0  0  0  0  0  0  0  0  0  0  # atno 17321 bound_to 7965
  139.4886  144.6358  151.6978 LP  0  0  0  0  0  0  0  0  0  0  0  0  # atno 17342 bound_to 10162
  140.5537  144.0382  150.6138 LP  0  0  0  0  0  0  0  0  0  0  0  0  # atno 17343 bound_to 10162
  155.9815  130.4823  150.6831 LP  0  0  0  0  0  0  0  0  0  0  0  0  # atno 17370 bound_to 10713
  157.4422  131.0862  151.0932 LP  0  0  0  0  0  0  0  0  0  0  0  0  # atno 17371 bound_to 10713
  140.0840  134.5692  155.8511 LP  0  0  0  0  0  0  0  0  0  0  0  0  # atno 17394 bound_to 11000
  141.2057  133.6649  156.6196 LP  0  0  0  0  0  0  0  0  0  0  0  0  # atno 17395 bound_to 11000

$$$$
