AV-unprocessed.smi:72|AV-procd|sdf|686|dock8
  -GOLD-   2262017 03D 1   1.00000     0.00000
 Structure written by MMmdl.
 29 30  0  0  0  0  0  0  0  0  1 V2000
  146.8341  130.8980  148.3849 N   0  0  0  0  0  0  0  0  0  0  0  0
  146.0580  131.6843  149.0407 C   0  0  0  0  0  0  0  0  0  0  0  0
  144.6919  131.8764  148.7845 N   0  0  0  0  0  0  0  0  0  0  0  0
  144.0327  132.7111  149.5277 C   0  0  0  0  0  0  0  0  0  0  0  0
  144.6644  133.4533  150.6081 N   0  0  0  0  0  0  0  0  0  0  0  0
  143.8665  134.4244  151.4527 C   0  0  1  0  0  0  0  0  0  0  0  0
  144.2777  134.2967  152.7786 O   0  0  0  0  0  0  0  0  0  0  0  0
  144.2399  135.5723  153.4011 C   0  0  1  0  0  0  0  0  0  0  0  0
  145.1655  135.5836  154.6271 C   0  0  0  0  0  0  0  0  0  0  0  0
  144.7019  134.6639  155.5925 O   0  0  0  0  0  0  0  0  0  0  0  0
  144.6992  136.5078  152.2783 C   0  0  2  0  0  0  0  0  0  0  0  0
  144.2224  137.8196  152.4995 O   0  0  0  0  0  0  0  0  0  0  0  0
  144.0518  135.9023  151.0385 C   0  0  1  0  0  0  0  0  0  0  0  0
  144.8665  136.1014  149.8971 O   0  0  0  0  0  0  0  0  0  0  0  0
  146.0372  133.2554  150.8930 C   0  0  0  0  0  0  0  0  0  0  0  0
  146.6124  133.8300  151.8168 O   0  0  0  0  0  0  0  0  0  0  0  0
  146.6770  132.3805  150.0873 N   0  0  0  0  0  0  0  0  0  0  0  0
  142.8240  134.1073  151.4000 H   0  0  0  0  0  0  0  0  0  0  0  0
  143.2090  135.8028  153.6785 H   0  0  0  0  0  0  0  0  0  0  0  0
  145.7877  136.4976  152.1971 H   0  0  0  0  0  0  0  0  0  0  0  0
  143.0607  136.3230  150.8621 H   0  0  0  0  0  0  0  0  0  0  0  0
  147.7687  130.9377  148.7656 H   0  0  0  0  0  0  0  0  0  0  0  0
  142.9674  132.9068  149.3969 H   0  0  0  0  0  0  0  0  0  0  0  0
  146.1958  135.3587  154.3496 H   0  0  0  0  0  0  0  0  0  0  0  0
  145.1626  136.5710  155.0895 H   0  0  0  0  0  0  0  0  0  0  0  0
  143.8574  134.9534  155.9027 H   0  0  0  0  0  0  0  0  0  0  0  0
  144.0628  138.2232  151.6601 H   0  0  0  0  0  0  0  0  0  0  0  0
  144.6766  136.9556  149.5405 H   0  0  0  0  0  0  0  0  0  0  0  0
  147.6584  132.2173  150.2584 H   0  0  0  0  0  0  0  0  0  0  0  0
  1  2  2  0  0  0  0
  1 22  1  0  0  0  0
  2 17  1  0  0  0  0
  2  3  1  0  0  0  0
  3  4  2  0  0  0  0
  4  5  1  0  0  0  0
  4 23  1  0  0  0  0
  5  6  1  0  0  0  0
  5 15  1  0  0  0  0
  6 18  1  0  0  0  0
  6 13  1  0  0  0  0
  6  7  1  0  0  0  0
  7  8  1  0  0  0  0
  8 19  1  0  0  0  0
  8  9  1  0  0  0  0
  8 11  1  0  0  0  0
  9 10  1  0  0  0  0
  9 24  1  0  0  0  0
  9 25  1  0  0  0  0
 10 26  1  0  0  0  0
 11 20  1  0  0  0  0
 11 12  1  0  0  0  0
 11 13  1  0  0  0  0
 12 27  1  0  0  0  0
 13 21  1  0  0  0  0
 13 14  1  0  0  0  0
 14 28  1  0  0  0  0
 15 16  2  0  0  0  0
 15 17  1  0  0  0  0
 17 29  1  0  0  0  0
M  END
> <s_m_source_file>
AV-unprocessed.smi

> <i_m_source_file_index>
72

> <i_lp_mmshare_version>
43012

> <i_f3d_flags>
0

> <s_epik_input>
W05IMl1jMW5bY0hdbihjKD1PKW4xKVtDQEBIXTJPW0NASF0oW0NIMl1bT0hdKVtDQEBIXShbT0hdKVtDQEhdMltPSF0=

> <s_epik_cmdline>
J2VwaWtfcHl0aG9uJywgJy1waCcsICc3LjAnLCAnLXRuJywgJzgnLCAnLW1hJywgJzIwMCcsICctbWV0YWxfYmluZGluZycsICctaW1hZScsICc8aW5maWxlLm1hZT4nLCAnLW9tYWUnLCAnPG91dGZpbGUubWFlPic=

> <r_lp_tautomer_probability>
7.17554e-07

> <r_epik_Ionization_Penalty>
0.0066451

> <r_epik_Ionization_Penalty_Charging>
0.00663793

> <r_epik_Ionization_Penalty_Neutral>
7.17052e-06

> <r_epik_State_Penalty>
0.419231

> <r_epik_Charging_Adjusted_Penalty>
0.425868

> <i_epik_Tot_Q>
0

> <i_epik_Tot_abs_Q>
0

> <r_epik_Metal_State_Penalty>
1.44144

> <b_epik_Metal_Only>
0

> <s_epik_Chemistry_Notes>
This compound contains an acetal/aminal-like group ( X-CH(R)-Y where X, Y are N, S, or O) that may be acid/base labile, releasing an aldehyde.

> <s_lp_Force_Field>
OPLS_2005

> <r_lp_Energy>
42.1084

> <b_lp_Chiralities_Consistent>
1

> <s_lp_Variant>
AV-unprocessed.smi:72-24

> <Gold.Version>
5.8.1

> <Gold.Id.Protein>
6NUR|6NUR_protein|mol2

> <Gold.PLP.Fitness>
38.7834

> <Gold.PLP.PLP>
-24.3257

> <Gold.PLP.part.hbond>
-8.5139

> <Gold.PLP.part.metal>
0.0000

> <Gold.PLP.part.buried>
-1.2472

> <Gold.PLP.part.nonpolar>
-16.0338

> <Gold.PLP.part.repulsive>
0.6215

> <Gold.PLP.ligand.clash>
0.0000

> <Gold.PLP.ligand.torsion>
0.5872

> <Gold.PLP.Chemscore.Hbond>
4.1692

> <Gold.PLP.Chemscore.CHOScore>
1.0000

> <Gold.PLP.Chemscore.Metal>
0.0000

> <Gold.Chemscore.Hbonds>
donor molecule, donor type, donor heavy atom, donor atom, acceptor molecule, acceptor atom, score
      L1  H     1    22       P1 10747  1.00
      L1  H    12    27       P1 10171  1.00
      L1  H    14    28       P1 10171  0.96
      L1  H    17    29       P1 10747  0.86
      P1  H 10777 10791       L1     1  0.27
      P1  H 10785 10796       L1     3  0.12
      L1  C     4    23       P1 10186  1.00

> <Gold.PLP.Chemscore.Internal.Correction>
0.1245

> <Gold.Rescore>
     Score         DG    S(hbond)    S(metal)    S(lipo)     H(rot)  DE(clash)    DE(int)     intcor
      5.61      -9.41       3.82        0.00      13.50       4.06       1.58       2.22       ----

> <Gold.Chemscore.Fitness>
5.6076

> <Gold.Chemscore.DG>
-9.4128

> <Gold.Chemscore.ZeroCoef>
-5.4800

> <Gold.Chemscore.Hbond>
3.8166

> <Gold.Chemscore.Metal>
0.0000

> <Gold.Chemscore.Lipo>
13.4960

> <Gold.Chemscore.Internal_Hbond>
0.0000

> <Gold.Chemscore.DEClash>
1.5833

> <Gold.Chemscore.DEInternal>
2.2219

> <Gold.Chemscore.Rot>
4.0600

> <Gold.Chemscore.Internal.Correction>
   9.000000E+99

> <Gold.Chemscore.Hbonds>
donor molecule, donor type, donor heavy atom, donor atom, acceptor molecule, acceptor atom, score
      L1  H     1    22       P1 10747  0.91
      L1  H    12    27       P1 10171  1.00
      L1  H    14    28       P1 10171  0.92
      L1  H    17    29       P1 10747  0.85
      P1  H 10777 10791       L1     1  0.02
      P1  H 10785 10796       L1     3  0.03

> <Gold.Chemscore.Hbond.Weighted>
-12.7474

> <Gold.Chemscore.Metal.Weighted>
-0.0000

> <Gold.Chemscore.Lipo.Weighted>
-1.5790

> <Gold.Chemscore.Internal_Hbond.Weighted>
0.0000

> <Gold.Chemscore.DEClash.Weighted>
1.5833

> <Gold.Chemscore.DEInternal.Weighted>
2.2219

> <Gold.Chemscore.Rot.Weighted>
10.3936

> <Gold.Chemscore.Internal.Correction.Weighted>
   9.000000E+99

> <Gold.Protein.RotatedTorsions>
[ 6907 6896 6895 6894 ] final   14.60 input  -60.11 | X-H torsion
[ 7974 7965 7964 7962 ] final  -10.92 input  175.53 | X-H torsion
[ 8008 7997 7996 7995 ] final   21.39 input   59.86 | X-H torsion
[ 10167 10162 10161 10158 ] final  162.78 input  -65.29 | X-H torsion
[ 10718 10713 10712 10709 ] final  -71.92 input   66.30 | X-H torsion
[ 10763 10752 10751 10750 ] final   49.71 input  -60.55 | X-H torsion
[ 11005 11000 10999 10996 ] final   51.49 input  -57.11 | X-H torsion

> <Gold.Protein.ActiveResidues>
 VAL166  LYS551  ARG553  GLY616  TRP617  ASP618  TYR619  PRO620  LYS621  CYS622 
 ASP623  PHE694  ASN695  SER759  ASP760  ASP761  ALA762  ILE779  LEU786  VAL792 
 PHE793  MET794  SER795  GLU796  ALA797  LYS798  CYS799  TRP800  GLU811  SER814 

> <Gold.Protein.RotatedAtoms>
  151.8049  135.0698  160.0404 H   0  0  0  0  0  0  0  0  0  0  0  0  # atno 6907 bound_to 6896
  152.3062  133.5701  159.5659 H   0  0  0  0  0  0  0  0  0  0  0  0  # atno 6908 bound_to 6896
  150.7297  134.0135  159.3719 H   0  0  0  0  0  0  0  0  0  0  0  0  # atno 6909 bound_to 6896
  146.2205  140.2835  142.8364 H   0  0  0  0  0  0  0  0  0  0  0  0  # atno 7974 bound_to 7965
  154.9499  140.3064  155.5080 H   0  0  0  0  0  0  0  0  0  0  0  0  # atno 8008 bound_to 7997
  156.2988  140.2321  156.4513 H   0  0  0  0  0  0  0  0  0  0  0  0  # atno 8009 bound_to 7997
  154.8065  140.0431  157.1299 H   0  0  0  0  0  0  0  0  0  0  0  0  # atno 8010 bound_to 7997
  139.4865  144.4403  151.8960 H   0  0  0  0  0  0  0  0  0  0  0  0  # atno 10167 bound_to 10162
  156.0342  130.4361  150.2516 H   0  0  0  0  0  0  0  0  0  0  0  0  # atno 10718 bound_to 10713
  152.9786  135.5902  154.4134 H   0  0  0  0  0  0  0  0  0  0  0  0  # atno 10763 bound_to 10752
  154.3767  135.2767  155.2237 H   0  0  0  0  0  0  0  0  0  0  0  0  # atno 10764 bound_to 10752
  154.4169  135.6068  153.6041 H   0  0  0  0  0  0  0  0  0  0  0  0  # atno 10765 bound_to 10752
  140.0928  134.5185  155.8835 H   0  0  0  0  0  0  0  0  0  0  0  0  # atno 11005 bound_to 11000
  144.9179  140.7834  143.5766 LP  0  0  0  0  0  0  0  0  0  0  0  0  # atno 17320 bound_to 7965
  145.2770  139.1933  143.4811 LP  0  0  0  0  0  0  0  0  0  0  0  0  # atno 17321 bound_to 7965
  140.3855  144.2682  150.5904 LP  0  0  0  0  0  0  0  0  0  0  0  0  # atno 17342 bound_to 10162
  140.5194  143.2269  151.8412 LP  0  0  0  0  0  0  0  0  0  0  0  0  # atno 17343 bound_to 10162
  157.0616  131.0091  151.3220 LP  0  0  0  0  0  0  0  0  0  0  0  0  # atno 17370 bound_to 10713
  157.5066  130.7912  149.7660 LP  0  0  0  0  0  0  0  0  0  0  0  0  # atno 17371 bound_to 10713
  141.2083  133.6672  156.6363 LP  0  0  0  0  0  0  0  0  0  0  0  0  # atno 17394 bound_to 11000
  140.3327  134.7915  157.4339 LP  0  0  0  0  0  0  0  0  0  0  0  0  # atno 17395 bound_to 11000

$$$$
