AV-unprocessed.smi:213|AV-procd|sdf|1642|dock9
  -GOLD-   2262020 13D 1   1.00000     0.00000
 Structure written by MMmdl.
 58 61  0  0  0  0  0  0  0  0  1 V2000
  150.6779  139.6380  155.8535 C   0  0  0  0  0  0  0  0  0  0  0  0
  149.6433  140.7689  155.9999 C   0  0  1  0  0  0  0  0  0  0  0  0
  150.2352  142.1983  156.0649 C   0  0  0  0  0  0  0  0  0  0  0  0
  151.1517  142.4747  157.1748 N   0  0  0  0  0  0  0  0  0  0  0  0
  150.5431  142.1121  158.4522 C   0  0  0  0  0  0  0  0  0  0  0  0
  151.4819  142.3855  159.6400 C   0  0  0  0  0  0  0  0  0  0  0  0
  151.8556  143.7586  159.6450 O   0  0  0  0  0  0  0  0  0  0  0  0
  152.4893  144.1554  158.4341 C   0  0  0  0  0  0  0  0  0  0  0  0
  151.5516  143.8800  157.2452 C   0  0  0  0  0  0  0  0  0  0  0  0
  148.6676  140.6830  154.9103 N   0  0  0  0  0  0  0  0  0  0  0  0
  148.8023  141.4957  153.7042 C   0  0  0  0  0  0  0  0  0  0  0  0
  147.6673  139.7667  154.9627 C   0  0  0  0  0  0  0  0  0  0  0  0
  147.1703  139.4232  156.1804 N   0  0  0  0  0  0  0  0  0  0  0  0
  146.1782  138.5341  156.2805 C   0  0  0  0  0  0  0  0  0  0  0  0
  145.5522  137.8695  155.3078 N   0  0  0  0  0  0  0  0  0  0  0  0
  146.0582  138.1942  154.0843 C   0  0  0  0  0  0  0  0  0  0  0  0
  147.1048  139.1237  153.8209 C   0  0  0  0  0  0  0  0  0  0  0  0
  147.3535  139.1718  152.4528 N   0  0  0  0  0  0  0  0  0  0  0  0
  146.4998  138.3291  151.9394 C   0  0  0  0  0  0  0  0  0  0  0  0
  145.6839  137.6970  152.8491 N   0  0  0  0  0  0  0  0  0  0  0  0
  144.6545  136.7137  152.5630 C   0  0  0  0  0  0  0  0  0  0  0  0
  145.2044  135.4970  151.7933 C   0  0  2  0  0  0  0  0  0  0  0  0
  145.0805  135.6925  150.3972 O   0  0  0  0  0  0  0  0  0  0  0  0
  144.5384  134.1718  152.2141 C   0  0  2  0  0  0  0  0  0  0  0  0
  145.2271  132.8862  151.7471 C   0  0  0  0  0  0  0  0  0  0  0  0
  144.0750  131.9071  151.7707 C   0  0  0  0  0  0  0  0  0  0  0  0
  142.9202  132.7761  151.2793 C   0  0  0  0  0  0  0  0  0  0  0  0
  143.1876  134.0893  151.7642 O   0  0  0  0  0  0  0  0  0  0  0  0
  151.2146  139.4567  156.7821 H   0  0  0  0  0  0  0  0  0  0  0  0
  151.4050  139.8521  155.0700 H   0  0  0  0  0  0  0  0  0  0  0  0
  150.1878  138.6966  155.6028 H   0  0  0  0  0  0  0  0  0  0  0  0
  149.1242  140.5780  156.9385 H   0  0  0  0  0  0  0  0  0  0  0  0
  150.6970  142.4705  155.1152 H   0  0  0  0  0  0  0  0  0  0  0  0
  149.3811  142.8702  156.1641 H   0  0  0  0  0  0  0  0  0  0  0  0
  149.6133  142.6662  158.5906 H   0  0  0  0  0  0  0  0  0  0  0  0
  150.2775  141.0542  158.4487 H   0  0  0  0  0  0  0  0  0  0  0  0
  150.9843  142.1481  160.5804 H   0  0  0  0  0  0  0  0  0  0  0  0
  152.3729  141.7585  159.5804 H   0  0  0  0  0  0  0  0  0  0  0  0
  152.7294  145.2174  158.4893 H   0  0  0  0  0  0  0  0  0  0  0  0
  153.4318  143.6186  158.3150 H   0  0  0  0  0  0  0  0  0  0  0  0
  152.0578  144.1879  156.3364 H   0  0  0  0  0  0  0  0  0  0  0  0
  150.6668  144.5123  157.3346 H   0  0  0  0  0  0  0  0  0  0  0  0
  147.8251  141.8161  153.3410 H   0  0  0  0  0  0  0  0  0  0  0  0
  149.2951  140.9276  152.9147 H   0  0  0  0  0  0  0  0  0  0  0  0
  149.3943  142.3901  153.8972 H   0  0  0  0  0  0  0  0  0  0  0  0
  145.8370  138.3261  157.2840 H   0  0  0  0  0  0  0  0  0  0  0  0
  146.4462  138.1396  150.8773 H   0  0  0  0  0  0  0  0  0  0  0  0
  144.2168  136.3948  153.5097 H   0  0  0  0  0  0  0  0  0  0  0  0
  143.8575  137.1986  151.9979 H   0  0  0  0  0  0  0  0  0  0  0  0
  146.2719  135.4115  151.9996 H   0  0  0  0  0  0  0  0  0  0  0  0
  145.0977  136.6216  150.2252 H   0  0  0  0  0  0  0  0  0  0  0  0
  144.4905  134.1441  153.3039 H   0  0  0  0  0  0  0  0  0  0  0  0
  145.6057  132.9780  150.7287 H   0  0  0  0  0  0  0  0  0  0  0  0
  146.0547  132.5898  152.3920 H   0  0  0  0  0  0  0  0  0  0  0  0
  144.2442  131.0291  151.1469 H   0  0  0  0  0  0  0  0  0  0  0  0
  143.8873  131.5722  152.7917 H   0  0  0  0  0  0  0  0  0  0  0  0
  142.9072  132.8073  150.1891 H   0  0  0  0  0  0  0  0  0  0  0  0
  141.9496  132.4143  151.6189 H   0  0  0  0  0  0  0  0  0  0  0  0
  1  2  1  0  0  0  0
  1 29  1  0  0  0  0
  1 30  1  0  0  0  0
  1 31  1  0  0  0  0
  2  3  1  0  0  0  0
  2 10  1  0  0  0  0
  2 32  1  0  0  0  0
  3  4  1  0  0  0  0
  3 33  1  0  0  0  0
  3 34  1  0  0  0  0
  4  9  1  0  0  0  0
  4  5  1  0  0  0  0
  5  6  1  0  0  0  0
  5 35  1  0  0  0  0
  5 36  1  0  0  0  0
  6  7  1  0  0  0  0
  6 37  1  0  0  0  0
  6 38  1  0  0  0  0
  7  8  1  0  0  0  0
  8  9  1  0  0  0  0
  8 39  1  0  0  0  0
  8 40  1  0  0  0  0
  9 41  1  0  0  0  0
  9 42  1  0  0  0  0
 10 11  1  0  0  0  0
 10 12  1  0  0  0  0
 11 43  1  0  0  0  0
 11 44  1  0  0  0  0
 11 45  1  0  0  0  0
 12 17  1  0  0  0  0
 12 13  2  0  0  0  0
 13 14  1  0  0  0  0
 14 15  2  0  0  0  0
 14 46  1  0  0  0  0
 15 16  1  0  0  0  0
 16 20  1  0  0  0  0
 16 17  2  0  0  0  0
 17 18  1  0  0  0  0
 18 19  2  0  0  0  0
 19 20  1  0  0  0  0
 19 47  1  0  0  0  0
 20 21  1  0  0  0  0
 21 22  1  0  0  0  0
 21 48  1  0  0  0  0
 21 49  1  0  0  0  0
 22 23  1  0  0  0  0
 22 24  1  0  0  0  0
 22 50  1  0  0  0  0
 23 51  1  0  0  0  0
 24 28  1  0  0  0  0
 24 25  1  0  0  0  0
 24 52  1  0  0  0  0
 25 26  1  0  0  0  0
 25 53  1  0  0  0  0
 25 54  1  0  0  0  0
 26 27  1  0  0  0  0
 26 55  1  0  0  0  0
 26 56  1  0  0  0  0
 27 28  1  0  0  0  0
 27 57  1  0  0  0  0
 27 58  1  0  0  0  0
M  END
> <s_m_source_file>
AV-unprocessed.smi

> <i_m_source_file_index>
213

> <i_lp_mmshare_version>
43012

> <i_f3d_flags>
0

> <s_epik_input>
W0NIMl0xW0NIMl1PW0NIMl1bQ0gyXU4xW0NIMl1bQ0BASF0oW0NIM10pTihbQ0gzXSljKG5bY0hdbjIpYyhjMjMpbltjSF1uM1tDSDJdW0NASF0oW09IXSlbQ0BASF00W0NIMl1bQ0gyXVtDSDJdTzQ=

> <s_epik_cmdline>
J2VwaWtfcHl0aG9uJywgJy1waCcsICc3LjAnLCAnLXRuJywgJzgnLCAnLW1hJywgJzIwMCcsICctbWV0YWxfYmluZGluZycsICctaW1hZScsICc8aW5maWxlLm1hZT4nLCAnLW9tYWUnLCAnPG91dGZpbGUubWFlPic=

> <r_lp_tautomer_probability>
1

> <r_epik_Ionization_Penalty>
0.423322

> <r_epik_Ionization_Penalty_Charging>
0

> <r_epik_Ionization_Penalty_Neutral>
0.423322

> <r_epik_State_Penalty>
0.569486

> <r_epik_Charging_Adjusted_Penalty>
0.569486

> <i_epik_Tot_Q>
0

> <i_epik_Tot_abs_Q>
0

> <r_epik_Metal_State_Penalty>
0.568671

> <b_epik_Metal_Only>
0

> <s_lp_Force_Field>
OPLS_2005

> <r_lp_Energy>
55.7593

> <b_lp_Chiralities_Consistent>
1

> <s_lp_Variant>
AV-unprocessed.smi:213-10

> <Gold.Version>
5.8.1

> <Gold.Id.Protein>
6NUR|6NUR_protein|mol2

> <Gold.PLP.Fitness>
50.8017

> <Gold.PLP.PLP>
-47.7994

> <Gold.PLP.part.hbond>
-2.0000

> <Gold.PLP.part.metal>
0.0000

> <Gold.PLP.part.buried>
-7.4822

> <Gold.PLP.part.nonpolar>
-41.5421

> <Gold.PLP.part.repulsive>
2.4211

> <Gold.PLP.ligand.clash>
0.0000

> <Gold.PLP.ligand.torsion>
1.6341

> <Gold.PLP.Chemscore.Hbond>
1.0000

> <Gold.PLP.Chemscore.CHOScore>
0.9832

> <Gold.PLP.Chemscore.Metal>
0.0000

> <Gold.Chemscore.Hbonds>
donor molecule, donor type, donor heavy atom, donor atom, acceptor molecule, acceptor atom, score
      L1  H    23    51       P1 10171  0.21
      L1  C    19    47       P1 10171  0.20

> <Gold.PLP.Chemscore.Internal.Correction>
0.3209

> <Gold.Rescore>
     Score         DG    S(hbond)    S(metal)    S(lipo)     H(rot)  DE(clash)    DE(int)     intcor
     11.31     -15.61       0.95        0.00     119.29       2.74       1.95       2.34       ----

> <Gold.Chemscore.Fitness>
11.3133

> <Gold.Chemscore.DG>
-15.6092

> <Gold.Chemscore.ZeroCoef>
-5.4800

> <Gold.Chemscore.Hbond>
0.9525

> <Gold.Chemscore.Metal>
0.0000

> <Gold.Chemscore.Lipo>
119.2855

> <Gold.Chemscore.Internal_Hbond>
0.0000

> <Gold.Chemscore.DEClash>
1.9548

> <Gold.Chemscore.DEInternal>
2.3411

> <Gold.Chemscore.Rot>
2.7378

> <Gold.Chemscore.Internal.Correction>
   9.000000E+99

> <Gold.Chemscore.Hbonds>
donor molecule, donor type, donor heavy atom, donor atom, acceptor molecule, acceptor atom, score
      L1  H    23    51       P1 10171  0.21

> <Gold.Chemscore.Hbond.Weighted>
-3.1814

> <Gold.Chemscore.Metal.Weighted>
-0.0000

> <Gold.Chemscore.Lipo.Weighted>
-13.9564

> <Gold.Chemscore.Internal_Hbond.Weighted>
0.0000

> <Gold.Chemscore.DEClash.Weighted>
1.9548

> <Gold.Chemscore.DEInternal.Weighted>
2.3411

> <Gold.Chemscore.Rot.Weighted>
7.0087

> <Gold.Chemscore.Internal.Correction.Weighted>
   9.000000E+99

> <Gold.Protein.RotatedTorsions>
[ 6907 6896 6895 6894 ] final   58.34 input  -60.11 | X-H torsion
[ 7974 7965 7964 7962 ] final  138.78 input  175.53 | X-H torsion
[ 8008 7997 7996 7995 ] final  128.12 input   59.86 | X-H torsion
[ 10167 10162 10161 10158 ] final  -53.84 input  -65.29 | X-H torsion
[ 10718 10713 10712 10709 ] final  -75.34 input   66.30 | X-H torsion
[ 10763 10752 10751 10750 ] final   44.80 input  -60.55 | X-H torsion
[ 11005 11000 10999 10996 ] final  -93.10 input  -57.11 | X-H torsion

> <Gold.Protein.ActiveResidues>
 VAL166  LYS551  ARG553  GLY616  TRP617  ASP618  TYR619  PRO620  LYS621  CYS622 
 ASP623  PHE694  ASN695  SER759  ASP760  ASP761  ALA762  ILE779  LEU786  VAL792 
 PHE793  MET794  SER795  GLU796  ALA797  LYS798  CYS799  TRP800  GLU811  SER814 

> <Gold.Protein.RotatedAtoms>
  152.3815  134.6583  160.0140 H   0  0  0  0  0  0  0  0  0  0  0  0  # atno 6907 bound_to 6896
  151.6845  133.3306  159.3235 H   0  0  0  0  0  0  0  0  0  0  0  0  # atno 6908 bound_to 6896
  150.7751  134.6688  159.6424 H   0  0  0  0  0  0  0  0  0  0  0  0  # atno 6909 bound_to 6896
  144.9341  139.5011  143.5604 H   0  0  0  0  0  0  0  0  0  0  0  0  # atno 7974 bound_to 7965
  156.2907  140.2652  156.2384 H   0  0  0  0  0  0  0  0  0  0  0  0  # atno 8008 bound_to 7997
  155.0002  140.0388  157.2375 H   0  0  0  0  0  0  0  0  0  0  0  0  # atno 8009 bound_to 7997
  154.7608  140.2760  155.6220 H   0  0  0  0  0  0  0  0  0  0  0  0  # atno 8010 bound_to 7997
  140.6463  143.2537  151.4850 H   0  0  0  0  0  0  0  0  0  0  0  0  # atno 10167 bound_to 10162
  156.0211  130.4438  150.3027 H   0  0  0  0  0  0  0  0  0  0  0  0  # atno 10718 bound_to 10713
  152.9835  135.6059  154.3333 H   0  0  0  0  0  0  0  0  0  0  0  0  # atno 10763 bound_to 10752
  154.3035  135.2772  155.2601 H   0  0  0  0  0  0  0  0  0  0  0  0  # atno 10764 bound_to 10752
  154.4843  135.5909  153.6468 H   0  0  0  0  0  0  0  0  0  0  0  0  # atno 10765 bound_to 10752
  141.1505  133.7865  157.0113 H   0  0  0  0  0  0  0  0  0  0  0  0  # atno 11005 bound_to 11000
  146.3259  139.8312  142.8908 LP  0  0  0  0  0  0  0  0  0  0  0  0  # atno 17320 bound_to 7965
  145.3095  141.0216  143.3562 LP  0  0  0  0  0  0  0  0  0  0  0  0  # atno 17321 bound_to 7965
  139.5674  144.2010  152.1785 LP  0  0  0  0  0  0  0  0  0  0  0  0  # atno 17342 bound_to 10162
  140.1296  144.5300  150.6811 LP  0  0  0  0  0  0  0  0  0  0  0  0  # atno 17343 bound_to 10162
  157.1130  131.0226  151.3040 LP  0  0  0  0  0  0  0  0  0  0  0  0  # atno 17370 bound_to 10713
  157.4689  130.7697  149.7305 LP  0  0  0  0  0  0  0  0  0  0  0  0  # atno 17371 bound_to 10713
  140.0876  134.9611  157.1725 LP  0  0  0  0  0  0  0  0  0  0  0  0  # atno 17394 bound_to 11000
  140.3490  134.2619  155.7201 LP  0  0  0  0  0  0  0  0  0  0  0  0  # atno 17395 bound_to 11000

$$$$
