AV-unprocessed.smi:799|AV-procd|sdf|3785|dock1
  -GOLD-   22720 1223D 1   1.00000     0.00000
 Structure written by MMmdl.
 47 48  0  0  0  0  0  0  0  0  1 V2000
  150.2977  142.0365  156.0176 C   0  0  0  0  0  0  0  0  0  0  0  0
  150.0592  140.7176  155.3438 C   0  0  0  0  0  0  0  0  0  0  0  0
  148.8129  140.1341  154.9728 C   0  0  0  0  0  0  0  0  0  0  0  0
  149.1930  138.9499  154.4025 C   0  0  0  0  0  0  0  0  0  0  0  0
  148.4184  137.9762  153.8550 N   0  0  0  0  0  0  0  0  0  0  0  0
  147.1236  137.7007  154.0877 C   0  0  0  0  0  0  0  0  0  0  0  0
  146.4029  138.2991  154.8861 O   0  0  0  0  0  0  0  0  0  0  0  0
  146.7108  136.6733  153.3251 N   0  0  0  0  0  0  0  0  0  0  0  0
  145.3803  136.0438  153.2700 C   0  0  1  0  0  0  0  0  0  0  0  0
  145.1394  135.4214  154.6652 C   0  0  0  0  0  0  0  0  0  0  0  0
  144.2966  137.1326  153.0141 C   0  0  0  0  0  0  0  0  0  0  0  0
  144.7100  138.0936  152.0608 O   0  0  0  0  0  0  0  0  0  0  0  0
  145.3443  134.9438  152.1465 C   0  0  0  0  0  0  0  0  0  0  0  0
  143.9616  134.2680  151.9558 C   0  0  0  0  0  0  0  0  0  0  0  0
  143.9594  133.2858  150.7724 C   0  0  0  0  0  0  0  0  0  0  0  0
  145.0513  132.2189  150.9280 C   0  0  0  0  0  0  0  0  0  0  0  0
  146.4288  132.8704  151.1081 C   0  0  0  0  0  0  0  0  0  0  0  0
  146.4321  133.8457  152.2958 C   0  0  0  0  0  0  0  0  0  0  0  0
  150.5662  138.8573  154.4426 N   0  0  0  0  0  0  0  0  0  0  0  0
  151.4323  137.7987  153.9620 C   0  0  0  0  0  0  0  0  0  0  0  0
  151.0981  139.9532  155.0261 N   0  0  0  0  0  0  0  0  0  0  0  0
  149.3601  142.5642  156.1933 H   0  0  0  0  0  0  0  0  0  0  0  0
  150.9310  142.6806  155.4071 H   0  0  0  0  0  0  0  0  0  0  0  0
  150.7883  141.9018  156.9819 H   0  0  0  0  0  0  0  0  0  0  0  0
  147.8202  140.5359  155.1086 H   0  0  0  0  0  0  0  0  0  0  0  0
  148.8835  137.3850  153.1823 H   0  0  0  0  0  0  0  0  0  0  0  0
  147.4006  136.2651  152.7120 H   0  0  0  0  0  0  0  0  0  0  0  0
  144.1436  134.9875  154.7522 H   0  0  0  0  0  0  0  0  0  0  0  0
  145.2249  136.1696  155.4541 H   0  0  0  0  0  0  0  0  0  0  0  0
  145.8629  134.6406  154.8972 H   0  0  0  0  0  0  0  0  0  0  0  0
  143.3608  136.6894  152.6737 H   0  0  0  0  0  0  0  0  0  0  0  0
  144.0641  137.6739  153.9304 H   0  0  0  0  0  0  0  0  0  0  0  0
  144.2679  138.9082  152.2452 H   0  0  0  0  0  0  0  0  0  0  0  0
  145.5533  135.4510  151.2041 H   0  0  0  0  0  0  0  0  0  0  0  0
  143.6754  133.7282  152.8585 H   0  0  0  0  0  0  0  0  0  0  0  0
  143.1855  135.0112  151.7796 H   0  0  0  0  0  0  0  0  0  0  0  0
  142.9836  132.8064  150.6905 H   0  0  0  0  0  0  0  0  0  0  0  0
  144.1130  133.8337  149.8418 H   0  0  0  0  0  0  0  0  0  0  0  0
  144.8285  131.5880  151.7893 H   0  0  0  0  0  0  0  0  0  0  0  0
  145.0595  131.5634  150.0566 H   0  0  0  0  0  0  0  0  0  0  0  0
  147.1863  132.1007  151.2577 H   0  0  0  0  0  0  0  0  0  0  0  0
  146.7054  133.4030  150.1970 H   0  0  0  0  0  0  0  0  0  0  0  0
  147.4265  134.2838  152.3724 H   0  0  0  0  0  0  0  0  0  0  0  0
  146.2751  133.2805  153.2142 H   0  0  0  0  0  0  0  0  0  0  0  0
  151.1025  136.8419  154.3674 H   0  0  0  0  0  0  0  0  0  0  0  0
  152.4631  137.9755  154.2721 H   0  0  0  0  0  0  0  0  0  0  0  0
  151.3908  137.7591  152.8734 H   0  0  0  0  0  0  0  0  0  0  0  0
  1  2  1  0  0  0  0
  1 22  1  0  0  0  0
  1 23  1  0  0  0  0
  1 24  1  0  0  0  0
  2 21  2  0  0  0  0
  2  3  1  0  0  0  0
  3  4  2  0  0  0  0
  3 25  1  0  0  0  0
  4  5  1  0  0  0  0
  4 19  1  0  0  0  0
  5  6  1  0  0  0  0
  5 26  1  0  0  0  0
  6  7  2  0  0  0  0
  6  8  1  0  0  0  0
  8  9  1  0  0  0  0
  8 27  1  0  0  0  0
  9 10  1  0  0  0  0
  9 11  1  0  0  0  0
  9 13  1  0  0  0  0
 10 28  1  0  0  0  0
 10 29  1  0  0  0  0
 10 30  1  0  0  0  0
 11 12  1  0  0  0  0
 11 31  1  0  0  0  0
 11 32  1  0  0  0  0
 12 33  1  0  0  0  0
 13 18  1  0  0  0  0
 13 14  1  0  0  0  0
 13 34  1  0  0  0  0
 14 15  1  0  0  0  0
 14 35  1  0  0  0  0
 14 36  1  0  0  0  0
 15 16  1  0  0  0  0
 15 37  1  0  0  0  0
 15 38  1  0  0  0  0
 16 17  1  0  0  0  0
 16 39  1  0  0  0  0
 16 40  1  0  0  0  0
 17 18  1  0  0  0  0
 17 41  1  0  0  0  0
 17 42  1  0  0  0  0
 18 43  1  0  0  0  0
 18 44  1  0  0  0  0
 19 20  1  0  0  0  0
 19 21  1  0  0  0  0
 20 45  1  0  0  0  0
 20 46  1  0  0  0  0
 20 47  1  0  0  0  0
M  END
> <s_m_source_file>
AV-unprocessed.smi

> <i_m_source_file_index>
799

> <i_lp_mmshare_version>
43012

> <i_f3d_flags>
0

> <s_epik_input>
W0NIM11jMVtjSF1jKG4objEpW0NIM10pW05IXUMoPU8pW05IXVtDQEBdKFtDSDNdKShbQ0gyXVtPSF0pW0NIXTJbQ0gyXVtDSDJdW0NIMl1bQ0gyXVtDSDJdMg==

> <s_epik_cmdline>
J2VwaWtfcHl0aG9uJywgJy1waCcsICc3LjAnLCAnLXRuJywgJzgnLCAnLW1hJywgJzIwMCcsICctbWV0YWxfYmluZGluZycsICctaW1hZScsICc8aW5maWxlLm1hZT4nLCAnLW9tYWUnLCAnPG91dGZpbGUubWFlPic=

> <r_lp_tautomer_probability>
1

> <r_epik_Ionization_Penalty>
9.86025e-05

> <r_epik_Ionization_Penalty_Charging>
0

> <r_epik_Ionization_Penalty_Neutral>
9.86025e-05

> <r_epik_State_Penalty>
-0

> <r_epik_Charging_Adjusted_Penalty>
0

> <i_epik_Tot_Q>
0

> <i_epik_Tot_abs_Q>
0

> <r_epik_Metal_State_Penalty>
-0

> <b_epik_Metal_Only>
0

> <s_lp_Force_Field>
OPLS_2005

> <r_lp_Energy>
22.1545

> <b_lp_Chiralities_Consistent>
1

> <s_lp_Variant>
AV-unprocessed.smi:799-1

> <Gold.Version>
5.8.1

> <Gold.Id.Protein>
6NUR|6NUR_protein|mol2

> <Gold.PLP.Fitness>
45.0631

> <Gold.PLP.PLP>
-34.1039

> <Gold.PLP.part.hbond>
-4.6168

> <Gold.PLP.part.metal>
0.0000

> <Gold.PLP.part.buried>
-3.5791

> <Gold.PLP.part.nonpolar>
-26.1007

> <Gold.PLP.part.repulsive>
0.1251

> <Gold.PLP.ligand.clash>
0.0000

> <Gold.PLP.ligand.torsion>
0.4828

> <Gold.PLP.Chemscore.Hbond>
3.9000

> <Gold.PLP.Chemscore.CHOScore>
0.0000

> <Gold.PLP.Chemscore.Metal>
0.0000

> <Gold.Chemscore.Hbonds>
donor molecule, donor type, donor heavy atom, donor atom, acceptor molecule, acceptor atom, score
      L1  H     5    26       P1  7948  1.00
      L1  H     8    27       P1  7948  1.00
      L1  H    12    33       P1 10175  1.00
      P1  H  7989  7998       L1    21  0.86

> <Gold.PLP.Chemscore.Internal.Correction>
0.2248

> <Gold.Rescore>
     Score         DG    S(hbond)    S(metal)    S(lipo)     H(rot)  DE(clash)    DE(int)     intcor
     17.82     -18.95       2.96        0.00      74.70       2.01       0.04       1.09       ----

> <Gold.Chemscore.Fitness>
17.8176

> <Gold.Chemscore.DG>
-18.9482

> <Gold.Chemscore.ZeroCoef>
-5.4800

> <Gold.Chemscore.Hbond>
2.9595

> <Gold.Chemscore.Metal>
0.0000

> <Gold.Chemscore.Lipo>
74.7045

> <Gold.Chemscore.Internal_Hbond>
0.0000

> <Gold.Chemscore.DEClash>
0.0402

> <Gold.Chemscore.DEInternal>
1.0905

> <Gold.Chemscore.Rot>
2.0144

> <Gold.Chemscore.Internal.Correction>
   9.000000E+99

> <Gold.Chemscore.Hbonds>
donor molecule, donor type, donor heavy atom, donor atom, acceptor molecule, acceptor atom, score
      L1  H     5    26       P1  7948  0.99
      L1  H     8    27       P1  7948  0.98
      L1  H    12    33       P1 10175  1.00
      P1  H  7989  7998       L1    21  0.04

> <Gold.Chemscore.Hbond.Weighted>
-9.8846

> <Gold.Chemscore.Metal.Weighted>
-0.0000

> <Gold.Chemscore.Lipo.Weighted>
-8.7404

> <Gold.Chemscore.Internal_Hbond.Weighted>
0.0000

> <Gold.Chemscore.DEClash.Weighted>
0.0402

> <Gold.Chemscore.DEInternal.Weighted>
1.0905

> <Gold.Chemscore.Rot.Weighted>
5.1568

> <Gold.Chemscore.Internal.Correction.Weighted>
   9.000000E+99

> <Gold.Protein.RotatedTorsions>
[ 6907 6896 6895 6894 ] final  -15.86 input  -60.11 | X-H torsion
[ 7974 7965 7964 7962 ] final  140.67 input  175.53 | X-H torsion
[ 8008 7997 7996 7995 ] final   67.21 input   59.86 | X-H torsion
[ 10167 10162 10161 10158 ] final  120.02 input  -65.29 | X-H torsion
[ 10718 10713 10712 10709 ] final  -74.75 input   66.30 | X-H torsion
[ 10763 10752 10751 10750 ] final    0.95 input  -60.55 | X-H torsion
[ 11005 11000 10999 10996 ] final  158.81 input  -57.11 | X-H torsion

> <Gold.Protein.ActiveResidues>
 VAL166  LYS551  ARG553  GLY616  TRP617  ASP618  TYR619  PRO620  LYS621  CYS622 
 ASP623  PHE694  ASN695  SER759  ASP760  ASP761  ALA762  ILE779  LEU786  VAL792 
 PHE793  MET794  SER795  GLU796  ALA797  LYS798  CYS799  TRP800  GLU811  SER814 

> <Gold.Protein.RotatedAtoms>
  151.3174  135.0810  159.9293 H   0  0  0  0  0  0  0  0  0  0  0  0  # atno 6907 bound_to 6896
  152.5264  133.9673  159.7756 H   0  0  0  0  0  0  0  0  0  0  0  0  # atno 6908 bound_to 6896
  150.9988  133.6024  159.2728 H   0  0  0  0  0  0  0  0  0  0  0  0  # atno 6909 bound_to 6896
  144.9165  139.5223  143.5683 H   0  0  0  0  0  0  0  0  0  0  0  0  # atno 7974 bound_to 7965
  155.6893  140.3496  155.4887 H   0  0  0  0  0  0  0  0  0  0  0  0  # atno 8008 bound_to 7997
  155.9538  140.1124  157.0976 H   0  0  0  0  0  0  0  0  0  0  0  0  # atno 8009 bound_to 7997
  154.4128  140.1189  156.5074 H   0  0  0  0  0  0  0  0  0  0  0  0  # atno 8010 bound_to 7997
  139.6009  144.7056  151.3065 H   0  0  0  0  0  0  0  0  0  0  0  0  # atno 10167 bound_to 10162
  156.0231  130.4424  150.2939 H   0  0  0  0  0  0  0  0  0  0  0  0  # atno 10718 bound_to 10713
  153.3142  135.6965  153.7088 H   0  0  0  0  0  0  0  0  0  0  0  0  # atno 10763 bound_to 10752
  153.5953  135.3472  155.2926 H   0  0  0  0  0  0  0  0  0  0  0  0  # atno 10764 bound_to 10752
  154.8582  135.4327  154.2289 H   0  0  0  0  0  0  0  0  0  0  0  0  # atno 10765 bound_to 10752
  140.1901  134.8413  157.2902 H   0  0  0  0  0  0  0  0  0  0  0  0  # atno 11005 bound_to 11000
  146.3184  139.8012  142.8965 LP  0  0  0  0  0  0  0  0  0  0  0  0  # atno 17320 bound_to 7965
  145.3366  141.0278  143.3416 LP  0  0  0  0  0  0  0  0  0  0  0  0  # atno 17321 bound_to 7965
  140.7248  143.7033  150.7827 LP  0  0  0  0  0  0  0  0  0  0  0  0  # atno 17342 bound_to 10162
  140.0609  143.5155  152.2628 LP  0  0  0  0  0  0  0  0  0  0  0  0  # atno 17343 bound_to 10162
  157.1042  131.0204  151.3073 LP  0  0  0  0  0  0  0  0  0  0  0  0  # atno 17370 bound_to 10713
  157.4755  130.7734  149.7364 LP  0  0  0  0  0  0  0  0  0  0  0  0  # atno 17371 bound_to 10713
  140.2169  134.4070  155.7584 LP  0  0  0  0  0  0  0  0  0  0  0  0  # atno 17394 bound_to 11000
  141.2226  133.7146  156.8429 LP  0  0  0  0  0  0  0  0  0  0  0  0  # atno 17395 bound_to 11000

$$$$
