AV-unprocessed.smi:200|AV-procd|sdf|1578|dock9
  -GOLD-   2262019463D 1   1.00000     0.00000
 Structure written by MMmdl.
 56 59  0  0  0  0  0  0  0  0  1 V2000
  147.5107  141.8887  153.7180 C   0  0  0  0  0  0  0  0  0  0  0  0
  148.8789  141.9708  154.0844 O   0  0  0  0  0  0  0  0  0  0  0  0
  149.1982  141.3259  155.3107 C   0  0  0  0  0  0  0  0  0  0  0  0
  150.4729  141.9026  155.9630 C   0  0  0  0  0  0  0  0  0  0  0  0
  151.1491  140.9615  156.8582 N   0  0  0  0  0  0  0  0  0  0  0  0
  151.5165  139.7825  156.2995 C   0  0  0  0  0  0  0  0  0  0  0  0
  152.3713  139.7647  155.2431 N   0  0  0  0  0  0  0  0  0  0  0  0
  152.7376  138.5997  154.7008 C   0  0  0  0  0  0  0  0  0  0  0  0
  152.3762  137.3640  155.0539 N   0  0  0  0  0  0  0  0  0  0  0  0
  151.5135  137.3800  156.1103 C   0  0  0  0  0  0  0  0  0  0  0  0
  151.0271  138.5379  156.7780 C   0  0  0  0  0  0  0  0  0  0  0  0
  150.1478  138.1736  157.7888 N   0  0  0  0  0  0  0  0  0  0  0  0
  150.1178  136.8706  157.7243 C   0  0  0  0  0  0  0  0  0  0  0  0
  150.9279  136.3077  156.7621 N   0  0  0  0  0  0  0  0  0  0  0  0
  151.0923  134.8880  156.4836 C   0  0  0  0  0  0  0  0  0  0  0  0
  149.7910  134.1594  156.0778 C   0  0  0  0  0  0  0  0  0  0  0  0
  148.7741  134.1678  157.2316 C   0  0  0  0  0  0  0  0  0  0  0  0
  149.2657  133.4748  158.3609 O   0  0  0  0  0  0  0  0  0  0  0  0
  149.2292  134.5594  154.7067 C   0  0  0  0  0  0  0  0  0  0  0  0
  149.6097  133.3045  154.1049 O   0  0  0  0  0  0  0  0  0  0  0  0
  149.9796  132.7930  155.4023 C   0  0  0  0  0  0  0  0  0  0  0  0
  152.0890  141.5509  157.8214 C   0  0  2  0  0  0  0  0  0  0  0  0
  152.6540  140.5800  158.8704 C   0  0  0  0  0  0  0  0  0  0  0  0
  153.0908  141.4592  160.0545 C   0  0  0  0  0  0  0  0  0  0  0  0
  152.6516  142.8967  159.7232 C   0  0  2  0  0  0  0  0  0  0  0  0
  152.1910  143.7045  160.9438 C   0  0  0  0  0  0  0  0  0  0  0  0
  151.5736  142.7355  158.6494 C   0  0  0  0  0  0  0  0  0  0  0  0
  147.3462  142.4660  152.8084 H   0  0  0  0  0  0  0  0  0  0  0  0
  146.8658  142.3002  154.4954 H   0  0  0  0  0  0  0  0  0  0  0  0
  147.2065  140.8623  153.5143 H   0  0  0  0  0  0  0  0  0  0  0  0
  148.3460  141.4371  155.9812 H   0  0  0  0  0  0  0  0  0  0  0  0
  149.3096  140.2529  155.1492 H   0  0  0  0  0  0  0  0  0  0  0  0
  151.1676  142.2161  155.1829 H   0  0  0  0  0  0  0  0  0  0  0  0
  150.2286  142.8081  156.5182 H   0  0  0  0  0  0  0  0  0  0  0  0
  153.4200  138.6665  153.8663 H   0  0  0  0  0  0  0  0  0  0  0  0
  149.5078  136.2783  158.3908 H   0  0  0  0  0  0  0  0  0  0  0  0
  151.8507  134.7826  155.7070 H   0  0  0  0  0  0  0  0  0  0  0  0
  151.5243  134.4228  157.3706 H   0  0  0  0  0  0  0  0  0  0  0  0
  148.5557  135.1901  157.5421 H   0  0  0  0  0  0  0  0  0  0  0  0
  147.8188  133.7391  156.9308 H   0  0  0  0  0  0  0  0  0  0  0  0
  148.5889  133.4568  159.0204 H   0  0  0  0  0  0  0  0  0  0  0  0
  148.1478  134.7036  154.6939 H   0  0  0  0  0  0  0  0  0  0  0  0
  149.7377  135.4095  154.2502 H   0  0  0  0  0  0  0  0  0  0  0  0
  151.0008  132.4165  155.4164 H   0  0  0  0  0  0  0  0  0  0  0  0
  149.2843  132.0273  155.7488 H   0  0  0  0  0  0  0  0  0  0  0  0
  152.9316  141.9256  157.2383 H   0  0  0  0  0  0  0  0  0  0  0  0
  151.8926  139.8802  159.2138 H   0  0  0  0  0  0  0  0  0  0  0  0
  153.4789  139.9903  158.4698 H   0  0  0  0  0  0  0  0  0  0  0  0
  152.6113  141.1039  160.9675 H   0  0  0  0  0  0  0  0  0  0  0  0
  154.1681  141.4090  160.2168 H   0  0  0  0  0  0  0  0  0  0  0  0
  153.5000  143.4100  159.2675 H   0  0  0  0  0  0  0  0  0  0  0  0
  151.3416  143.2305  161.4366 H   0  0  0  0  0  0  0  0  0  0  0  0
  151.8879  144.7106  160.6531 H   0  0  0  0  0  0  0  0  0  0  0  0
  152.9927  143.7976  161.6767 H   0  0  0  0  0  0  0  0  0  0  0  0
  151.4375  143.6374  158.0520 H   0  0  0  0  0  0  0  0  0  0  0  0
  150.6240  142.5035  159.1330 H   0  0  0  0  0  0  0  0  0  0  0  0
  1  2  1  0  0  0  0
  1 28  1  0  0  0  0
  1 29  1  0  0  0  0
  1 30  1  0  0  0  0
  2  3  1  0  0  0  0
  3  4  1  0  0  0  0
  3 31  1  0  0  0  0
  3 32  1  0  0  0  0
  4  5  1  0  0  0  0
  4 33  1  0  0  0  0
  4 34  1  0  0  0  0
  5  6  1  0  0  0  0
  5 22  1  0  0  0  0
  6 11  1  0  0  0  0
  6  7  2  0  0  0  0
  7  8  1  0  0  0  0
  8  9  2  0  0  0  0
  8 35  1  0  0  0  0
  9 10  1  0  0  0  0
 10 14  1  0  0  0  0
 10 11  2  0  0  0  0
 11 12  1  0  0  0  0
 12 13  2  0  0  0  0
 13 14  1  0  0  0  0
 13 36  1  0  0  0  0
 14 15  1  0  0  0  0
 15 16  1  0  0  0  0
 15 37  1  0  0  0  0
 15 38  1  0  0  0  0
 16 21  1  0  0  0  0
 16 17  1  0  0  0  0
 16 19  1  0  0  0  0
 17 18  1  0  0  0  0
 17 39  1  0  0  0  0
 17 40  1  0  0  0  0
 18 41  1  0  0  0  0
 19 20  1  0  0  0  0
 19 42  1  0  0  0  0
 19 43  1  0  0  0  0
 20 21  1  0  0  0  0
 21 44  1  0  0  0  0
 21 45  1  0  0  0  0
 22 27  1  0  0  0  0
 22 23  1  0  0  0  0
 22 46  1  0  0  0  0
 23 24  1  0  0  0  0
 23 47  1  0  0  0  0
 23 48  1  0  0  0  0
 24 25  1  0  0  0  0
 24 49  1  0  0  0  0
 24 50  1  0  0  0  0
 25 26  1  0  0  0  0
 25 27  1  0  0  0  0
 25 51  1  0  0  0  0
 26 52  1  0  0  0  0
 26 53  1  0  0  0  0
 26 54  1  0  0  0  0
 27 55  1  0  0  0  0
 27 56  1  0  0  0  0
M  END
> <s_m_source_file>
AV-unprocessed.smi

> <i_m_source_file_index>
200

> <i_lp_mmshare_version>
43012

> <i_f3d_flags>
0

> <s_epik_input>
W0NIM11bQ0BASF0oW0NIMl0xKVtDSDJdW0NIMl1bQ0BIXTFOKFtDSDJdW0NIMl1PW0NIM10pYyhuW2NIXW4yKWMoYzIzKW5bY0hdbjNbQ0gyXUM0KFtDSDJdW09IXSlbQ0gyXU9bQ0gyXTQ=

> <s_epik_cmdline>
J2VwaWtfcHl0aG9uJywgJy1waCcsICc3LjAnLCAnLXRuJywgJzgnLCAnLW1hJywgJzIwMCcsICctbWV0YWxfYmluZGluZycsICctaW1hZScsICc8aW5maWxlLm1hZT4nLCAnLW9tYWUnLCAnPG91dGZpbGUubWFlPic=

> <r_lp_tautomer_probability>
1

> <r_epik_Ionization_Penalty>
0.00363087

> <r_epik_Ionization_Penalty_Charging>
0

> <r_epik_Ionization_Penalty_Neutral>
0.00363087

> <r_epik_State_Penalty>
0.0024341

> <r_epik_Charging_Adjusted_Penalty>
0.0024341

> <i_epik_Tot_Q>
0

> <i_epik_Tot_abs_Q>
0

> <r_epik_Metal_State_Penalty>
-0

> <b_epik_Metal_Only>
0

> <s_lp_Force_Field>
OPLS_2005

> <r_lp_Energy>
51.1688

> <b_lp_Chiralities_Consistent>
1

> <s_lp_Variant>
AV-unprocessed.smi:200-3

> <Gold.Version>
5.8.1

> <Gold.Id.Protein>
6NUR|6NUR_protein|mol2

> <Gold.PLP.Fitness>
53.9902

> <Gold.PLP.PLP>
-45.7277

> <Gold.PLP.part.hbond>
-4.4013

> <Gold.PLP.part.metal>
0.0000

> <Gold.PLP.part.buried>
-8.1538

> <Gold.PLP.part.nonpolar>
-33.0217

> <Gold.PLP.part.repulsive>
0.4339

> <Gold.PLP.ligand.clash>
0.0000

> <Gold.PLP.ligand.torsion>
0.9506

> <Gold.PLP.Chemscore.Hbond>
2.9509

> <Gold.PLP.Chemscore.CHOScore>
0.0000

> <Gold.PLP.Chemscore.Metal>
0.0000

> <Gold.Chemscore.Hbonds>
donor molecule, donor type, donor heavy atom, donor atom, acceptor molecule, acceptor atom, score
      P1  H  6896  6908       L1    18  1.00
      P1  H  7989  7998       L1     7  0.46
      P1  H  7997  8008       L1     7  0.39
      P1  H  8011  8017       L1     2  0.43
      P1  H 10752 10765       L1     9  0.67

> <Gold.PLP.Chemscore.Internal.Correction>
1.3111

> <Gold.Rescore>
     Score         DG    S(hbond)    S(metal)    S(lipo)     H(rot)  DE(clash)    DE(int)     intcor
     15.83     -18.62       2.64        0.00     108.56       3.28       1.23       1.57       ----

> <Gold.Chemscore.Fitness>
15.8273

> <Gold.Chemscore.DG>
-18.6244

> <Gold.Chemscore.ZeroCoef>
-5.4800

> <Gold.Chemscore.Hbond>
2.6435

> <Gold.Chemscore.Metal>
0.0000

> <Gold.Chemscore.Lipo>
108.5644

> <Gold.Chemscore.Internal_Hbond>
0.0000

> <Gold.Chemscore.DEClash>
1.2284

> <Gold.Chemscore.DEInternal>
1.5687

> <Gold.Chemscore.Rot>
3.2761

> <Gold.Chemscore.Internal.Correction>
   9.000000E+99

> <Gold.Chemscore.Hbonds>
donor molecule, donor type, donor heavy atom, donor atom, acceptor molecule, acceptor atom, score
      P1  H  6896  6908       L1    18  0.57
      P1  H  7989  7998       L1     7  0.14
      P1  H  7997  8008       L1     7  0.02
      P1  H  8011  8017       L1     2  0.16
      P1  H 10752 10765       L1     9  0.63

> <Gold.Chemscore.Hbond.Weighted>
-8.8292

> <Gold.Chemscore.Metal.Weighted>
-0.0000

> <Gold.Chemscore.Lipo.Weighted>
-12.7020

> <Gold.Chemscore.Internal_Hbond.Weighted>
0.0000

> <Gold.Chemscore.DEClash.Weighted>
1.2284

> <Gold.Chemscore.DEInternal.Weighted>
1.5687

> <Gold.Chemscore.Rot.Weighted>
8.3868

> <Gold.Chemscore.Internal.Correction.Weighted>
   9.000000E+99

> <Gold.Protein.RotatedTorsions>
[ 6907 6896 6895 6894 ] final  107.26 input  -60.11 | X-H torsion
[ 7974 7965 7964 7962 ] final  -69.07 input  175.53 | X-H torsion
[ 8008 7997 7996 7995 ] final  -30.56 input   59.86 | X-H torsion
[ 10167 10162 10161 10158 ] final  160.23 input  -65.29 | X-H torsion
[ 10718 10713 10712 10709 ] final   53.34 input   66.30 | X-H torsion
[ 10763 10752 10751 10750 ] final  172.82 input  -60.55 | X-H torsion
[ 11005 11000 10999 10996 ] final  -28.17 input  -57.11 | X-H torsion

> <Gold.Protein.ActiveResidues>
 VAL166  LYS551  ARG553  GLY616  TRP617  ASP618  TYR619  PRO620  LYS621  CYS622 
 ASP623  PHE694  ASN695  SER759  ASP760  ASP761  ALA762  ILE779  LEU786  VAL792 
 PHE793  MET794  SER795  GLU796  ALA797  LYS798  CYS799  TRP800  GLU811  SER814 

> <Gold.Protein.RotatedAtoms>
  152.5161  133.9260  159.7557 H   0  0  0  0  0  0  0  0  0  0  0  0  # atno 6907 bound_to 6896
  150.9621  133.6425  159.2759 H   0  0  0  0  0  0  0  0  0  0  0  0  # atno 6908 bound_to 6896
  151.3666  135.0920  159.9505 H   0  0  0  0  0  0  0  0  0  0  0  0  # atno 6909 bound_to 6896
  145.7084  140.9088  143.0693 H   0  0  0  0  0  0  0  0  0  0  0  0  # atno 7974 bound_to 7965
  154.4246  140.1788  156.1426 H   0  0  0  0  0  0  0  0  0  0  0  0  # atno 8008 bound_to 7997
  155.9980  140.3363  155.6792 H   0  0  0  0  0  0  0  0  0  0  0  0  # atno 8009 bound_to 7997
  155.6282  140.0667  157.2648 H   0  0  0  0  0  0  0  0  0  0  0  0  # atno 8010 bound_to 7997
  139.4838  144.4654  151.8649 H   0  0  0  0  0  0  0  0  0  0  0  0  # atno 10167 bound_to 10162
  157.5157  130.8531  149.8493 H   0  0  0  0  0  0  0  0  0  0  0  0  # atno 10718 bound_to 10713
  154.4315  135.2760  155.1909 H   0  0  0  0  0  0  0  0  0  0  0  0  # atno 10763 bound_to 10752
  154.3813  135.6087  153.5796 H   0  0  0  0  0  0  0  0  0  0  0  0  # atno 10764 bound_to 10752
  152.9836  135.5881  154.4627 H   0  0  0  0  0  0  0  0  0  0  0  0  # atno 10765 bound_to 10752
  140.9185  133.7414  156.0768 H   0  0  0  0  0  0  0  0  0  0  0  0  # atno 11005 bound_to 11000
  144.6948  139.9042  143.7460 LP  0  0  0  0  0  0  0  0  0  0  0  0  # atno 17320 bound_to 7965
  146.0734  139.3723  143.0509 LP  0  0  0  0  0  0  0  0  0  0  0  0  # atno 17321 bound_to 7965
  140.4119  144.2358  150.5888 LP  0  0  0  0  0  0  0  0  0  0  0  0  # atno 17342 bound_to 10162
  140.4958  143.2333  151.8752 LP  0  0  0  0  0  0  0  0  0  0  0  0  # atno 17343 bound_to 10162
  156.0319  130.3762  150.1664 LP  0  0  0  0  0  0  0  0  0  0  0  0  # atno 17370 bound_to 10713
  156.9853  130.9877  151.3427 LP  0  0  0  0  0  0  0  0  0  0  0  0  # atno 17371 bound_to 10713
  140.8019  134.3499  157.5437 LP  0  0  0  0  0  0  0  0  0  0  0  0  # atno 17394 bound_to 11000
  139.8770  134.9202  156.3246 LP  0  0  0  0  0  0  0  0  0  0  0  0  # atno 17395 bound_to 11000

$$$$
