AV-unprocessed.smi:119|AV-procd|sdf|1133|dock4
  -GOLD-   2262018263D 1   1.00000     0.00000
 Structure written by MMmdl.
 51 54  0  0  0  0  0  0  0  0  1 V2000
  148.1180  141.6427  154.5748 C   0  0  0  0  0  0  0  0  0  0  0  0
  149.4061  141.6367  155.4083 C   0  0  2  0  0  0  0  0  0  0  0  0
  150.1191  140.2725  155.3114 C   0  0  0  0  0  0  0  0  0  0  0  0
  151.5363  140.2442  155.9133 C   0  0  0  0  0  0  0  0  0  0  0  0
  151.5168  140.3304  157.3770 N   0  0  0  0  0  0  0  0  0  0  0  0
  151.3050  139.2246  158.1354 C   0  0  0  0  0  0  0  0  0  0  0  0
  151.1905  139.2852  159.3615 O   0  0  0  0  0  0  0  0  0  0  0  0
  151.2065  137.8404  157.4526 C   0  0  0  0  0  0  0  0  0  0  0  0
  149.8943  137.1935  157.6700 N   0  0  0  0  0  0  0  0  0  0  0  0
  149.0150  137.0255  156.5720 C   0  0  0  0  0  0  0  0  0  0  0  0
  149.3232  137.4051  155.4414 O   0  0  0  0  0  0  0  0  0  0  0  0
  147.7415  136.3839  156.8795 C   0  0  0  0  0  0  0  0  0  0  0  0
  146.8565  136.1547  155.8945 F   0  0  0  0  0  0  0  0  0  0  0  0
  147.4372  136.0124  158.1403 C   0  0  0  0  0  0  0  0  0  0  0  0
  148.2871  136.2195  159.2088 N   0  0  0  0  0  0  0  0  0  0  0  0
  147.8761  135.7501  160.5851 C   0  0  2  0  0  0  0  0  0  0  0  0
  146.4827  135.0930  160.6196 C   0  0  0  0  0  0  0  0  0  0  0  0
  145.7225  135.9574  161.6120 C   0  0  0  0  0  0  0  0  0  0  0  0
  146.8400  136.6176  162.4120 C   0  0  0  0  0  0  0  0  0  0  0  0
  147.8477  136.8509  161.4404 O   0  0  0  0  0  0  0  0  0  0  0  0
  149.5590  136.7942  158.9866 C   0  0  0  0  0  0  0  0  0  0  0  0
  150.3570  136.9490  159.9130 O   0  0  0  0  0  0  0  0  0  0  0  0
  151.6361  141.6270  157.9385 C   0  0  0  0  0  0  0  0  0  0  0  0
  152.8437  142.0049  158.5653 C   0  0  0  0  0  0  0  0  0  0  0  0
  152.9733  143.2856  159.1353 C   0  0  0  0  0  0  0  0  0  0  0  0
  151.8979  144.1926  159.0811 C   0  0  0  0  0  0  0  0  0  0  0  0
  150.6928  143.8210  158.4546 C   0  0  0  0  0  0  0  0  0  0  0  0
  150.5589  142.5428  157.8769 C   0  0  0  0  0  0  0  0  0  0  0  0
  149.0206  142.1051  157.1224 S   0  0  0  0  0  0  0  0  0  0  0  0
  148.3247  141.4253  153.5266 H   0  0  0  0  0  0  0  0  0  0  0  0
  147.6280  142.6157  154.6176 H   0  0  0  0  0  0  0  0  0  0  0  0
  147.4096  140.8969  154.9370 H   0  0  0  0  0  0  0  0  0  0  0  0
  150.0651  142.4069  155.0057 H   0  0  0  0  0  0  0  0  0  0  0  0
  149.5011  139.4946  155.7622 H   0  0  0  0  0  0  0  0  0  0  0  0
  150.2059  140.0048  154.2578 H   0  0  0  0  0  0  0  0  0  0  0  0
  152.0551  139.3386  155.5944 H   0  0  0  0  0  0  0  0  0  0  0  0
  152.1255  141.0666  155.5048 H   0  0  0  0  0  0  0  0  0  0  0  0
  151.4297  137.9724  156.3932 H   0  0  0  0  0  0  0  0  0  0  0  0
  151.9836  137.1616  157.8052 H   0  0  0  0  0  0  0  0  0  0  0  0
  146.4823  135.5378  158.3134 H   0  0  0  0  0  0  0  0  0  0  0  0
  148.6553  135.0605  160.9129 H   0  0  0  0  0  0  0  0  0  0  0  0
  146.0110  135.0562  159.6369 H   0  0  0  0  0  0  0  0  0  0  0  0
  146.5894  134.0727  160.9892 H   0  0  0  0  0  0  0  0  0  0  0  0
  145.1432  136.7161  161.0848 H   0  0  0  0  0  0  0  0  0  0  0  0
  145.0365  135.3847  162.2366 H   0  0  0  0  0  0  0  0  0  0  0  0
  146.5239  137.5427  162.8943 H   0  0  0  0  0  0  0  0  0  0  0  0
  147.2220  135.9410  163.1781 H   0  0  0  0  0  0  0  0  0  0  0  0
  153.6713  141.3119  158.6122 H   0  0  0  0  0  0  0  0  0  0  0  0
  153.8971  143.5716  159.6163 H   0  0  0  0  0  0  0  0  0  0  0  0
  151.9967  145.1736  159.5215 H   0  0  0  0  0  0  0  0  0  0  0  0
  149.8706  144.5207  158.4188 H   0  0  0  0  0  0  0  0  0  0  0  0
  1  2  1  0  0  0  0
  1 30  1  0  0  0  0
  1 31  1  0  0  0  0
  1 32  1  0  0  0  0
  2 29  1  0  0  0  0
  2  3  1  0  0  0  0
  2 33  1  0  0  0  0
  3  4  1  0  0  0  0
  3 34  1  0  0  0  0
  3 35  1  0  0  0  0
  4  5  1  0  0  0  0
  4 36  1  0  0  0  0
  4 37  1  0  0  0  0
  5  6  1  0  0  0  0
  5 23  1  0  0  0  0
  6  7  2  0  0  0  0
  6  8  1  0  0  0  0
  8  9  1  0  0  0  0
  8 38  1  0  0  0  0
  8 39  1  0  0  0  0
  9 21  1  0  0  0  0
  9 10  1  0  0  0  0
 10 11  2  0  0  0  0
 10 12  1  0  0  0  0
 12 13  1  0  0  0  0
 12 14  2  0  0  0  0
 14 15  1  0  0  0  0
 14 40  1  0  0  0  0
 15 16  1  0  0  0  0
 15 21  1  0  0  0  0
 16 20  1  0  0  0  0
 16 17  1  0  0  0  0
 16 41  1  0  0  0  0
 17 18  1  0  0  0  0
 17 42  1  0  0  0  0
 17 43  1  0  0  0  0
 18 19  1  0  0  0  0
 18 44  1  0  0  0  0
 18 45  1  0  0  0  0
 19 20  1  0  0  0  0
 19 46  1  0  0  0  0
 19 47  1  0  0  0  0
 21 22  2  0  0  0  0
 23 28  2  0  0  0  0
 23 24  1  0  0  0  0
 24 25  2  0  0  0  0
 24 48  1  0  0  0  0
 25 26  1  0  0  0  0
 25 49  1  0  0  0  0
 26 27  2  0  0  0  0
 26 50  1  0  0  0  0
 27 28  1  0  0  0  0
 27 51  1  0  0  0  0
 28 29  1  0  0  0  0
M  END
> <s_m_source_file>
AV-unprocessed.smi

> <i_m_source_file_index>
119

> <i_lp_mmshare_version>
43012

> <i_f3d_flags>
0

> <s_epik_input>
W2NIXTFbY0hdW2NIXVtjSF1jKGMxMilTW0NASF0oW0NIM10pW0NIMl1bQ0gyXU4yQyg9TylbQ0gyXW4zYyg9TyljKEYpW2NIXW4oYzM9TylbQ0BASF00W0NIMl1bQ0gyXVtDSDJdTzQ=

> <s_epik_cmdline>
J2VwaWtfcHl0aG9uJywgJy1waCcsICc3LjAnLCAnLXRuJywgJzgnLCAnLW1hJywgJzIwMCcsICctbWV0YWxfYmluZGluZycsICctaW1hZScsICc8aW5maWxlLm1hZT4nLCAnLW9tYWUnLCAnPG91dGZpbGUubWFlPic=

> <r_lp_tautomer_probability>
1

> <r_epik_Ionization_Penalty>
1.68882e-06

> <r_epik_Ionization_Penalty_Charging>
3.67303e-09

> <r_epik_Ionization_Penalty_Neutral>
1.68515e-06

> <r_epik_State_Penalty>
-0

> <r_epik_Charging_Adjusted_Penalty>
3.67303e-09

> <i_epik_Tot_Q>
0

> <i_epik_Tot_abs_Q>
0

> <r_epik_Metal_State_Penalty>
-0

> <b_epik_Metal_Only>
0

> <s_epik_Chemistry_Notes>
This compound contains an acetal/aminal-like group ( X-CH(R)-Y where X, Y are N, S, or O) that may be acid/base labile, releasing an aldehyde.

> <s_lp_Force_Field>
OPLS_2005

> <r_lp_Energy>
42.8221

> <b_lp_Chiralities_Consistent>
1

> <s_lp_Variant>
AV-unprocessed.smi:119-1

> <Gold.Version>
5.8.1

> <Gold.Id.Protein>
6NUR|6NUR_protein|mol2

> <Gold.PLP.Fitness>
48.5742

> <Gold.PLP.PLP>
-42.1749

> <Gold.PLP.part.hbond>
-3.9549

> <Gold.PLP.part.metal>
0.0000

> <Gold.PLP.part.buried>
-2.2414

> <Gold.PLP.part.nonpolar>
-36.0089

> <Gold.PLP.part.repulsive>
0.0922

> <Gold.PLP.ligand.clash>
0.0000

> <Gold.PLP.ligand.torsion>
0.0708

> <Gold.PLP.Chemscore.Hbond>
2.1700

> <Gold.PLP.Chemscore.CHOScore>
0.0000

> <Gold.PLP.Chemscore.Metal>
0.0000

> <Gold.Chemscore.Hbonds>
donor molecule, donor type, donor heavy atom, donor atom, acceptor molecule, acceptor atom, score
      P1  H  6896  6907       L1    22  0.88
      P1  H  6931  6943       L1    20  1.00
      P1  H  6934  6947       L1    20  0.17

> <Gold.PLP.Chemscore.Internal.Correction>
0.0310

> <Gold.Rescore>
     Score         DG    S(hbond)    S(metal)    S(lipo)     H(rot)  DE(clash)    DE(int)     intcor
     15.36     -19.30       1.31        0.00     114.19       1.53       0.35       3.59       ----

> <Gold.Chemscore.Fitness>
15.3578

> <Gold.Chemscore.DG>
-19.3032

> <Gold.Chemscore.ZeroCoef>
-5.4800

> <Gold.Chemscore.Hbond>
1.3086

> <Gold.Chemscore.Metal>
0.0000

> <Gold.Chemscore.Lipo>
114.1929

> <Gold.Chemscore.Internal_Hbond>
0.0000

> <Gold.Chemscore.DEClash>
0.3504

> <Gold.Chemscore.DEInternal>
3.5950

> <Gold.Chemscore.Rot>
1.5266

> <Gold.Chemscore.Internal.Correction>
   9.000000E+99

> <Gold.Chemscore.Hbonds>
donor molecule, donor type, donor heavy atom, donor atom, acceptor molecule, acceptor atom, score
      P1  H  6896  6907       L1    22  0.38
      P1  H  6931  6943       L1    20  0.85
      P1  H  6934  6947       L1    20  0.02

> <Gold.Chemscore.Hbond.Weighted>
-4.3707

> <Gold.Chemscore.Metal.Weighted>
-0.0000

> <Gold.Chemscore.Lipo.Weighted>
-13.3606

> <Gold.Chemscore.Internal_Hbond.Weighted>
0.0000

> <Gold.Chemscore.DEClash.Weighted>
0.3504

> <Gold.Chemscore.DEInternal.Weighted>
3.5950

> <Gold.Chemscore.Rot.Weighted>
3.9081

> <Gold.Chemscore.Internal.Correction.Weighted>
   9.000000E+99

> <Gold.Protein.RotatedTorsions>
[ 6907 6896 6895 6894 ] final   -7.37 input  -60.11 | X-H torsion
[ 7974 7965 7964 7962 ] final -157.31 input  175.53 | X-H torsion
[ 8008 7997 7996 7995 ] final  -51.37 input   59.86 | X-H torsion
[ 10167 10162 10161 10158 ] final  -34.49 input  -65.29 | X-H torsion
[ 10718 10713 10712 10709 ] final  -85.37 input   66.30 | X-H torsion
[ 10763 10752 10751 10750 ] final  -13.69 input  -60.55 | X-H torsion
[ 11005 11000 10999 10996 ] final   92.86 input  -57.11 | X-H torsion

> <Gold.Protein.ActiveResidues>
 VAL166  LYS551  ARG553  GLY616  TRP617  ASP618  TYR619  PRO620  LYS621  CYS622 
 ASP623  PHE694  ASN695  SER759  ASP760  ASP761  ALA762  ILE779  LEU786  VAL792 
 PHE793  MET794  SER795  GLU796  ALA797  LYS798  CYS799  TRP800  GLU811  SER814 

> <Gold.Protein.RotatedAtoms>
  151.4506  135.1029  159.9696 H   0  0  0  0  0  0  0  0  0  0  0  0  # atno 6907 bound_to 6896
  152.4889  133.8444  159.7179 H   0  0  0  0  0  0  0  0  0  0  0  0  # atno 6908 bound_to 6896
  150.9025  133.7041  159.2902 H   0  0  0  0  0  0  0  0  0  0  0  0  # atno 6909 bound_to 6896
  144.7554  140.3987  143.6016 H   0  0  0  0  0  0  0  0  0  0  0  0  # atno 7974 bound_to 7965
  154.4081  140.1249  156.4818 H   0  0  0  0  0  0  0  0  0  0  0  0  # atno 8008 bound_to 7997
  155.7078  140.3494  155.4941 H   0  0  0  0  0  0  0  0  0  0  0  0  # atno 8009 bound_to 7997
  155.9328  140.1073  157.1109 H   0  0  0  0  0  0  0  0  0  0  0  0  # atno 8010 bound_to 7997
  140.7184  143.3544  151.2089 H   0  0  0  0  0  0  0  0  0  0  0  0  # atno 10167 bound_to 10162
  155.9997  130.4729  150.4552 H   0  0  0  0  0  0  0  0  0  0  0  0  # atno 10718 bound_to 10713
  153.5171  135.7016  153.5751 H   0  0  0  0  0  0  0  0  0  0  0  0  # atno 10763 bound_to 10752
  153.3816  135.3919  155.1860 H   0  0  0  0  0  0  0  0  0  0  0  0  # atno 10764 bound_to 10752
  154.8698  135.3836  154.4656 H   0  0  0  0  0  0  0  0  0  0  0  0  # atno 10765 bound_to 10752
  139.8817  134.8757  156.3634 H   0  0  0  0  0  0  0  0  0  0  0  0  # atno 11005 bound_to 11000
  145.6798  139.1616  143.2707 LP  0  0  0  0  0  0  0  0  0  0  0  0  # atno 17320 bound_to 7965
  146.1557  140.6861  142.9301 LP  0  0  0  0  0  0  0  0  0  0  0  0  # atno 17321 bound_to 7965
  139.7082  143.9420  152.2936 LP  0  0  0  0  0  0  0  0  0  0  0  0  # atno 17342 bound_to 10162
  139.9136  144.6842  150.8536 LP  0  0  0  0  0  0  0  0  0  0  0  0  # atno 17343 bound_to 10162
  157.2582  131.0561  151.2337 LP  0  0  0  0  0  0  0  0  0  0  0  0  # atno 17370 bound_to 10713
  157.3461  130.7058  149.6412 LP  0  0  0  0  0  0  0  0  0  0  0  0  # atno 17371 bound_to 10713
  140.9514  133.7448  156.0277 LP  0  0  0  0  0  0  0  0  0  0  0  0  # atno 17394 bound_to 11000
  140.8101  134.3409  157.5414 LP  0  0  0  0  0  0  0  0  0  0  0  0  # atno 17395 bound_to 11000

$$$$
