AV-unprocessed.smi:1995|AV-procd|sdf|8077|dock1
  -GOLD-   2272010293D 1   1.00000     0.00000
 Structure written by MMmdl.
 42 43  0  0  0  0  0  0  0  0  1 V2000
  146.3107  141.9999  154.4082 C   0  0  0  0  0  0  0  0  0  0  0  0
  146.2337  140.5760  154.9875 C   0  0  0  0  0  0  0  0  0  0  0  0
  147.1305  139.5130  154.2733 C   0  0  2  0  0  0  0  0  0  0  0  0
  146.9944  139.7658  152.7484 C   0  0  0  0  0  0  0  0  0  0  0  0
  146.5549  138.0895  154.5835 C   0  0  0  0  0  0  0  0  0  0  0  0
  146.6446  137.1349  153.4768 N   0  0  0  0  0  0  0  0  0  0  0  0
  145.6451  136.3709  153.0117 C   0  0  0  0  0  0  0  0  0  0  0  0
  144.5038  136.3874  153.4732 O   0  0  0  0  0  0  0  0  0  0  0  0
  146.0606  135.5943  151.9954 N   0  0  0  0  0  0  0  0  0  0  0  0
  145.3140  134.6353  151.2614 C   0  0  0  0  0  0  0  0  0  0  0  0
  143.9770  134.5870  151.2225 N   0  0  0  0  0  0  0  0  0  0  0  0
  143.5130  133.5371  150.4258 C   0  0  0  0  0  0  0  0  0  0  0  0
  144.5174  132.7909  149.8615 C   0  0  0  0  0  0  0  0  0  0  0  0
  146.0955  133.3814  150.3094 S   0  0  0  0  0  0  0  0  0  0  0  0
  148.5500  139.6110  154.7317 N   0  0  0  0  0  0  0  0  0  0  0  0
  149.1071  140.9713  154.7643 C   0  0  0  0  0  0  0  0  0  0  0  0
  150.5230  141.0094  155.3635 C   0  0  0  0  0  0  0  0  0  0  0  0
  151.3770  140.1452  154.6259 O   0  0  0  0  0  0  0  0  0  0  0  0
  150.9118  138.8019  154.6262 C   0  0  0  0  0  0  0  0  0  0  0  0
  149.4974  138.7391  154.0238 C   0  0  0  0  0  0  0  0  0  0  0  0
  145.6319  142.6657  154.9410 H   0  0  0  0  0  0  0  0  0  0  0  0
  146.0299  142.0227  153.3551 H   0  0  0  0  0  0  0  0  0  0  0  0
  147.3117  142.4203  154.4979 H   0  0  0  0  0  0  0  0  0  0  0  0
  146.4789  140.6289  156.0485 H   0  0  0  0  0  0  0  0  0  0  0  0
  145.1926  140.2556  154.9916 H   0  0  0  0  0  0  0  0  0  0  0  0
  145.9522  139.7522  152.4305 H   0  0  0  0  0  0  0  0  0  0  0  0
  147.5113  139.0078  152.1602 H   0  0  0  0  0  0  0  0  0  0  0  0
  147.3851  140.7384  152.4523 H   0  0  0  0  0  0  0  0  0  0  0  0
  147.0452  137.6507  155.4525 H   0  0  0  0  0  0  0  0  0  0  0  0
  145.5019  138.1671  154.8553 H   0  0  0  0  0  0  0  0  0  0  0  0
  147.5482  137.0480  153.0353 H   0  0  0  0  0  0  0  0  0  0  0  0
  147.0273  135.6915  151.7221 H   0  0  0  0  0  0  0  0  0  0  0  0
  142.4483  133.3922  150.3158 H   0  0  0  0  0  0  0  0  0  0  0  0
  144.4243  131.9328  149.2123 H   0  0  0  0  0  0  0  0  0  0  0  0
  149.1460  141.3894  153.7586 H   0  0  0  0  0  0  0  0  0  0  0  0
  148.4872  141.6361  155.3616 H   0  0  0  0  0  0  0  0  0  0  0  0
  150.9232  142.0225  155.3241 H   0  0  0  0  0  0  0  0  0  0  0  0
  150.5074  140.7117  156.4132 H   0  0  0  0  0  0  0  0  0  0  0  0
  151.5989  138.1882  154.0439 H   0  0  0  0  0  0  0  0  0  0  0  0
  150.9157  138.4083  155.6438 H   0  0  0  0  0  0  0  0  0  0  0  0
  149.1805  137.6994  154.0650 H   0  0  0  0  0  0  0  0  0  0  0  0
  149.5502  139.0152  152.9706 H   0  0  0  0  0  0  0  0  0  0  0  0
  1  2  1  0  0  0  0
  1 21  1  0  0  0  0
  1 22  1  0  0  0  0
  1 23  1  0  0  0  0
  2  3  1  0  0  0  0
  2 24  1  0  0  0  0
  2 25  1  0  0  0  0
  3  4  1  0  0  0  0
  3  5  1  0  0  0  0
  3 15  1  0  0  0  0
  4 26  1  0  0  0  0
  4 27  1  0  0  0  0
  4 28  1  0  0  0  0
  5  6  1  0  0  0  0
  5 29  1  0  0  0  0
  5 30  1  0  0  0  0
  6  7  1  0  0  0  0
  6 31  1  0  0  0  0
  7  8  2  0  0  0  0
  7  9  1  0  0  0  0
  9 10  1  0  0  0  0
  9 32  1  0  0  0  0
 10 14  1  0  0  0  0
 10 11  2  0  0  0  0
 11 12  1  0  0  0  0
 12 13  2  0  0  0  0
 12 33  1  0  0  0  0
 13 14  1  0  0  0  0
 13 34  1  0  0  0  0
 15 20  1  0  0  0  0
 15 16  1  0  0  0  0
 16 17  1  0  0  0  0
 16 35  1  0  0  0  0
 16 36  1  0  0  0  0
 17 18  1  0  0  0  0
 17 37  1  0  0  0  0
 17 38  1  0  0  0  0
 18 19  1  0  0  0  0
 19 20  1  0  0  0  0
 19 39  1  0  0  0  0
 19 40  1  0  0  0  0
 20 41  1  0  0  0  0
 20 42  1  0  0  0  0
M  END
> <s_m_source_file>
AV-unprocessed.smi

> <i_m_source_file_index>
1995

> <i_lp_mmshare_version>
43012

> <i_f3d_flags>
0

> <s_epik_input>
W0NIMl0xW0NIMl1PW0NIMl1bQ0gyXU4xW0NAQF0oW0NIM10pKFtDSDJdW0NIM10pW0NIMl1bTkhdQyg9TylbTkhdYzJuW2NIXVtjSF1zMg==

> <s_epik_cmdline>
J2VwaWtfcHl0aG9uJywgJy1waCcsICc3LjAnLCAnLXRuJywgJzgnLCAnLW1hJywgJzIwMCcsICctbWV0YWxfYmluZGluZycsICctaW1hZScsICc8aW5maWxlLm1hZT4nLCAnLW9tYWUnLCAnPG91dGZpbGUubWFlPic=

> <r_lp_tautomer_probability>
0.999

> <r_epik_Ionization_Penalty>
0.295852

> <r_epik_Ionization_Penalty_Charging>
0

> <r_epik_Ionization_Penalty_Neutral>
0.295852

> <r_epik_State_Penalty>
0.288723

> <r_epik_Charging_Adjusted_Penalty>
0.288723

> <i_epik_Tot_Q>
0

> <i_epik_Tot_abs_Q>
0

> <r_epik_Metal_State_Penalty>
0.29791

> <b_epik_Metal_Only>
0

> <s_lp_Force_Field>
OPLS_2005

> <r_lp_Energy>
41.4857

> <b_lp_Chiralities_Consistent>
1

> <s_lp_Variant>
AV-unprocessed.smi:1995-2

> <Gold.Version>
5.8.1

> <Gold.Id.Protein>
6NUR|6NUR_protein|mol2

> <Gold.PLP.Fitness>
41.9459

> <Gold.PLP.PLP>
-32.4595

> <Gold.PLP.part.hbond>
-3.0000

> <Gold.PLP.part.metal>
0.0000

> <Gold.PLP.part.buried>
-2.2505

> <Gold.PLP.part.nonpolar>
-27.3044

> <Gold.PLP.part.repulsive>
0.4404

> <Gold.PLP.ligand.clash>
0.0000

> <Gold.PLP.ligand.torsion>
1.2327

> <Gold.PLP.Chemscore.Hbond>
2.9600

> <Gold.PLP.Chemscore.CHOScore>
1.0000

> <Gold.PLP.Chemscore.Metal>
0.0000

> <Gold.Chemscore.Hbonds>
donor molecule, donor type, donor heavy atom, donor atom, acceptor molecule, acceptor atom, score
      L1  H     6    31       P1  7948  1.00
      L1  H     9    32       P1  7948  1.00
      P1  H  7989  7998       L1    18  0.59
      L1  C    12    33       P1 10186  0.74

> <Gold.PLP.Chemscore.Internal.Correction>
0.0719

> <Gold.Rescore>
     Score         DG    S(hbond)    S(metal)    S(lipo)     H(rot)  DE(clash)    DE(int)     intcor
     14.36     -18.90       2.48        0.00      82.04       1.74       1.59       2.94       ----

> <Gold.Chemscore.Fitness>
14.3634

> <Gold.Chemscore.DG>
-18.8964

> <Gold.Chemscore.ZeroCoef>
-5.4800

> <Gold.Chemscore.Hbond>
2.4774

> <Gold.Chemscore.Metal>
0.0000

> <Gold.Chemscore.Lipo>
82.0363

> <Gold.Chemscore.Internal_Hbond>
0.0000

> <Gold.Chemscore.DEClash>
1.5920

> <Gold.Chemscore.DEInternal>
2.9410

> <Gold.Chemscore.Rot>
1.7408

> <Gold.Chemscore.Internal.Correction>
   9.000000E+99

> <Gold.Chemscore.Hbonds>
donor molecule, donor type, donor heavy atom, donor atom, acceptor molecule, acceptor atom, score
      L1  H     6    31       P1  7948  0.95
      L1  H     9    32       P1  7948  0.98
      P1  H  7989  7998       L1    18  0.23

> <Gold.Chemscore.Hbond.Weighted>
-8.2747

> <Gold.Chemscore.Metal.Weighted>
-0.0000

> <Gold.Chemscore.Lipo.Weighted>
-9.5982

> <Gold.Chemscore.Internal_Hbond.Weighted>
0.0000

> <Gold.Chemscore.DEClash.Weighted>
1.5920

> <Gold.Chemscore.DEInternal.Weighted>
2.9410

> <Gold.Chemscore.Rot.Weighted>
4.4565

> <Gold.Chemscore.Internal.Correction.Weighted>
   9.000000E+99

> <Gold.Protein.RotatedTorsions>
[ 6907 6896 6895 6894 ] final  -94.61 input  -60.11 | X-H torsion
[ 7974 7965 7964 7962 ] final   69.44 input  175.53 | X-H torsion
[ 8008 7997 7996 7995 ] final  -60.11 input   59.86 | X-H torsion
[ 10167 10162 10161 10158 ] final  174.86 input  -65.29 | X-H torsion
[ 10718 10713 10712 10709 ] final  -48.56 input   66.30 | X-H torsion
[ 10763 10752 10751 10750 ] final  170.35 input  -60.55 | X-H torsion
[ 11005 11000 10999 10996 ] final  -28.03 input  -57.11 | X-H torsion

> <Gold.Protein.ActiveResidues>
 VAL166  LYS551  ARG553  GLY616  TRP617  ASP618  TYR619  PRO620  LYS621  CYS622 
 ASP623  PHE694  ASN695  SER759  ASP760  ASP761  ALA762  ILE779  LEU786  VAL792 
 PHE793  MET794  SER795  GLU796  ALA797  LYS798  CYS799  TRP800  GLU811  SER814 

> <Gold.Protein.RotatedAtoms>
  150.6945  134.1785  159.4239 H   0  0  0  0  0  0  0  0  0  0  0  0  # atno 6907 bound_to 6896
  151.9760  135.0050  160.0564 H   0  0  0  0  0  0  0  0  0  0  0  0  # atno 6908 bound_to 6896
  152.1798  133.4664  159.4989 H   0  0  0  0  0  0  0  0  0  0  0  0  # atno 6909 bound_to 6896
  145.7904  139.2931  143.1214 H   0  0  0  0  0  0  0  0  0  0  0  0  # atno 7974 bound_to 7965
  154.4383  140.1047  156.6222 H   0  0  0  0  0  0  0  0  0  0  0  0  # atno 8008 bound_to 7997
  155.5695  140.3489  155.4493 H   0  0  0  0  0  0  0  0  0  0  0  0  # atno 8009 bound_to 7997
  156.0400  140.1280  157.0155 H   0  0  0  0  0  0  0  0  0  0  0  0  # atno 8010 bound_to 7997
  139.5156  144.3098  152.0302 H   0  0  0  0  0  0  0  0  0  0  0  0  # atno 10167 bound_to 10162
  156.1976  130.4155  149.9285 H   0  0  0  0  0  0  0  0  0  0  0  0  # atno 10718 bound_to 10713
  154.3963  135.2754  155.2124 H   0  0  0  0  0  0  0  0  0  0  0  0  # atno 10763 bound_to 10752
  154.4169  135.6009  153.5990 H   0  0  0  0  0  0  0  0  0  0  0  0  # atno 10764 bound_to 10752
  152.9831  135.5963  154.4224 H   0  0  0  0  0  0  0  0  0  0  0  0  # atno 10765 bound_to 10752
  140.9172  133.7422  156.0751 H   0  0  0  0  0  0  0  0  0  0  0  0  # atno 11005 bound_to 11000
  145.9983  140.8543  143.0031 LP  0  0  0  0  0  0  0  0  0  0  0  0  # atno 17320 bound_to 7965
  144.6783  140.2315  143.7355 LP  0  0  0  0  0  0  0  0  0  0  0  0  # atno 17321 bound_to 7965
  140.2543  144.4135  150.6210 LP  0  0  0  0  0  0  0  0  0  0  0  0  # atno 17342 bound_to 10162
  140.6202  143.2175  151.6709 LP  0  0  0  0  0  0  0  0  0  0  0  0  # atno 17343 bound_to 10162
  156.7005  130.8931  151.3599 LP  0  0  0  0  0  0  0  0  0  0  0  0  # atno 17370 bound_to 10713
  157.6967  130.9289  150.0664 LP  0  0  0  0  0  0  0  0  0  0  0  0  # atno 17371 bound_to 10713
  140.8035  134.3482  157.5433 LP  0  0  0  0  0  0  0  0  0  0  0  0  # atno 17394 bound_to 11000
  139.8768  134.9212  156.3269 LP  0  0  0  0  0  0  0  0  0  0  0  0  # atno 17395 bound_to 11000

$$$$
