AV-unprocessed.smi:462|AV-procd|sdf|2633|dock1
  -GOLD-   2262023 43D 1   1.00000     0.00000
 Structure written by MMmdl.
 47 49  0  0  0  0  0  0  0  0  2 V2000
  154.3243  141.1312  161.3434 C   0  0  0  0  0  0  0  0  0  0  0  0
  153.2943  140.9152  160.3910 O   0  0  0  0  0  0  0  0  0  0  0  0
  152.7566  142.0111  159.7473 C   0  0  0  0  0  0  0  0  0  0  0  0
  153.2165  143.3391  159.9355 C   0  0  0  0  0  0  0  0  0  0  0  0
  152.6199  144.4060  159.2391 C   0  0  0  0  0  0  0  0  0  0  0  0
  151.5592  144.1602  158.3505 C   0  0  0  0  0  0  0  0  0  0  0  0
  151.0950  142.8467  158.1559 C   0  0  0  0  0  0  0  0  0  0  0  0
  151.6915  141.7655  158.8510 C   0  0  0  0  0  0  0  0  0  0  0  0
  151.2921  140.4547  158.7120 O   0  0  0  0  0  0  0  0  0  0  0  0
  150.1855  140.1570  157.8736 C   0  0  0  0  0  0  0  0  0  0  0  0
  150.5623  140.4631  156.4141 C   0  0  0  0  0  0  0  0  0  0  0  0
  149.7988  139.6483  155.4507 N   0  0  0  0  0  0  0  0  0  0  0  0
  150.1127  138.4740  154.8173 C   0  0  0  0  0  0  0  0  0  0  0  0
  151.4036  137.6955  154.8903 C   0  0  0  0  0  0  0  0  0  0  0  0
  152.6203  138.6106  154.6497 C   0  0  0  0  0  0  0  0  0  0  0  0
  151.5149  137.0020  156.2587 C   0  0  0  0  0  0  0  0  0  0  0  0
  151.4766  136.6944  153.8955 O   0  0  0  0  0  0  0  0  0  0  0  0
  149.0452  138.1584  154.0262 N   0  3  0  0  0  0  0  0  0  0  0  0
  148.0398  139.1124  154.1678 C   0  0  0  0  0  0  0  0  0  0  0  0
  146.7804  139.2007  153.5827 C   0  0  0  0  0  0  0  0  0  0  0  0
  145.9920  140.3128  153.9429 C   0  0  0  0  0  0  0  0  0  0  0  0
  146.4659  141.2853  154.8465 C   0  0  0  0  0  0  0  0  0  0  0  0
  147.7469  141.1861  155.4275 C   0  0  0  0  0  0  0  0  0  0  0  0
  148.5185  140.0782  155.0738 C   0  0  0  0  0  0  0  0  0  0  0  0
  154.6489  140.1705  161.7429 H   0  0  0  0  0  0  0  0  0  0  0  0
  153.9735  141.7354  162.1809 H   0  0  0  0  0  0  0  0  0  0  0  0
  155.1931  141.6095  160.8894 H   0  0  0  0  0  0  0  0  0  0  0  0
  154.0277  143.5664  160.6099 H   0  0  0  0  0  0  0  0  0  0  0  0
  152.9768  145.4145  159.3879 H   0  0  0  0  0  0  0  0  0  0  0  0
  151.1005  144.9799  157.8175 H   0  0  0  0  0  0  0  0  0  0  0  0
  150.2765  142.6928  157.4694 H   0  0  0  0  0  0  0  0  0  0  0  0
  149.9119  139.1057  157.9713 H   0  0  0  0  0  0  0  0  0  0  0  0
  149.3224  140.7576  158.1628 H   0  0  0  0  0  0  0  0  0  0  0  0
  150.4078  141.5180  156.1862 H   0  0  0  0  0  0  0  0  0  0  0  0
  151.6232  140.2757  156.2554 H   0  0  0  0  0  0  0  0  0  0  0  0
  152.6919  139.3923  155.4068 H   0  0  0  0  0  0  0  0  0  0  0  0
  152.5663  139.0964  153.6744 H   0  0  0  0  0  0  0  0  0  0  0  0
  153.5536  138.0469  154.6832 H   0  0  0  0  0  0  0  0  0  0  0  0
  151.4989  137.7302  157.0703 H   0  0  0  0  0  0  0  0  0  0  0  0
  152.4437  136.4369  156.3445 H   0  0  0  0  0  0  0  0  0  0  0  0
  150.6925  136.3068  156.4284 H   0  0  0  0  0  0  0  0  0  0  0  0
  150.8125  136.8662  153.2455 H   0  0  0  0  0  0  0  0  0  0  0  0
  146.4163  138.4571  152.8891 H   0  0  0  0  0  0  0  0  0  0  0  0
  145.0048  140.4222  153.5179 H   0  0  0  0  0  0  0  0  0  0  0  0
  145.8345  142.1236  155.1021 H   0  0  0  0  0  0  0  0  0  0  0  0
  148.0945  141.9342  156.1243 H   0  0  0  0  0  0  0  0  0  0  0  0
  149.0104  137.3388  153.4344 H   0  0  0  0  0  0  0  0  0  0  0  0
  1  2  1  0  0  0  0
  1 25  1  0  0  0  0
  1 26  1  0  0  0  0
  1 27  1  0  0  0  0
  2  3  1  0  0  0  0
  3  8  1  0  0  0  0
  3  4  2  0  0  0  0
  4  5  1  0  0  0  0
  4 28  1  0  0  0  0
  5  6  2  0  0  0  0
  5 29  1  0  0  0  0
  6  7  1  0  0  0  0
  6 30  1  0  0  0  0
  7  8  2  0  0  0  0
  7 31  1  0  0  0  0
  8  9  1  0  0  0  0
  9 10  1  0  0  0  0
 10 11  1  0  0  0  0
 10 32  1  0  0  0  0
 10 33  1  0  0  0  0
 11 12  1  0  0  0  0
 11 34  1  0  0  0  0
 11 35  1  0  0  0  0
 12 24  1  0  0  0  0
 12 13  1  0  0  0  0
 13 14  1  0  0  0  0
 13 18  2  0  0  0  0
 14 15  1  0  0  0  0
 14 16  1  0  0  0  0
 14 17  1  0  0  0  0
 15 36  1  0  0  0  0
 15 37  1  0  0  0  0
 15 38  1  0  0  0  0
 16 39  1  0  0  0  0
 16 40  1  0  0  0  0
 16 41  1  0  0  0  0
 17 42  1  0  0  0  0
 18 19  1  0  0  0  0
 18 47  1  0  0  0  0
 19 24  2  0  0  0  0
 19 20  1  0  0  0  0
 20 21  2  0  0  0  0
 20 43  1  0  0  0  0
 21 22  1  0  0  0  0
 21 44  1  0  0  0  0
 22 23  2  0  0  0  0
 22 45  1  0  0  0  0
 23 24  1  0  0  0  0
 23 46  1  0  0  0  0
M  CHG  1  18   1
M  END
> <s_m_source_file>
AV-unprocessed.smi

> <i_m_source_file_index>
462

> <i_lp_mmshare_version>
43012

> <i_f3d_flags>
0

> <s_epik_input>
W0NIM11PYzFbY0hdW2NIXVtjSF1bY0hdYzFPW0NIMl1bQ0gyXW4oYyhuMilDKFtDSDNdKShbQ0gzXSlbT0hdKWMoYzIzKVtjSF1bY0hdW2NIXVtjSF0z

> <s_epik_cmdline>
J2VwaWtfcHl0aG9uJywgJy1waCcsICc3LjAnLCAnLXRuJywgJzgnLCAnLW1hJywgJzIwMCcsICctbWV0YWxfYmluZGluZycsICctaW1hZScsICc8aW5maWxlLm1hZT4nLCAnLW9tYWUnLCAnPG91dGZpbGUubWFlPic=

> <r_lp_tautomer_probability>
1

> <r_epik_Ionization_Penalty>
1.32796

> <r_epik_Ionization_Penalty_Charging>
1.32796

> <r_epik_Ionization_Penalty_Neutral>
1.51811e-06

> <r_epik_State_Penalty>
1.40413

> <r_epik_Charging_Adjusted_Penalty>
2.73209

> <i_epik_Tot_Q>
1

> <i_epik_Tot_abs_Q>
1

> <r_epik_Metal_State_Penalty>
5.43878

> <b_epik_Metal_Only>
0

> <s_lp_Force_Field>
OPLS_2005

> <r_lp_Energy>
22.2215

> <b_lp_Chiralities_Consistent>
1

> <s_lp_Variant>
AV-unprocessed.smi:462-2

> <Gold.Version>
5.8.1

> <Gold.Id.Protein>
6NUR|6NUR_protein|mol2

> <Gold.PLP.Fitness>
64.9462

> <Gold.PLP.PLP>
-55.5636

> <Gold.PLP.part.hbond>
-4.0000

> <Gold.PLP.part.metal>
0.0000

> <Gold.PLP.part.buried>
0.4972

> <Gold.PLP.part.nonpolar>
-53.5310

> <Gold.PLP.part.repulsive>
0.0742

> <Gold.PLP.ligand.clash>
0.0061

> <Gold.PLP.ligand.torsion>
0.8150

> <Gold.PLP.Chemscore.Hbond>
3.5760

> <Gold.PLP.Chemscore.CHOScore>
0.0000

> <Gold.PLP.Chemscore.Metal>
0.0000

> <Gold.Chemscore.Hbonds>
donor molecule, donor type, donor heavy atom, donor atom, acceptor molecule, acceptor atom, score
      L1  H    17    42       P1  7949  0.20
      L1  H    18    47       P1  7948  2.00
      P1  H 10752 10765       L1    17  1.00

> <Gold.PLP.Chemscore.Internal.Correction>
0.2909

> <Gold.Rescore>
     Score         DG    S(hbond)    S(metal)    S(lipo)     H(rot)  DE(clash)    DE(int)     intcor
     21.50     -24.78       2.10        0.00     155.86       2.33       2.48       0.80       ----

> <Gold.Chemscore.Fitness>
21.4965

> <Gold.Chemscore.DG>
-24.7816

> <Gold.Chemscore.ZeroCoef>
-5.4800

> <Gold.Chemscore.Hbond>
2.1047

> <Gold.Chemscore.Metal>
0.0000

> <Gold.Chemscore.Lipo>
155.8645

> <Gold.Chemscore.Internal_Hbond>
0.0000

> <Gold.Chemscore.DEClash>
2.4812

> <Gold.Chemscore.DEInternal>
0.8038

> <Gold.Chemscore.Rot>
2.3298

> <Gold.Chemscore.Internal.Correction>
   9.000000E+99

> <Gold.Chemscore.Hbonds>
donor molecule, donor type, donor heavy atom, donor atom, acceptor molecule, acceptor atom, score
      L1  H    17    42       P1  7949  0.03
      L1  H    18    47       P1  7948  0.99
      P1  H 10752 10765       L1    17  0.85

> <Gold.Chemscore.Hbond.Weighted>
-7.0298

> <Gold.Chemscore.Metal.Weighted>
-0.0000

> <Gold.Chemscore.Lipo.Weighted>
-18.2361

> <Gold.Chemscore.Internal_Hbond.Weighted>
0.0000

> <Gold.Chemscore.DEClash.Weighted>
2.4812

> <Gold.Chemscore.DEInternal.Weighted>
0.8038

> <Gold.Chemscore.Rot.Weighted>
5.9643

> <Gold.Chemscore.Internal.Correction.Weighted>
   9.000000E+99

> <Gold.Protein.RotatedTorsions>
[ 6907 6896 6895 6894 ] final  -75.94 input  -60.11 | X-H torsion
[ 7974 7965 7964 7962 ] final  146.34 input  175.53 | X-H torsion
[ 8008 7997 7996 7995 ] final   62.33 input   59.86 | X-H torsion
[ 10167 10162 10161 10158 ] final  -50.24 input  -65.29 | X-H torsion
[ 10718 10713 10712 10709 ] final -130.34 input   66.30 | X-H torsion
[ 10763 10752 10751 10750 ] final  140.63 input  -60.55 | X-H torsion
[ 11005 11000 10999 10996 ] final -132.01 input  -57.11 | X-H torsion

> <Gold.Protein.ActiveResidues>
 VAL166  LYS551  ARG553  GLY616  TRP617  ASP618  TYR619  PRO620  LYS621  CYS622 
 ASP623  PHE694  ASN695  SER759  ASP760  ASP761  ALA762  ILE779  LEU786  VAL792 
 PHE793  MET794  SER795  GLU796  ALA797  LYS798  CYS799  TRP800  GLU811  SER814 

> <Gold.Protein.RotatedAtoms>
  150.7043  134.4646  159.5396 H   0  0  0  0  0  0  0  0  0  0  0  0  # atno 6907 bound_to 6896
  152.2314  134.8315  160.0482 H   0  0  0  0  0  0  0  0  0  0  0  0  # atno 6908 bound_to 6896
  151.9130  133.3531  159.3907 H   0  0  0  0  0  0  0  0  0  0  0  0  # atno 6909 bound_to 6896
  144.8679  139.5893  143.5900 H   0  0  0  0  0  0  0  0  0  0  0  0  # atno 7974 bound_to 7965
  155.6125  140.3495  155.4627 H   0  0  0  0  0  0  0  0  0  0  0  0  # atno 8008 bound_to 7997
  156.0143  140.1240  157.0447 H   0  0  0  0  0  0  0  0  0  0  0  0  # atno 8009 bound_to 7997
  154.4292  140.1075  156.5859 H   0  0  0  0  0  0  0  0  0  0  0  0  # atno 8010 bound_to 7997
  140.6647  143.2665  151.4331 H   0  0  0  0  0  0  0  0  0  0  0  0  # atno 10167 bound_to 10162
  156.2134  130.6933  151.0676 H   0  0  0  0  0  0  0  0  0  0  0  0  # atno 10718 bound_to 10713
  153.9258  135.2995  155.3447 H   0  0  0  0  0  0  0  0  0  0  0  0  # atno 10763 bound_to 10752
  154.7552  135.4961  153.9365 H   0  0  0  0  0  0  0  0  0  0  0  0  # atno 10764 bound_to 10752
  153.1117  135.6761  153.9592 H   0  0  0  0  0  0  0  0  0  0  0  0  # atno 10765 bound_to 10752
  140.9208  134.1446  157.4315 H   0  0  0  0  0  0  0  0  0  0  0  0  # atno 11005 bound_to 11000
  146.2909  139.7136  142.9162 LP  0  0  0  0  0  0  0  0  0  0  0  0  # atno 17320 bound_to 7965
  145.4186  141.0404  143.2976 LP  0  0  0  0  0  0  0  0  0  0  0  0  # atno 17321 bound_to 7965
  139.5892  144.1537  152.2067 LP  0  0  0  0  0  0  0  0  0  0  0  0  # atno 17342 bound_to 10162
  140.0886  144.5640  150.7071 LP  0  0  0  0  0  0  0  0  0  0  0  0  # atno 17343 bound_to 10162
  157.7051  131.0760  150.6695 LP  0  0  0  0  0  0  0  0  0  0  0  0  # atno 17370 bound_to 10713
  156.6755  130.4552  149.5644 LP  0  0  0  0  0  0  0  0  0  0  0  0  # atno 17371 bound_to 10713
  139.8775  134.9971  156.5827 LP  0  0  0  0  0  0  0  0  0  0  0  0  # atno 17394 bound_to 11000
  140.7990  133.8521  155.8710 LP  0  0  0  0  0  0  0  0  0  0  0  0  # atno 17395 bound_to 11000

$$$$
