AV-unprocessed.smi:2801|AV-procd|sdf|10800|dock2
  -GOLD-   2272015233D 1   1.00000     0.00000
 Structure written by MMmdl.
 32 32  0  0  0  0  0  0  0  0  1 V2000
  144.8361  144.1266  161.6975 C   0  0  0  0  0  0  0  0  0  0  0  0
  145.1705  142.7923  161.0273 C   0  0  0  0  0  0  0  0  0  0  0  0
  146.5505  142.7893  160.6827 O   0  0  0  0  0  0  0  0  0  0  0  0
  146.8949  143.5542  159.5293 C   0  0  1  0  0  0  0  0  0  0  0  0
  147.1619  145.0016  159.9842 C   0  0  0  0  0  0  0  0  0  0  0  0
  148.0162  145.0771  161.2558 C   0  0  0  0  0  0  0  0  0  0  0  0
  148.1323  142.9500  158.8452 C   0  0  0  0  0  0  0  0  0  0  0  0
  149.2252  143.0092  159.4079 O   0  0  0  0  0  0  0  0  0  0  0  0
  147.9088  142.3549  157.6586 N   0  0  0  0  0  0  0  0  0  0  0  0
  148.8273  141.7129  156.7805 C   0  0  0  0  0  0  0  0  0  0  0  0
  150.0121  141.0656  157.2085 C   0  0  0  0  0  0  0  0  0  0  0  0
  150.8525  140.4809  156.2404 C   0  0  0  0  0  0  0  0  0  0  0  0
  150.5950  140.5088  154.9163 N   0  0  0  0  0  0  0  0  0  0  0  0
  149.4731  141.1369  154.5085 C   0  0  0  0  0  0  0  0  0  0  0  0
  148.5634  141.7543  155.3915 C   0  0  0  0  0  0  0  0  0  0  0  0
  147.4512  142.3757  154.8962 O   0  0  0  0  0  0  0  0  0  0  0  0
  143.7826  144.1704  161.9739 H   0  0  0  0  0  0  0  0  0  0  0  0
  145.0428  144.9628  161.0292 H   0  0  0  0  0  0  0  0  0  0  0  0
  145.4254  144.2676  162.6039 H   0  0  0  0  0  0  0  0  0  0  0  0
  144.9312  141.9739  161.7072 H   0  0  0  0  0  0  0  0  0  0  0  0
  144.5611  142.6659  160.1313 H   0  0  0  0  0  0  0  0  0  0  0  0
  146.0561  143.5592  158.8301 H   0  0  0  0  0  0  0  0  0  0  0  0
  147.6540  145.5597  159.1864 H   0  0  0  0  0  0  0  0  0  0  0  0
  146.2146  145.5089  160.1731 H   0  0  0  0  0  0  0  0  0  0  0  0
  148.1753  146.1129  161.5557 H   0  0  0  0  0  0  0  0  0  0  0  0
  148.9950  144.6223  161.1018 H   0  0  0  0  0  0  0  0  0  0  0  0
  147.5335  144.5613  162.0862 H   0  0  0  0  0  0  0  0  0  0  0  0
  146.9438  142.3164  157.3637 H   0  0  0  0  0  0  0  0  0  0  0  0
  150.3019  141.0142  158.2459 H   0  0  0  0  0  0  0  0  0  0  0  0
  151.7621  139.9814  156.5392 H   0  0  0  0  0  0  0  0  0  0  0  0
  149.2969  141.1499  153.4430 H   0  0  0  0  0  0  0  0  0  0  0  0
  147.5221  143.3183  154.9027 H   0  0  0  0  0  0  0  0  0  0  0  0
  1  2  1  0  0  0  0
  1 17  1  0  0  0  0
  1 18  1  0  0  0  0
  1 19  1  0  0  0  0
  2  3  1  0  0  0  0
  2 20  1  0  0  0  0
  2 21  1  0  0  0  0
  3  4  1  0  0  0  0
  4  5  1  0  0  0  0
  4  7  1  0  0  0  0
  4 22  1  0  0  0  0
  5  6  1  0  0  0  0
  5 23  1  0  0  0  0
  5 24  1  0  0  0  0
  6 25  1  0  0  0  0
  6 26  1  0  0  0  0
  6 27  1  0  0  0  0
  7  8  2  0  0  0  0
  7  9  1  0  0  0  0
  9 10  1  0  0  0  0
  9 28  1  0  0  0  0
 10 15  1  0  0  0  0
 10 11  2  0  0  0  0
 11 12  1  0  0  0  0
 11 29  1  0  0  0  0
 12 13  2  0  0  0  0
 12 30  1  0  0  0  0
 13 14  1  0  0  0  0
 14 15  2  0  0  0  0
 14 31  1  0  0  0  0
 15 16  1  0  0  0  0
 16 32  1  0  0  0  0
M  END
> <s_m_source_file>
AV-unprocessed.smi

> <i_m_source_file_index>
2801

> <i_lp_mmshare_version>
43012

> <i_f3d_flags>
0

> <s_epik_input>
W0NIM11bQ0gyXU9bQ0BIXShbQ0gyXVtDSDNdKUMoPU8pW05IXWMxW2NIXVtjSF1uW2NIXWMxW09IXQ==

> <s_epik_cmdline>
J2VwaWtfcHl0aG9uJywgJy1waCcsICc3LjAnLCAnLXRuJywgJzgnLCAnLW1hJywgJzIwMCcsICctbWV0YWxfYmluZGluZycsICctaW1hZScsICc8aW5maWxlLm1hZT4nLCAnLW9tYWUnLCAnPG91dGZpbGUubWFlPic=

> <r_lp_tautomer_probability>
0.43658

> <r_epik_Ionization_Penalty>
0.0250035

> <r_epik_Ionization_Penalty_Charging>
0

> <r_epik_Ionization_Penalty_Neutral>
0.0250035

> <r_epik_State_Penalty>
0.520524

> <r_epik_Charging_Adjusted_Penalty>
0.520524

> <i_epik_Tot_Q>
0

> <i_epik_Tot_abs_Q>
0

> <r_epik_Metal_State_Penalty>
0.772586

> <b_epik_Metal_Only>
0

> <s_lp_Force_Field>
OPLS_2005

> <r_lp_Energy>
11.8743

> <b_lp_Chiralities_Consistent>
1

> <s_lp_Variant>
AV-unprocessed.smi:2801-4

> <Gold.Version>
5.8.1

> <Gold.Id.Protein>
6NUR|6NUR_protein|mol2

> <Gold.PLP.Fitness>
37.6307

> <Gold.PLP.PLP>
-26.4929

> <Gold.PLP.part.hbond>
-5.2203

> <Gold.PLP.part.metal>
0.0000

> <Gold.PLP.part.buried>
-0.3211

> <Gold.PLP.part.nonpolar>
-20.7770

> <Gold.PLP.part.repulsive>
0.2684

> <Gold.PLP.ligand.clash>
0.0000

> <Gold.PLP.ligand.torsion>
0.8956

> <Gold.PLP.Chemscore.Hbond>
3.3917

> <Gold.PLP.Chemscore.CHOScore>
0.9124

> <Gold.PLP.Chemscore.Metal>
0.0000

> <Gold.Chemscore.Hbonds>
donor molecule, donor type, donor heavy atom, donor atom, acceptor molecule, acceptor atom, score
      L1  H    16    32       P1  8028  0.71
      P1  H  6933  6944       L1     3  0.65
      P1  H  6934  6946       L1     3  0.99
      P1  H  7989  7998       L1    13  0.90
      L1  C    14    31       P1  7957  0.95

> <Gold.PLP.Chemscore.Internal.Correction>
0.0168

> <Gold.Rescore>
     Score         DG    S(hbond)    S(metal)    S(lipo)     H(rot)  DE(clash)    DE(int)     intcor
      8.60     -12.00       1.94        0.00      46.49       2.11       0.35       3.04       ----

> <Gold.Chemscore.Fitness>
8.5989

> <Gold.Chemscore.DG>
-11.9966

> <Gold.Chemscore.ZeroCoef>
-5.4800

> <Gold.Chemscore.Hbond>
1.9421

> <Gold.Chemscore.Metal>
0.0000

> <Gold.Chemscore.Lipo>
46.4857

> <Gold.Chemscore.Internal_Hbond>
0.0000

> <Gold.Chemscore.DEClash>
0.3542

> <Gold.Chemscore.DEInternal>
3.0435

> <Gold.Chemscore.Rot>
2.1129

> <Gold.Chemscore.Internal.Correction>
   9.000000E+99

> <Gold.Chemscore.Hbonds>
donor molecule, donor type, donor heavy atom, donor atom, acceptor molecule, acceptor atom, score
      L1  H    16    32       P1  8028  0.20
      P1  H  6933  6944       L1     3  0.19
      P1  H  6934  6946       L1     3  0.23
      P1  H  7989  7998       L1    13  0.17

> <Gold.Chemscore.Hbond.Weighted>
-6.4867

> <Gold.Chemscore.Metal.Weighted>
-0.0000

> <Gold.Chemscore.Lipo.Weighted>
-5.4388

> <Gold.Chemscore.Internal_Hbond.Weighted>
0.0000

> <Gold.Chemscore.DEClash.Weighted>
0.3542

> <Gold.Chemscore.DEInternal.Weighted>
3.0435

> <Gold.Chemscore.Rot.Weighted>
5.4089

> <Gold.Chemscore.Internal.Correction.Weighted>
   9.000000E+99

> <Gold.Protein.RotatedTorsions>
[ 6907 6896 6895 6894 ] final  149.24 input  -60.11 | X-H torsion
[ 7974 7965 7964 7962 ] final  -87.65 input  175.53 | X-H torsion
[ 8008 7997 7996 7995 ] final   -2.24 input   59.86 | X-H torsion
[ 10167 10162 10161 10158 ] final  -50.61 input  -65.29 | X-H torsion
[ 10718 10713 10712 10709 ] final -110.55 input   66.30 | X-H torsion
[ 10763 10752 10751 10750 ] final  150.34 input  -60.55 | X-H torsion
[ 11005 11000 10999 10996 ] final -120.68 input  -57.11 | X-H torsion

> <Gold.Protein.ActiveResidues>
 VAL166  LYS551  ARG553  GLY616  TRP617  ASP618  TYR619  PRO620  LYS621  CYS622 
 ASP623  PHE694  ASN695  SER759  ASP760  ASP761  ALA762  ILE779  LEU786  VAL792 
 PHE793  MET794  SER795  GLU796  ALA797  LYS798  CYS799  TRP800  GLU811  SER814 

> <Gold.Protein.RotatedAtoms>
  152.1306  133.4406  159.4718 H   0  0  0  0  0  0  0  0  0  0  0  0  # atno 6907 bound_to 6896
  150.6878  134.2425  159.4487 H   0  0  0  0  0  0  0  0  0  0  0  0  # atno 6908 bound_to 6896
  152.0308  134.9768  160.0623 H   0  0  0  0  0  0  0  0  0  0  0  0  # atno 6909 bound_to 6896
  145.4637  140.9560  143.1955 H   0  0  0  0  0  0  0  0  0  0  0  0  # atno 7974 bound_to 7965
  154.6379  140.2539  155.7356 H   0  0  0  0  0  0  0  0  0  0  0  0  # atno 8008 bound_to 7997
  156.2514  140.2893  156.0680 H   0  0  0  0  0  0  0  0  0  0  0  0  # atno 8009 bound_to 7997
  155.1642  140.0385  157.2839 H   0  0  0  0  0  0  0  0  0  0  0  0  # atno 8010 bound_to 7997
  140.6629  143.2651  151.4384 H   0  0  0  0  0  0  0  0  0  0  0  0  # atno 10167 bound_to 10162
  156.0597  130.5821  150.8252 H   0  0  0  0  0  0  0  0  0  0  0  0  # atno 10718 bound_to 10713
  154.0858  135.2856  155.3281 H   0  0  0  0  0  0  0  0  0  0  0  0  # atno 10763 bound_to 10752
  154.6653  135.5319  153.8072 H   0  0  0  0  0  0  0  0  0  0  0  0  # atno 10764 bound_to 10752
  153.0431  135.6544  154.1030 H   0  0  0  0  0  0  0  0  0  0  0  0  # atno 10765 bound_to 10752
  141.0126  134.0242  157.3393 H   0  0  0  0  0  0  0  0  0  0  0  0  # atno 11005 bound_to 11000
  144.7987  139.6183  143.7081 LP  0  0  0  0  0  0  0  0  0  0  0  0  # atno 17320 bound_to 7965
  146.2436  139.6052  142.9474 LP  0  0  0  0  0  0  0  0  0  0  0  0  # atno 17321 bound_to 7965
  139.5868  144.1586  152.2039 LP  0  0  0  0  0  0  0  0  0  0  0  0  # atno 17342 bound_to 10162
  140.0928  144.5606  150.7042 LP  0  0  0  0  0  0  0  0  0  0  0  0  # atno 17343 bound_to 10162
  157.5596  131.0945  150.9579 LP  0  0  0  0  0  0  0  0  0  0  0  0  # atno 17370 bound_to 10713
  156.9819  130.5530  149.5297 LP  0  0  0  0  0  0  0  0  0  0  0  0  # atno 17371 bound_to 10713
  139.9098  135.0188  156.7645 LP  0  0  0  0  0  0  0  0  0  0  0  0  # atno 17394 bound_to 11000
  140.6708  133.9561  155.7855 LP  0  0  0  0  0  0  0  0  0  0  0  0  # atno 17395 bound_to 11000

$$$$
