AV-unprocessed.smi:2510|AV-procd|sdf|9876|dock10
  -GOLD-   2272013513D 1   1.00000     0.00000
 Structure written by MMmdl.
 48 49  0  0  0  0  0  0  0  0  1 V2000
  151.4418  137.9370  155.3409 C   0  0  0  0  0  0  0  0  0  0  0  0
  150.1198  137.3014  154.8716 C   0  0  0  0  0  0  0  0  0  0  0  0
  149.5410  136.1502  155.7436 C   0  0  0  0  0  0  0  0  0  0  0  0
  149.2620  136.6801  157.1672 C   0  0  0  0  0  0  0  0  0  0  0  0
  148.4445  135.7310  158.0589 C   0  0  0  0  0  0  0  0  0  0  0  0
  148.4130  135.2699  155.1346 C   0  0  1  0  0  0  0  0  0  0  0  0
  147.5896  135.9107  154.1167 N   0  0  0  0  0  0  0  0  0  0  0  0
  146.2963  136.2294  154.2755 C   0  0  0  0  0  0  0  0  0  0  0  0
  145.6788  136.0560  155.3258 O   0  0  0  0  0  0  0  0  0  0  0  0
  145.5922  136.8399  153.0636 C   0  0  0  0  0  0  0  0  0  0  0  0
  145.3264  135.7765  152.0313 C   0  0  0  0  0  0  0  0  0  0  0  0
  144.6067  134.5545  152.1907 C   0  0  0  0  0  0  0  0  0  0  0  0
  144.6587  133.9669  150.9581 C   0  0  0  0  0  0  0  0  0  0  0  0
  144.0996  132.6809  150.4520 C   0  0  0  0  0  0  0  0  0  0  0  0
  145.3782  134.8217  150.1556 N   0  0  0  0  0  0  0  0  0  0  0  0
  145.7935  135.9278  150.7994 N   0  0  0  0  0  0  0  0  0  0  0  0
  149.4774  134.3513  154.5270 C   0  0  2  0  0  0  0  0  0  0  0  0
  149.1774  132.8689  154.3431 C   0  0  0  0  0  0  0  0  0  0  0  0
  150.3862  134.8456  155.6677 C   0  0  2  0  0  0  0  0  0  0  0  0
  150.2603  134.0544  156.8454 O   0  0  0  0  0  0  0  0  0  0  0  0
  150.9575  132.8231  156.7666 C   0  0  0  0  0  0  0  0  0  0  0  0
  145.5903  134.6654  149.1805 H   0  0  0  0  0  0  0  0  0  0  0  0
  151.6855  138.8002  154.7215 H   0  0  0  0  0  0  0  0  0  0  0  0
  152.2789  137.2445  155.2582 H   0  0  0  0  0  0  0  0  0  0  0  0
  151.3931  138.2828  156.3713 H   0  0  0  0  0  0  0  0  0  0  0  0
  149.3908  138.1065  154.7850 H   0  0  0  0  0  0  0  0  0  0  0  0
  150.2564  136.9533  153.8476 H   0  0  0  0  0  0  0  0  0  0  0  0
  150.1903  136.9470  157.6713 H   0  0  0  0  0  0  0  0  0  0  0  0
  148.7184  137.6234  157.1072 H   0  0  0  0  0  0  0  0  0  0  0  0
  148.2263  136.2001  159.0183 H   0  0  0  0  0  0  0  0  0  0  0  0
  148.9803  134.8054  158.2667 H   0  0  0  0  0  0  0  0  0  0  0  0
  147.4919  135.4714  157.5969 H   0  0  0  0  0  0  0  0  0  0  0  0
  147.8352  134.7443  155.8992 H   0  0  0  0  0  0  0  0  0  0  0  0
  148.0220  136.0943  153.2230 H   0  0  0  0  0  0  0  0  0  0  0  0
  144.6639  137.3122  153.3883 H   0  0  0  0  0  0  0  0  0  0  0  0
  146.2102  137.6335  152.6418 H   0  0  0  0  0  0  0  0  0  0  0  0
  144.1214  134.1719  153.0763 H   0  0  0  0  0  0  0  0  0  0  0  0
  143.5927  132.1355  151.2485 H   0  0  0  0  0  0  0  0  0  0  0  0
  144.8906  132.0425  150.0576 H   0  0  0  0  0  0  0  0  0  0  0  0
  143.3786  132.8597  149.6541 H   0  0  0  0  0  0  0  0  0  0  0  0
  149.8401  134.7694  153.5864 H   0  0  0  0  0  0  0  0  0  0  0  0
  148.8048  132.4160  155.2622 H   0  0  0  0  0  0  0  0  0  0  0  0
  150.0683  132.3202  154.0382 H   0  0  0  0  0  0  0  0  0  0  0  0
  148.4199  132.7166  153.5743 H   0  0  0  0  0  0  0  0  0  0  0  0
  151.4220  135.0247  155.3733 H   0  0  0  0  0  0  0  0  0  0  0  0
  150.7895  132.2494  157.6779 H   0  0  0  0  0  0  0  0  0  0  0  0
  152.0308  132.9894  156.6681 H   0  0  0  0  0  0  0  0  0  0  0  0
  150.6191  132.2221  155.9227 H   0  0  0  0  0  0  0  0  0  0  0  0
  1  2  1  0  0  0  0
  1 23  1  0  0  0  0
  1 24  1  0  0  0  0
  1 25  1  0  0  0  0
  2  3  1  0  0  0  0
  2 26  1  0  0  0  0
  2 27  1  0  0  0  0
  3 19  1  0  0  0  0
  3  4  1  0  0  0  0
  3  6  1  0  0  0  0
  4  5  1  0  0  0  0
  4 28  1  0  0  0  0
  4 29  1  0  0  0  0
  5 30  1  0  0  0  0
  5 31  1  0  0  0  0
  5 32  1  0  0  0  0
  6  7  1  0  0  0  0
  6 17  1  0  0  0  0
  6 33  1  0  0  0  0
  7  8  1  0  0  0  0
  7 34  1  0  0  0  0
  8  9  2  0  0  0  0
  8 10  1  0  0  0  0
 10 11  1  0  0  0  0
 10 35  1  0  0  0  0
 10 36  1  0  0  0  0
 11 16  2  0  0  0  0
 11 12  1  0  0  0  0
 12 13  2  0  0  0  0
 12 37  1  0  0  0  0
 13 14  1  0  0  0  0
 13 15  1  0  0  0  0
 14 38  1  0  0  0  0
 14 39  1  0  0  0  0
 14 40  1  0  0  0  0
 15 22  1  0  0  0  0
 15 16  1  0  0  0  0
 17 18  1  0  0  0  0
 17 19  1  0  0  0  0
 17 41  1  0  0  0  0
 18 42  1  0  0  0  0
 18 43  1  0  0  0  0
 18 44  1  0  0  0  0
 19 20  1  0  0  0  0
 19 45  1  0  0  0  0
 20 21  1  0  0  0  0
 21 46  1  0  0  0  0
 21 47  1  0  0  0  0
 21 48  1  0  0  0  0
M  END
> <s_m_source_file>
AV-unprocessed.smi

> <i_m_source_file_index>
2510

> <i_lp_mmshare_version>
43012

> <i_f3d_flags>
0

> <s_epik_input>
W0NIM11PW0NAQEhdMVtDQEhdKFtDSDNdKVtDQEBIXShDMShbQ0gyXVtDSDNdKVtDSDJdW0NIM10pW05IXUMoPU8pW0NIMl1jMltjSF1jKFtDSDNdKVtuSF1uMg==

> <s_epik_cmdline>
J2VwaWtfcHl0aG9uJywgJy1waCcsICc3LjAnLCAnLXRuJywgJzgnLCAnLW1hJywgJzIwMCcsICctbWV0YWxfYmluZGluZycsICctaW1hZScsICc8aW5maWxlLm1hZT4nLCAnLW9tYWUnLCAnPG91dGZpbGUubWFlPic=

> <r_lp_tautomer_probability>
0.5

> <r_epik_Ionization_Penalty>
9.73156e-05

> <r_epik_Ionization_Penalty_Charging>
0

> <r_epik_Ionization_Penalty_Neutral>
9.73156e-05

> <r_epik_State_Penalty>
0.41068

> <r_epik_Charging_Adjusted_Penalty>
0.41068

> <i_epik_Tot_Q>
0

> <i_epik_Tot_abs_Q>
0

> <r_epik_Metal_State_Penalty>
0.410699

> <b_epik_Metal_Only>
0

> <s_lp_Force_Field>
OPLS_2005

> <r_lp_Energy>
28.6218

> <b_lp_Chiralities_Consistent>
1

> <s_lp_Variant>
AV-unprocessed.smi:2510-7

> <Gold.Version>
5.8.1

> <Gold.Id.Protein>
6NUR|6NUR_protein|mol2

> <Gold.PLP.Fitness>
33.9956

> <Gold.PLP.PLP>
-28.7716

> <Gold.PLP.part.hbond>
-2.0000

> <Gold.PLP.part.metal>
0.0000

> <Gold.PLP.part.buried>
-5.3874

> <Gold.PLP.part.nonpolar>
-22.4202

> <Gold.PLP.part.repulsive>
0.3466

> <Gold.PLP.ligand.clash>
0.0000

> <Gold.PLP.ligand.torsion>
0.7364

> <Gold.PLP.Chemscore.Hbond>
2.0000

> <Gold.PLP.Chemscore.CHOScore>
0.0000

> <Gold.PLP.Chemscore.Metal>
0.0000

> <Gold.Chemscore.Hbonds>
donor molecule, donor type, donor heavy atom, donor atom, acceptor molecule, acceptor atom, score
      L1  H     7    34       P1  7948  1.00
      L1  H    15    22       P1  7921  1.00

> <Gold.PLP.Chemscore.Internal.Correction>
0.6969

> <Gold.Rescore>
     Score         DG    S(hbond)    S(metal)    S(lipo)     H(rot)  DE(clash)    DE(int)     intcor
     13.53     -15.68       1.98        0.00      70.32       1.81       0.00       2.15       ----

> <Gold.Chemscore.Fitness>
13.5335

> <Gold.Chemscore.DG>
-15.6804

> <Gold.Chemscore.ZeroCoef>
-5.4800

> <Gold.Chemscore.Hbond>
1.9781

> <Gold.Chemscore.Metal>
0.0000

> <Gold.Chemscore.Lipo>
70.3202

> <Gold.Chemscore.Internal_Hbond>
0.0000

> <Gold.Chemscore.DEClash>
0.0015

> <Gold.Chemscore.DEInternal>
2.1454

> <Gold.Chemscore.Rot>
1.8102

> <Gold.Chemscore.Internal.Correction>
   9.000000E+99

> <Gold.Chemscore.Hbonds>
donor molecule, donor type, donor heavy atom, donor atom, acceptor molecule, acceptor atom, score
      L1  H     7    34       P1  7948  1.00
      L1  H    15    22       P1  7921  0.97

> <Gold.Chemscore.Hbond.Weighted>
-6.6070

> <Gold.Chemscore.Metal.Weighted>
-0.0000

> <Gold.Chemscore.Lipo.Weighted>
-8.2275

> <Gold.Chemscore.Internal_Hbond.Weighted>
0.0000

> <Gold.Chemscore.DEClash.Weighted>
0.0015

> <Gold.Chemscore.DEInternal.Weighted>
2.1454

> <Gold.Chemscore.Rot.Weighted>
4.6341

> <Gold.Chemscore.Internal.Correction.Weighted>
   9.000000E+99

> <Gold.Protein.RotatedTorsions>
[ 6907 6896 6895 6894 ] final   41.63 input  -60.11 | X-H torsion
[ 7974 7965 7964 7962 ] final   77.07 input  175.53 | X-H torsion
[ 8008 7997 7996 7995 ] final   52.92 input   59.86 | X-H torsion
[ 10167 10162 10161 10158 ] final  155.85 input  -65.29 | X-H torsion
[ 10718 10713 10712 10709 ] final  -36.41 input   66.30 | X-H torsion
[ 10763 10752 10751 10750 ] final   -4.08 input  -60.55 | X-H torsion
[ 11005 11000 10999 10996 ] final  107.42 input  -57.11 | X-H torsion

> <Gold.Protein.ActiveResidues>
 VAL166  LYS551  ARG553  GLY616  TRP617  ASP618  TYR619  PRO620  LYS621  CYS622 
 ASP623  PHE694  ASN695  SER759  ASP760  ASP761  ALA762  ILE779  LEU786  VAL792 
 PHE793  MET794  SER795  GLU796  ALA797  LYS798  CYS799  TRP800  GLU811  SER814 

> <Gold.Protein.RotatedAtoms>
  152.1976  134.8616  160.0510 H   0  0  0  0  0  0  0  0  0  0  0  0  # atno 6907 bound_to 6896
  151.9482  133.3653  159.3998 H   0  0  0  0  0  0  0  0  0  0  0  0  # atno 6908 bound_to 6896
  150.6948  134.4292  159.5285 H   0  0  0  0  0  0  0  0  0  0  0  0  # atno 6909 bound_to 6896
  145.6948  139.2564  143.1739 H   0  0  0  0  0  0  0  0  0  0  0  0  # atno 7974 bound_to 7965
  155.4598  140.3461  155.4311 H   0  0  0  0  0  0  0  0  0  0  0  0  # atno 8008 bound_to 7997
  156.1168  140.1476  156.9291 H   0  0  0  0  0  0  0  0  0  0  0  0  # atno 8009 bound_to 7997
  154.4795  140.0874  156.7321 H   0  0  0  0  0  0  0  0  0  0  0  0  # atno 8010 bound_to 7997
  139.4821  144.5062  151.8094 H   0  0  0  0  0  0  0  0  0  0  0  0  # atno 10167 bound_to 10162
  156.3271  130.4274  149.7906 H   0  0  0  0  0  0  0  0  0  0  0  0  # atno 10718 bound_to 10713
  153.3800  135.6998  153.6573 H   0  0  0  0  0  0  0  0  0  0  0  0  # atno 10763 bound_to 10752
  153.5188  135.3616  155.2622 H   0  0  0  0  0  0  0  0  0  0  0  0  # atno 10764 bound_to 10752
  154.8691  135.4153  154.3095 H   0  0  0  0  0  0  0  0  0  0  0  0  # atno 10765 bound_to 10752
  139.8828  134.9400  156.5816 H   0  0  0  0  0  0  0  0  0  0  0  0  # atno 11005 bound_to 11000
  146.0850  140.7721  142.9623 LP  0  0  0  0  0  0  0  0  0  0  0  0  # atno 17320 bound_to 7965
  144.6986  140.3548  143.7175 LP  0  0  0  0  0  0  0  0  0  0  0  0  # atno 17321 bound_to 7965
  140.4560  144.1789  150.5901 LP  0  0  0  0  0  0  0  0  0  0  0  0  # atno 17342 bound_to 10162
  140.4535  143.2477  151.9316 LP  0  0  0  0  0  0  0  0  0  0  0  0  # atno 17343 bound_to 10162
  156.5192  130.8207  151.3197 LP  0  0  0  0  0  0  0  0  0  0  0  0  # atno 17370 bound_to 10713
  157.7423  130.9888  150.2509 LP  0  0  0  0  0  0  0  0  0  0  0  0  # atno 17371 bound_to 10713
  140.8023  133.8496  155.8737 LP  0  0  0  0  0  0  0  0  0  0  0  0  # atno 17394 bound_to 11000
  140.9582  134.1691  157.4675 LP  0  0  0  0  0  0  0  0  0  0  0  0  # atno 17395 bound_to 11000

$$$$
