AV-unprocessed.smi:2093|AV-procd|sdf|8547|dock2
  -GOLD-   2272011273D 1   1.00000     0.00000
 Structure written by MMmdl.
 31 32  0  0  0  0  0  0  0  0  1 V2000
  147.6484  140.5306  153.9323 C   0  0  0  0  0  0  0  0  0  0  0  0
  148.3510  139.2754  154.4722 C   0  0  1  0  0  0  0  0  0  0  0  0
  147.9268  138.1219  153.6813 N   0  0  0  0  0  0  0  0  0  0  0  0
  146.6809  137.6299  153.6137 C   0  0  0  0  0  0  0  0  0  0  0  0
  145.7199  138.1168  154.2098 O   0  0  0  0  0  0  0  0  0  0  0  0
  146.6319  136.5478  152.8172 N   0  0  0  0  0  0  0  0  0  0  0  0
  145.5059  135.7477  152.4902 C   0  0  0  0  0  0  0  0  0  0  0  0
  144.7255  135.1373  153.3900 N   0  0  0  0  0  0  0  0  0  0  0  0
  143.6914  134.4182  152.7854 C   0  0  0  0  0  0  0  0  0  0  0  0
  143.6991  134.4929  151.4149 C   0  0  0  0  0  0  0  0  0  0  0  0
  145.0130  135.4756  150.8252 S   0  0  0  0  0  0  0  0  0  0  0  0
  149.8867  139.3911  154.4185 C   0  0  1  0  0  0  0  0  0  0  0  0
  150.4783  140.5006  155.2905 C   0  0  0  0  0  0  0  0  0  0  0  0
  151.8835  140.0080  155.6031 C   0  0  0  0  0  0  0  0  0  0  0  0
  151.8662  138.5358  155.1845 C   0  0  0  0  0  0  0  0  0  0  0  0
  150.4963  138.2324  154.9672 O   0  0  0  0  0  0  0  0  0  0  0  0
  147.9014  141.4121  154.5217 H   0  0  0  0  0  0  0  0  0  0  0  0
  146.5642  140.4175  153.9673 H   0  0  0  0  0  0  0  0  0  0  0  0
  147.9294  140.7296  152.8976 H   0  0  0  0  0  0  0  0  0  0  0  0
  148.0540  139.1497  155.5148 H   0  0  0  0  0  0  0  0  0  0  0  0
  148.6479  137.6492  153.1567 H   0  0  0  0  0  0  0  0  0  0  0  0
  147.5035  136.2604  152.3975 H   0  0  0  0  0  0  0  0  0  0  0  0
  142.9925  133.8799  153.4084 H   0  0  0  0  0  0  0  0  0  0  0  0
  143.0141  134.0310  150.7196 H   0  0  0  0  0  0  0  0  0  0  0  0
  150.2251  139.5105  153.3871 H   0  0  0  0  0  0  0  0  0  0  0  0
  150.4726  141.4716  154.7945 H   0  0  0  0  0  0  0  0  0  0  0  0
  149.9121  140.5944  156.2183 H   0  0  0  0  0  0  0  0  0  0  0  0
  152.6384  140.5604  155.0425 H   0  0  0  0  0  0  0  0  0  0  0  0
  152.1047  140.1200  156.6652 H   0  0  0  0  0  0  0  0  0  0  0  0
  152.4165  138.3953  154.2529 H   0  0  0  0  0  0  0  0  0  0  0  0
  152.3005  137.8792  155.9388 H   0  0  0  0  0  0  0  0  0  0  0  0
  1  2  1  0  0  0  0
  1 17  1  0  0  0  0
  1 18  1  0  0  0  0
  1 19  1  0  0  0  0
  2  3  1  0  0  0  0
  2 12  1  0  0  0  0
  2 20  1  0  0  0  0
  3  4  1  0  0  0  0
  3 21  1  0  0  0  0
  4  5  2  0  0  0  0
  4  6  1  0  0  0  0
  6  7  1  0  0  0  0
  6 22  1  0  0  0  0
  7 11  1  0  0  0  0
  7  8  2  0  0  0  0
  8  9  1  0  0  0  0
  9 10  2  0  0  0  0
  9 23  1  0  0  0  0
 10 11  1  0  0  0  0
 10 24  1  0  0  0  0
 12 16  1  0  0  0  0
 12 13  1  0  0  0  0
 12 25  1  0  0  0  0
 13 14  1  0  0  0  0
 13 26  1  0  0  0  0
 13 27  1  0  0  0  0
 14 15  1  0  0  0  0
 14 28  1  0  0  0  0
 14 29  1  0  0  0  0
 15 16  1  0  0  0  0
 15 30  1  0  0  0  0
 15 31  1  0  0  0  0
M  END
> <s_m_source_file>
AV-unprocessed.smi

> <i_m_source_file_index>
2093

> <i_lp_mmshare_version>
43012

> <i_f3d_flags>
0

> <s_epik_input>
TzFbQ0gyXVtDSDJdW0NIMl1bQ0BIXTFbQ0BIXShbQ0gzXSlbTkhdQyg9TylbTkhdYzJuW2NIXVtjSF1zMg==

> <s_epik_cmdline>
J2VwaWtfcHl0aG9uJywgJy1waCcsICc3LjAnLCAnLXRuJywgJzgnLCAnLW1hJywgJzIwMCcsICctbWV0YWxfYmluZGluZycsICctaW1hZScsICc8aW5maWxlLm1hZT4nLCAnLW9tYWUnLCAnPG91dGZpbGUubWFlPic=

> <r_lp_tautomer_probability>
0.999

> <r_epik_Ionization_Penalty>
0.000334433

> <r_epik_Ionization_Penalty_Charging>
0

> <r_epik_Ionization_Penalty_Neutral>
0.000334433

> <r_epik_State_Penalty>
0.000177984

> <r_epik_Charging_Adjusted_Penalty>
0.000177984

> <i_epik_Tot_Q>
0

> <i_epik_Tot_abs_Q>
0

> <r_epik_Metal_State_Penalty>
0.00767616

> <b_epik_Metal_Only>
0

> <s_lp_Force_Field>
OPLS_2005

> <r_lp_Energy>
16.8099

> <b_lp_Chiralities_Consistent>
1

> <s_lp_Variant>
AV-unprocessed.smi:2093-4

> <Gold.Version>
5.8.1

> <Gold.Id.Protein>
6NUR|6NUR_protein|mol2

> <Gold.PLP.Fitness>
34.4373

> <Gold.PLP.PLP>
-23.8569

> <Gold.PLP.part.hbond>
-1.9690

> <Gold.PLP.part.metal>
0.0000

> <Gold.PLP.part.buried>
-1.4356

> <Gold.PLP.part.nonpolar>
-21.3510

> <Gold.PLP.part.repulsive>
0.3396

> <Gold.PLP.ligand.clash>
0.0000

> <Gold.PLP.ligand.torsion>
0.5662

> <Gold.PLP.Chemscore.Hbond>
1.8960

> <Gold.PLP.Chemscore.CHOScore>
2.0000

> <Gold.PLP.Chemscore.Metal>
0.0000

> <Gold.Chemscore.Hbonds>
donor molecule, donor type, donor heavy atom, donor atom, acceptor molecule, acceptor atom, score
      L1  H     3    21       P1  7948  0.88
      L1  H     6    22       P1  7948  1.00
      L1  C     9    23       P1 10957  0.98
      L1  C    10    24       P1 10186  1.00

> <Gold.PLP.Chemscore.Internal.Correction>
0.0247

> <Gold.Rescore>
     Score         DG    S(hbond)    S(metal)    S(lipo)     H(rot)  DE(clash)    DE(int)     intcor
     14.62     -15.16       1.94        0.00      55.72       1.29       0.02       0.52       ----

> <Gold.Chemscore.Fitness>
14.6248

> <Gold.Chemscore.DG>
-15.1582

> <Gold.Chemscore.ZeroCoef>
-5.4800

> <Gold.Chemscore.Hbond>
1.9373

> <Gold.Chemscore.Metal>
0.0000

> <Gold.Chemscore.Lipo>
55.7250

> <Gold.Chemscore.Internal_Hbond>
0.0000

> <Gold.Chemscore.DEClash>
0.0178

> <Gold.Chemscore.DEInternal>
0.5156

> <Gold.Chemscore.Rot>
1.2938

> <Gold.Chemscore.Internal.Correction>
   9.000000E+99

> <Gold.Chemscore.Hbonds>
donor molecule, donor type, donor heavy atom, donor atom, acceptor molecule, acceptor atom, score
      L1  H     3    21       P1  7948  0.86
      L1  H     6    22       P1  7948  0.93

> <Gold.Chemscore.Hbond.Weighted>
-6.4706

> <Gold.Chemscore.Metal.Weighted>
-0.0000

> <Gold.Chemscore.Lipo.Weighted>
-6.5198

> <Gold.Chemscore.Internal_Hbond.Weighted>
0.0000

> <Gold.Chemscore.DEClash.Weighted>
0.0178

> <Gold.Chemscore.DEInternal.Weighted>
0.5156

> <Gold.Chemscore.Rot.Weighted>
3.3122

> <Gold.Chemscore.Internal.Correction.Weighted>
   9.000000E+99

> <Gold.Protein.RotatedTorsions>
[ 6907 6896 6895 6894 ] final  -39.95 input  -60.11 | X-H torsion
[ 7974 7965 7964 7962 ] final   40.29 input  175.53 | X-H torsion
[ 8008 7997 7996 7995 ] final  -11.89 input   59.86 | X-H torsion
[ 10167 10162 10161 10158 ] final  -32.49 input  -65.29 | X-H torsion
[ 10718 10713 10712 10709 ] final   18.39 input   66.30 | X-H torsion
[ 10763 10752 10751 10750 ] final   -0.37 input  -60.55 | X-H torsion
[ 11005 11000 10999 10996 ] final   45.82 input  -57.11 | X-H torsion

> <Gold.Protein.ActiveResidues>
 VAL166  LYS551  ARG553  GLY616  TRP617  ASP618  TYR619  PRO620  LYS621  CYS622 
 ASP623  PHE694  ASN695  SER759  ASP760  ASP761  ALA762  ILE779  LEU786  VAL792 
 PHE793  MET794  SER795  GLU796  ALA797  LYS798  CYS799  TRP800  GLU811  SER814 

> <Gold.Protein.RotatedAtoms>
  150.9842  134.9191  159.7861 H   0  0  0  0  0  0  0  0  0  0  0  0  # atno 6907 bound_to 6896
  152.5231  134.3369  159.9213 H   0  0  0  0  0  0  0  0  0  0  0  0  # atno 6908 bound_to 6896
  151.3376  133.3934  159.2702 H   0  0  0  0  0  0  0  0  0  0  0  0  # atno 6909 bound_to 6896
  146.0917  139.5550  142.9472 H   0  0  0  0  0  0  0  0  0  0  0  0  # atno 7974 bound_to 7965
  154.5425  140.2290  155.8618 H   0  0  0  0  0  0  0  0  0  0  0  0  # atno 8008 bound_to 7997
  156.1872  140.3086  155.9223 H   0  0  0  0  0  0  0  0  0  0  0  0  # atno 8009 bound_to 7997
  155.3230  140.0441  157.3030 H   0  0  0  0  0  0  0  0  0  0  0  0  # atno 8010 bound_to 7997
  140.7220  143.3691  151.1814 H   0  0  0  0  0  0  0  0  0  0  0  0  # atno 10167 bound_to 10162
  157.0957  130.6446  149.5860 H   0  0  0  0  0  0  0  0  0  0  0  0  # atno 10718 bound_to 10713
  153.3310  135.6975  153.6948 H   0  0  0  0  0  0  0  0  0  0  0  0  # atno 10763 bound_to 10752
  153.5750  135.3509  155.2853 H   0  0  0  0  0  0  0  0  0  0  0  0  # atno 10764 bound_to 10752
  154.8618  135.4281  154.2499 H   0  0  0  0  0  0  0  0  0  0  0  0  # atno 10765 bound_to 10752
  140.1425  134.4565  155.8439 H   0  0  0  0  0  0  0  0  0  0  0  0  # atno 11005 bound_to 11000
  145.6027  141.0352  143.2009 LP  0  0  0  0  0  0  0  0  0  0  0  0  # atno 17320 bound_to 7965
  144.7365  139.7572  143.7327 LP  0  0  0  0  0  0  0  0  0  0  0  0  # atno 17321 bound_to 7965
  139.7258  143.9150  152.3002 LP  0  0  0  0  0  0  0  0  0  0  0  0  # atno 17342 bound_to 10162
  139.8923  144.6959  150.8757 LP  0  0  0  0  0  0  0  0  0  0  0  0  # atno 17343 bound_to 10162
  155.9886  130.4930  150.7179 LP  0  0  0  0  0  0  0  0  0  0  0  0  # atno 17370 bound_to 10713
  157.4683  131.0890  151.0670 LP  0  0  0  0  0  0  0  0  0  0  0  0  # atno 17371 bound_to 10713
  141.2188  133.6839  156.7273 LP  0  0  0  0  0  0  0  0  0  0  0  0  # atno 17394 bound_to 11000
  140.2704  134.8396  157.3842 LP  0  0  0  0  0  0  0  0  0  0  0  0  # atno 17395 bound_to 11000

$$$$
