AV-unprocessed.smi:162|AV-procd|sdf|1379|dock7
  -GOLD-   2262019103D 1   1.00000     0.00000
 Structure written by MMmdl.
 54 57  0  0  0  0  0  0  0  0  1 V2000
  145.7188  142.8091  154.3165 C   0  0  0  0  0  0  0  0  0  0  0  0
  146.6108  141.7671  154.6704 O   0  0  0  0  0  0  0  0  0  0  0  0
  146.8902  140.8988  153.5854 C   0  0  0  0  0  0  0  0  0  0  0  0
  148.1452  140.0730  153.9161 C   0  0  1  0  0  0  0  0  0  0  0  0
  149.2754  140.8923  154.5369 C   0  0  0  0  0  0  0  0  0  0  0  0
  150.1285  139.8483  155.2661 C   0  0  2  0  0  0  0  0  0  0  0  0
  151.2617  139.5308  154.4694 O   0  0  0  0  0  0  0  0  0  0  0  0
  152.0316  138.4549  154.9815 C   0  0  0  0  0  0  0  0  0  0  0  0
  149.2014  138.6259  155.4138 C   0  0  0  0  0  0  0  0  0  0  0  0
  147.8994  139.0303  154.9022 N   0  0  0  0  0  0  0  0  0  0  0  0
  147.1055  138.0085  154.5140 C   0  0  0  0  0  0  0  0  0  0  0  0
  146.7826  137.0941  155.4607 N   0  0  0  0  0  0  0  0  0  0  0  0
  145.9923  136.0618  155.1513 C   0  0  0  0  0  0  0  0  0  0  0  0
  145.4284  135.7638  153.9788 N   0  0  0  0  0  0  0  0  0  0  0  0
  145.7546  136.6815  153.0237 C   0  0  0  0  0  0  0  0  0  0  0  0
  146.5829  137.8250  153.2018 C   0  0  0  0  0  0  0  0  0  0  0  0
  146.6915  138.5213  152.0038 N   0  0  0  0  0  0  0  0  0  0  0  0
  145.9628  137.8333  151.1679 C   0  0  0  0  0  0  0  0  0  0  0  0
  145.3574  136.7167  151.6986 N   0  0  0  0  0  0  0  0  0  0  0  0
  144.4910  135.7797  151.0001 C   0  0  0  0  0  0  0  0  0  0  0  0
  145.1278  134.3853  150.7788 C   0  0  0  0  0  0  0  0  0  0  0  0
  144.9858  133.6529  151.9841 O   0  0  0  0  0  0  0  0  0  0  0  0
  144.3879  133.6264  149.6589 C   0  0  0  0  0  0  0  0  0  0  0  0
  145.0885  132.3059  149.2919 C   0  0  0  0  0  0  0  0  0  0  0  0
  146.4435  132.5557  148.9386 O   0  0  0  0  0  0  0  0  0  0  0  0
  147.2019  133.0975  150.0131 C   0  0  0  0  0  0  0  0  0  0  0  0
  146.6305  134.4646  150.4292 C   0  0  0  0  0  0  0  0  0  0  0  0
  148.5181  139.6149  152.9997 H   0  0  0  0  0  0  0  0  0  0  0  0
  150.4388  140.2416  156.2359 H   0  0  0  0  0  0  0  0  0  0  0  0
  145.5457  143.4507  155.1802 H   0  0  0  0  0  0  0  0  0  0  0  0
  144.7557  142.4105  153.9952 H   0  0  0  0  0  0  0  0  0  0  0  0
  146.1284  143.4257  153.5153 H   0  0  0  0  0  0  0  0  0  0  0  0
  146.0408  140.2404  153.3955 H   0  0  0  0  0  0  0  0  0  0  0  0
  147.0526  141.4919  152.6839 H   0  0  0  0  0  0  0  0  0  0  0  0
  149.8356  141.4686  153.7998 H   0  0  0  0  0  0  0  0  0  0  0  0
  148.8665  141.5952  155.2642 H   0  0  0  0  0  0  0  0  0  0  0  0
  152.8831  138.2729  154.3259 H   0  0  0  0  0  0  0  0  0  0  0  0
  151.4512  137.5335  155.0381 H   0  0  0  0  0  0  0  0  0  0  0  0
  152.4178  138.6857  155.9749 H   0  0  0  0  0  0  0  0  0  0  0  0
  149.5916  137.7691  154.8629 H   0  0  0  0  0  0  0  0  0  0  0  0
  149.1114  138.3318  156.4599 H   0  0  0  0  0  0  0  0  0  0  0  0
  145.7793  135.3779  155.9595 H   0  0  0  0  0  0  0  0  0  0  0  0
  145.8401  138.1265  150.1353 H   0  0  0  0  0  0  0  0  0  0  0  0
  143.5615  135.6882  151.5640 H   0  0  0  0  0  0  0  0  0  0  0  0
  144.2193  136.2222  150.0407 H   0  0  0  0  0  0  0  0  0  0  0  0
  144.2741  133.0397  151.8807 H   0  0  0  0  0  0  0  0  0  0  0  0
  143.3529  133.4346  149.9450 H   0  0  0  0  0  0  0  0  0  0  0  0
  144.3460  134.2520  148.7663 H   0  0  0  0  0  0  0  0  0  0  0  0
  145.0401  131.5915  150.1150 H   0  0  0  0  0  0  0  0  0  0  0  0
  144.5857  131.8421  148.4432 H   0  0  0  0  0  0  0  0  0  0  0  0
  147.2105  132.4023  150.8540 H   0  0  0  0  0  0  0  0  0  0  0  0
  148.2366  133.2111  149.6890 H   0  0  0  0  0  0  0  0  0  0  0  0
  146.7700  135.1633  149.6032 H   0  0  0  0  0  0  0  0  0  0  0  0
  147.2057  134.8612  151.2667 H   0  0  0  0  0  0  0  0  0  0  0  0
  1  2  1  0  0  0  0
  1 30  1  0  0  0  0
  1 31  1  0  0  0  0
  1 32  1  0  0  0  0
  2  3  1  0  0  0  0
  3  4  1  0  0  0  0
  3 33  1  0  0  0  0
  3 34  1  0  0  0  0
  4 28  1  0  0  0  0
  4 10  1  0  0  0  0
  4  5  1  0  0  0  0
  5  6  1  0  0  0  0
  5 35  1  0  0  0  0
  5 36  1  0  0  0  0
  6 29  1  0  0  0  0
  6  7  1  0  0  0  0
  6  9  1  0  0  0  0
  7  8  1  0  0  0  0
  8 37  1  0  0  0  0
  8 38  1  0  0  0  0
  8 39  1  0  0  0  0
  9 10  1  0  0  0  0
  9 40  1  0  0  0  0
  9 41  1  0  0  0  0
 10 11  1  0  0  0  0
 11 16  1  0  0  0  0
 11 12  2  0  0  0  0
 12 13  1  0  0  0  0
 13 14  2  0  0  0  0
 13 42  1  0  0  0  0
 14 15  1  0  0  0  0
 15 19  1  0  0  0  0
 15 16  2  0  0  0  0
 16 17  1  0  0  0  0
 17 18  2  0  0  0  0
 18 19  1  0  0  0  0
 18 43  1  0  0  0  0
 19 20  1  0  0  0  0
 20 21  1  0  0  0  0
 20 44  1  0  0  0  0
 20 45  1  0  0  0  0
 21 27  1  0  0  0  0
 21 22  1  0  0  0  0
 21 23  1  0  0  0  0
 22 46  1  0  0  0  0
 23 24  1  0  0  0  0
 23 47  1  0  0  0  0
 23 48  1  0  0  0  0
 24 25  1  0  0  0  0
 24 49  1  0  0  0  0
 24 50  1  0  0  0  0
 25 26  1  0  0  0  0
 26 27  1  0  0  0  0
 26 51  1  0  0  0  0
 26 52  1  0  0  0  0
 27 53  1  0  0  0  0
 27 54  1  0  0  0  0
M  END
> <s_m_source_file>
AV-unprocessed.smi

> <i_m_source_file_index>
162

> <i_lp_mmshare_version>
43012

> <i_f3d_flags>
0

> <s_epik_input>
W0NIM11PW0NIMl1bQ0BASF0xW0NIMl1bQ0BASF0oT1tDSDNdKVtDSDJdTjFjKG5bY0hdbjIpYyhjMjMpbltjSF1uM1tDSDJdQzQoW09IXSlbQ0gyXVtDSDJdT1tDSDJdW0NIMl00

> <s_epik_cmdline>
J2VwaWtfcHl0aG9uJywgJy1waCcsICc3LjAnLCAnLXRuJywgJzgnLCAnLW1hJywgJzIwMCcsICctbWV0YWxfYmluZGluZycsICctaW1hZScsICc8aW5maWxlLm1hZT4nLCAnLW9tYWUnLCAnPG91dGZpbGUubWFlPic=

> <r_lp_tautomer_probability>
1

> <r_epik_Ionization_Penalty>
0.00660334

> <r_epik_Ionization_Penalty_Charging>
0

> <r_epik_Ionization_Penalty_Neutral>
0.00660334

> <r_epik_State_Penalty>
0.00469459

> <r_epik_Charging_Adjusted_Penalty>
0.00469459

> <i_epik_Tot_Q>
0

> <i_epik_Tot_abs_Q>
0

> <r_epik_Metal_State_Penalty>
-0

> <b_epik_Metal_Only>
0

> <s_lp_Force_Field>
OPLS_2005

> <r_lp_Energy>
43.1058

> <b_lp_Chiralities_Consistent>
1

> <s_lp_Variant>
AV-unprocessed.smi:162-4

> <Gold.Version>
5.8.1

> <Gold.Id.Protein>
6NUR|6NUR_protein|mol2

> <Gold.PLP.Fitness>
43.0173

> <Gold.PLP.PLP>
-35.3962

> <Gold.PLP.part.hbond>
-2.0000

> <Gold.PLP.part.metal>
0.0000

> <Gold.PLP.part.buried>
-4.2587

> <Gold.PLP.part.nonpolar>
-30.8726

> <Gold.PLP.part.repulsive>
0.7225

> <Gold.PLP.ligand.clash>
0.0000

> <Gold.PLP.ligand.torsion>
0.5993

> <Gold.PLP.Chemscore.Hbond>
1.9100

> <Gold.PLP.Chemscore.CHOScore>
1.0000

> <Gold.PLP.Chemscore.Metal>
0.0000

> <Gold.Chemscore.Hbonds>
donor molecule, donor type, donor heavy atom, donor atom, acceptor molecule, acceptor atom, score
      P1  H  7989  7998       L1     7  1.00
      L1  C    18    43       P1 10171  0.60

> <Gold.PLP.Chemscore.Internal.Correction>
0.0898

> <Gold.Rescore>
     Score         DG    S(hbond)    S(metal)    S(lipo)     H(rot)  DE(clash)    DE(int)     intcor
      9.72     -12.63       1.85        0.00      70.85       2.86       0.00       2.91       ----

> <Gold.Chemscore.Fitness>
9.7189

> <Gold.Chemscore.DG>
-12.6295

> <Gold.Chemscore.ZeroCoef>
-5.4800

> <Gold.Chemscore.Hbond>
1.8540

> <Gold.Chemscore.Metal>
0.0000

> <Gold.Chemscore.Lipo>
70.8517

> <Gold.Chemscore.Internal_Hbond>
0.0000

> <Gold.Chemscore.DEClash>
0.0000

> <Gold.Chemscore.DEInternal>
2.9106

> <Gold.Chemscore.Rot>
2.8642

> <Gold.Chemscore.Internal.Correction>
   9.000000E+99

> <Gold.Chemscore.Hbonds>
donor molecule, donor type, donor heavy atom, donor atom, acceptor molecule, acceptor atom, score
      P1  H  7989  7998       L1     7  0.74

> <Gold.Chemscore.Hbond.Weighted>
-6.1922

> <Gold.Chemscore.Metal.Weighted>
-0.0000

> <Gold.Chemscore.Lipo.Weighted>
-8.2896

> <Gold.Chemscore.Internal_Hbond.Weighted>
0.0000

> <Gold.Chemscore.DEClash.Weighted>
0.0000

> <Gold.Chemscore.DEInternal.Weighted>
2.9106

> <Gold.Chemscore.Rot.Weighted>
7.3324

> <Gold.Chemscore.Internal.Correction.Weighted>
   9.000000E+99

> <Gold.Protein.RotatedTorsions>
[ 6907 6896 6895 6894 ] final   64.17 input  -60.11 | X-H torsion
[ 7974 7965 7964 7962 ] final  -52.14 input  175.53 | X-H torsion
[ 8008 7997 7996 7995 ] final  173.69 input   59.86 | X-H torsion
[ 10167 10162 10161 10158 ] final  144.61 input  -65.29 | X-H torsion
[ 10718 10713 10712 10709 ] final   12.68 input   66.30 | X-H torsion
[ 10763 10752 10751 10750 ] final   -2.82 input  -60.55 | X-H torsion
[ 11005 11000 10999 10996 ] final  -35.65 input  -57.11 | X-H torsion

> <Gold.Protein.ActiveResidues>
 VAL166  LYS551  ARG553  GLY616  TRP617  ASP618  TYR619  PRO620  LYS621  CYS622 
 ASP623  PHE694  ASN695  SER759  ASP760  ASP761  ALA762  ILE779  LEU786  VAL792 
 PHE793  MET794  SER795  GLU796  ALA797  LYS798  CYS799  TRP800  GLU811  SER814 

> <Gold.Protein.RotatedAtoms>
  152.4311  134.5776  159.9938 H   0  0  0  0  0  0  0  0  0  0  0  0  # atno 6907 bound_to 6896
  151.5899  133.3362  159.3033 H   0  0  0  0  0  0  0  0  0  0  0  0  # atno 6908 bound_to 6896
  150.8204  134.7444  159.6832 H   0  0  0  0  0  0  0  0  0  0  0  0  # atno 6909 bound_to 6896
  145.9112  140.7913  142.9694 H   0  0  0  0  0  0  0  0  0  0  0  0  # atno 7974 bound_to 7965
  156.1050  140.1453  156.9417 H   0  0  0  0  0  0  0  0  0  0  0  0  # atno 8008 bound_to 7997
  154.4727  140.0904  156.7230 H   0  0  0  0  0  0  0  0  0  0  0  0  # atno 8009 bound_to 7997
  155.4695  140.3441  155.4326 H   0  0  0  0  0  0  0  0  0  0  0  0  # atno 8010 bound_to 7997
  139.4943  144.5960  151.6582 H   0  0  0  0  0  0  0  0  0  0  0  0  # atno 10167 bound_to 10162
  157.0137  130.6127  149.5711 H   0  0  0  0  0  0  0  0  0  0  0  0  # atno 10718 bound_to 10713
  153.3631  135.6991  153.6697 H   0  0  0  0  0  0  0  0  0  0  0  0  # atno 10763 bound_to 10752
  153.5377  135.3579  155.2705 H   0  0  0  0  0  0  0  0  0  0  0  0  # atno 10764 bound_to 10752
  154.8671  135.4196  154.2892 H   0  0  0  0  0  0  0  0  0  0  0  0  # atno 10765 bound_to 10752
  140.9813  133.7055  156.1689 H   0  0  0  0  0  0  0  0  0  0  0  0  # atno 11005 bound_to 11000
  144.6743  140.1829  143.7404 LP  0  0  0  0  0  0  0  0  0  0  0  0  # atno 17320 bound_to 7965
  145.8669  139.2251  143.1684 LP  0  0  0  0  0  0  0  0  0  0  0  0  # atno 17321 bound_to 7965
  140.5598  144.0287  150.6164 LP  0  0  0  0  0  0  0  0  0  0  0  0  # atno 17342 bound_to 10162
  140.3369  143.3043  152.0628 LP  0  0  0  0  0  0  0  0  0  0  0  0  # atno 17343 bound_to 10162
  156.0127  130.5219  150.8038 LP  0  0  0  0  0  0  0  0  0  0  0  0  # atno 17370 bound_to 10713
  157.5301  131.0936  150.9966 LP  0  0  0  0  0  0  0  0  0  0  0  0  # atno 17371 bound_to 10713
  140.7182  134.4387  157.5577 LP  0  0  0  0  0  0  0  0  0  0  0  0  # atno 17394 bound_to 11000
  139.8951  134.8690  156.2145 LP  0  0  0  0  0  0  0  0  0  0  0  0  # atno 17395 bound_to 11000

$$$$
