AV-unprocessed.smi:1426|AV-procd|sdf|5808|dock4
  -GOLD-   22720 5463D 1   1.00000     0.00000
 Structure written by MMmdl.
 44 46  0  0  0  0  0  0  0  0  2 V2000
  151.1149  140.5467  155.4697 O   0  0  0  0  0  0  0  0  0  0  0  0
  150.3270  141.4245  155.8216 C   0  0  0  0  0  0  0  0  0  0  0  0
  150.6019  142.3318  156.7690 N   0  0  0  0  0  0  0  0  0  0  0  0
  151.8532  142.4090  157.5155 C   0  0  0  0  0  0  0  0  0  0  0  0
  151.6142  142.4823  159.0357 C   0  0  1  0  0  0  0  0  0  0  0  0
  152.8495  142.2050  159.8667 C   0  0  0  0  0  0  0  0  0  0  0  0
  152.4548  142.7921  161.2181 C   0  0  0  0  0  0  0  0  0  0  0  0
  151.6027  143.8959  160.9260 O   0  0  0  0  0  0  0  0  0  0  0  0
  151.2115  143.8637  159.5562 C   0  0  0  0  0  0  0  0  0  0  0  0
  149.0858  141.5890  155.3344 N   0  0  0  0  0  0  0  0  0  0  0  0
  148.4273  140.8181  154.3343 C   0  0  0  0  0  0  0  0  0  0  0  0
  147.5457  141.4232  153.4016 C   0  0  0  0  0  0  0  0  0  0  0  0
  146.9227  140.6398  152.4119 C   0  0  0  0  0  0  0  0  0  0  0  0
  147.1865  139.2603  152.3711 C   0  0  0  0  0  0  0  0  0  0  0  0
  148.0133  138.7107  153.2843 N   0  3  0  0  0  0  0  0  0  0  0  0
  148.6315  139.4087  154.2700 C   0  0  0  0  0  0  0  0  0  0  0  0
  149.4601  138.6928  155.1641 N   0  0  0  0  0  0  0  0  0  0  0  0
  150.6207  137.9612  154.6701 C   0  0  0  0  0  0  0  0  0  0  0  0
  151.0349  137.0508  155.8228 C   0  0  0  0  0  0  0  0  0  0  0  0
  149.6919  136.6819  156.4454 C   0  0  0  0  0  0  0  0  0  0  0  0
  148.8462  137.9461  156.2577 C   0  0  0  0  0  0  0  0  0  0  0  0
  149.8956  143.0163  156.9967 H   0  0  0  0  0  0  0  0  0  0  0  0
  152.4856  141.5531  157.2732 H   0  0  0  0  0  0  0  0  0  0  0  0
  152.3929  143.2940  157.1776 H   0  0  0  0  0  0  0  0  0  0  0  0
  150.8440  141.7633  159.3207 H   0  0  0  0  0  0  0  0  0  0  0  0
  153.1009  141.1453  159.9218 H   0  0  0  0  0  0  0  0  0  0  0  0
  153.7106  142.7406  159.4641 H   0  0  0  0  0  0  0  0  0  0  0  0
  151.8893  142.0622  161.7986 H   0  0  0  0  0  0  0  0  0  0  0  0
  153.3185  143.0985  161.8085 H   0  0  0  0  0  0  0  0  0  0  0  0
  151.7531  144.6495  159.0278 H   0  0  0  0  0  0  0  0  0  0  0  0
  150.1441  144.0560  159.4438 H   0  0  0  0  0  0  0  0  0  0  0  0
  148.5167  142.2835  155.7954 H   0  0  0  0  0  0  0  0  0  0  0  0
  147.3313  142.4807  153.4334 H   0  0  0  0  0  0  0  0  0  0  0  0
  146.2533  141.0923  151.6951 H   0  0  0  0  0  0  0  0  0  0  0  0
  146.7578  138.5820  151.6475 H   0  0  0  0  0  0  0  0  0  0  0  0
  150.3506  137.3546  153.8047 H   0  0  0  0  0  0  0  0  0  0  0  0
  151.4250  138.6380  154.3798 H   0  0  0  0  0  0  0  0  0  0  0  0
  151.6085  136.1832  155.4953 H   0  0  0  0  0  0  0  0  0  0  0  0
  151.6383  137.6075  156.5414 H   0  0  0  0  0  0  0  0  0  0  0  0
  149.2466  135.8560  155.8889 H   0  0  0  0  0  0  0  0  0  0  0  0
  149.7743  136.3773  157.4894 H   0  0  0  0  0  0  0  0  0  0  0  0
  148.8828  138.5551  157.1614 H   0  0  0  0  0  0  0  0  0  0  0  0
  147.8036  137.6988  156.0540 H   0  0  0  0  0  0  0  0  0  0  0  0
  148.1765  137.7051  153.2344 H   0  0  0  0  0  0  0  0  0  0  0  0
  1  2  2  0  0  0  0
  2  3  1  0  0  0  0
  2 10  1  0  0  0  0
  3  4  1  0  0  0  0
  3 22  1  0  0  0  0
  4  5  1  0  0  0  0
  4 23  1  0  0  0  0
  4 24  1  0  0  0  0
  5  9  1  0  0  0  0
  5  6  1  0  0  0  0
  5 25  1  0  0  0  0
  6  7  1  0  0  0  0
  6 26  1  0  0  0  0
  6 27  1  0  0  0  0
  7  8  1  0  0  0  0
  7 28  1  0  0  0  0
  7 29  1  0  0  0  0
  8  9  1  0  0  0  0
  9 30  1  0  0  0  0
  9 31  1  0  0  0  0
 10 11  1  0  0  0  0
 10 32  1  0  0  0  0
 11 16  1  0  0  0  0
 11 12  2  0  0  0  0
 12 13  1  0  0  0  0
 12 33  1  0  0  0  0
 13 14  2  0  0  0  0
 13 34  1  0  0  0  0
 14 15  1  0  0  0  0
 14 35  1  0  0  0  0
 15 16  2  0  0  0  0
 15 44  1  0  0  0  0
 16 17  1  0  0  0  0
 17 21  1  0  0  0  0
 17 18  1  0  0  0  0
 18 19  1  0  0  0  0
 18 36  1  0  0  0  0
 18 37  1  0  0  0  0
 19 20  1  0  0  0  0
 19 38  1  0  0  0  0
 19 39  1  0  0  0  0
 20 21  1  0  0  0  0
 20 40  1  0  0  0  0
 20 41  1  0  0  0  0
 21 42  1  0  0  0  0
 21 43  1  0  0  0  0
M  CHG  1  15   1
M  END
> <s_m_source_file>
AV-unprocessed.smi

> <i_m_source_file_index>
1426

> <i_lp_mmshare_version>
43012

> <i_f3d_flags>
0

> <s_epik_input>
W0NIMl0xT1tDSDJdW0NIMl1bQ0BIXTFbQ0gyXVtOSF1DKD1PKVtOSF1jMltjSF1bY0hdW2NIXW5jMk4zW0NIMl1bQ0gyXVtDSDJdW0NIMl0z

> <s_epik_cmdline>
J2VwaWtfcHl0aG9uJywgJy1waCcsICc3LjAnLCAnLXRuJywgJzgnLCAnLW1hJywgJzIwMCcsICctbWV0YWxfYmluZGluZycsICctaW1hZScsICc8aW5maWxlLm1hZT4nLCAnLW9tYWUnLCAnPG91dGZpbGUubWFlPic=

> <r_lp_tautomer_probability>
0.999994

> <r_epik_Ionization_Penalty>
1.10677

> <r_epik_Ionization_Penalty_Charging>
1.10675

> <r_epik_Ionization_Penalty_Neutral>
2.02663e-05

> <r_epik_State_Penalty>
1.16438

> <r_epik_Charging_Adjusted_Penalty>
2.27113

> <i_epik_Tot_Q>
1

> <i_epik_Tot_abs_Q>
1

> <r_epik_Metal_State_Penalty>
1.25078

> <b_epik_Metal_Only>
0

> <s_lp_Force_Field>
OPLS_2005

> <r_lp_Energy>
54.362

> <b_lp_Chiralities_Consistent>
1

> <s_lp_Variant>
AV-unprocessed.smi:1426-4

> <Gold.Version>
5.8.1

> <Gold.Id.Protein>
6NUR|6NUR_protein|mol2

> <Gold.PLP.Fitness>
44.3805

> <Gold.PLP.PLP>
-36.8808

> <Gold.PLP.part.hbond>
-4.7138

> <Gold.PLP.part.metal>
0.0000

> <Gold.PLP.part.buried>
-1.5938

> <Gold.PLP.part.nonpolar>
-30.2152

> <Gold.PLP.part.repulsive>
0.5240

> <Gold.PLP.ligand.clash>
0.0000

> <Gold.PLP.ligand.torsion>
0.7196

> <Gold.PLP.Chemscore.Hbond>
2.8478

> <Gold.PLP.Chemscore.CHOScore>
0.0000

> <Gold.PLP.Chemscore.Metal>
0.0000

> <Gold.Chemscore.Hbonds>
donor molecule, donor type, donor heavy atom, donor atom, acceptor molecule, acceptor atom, score
      L1  H     3    22       P1  8028  0.07
      L1  H    15    44       P1  7948  1.07
      P1  H  7989  7998       L1     1  0.84

> <Gold.PLP.Chemscore.Internal.Correction>
0.3953

> <Gold.Rescore>
     Score         DG    S(hbond)    S(metal)    S(lipo)     H(rot)  DE(clash)    DE(int)     intcor
     11.65     -19.14       1.67        0.00      99.64       1.40       1.47       6.03       ----

> <Gold.Chemscore.Fitness>
11.6485

> <Gold.Chemscore.DG>
-19.1418

> <Gold.Chemscore.ZeroCoef>
-5.4800

> <Gold.Chemscore.Hbond>
1.6747

> <Gold.Chemscore.Metal>
0.0000

> <Gold.Chemscore.Lipo>
99.6417

> <Gold.Chemscore.Internal_Hbond>
0.0000

> <Gold.Chemscore.DEClash>
1.4672

> <Gold.Chemscore.DEInternal>
6.0261

> <Gold.Chemscore.Rot>
1.4023

> <Gold.Chemscore.Internal.Correction>
   9.000000E+99

> <Gold.Chemscore.Hbonds>
donor molecule, donor type, donor heavy atom, donor atom, acceptor molecule, acceptor atom, score
      L1  H     3    22       P1  8028  0.09
      L1  H    10    32       P1  8028  0.02
      L1  H    15    44       P1  7948  0.55
      P1  H  7989  7998       L1     1  0.55

> <Gold.Chemscore.Hbond.Weighted>
-5.5935

> <Gold.Chemscore.Metal.Weighted>
-0.0000

> <Gold.Chemscore.Lipo.Weighted>
-11.6581

> <Gold.Chemscore.Internal_Hbond.Weighted>
0.0000

> <Gold.Chemscore.DEClash.Weighted>
1.4672

> <Gold.Chemscore.DEInternal.Weighted>
6.0261

> <Gold.Chemscore.Rot.Weighted>
3.5898

> <Gold.Chemscore.Internal.Correction.Weighted>
   9.000000E+99

> <Gold.Protein.RotatedTorsions>
[ 6907 6896 6895 6894 ] final   80.01 input  -60.11 | X-H torsion
[ 7974 7965 7964 7962 ] final  -56.37 input  175.53 | X-H torsion
[ 8008 7997 7996 7995 ] final  -51.57 input   59.86 | X-H torsion
[ 10167 10162 10161 10158 ] final   88.92 input  -65.29 | X-H torsion
[ 10718 10713 10712 10709 ] final  -38.88 input   66.30 | X-H torsion
[ 10763 10752 10751 10750 ] final -167.04 input  -60.55 | X-H torsion
[ 11005 11000 10999 10996 ] final   53.38 input  -57.11 | X-H torsion

> <Gold.Protein.ActiveResidues>
 VAL166  LYS551  ARG553  GLY616  TRP617  ASP618  TYR619  PRO620  LYS621  CYS622 
 ASP623  PHE694  ASN695  SER759  ASP760  ASP761  ALA762  ILE779  LEU786  VAL792 
 PHE793  MET794  SER795  GLU796  ALA797  LYS798  CYS799  TRP800  GLU811  SER814 

> <Gold.Protein.RotatedAtoms>
  152.5219  134.3423  159.9221 H   0  0  0  0  0  0  0  0  0  0  0  0  # atno 6907 bound_to 6896
  151.3372  133.3970  159.2675 H   0  0  0  0  0  0  0  0  0  0  0  0  # atno 6908 bound_to 6896
  150.9832  134.9201  159.7914 H   0  0  0  0  0  0  0  0  0  0  0  0  # atno 6909 bound_to 6896
  145.8635  140.8268  142.9925 H   0  0  0  0  0  0  0  0  0  0  0  0  # atno 7974 bound_to 7965
  154.4086  140.1244  156.4851 H   0  0  0  0  0  0  0  0  0  0  0  0  # atno 8008 bound_to 7997
  155.7046  140.3494  155.4928 H   0  0  0  0  0  0  0  0  0  0  0  0  # atno 8009 bound_to 7997
  155.9355  140.1077  157.1088 H   0  0  0  0  0  0  0  0  0  0  0  0  # atno 8010 bound_to 7997
  139.8624  144.6537  150.9043 H   0  0  0  0  0  0  0  0  0  0  0  0  # atno 10167 bound_to 10162
  156.2987  130.4237  149.8165 H   0  0  0  0  0  0  0  0  0  0  0  0  # atno 10718 bound_to 10713
  154.6772  135.2948  154.9662 H   0  0  0  0  0  0  0  0  0  0  0  0  # atno 10763 bound_to 10752
  154.0669  135.6623  153.4823 H   0  0  0  0  0  0  0  0  0  0  0  0  # atno 10764 bound_to 10752
  153.0524  135.5165  154.7797 H   0  0  0  0  0  0  0  0  0  0  0  0  # atno 10765 bound_to 10752
  140.0772  134.5389  155.8984 H   0  0  0  0  0  0  0  0  0  0  0  0  # atno 11005 bound_to 11000
  144.6726  140.1131  143.7454 LP  0  0  0  0  0  0  0  0  0  0  0  0  # atno 17320 bound_to 7965
  145.9221  139.2552  143.1375 LP  0  0  0  0  0  0  0  0  0  0  0  0  # atno 17321 bound_to 7965
  140.7773  143.3733  151.1610 LP  0  0  0  0  0  0  0  0  0  0  0  0  # atno 17342 bound_to 10162
  139.7361  143.8997  152.3035 LP  0  0  0  0  0  0  0  0  0  0  0  0  # atno 17343 bound_to 10162
  156.5551  130.8359  151.3311 LP  0  0  0  0  0  0  0  0  0  0  0  0  # atno 17370 bound_to 10713
  157.7362  130.9775  150.2124 LP  0  0  0  0  0  0  0  0  0  0  0  0  # atno 17371 bound_to 10713
  141.2033  133.6631  156.6058 LP  0  0  0  0  0  0  0  0  0  0  0  0  # atno 17394 bound_to 11000
  140.3541  134.7743  157.4488 LP  0  0  0  0  0  0  0  0  0  0  0  0  # atno 17395 bound_to 11000

$$$$
