AV-unprocessed.smi:65|AV-procd|sdf|611|dock3
  -GOLD-   2262016503D 1   1.00000     0.00000
 Structure written by MMmdl.
 26 27  0  0  0  0  0  0  0  0  2 V2000
  146.7232  137.7821  152.2947 N   0  0  0  0  0  0  0  0  0  0  0  0
  145.5535  137.0608  152.3043 C   0  0  0  0  0  0  0  0  0  0  0  0
  144.3959  137.7171  152.4710 N   0  3  0  0  0  0  0  0  0  0  0  0
  143.2307  137.0241  152.4838 C   0  0  0  0  0  0  0  0  0  0  0  0
  143.2342  135.6260  152.3261 C   0  0  0  0  0  0  0  0  0  0  0  0
  144.4851  135.0062  152.1613 C   0  0  0  0  0  0  0  0  0  0  0  0
  144.5548  133.6157  151.9856 N   0  0  0  0  0  0  0  0  0  0  0  0
  143.5780  133.0851  151.0374 C   0  0  0  0  0  0  0  0  0  0  0  0
  144.3749  132.3776  149.9400 C   0  0  0  0  0  0  0  0  0  0  0  0
  145.6271  131.9291  150.6826 C   0  0  1  0  0  0  0  0  0  0  0  0
  146.7201  131.7074  149.8175 O   0  0  0  0  0  0  0  0  0  0  0  0
  145.8756  133.0924  151.6422 C   0  0  0  0  0  0  0  0  0  0  0  0
  145.6254  135.7346  152.1462 N   0  0  0  0  0  0  0  0  0  0  0  0
  147.6099  137.3147  152.1708 H   0  0  0  0  0  0  0  0  0  0  0  0
  146.7141  138.7795  152.4516 H   0  0  0  0  0  0  0  0  0  0  0  0
  142.3342  137.6114  152.6186 H   0  0  0  0  0  0  0  0  0  0  0  0
  142.3159  135.0565  152.3314 H   0  0  0  0  0  0  0  0  0  0  0  0
  142.9486  132.3692  151.5669 H   0  0  0  0  0  0  0  0  0  0  0  0
  142.9218  133.8522  150.6228 H   0  0  0  0  0  0  0  0  0  0  0  0
  143.8287  131.5537  149.4797 H   0  0  0  0  0  0  0  0  0  0  0  0
  144.6340  133.0936  149.1581 H   0  0  0  0  0  0  0  0  0  0  0  0
  145.4165  131.0198  151.2476 H   0  0  0  0  0  0  0  0  0  0  0  0
  147.2370  130.9950  150.1618 H   0  0  0  0  0  0  0  0  0  0  0  0
  146.4896  133.8546  151.1601 H   0  0  0  0  0  0  0  0  0  0  0  0
  146.4066  132.7626  152.5355 H   0  0  0  0  0  0  0  0  0  0  0  0
  144.3792  138.7306  152.5879 H   0  0  0  0  0  0  0  0  0  0  0  0
  1  2  1  0  0  0  0
  1 14  1  0  0  0  0
  1 15  1  0  0  0  0
  2 13  1  0  0  0  0
  2  3  2  0  0  0  0
  3  4  1  0  0  0  0
  3 26  1  0  0  0  0
  4  5  2  0  0  0  0
  4 16  1  0  0  0  0
  5  6  1  0  0  0  0
  5 17  1  0  0  0  0
  6  7  1  0  0  0  0
  6 13  2  0  0  0  0
  7 12  1  0  0  0  0
  7  8  1  0  0  0  0
  8  9  1  0  0  0  0
  8 18  1  0  0  0  0
  8 19  1  0  0  0  0
  9 10  1  0  0  0  0
  9 20  1  0  0  0  0
  9 21  1  0  0  0  0
 10 11  1  0  0  0  0
 10 12  1  0  0  0  0
 10 22  1  0  0  0  0
 11 23  1  0  0  0  0
 12 24  1  0  0  0  0
 12 25  1  0  0  0  0
M  CHG  1   3   1
M  END
> <s_m_source_file>
AV-unprocessed.smi

> <i_m_source_file_index>
65

> <i_lp_mmshare_version>
43012

> <i_f3d_flags>
0

> <s_epik_input>
W05IMl1jMW5bY0hdW2NIXWMobjEpTjJbQ0gyXVtDSDJdW0NAQEhdKFtPSF0pW0NIMl0y

> <s_epik_cmdline>
J2VwaWtfcHl0aG9uJywgJy1waCcsICc3LjAnLCAnLXRuJywgJzgnLCAnLW1hJywgJzIwMCcsICctbWV0YWxfYmluZGluZycsICctaW1hZScsICc8aW5maWxlLm1hZT4nLCAnLW9tYWUnLCAnPG91dGZpbGUubWFlPic=

> <r_lp_tautomer_probability>
0.575011

> <r_epik_Ionization_Penalty>
0.212468

> <r_epik_Ionization_Penalty_Charging>
0.212464

> <r_epik_Ionization_Penalty_Neutral>
4.40197e-06

> <r_epik_State_Penalty>
0.43682

> <r_epik_Charging_Adjusted_Penalty>
0.649284

> <i_epik_Tot_Q>
1

> <i_epik_Tot_abs_Q>
1

> <r_epik_Metal_State_Penalty>
0.733762

> <b_epik_Metal_Only>
0

> <s_lp_Force_Field>
OPLS_2005

> <r_lp_Energy>
27.649

> <b_lp_Chiralities_Consistent>
1

> <s_lp_Variant>
AV-unprocessed.smi:65-1

> <Gold.Version>
5.8.1

> <Gold.Id.Protein>
6NUR|6NUR_protein|mol2

> <Gold.PLP.Fitness>
40.4067

> <Gold.PLP.PLP>
-26.3165

> <Gold.PLP.part.hbond>
-4.0000

> <Gold.PLP.part.metal>
0.0000

> <Gold.PLP.part.buried>
-5.4324

> <Gold.PLP.part.nonpolar>
-17.1708

> <Gold.PLP.part.repulsive>
0.3870

> <Gold.PLP.ligand.clash>
0.0000

> <Gold.PLP.ligand.torsion>
0.2287

> <Gold.PLP.Chemscore.Hbond>
4.8320

> <Gold.PLP.Chemscore.CHOScore>
0.0000

> <Gold.PLP.Chemscore.Metal>
0.0000

> <Gold.Chemscore.Hbonds>
donor molecule, donor type, donor heavy atom, donor atom, acceptor molecule, acceptor atom, score
      L1  H     1    14       P1  7948  2.00
      L1  H     3    26       P1 10175  2.00
      L1  H    11    23       P1 10747  0.58

> <Gold.PLP.Chemscore.Internal.Correction>
0.0515

> <Gold.Rescore>
     Score         DG    S(hbond)    S(metal)    S(lipo)     H(rot)  DE(clash)    DE(int)     intcor
     15.91     -16.48       2.98        0.00      43.12       1.56       0.00       0.57       ----

> <Gold.Chemscore.Fitness>
15.9089

> <Gold.Chemscore.DG>
-16.4842

> <Gold.Chemscore.ZeroCoef>
-5.4800

> <Gold.Chemscore.Hbond>
2.9831

> <Gold.Chemscore.Metal>
0.0000

> <Gold.Chemscore.Lipo>
43.1154

> <Gold.Chemscore.Internal_Hbond>
0.0000

> <Gold.Chemscore.DEClash>
0.0048

> <Gold.Chemscore.DEInternal>
0.5705

> <Gold.Chemscore.Rot>
1.5640

> <Gold.Chemscore.Internal.Correction>
   9.000000E+99

> <Gold.Chemscore.Hbonds>
donor molecule, donor type, donor heavy atom, donor atom, acceptor molecule, acceptor atom, score
      L1  H     1    14       P1  7948  1.00
      L1  H     3    26       P1 10175  0.98
      L1  H    11    23       P1 10747  0.58

> <Gold.Chemscore.Hbond.Weighted>
-9.9635

> <Gold.Chemscore.Metal.Weighted>
-0.0000

> <Gold.Chemscore.Lipo.Weighted>
-5.0445

> <Gold.Chemscore.Internal_Hbond.Weighted>
0.0000

> <Gold.Chemscore.DEClash.Weighted>
0.0048

> <Gold.Chemscore.DEInternal.Weighted>
0.5705

> <Gold.Chemscore.Rot.Weighted>
4.0038

> <Gold.Chemscore.Internal.Correction.Weighted>
   9.000000E+99

> <Gold.Protein.RotatedTorsions>
[ 6907 6896 6895 6894 ] final  140.59 input  -60.11 | X-H torsion
[ 7974 7965 7964 7962 ] final  156.00 input  175.53 | X-H torsion
[ 8008 7997 7996 7995 ] final -175.16 input   59.86 | X-H torsion
[ 10167 10162 10161 10158 ] final  -52.54 input  -65.29 | X-H torsion
[ 10718 10713 10712 10709 ] final   60.38 input   66.30 | X-H torsion
[ 10763 10752 10751 10750 ] final -168.94 input  -60.55 | X-H torsion
[ 11005 11000 10999 10996 ] final -174.70 input  -57.11 | X-H torsion

> <Gold.Protein.ActiveResidues>
 VAL166  LYS551  ARG553  GLY616  TRP617  ASP618  TYR619  PRO620  LYS621  CYS622 
 ASP623  PHE694  ASN695  SER759  ASP760  ASP761  ALA762  ILE779  LEU786  VAL792 
 PHE793  MET794  SER795  GLU796  ALA797  LYS798  CYS799  TRP800  GLU811  SER814 

> <Gold.Protein.RotatedAtoms>
  152.2412  133.5137  159.5270 H   0  0  0  0  0  0  0  0  0  0  0  0  # atno 6907 bound_to 6896
  150.7065  134.1086  159.4001 H   0  0  0  0  0  0  0  0  0  0  0  0  # atno 6908 bound_to 6896
  151.9007  135.0379  160.0557 H   0  0  0  0  0  0  0  0  0  0  0  0  # atno 6909 bound_to 6896
  144.7990  139.7145  143.6190 H   0  0  0  0  0  0  0  0  0  0  0  0  # atno 7974 bound_to 7965
  155.9791  140.1178  157.0743 H   0  0  0  0  0  0  0  0  0  0  0  0  # atno 8008 bound_to 7997
  154.4178  140.1148  156.5479 H   0  0  0  0  0  0  0  0  0  0  0  0  # atno 8009 bound_to 7997
  155.6495  140.3473  155.4745 H   0  0  0  0  0  0  0  0  0  0  0  0  # atno 8010 bound_to 7997
  140.6532  143.2580  151.4662 H   0  0  0  0  0  0  0  0  0  0  0  0  # atno 10167 bound_to 10162
  157.5748  130.8935  149.9329 H   0  0  0  0  0  0  0  0  0  0  0  0  # atno 10718 bound_to 10713
  154.6575  135.2920  154.9909 H   0  0  0  0  0  0  0  0  0  0  0  0  # atno 10763 bound_to 10752
  154.0980  135.6581  153.4867 H   0  0  0  0  0  0  0  0  0  0  0  0  # atno 10764 bound_to 10752
  153.0411  135.5235  154.7511 H   0  0  0  0  0  0  0  0  0  0  0  0  # atno 10765 bound_to 10752
  140.4716  134.6160  157.4884 H   0  0  0  0  0  0  0  0  0  0  0  0  # atno 11005 bound_to 11000
  146.2266  139.5734  142.9583 LP  0  0  0  0  0  0  0  0  0  0  0  0  # atno 17320 bound_to 7965
  145.5601  141.0405  143.2231 LP  0  0  0  0  0  0  0  0  0  0  0  0  # atno 17321 bound_to 7965
  139.5750  144.1840  152.1890 LP  0  0  0  0  0  0  0  0  0  0  0  0  # atno 17342 bound_to 10162
  140.1147  144.5426  150.6901 LP  0  0  0  0  0  0  0  0  0  0  0  0  # atno 17343 bound_to 10162
  156.0793  130.3675  150.0613 LP  0  0  0  0  0  0  0  0  0  0  0  0  # atno 17370 bound_to 10713
  156.8760  130.9540  151.3604 LP  0  0  0  0  0  0  0  0  0  0  0  0  # atno 17371 bound_to 10713
  139.9882  134.7028  155.9737 LP  0  0  0  0  0  0  0  0  0  0  0  0  # atno 17394 bound_to 11000
  141.1574  133.6541  156.4206 LP  0  0  0  0  0  0  0  0  0  0  0  0  # atno 17395 bound_to 11000

$$$$
