AV-unprocessed.smi:3029|AV-procd|sdf|11532|dock4
  -GOLD-   2272016473D 1   1.00000     0.00000
 Structure written by MMmdl.
 41 42  0  0  0  0  0  0  0  0  3 V2000
  154.2336  137.5316  161.1895 O   0  0  0  0  0  0  0  0  0  0  0  0
  154.6126  137.9376  162.2883 C   0  0  0  0  0  0  0  0  0  0  0  0
  154.5510  137.0962  163.4879 C   0  0  0  0  0  0  0  0  0  0  0  0
  154.9590  137.5458  164.6907 C   0  0  0  0  0  0  0  0  0  0  0  0
  155.4775  138.8922  164.8350 C   0  0  0  0  0  0  0  0  0  0  0  0
  155.9119  139.3884  166.1222 N   0  3  0  0  0  0  0  0  0  0  0  0
  156.0901  138.5912  167.0383 O   0  0  0  0  0  0  0  0  0  0  0  0
  156.0891  140.5945  166.2586 O   0  5  0  0  0  0  0  0  0  0  0  0
  155.5356  139.6622  163.7309 C   0  0  0  0  0  0  0  0  0  0  0  0
  155.1110  139.1984  162.4708 N   0  0  0  0  0  0  0  0  0  0  0  0
  155.2087  140.1503  161.3531 C   0  0  0  0  0  0  0  0  0  0  0  0
  153.9235  140.9823  161.1905 C   0  0  0  0  0  0  0  0  0  0  0  0
  153.5493  141.0670  159.7861 N   0  0  0  0  0  0  0  0  0  0  0  0
  152.4908  142.0392  159.5419 C   0  0  1  0  0  0  0  0  0  0  0  0
  152.9769  143.4146  160.0555 C   0  0  0  0  0  0  0  0  0  0  0  0
  151.9861  144.5369  159.7253 C   0  0  0  0  0  0  0  0  0  0  0  0
  151.7188  144.5927  158.2184 C   0  0  0  0  0  0  0  0  0  0  0  0
  151.1936  143.2434  157.7117 C   0  0  0  0  0  0  0  0  0  0  0  0
  152.1580  142.0735  158.0215 C   0  0  2  0  0  0  0  0  0  0  0  0
  151.5590  140.7429  157.4937 C   0  0  0  0  0  0  0  0  0  0  0  0
  151.4551  140.7698  156.1645 F   0  0  0  0  0  0  0  0  0  0  0  0
  152.3468  139.7238  157.8379 F   0  0  0  0  0  0  0  0  0  0  0  0
  150.3541  140.5038  158.0109 F   0  0  0  0  0  0  0  0  0  0  0  0
  154.1667  136.0903  163.4030 H   0  0  0  0  0  0  0  0  0  0  0  0
  154.8934  136.8887  165.5456 H   0  0  0  0  0  0  0  0  0  0  0  0
  155.8998  140.6796  163.7306 H   0  0  0  0  0  0  0  0  0  0  0  0
  156.0434  140.8257  161.5465 H   0  0  0  0  0  0  0  0  0  0  0  0
  155.4638  139.6597  160.4122 H   0  0  0  0  0  0  0  0  0  0  0  0
  153.1120  140.5399  161.7699 H   0  0  0  0  0  0  0  0  0  0  0  0
  154.0899  141.9849  161.5836 H   0  0  0  0  0  0  0  0  0  0  0  0
  154.3545  141.2618  159.2078 H   0  0  0  0  0  0  0  0  0  0  0  0
  151.5888  141.7467  160.0815 H   0  0  0  0  0  0  0  0  0  0  0  0
  153.1322  143.3890  161.1340 H   0  0  0  0  0  0  0  0  0  0  0  0
  153.9445  143.6549  159.6120 H   0  0  0  0  0  0  0  0  0  0  0  0
  151.0507  144.3730  160.2617 H   0  0  0  0  0  0  0  0  0  0  0  0
  152.3790  145.4938  160.0700 H   0  0  0  0  0  0  0  0  0  0  0  0
  150.9963  145.3793  157.9982 H   0  0  0  0  0  0  0  0  0  0  0  0
  152.6352  144.8551  157.6884 H   0  0  0  0  0  0  0  0  0  0  0  0
  150.2206  143.0466  158.1634 H   0  0  0  0  0  0  0  0  0  0  0  0
  151.0220  143.3138  156.6375 H   0  0  0  0  0  0  0  0  0  0  0  0
  153.0834  142.2628  157.4744 H   0  0  0  0  0  0  0  0  0  0  0  0
  1  2  2  0  0  0  0
  2 10  1  0  0  0  0
  2  3  1  0  0  0  0
  3  4  2  0  0  0  0
  3 24  1  0  0  0  0
  4  5  1  0  0  0  0
  4 25  1  0  0  0  0
  5  6  1  0  0  0  0
  5  9  2  0  0  0  0
  6  7  2  0  0  0  0
  6  8  1  0  0  0  0
  9 10  1  0  0  0  0
  9 26  1  0  0  0  0
 10 11  1  0  0  0  0
 11 12  1  0  0  0  0
 11 27  1  0  0  0  0
 11 28  1  0  0  0  0
 12 13  1  0  0  0  0
 12 29  1  0  0  0  0
 12 30  1  0  0  0  0
 13 14  1  0  0  0  0
 13 31  1  0  0  0  0
 14 19  1  0  0  0  0
 14 15  1  0  0  0  0
 14 32  1  0  0  0  0
 15 16  1  0  0  0  0
 15 33  1  0  0  0  0
 15 34  1  0  0  0  0
 16 17  1  0  0  0  0
 16 35  1  0  0  0  0
 16 36  1  0  0  0  0
 17 18  1  0  0  0  0
 17 37  1  0  0  0  0
 17 38  1  0  0  0  0
 18 19  1  0  0  0  0
 18 39  1  0  0  0  0
 18 40  1  0  0  0  0
 19 20  1  0  0  0  0
 19 41  1  0  0  0  0
 20 21  1  0  0  0  0
 20 22  1  0  0  0  0
 20 23  1  0  0  0  0
M  CHG  1   6   1
M  CHG  1   8  -1
M  END
> <s_m_source_file>
AV-unprocessed.smi

> <i_m_source_file_index>
3029

> <i_lp_mmshare_version>
43012

> <i_f3d_flags>
0

> <s_epik_input>
Tz1jMVtjSF1bY0hdYyhbTitdKD1PKVtPLV0pW2NIXW4xW0NIMl1bQ0gyXVtOSF1bQ0BASF0yW0NIMl1bQ0gyXVtDSDJdW0NIMl1bQ0BIXTJDKEYpKEYpRg==

> <s_epik_cmdline>
J2VwaWtfcHl0aG9uJywgJy1waCcsICc3LjAnLCAnLXRuJywgJzgnLCAnLW1hJywgJzIwMCcsICctbWV0YWxfYmluZGluZycsICctaW1hZScsICc8aW5maWxlLm1hZT4nLCAnLW9tYWUnLCAnPG91dGZpbGUubWFlPic=

> <r_lp_tautomer_probability>
1

> <r_epik_Ionization_Penalty>
1.65565

> <r_epik_Ionization_Penalty_Charging>
3.32684e-10

> <r_epik_Ionization_Penalty_Neutral>
1.65565

> <r_epik_State_Penalty>
1.75811

> <r_epik_Charging_Adjusted_Penalty>
1.75811

> <i_epik_Tot_Q>
0

> <i_epik_Tot_abs_Q>
2

> <r_epik_Metal_State_Penalty>
1.75811

> <b_epik_Metal_Only>
0

> <s_lp_Force_Field>
OPLS_2005

> <r_lp_Energy>
36.7279

> <b_lp_Chiralities_Consistent>
1

> <s_lp_Variant>
AV-unprocessed.smi:3029-8

> <Gold.Version>
5.8.1

> <Gold.Id.Protein>
6NUR|6NUR_protein|mol2

> <Gold.PLP.Fitness>
47.6746

> <Gold.PLP.PLP>
-49.3352

> <Gold.PLP.part.hbond>
-1.0000

> <Gold.PLP.part.metal>
0.0000

> <Gold.PLP.part.buried>
-6.8329

> <Gold.PLP.part.nonpolar>
-40.9089

> <Gold.PLP.part.repulsive>
0.0906

> <Gold.PLP.ligand.clash>
0.0000

> <Gold.PLP.ligand.torsion>
0.8625

> <Gold.PLP.Chemscore.Hbond>
0.0000

> <Gold.PLP.Chemscore.CHOScore>
0.0000

> <Gold.PLP.Chemscore.Metal>
0.0000

> <Gold.PLP.Chemscore.Internal.Correction>
0.0643

> <Gold.Rescore>
     Score         DG    S(hbond)    S(metal)    S(lipo)     H(rot)  DE(clash)    DE(int)     intcor
     11.94     -14.75       0.00        0.00     119.86       1.86       0.26       2.54       ----

> <Gold.Chemscore.Fitness>
11.9388

> <Gold.Chemscore.DG>
-14.7466

> <Gold.Chemscore.ZeroCoef>
-5.4800

> <Gold.Chemscore.Hbond>
0.0000

> <Gold.Chemscore.Metal>
0.0000

> <Gold.Chemscore.Lipo>
119.8643

> <Gold.Chemscore.Internal_Hbond>
0.0000

> <Gold.Chemscore.DEClash>
0.2629

> <Gold.Chemscore.DEInternal>
2.5448

> <Gold.Chemscore.Rot>
1.8584

> <Gold.Chemscore.Internal.Correction>
   9.000000E+99

> <Gold.Chemscore.Hbond.Weighted>
-0.0000

> <Gold.Chemscore.Metal.Weighted>
-0.0000

> <Gold.Chemscore.Lipo.Weighted>
-14.0241

> <Gold.Chemscore.Internal_Hbond.Weighted>
0.0000

> <Gold.Chemscore.DEClash.Weighted>
0.2629

> <Gold.Chemscore.DEInternal.Weighted>
2.5448

> <Gold.Chemscore.Rot.Weighted>
4.7576

> <Gold.Chemscore.Internal.Correction.Weighted>
   9.000000E+99

> <Gold.Protein.RotatedTorsions>
[ 6907 6896 6895 6894 ] final   -1.78 input  -60.11 | X-H torsion
[ 7974 7965 7964 7962 ] final   19.01 input  175.53 | X-H torsion
[ 8008 7997 7996 7995 ] final -129.24 input   59.86 | X-H torsion
[ 10167 10162 10161 10158 ] final -170.82 input  -65.29 | X-H torsion
[ 10718 10713 10712 10709 ] final  177.35 input   66.30 | X-H torsion
[ 10763 10752 10751 10750 ] final -160.27 input  -60.55 | X-H torsion
[ 11005 11000 10999 10996 ] final   -5.67 input  -57.11 | X-H torsion

> <Gold.Protein.ActiveResidues>
 VAL166  LYS551  ARG553  GLY616  TRP617  ASP618  TYR619  PRO620  LYS621  CYS622 
 ASP623  PHE694  ASN695  SER759  ASP760  ASP761  ALA762  ILE779  LEU786  VAL792 
 PHE793  MET794  SER795  GLU796  ALA797  LYS798  CYS799  TRP800  GLU811  SER814 

> <Gold.Protein.RotatedAtoms>
  151.5405  135.1068  159.9924 H   0  0  0  0  0  0  0  0  0  0  0  0  # atno 6907 bound_to 6896
  152.4537  133.7677  159.6792 H   0  0  0  0  0  0  0  0  0  0  0  0  # atno 6908 bound_to 6896
  150.8474  133.7774  159.3062 H   0  0  0  0  0  0  0  0  0  0  0  0  # atno 6909 bound_to 6896
  146.2164  139.8374  142.8648 H   0  0  0  0  0  0  0  0  0  0  0  0  # atno 7974 bound_to 7965
  155.2760  140.0442  157.3011 H   0  0  0  0  0  0  0  0  0  0  0  0  # atno 8008 bound_to 7997
  154.5625  140.2350  155.8282 H   0  0  0  0  0  0  0  0  0  0  0  0  # atno 8009 bound_to 7997
  156.2058  140.3013  155.9632 H   0  0  0  0  0  0  0  0  0  0  0  0  # atno 8010 bound_to 7997
  139.5839  144.1362  152.1550 H   0  0  0  0  0  0  0  0  0  0  0  0  # atno 10167 bound_to 10162
  156.9066  130.9896  151.3027 H   0  0  0  0  0  0  0  0  0  0  0  0  # atno 10718 bound_to 10713
  154.7405  135.3067  154.8737 H   0  0  0  0  0  0  0  0  0  0  0  0  # atno 10763 bound_to 10752
  153.9553  135.6759  153.4748 H   0  0  0  0  0  0  0  0  0  0  0  0  # atno 10764 bound_to 10752
  153.1004  135.4915  154.8781 H   0  0  0  0  0  0  0  0  0  0  0  0  # atno 10765 bound_to 10752
  140.6937  133.9049  155.8635 H   0  0  0  0  0  0  0  0  0  0  0  0  # atno 11005 bound_to 11000
  145.2934  141.0174  143.3650 LP  0  0  0  0  0  0  0  0  0  0  0  0  # atno 17320 bound_to 7965
  144.9060  139.4589  143.6610 LP  0  0  0  0  0  0  0  0  0  0  0  0  # atno 17321 bound_to 7965
  140.0921  144.5612  150.7047 LP  0  0  0  0  0  0  0  0  0  0  0  0  # atno 17342 bound_to 10162
  140.7114  143.2508  151.4571 LP  0  0  0  0  0  0  0  0  0  0  0  0  # atno 17343 bound_to 10162
  157.5993  130.8501  149.8777 LP  0  0  0  0  0  0  0  0  0  0  0  0  # atno 17370 bound_to 10713
  156.0556  130.3709  150.1099 LP  0  0  0  0  0  0  0  0  0  0  0  0  # atno 17371 bound_to 10713
  141.0221  134.0875  157.4109 LP  0  0  0  0  0  0  0  0  0  0  0  0  # atno 17394 bound_to 11000
  139.8916  135.0119  156.6801 LP  0  0  0  0  0  0  0  0  0  0  0  0  # atno 17395 bound_to 11000

$$$$
