AV-unprocessed.smi:3175|AV-procd|sdf|12122|dock8
  -GOLD-   2272017563D 1   1.00000     0.00000
 Structure written by MMmdl.
 37 38  0  0  0  0  0  0  0  0  1 V2000
  150.6271  140.0249  155.1877 O   0  0  0  0  0  0  0  0  0  0  0  0
  149.8691  140.9949  155.1797 C   0  0  0  0  0  0  0  0  0  0  0  0
  148.7312  141.0794  154.1574 C   0  0  0  0  0  0  0  0  0  0  0  0
  147.6262  142.0803  154.5539 C   0  0  0  0  0  0  0  0  0  0  0  0
  146.6970  141.5581  155.6522 C   0  0  0  0  0  0  0  0  0  0  0  0
  145.4411  142.4319  155.5607 C   0  0  0  0  0  0  0  0  0  0  0  0
  145.4126  142.9982  154.1325 C   0  0  0  0  0  0  0  0  0  0  0  0
  146.6545  142.4446  153.4256 C   0  0  0  0  0  0  0  0  0  0  0  0
  149.9852  142.0257  156.0303 N   0  0  0  0  0  0  0  0  0  0  0  0
  151.0158  142.1525  157.0560 C   0  0  0  0  0  0  0  0  0  0  0  0
  151.1776  143.6013  157.5539 C   0  0  0  0  0  0  0  0  0  0  0  0
  151.6088  143.6928  159.0075 C   0  0  0  0  0  0  0  0  0  0  0  0
  152.1250  142.5659  159.6797 C   0  0  0  0  0  0  0  0  0  0  0  0
  152.5034  142.6959  161.0298 C   0  0  0  0  0  0  0  0  0  0  0  0
  152.3494  143.9512  161.6514 C   0  0  0  0  0  0  0  0  0  0  0  0
  151.8571  145.0373  161.0178 N   0  0  0  0  0  0  0  0  0  0  0  0
  151.4978  144.9047  159.7228 C   0  0  0  0  0  0  0  0  0  0  0  0
  149.1346  141.3413  153.1778 H   0  0  0  0  0  0  0  0  0  0  0  0
  148.3012  140.0824  154.0551 H   0  0  0  0  0  0  0  0  0  0  0  0
  148.0859  143.0006  154.9195 H   0  0  0  0  0  0  0  0  0  0  0  0
  146.4300  140.5196  155.4509 H   0  0  0  0  0  0  0  0  0  0  0  0
  147.1575  141.5938  156.6400 H   0  0  0  0  0  0  0  0  0  0  0  0
  144.5420  141.8597  155.7913 H   0  0  0  0  0  0  0  0  0  0  0  0
  145.4994  143.2502  156.2795 H   0  0  0  0  0  0  0  0  0  0  0  0
  144.4993  142.7248  153.6030 H   0  0  0  0  0  0  0  0  0  0  0  0
  145.4552  144.0875  154.1675 H   0  0  0  0  0  0  0  0  0  0  0  0
  147.0795  143.1576  152.7183 H   0  0  0  0  0  0  0  0  0  0  0  0
  146.3831  141.5478  152.8665 H   0  0  0  0  0  0  0  0  0  0  0  0
  149.3237  142.7845  155.9510 H   0  0  0  0  0  0  0  0  0  0  0  0
  150.7314  141.5100  157.8897 H   0  0  0  0  0  0  0  0  0  0  0  0
  151.9682  141.7701  156.6854 H   0  0  0  0  0  0  0  0  0  0  0  0
  151.9097  144.1220  156.9356 H   0  0  0  0  0  0  0  0  0  0  0  0
  150.2388  144.1424  157.4275 H   0  0  0  0  0  0  0  0  0  0  0  0
  152.2270  141.6180  159.1719 H   0  0  0  0  0  0  0  0  0  0  0  0
  152.9018  141.8539  161.5764 H   0  0  0  0  0  0  0  0  0  0  0  0
  152.6290  144.0863  162.6857 H   0  0  0  0  0  0  0  0  0  0  0  0
  151.1034  145.7903  159.2465 H   0  0  0  0  0  0  0  0  0  0  0  0
  1  2  2  0  0  0  0
  2  3  1  0  0  0  0
  2  9  1  0  0  0  0
  3  4  1  0  0  0  0
  3 18  1  0  0  0  0
  3 19  1  0  0  0  0
  4  8  1  0  0  0  0
  4  5  1  0  0  0  0
  4 20  1  0  0  0  0
  5  6  1  0  0  0  0
  5 21  1  0  0  0  0
  5 22  1  0  0  0  0
  6  7  1  0  0  0  0
  6 23  1  0  0  0  0
  6 24  1  0  0  0  0
  7  8  1  0  0  0  0
  7 25  1  0  0  0  0
  7 26  1  0  0  0  0
  8 27  1  0  0  0  0
  8 28  1  0  0  0  0
  9 10  1  0  0  0  0
  9 29  1  0  0  0  0
 10 11  1  0  0  0  0
 10 30  1  0  0  0  0
 10 31  1  0  0  0  0
 11 12  1  0  0  0  0
 11 32  1  0  0  0  0
 11 33  1  0  0  0  0
 12 17  1  0  0  0  0
 12 13  2  0  0  0  0
 13 14  1  0  0  0  0
 13 34  1  0  0  0  0
 14 15  2  0  0  0  0
 14 35  1  0  0  0  0
 15 16  1  0  0  0  0
 15 36  1  0  0  0  0
 16 17  2  0  0  0  0
 17 37  1  0  0  0  0
M  END
> <s_m_source_file>
AV-unprocessed.smi

> <i_m_source_file_index>
3175

> <i_lp_mmshare_version>
43012

> <i_f3d_flags>
0

> <s_epik_input>
W0NIMl0xW0NIMl1bQ0gyXVtDSDJdW0NIXTFbQ0gyXUMoPU8pW05IXVtDSDJdW0NIMl1jMltjSF1bY0hdW2NIXW5bY0hdMg==

> <s_epik_cmdline>
J2VwaWtfcHl0aG9uJywgJy1waCcsICc3LjAnLCAnLXRuJywgJzgnLCAnLW1hJywgJzIwMCcsICctbWV0YWxfYmluZGluZycsICctaW1hZScsICc8aW5maWxlLm1hZT4nLCAnLW9tYWUnLCAnPG91dGZpbGUubWFlPic=

> <r_epik_Ionization_Penalty>
0.013409

> <r_epik_Ionization_Penalty_Charging>
0

> <r_epik_Ionization_Penalty_Neutral>
0.013409

> <r_epik_State_Penalty>
0.010434

> <r_epik_Charging_Adjusted_Penalty>
0.010434

> <i_epik_Tot_Q>
0

> <i_epik_Tot_abs_Q>
0

> <r_epik_Metal_State_Penalty>
0.0102027

> <b_epik_Metal_Only>
0

> <s_lp_Force_Field>
OPLS_2005

> <r_lp_Energy>
19.7305

> <b_lp_Chiralities_Consistent>
1

> <s_lp_Variant>
AV-unprocessed.smi:3175-1

> <Gold.Version>
5.8.1

> <Gold.Id.Protein>
6NUR|6NUR_protein|mol2

> <Gold.PLP.Fitness>
46.5996

> <Gold.PLP.PLP>
-42.5827

> <Gold.PLP.part.hbond>
-2.0000

> <Gold.PLP.part.metal>
0.0000

> <Gold.PLP.part.buried>
-3.2889

> <Gold.PLP.part.nonpolar>
-36.5723

> <Gold.PLP.part.repulsive>
0.3330

> <Gold.PLP.ligand.clash>
0.0000

> <Gold.PLP.ligand.torsion>
0.8915

> <Gold.PLP.Chemscore.Hbond>
1.9280

> <Gold.PLP.Chemscore.CHOScore>
0.0000

> <Gold.PLP.Chemscore.Metal>
0.0000

> <Gold.Chemscore.Hbonds>
donor molecule, donor type, donor heavy atom, donor atom, acceptor molecule, acceptor atom, score
      L1  H     9    29       P1  8028  1.00
      P1  H  7989  7998       L1     1  0.29

> <Gold.PLP.Chemscore.Internal.Correction>
0.0160

> <Gold.Rescore>
     Score         DG    S(hbond)    S(metal)    S(lipo)     H(rot)  DE(clash)    DE(int)     intcor
     17.59     -18.97       1.48        0.00     105.62       1.48       0.15       1.23       ----

> <Gold.Chemscore.Fitness>
17.5860

> <Gold.Chemscore.DG>
-18.9663

> <Gold.Chemscore.ZeroCoef>
-5.4800

> <Gold.Chemscore.Hbond>
1.4760

> <Gold.Chemscore.Metal>
0.0000

> <Gold.Chemscore.Lipo>
105.6204

> <Gold.Chemscore.Internal_Hbond>
0.0000

> <Gold.Chemscore.DEClash>
0.1477

> <Gold.Chemscore.DEInternal>
1.2326

> <Gold.Chemscore.Rot>
1.4848

> <Gold.Chemscore.Internal.Correction>
   9.000000E+99

> <Gold.Chemscore.Hbonds>
donor molecule, donor type, donor heavy atom, donor atom, acceptor molecule, acceptor atom, score
      L1  H     9    29       P1  8028  0.92
      P1  H  7989  7998       L1     1  0.01

> <Gold.Chemscore.Hbond.Weighted>
-4.9299

> <Gold.Chemscore.Metal.Weighted>
-0.0000

> <Gold.Chemscore.Lipo.Weighted>
-12.3576

> <Gold.Chemscore.Internal_Hbond.Weighted>
0.0000

> <Gold.Chemscore.DEClash.Weighted>
0.1477

> <Gold.Chemscore.DEInternal.Weighted>
1.2326

> <Gold.Chemscore.Rot.Weighted>
3.8012

> <Gold.Chemscore.Internal.Correction.Weighted>
   9.000000E+99

> <Gold.Protein.RotatedTorsions>
[ 6907 6896 6895 6894 ] final  -52.64 input  -60.11 | X-H torsion
[ 7974 7965 7964 7962 ] final   -7.56 input  175.53 | X-H torsion
[ 8008 7997 7996 7995 ] final -175.08 input   59.86 | X-H torsion
[ 10167 10162 10161 10158 ] final  -25.27 input  -65.29 | X-H torsion
[ 10718 10713 10712 10709 ] final -139.28 input   66.30 | X-H torsion
[ 10763 10752 10751 10750 ] final  -18.66 input  -60.55 | X-H torsion
[ 11005 11000 10999 10996 ] final   80.31 input  -57.11 | X-H torsion

> <Gold.Protein.ActiveResidues>
 VAL166  LYS551  ARG553  GLY616  TRP617  ASP618  TYR619  PRO620  LYS621  CYS622 
 ASP623  PHE694  ASN695  SER759  ASP760  ASP761  ALA762  ILE779  LEU786  VAL792 
 PHE793  MET794  SER795  GLU796  ALA797  LYS798  CYS799  TRP800  GLU811  SER814 

> <Gold.Protein.RotatedAtoms>
  150.8499  134.7821  159.7000 H   0  0  0  0  0  0  0  0  0  0  0  0  # atno 6907 bound_to 6896
  152.4567  134.5273  159.9810 H   0  0  0  0  0  0  0  0  0  0  0  0  # atno 6908 bound_to 6896
  151.5396  133.3397  159.2969 H   0  0  0  0  0  0  0  0  0  0  0  0  # atno 6909 bound_to 6896
  146.2303  140.2338  142.8341 H   0  0  0  0  0  0  0  0  0  0  0  0  # atno 7974 bound_to 7965
  155.9781  140.1176  157.0752 H   0  0  0  0  0  0  0  0  0  0  0  0  # atno 8008 bound_to 7997
  154.4175  140.1150  156.5465 H   0  0  0  0  0  0  0  0  0  0  0  0  # atno 8009 bound_to 7997
  155.6508  140.3473  155.4749 H   0  0  0  0  0  0  0  0  0  0  0  0  # atno 8010 bound_to 7997
  140.7287  143.4279  151.0847 H   0  0  0  0  0  0  0  0  0  0  0  0  # atno 10167 bound_to 10162
  156.3089  130.7471  151.1542 H   0  0  0  0  0  0  0  0  0  0  0  0  # atno 10718 bound_to 10713
  153.5928  135.7002  153.5416 H   0  0  0  0  0  0  0  0  0  0  0  0  # atno 10763 bound_to 10752
  153.3164  135.4086  155.1379 H   0  0  0  0  0  0  0  0  0  0  0  0  # atno 10764 bound_to 10752
  154.8597  135.3684  154.5460 H   0  0  0  0  0  0  0  0  0  0  0  0  # atno 10765 bound_to 10752
  139.9139  134.7910  156.1892 H   0  0  0  0  0  0  0  0  0  0  0  0  # atno 11005 bound_to 11000
  144.9537  140.8205  143.5556 LP  0  0  0  0  0  0  0  0  0  0  0  0  # atno 17320 bound_to 7965
  145.2301  139.2119  143.5047 LP  0  0  0  0  0  0  0  0  0  0  0  0  # atno 17321 bound_to 7965
  139.7933  143.8187  152.3154 LP  0  0  0  0  0  0  0  0  0  0  0  0  # atno 17342 bound_to 10162
  139.8179  144.7308  150.9611 LP  0  0  0  0  0  0  0  0  0  0  0  0  # atno 17343 bound_to 10162
  157.7386  131.0538  150.5283 LP  0  0  0  0  0  0  0  0  0  0  0  0  # atno 17370 bound_to 10713
  156.5420  130.4210  149.6149 LP  0  0  0  0  0  0  0  0  0  0  0  0  # atno 17371 bound_to 10713
  141.0594  133.6849  156.1923 LP  0  0  0  0  0  0  0  0  0  0  0  0  # atno 17394 bound_to 11000
  140.6685  134.4893  157.5586 LP  0  0  0  0  0  0  0  0  0  0  0  0  # atno 17395 bound_to 11000

$$$$
