AV-unprocessed.smi:3239|AV-procd|sdf|12379|dock6
  -GOLD-   2272018243D 1   1.00000     0.00000
 Structure written by MMmdl.
 35 35  0  0  0  0  0  0  0  0  1 V2000
  152.2034  145.0171  158.9921 C   0  0  0  0  0  0  0  0  0  0  0  0
  152.3036  143.8007  159.0285 C   0  0  0  0  0  0  0  0  0  0  0  0
  152.4194  142.3323  159.0524 C   0  0  0  0  0  0  0  0  0  0  0  0
  151.7309  141.6934  157.9364 N   0  0  0  0  0  0  0  0  0  0  0  0
  152.1018  140.5406  157.3536 C   0  0  0  0  0  0  0  0  0  0  0  0
  153.0708  139.8747  157.7189 O   0  0  0  0  0  0  0  0  0  0  0  0
  151.2097  140.0552  156.2482 C   0  0  0  0  0  0  0  0  0  0  0  0
  151.5415  138.9269  155.4650 C   0  0  0  0  0  0  0  0  0  0  0  0
  150.6496  138.5053  154.4597 C   0  0  0  0  0  0  0  0  0  0  0  0
  149.4483  139.2193  154.2706 C   0  0  0  0  0  0  0  0  0  0  0  0
  148.5685  138.7945  153.2636 N   0  0  0  0  0  0  0  0  0  0  0  0
  147.2745  139.4325  153.0413 C   0  0  2  0  0  0  0  0  0  0  0  0
  146.5201  139.6242  154.3690 C   0  0  0  0  0  0  0  0  0  0  0  0
  146.4497  138.6071  152.0416 C   0  0  0  0  0  0  0  0  0  0  0  0
  146.1275  137.3515  152.6170 O   0  0  0  0  0  0  0  0  0  0  0  0
  145.5371  136.4615  151.6861 C   0  0  0  0  0  0  0  0  0  0  0  0
  149.1216  140.2962  155.0227 N   0  0  0  0  0  0  0  0  0  0  0  0
  149.9781  140.6945  155.9873 C   0  0  0  0  0  0  0  0  0  0  0  0
  152.1143  146.0796  158.9549 H   0  0  0  0  0  0  0  0  0  0  0  0
  153.4784  142.0780  159.0061 H   0  0  0  0  0  0  0  0  0  0  0  0
  152.0430  141.9673  160.0092 H   0  0  0  0  0  0  0  0  0  0  0  0
  150.9054  142.1576  157.5864 H   0  0  0  0  0  0  0  0  0  0  0  0
  152.4607  138.3823  155.6265 H   0  0  0  0  0  0  0  0  0  0  0  0
  150.8862  137.6462  153.8489 H   0  0  0  0  0  0  0  0  0  0  0  0
  148.7988  137.9761  152.7188 H   0  0  0  0  0  0  0  0  0  0  0  0
  147.4467  140.4100  152.5892 H   0  0  0  0  0  0  0  0  0  0  0  0
  145.5628  140.1209  154.2098 H   0  0  0  0  0  0  0  0  0  0  0  0
  147.0887  140.2375  155.0683 H   0  0  0  0  0  0  0  0  0  0  0  0
  146.3214  138.6677  154.8536 H   0  0  0  0  0  0  0  0  0  0  0  0
  145.5261  139.1349  151.7972 H   0  0  0  0  0  0  0  0  0  0  0  0
  147.0030  138.4694  151.1107 H   0  0  0  0  0  0  0  0  0  0  0  0
  145.3083  135.5163  152.1785 H   0  0  0  0  0  0  0  0  0  0  0  0
  146.2132  136.2532  150.8558 H   0  0  0  0  0  0  0  0  0  0  0  0
  144.6064  136.8670  151.2872 H   0  0  0  0  0  0  0  0  0  0  0  0
  149.6661  141.5546  156.5619 H   0  0  0  0  0  0  0  0  0  0  0  0
  1  2  3  0  0  0  0
  1 19  1  0  0  0  0
  2  3  1  0  0  0  0
  3  4  1  0  0  0  0
  3 20  1  0  0  0  0
  3 21  1  0  0  0  0
  4  5  1  0  0  0  0
  4 22  1  0  0  0  0
  5  6  2  0  0  0  0
  5  7  1  0  0  0  0
  7 18  1  0  0  0  0
  7  8  2  0  0  0  0
  8  9  1  0  0  0  0
  8 23  1  0  0  0  0
  9 10  2  0  0  0  0
  9 24  1  0  0  0  0
 10 11  1  0  0  0  0
 10 17  1  0  0  0  0
 11 12  1  0  0  0  0
 11 25  1  0  0  0  0
 12 13  1  0  0  0  0
 12 14  1  0  0  0  0
 12 26  1  0  0  0  0
 13 27  1  0  0  0  0
 13 28  1  0  0  0  0
 13 29  1  0  0  0  0
 14 15  1  0  0  0  0
 14 30  1  0  0  0  0
 14 31  1  0  0  0  0
 15 16  1  0  0  0  0
 16 32  1  0  0  0  0
 16 33  1  0  0  0  0
 16 34  1  0  0  0  0
 17 18  2  0  0  0  0
 18 35  1  0  0  0  0
M  END
> <s_m_source_file>
AV-unprocessed.smi

> <i_m_source_file_index>
3239

> <i_lp_mmshare_version>
43012

> <i_f3d_flags>
0

> <s_epik_input>
W0NIXSNDW0NIMl1bTkhdQyg9TyljMVtjSF1bY0hdYyhuW2NIXTEpW05IXVtDQEhdKFtDSDNdKVtDSDJdT1tDSDNd

> <s_epik_cmdline>
J2VwaWtfcHl0aG9uJywgJy1waCcsICc3LjAnLCAnLXRuJywgJzgnLCAnLW1hJywgJzIwMCcsICctbWV0YWxfYmluZGluZycsICctaW1hZScsICc8aW5maWxlLm1hZT4nLCAnLW9tYWUnLCAnPG91dGZpbGUubWFlPic=

> <r_lp_tautomer_probability>
1

> <r_epik_Ionization_Penalty>
0.00321854

> <r_epik_Ionization_Penalty_Charging>
0

> <r_epik_Ionization_Penalty_Neutral>
0.00321854

> <r_epik_State_Penalty>
0.00226446

> <r_epik_Charging_Adjusted_Penalty>
0.00226446

> <i_epik_Tot_Q>
0

> <i_epik_Tot_abs_Q>
0

> <r_epik_Metal_State_Penalty>
-0

> <b_epik_Metal_Only>
0

> <s_lp_Force_Field>
OPLS_2005

> <r_lp_Energy>
6.08626

> <b_lp_Chiralities_Consistent>
1

> <s_lp_Variant>
AV-unprocessed.smi:3239-1

> <Gold.Version>
5.8.1

> <Gold.Id.Protein>
6NUR|6NUR_protein|mol2

> <Gold.PLP.Fitness>
42.8377

> <Gold.PLP.PLP>
-37.5208

> <Gold.PLP.part.hbond>
-3.0000

> <Gold.PLP.part.metal>
0.0000

> <Gold.PLP.part.buried>
-1.9720

> <Gold.PLP.part.nonpolar>
-33.5004

> <Gold.PLP.part.repulsive>
0.8926

> <Gold.PLP.ligand.clash>
0.0000

> <Gold.PLP.ligand.torsion>
0.3692

> <Gold.PLP.Chemscore.Hbond>
2.0000

> <Gold.PLP.Chemscore.CHOScore>
0.0000

> <Gold.PLP.Chemscore.Metal>
0.0000

> <Gold.Chemscore.Hbonds>
donor molecule, donor type, donor heavy atom, donor atom, acceptor molecule, acceptor atom, score
      L1  H    11    25       P1  7948  1.00
      P1  H  7997  8009       L1     6  1.00

> <Gold.PLP.Chemscore.Internal.Correction>
0.0553

> <Gold.Rescore>
     Score         DG    S(hbond)    S(metal)    S(lipo)     H(rot)  DE(clash)    DE(int)     intcor
     16.63     -18.29       1.95        0.00      89.38       1.62       0.02       1.64       ----

> <Gold.Chemscore.Fitness>
16.6330

> <Gold.Chemscore.DG>
-18.2906

> <Gold.Chemscore.ZeroCoef>
-5.4800

> <Gold.Chemscore.Hbond>
1.9455

> <Gold.Chemscore.Metal>
0.0000

> <Gold.Chemscore.Lipo>
89.3775

> <Gold.Chemscore.Internal_Hbond>
0.0000

> <Gold.Chemscore.DEClash>
0.0178

> <Gold.Chemscore.DEInternal>
1.6397

> <Gold.Chemscore.Rot>
1.6190

> <Gold.Chemscore.Internal.Correction>
   9.000000E+99

> <Gold.Chemscore.Hbonds>
donor molecule, donor type, donor heavy atom, donor atom, acceptor molecule, acceptor atom, score
      L1  H    11    25       P1  7948  1.00
      P1  H  7997  8009       L1     6  0.97

> <Gold.Chemscore.Hbond.Weighted>
-6.4981

> <Gold.Chemscore.Metal.Weighted>
-0.0000

> <Gold.Chemscore.Lipo.Weighted>
-10.4572

> <Gold.Chemscore.Internal_Hbond.Weighted>
0.0000

> <Gold.Chemscore.DEClash.Weighted>
0.0178

> <Gold.Chemscore.DEInternal.Weighted>
1.6397

> <Gold.Chemscore.Rot.Weighted>
4.1447

> <Gold.Chemscore.Internal.Correction.Weighted>
   9.000000E+99

> <Gold.Protein.RotatedTorsions>
[ 6907 6896 6895 6894 ] final  -37.14 input  -60.11 | X-H torsion
[ 7974 7965 7964 7962 ] final -134.44 input  175.53 | X-H torsion
[ 8008 7997 7996 7995 ] final  154.78 input   59.86 | X-H torsion
[ 10167 10162 10161 10158 ] final  -48.43 input  -65.29 | X-H torsion
[ 10718 10713 10712 10709 ] final  -11.63 input   66.30 | X-H torsion
[ 10763 10752 10751 10750 ] final   37.43 input  -60.55 | X-H torsion
[ 11005 11000 10999 10996 ] final   -1.21 input  -57.11 | X-H torsion

> <Gold.Protein.ActiveResidues>
 VAL166  LYS551  ARG553  GLY616  TRP617  ASP618  TYR619  PRO620  LYS621  CYS622 
 ASP623  PHE694  ASN695  SER759  ASP760  ASP761  ALA762  ILE779  LEU786  VAL792 
 PHE793  MET794  SER795  GLU796  ALA797  LYS798  CYS799  TRP800  GLU811  SER814 

> <Gold.Protein.RotatedAtoms>
  151.0184  134.9451  159.8045 H   0  0  0  0  0  0  0  0  0  0  0  0  # atno 6907 bound_to 6896
  152.5319  134.2935  159.9062 H   0  0  0  0  0  0  0  0  0  0  0  0  # atno 6908 bound_to 6896
  151.2942  133.4109  159.2669 H   0  0  0  0  0  0  0  0  0  0  0  0  # atno 6909 bound_to 6896
  144.9103  140.6886  143.5029 H   0  0  0  0  0  0  0  0  0  0  0  0  # atno 7974 bound_to 7965
  156.2513  140.1957  156.6699 H   0  0  0  0  0  0  0  0  0  0  0  0  # atno 8008 bound_to 7997
  154.6401  140.0585  156.9860 H   0  0  0  0  0  0  0  0  0  0  0  0  # atno 8009 bound_to 7997
  155.1577  140.3257  155.4420 H   0  0  0  0  0  0  0  0  0  0  0  0  # atno 8010 bound_to 7997
  140.6731  143.2740  151.4069 H   0  0  0  0  0  0  0  0  0  0  0  0  # atno 10167 bound_to 10162
  156.6563  130.4969  149.6045 H   0  0  0  0  0  0  0  0  0  0  0  0  # atno 10718 bound_to 10713
  153.0038  135.6278  154.2143 H   0  0  0  0  0  0  0  0  0  0  0  0  # atno 10763 bound_to 10752
  154.1886  135.2810  155.3031 H   0  0  0  0  0  0  0  0  0  0  0  0  # atno 10764 bound_to 10752
  154.5777  135.5657  153.7215 H   0  0  0  0  0  0  0  0  0  0  0  0  # atno 10765 bound_to 10752
  140.6448  133.9457  155.8346 H   0  0  0  0  0  0  0  0  0  0  0  0  # atno 11005 bound_to 11000
  145.3466  139.1717  143.4457 LP  0  0  0  0  0  0  0  0  0  0  0  0  # atno 17320 bound_to 7965
  146.3155  140.3513  142.8656 LP  0  0  0  0  0  0  0  0  0  0  0  0  # atno 17321 bound_to 7965
  139.6009  144.1297  152.2197 LP  0  0  0  0  0  0  0  0  0  0  0  0  # atno 17342 bound_to 10162
  140.0681  144.5802  150.7212 LP  0  0  0  0  0  0  0  0  0  0  0  0  # atno 17343 bound_to 10162
  156.2045  130.6640  151.1203 LP  0  0  0  0  0  0  0  0  0  0  0  0  # atno 17370 bound_to 10713
  157.7124  131.0727  150.6451 LP  0  0  0  0  0  0  0  0  0  0  0  0  # atno 17371 bound_to 10713
  141.0580  134.0388  157.3696 LP  0  0  0  0  0  0  0  0  0  0  0  0  # atno 17394 bound_to 11000
  139.9067  135.0181  156.7516 LP  0  0  0  0  0  0  0  0  0  0  0  0  # atno 17395 bound_to 11000

$$$$
