AV-unprocessed.smi:1395|AV-procd|sdf|5670|dock5
  -GOLD-   22720 5293D 1   1.00000     0.00000
 Structure written by MMmdl.
 43 44  0  0  0  0  0  0  0  0  2 V2000
  150.1687  145.0926  159.0885 C   0  0  0  0  0  0  0  0  0  0  0  0
  151.2141  144.0190  159.3444 C   0  0  0  0  0  0  0  0  0  0  0  0
  152.0994  144.1642  160.4338 C   0  0  0  0  0  0  0  0  0  0  0  0
  153.0663  143.1720  160.6694 C   0  0  0  0  0  0  0  0  0  0  0  0
  153.1069  142.0689  159.7997 C   0  0  0  0  0  0  0  0  0  0  0  0
  152.2645  141.9218  158.7570 N   0  0  0  0  0  0  0  0  0  0  0  0
  151.3255  142.8707  158.5150 C   0  0  0  0  0  0  0  0  0  0  0  0
  150.4028  142.7792  157.4343 N   0  0  0  0  0  0  0  0  0  0  0  0
  150.2373  141.7699  156.5607 C   0  0  0  0  0  0  0  0  0  0  0  0
  150.8962  140.7300  156.5381 O   0  0  0  0  0  0  0  0  0  0  0  0
  149.2459  142.0314  155.6958 N   0  0  0  0  0  0  0  0  0  0  0  0
  148.8114  141.1367  154.6267 C   0  0  2  0  0  0  0  0  0  0  0  0
  147.4111  141.5418  154.1384 C   0  0  0  0  0  0  0  0  0  0  0  0
  146.8887  140.5643  153.0714 C   0  0  0  0  0  0  0  0  0  0  0  0
  146.8814  139.1689  153.5801 N   0  3  1  0  0  0  0  0  0  0  0  0
  146.2494  138.2186  152.6290 C   0  0  0  0  0  0  0  0  0  0  0  0
  145.8227  136.9042  153.2914 C   0  0  0  0  0  0  0  0  0  0  0  0
  146.5228  135.8138  152.9718 N   0  0  0  0  0  0  0  0  0  0  0  0
  144.8688  136.8663  154.0668 O   0  0  0  0  0  0  0  0  0  0  0  0
  148.2368  138.7410  154.0178 C   0  0  0  0  0  0  0  0  0  0  0  0
  148.7849  139.6741  155.1089 C   0  0  0  0  0  0  0  0  0  0  0  0
  150.2312  145.8918  159.8278 H   0  0  0  0  0  0  0  0  0  0  0  0
  149.1654  144.6684  159.1380 H   0  0  0  0  0  0  0  0  0  0  0  0
  150.3106  145.5364  158.1026 H   0  0  0  0  0  0  0  0  0  0  0  0
  152.0409  145.0250  161.0836 H   0  0  0  0  0  0  0  0  0  0  0  0
  153.7582  143.2540  161.4946 H   0  0  0  0  0  0  0  0  0  0  0  0
  153.8339  141.2835  159.9444 H   0  0  0  0  0  0  0  0  0  0  0  0
  149.7915  143.5741  157.3221 H   0  0  0  0  0  0  0  0  0  0  0  0
  148.7575  142.9107  155.7834 H   0  0  0  0  0  0  0  0  0  0  0  0
  149.5046  141.2240  153.7874 H   0  0  0  0  0  0  0  0  0  0  0  0
  146.7156  141.5641  154.9791 H   0  0  0  0  0  0  0  0  0  0  0  0
  147.4350  142.5531  153.7304 H   0  0  0  0  0  0  0  0  0  0  0  0
  145.8781  140.8574  152.7844 H   0  0  0  0  0  0  0  0  0  0  0  0
  147.5040  140.6218  152.1719 H   0  0  0  0  0  0  0  0  0  0  0  0
  145.3455  138.6634  152.2105 H   0  0  0  0  0  0  0  0  0  0  0  0
  146.9206  138.0254  151.7904 H   0  0  0  0  0  0  0  0  0  0  0  0
  146.2899  134.9203  153.3811 H   0  0  0  0  0  0  0  0  0  0  0  0
  147.2918  135.8864  152.3206 H   0  0  0  0  0  0  0  0  0  0  0  0
  148.2045  137.7220  154.4039 H   0  0  0  0  0  0  0  0  0  0  0  0
  148.9118  138.7312  153.1605 H   0  0  0  0  0  0  0  0  0  0  0  0
  149.7867  139.3504  155.3942 H   0  0  0  0  0  0  0  0  0  0  0  0
  148.1663  139.5877  156.0036 H   0  0  0  0  0  0  0  0  0  0  0  0
  146.2944  139.1703  154.4027 H   0  0  0  0  0  0  0  0  0  0  0  0
  1  2  1  0  0  0  0
  1 22  1  0  0  0  0
  1 23  1  0  0  0  0
  1 24  1  0  0  0  0
  2  7  1  0  0  0  0
  2  3  2  0  0  0  0
  3  4  1  0  0  0  0
  3 25  1  0  0  0  0
  4  5  2  0  0  0  0
  4 26  1  0  0  0  0
  5  6  1  0  0  0  0
  5 27  1  0  0  0  0
  6  7  2  0  0  0  0
  7  8  1  0  0  0  0
  8  9  1  0  0  0  0
  8 28  1  0  0  0  0
  9 10  2  0  0  0  0
  9 11  1  0  0  0  0
 11 12  1  0  0  0  0
 11 29  1  0  0  0  0
 12 21  1  0  0  0  0
 12 13  1  0  0  0  0
 12 30  1  0  0  0  0
 13 14  1  0  0  0  0
 13 31  1  0  0  0  0
 13 32  1  0  0  0  0
 14 15  1  0  0  0  0
 14 33  1  0  0  0  0
 14 34  1  0  0  0  0
 15 16  1  0  0  0  0
 15 20  1  0  0  0  0
 15 43  1  0  0  0  0
 16 17  1  0  0  0  0
 16 35  1  0  0  0  0
 16 36  1  0  0  0  0
 17 18  1  0  0  0  0
 17 19  2  0  0  0  0
 18 37  1  0  0  0  0
 18 38  1  0  0  0  0
 20 21  1  0  0  0  0
 20 39  1  0  0  0  0
 20 40  1  0  0  0  0
 21 41  1  0  0  0  0
 21 42  1  0  0  0  0
M  CHG  1  15   1
M  END
> <s_m_source_file>
AV-unprocessed.smi

> <i_m_source_file_index>
1395

> <i_lp_mmshare_version>
43012

> <i_f3d_flags>
0

> <s_epik_input>
W0NIM11jMVtjSF1bY0hdW2NIXW5jMVtOSF1DKD1PKVtOSF1bQ0hdMltDSDJdW0NIMl1OKFtDSDJdW0NIMl0yKVtDSDJdQyg9TylbTkgyXQ==

> <s_epik_cmdline>
J2VwaWtfcHl0aG9uJywgJy1waCcsICc3LjAnLCAnLXRuJywgJzgnLCAnLW1hJywgJzIwMCcsICctbWV0YWxfYmluZGluZycsICctaW1hZScsICc8aW5maWxlLm1hZT4nLCAnLW9tYWUnLCAnPG91dGZpbGUubWFlPic=

> <r_epik_Ionization_Penalty>
0.83893

> <r_epik_Ionization_Penalty_Charging>
0.838844

> <r_epik_Ionization_Penalty_Neutral>
8.62421e-05

> <r_epik_State_Penalty>
0.8734

> <r_epik_Charging_Adjusted_Penalty>
1.71224

> <i_epik_Tot_Q>
1

> <i_epik_Tot_abs_Q>
1

> <r_epik_Metal_State_Penalty>
0.890705

> <b_epik_Metal_Only>
0

> <s_lp_Force_Field>
OPLS_2005

> <r_lp_Energy>
13.5717

> <b_lp_Chiralities_Consistent>
1

> <s_lp_Variant>
AV-unprocessed.smi:1395-2

> <Gold.Version>
5.8.1

> <Gold.Id.Protein>
6NUR|6NUR_protein|mol2

> <Gold.PLP.Fitness>
46.2167

> <Gold.PLP.PLP>
-38.9220

> <Gold.PLP.part.hbond>
-3.0000

> <Gold.PLP.part.metal>
0.0000

> <Gold.PLP.part.buried>
-2.9307

> <Gold.PLP.part.nonpolar>
-32.1946

> <Gold.PLP.part.repulsive>
0.3703

> <Gold.PLP.ligand.clash>
0.0000

> <Gold.PLP.ligand.torsion>
0.4769

> <Gold.PLP.Chemscore.Hbond>
2.7436

> <Gold.PLP.Chemscore.CHOScore>
0.0000

> <Gold.PLP.Chemscore.Metal>
0.0000

> <Gold.Chemscore.Hbonds>
donor molecule, donor type, donor heavy atom, donor atom, acceptor molecule, acceptor atom, score
      L1  H     8    28       P1  8028  0.45
      L1  H    11    29       P1  8028  0.93
      L1  H    18    38       P1  7948  1.00

> <Gold.PLP.Chemscore.Internal.Correction>
0.0177

> <Gold.Rescore>
     Score         DG    S(hbond)    S(metal)    S(lipo)     H(rot)  DE(clash)    DE(int)     intcor
     17.42     -21.17       2.75        0.00      98.42       1.96       0.52       3.24       ----

> <Gold.Chemscore.Fitness>
17.4166

> <Gold.Chemscore.DG>
-21.1689

> <Gold.Chemscore.ZeroCoef>
-5.4800

> <Gold.Chemscore.Hbond>
2.7537

> <Gold.Chemscore.Metal>
0.0000

> <Gold.Chemscore.Lipo>
98.4181

> <Gold.Chemscore.Internal_Hbond>
0.0000

> <Gold.Chemscore.DEClash>
0.5169

> <Gold.Chemscore.DEInternal>
3.2354

> <Gold.Chemscore.Rot>
1.9622

> <Gold.Chemscore.Internal.Correction>
   9.000000E+99

> <Gold.Chemscore.Hbonds>
donor molecule, donor type, donor heavy atom, donor atom, acceptor molecule, acceptor atom, score
      L1  H     8    28       P1  8028  0.40
      L1  H    11    29       P1  8028  0.90
      L1  H    18    38       P1  7948  0.99

> <Gold.Chemscore.Hbond.Weighted>
-9.1973

> <Gold.Chemscore.Metal.Weighted>
-0.0000

> <Gold.Chemscore.Lipo.Weighted>
-11.5149

> <Gold.Chemscore.Internal_Hbond.Weighted>
0.0000

> <Gold.Chemscore.DEClash.Weighted>
0.5169

> <Gold.Chemscore.DEInternal.Weighted>
3.2354

> <Gold.Chemscore.Rot.Weighted>
5.0232

> <Gold.Chemscore.Internal.Correction.Weighted>
   9.000000E+99

> <Gold.Protein.RotatedTorsions>
[ 6907 6896 6895 6894 ] final   -1.00 input  -60.11 | X-H torsion
[ 7974 7965 7964 7962 ] final   48.42 input  175.53 | X-H torsion
[ 8008 7997 7996 7995 ] final   -8.26 input   59.86 | X-H torsion
[ 10167 10162 10161 10158 ] final -160.57 input  -65.29 | X-H torsion
[ 10718 10713 10712 10709 ] final  122.16 input   66.30 | X-H torsion
[ 10763 10752 10751 10750 ] final  111.00 input  -60.55 | X-H torsion
[ 11005 11000 10999 10996 ] final   14.60 input  -57.11 | X-H torsion

> <Gold.Protein.ActiveResidues>
 VAL166  LYS551  ARG553  GLY616  TRP617  ASP618  TYR619  PRO620  LYS621  CYS622 
 ASP623  PHE694  ASN695  SER759  ASP760  ASP761  ALA762  ILE779  LEU786  VAL792 
 PHE793  MET794  SER795  GLU796  ALA797  LYS798  CYS799  TRP800  GLU811  SER814 

> <Gold.Protein.RotatedAtoms>
  151.5532  135.1067  159.9954 H   0  0  0  0  0  0  0  0  0  0  0  0  # atno 6907 bound_to 6896
  152.4482  133.7572  159.6737 H   0  0  0  0  0  0  0  0  0  0  0  0  # atno 6908 bound_to 6896
  150.8403  133.7880  159.3088 H   0  0  0  0  0  0  0  0  0  0  0  0  # atno 6909 bound_to 6896
  146.0206  139.4646  142.9900 H   0  0  0  0  0  0  0  0  0  0  0  0  # atno 7974 bound_to 7965
  154.5759  140.2386  155.8124 H   0  0  0  0  0  0  0  0  0  0  0  0  # atno 8008 bound_to 7997
  156.2142  140.3017  155.9759 H   0  0  0  0  0  0  0  0  0  0  0  0  # atno 8009 bound_to 7997
  155.2629  140.0415  157.2989 H   0  0  0  0  0  0  0  0  0  0  0  0  # atno 8010 bound_to 7997
  139.6529  144.0051  152.2174 H   0  0  0  0  0  0  0  0  0  0  0  0  # atno 10167 bound_to 10162
  157.5763  131.1079  150.8272 H   0  0  0  0  0  0  0  0  0  0  0  0  # atno 10718 bound_to 10713
  153.4570  135.3731  155.2317 H   0  0  0  0  0  0  0  0  0  0  0  0  # atno 10763 bound_to 10752
  154.8757  135.3899  154.3970 H   0  0  0  0  0  0  0  0  0  0  0  0  # atno 10764 bound_to 10752
  153.4537  135.7086  153.6157 H   0  0  0  0  0  0  0  0  0  0  0  0  # atno 10765 bound_to 10752
  140.4677  134.1062  155.7727 H   0  0  0  0  0  0  0  0  0  0  0  0  # atno 11005 bound_to 11000
  145.7199  141.0078  143.1408 LP  0  0  0  0  0  0  0  0  0  0  0  0  # atno 17320 bound_to 7965
  144.6988  139.8858  143.7450 LP  0  0  0  0  0  0  0  0  0  0  0  0  # atno 17321 bound_to 7965
  139.9770  144.6455  150.7936 LP  0  0  0  0  0  0  0  0  0  0  0  0  # atno 17342 bound_to 10162
  140.7546  143.3030  151.3032 LP  0  0  0  0  0  0  0  0  0  0  0  0  # atno 17343 bound_to 10162
  156.8730  130.5153  149.5295 LP  0  0  0  0  0  0  0  0  0  0  0  0  # atno 17370 bound_to 10713
  156.0808  130.5819  150.9559 LP  0  0  0  0  0  0  0  0  0  0  0  0  # atno 17371 bound_to 10713
  141.1591  133.8826  157.1896 LP  0  0  0  0  0  0  0  0  0  0  0  0  # atno 17394 bound_to 11000
  139.9905  135.0066  156.9963 LP  0  0  0  0  0  0  0  0  0  0  0  0  # atno 17395 bound_to 11000

$$$$
