AV-unprocessed.smi:1767|AV-procd|sdf|7141|dock4
  -GOLD-   22720 8383D 1   1.00000     0.00000
 Structure written by MMmdl.
 33 35  0  0  0  0  0  0  0  0  2 V2000
  152.0621  139.3776  158.2209 O   0  0  0  0  0  0  0  0  0  0  0  0
  151.4036  140.3542  157.4411 C   0  0  2  0  0  0  0  0  0  0  0  0
  151.8933  140.2173  155.9850 C   0  0  0  0  0  0  0  0  0  0  0  0
  150.9153  139.5360  155.1244 N   0  0  0  0  0  0  0  0  0  0  0  0
  150.9761  138.3021  154.5538 C   0  0  0  0  0  0  0  0  0  0  0  0
  149.8192  138.1105  153.8618 N   0  3  0  0  0  0  0  0  0  0  0  0
  149.0069  139.2390  153.9896 C   0  0  0  0  0  0  0  0  0  0  0  0
  147.7433  139.5131  153.4753 C   0  0  0  0  0  0  0  0  0  0  0  0
  147.1862  140.7676  153.7995 C   0  0  0  0  0  0  0  0  0  0  0  0
  147.8814  141.6941  154.6034 C   0  0  0  0  0  0  0  0  0  0  0  0
  149.1628  141.4063  155.1169 C   0  0  0  0  0  0  0  0  0  0  0  0
  149.7065  140.1625  154.7952 C   0  0  0  0  0  0  0  0  0  0  0  0
  151.5961  141.7612  157.9916 C   0  0  0  0  0  0  0  0  0  0  0  0
  152.3105  141.9528  159.1940 C   0  0  0  0  0  0  0  0  0  0  0  0
  152.4664  143.2457  159.7299 C   0  0  0  0  0  0  0  0  0  0  0  0
  151.9110  144.3556  159.0653 C   0  0  0  0  0  0  0  0  0  0  0  0
  152.0569  145.5978  159.5834 F   0  0  0  0  0  0  0  0  0  0  0  0
  151.2011  144.1723  157.8633 C   0  0  0  0  0  0  0  0  0  0  0  0
  151.0434  142.8791  157.3277 C   0  0  0  0  0  0  0  0  0  0  0  0
  151.9228  139.5782  159.1341 H   0  0  0  0  0  0  0  0  0  0  0  0
  150.3409  140.1101  157.4797 H   0  0  0  0  0  0  0  0  0  0  0  0
  152.1541  141.1843  155.5546 H   0  0  0  0  0  0  0  0  0  0  0  0
  152.8035  139.6163  155.9563 H   0  0  0  0  0  0  0  0  0  0  0  0
  151.7922  137.5990  154.6404 H   0  0  0  0  0  0  0  0  0  0  0  0
  147.2082  138.8049  152.8598 H   0  0  0  0  0  0  0  0  0  0  0  0
  146.2060  141.0241  153.4245 H   0  0  0  0  0  0  0  0  0  0  0  0
  147.4222  142.6450  154.8322 H   0  0  0  0  0  0  0  0  0  0  0  0
  149.6818  142.1238  155.7345 H   0  0  0  0  0  0  0  0  0  0  0  0
  152.7321  141.1063  159.7161 H   0  0  0  0  0  0  0  0  0  0  0  0
  153.0101  143.3855  160.6527 H   0  0  0  0  0  0  0  0  0  0  0  0
  150.7742  145.0233  157.3533 H   0  0  0  0  0  0  0  0  0  0  0  0
  150.4876  142.7481  156.4109 H   0  0  0  0  0  0  0  0  0  0  0  0
  149.6020  137.2694  153.3424 H   0  0  0  0  0  0  0  0  0  0  0  0
  1  2  1  0  0  0  0
  1 20  1  0  0  0  0
  2  3  1  0  0  0  0
  2 13  1  0  0  0  0
  2 21  1  0  0  0  0
  3  4  1  0  0  0  0
  3 22  1  0  0  0  0
  3 23  1  0  0  0  0
  4 12  1  0  0  0  0
  4  5  1  0  0  0  0
  5  6  2  0  0  0  0
  5 24  1  0  0  0  0
  6  7  1  0  0  0  0
  6 33  1  0  0  0  0
  7 12  2  0  0  0  0
  7  8  1  0  0  0  0
  8  9  2  0  0  0  0
  8 25  1  0  0  0  0
  9 10  1  0  0  0  0
  9 26  1  0  0  0  0
 10 11  2  0  0  0  0
 10 27  1  0  0  0  0
 11 12  1  0  0  0  0
 11 28  1  0  0  0  0
 13 19  1  0  0  0  0
 13 14  2  0  0  0  0
 14 15  1  0  0  0  0
 14 29  1  0  0  0  0
 15 16  2  0  0  0  0
 15 30  1  0  0  0  0
 16 17  1  0  0  0  0
 16 18  1  0  0  0  0
 18 19  2  0  0  0  0
 18 31  1  0  0  0  0
 19 32  1  0  0  0  0
M  CHG  1   6   1
M  END
> <s_m_source_file>
AV-unprocessed.smi

> <i_m_source_file_index>
1767

> <i_lp_mmshare_version>
43012

> <i_f3d_flags>
0

> <s_epik_input>
W2NIXTFbY0hdYyhGKVtjSF1bY0hdYzFbQ0BIXShbT0hdKVtDSDJdbihbY0hdbjIpYyhjMjMpW2NIXVtjSF1bY0hdW2NIXTM=

> <s_epik_cmdline>
J2VwaWtfcHl0aG9uJywgJy1waCcsICc3LjAnLCAnLXRuJywgJzgnLCAnLW1hJywgJzIwMCcsICctbWV0YWxfYmluZGluZycsICctaW1hZScsICc8aW5maWxlLm1hZT4nLCAnLW9tYWUnLCAnPG91dGZpbGUubWFlPic=

> <r_epik_Ionization_Penalty>
1.3029

> <r_epik_Ionization_Penalty_Charging>
1.3029

> <r_epik_Ionization_Penalty_Neutral>
1.79538e-06

> <r_epik_State_Penalty>
1.377

> <r_epik_Charging_Adjusted_Penalty>
2.6799

> <i_epik_Tot_Q>
1

> <i_epik_Tot_abs_Q>
1

> <r_epik_Metal_State_Penalty>
5.40879

> <b_epik_Metal_Only>
0

> <s_lp_Force_Field>
OPLS_2005

> <r_lp_Energy>
17.7516

> <b_lp_Chiralities_Consistent>
1

> <s_lp_Variant>
AV-unprocessed.smi:1767-3

> <Gold.Version>
5.8.1

> <Gold.Id.Protein>
6NUR|6NUR_protein|mol2

> <Gold.PLP.Fitness>
51.5238

> <Gold.PLP.PLP>
-47.0148

> <Gold.PLP.part.hbond>
-1.0500

> <Gold.PLP.part.metal>
0.0000

> <Gold.PLP.part.buried>
-2.3904

> <Gold.PLP.part.nonpolar>
-43.9344

> <Gold.PLP.part.repulsive>
0.0445

> <Gold.PLP.ligand.clash>
0.0000

> <Gold.PLP.ligand.torsion>
0.7529

> <Gold.PLP.Chemscore.Hbond>
2.0000

> <Gold.PLP.Chemscore.CHOScore>
0.0000

> <Gold.PLP.Chemscore.Metal>
0.0000

> <Gold.Chemscore.Hbonds>
donor molecule, donor type, donor heavy atom, donor atom, acceptor molecule, acceptor atom, score
      L1  H     6    33       P1  7948  2.00

> <Gold.PLP.Chemscore.Internal.Correction>
0.0148

> <Gold.Rescore>
     Score         DG    S(hbond)    S(metal)    S(lipo)     H(rot)  DE(clash)    DE(int)     intcor
     16.61     -17.46       0.95        0.00     118.40       1.97       0.09       0.76       ----

> <Gold.Chemscore.Fitness>
16.6081

> <Gold.Chemscore.DG>
-17.4579

> <Gold.Chemscore.ZeroCoef>
-5.4800

> <Gold.Chemscore.Hbond>
0.9467

> <Gold.Chemscore.Metal>
0.0000

> <Gold.Chemscore.Lipo>
118.4017

> <Gold.Chemscore.Internal_Hbond>
0.0000

> <Gold.Chemscore.DEClash>
0.0866

> <Gold.Chemscore.DEInternal>
0.7632

> <Gold.Chemscore.Rot>
1.9677

> <Gold.Chemscore.Internal.Correction>
   9.000000E+99

> <Gold.Chemscore.Hbonds>
donor molecule, donor type, donor heavy atom, donor atom, acceptor molecule, acceptor atom, score
      L1  H     6    33       P1  7948  0.77

> <Gold.Chemscore.Hbond.Weighted>
-3.1621

> <Gold.Chemscore.Metal.Weighted>
-0.0000

> <Gold.Chemscore.Lipo.Weighted>
-13.8530

> <Gold.Chemscore.Internal_Hbond.Weighted>
0.0000

> <Gold.Chemscore.DEClash.Weighted>
0.0866

> <Gold.Chemscore.DEInternal.Weighted>
0.7632

> <Gold.Chemscore.Rot.Weighted>
5.0372

> <Gold.Chemscore.Internal.Correction.Weighted>
   9.000000E+99

> <Gold.Protein.RotatedTorsions>
[ 6907 6896 6895 6894 ] final   39.72 input  -60.11 | X-H torsion
[ 7974 7965 7964 7962 ] final  119.71 input  175.53 | X-H torsion
[ 8008 7997 7996 7995 ] final -136.62 input   59.86 | X-H torsion
[ 10167 10162 10161 10158 ] final   -2.50 input  -65.29 | X-H torsion
[ 10718 10713 10712 10709 ] final   58.91 input   66.30 | X-H torsion
[ 10763 10752 10751 10750 ] final  -71.45 input  -60.55 | X-H torsion
[ 11005 11000 10999 10996 ] final   52.33 input  -57.11 | X-H torsion

> <Gold.Protein.ActiveResidues>
 VAL166  LYS551  ARG553  GLY616  TRP617  ASP618  TYR619  PRO620  LYS621  CYS622 
 ASP623  PHE694  ASN695  SER759  ASP760  ASP761  ALA762  ILE779  LEU786  VAL792 
 PHE793  MET794  SER795  GLU796  ALA797  LYS798  CYS799  TRP800  GLU811  SER814 

> <Gold.Protein.RotatedAtoms>
  152.1732  134.8817  160.0532 H   0  0  0  0  0  0  0  0  0  0  0  0  # atno 6907 bound_to 6896
  151.9769  133.3739  159.4100 H   0  0  0  0  0  0  0  0  0  0  0  0  # atno 6908 bound_to 6896
  150.6905  134.4003  159.5160 H   0  0  0  0  0  0  0  0  0  0  0  0  # atno 6909 bound_to 6896
  145.1399  139.3274  143.4621 H   0  0  0  0  0  0  0  0  0  0  0  0  # atno 7974 bound_to 7965
  155.3982  140.0504  157.3038 H   0  0  0  0  0  0  0  0  0  0  0  0  # atno 8008 bound_to 7997
  154.5003  140.2154  155.9321 H   0  0  0  0  0  0  0  0  0  0  0  0  # atno 8009 bound_to 7997
  156.1459  140.3145  155.8574 H   0  0  0  0  0  0  0  0  0  0  0  0  # atno 8010 bound_to 7997
  140.6853  143.6650  150.8234 H   0  0  0  0  0  0  0  0  0  0  0  0  # atno 10167 bound_to 10162
  157.5634  130.8852  149.9147 H   0  0  0  0  0  0  0  0  0  0  0  0  # atno 10718 bound_to 10713
  154.4319  135.5962  153.6074 H   0  0  0  0  0  0  0  0  0  0  0  0  # atno 10763 bound_to 10752
  152.9799  135.5977  154.3829 H   0  0  0  0  0  0  0  0  0  0  0  0  # atno 10764 bound_to 10752
  154.3668  135.2841  155.2268 H   0  0  0  0  0  0  0  0  0  0  0  0  # atno 10765 bound_to 10752
  140.0858  134.5276  155.8900 H   0  0  0  0  0  0  0  0  0  0  0  0  # atno 11005 bound_to 11000
  146.3506  140.1432  142.8594 LP  0  0  0  0  0  0  0  0  0  0  0  0  # atno 17320 bound_to 7965
  145.0544  140.9041  143.4976 LP  0  0  0  0  0  0  0  0  0  0  0  0  # atno 17321 bound_to 7965
  140.0356  143.5399  152.2741 LP  0  0  0  0  0  0  0  0  0  0  0  0  # atno 17342 bound_to 10162
  139.6207  144.7628  151.2746 LP  0  0  0  0  0  0  0  0  0  0  0  0  # atno 17343 bound_to 10162
  156.0684  130.3689  150.0829 LP  0  0  0  0  0  0  0  0  0  0  0  0  # atno 17370 bound_to 10713
  156.8990  130.9614  151.3579 LP  0  0  0  0  0  0  0  0  0  0  0  0  # atno 17371 bound_to 10713
  141.2062  133.6653  156.6228 LP  0  0  0  0  0  0  0  0  0  0  0  0  # atno 17394 bound_to 11000
  140.3422  134.7839  157.4406 LP  0  0  0  0  0  0  0  0  0  0  0  0  # atno 17395 bound_to 11000

$$$$
