AV-unprocessed.smi:1464|AV-procd|sdf|5945|dock9
  -GOLD-   22720 6 23D 1   1.00000     0.00000
 Structure written by MMmdl.
 41 42  0  0  0  0  0  0  0  0  1 V2000
  153.6665  141.2221  159.8509 C   0  0  0  0  0  0  0  0  0  0  0  0
  153.0113  142.3639  159.0523 C   0  0  2  0  0  0  0  0  0  0  0  0
  152.8591  143.6028  159.9576 C   0  0  0  0  0  0  0  0  0  0  0  0
  152.2409  144.7862  159.2059 C   0  0  0  0  0  0  0  0  0  0  0  0
  150.8802  144.3997  158.6197 C   0  0  0  0  0  0  0  0  0  0  0  0
  150.9968  143.1733  157.6940 C   0  0  2  0  0  0  0  0  0  0  0  0
  149.6698  142.8186  157.1934 N   0  0  0  0  0  0  0  0  0  0  0  0
  148.6795  142.2828  157.9227 C   0  0  0  0  0  0  0  0  0  0  0  0
  148.7971  141.9964  159.1149 O   0  0  0  0  0  0  0  0  0  0  0  0
  147.3651  142.0136  157.1761 C   0  0  0  0  0  0  0  0  0  0  0  0
  147.5513  141.8037  155.7332 N   0  0  0  0  0  0  0  0  0  0  0  0
  148.7965  141.2997  155.3893 N   0  0  0  0  0  0  0  0  0  0  0  0
  149.0750  141.0580  154.1530 C   0  0  0  0  0  0  0  0  0  0  0  0
  150.3185  140.5562  153.8565 O   0  0  0  0  0  0  0  0  0  0  0  0
  148.1092  141.3075  153.1052 C   0  0  0  0  0  0  0  0  0  0  0  0
  146.9010  141.8046  153.4496 C   0  0  0  0  0  0  0  0  0  0  0  0
  146.5526  142.0910  154.8425 C   0  0  0  0  0  0  0  0  0  0  0  0
  145.4616  142.5473  155.1843 O   0  0  0  0  0  0  0  0  0  0  0  0
  151.6498  141.9631  158.4159 C   0  0  1  0  0  0  0  0  0  0  0  0
  151.7913  140.7580  157.4598 C   0  0  0  0  0  0  0  0  0  0  0  0
  150.1604  139.7770  153.3462 H   0  0  0  0  0  0  0  0  0  0  0  0
  152.9977  140.8434  160.6242 H   0  0  0  0  0  0  0  0  0  0  0  0
  154.5790  141.5623  160.3413 H   0  0  0  0  0  0  0  0  0  0  0  0
  153.9494  140.3870  159.2110 H   0  0  0  0  0  0  0  0  0  0  0  0
  153.6943  142.6309  158.2445 H   0  0  0  0  0  0  0  0  0  0  0  0
  152.2385  143.3563  160.8204 H   0  0  0  0  0  0  0  0  0  0  0  0
  153.8315  143.8980  160.3535 H   0  0  0  0  0  0  0  0  0  0  0  0
  152.1284  145.6373  159.8780 H   0  0  0  0  0  0  0  0  0  0  0  0
  152.9099  145.1072  158.4064 H   0  0  0  0  0  0  0  0  0  0  0  0
  150.1826  144.1873  159.4313 H   0  0  0  0  0  0  0  0  0  0  0  0
  150.4678  145.2481  158.0722 H   0  0  0  0  0  0  0  0  0  0  0  0
  151.6348  143.4398  156.8488 H   0  0  0  0  0  0  0  0  0  0  0  0
  149.4861  143.0139  156.2201 H   0  0  0  0  0  0  0  0  0  0  0  0
  146.8634  141.1481  157.6136 H   0  0  0  0  0  0  0  0  0  0  0  0
  146.6982  142.8593  157.3533 H   0  0  0  0  0  0  0  0  0  0  0  0
  148.3563  141.0996  152.0746 H   0  0  0  0  0  0  0  0  0  0  0  0
  146.1700  141.9964  152.6780 H   0  0  0  0  0  0  0  0  0  0  0  0
  150.9827  141.6611  159.2251 H   0  0  0  0  0  0  0  0  0  0  0  0
  152.4918  140.9748  156.6526 H   0  0  0  0  0  0  0  0  0  0  0  0
  150.8400  140.4842  157.0038 H   0  0  0  0  0  0  0  0  0  0  0  0
  152.1442  139.8677  157.9787 H   0  0  0  0  0  0  0  0  0  0  0  0
  1  2  1  0  0  0  0
  1 22  1  0  0  0  0
  1 23  1  0  0  0  0
  1 24  1  0  0  0  0
  2 19  1  0  0  0  0
  2  3  1  0  0  0  0
  2 25  1  0  0  0  0
  3  4  1  0  0  0  0
  3 26  1  0  0  0  0
  3 27  1  0  0  0  0
  4  5  1  0  0  0  0
  4 28  1  0  0  0  0
  4 29  1  0  0  0  0
  5  6  1  0  0  0  0
  5 30  1  0  0  0  0
  5 31  1  0  0  0  0
  6  7  1  0  0  0  0
  6 19  1  0  0  0  0
  6 32  1  0  0  0  0
  7  8  1  0  0  0  0
  7 33  1  0  0  0  0
  8  9  2  0  0  0  0
  8 10  1  0  0  0  0
 10 34  1  0  0  0  0
 10 35  1  0  0  0  0
 10 11  1  0  0  0  0
 11 12  1  0  0  0  0
 11 17  1  0  0  0  0
 12 13  2  0  0  0  0
 13 14  1  0  0  0  0
 13 15  1  0  0  0  0
 14 21  1  0  0  0  0
 15 36  1  0  0  0  0
 15 16  2  0  0  0  0
 16 37  1  0  0  0  0
 16 17  1  0  0  0  0
 17 18  2  0  0  0  0
 19 20  1  0  0  0  0
 19 38  1  0  0  0  0
 20 39  1  0  0  0  0
 20 40  1  0  0  0  0
 20 41  1  0  0  0  0
M  END
> <s_m_source_file>
AV-unprocessed.smi

> <i_m_source_file_index>
1464

> <i_lp_mmshare_version>
43012

> <i_f3d_flags>
0

> <s_epik_input>
W0NIM11bQ0BASF0xW0NIMl1bQ0gyXVtDSDJdW0NASF0oW0NASF0xW0NIM10pW05IXUMoPU8pW0NIMl1uMltuSF1jKD1PKVtjSF1bY0hdYzI9Tw==

> <s_epik_cmdline>
J2VwaWtfcHl0aG9uJywgJy1waCcsICc3LjAnLCAnLXRuJywgJzgnLCAnLW1hJywgJzIwMCcsICctbWV0YWxfYmluZGluZycsICctaW1hZScsICc8aW5maWxlLm1hZT4nLCAnLW9tYWUnLCAnPG91dGZpbGUubWFlPic=

> <r_lp_tautomer_probability>
0.9996

> <r_epik_Ionization_Penalty>
2.10335

> <r_epik_Ionization_Penalty_Charging>
3.98079e-08

> <r_epik_Ionization_Penalty_Neutral>
2.10335

> <r_epik_State_Penalty>
1.67957

> <r_epik_Charging_Adjusted_Penalty>
1.67957

> <i_epik_Tot_Q>
0

> <i_epik_Tot_abs_Q>
0

> <r_epik_Metal_State_Penalty>
1.67957

> <b_epik_Metal_Only>
0

> <s_lp_Force_Field>
OPLS_2005

> <r_lp_Energy>
21.8095

> <b_lp_Chiralities_Consistent>
1

> <s_lp_Variant>
AV-unprocessed.smi:1464-11

> <Gold.Version>
5.8.1

> <Gold.Id.Protein>
6NUR|6NUR_protein|mol2

> <Gold.PLP.Fitness>
43.2907

> <Gold.PLP.PLP>
-41.0330

> <Gold.PLP.part.hbond>
-4.2584

> <Gold.PLP.part.metal>
0.0000

> <Gold.PLP.part.buried>
-1.5446

> <Gold.PLP.part.nonpolar>
-35.9663

> <Gold.PLP.part.repulsive>
0.3601

> <Gold.PLP.ligand.clash>
0.0000

> <Gold.PLP.ligand.torsion>
0.8025

> <Gold.PLP.Chemscore.Hbond>
1.2843

> <Gold.PLP.Chemscore.CHOScore>
0.0000

> <Gold.PLP.Chemscore.Metal>
0.0000

> <Gold.Chemscore.Hbonds>
donor molecule, donor type, donor heavy atom, donor atom, acceptor molecule, acceptor atom, score
      L1  H     7    33       P1  8028  0.42
      L1  H    14    21       P1  7957  0.15
      P1  H  7989  7998       L1    14  0.44

> <Gold.PLP.Chemscore.Internal.Correction>
0.0097

> <Gold.Rescore>
     Score         DG    S(hbond)    S(metal)    S(lipo)     H(rot)  DE(clash)    DE(int)     intcor
     10.76     -15.76       1.17        0.00     102.96       2.22       1.82       3.18       ----

> <Gold.Chemscore.Fitness>
10.7622

> <Gold.Chemscore.DG>
-15.7609

> <Gold.Chemscore.ZeroCoef>
-5.4800

> <Gold.Chemscore.Hbond>
1.1747

> <Gold.Chemscore.Metal>
0.0000

> <Gold.Chemscore.Lipo>
102.9648

> <Gold.Chemscore.Internal_Hbond>
0.0000

> <Gold.Chemscore.DEClash>
1.8156

> <Gold.Chemscore.DEInternal>
3.1832

> <Gold.Chemscore.Rot>
2.2224

> <Gold.Chemscore.Internal.Correction>
   9.000000E+99

> <Gold.Chemscore.Hbonds>
donor molecule, donor type, donor heavy atom, donor atom, acceptor molecule, acceptor atom, score
      L1  H     7    33       P1  8028  0.42
      L1  H    14    21       P1  7957  0.15
      P1  H  6933  6944       L1     9  0.01
      P1  H  7989  7998       L1    14  0.16

> <Gold.Chemscore.Hbond.Weighted>
-3.9234

> <Gold.Chemscore.Metal.Weighted>
-0.0000

> <Gold.Chemscore.Lipo.Weighted>
-12.0469

> <Gold.Chemscore.Internal_Hbond.Weighted>
0.0000

> <Gold.Chemscore.DEClash.Weighted>
1.8156

> <Gold.Chemscore.DEInternal.Weighted>
3.1832

> <Gold.Chemscore.Rot.Weighted>
5.6893

> <Gold.Chemscore.Internal.Correction.Weighted>
   9.000000E+99

> <Gold.Protein.RotatedTorsions>
[ 6907 6896 6895 6894 ] final  121.20 input  -60.11 | X-H torsion
[ 7974 7965 7964 7962 ] final   64.89 input  175.53 | X-H torsion
[ 8008 7997 7996 7995 ] final   20.87 input   59.86 | X-H torsion
[ 10167 10162 10161 10158 ] final  -77.31 input  -65.29 | X-H torsion
[ 10718 10713 10712 10709 ] final   86.68 input   66.30 | X-H torsion
[ 10763 10752 10751 10750 ] final   34.03 input  -60.55 | X-H torsion
[ 11005 11000 10999 10996 ] final   98.42 input  -57.11 | X-H torsion

> <Gold.Protein.ActiveResidues>
 VAL166  LYS551  ARG553  GLY616  TRP617  ASP618  TYR619  PRO620  LYS621  CYS622 
 ASP623  PHE694  ASN695  SER759  ASP760  ASP761  ALA762  ILE779  LEU786  VAL792 
 PHE793  MET794  SER795  GLU796  ALA797  LYS798  CYS799  TRP800  GLU811  SER814 

> <Gold.Protein.RotatedAtoms>
  152.4340  133.7328  159.6596 H   0  0  0  0  0  0  0  0  0  0  0  0  # atno 6907 bound_to 6896
  150.8222  133.8223  159.3140 H   0  0  0  0  0  0  0  0  0  0  0  0  # atno 6908 bound_to 6896
  151.5902  135.1056  160.0089 H   0  0  0  0  0  0  0  0  0  0  0  0  # atno 6909 bound_to 6896
  145.8449  139.3218  143.0909 H   0  0  0  0  0  0  0  0  0  0  0  0  # atno 7974 bound_to 7965
  154.9421  140.3054  155.5115 H   0  0  0  0  0  0  0  0  0  0  0  0  # atno 8008 bound_to 7997
  156.2995  140.2334  156.4429 H   0  0  0  0  0  0  0  0  0  0  0  0  # atno 8009 bound_to 7997
  154.8135  140.0427  157.1348 H   0  0  0  0  0  0  0  0  0  0  0  0  # atno 8010 bound_to 7997
  140.4782  143.2409  151.8100 H   0  0  0  0  0  0  0  0  0  0  0  0  # atno 10167 bound_to 10162
  157.6931  131.0225  150.3010 H   0  0  0  0  0  0  0  0  0  0  0  0  # atno 10718 bound_to 10713
  153.0183  135.6371  154.1605 H   0  0  0  0  0  0  0  0  0  0  0  0  # atno 10763 bound_to 10752
  154.1342  135.2838  155.3179 H   0  0  0  0  0  0  0  0  0  0  0  0  # atno 10764 bound_to 10752
  154.6172  135.5537  153.7598 H   0  0  0  0  0  0  0  0  0  0  0  0  # atno 10765 bound_to 10752
  139.8772  134.9048  156.4454 H   0  0  0  0  0  0  0  0  0  0  0  0  # atno 11005 bound_to 11000
  145.9423  140.8970  143.0301 LP  0  0  0  0  0  0  0  0  0  0  0  0  # atno 17320 bound_to 7965
  144.6731  140.1566  143.7426 LP  0  0  0  0  0  0  0  0  0  0  0  0  # atno 17321 bound_to 7965
  139.4829  144.4807  151.9311 LP  0  0  0  0  0  0  0  0  0  0  0  0  # atno 17342 bound_to 10162
  140.3892  144.2637  150.5901 LP  0  0  0  0  0  0  0  0  0  0  0  0  # atno 17343 bound_to 10162
  156.3526  130.3833  149.7317 LP  0  0  0  0  0  0  0  0  0  0  0  0  # atno 17370 bound_to 10713
  156.4789  130.8032  151.3047 LP  0  0  0  0  0  0  0  0  0  0  0  0  # atno 17371 bound_to 10713
  140.8969  133.7807  155.9636 LP  0  0  0  0  0  0  0  0  0  0  0  0  # atno 17394 bound_to 11000
  140.8693  134.2746  157.5198 LP  0  0  0  0  0  0  0  0  0  0  0  0  # atno 17395 bound_to 11000

$$$$
