AV-unprocessed.smi:1148|AV-procd|sdf|4889|dock4
  -GOLD-   22720 3463D 1   1.00000     0.00000
 Structure written by MMmdl.
 45 47  0  0  0  0  0  0  0  0  1 V2000
  147.6589  131.6619  159.0490 C   0  0  0  0  0  0  0  0  0  0  0  0
  147.7979  133.0784  159.0690 O   0  0  0  0  0  0  0  0  0  0  0  0
  147.6545  133.7386  160.2747 C   0  0  0  0  0  0  0  0  0  0  0  0
  147.3377  133.0104  161.3750 N   0  0  0  0  0  0  0  0  0  0  0  0
  147.1998  133.6525  162.5531 C   0  0  0  0  0  0  0  0  0  0  0  0
  147.3758  135.0406  162.6993 C   0  0  0  0  0  0  0  0  0  0  0  0
  147.7037  135.7982  161.5596 C   0  0  0  0  0  0  0  0  0  0  0  0
  147.8362  135.1409  160.3126 C   0  0  0  0  0  0  0  0  0  0  0  0
  148.1810  135.8090  159.1058 N   0  0  0  0  0  0  0  0  0  0  0  0
  149.0207  136.8442  158.9359 C   0  0  0  0  0  0  0  0  0  0  0  0
  149.6630  137.3941  159.8306 O   0  0  0  0  0  0  0  0  0  0  0  0
  149.0606  137.2279  157.6520 N   0  0  0  0  0  0  0  0  0  0  0  0
  149.8417  138.3444  157.1283 C   0  0  0  0  0  0  0  0  0  0  0  0
  151.3394  137.9693  157.1231 C   0  0  0  0  0  0  0  0  0  0  0  0
  152.2100  139.1809  156.7490 C   0  0  0  0  0  0  0  0  0  0  0  0
  151.9293  140.2707  157.6936 N   0  0  0  0  0  0  0  0  0  0  0  0
  152.7696  140.7268  158.6558 C   0  0  0  0  0  0  0  0  0  0  0  0
  153.8749  140.2205  158.8558 O   0  0  0  0  0  0  0  0  0  0  0  0
  152.3109  141.9065  159.4583 C   0  0  0  0  0  0  0  0  0  0  0  0
  153.0681  143.2150  159.3171 C   0  0  0  0  0  0  0  0  0  0  0  0
  153.2305  142.3835  160.5626 C   0  0  0  0  0  0  0  0  0  0  0  0
  150.5516  140.7572  157.5488 C   0  0  0  0  0  0  0  0  0  0  0  0
  149.5836  139.6287  157.9505 C   0  0  0  0  0  0  0  0  0  0  0  0
  147.7964  131.3009  158.0299 H   0  0  0  0  0  0  0  0  0  0  0  0
  146.6647  131.3544  159.3767 H   0  0  0  0  0  0  0  0  0  0  0  0
  148.4091  131.1771  159.6752 H   0  0  0  0  0  0  0  0  0  0  0  0
  146.9480  133.0402  163.4064 H   0  0  0  0  0  0  0  0  0  0  0  0
  147.2661  135.5128  163.6642 H   0  0  0  0  0  0  0  0  0  0  0  0
  147.8602  136.8605  161.6661 H   0  0  0  0  0  0  0  0  0  0  0  0
  147.6609  135.5204  158.2899 H   0  0  0  0  0  0  0  0  0  0  0  0
  148.4983  136.7174  156.9871 H   0  0  0  0  0  0  0  0  0  0  0  0
  149.5469  138.5336  156.0942 H   0  0  0  0  0  0  0  0  0  0  0  0
  151.6366  137.6058  158.1081 H   0  0  0  0  0  0  0  0  0  0  0  0
  151.5186  137.1520  156.4237 H   0  0  0  0  0  0  0  0  0  0  0  0
  153.2603  138.8955  156.7037 H   0  0  0  0  0  0  0  0  0  0  0  0
  151.9650  139.5121  155.7389 H   0  0  0  0  0  0  0  0  0  0  0  0
  151.2378  141.9987  159.6167 H   0  0  0  0  0  0  0  0  0  0  0  0
  153.9219  143.2674  158.6438 H   0  0  0  0  0  0  0  0  0  0  0  0
  152.4861  144.1316  159.3889 H   0  0  0  0  0  0  0  0  0  0  0  0
  152.7600  142.7346  161.4787 H   0  0  0  0  0  0  0  0  0  0  0  0
  154.1791  141.8672  160.6996 H   0  0  0  0  0  0  0  0  0  0  0  0
  150.3491  141.6459  158.1479 H   0  0  0  0  0  0  0  0  0  0  0  0
  150.3758  141.0525  156.5133 H   0  0  0  0  0  0  0  0  0  0  0  0
  148.5531  139.9608  157.8189 H   0  0  0  0  0  0  0  0  0  0  0  0
  149.7060  139.4172  159.0139 H   0  0  0  0  0  0  0  0  0  0  0  0
  1  2  1  0  0  0  0
  1 24  1  0  0  0  0
  1 25  1  0  0  0  0
  1 26  1  0  0  0  0
  2  3  1  0  0  0  0
  3  8  1  0  0  0  0
  3  4  2  0  0  0  0
  4  5  1  0  0  0  0
  5  6  2  0  0  0  0
  5 27  1  0  0  0  0
  6  7  1  0  0  0  0
  6 28  1  0  0  0  0
  7  8  2  0  0  0  0
  7 29  1  0  0  0  0
  8  9  1  0  0  0  0
  9 10  1  0  0  0  0
  9 30  1  0  0  0  0
 10 11  2  0  0  0  0
 10 12  1  0  0  0  0
 12 13  1  0  0  0  0
 12 31  1  0  0  0  0
 13 23  1  0  0  0  0
 13 14  1  0  0  0  0
 13 32  1  0  0  0  0
 14 15  1  0  0  0  0
 14 33  1  0  0  0  0
 14 34  1  0  0  0  0
 15 16  1  0  0  0  0
 15 35  1  0  0  0  0
 15 36  1  0  0  0  0
 16 17  1  0  0  0  0
 16 22  1  0  0  0  0
 17 18  2  0  0  0  0
 17 19  1  0  0  0  0
 19 21  1  0  0  0  0
 19 20  1  0  0  0  0
 19 37  1  0  0  0  0
 20 21  1  0  0  0  0
 20 38  1  0  0  0  0
 20 39  1  0  0  0  0
 21 40  1  0  0  0  0
 21 41  1  0  0  0  0
 22 23  1  0  0  0  0
 22 42  1  0  0  0  0
 22 43  1  0  0  0  0
 23 44  1  0  0  0  0
 23 45  1  0  0  0  0
M  END
> <s_m_source_file>
AV-unprocessed.smi

> <i_m_source_file_index>
1148

> <i_lp_mmshare_version>
43012

> <i_f3d_flags>
0

> <s_epik_input>
W0NIM11PYzFuW2NIXVtjSF1bY0hdYzFbTkhdQyg9TylbTkhdW0NIXTJbQ0gyXVtDSDJdTihbQ0gyXVtDSDJdMilDKD1PKVtDSF0zW0NIMl1bQ0gyXTM=

> <s_epik_cmdline>
J2VwaWtfcHl0aG9uJywgJy1waCcsICc3LjAnLCAnLXRuJywgJzgnLCAnLW1hJywgJzIwMCcsICctbWV0YWxfYmluZGluZycsICctaW1hZScsICc8aW5maWxlLm1hZT4nLCAnLW9tYWUnLCAnPG91dGZpbGUubWFlPic=

> <r_lp_tautomer_probability>
1

> <r_epik_Ionization_Penalty>
9.48164e-05

> <r_epik_Ionization_Penalty_Charging>
0

> <r_epik_Ionization_Penalty_Neutral>
9.48164e-05

> <r_epik_State_Penalty>
-0

> <r_epik_Charging_Adjusted_Penalty>
0

> <i_epik_Tot_Q>
0

> <i_epik_Tot_abs_Q>
0

> <r_epik_Metal_State_Penalty>
-0

> <b_epik_Metal_Only>
0

> <s_lp_Force_Field>
OPLS_2005

> <r_lp_Energy>
31.242

> <b_lp_Chiralities_Consistent>
1

> <s_lp_Variant>
AV-unprocessed.smi:1148-1

> <Gold.Version>
5.8.1

> <Gold.Id.Protein>
6NUR|6NUR_protein|mol2

> <Gold.PLP.Fitness>
39.9173

> <Gold.PLP.PLP>
-37.5897

> <Gold.PLP.part.hbond>
-2.0000

> <Gold.PLP.part.metal>
0.0000

> <Gold.PLP.part.buried>
-4.5668

> <Gold.PLP.part.nonpolar>
-31.0264

> <Gold.PLP.part.repulsive>
0.1433

> <Gold.PLP.ligand.clash>
0.0000

> <Gold.PLP.ligand.torsion>
0.4411

> <Gold.PLP.Chemscore.Hbond>
1.0314

> <Gold.PLP.Chemscore.CHOScore>
0.0000

> <Gold.PLP.Chemscore.Metal>
0.0000

> <Gold.Chemscore.Hbonds>
donor molecule, donor type, donor heavy atom, donor atom, acceptor molecule, acceptor atom, score
      P1  H  6931  6943       L1    11  0.07
      P1  H  7997  8008       L1    18  0.91

> <Gold.PLP.Chemscore.Internal.Correction>
0.1158

> <Gold.Rescore>
     Score         DG    S(hbond)    S(metal)    S(lipo)     H(rot)  DE(clash)    DE(int)     intcor
     13.69     -15.19       0.96        0.00      87.48       1.46       0.01       1.48       ----

> <Gold.Chemscore.Fitness>
13.6869

> <Gold.Chemscore.DG>
-15.1854

> <Gold.Chemscore.ZeroCoef>
-5.4800

> <Gold.Chemscore.Hbond>
0.9576

> <Gold.Chemscore.Metal>
0.0000

> <Gold.Chemscore.Lipo>
87.4845

> <Gold.Chemscore.Internal_Hbond>
0.0000

> <Gold.Chemscore.DEClash>
0.0149

> <Gold.Chemscore.DEInternal>
1.4836

> <Gold.Chemscore.Rot>
1.4564

> <Gold.Chemscore.Internal.Correction>
   9.000000E+99

> <Gold.Chemscore.Hbonds>
donor molecule, donor type, donor heavy atom, donor atom, acceptor molecule, acceptor atom, score
      P1  H  6931  6943       L1    11  0.07
      P1  H  7997  8008       L1    18  0.73

> <Gold.Chemscore.Hbond.Weighted>
-3.1982

> <Gold.Chemscore.Metal.Weighted>
-0.0000

> <Gold.Chemscore.Lipo.Weighted>
-10.2357

> <Gold.Chemscore.Internal_Hbond.Weighted>
0.0000

> <Gold.Chemscore.DEClash.Weighted>
0.0149

> <Gold.Chemscore.DEInternal.Weighted>
1.4836

> <Gold.Chemscore.Rot.Weighted>
3.7285

> <Gold.Chemscore.Internal.Correction.Weighted>
   9.000000E+99

> <Gold.Protein.RotatedTorsions>
[ 6907 6896 6895 6894 ] final  147.15 input  -60.11 | X-H torsion
[ 7974 7965 7964 7962 ] final  -41.64 input  175.53 | X-H torsion
[ 8008 7997 7996 7995 ] final -106.50 input   59.86 | X-H torsion
[ 10167 10162 10161 10158 ] final  -74.04 input  -65.29 | X-H torsion
[ 10718 10713 10712 10709 ] final  -53.24 input   66.30 | X-H torsion
[ 10763 10752 10751 10750 ] final  106.34 input  -60.55 | X-H torsion
[ 11005 11000 10999 10996 ] final  -41.68 input  -57.11 | X-H torsion

> <Gold.Protein.ActiveResidues>
 VAL166  LYS551  ARG553  GLY616  TRP617  ASP618  TYR619  PRO620  LYS621  CYS622 
 ASP623  PHE694  ASN695  SER759  ASP760  ASP761  ALA762  ILE779  LEU786  VAL792 
 PHE793  MET794  SER795  GLU796  ALA797  LYS798  CYS799  TRP800  GLU811  SER814 

> <Gold.Protein.RotatedAtoms>
  152.1586  133.4567  159.4849 H   0  0  0  0  0  0  0  0  0  0  0  0  # atno 6907 bound_to 6896
  150.6904  134.2100  159.4364 H   0  0  0  0  0  0  0  0  0  0  0  0  # atno 6908 bound_to 6896
  152.0001  134.9933  160.0615 H   0  0  0  0  0  0  0  0  0  0  0  0  # atno 6909 bound_to 6896
  146.0192  140.6871  142.9186 H   0  0  0  0  0  0  0  0  0  0  0  0  # atno 7974 bound_to 7965
  154.9154  140.0409  157.1969 H   0  0  0  0  0  0  0  0  0  0  0  0  # atno 8008 bound_to 7997
  154.8306  140.2898  155.5703 H   0  0  0  0  0  0  0  0  0  0  0  0  # atno 8009 bound_to 7997
  156.2986  140.2501  156.3231 H   0  0  0  0  0  0  0  0  0  0  0  0  # atno 8010 bound_to 7997
  140.5060  143.2353  151.7673 H   0  0  0  0  0  0  0  0  0  0  0  0  # atno 10167 bound_to 10162
  156.1552  130.4150  149.9880 H   0  0  0  0  0  0  0  0  0  0  0  0  # atno 10718 bound_to 10713
  153.3916  135.3880  155.1927 H   0  0  0  0  0  0  0  0  0  0  0  0  # atno 10763 bound_to 10752
  154.8720  135.3750  154.4730 H   0  0  0  0  0  0  0  0  0  0  0  0  # atno 10764 bound_to 10752
  153.5217  135.7086  153.5789 H   0  0  0  0  0  0  0  0  0  0  0  0  # atno 10765 bound_to 10752
  141.0263  133.6840  156.2491 H   0  0  0  0  0  0  0  0  0  0  0  0  # atno 11005 bound_to 11000
  144.6983  140.3535  143.7177 LP  0  0  0  0  0  0  0  0  0  0  0  0  # atno 17320 bound_to 7965
  145.7220  139.1712  143.2479 LP  0  0  0  0  0  0  0  0  0  0  0  0  # atno 17321 bound_to 7965
  139.4884  144.4457  151.9713 LP  0  0  0  0  0  0  0  0  0  0  0  0  # atno 17342 bound_to 10162
  140.3547  144.3046  150.5943 LP  0  0  0  0  0  0  0  0  0  0  0  0  # atno 17343 bound_to 10162
  156.7726  130.9192  151.3644 LP  0  0  0  0  0  0  0  0  0  0  0  0  # atno 17370 bound_to 10713
  157.6689  130.9033  149.9995 LP  0  0  0  0  0  0  0  0  0  0  0  0  # atno 17371 bound_to 10713
  140.6485  134.5091  157.5575 LP  0  0  0  0  0  0  0  0  0  0  0  0  # atno 17394 bound_to 11000
  139.9178  134.8210  156.1309 LP  0  0  0  0  0  0  0  0  0  0  0  0  # atno 17395 bound_to 11000

$$$$
