AV-unprocessed.smi:1261|AV-procd|sdf|5305|dock10
  -GOLD-   22720 4423D 1   1.00000     0.00000
 Structure written by MMmdl.
 50 51  0  0  0  0  0  0  0  0  2 V2000
  147.0989  129.3540  151.7386 C   0  0  0  0  0  0  0  0  0  0  0  0
  146.2654  130.3896  152.5142 C   0  0  2  0  0  0  0  0  0  0  0  0
  145.2307  131.1117  151.6308 C   0  0  0  0  0  0  0  0  0  0  0  0
  145.8962  132.1405  150.6987 C   0  0  1  0  0  0  0  0  0  0  0  0
  144.8520  132.9011  149.8690 C   0  0  0  0  0  0  0  0  0  0  0  0
  146.7814  133.1045  151.5123 C   0  0  0  0  0  0  0  0  0  0  0  0
  147.7927  132.3649  152.3106 N   0  3  1  0  0  0  0  0  0  0  0  0
  148.7695  133.2699  152.9676 C   0  0  0  0  0  0  0  0  0  0  0  0
  148.2048  133.8988  154.2525 C   0  0  0  0  0  0  0  0  0  0  0  0
  149.3049  134.4875  155.1504 C   0  0  0  0  0  0  0  0  0  0  0  0
  149.9105  135.6652  154.5420 N   0  0  0  0  0  0  0  0  0  0  0  0
  150.9911  136.3122  155.0118 C   0  0  0  0  0  0  0  0  0  0  0  0
  151.5738  135.9710  156.0405 O   0  0  0  0  0  0  0  0  0  0  0  0
  151.5216  137.5180  154.2164 C   0  0  0  0  0  0  0  0  0  0  0  0
  151.2862  138.8291  154.8434 N   0  0  0  0  0  0  0  0  0  0  0  0
  150.2834  139.5733  154.2404 N   0  0  0  0  0  0  0  0  0  0  0  0
  149.9834  140.7419  154.6980 C   0  0  0  0  0  0  0  0  0  0  0  0
  148.9866  141.4463  154.0686 O   0  0  0  0  0  0  0  0  0  0  0  0
  150.6750  141.2985  155.8403 C   0  0  0  0  0  0  0  0  0  0  0  0
  151.6514  140.5666  156.4204 C   0  0  0  0  0  0  0  0  0  0  0  0
  152.0205  139.2399  155.9231 C   0  0  0  0  0  0  0  0  0  0  0  0
  152.9164  138.5586  156.4209 O   0  0  0  0  0  0  0  0  0  0  0  0
  147.1500  131.4116  153.2548 C   0  0  0  0  0  0  0  0  0  0  0  0
  148.4163  140.7944  153.6912 H   0  0  0  0  0  0  0  0  0  0  0  0
  147.7240  129.8192  150.9765 H   0  0  0  0  0  0  0  0  0  0  0  0
  146.4563  128.6263  151.2419 H   0  0  0  0  0  0  0  0  0  0  0  0
  147.7574  128.8024  152.4101 H   0  0  0  0  0  0  0  0  0  0  0  0
  145.7113  129.8310  153.2697 H   0  0  0  0  0  0  0  0  0  0  0  0
  144.6578  130.3869  151.0508 H   0  0  0  0  0  0  0  0  0  0  0  0
  144.5117  131.6224  152.2731 H   0  0  0  0  0  0  0  0  0  0  0  0
  146.5363  131.6055  149.9964 H   0  0  0  0  0  0  0  0  0  0  0  0
  144.1689  133.4626  150.5070 H   0  0  0  0  0  0  0  0  0  0  0  0
  144.2559  132.2162  149.2652 H   0  0  0  0  0  0  0  0  0  0  0  0
  145.3285  133.6078  149.1890 H   0  0  0  0  0  0  0  0  0  0  0  0
  147.2858  133.7873  150.8272 H   0  0  0  0  0  0  0  0  0  0  0  0
  146.1700  133.7167  152.1774 H   0  0  0  0  0  0  0  0  0  0  0  0
  149.6614  132.7028  153.2381 H   0  0  0  0  0  0  0  0  0  0  0  0
  149.0951  134.0393  152.2658 H   0  0  0  0  0  0  0  0  0  0  0  0
  147.4919  134.6848  154.0047 H   0  0  0  0  0  0  0  0  0  0  0  0
  147.6486  133.1447  154.8112 H   0  0  0  0  0  0  0  0  0  0  0  0
  148.8844  134.7827  156.1122 H   0  0  0  0  0  0  0  0  0  0  0  0
  150.0704  133.7388  155.3619 H   0  0  0  0  0  0  0  0  0  0  0  0
  149.4864  136.0118  153.6932 H   0  0  0  0  0  0  0  0  0  0  0  0
  152.5917  137.3688  154.0616 H   0  0  0  0  0  0  0  0  0  0  0  0
  151.0831  137.4973  153.2171 H   0  0  0  0  0  0  0  0  0  0  0  0
  150.4104  142.2767  156.2145 H   0  0  0  0  0  0  0  0  0  0  0  0
  152.1754  140.9695  157.2746 H   0  0  0  0  0  0  0  0  0  0  0  0
  146.5454  131.9728  153.9692 H   0  0  0  0  0  0  0  0  0  0  0  0
  147.9002  130.8796  153.8389 H   0  0  0  0  0  0  0  0  0  0  0  0
  148.3200  131.8132  151.6491 H   0  0  0  0  0  0  0  0  0  0  0  0
  1  2  1  0  0  0  0
  1 25  1  0  0  0  0
  1 26  1  0  0  0  0
  1 27  1  0  0  0  0
  2 23  1  0  0  0  0
  2  3  1  0  0  0  0
  2 28  1  0  0  0  0
  3  4  1  0  0  0  0
  3 29  1  0  0  0  0
  3 30  1  0  0  0  0
  4  5  1  0  0  0  0
  4  6  1  0  0  0  0
  4 31  1  0  0  0  0
  5 32  1  0  0  0  0
  5 33  1  0  0  0  0
  5 34  1  0  0  0  0
  6  7  1  0  0  0  0
  6 35  1  0  0  0  0
  6 36  1  0  0  0  0
  7  8  1  0  0  0  0
  7 23  1  0  0  0  0
  7 50  1  0  0  0  0
  8  9  1  0  0  0  0
  8 37  1  0  0  0  0
  8 38  1  0  0  0  0
  9 10  1  0  0  0  0
  9 39  1  0  0  0  0
  9 40  1  0  0  0  0
 10 11  1  0  0  0  0
 10 41  1  0  0  0  0
 10 42  1  0  0  0  0
 11 12  1  0  0  0  0
 11 43  1  0  0  0  0
 12 13  2  0  0  0  0
 12 14  1  0  0  0  0
 14 44  1  0  0  0  0
 14 45  1  0  0  0  0
 14 15  1  0  0  0  0
 15 16  1  0  0  0  0
 15 21  1  0  0  0  0
 16 17  2  0  0  0  0
 17 18  1  0  0  0  0
 17 19  1  0  0  0  0
 18 24  1  0  0  0  0
 19 46  1  0  0  0  0
 19 20  2  0  0  0  0
 20 47  1  0  0  0  0
 20 21  1  0  0  0  0
 21 22  2  0  0  0  0
 23 48  1  0  0  0  0
 23 49  1  0  0  0  0
M  CHG  1   7   1
M  END
> <s_m_source_file>
AV-unprocessed.smi

> <i_m_source_file_index>
1261

> <i_lp_mmshare_version>
43012

> <i_f3d_flags>
0

> <s_epik_input>
W0NIM11bQ0BASF0xW0NIMl1bQ0BASF0oW0NIM10pW0NIMl1OKFtDSDJdMSlbQ0gyXVtDSDJdW0NIMl1bTkhdQyg9TylbQ0gyXW4yW25IXWMoPU8pW2NIXVtjSF1jMj1P

> <s_epik_cmdline>
J2VwaWtfcHl0aG9uJywgJy1waCcsICc3LjAnLCAnLXRuJywgJzgnLCAnLW1hJywgJzIwMCcsICctbWV0YWxfYmluZGluZycsICctaW1hZScsICc8aW5maWxlLm1hZT4nLCAnLW9tYWUnLCAnPG91dGZpbGUubWFlPic=

> <r_lp_tautomer_probability>
0.9996

> <r_epik_Ionization_Penalty>
2.1425

> <r_epik_Ionization_Penalty_Charging>
0.000312112

> <r_epik_Ionization_Penalty_Neutral>
2.14218

> <r_epik_State_Penalty>
1.71978

> <r_epik_Charging_Adjusted_Penalty>
1.72009

> <i_epik_Tot_Q>
1

> <i_epik_Tot_abs_Q>
1

> <r_epik_Metal_State_Penalty>
1.71978

> <b_epik_Metal_Only>
0

> <s_lp_Force_Field>
OPLS_2005

> <r_lp_Energy>
29.6525

> <b_lp_Chiralities_Consistent>
1

> <s_lp_Variant>
AV-unprocessed.smi:1261-5

> <Gold.Version>
5.8.1

> <Gold.Id.Protein>
6NUR|6NUR_protein|mol2

> <Gold.PLP.Fitness>
57.5302

> <Gold.PLP.PLP>
-45.0823

> <Gold.PLP.part.hbond>
-6.6863

> <Gold.PLP.part.metal>
0.0000

> <Gold.PLP.part.buried>
1.4182

> <Gold.PLP.part.nonpolar>
-38.4793

> <Gold.PLP.part.repulsive>
1.2426

> <Gold.PLP.ligand.clash>
0.0000

> <Gold.PLP.ligand.torsion>
0.5586

> <Gold.PLP.Chemscore.Hbond>
4.5031

> <Gold.PLP.Chemscore.CHOScore>
0.0000

> <Gold.PLP.Chemscore.Metal>
0.0000

> <Gold.Chemscore.Hbonds>
donor molecule, donor type, donor heavy atom, donor atom, acceptor molecule, acceptor atom, score
      L1  H     7    50       P1 10747  1.00
      L1  H    11    43       P1  7948  1.00
      P1  H  7997  8008       L1    22  0.62
      P1  H  8011  8017       L1    18  0.49
      P1  H 10752 10763       L1    13  0.75

> <Gold.PLP.Chemscore.Internal.Correction>
0.0560

> <Gold.Rescore>
     Score         DG    S(hbond)    S(metal)    S(lipo)     H(rot)  DE(clash)    DE(int)     intcor
     18.69     -20.93       3.63        0.00      96.96       3.14       1.46       0.78       ----

> <Gold.Chemscore.Fitness>
18.6874

> <Gold.Chemscore.DG>
-20.9314

> <Gold.Chemscore.ZeroCoef>
-5.4800

> <Gold.Chemscore.Hbond>
3.6327

> <Gold.Chemscore.Metal>
0.0000

> <Gold.Chemscore.Lipo>
96.9606

> <Gold.Chemscore.Internal_Hbond>
0.0000

> <Gold.Chemscore.DEClash>
1.4640

> <Gold.Chemscore.DEInternal>
0.7801

> <Gold.Chemscore.Rot>
3.1352

> <Gold.Chemscore.Internal.Correction>
   9.000000E+99

> <Gold.Chemscore.Hbonds>
donor molecule, donor type, donor heavy atom, donor atom, acceptor molecule, acceptor atom, score
      L1  H     7    50       P1 10747  1.00
      L1  H    11    43       P1  7948  0.50
      P1  H  7997  8008       L1    22  0.08
      P1  H  8011  8017       L1    18  0.14
      P1  H 10752 10763       L1    13  0.09

> <Gold.Chemscore.Hbond.Weighted>
-12.1331

> <Gold.Chemscore.Metal.Weighted>
-0.0000

> <Gold.Chemscore.Lipo.Weighted>
-11.3444

> <Gold.Chemscore.Internal_Hbond.Weighted>
0.0000

> <Gold.Chemscore.DEClash.Weighted>
1.4640

> <Gold.Chemscore.DEInternal.Weighted>
0.7801

> <Gold.Chemscore.Rot.Weighted>
8.0260

> <Gold.Chemscore.Internal.Correction.Weighted>
   9.000000E+99

> <Gold.Protein.RotatedTorsions>
[ 6907 6896 6895 6894 ] final   57.26 input  -60.11 | X-H torsion
[ 7974 7965 7964 7962 ] final  144.04 input  175.53 | X-H torsion
[ 8008 7997 7996 7995 ] final  -46.35 input   59.86 | X-H torsion
[ 10167 10162 10161 10158 ] final   94.48 input  -65.29 | X-H torsion
[ 10718 10713 10712 10709 ] final   22.64 input   66.30 | X-H torsion
[ 10763 10752 10751 10750 ] final   96.76 input  -60.55 | X-H torsion
[ 11005 11000 10999 10996 ] final    3.50 input  -57.11 | X-H torsion

> <Gold.Protein.ActiveResidues>
 VAL166  LYS551  ARG553  GLY616  TRP617  ASP618  TYR619  PRO620  LYS621  CYS622 
 ASP623  PHE694  ASN695  SER759  ASP760  ASP761  ALA762  ILE779  LEU786  VAL792 
 PHE793  MET794  SER795  GLU796  ALA797  LYS798  CYS799  TRP800  GLU811  SER814 

> <Gold.Protein.RotatedAtoms>
  152.3714  134.6728  160.0174 H   0  0  0  0  0  0  0  0  0  0  0  0  # atno 6907 bound_to 6896
  151.7020  133.3306  159.3277 H   0  0  0  0  0  0  0  0  0  0  0  0  # atno 6908 bound_to 6896
  150.7676  134.6542  159.6349 H   0  0  0  0  0  0  0  0  0  0  0  0  # atno 6909 bound_to 6896
  144.8869  139.5615  143.5816 H   0  0  0  0  0  0  0  0  0  0  0  0  # atno 7974 bound_to 7965
  154.4007  140.1374  156.3997 H   0  0  0  0  0  0  0  0  0  0  0  0  # atno 8008 bound_to 7997
  155.7836  140.3481  155.5290 H   0  0  0  0  0  0  0  0  0  0  0  0  # atno 8009 bound_to 7997
  155.8649  140.0962  157.1579 H   0  0  0  0  0  0  0  0  0  0  0  0  # atno 8010 bound_to 7997
  139.8079  144.6786  150.9678 H   0  0  0  0  0  0  0  0  0  0  0  0  # atno 10167 bound_to 10162
  157.1551  130.6692  149.6025 H   0  0  0  0  0  0  0  0  0  0  0  0  # atno 10718 bound_to 10713
  153.2688  135.4207  155.0967 H   0  0  0  0  0  0  0  0  0  0  0  0  # atno 10763 bound_to 10752
  154.8448  135.3467  154.6274 H   0  0  0  0  0  0  0  0  0  0  0  0  # atno 10764 bound_to 10752
  153.6694  135.7044  153.5209 H   0  0  0  0  0  0  0  0  0  0  0  0  # atno 10765 bound_to 10752
  140.5924  133.9911  155.8095 H   0  0  0  0  0  0  0  0  0  0  0  0  # atno 11005 bound_to 11000
  146.3030  139.7488  142.9077 LP  0  0  0  0  0  0  0  0  0  0  0  0  # atno 17320 bound_to 7965
  145.3852  141.0364  143.3155 LP  0  0  0  0  0  0  0  0  0  0  0  0  # atno 17321 bound_to 7965
  140.7818  143.4214  151.0835 LP  0  0  0  0  0  0  0  0  0  0  0  0  # atno 17342 bound_to 10162
  139.7883  143.8256  152.3148 LP  0  0  0  0  0  0  0  0  0  0  0  0  # atno 17343 bound_to 10162
  155.9763  130.4731  150.6521 LP  0  0  0  0  0  0  0  0  0  0  0  0  # atno 17370 bound_to 10713
  157.4184  131.0833  151.1154 LP  0  0  0  0  0  0  0  0  0  0  0  0  # atno 17371 bound_to 10713
  141.0926  133.9893  157.3212 LP  0  0  0  0  0  0  0  0  0  0  0  0  # atno 17394 bound_to 11000
  139.9268  135.0201  156.8262 LP  0  0  0  0  0  0  0  0  0  0  0  0  # atno 17395 bound_to 11000

$$$$
