AV-unprocessed.smi:35|AV-procd|sdf|258|dock6
  -GOLD-   2262016 23D 1   1.00000     0.00000
 Structure written by MMmdl.
 29 30  0  0  0  0  0  0  0  0  1 V2000
  151.2988  135.5288  155.1548 O   0  0  0  0  0  0  0  0  0  0  0  0
  150.9795  136.7150  155.1118 C   0  0  0  0  0  0  0  0  0  0  0  0
  151.9602  137.7090  155.0701 N   0  0  0  0  0  0  0  0  0  0  0  0
  151.7200  139.0835  155.0254 C   0  0  0  0  0  0  0  0  0  0  0  0
  152.6650  139.8686  154.9617 O   0  0  0  0  0  0  0  0  0  0  0  0
  150.3722  139.5117  155.0532 N   0  0  0  0  0  0  0  0  0  0  0  0
  150.0915  141.0044  154.9810 C   0  0  1  0  0  0  0  0  0  0  0  0
  149.1758  141.2717  153.9625 O   0  0  0  0  0  0  0  0  0  0  0  0
  147.8599  141.2873  154.4983 C   0  0  2  0  0  0  0  0  0  0  0  0
  146.9237  142.0280  153.5310 C   0  0  0  0  0  0  0  0  0  0  0  0
  145.6147  142.0837  154.0568 O   0  0  0  0  0  0  0  0  0  0  0  0
  148.0506  141.9669  155.8568 C   0  0  1  0  0  0  0  0  0  0  0  0
  147.0793  141.5024  156.7731 O   0  0  0  0  0  0  0  0  0  0  0  0
  149.4508  141.5290  156.2888 C   0  0  2  0  0  0  0  0  0  0  0  0
  150.1666  142.6297  156.8133 O   0  0  0  0  0  0  0  0  0  0  0  0
  149.3631  138.5534  155.0522 C   0  0  0  0  0  0  0  0  0  0  0  0
  149.6129  137.2231  155.0878 C   0  0  0  0  0  0  0  0  0  0  0  0
  148.0346  136.0253  155.0850 Br  0  0  0  0  0  0  0  0  0  0  0  0
  152.9237  137.4076  155.0655 H   0  0  0  0  0  0  0  0  0  0  0  0
  151.0563  141.4528  154.7354 H   0  0  0  0  0  0  0  0  0  0  0  0
  147.5273  140.2563  154.6315 H   0  0  0  0  0  0  0  0  0  0  0  0
  147.2823  143.0382  153.3322 H   0  0  0  0  0  0  0  0  0  0  0  0
  146.8864  141.5056  152.5748 H   0  0  0  0  0  0  0  0  0  0  0  0
  145.0775  141.4594  153.5929 H   0  0  0  0  0  0  0  0  0  0  0  0
  147.9890  143.0515  155.7528 H   0  0  0  0  0  0  0  0  0  0  0  0
  146.6308  140.7663  156.3848 H   0  0  0  0  0  0  0  0  0  0  0  0
  149.4057  140.7348  157.0359 H   0  0  0  0  0  0  0  0  0  0  0  0
  149.8307  143.4211  156.4214 H   0  0  0  0  0  0  0  0  0  0  0  0
  148.3265  138.8514  155.0140 H   0  0  0  0  0  0  0  0  0  0  0  0
  1  2  2  0  0  0  0
  2 17  1  0  0  0  0
  2  3  1  0  0  0  0
  3 19  1  0  0  0  0
  3  4  1  0  0  0  0
  4  5  2  0  0  0  0
  4  6  1  0  0  0  0
  6  7  1  0  0  0  0
  6 16  1  0  0  0  0
  7 14  1  0  0  0  0
  7  8  1  0  0  0  0
  7 20  1  0  0  0  0
  8  9  1  0  0  0  0
  9 10  1  0  0  0  0
  9 12  1  0  0  0  0
  9 21  1  0  0  0  0
 10 11  1  0  0  0  0
 10 22  1  0  0  0  0
 10 23  1  0  0  0  0
 11 24  1  0  0  0  0
 12 13  1  0  0  0  0
 12 14  1  0  0  0  0
 12 25  1  0  0  0  0
 13 26  1  0  0  0  0
 14 15  1  0  0  0  0
 14 27  1  0  0  0  0
 15 28  1  0  0  0  0
 16 17  2  0  0  0  0
 16 29  1  0  0  0  0
 17 18  1  0  0  0  0
M  END
> <s_m_source_file>
AV-unprocessed.smi

> <i_m_source_file_index>
35

> <i_lp_mmshare_version>
43012

> <i_f3d_flags>
0

> <s_epik_input>
Tz1jMVtuSF1jKD1PKW4oW2NIXWMxQnIpW0NAQEhdMk9bQ0BASF0oW0NIMl1bT0hdKVtDQEBIXShbT0hdKVtDQEhdMltPSF0=

> <s_epik_cmdline>
J2VwaWtfcHl0aG9uJywgJy1waCcsICc3LjAnLCAnLXRuJywgJzgnLCAnLW1hJywgJzIwMCcsICctbWV0YWxfYmluZGluZycsICctaW1hZScsICc8aW5maWxlLm1hZT4nLCAnLW9tYWUnLCAnPG91dGZpbGUubWFlPic=

> <r_lp_tautomer_probability>
0.999537

> <r_epik_Ionization_Penalty>
0.10812

> <r_epik_Ionization_Penalty_Charging>
0.108119

> <r_epik_Ionization_Penalty_Neutral>
4.93006e-07

> <r_epik_State_Penalty>
0.0979238

> <r_epik_Charging_Adjusted_Penalty>
0.206043

> <i_epik_Tot_Q>
0

> <i_epik_Tot_abs_Q>
0

> <r_epik_Metal_State_Penalty>
3.07911

> <b_epik_Metal_Only>
0

> <s_epik_Chemistry_Notes>
This compound contains an acetal/aminal-like group ( X-CH(R)-Y where X, Y are N, S, or O) that may be acid/base labile, releasing an aldehyde.

> <s_lp_Force_Field>
OPLS_2005

> <r_lp_Energy>
26.4636

> <b_lp_Chiralities_Consistent>
1

> <s_lp_Variant>
AV-unprocessed.smi:35-12

> <Gold.Version>
5.8.1

> <Gold.Id.Protein>
6NUR|6NUR_protein|mol2

> <Gold.PLP.Fitness>
37.8640

> <Gold.PLP.PLP>
-23.6049

> <Gold.PLP.part.hbond>
-6.8098

> <Gold.PLP.part.metal>
0.0000

> <Gold.PLP.part.buried>
-0.0283

> <Gold.PLP.part.nonpolar>
-17.4162

> <Gold.PLP.part.repulsive>
0.5793

> <Gold.PLP.ligand.clash>
0.0000

> <Gold.PLP.ligand.torsion>
0.1632

> <Gold.PLP.Chemscore.Hbond>
4.8510

> <Gold.PLP.Chemscore.CHOScore>
0.0000

> <Gold.PLP.Chemscore.Metal>
0.0000

> <Gold.Chemscore.Hbonds>
donor molecule, donor type, donor heavy atom, donor atom, acceptor molecule, acceptor atom, score
      L1  H    11    24       P1 10175  0.85
      L1  H    15    28       P1  8028  1.00
      P1  H  7989  7998       L1     5  0.24
      P1  H  7997  8008       L1     5  0.99
      P1  H  8011  8017       L1     8  0.69
      P1  H 10752 10765       L1     1  1.00

> <Gold.PLP.Chemscore.Internal.Correction>
0.0326

> <Gold.Rescore>
     Score         DG    S(hbond)    S(metal)    S(lipo)     H(rot)  DE(clash)    DE(int)     intcor
     11.22     -13.03       3.85        0.00      35.10       3.67       1.62       0.20       ----

> <Gold.Chemscore.Fitness>
11.2156

> <Gold.Chemscore.DG>
-13.0335

> <Gold.Chemscore.ZeroCoef>
-5.4800

> <Gold.Chemscore.Hbond>
3.8451

> <Gold.Chemscore.Metal>
0.0000

> <Gold.Chemscore.Lipo>
35.0960

> <Gold.Chemscore.Internal_Hbond>
0.0000

> <Gold.Chemscore.DEClash>
1.6216

> <Gold.Chemscore.DEInternal>
0.1963

> <Gold.Chemscore.Rot>
3.6701

> <Gold.Chemscore.Internal.Correction>
   9.000000E+99

> <Gold.Chemscore.Hbonds>
donor molecule, donor type, donor heavy atom, donor atom, acceptor molecule, acceptor atom, score
      L1  H    11    24       P1 10175  0.14
      L1  H    15    28       P1  8028  1.00
      P1  H  7989  7998       L1     5  0.01
      P1  H  7997  8008       L1     5  0.92
      P1  H  8011  8017       L1     8  0.64
      P1  H 10752 10765       L1     1  0.48

> <Gold.Chemscore.Hbond.Weighted>
-12.8427

> <Gold.Chemscore.Metal.Weighted>
-0.0000

> <Gold.Chemscore.Lipo.Weighted>
-4.1062

> <Gold.Chemscore.Internal_Hbond.Weighted>
0.0000

> <Gold.Chemscore.DEClash.Weighted>
1.6216

> <Gold.Chemscore.DEInternal.Weighted>
0.1963

> <Gold.Chemscore.Rot.Weighted>
9.3955

> <Gold.Chemscore.Internal.Correction.Weighted>
   9.000000E+99

> <Gold.Protein.RotatedTorsions>
[ 6907 6896 6895 6894 ] final   44.62 input  -60.11 | X-H torsion
[ 7974 7965 7964 7962 ] final   22.11 input  175.53 | X-H torsion
[ 8008 7997 7996 7995 ] final  -17.38 input   59.86 | X-H torsion
[ 10167 10162 10161 10158 ] final -117.06 input  -65.29 | X-H torsion
[ 10718 10713 10712 10709 ] final   53.33 input   66.30 | X-H torsion
[ 10763 10752 10751 10750 ] final -164.45 input  -60.55 | X-H torsion
[ 11005 11000 10999 10996 ] final  -37.82 input  -57.11 | X-H torsion

> <Gold.Protein.ActiveResidues>
 VAL166  LYS551  ARG553  GLY616  TRP617  ASP618  TYR619  PRO620  LYS621  CYS622 
 ASP623  PHE694  ASN695  SER759  ASP760  ASP761  ALA762  ILE779  LEU786  VAL792 
 PHE793  MET794  SER795  GLU796  ALA797  LYS798  CYS799  TRP800  GLU811  SER814 

> <Gold.Protein.RotatedAtoms>
  152.2348  134.8287  160.0468 H   0  0  0  0  0  0  0  0  0  0  0  0  # atno 6907 bound_to 6896
  151.9023  133.3536  159.3843 H   0  0  0  0  0  0  0  0  0  0  0  0  # atno 6908 bound_to 6896
  150.7036  134.4742  159.5483 H   0  0  0  0  0  0  0  0  0  0  0  0  # atno 6909 bound_to 6896
  146.2043  139.7931  142.8738 H   0  0  0  0  0  0  0  0  0  0  0  0  # atno 7974 bound_to 7965
  154.4983  140.2144  155.9401 H   0  0  0  0  0  0  0  0  0  0  0  0  # atno 8008 bound_to 7997
  156.1399  140.3181  155.8447 H   0  0  0  0  0  0  0  0  0  0  0  0  # atno 8009 bound_to 7997
  155.4139  140.0492  157.3021 H   0  0  0  0  0  0  0  0  0  0  0  0  # atno 8010 bound_to 7997
  140.0724  143.4864  152.1972 H   0  0  0  0  0  0  0  0  0  0  0  0  # atno 10167 bound_to 10162
  157.5157  130.8531  149.8493 H   0  0  0  0  0  0  0  0  0  0  0  0  # atno 10718 bound_to 10713
  154.7027  135.2991  154.9317 H   0  0  0  0  0  0  0  0  0  0  0  0  # atno 10763 bound_to 10752
  154.0244  135.6678  153.4779 H   0  0  0  0  0  0  0  0  0  0  0  0  # atno 10764 bound_to 10752
  153.0693  135.5070  154.8180 H   0  0  0  0  0  0  0  0  0  0  0  0  # atno 10765 bound_to 10752
  140.9981  133.6970  156.1971 H   0  0  0  0  0  0  0  0  0  0  0  0  # atno 11005 bound_to 11000
  145.3376  141.0280  143.3411 LP  0  0  0  0  0  0  0  0  0  0  0  0  # atno 17320 bound_to 7965
  144.8755  139.4978  143.6748 LP  0  0  0  0  0  0  0  0  0  0  0  0  # atno 17321 bound_to 7965
  139.5828  144.7518  151.3597 LP  0  0  0  0  0  0  0  0  0  0  0  0  # atno 17342 bound_to 10162
  140.7119  143.7369  150.7582 LP  0  0  0  0  0  0  0  0  0  0  0  0  # atno 17343 bound_to 10162
  156.0319  130.3762  150.1665 LP  0  0  0  0  0  0  0  0  0  0  0  0  # atno 17370 bound_to 10713
  156.9854  130.9877  151.3427 LP  0  0  0  0  0  0  0  0  0  0  0  0  # atno 17371 bound_to 10713
  140.6934  134.4642  157.5588 LP  0  0  0  0  0  0  0  0  0  0  0  0  # atno 17394 bound_to 11000
  139.9024  134.8524  156.1839 LP  0  0  0  0  0  0  0  0  0  0  0  0  # atno 17395 bound_to 11000

$$$$
