AV-unprocessed.smi:2345|AV-procd|sdf|9362|dock9
  -GOLD-   2272012583D 1   1.00000     0.00000
 Structure written by MMmdl.
 37 38  0  0  0  0  0  0  0  0  1 V2000
  151.8869  139.4246  154.9528 C   0  0  0  0  0  0  0  0  0  0  0  0
  150.3969  139.7504  155.0802 C   0  0  0  0  0  0  0  0  0  0  0  0
  149.3707  138.4710  154.3044 S   0  0  0  0  0  0  0  0  0  0  0  0
  147.6988  139.0968  154.6947 C   0  0  1  0  0  0  0  0  0  0  0  0
  147.7183  140.6258  154.7521 C   0  0  0  0  0  0  0  0  0  0  0  0
  147.5402  141.0676  153.3008 C   0  0  0  0  0  0  0  0  0  0  0  0
  146.6162  140.0192  152.6725 C   0  0  0  0  0  0  0  0  0  0  0  0
  146.6425  138.7909  153.6038 C   0  0  1  0  0  0  0  0  0  0  0  0
  146.8948  137.5618  152.8529 N   0  0  0  0  0  0  0  0  0  0  0  0
  145.9672  136.6524  152.5231 C   0  0  0  0  0  0  0  0  0  0  0  0
  144.7760  136.7627  152.8126 O   0  0  0  0  0  0  0  0  0  0  0  0
  146.5192  135.6124  151.8758 N   0  0  0  0  0  0  0  0  0  0  0  0
  145.8908  134.4359  151.3842 C   0  0  0  0  0  0  0  0  0  0  0  0
  144.6192  134.4160  150.7613 C   0  0  0  0  0  0  0  0  0  0  0  0
  144.1130  133.1839  150.3003 C   0  0  0  0  0  0  0  0  0  0  0  0
  144.7804  132.0160  150.4128 N   0  0  0  0  0  0  0  0  0  0  0  0
  145.9984  132.0412  150.9942 C   0  0  0  0  0  0  0  0  0  0  0  0
  146.5958  133.2180  151.4888 C   0  0  0  0  0  0  0  0  0  0  0  0
  147.8244  133.1736  152.0587 F   0  0  0  0  0  0  0  0  0  0  0  0
  152.4952  140.1979  155.4222 H   0  0  0  0  0  0  0  0  0  0  0  0
  152.1867  139.3526  153.9069 H   0  0  0  0  0  0  0  0  0  0  0  0
  152.1226  138.4762  155.4367 H   0  0  0  0  0  0  0  0  0  0  0  0
  150.1311  139.8403  156.1325 H   0  0  0  0  0  0  0  0  0  0  0  0
  150.1773  140.7103  154.6122 H   0  0  0  0  0  0  0  0  0  0  0  0
  147.3978  138.6882  155.6599 H   0  0  0  0  0  0  0  0  0  0  0  0
  146.8726  140.9780  155.3443 H   0  0  0  0  0  0  0  0  0  0  0  0
  148.6247  141.0275  155.2065 H   0  0  0  0  0  0  0  0  0  0  0  0
  147.1409  142.0788  153.2192 H   0  0  0  0  0  0  0  0  0  0  0  0
  148.5064  141.0542  152.7945 H   0  0  0  0  0  0  0  0  0  0  0  0
  145.5988  140.4047  152.5965 H   0  0  0  0  0  0  0  0  0  0  0  0
  146.9445  139.7838  151.6591 H   0  0  0  0  0  0  0  0  0  0  0  0
  145.6644  138.7301  154.0852 H   0  0  0  0  0  0  0  0  0  0  0  0
  147.8523  137.3835  152.5873 H   0  0  0  0  0  0  0  0  0  0  0  0
  147.5247  135.6302  151.7868 H   0  0  0  0  0  0  0  0  0  0  0  0
  144.0335  135.3108  150.6178 H   0  0  0  0  0  0  0  0  0  0  0  0
  143.1460  133.1369  149.8215 H   0  0  0  0  0  0  0  0  0  0  0  0
  146.5136  131.0948  151.0664 H   0  0  0  0  0  0  0  0  0  0  0  0
  1  2  1  0  0  0  0
  1 20  1  0  0  0  0
  1 21  1  0  0  0  0
  1 22  1  0  0  0  0
  2  3  1  0  0  0  0
  2 23  1  0  0  0  0
  2 24  1  0  0  0  0
  3  4  1  0  0  0  0
  4  8  1  0  0  0  0
  4  5  1  0  0  0  0
  4 25  1  0  0  0  0
  5  6  1  0  0  0  0
  5 26  1  0  0  0  0
  5 27  1  0  0  0  0
  6  7  1  0  0  0  0
  6 28  1  0  0  0  0
  6 29  1  0  0  0  0
  7  8  1  0  0  0  0
  7 30  1  0  0  0  0
  7 31  1  0  0  0  0
  8  9  1  0  0  0  0
  8 32  1  0  0  0  0
  9 10  1  0  0  0  0
  9 33  1  0  0  0  0
 10 11  2  0  0  0  0
 10 12  1  0  0  0  0
 12 13  1  0  0  0  0
 12 34  1  0  0  0  0
 13 18  1  0  0  0  0
 13 14  2  0  0  0  0
 14 15  1  0  0  0  0
 14 35  1  0  0  0  0
 15 16  2  0  0  0  0
 15 36  1  0  0  0  0
 16 17  1  0  0  0  0
 17 18  2  0  0  0  0
 17 37  1  0  0  0  0
 18 19  1  0  0  0  0
M  END
> <s_m_source_file>
AV-unprocessed.smi

> <i_m_source_file_index>
2345

> <i_lp_mmshare_version>
43012

> <i_f3d_flags>
0

> <s_epik_input>
W0NIM11bQ0gyXVNbQ0BASF0xW0NIMl1bQ0gyXVtDSDJdW0NASF0xW05IXUMoPU8pW05IXWMyW2NIXVtjSF1uW2NIXWMyRg==

> <s_epik_cmdline>
J2VwaWtfcHl0aG9uJywgJy1waCcsICc3LjAnLCAnLXRuJywgJzgnLCAnLW1hJywgJzIwMCcsICctbWV0YWxfYmluZGluZycsICctaW1hZScsICc8aW5maWxlLm1hZT4nLCAnLW9tYWUnLCAnPG91dGZpbGUubWFlPic=

> <r_epik_Ionization_Penalty>
0.00333745

> <r_epik_Ionization_Penalty_Charging>
0

> <r_epik_Ionization_Penalty_Neutral>
0.00333745

> <r_epik_State_Penalty>
0.00233401

> <r_epik_Charging_Adjusted_Penalty>
0.00233401

> <i_epik_Tot_Q>
0

> <i_epik_Tot_abs_Q>
0

> <r_epik_Metal_State_Penalty>
-0

> <b_epik_Metal_Only>
0

> <s_lp_Force_Field>
OPLS_2005

> <r_lp_Energy>
24.8038

> <b_lp_Chiralities_Consistent>
1

> <s_lp_Variant>
AV-unprocessed.smi:2345-2

> <Gold.Version>
5.8.1

> <Gold.Id.Protein>
6NUR|6NUR_protein|mol2

> <Gold.PLP.Fitness>
39.2172

> <Gold.PLP.PLP>
-30.6443

> <Gold.PLP.part.hbond>
-1.8888

> <Gold.PLP.part.metal>
0.0000

> <Gold.PLP.part.buried>
-0.8490

> <Gold.PLP.part.nonpolar>
-28.4146

> <Gold.PLP.part.repulsive>
0.4220

> <Gold.PLP.ligand.clash>
0.0000

> <Gold.PLP.ligand.torsion>
0.9115

> <Gold.PLP.Chemscore.Hbond>
1.9280

> <Gold.PLP.Chemscore.CHOScore>
1.5327

> <Gold.PLP.Chemscore.Metal>
0.0000

> <Gold.Chemscore.Hbonds>
donor molecule, donor type, donor heavy atom, donor atom, acceptor molecule, acceptor atom, score
      L1  H     9    33       P1  7948  0.91
      L1  H    12    34       P1  7948  0.96
      L1  C    15    36       P1 10186  1.00
      L1  C    17    37       P1 10747  0.69

> <Gold.PLP.Chemscore.Internal.Correction>
0.0140

> <Gold.Rescore>
     Score         DG    S(hbond)    S(metal)    S(lipo)     H(rot)  DE(clash)    DE(int)     intcor
     16.81     -18.13       1.91        0.00      83.20       1.35       0.46       0.86       ----

> <Gold.Chemscore.Fitness>
16.8132

> <Gold.Chemscore.DG>
-18.1312

> <Gold.Chemscore.ZeroCoef>
-5.4800

> <Gold.Chemscore.Hbond>
1.9061

> <Gold.Chemscore.Metal>
0.0000

> <Gold.Chemscore.Lipo>
83.2001

> <Gold.Chemscore.Internal_Hbond>
0.0000

> <Gold.Chemscore.DEClash>
0.4574

> <Gold.Chemscore.DEInternal>
0.8605

> <Gold.Chemscore.Rot>
1.3475

> <Gold.Chemscore.Internal.Correction>
   9.000000E+99

> <Gold.Chemscore.Hbonds>
donor molecule, donor type, donor heavy atom, donor atom, acceptor molecule, acceptor atom, score
      L1  H     9    33       P1  7948  0.90
      L1  H    12    34       P1  7948  0.90

> <Gold.Chemscore.Hbond.Weighted>
-6.3664

> <Gold.Chemscore.Metal.Weighted>
-0.0000

> <Gold.Chemscore.Lipo.Weighted>
-9.7344

> <Gold.Chemscore.Internal_Hbond.Weighted>
0.0000

> <Gold.Chemscore.DEClash.Weighted>
0.4574

> <Gold.Chemscore.DEInternal.Weighted>
0.8605

> <Gold.Chemscore.Rot.Weighted>
3.4496

> <Gold.Chemscore.Internal.Correction.Weighted>
   9.000000E+99

> <Gold.Protein.RotatedTorsions>
[ 6907 6896 6895 6894 ] final  -64.01 input  -60.11 | X-H torsion
[ 7974 7965 7964 7962 ] final  -20.55 input  175.53 | X-H torsion
[ 8008 7997 7996 7995 ] final  -97.56 input   59.86 | X-H torsion
[ 10167 10162 10161 10158 ] final  -55.28 input  -65.29 | X-H torsion
[ 10718 10713 10712 10709 ] final   35.97 input   66.30 | X-H torsion
[ 10763 10752 10751 10750 ] final  169.04 input  -60.55 | X-H torsion
[ 11005 11000 10999 10996 ] final   66.78 input  -57.11 | X-H torsion

> <Gold.Protein.ActiveResidues>
 VAL166  LYS551  ARG553  GLY616  TRP617  ASP618  TYR619  PRO620  LYS621  CYS622 
 ASP623  PHE694  ASN695  SER759  ASP760  ASP761  ALA762  ILE779  LEU786  VAL792 
 PHE793  MET794  SER795  GLU796  ALA797  LYS798  CYS799  TRP800  GLU811  SER814 

> <Gold.Protein.RotatedAtoms>
  150.7612  134.6357  159.6209 H   0  0  0  0  0  0  0  0  0  0  0  0  # atno 6907 bound_to 6896
  152.3621  134.6854  160.0213 H   0  0  0  0  0  0  0  0  0  0  0  0  # atno 6908 bound_to 6896
  151.7241  133.3279  159.3359 H   0  0  0  0  0  0  0  0  0  0  0  0  # atno 6909 bound_to 6896
  146.1782  140.4217  142.8505 H   0  0  0  0  0  0  0  0  0  0  0  0  # atno 7974 bound_to 7965
  154.7893  140.0462  157.1188 H   0  0  0  0  0  0  0  0  0  0  0  0  # atno 8008 bound_to 7997
  154.9610  140.3077  155.5011 H   0  0  0  0  0  0  0  0  0  0  0  0  # atno 8009 bound_to 7997
  156.2947  140.2270  156.4695 H   0  0  0  0  0  0  0  0  0  0  0  0  # atno 8010 bound_to 7997
  140.6383  143.2494  151.5057 H   0  0  0  0  0  0  0  0  0  0  0  0  # atno 10167 bound_to 10162
  157.3292  130.7489  149.6836 H   0  0  0  0  0  0  0  0  0  0  0  0  # atno 10718 bound_to 10713
  154.3774  135.2753  155.2231 H   0  0  0  0  0  0  0  0  0  0  0  0  # atno 10763 bound_to 10752
  154.4353  135.5967  153.6098 H   0  0  0  0  0  0  0  0  0  0  0  0  # atno 10764 bound_to 10752
  152.9836  135.6005  154.4012 H   0  0  0  0  0  0  0  0  0  0  0  0  # atno 10765 bound_to 10752
  139.9810  134.6743  156.0262 H   0  0  0  0  0  0  0  0  0  0  0  0  # atno 11005 bound_to 11000
  144.8271  140.6646  143.6315 LP  0  0  0  0  0  0  0  0  0  0  0  0  # atno 17320 bound_to 7965
  145.4151  139.1573  143.4104 LP  0  0  0  0  0  0  0  0  0  0  0  0  # atno 17321 bound_to 7965
  139.5593  144.2197  152.1665 LP  0  0  0  0  0  0  0  0  0  0  0  0  # atno 17342 bound_to 10162
  140.1460  144.5159  150.6716 LP  0  0  0  0  0  0  0  0  0  0  0  0  # atno 17343 bound_to 10162
  155.9694  130.4200  150.4403 LP  0  0  0  0  0  0  0  0  0  0  0  0  # atno 17370 bound_to 10713
  157.2432  131.0530  151.2424 LP  0  0  0  0  0  0  0  0  0  0  0  0  # atno 17371 bound_to 10713
  141.1482  133.6552  156.3933 LP  0  0  0  0  0  0  0  0  0  0  0  0  # atno 17394 bound_to 11000
  140.5096  134.6408  157.5279 LP  0  0  0  0  0  0  0  0  0  0  0  0  # atno 17395 bound_to 11000

$$$$
