AV-unprocessed.smi:891|AV-procd|sdf|4063|dock5
  -GOLD-   22720 1553D 1   1.00000     0.00000
 Structure written by MMmdl.
 38 38  0  0  0  0  0  0  0  0  1 V2000
  151.8864  145.6778  160.5394 C   0  0  0  0  0  0  0  0  0  0  0  0
  152.0483  144.4493  159.6928 C   0  0  0  0  0  0  0  0  0  0  0  0
  151.7468  144.4822  158.4037 N   0  0  0  0  0  0  0  0  0  0  0  0
  151.9839  143.2270  157.9425 N   0  0  0  0  0  0  0  0  0  0  0  0
  151.6804  142.9254  156.5499 C   0  0  0  0  0  0  0  0  0  0  0  0
  150.5764  141.8703  156.4694 C   0  0  0  0  0  0  0  0  0  0  0  0
  150.8117  140.7042  156.7836 O   0  0  0  0  0  0  0  0  0  0  0  0
  149.3965  142.2905  155.9885 N   0  0  0  0  0  0  0  0  0  0  0  0
  148.3116  141.4327  155.5253 C   0  0  0  0  0  0  0  0  0  0  0  0
  147.8480  141.8428  154.1093 C   0  0  2  0  0  0  0  0  0  0  0  0
  146.5733  142.6988  154.2005 C   0  0  0  0  0  0  0  0  0  0  0  0
  147.6542  140.6252  153.1719 C   0  0  0  0  0  0  0  0  0  0  0  0
  146.6131  139.6106  153.6691 C   0  0  0  0  0  0  0  0  0  0  0  0
  145.9645  139.0177  152.5645 O   0  0  0  0  0  0  0  0  0  0  0  0
  152.4589  142.3871  158.9404 C   0  0  0  0  0  0  0  0  0  0  0  0
  152.8009  140.9479  158.7260 C   0  0  0  0  0  0  0  0  0  0  0  0
  152.4982  143.1569  160.0647 C   0  0  0  0  0  0  0  0  0  0  0  0
  152.9823  142.6531  161.6429 Cl  0  0  0  0  0  0  0  0  0  0  0  0
  152.8387  146.1936  160.6623 H   0  0  0  0  0  0  0  0  0  0  0  0
  151.5156  145.4219  161.5320 H   0  0  0  0  0  0  0  0  0  0  0  0
  151.1806  146.3808  160.0957 H   0  0  0  0  0  0  0  0  0  0  0  0
  151.3641  143.8388  156.0436 H   0  0  0  0  0  0  0  0  0  0  0  0
  152.5797  142.5748  156.0434 H   0  0  0  0  0  0  0  0  0  0  0  0
  149.3014  143.2755  155.7894 H   0  0  0  0  0  0  0  0  0  0  0  0
  148.5974  140.3795  155.5360 H   0  0  0  0  0  0  0  0  0  0  0  0
  147.4872  141.5343  156.2319 H   0  0  0  0  0  0  0  0  0  0  0  0
  148.6332  142.4695  153.6836 H   0  0  0  0  0  0  0  0  0  0  0  0
  145.7351  142.1197  154.5891 H   0  0  0  0  0  0  0  0  0  0  0  0
  146.2828  143.0955  153.2280 H   0  0  0  0  0  0  0  0  0  0  0  0
  146.7208  143.5523  154.8627 H   0  0  0  0  0  0  0  0  0  0  0  0
  147.3264  140.9616  152.1894 H   0  0  0  0  0  0  0  0  0  0  0  0
  148.6120  140.1287  153.0100 H   0  0  0  0  0  0  0  0  0  0  0  0
  147.0769  138.8255  154.2656 H   0  0  0  0  0  0  0  0  0  0  0  0
  145.8648  140.1016  154.2921 H   0  0  0  0  0  0  0  0  0  0  0  0
  145.1460  139.4672  152.4188 H   0  0  0  0  0  0  0  0  0  0  0  0
  153.3729  140.5541  159.5659 H   0  0  0  0  0  0  0  0  0  0  0  0
  153.4019  140.8135  157.8272 H   0  0  0  0  0  0  0  0  0  0  0  0
  151.8983  140.3454  158.6289 H   0  0  0  0  0  0  0  0  0  0  0  0
  1  2  1  0  0  0  0
  1 19  1  0  0  0  0
  1 20  1  0  0  0  0
  1 21  1  0  0  0  0
  2 17  1  0  0  0  0
  2  3  2  0  0  0  0
  3  4  1  0  0  0  0
  4  5  1  0  0  0  0
  4 15  1  0  0  0  0
  5  6  1  0  0  0  0
  5 22  1  0  0  0  0
  5 23  1  0  0  0  0
  6  7  2  0  0  0  0
  6  8  1  0  0  0  0
  8  9  1  0  0  0  0
  8 24  1  0  0  0  0
  9 10  1  0  0  0  0
  9 25  1  0  0  0  0
  9 26  1  0  0  0  0
 10 11  1  0  0  0  0
 10 12  1  0  0  0  0
 10 27  1  0  0  0  0
 11 28  1  0  0  0  0
 11 29  1  0  0  0  0
 11 30  1  0  0  0  0
 12 13  1  0  0  0  0
 12 31  1  0  0  0  0
 12 32  1  0  0  0  0
 13 14  1  0  0  0  0
 13 33  1  0  0  0  0
 13 34  1  0  0  0  0
 14 35  1  0  0  0  0
 15 16  1  0  0  0  0
 15 17  2  0  0  0  0
 16 36  1  0  0  0  0
 16 37  1  0  0  0  0
 16 38  1  0  0  0  0
 17 18  1  0  0  0  0
M  END
> <s_m_source_file>
AV-unprocessed.smi

> <i_m_source_file_index>
891

> <i_lp_mmshare_version>
43012

> <i_f3d_flags>
0

> <s_epik_input>
W0NIM11jMW5uKGMoW0NIM10pYzFDbClbQ0gyXUMoPU8pW05IXVtDSDJdW0NASF0oW0NIM10pW0NIMl1bQ0gyXVtPSF0=

> <s_epik_cmdline>
J2VwaWtfcHl0aG9uJywgJy1waCcsICc3LjAnLCAnLXRuJywgJzgnLCAnLW1hJywgJzIwMCcsICctbWV0YWxfYmluZGluZycsICctaW1hZScsICc8aW5maWxlLm1hZT4nLCAnLW9tYWUnLCAnPG91dGZpbGUubWFlPic=

> <r_lp_tautomer_probability>
1

> <r_epik_Ionization_Penalty>
4.9564e-06

> <r_epik_Ionization_Penalty_Charging>
0

> <r_epik_Ionization_Penalty_Neutral>
4.9564e-06

> <r_epik_State_Penalty>
-0

> <r_epik_Charging_Adjusted_Penalty>
0

> <i_epik_Tot_Q>
0

> <i_epik_Tot_abs_Q>
0

> <r_epik_Metal_State_Penalty>
-0

> <b_epik_Metal_Only>
0

> <s_lp_Force_Field>
OPLS_2005

> <r_lp_Energy>
6.31297

> <b_lp_Chiralities_Consistent>
1

> <s_lp_Variant>
AV-unprocessed.smi:891-1

> <Gold.Version>
5.8.1

> <Gold.Id.Protein>
6NUR|6NUR_protein|mol2

> <Gold.PLP.Fitness>
44.4634

> <Gold.PLP.PLP>
-40.2594

> <Gold.PLP.part.hbond>
-1.9644

> <Gold.PLP.part.metal>
0.0000

> <Gold.PLP.part.buried>
-4.2769

> <Gold.PLP.part.nonpolar>
-34.9811

> <Gold.PLP.part.repulsive>
0.2401

> <Gold.PLP.ligand.clash>
0.0000

> <Gold.PLP.ligand.torsion>
0.9488

> <Gold.PLP.Chemscore.Hbond>
2.0000

> <Gold.PLP.Chemscore.CHOScore>
0.0000

> <Gold.PLP.Chemscore.Metal>
0.0000

> <Gold.Chemscore.Hbonds>
donor molecule, donor type, donor heavy atom, donor atom, acceptor molecule, acceptor atom, score
      L1  H     8    24       P1  8028  0.94
      L1  H    14    35       P1 10175  1.00

> <Gold.PLP.Chemscore.Internal.Correction>
0.1016

> <Gold.Rescore>
     Score         DG    S(hbond)    S(metal)    S(lipo)     H(rot)  DE(clash)    DE(int)     intcor
     13.86     -17.67       2.00        0.00     104.56       2.62       1.56       2.25       ----

> <Gold.Chemscore.Fitness>
13.8553

> <Gold.Chemscore.DG>
-17.6713

> <Gold.Chemscore.ZeroCoef>
-5.4800

> <Gold.Chemscore.Hbond>
1.9992

> <Gold.Chemscore.Metal>
0.0000

> <Gold.Chemscore.Lipo>
104.5582

> <Gold.Chemscore.Internal_Hbond>
0.0000

> <Gold.Chemscore.DEClash>
1.5625

> <Gold.Chemscore.DEInternal>
2.2535

> <Gold.Chemscore.Rot>
2.6247

> <Gold.Chemscore.Internal.Correction>
   9.000000E+99

> <Gold.Chemscore.Hbonds>
donor molecule, donor type, donor heavy atom, donor atom, acceptor molecule, acceptor atom, score
      L1  H     8    24       P1  8028  0.90
      L1  H    14    35       P1 10175  1.00

> <Gold.Chemscore.Hbond.Weighted>
-6.6772

> <Gold.Chemscore.Metal.Weighted>
-0.0000

> <Gold.Chemscore.Lipo.Weighted>
-12.2333

> <Gold.Chemscore.Internal_Hbond.Weighted>
0.0000

> <Gold.Chemscore.DEClash.Weighted>
1.5625

> <Gold.Chemscore.DEInternal.Weighted>
2.2535

> <Gold.Chemscore.Rot.Weighted>
6.7192

> <Gold.Chemscore.Internal.Correction.Weighted>
   9.000000E+99

> <Gold.Protein.RotatedTorsions>
[ 6907 6896 6895 6894 ] final  -78.66 input  -60.11 | X-H torsion
[ 7974 7965 7964 7962 ] final -144.86 input  175.53 | X-H torsion
[ 8008 7997 7996 7995 ] final -178.59 input   59.86 | X-H torsion
[ 10167 10162 10161 10158 ] final  123.87 input  -65.29 | X-H torsion
[ 10718 10713 10712 10709 ] final  179.78 input   66.30 | X-H torsion
[ 10763 10752 10751 10750 ] final -143.57 input  -60.55 | X-H torsion
[ 11005 11000 10999 10996 ] final  -25.30 input  -57.11 | X-H torsion

> <Gold.Protein.ActiveResidues>
 VAL166  LYS551  ARG553  GLY616  TRP617  ASP618  TYR619  PRO620  LYS621  CYS622 
 ASP623  PHE694  ASN695  SER759  ASP760  ASP761  ALA762  ILE779  LEU786  VAL792 
 PHE793  MET794  SER795  GLU796  ALA797  LYS798  CYS799  TRP800  GLU811  SER814 

> <Gold.Protein.RotatedAtoms>
  150.6967  134.4238  159.5216 H   0  0  0  0  0  0  0  0  0  0  0  0  # atno 6907 bound_to 6896
  152.1976  134.8614  160.0520 H   0  0  0  0  0  0  0  0  0  0  0  0  # atno 6908 bound_to 6896
  151.9546  133.3641  159.4049 H   0  0  0  0  0  0  0  0  0  0  0  0  # atno 6909 bound_to 6896
  144.8268  140.5657  143.5542 H   0  0  0  0  0  0  0  0  0  0  0  0  # atno 7974 bound_to 7965
  156.0206  140.1260  157.0362 H   0  0  0  0  0  0  0  0  0  0  0  0  # atno 8008 bound_to 7997
  154.4310  140.1069  156.6027 H   0  0  0  0  0  0  0  0  0  0  0  0  # atno 8009 bound_to 7997
  155.5951  140.3470  155.4579 H   0  0  0  0  0  0  0  0  0  0  0  0  # atno 8010 bound_to 7997
  139.5774  144.6970  151.3617 H   0  0  0  0  0  0  0  0  0  0  0  0  # atno 10167 bound_to 10162
  156.8707  130.9783  151.3073 H   0  0  0  0  0  0  0  0  0  0  0  0  # atno 10718 bound_to 10713
  154.8464  135.3464  154.6208 H   0  0  0  0  0  0  0  0  0  0  0  0  # atno 10763 bound_to 10752
  153.6817  135.6980  153.5121 H   0  0  0  0  0  0  0  0  0  0  0  0  # atno 10764 bound_to 10752
  153.2663  135.4307  155.0900 H   0  0  0  0  0  0  0  0  0  0  0  0  # atno 10765 bound_to 10752
  140.8925  133.7578  156.0439 H   0  0  0  0  0  0  0  0  0  0  0  0  # atno 11005 bound_to 11000
  145.4983  139.1484  143.3671 LP  0  0  0  0  0  0  0  0  0  0  0  0  # atno 17320 bound_to 7965
  146.2573  140.5122  142.8868 LP  0  0  0  0  0  0  0  0  0  0  0  0  # atno 17321 bound_to 7965
  140.7055  143.7524  150.7475 LP  0  0  0  0  0  0  0  0  0  0  0  0  # atno 17342 bound_to 10162
  140.1047  143.4755  152.2405 LP  0  0  0  0  0  0  0  0  0  0  0  0  # atno 17343 bound_to 10162
  157.6197  130.8645  149.9088 LP  0  0  0  0  0  0  0  0  0  0  0  0  # atno 17370 bound_to 10713
  156.0728  130.3683  150.0741 LP  0  0  0  0  0  0  0  0  0  0  0  0  # atno 17371 bound_to 10713
  140.8329  134.3157  157.5342 LP  0  0  0  0  0  0  0  0  0  0  0  0  # atno 17394 bound_to 11000
  139.8731  134.9373  156.3684 LP  0  0  0  0  0  0  0  0  0  0  0  0  # atno 17395 bound_to 11000

$$$$
