AV-unprocessed.smi:1198|AV-procd|sdf|5011|dock1
  -GOLD-   22720 4 23D 1   1.00000     0.00000
 Structure written by MMmdl.
 40 41  0  0  0  0  0  0  0  0  2 V2000
  150.6932  142.3554  157.3842 C   0  0  0  0  0  0  0  0  0  0  0  0
  151.2836  141.6342  156.3083 O   0  0  0  0  0  0  0  0  0  0  0  0
  150.4912  140.7598  155.5933 C   0  0  0  0  0  0  0  0  0  0  0  0
  149.0923  140.8573  155.7230 C   0  0  0  0  0  0  0  0  0  0  0  0
  148.2810  139.9678  154.9940 C   0  0  0  0  0  0  0  0  0  0  0  0
  148.8852  139.0082  154.1564 C   0  0  0  0  0  0  0  0  0  0  0  0
  148.0251  138.1278  153.4425 N   0  0  0  0  0  0  0  0  0  0  0  0
  146.6821  138.0650  153.4312 C   0  0  0  0  0  0  0  0  0  0  0  0
  145.9231  138.7962  154.0656 O   0  0  0  0  0  0  0  0  0  0  0  0
  146.2535  137.0763  152.6331 N   0  0  0  0  0  0  0  0  0  0  0  0
  144.8557  136.7335  152.3858 C   0  0  0  0  0  0  0  0  0  0  0  0
  144.6641  135.2269  152.1238 C   0  0  1  0  0  0  0  0  0  0  0  0
  143.3770  134.6214  152.6851 C   0  0  0  0  0  0  0  0  0  0  0  0
  143.2247  133.3426  151.8675 C   0  0  0  0  0  0  0  0  0  0  0  0
  143.7053  133.6881  150.5132 N   0  3  2  0  0  0  0  0  0  0  0  0
  144.2844  132.5513  149.7672 C   0  0  0  0  0  0  0  0  0  0  0  0
  144.5985  134.8651  150.6321 C   0  0  0  0  0  0  0  0  0  0  0  0
  150.3013  138.9879  154.0991 C   0  0  0  0  0  0  0  0  0  0  0  0
  151.0847  139.8391  154.7951 N   0  0  0  0  0  0  0  0  0  0  0  0
  151.4449  142.9970  157.8436 H   0  0  0  0  0  0  0  0  0  0  0  0
  150.3160  141.6828  158.1561 H   0  0  0  0  0  0  0  0  0  0  0  0
  149.8802  142.9949  157.0374 H   0  0  0  0  0  0  0  0  0  0  0  0
  148.6496  141.6004  156.3695 H   0  0  0  0  0  0  0  0  0  0  0  0
  147.2055  140.0252  155.0790 H   0  0  0  0  0  0  0  0  0  0  0  0
  148.4990  137.4387  152.8769 H   0  0  0  0  0  0  0  0  0  0  0  0
  146.9475  136.5237  152.1510 H   0  0  0  0  0  0  0  0  0  0  0  0
  144.2246  137.0639  153.2128 H   0  0  0  0  0  0  0  0  0  0  0  0
  144.5290  137.2978  151.5120 H   0  0  0  0  0  0  0  0  0  0  0  0
  145.5050  134.6852  152.5606 H   0  0  0  0  0  0  0  0  0  0  0  0
  143.4271  134.4307  153.7577 H   0  0  0  0  0  0  0  0  0  0  0  0
  142.5312  135.2847  152.4978 H   0  0  0  0  0  0  0  0  0  0  0  0
  143.8531  132.5610  152.2982 H   0  0  0  0  0  0  0  0  0  0  0  0
  142.1981  132.9758  151.8481 H   0  0  0  0  0  0  0  0  0  0  0  0
  145.1675  132.1581  150.2725 H   0  0  0  0  0  0  0  0  0  0  0  0
  144.5733  132.8621  148.7628 H   0  0  0  0  0  0  0  0  0  0  0  0
  143.5546  131.7462  149.6742 H   0  0  0  0  0  0  0  0  0  0  0  0
  144.1585  135.6768  150.0516 H   0  0  0  0  0  0  0  0  0  0  0  0
  145.5948  134.6780  150.2284 H   0  0  0  0  0  0  0  0  0  0  0  0
  150.8491  138.2824  153.4966 H   0  0  0  0  0  0  0  0  0  0  0  0
  142.8979  134.0041  149.9946 H   0  0  0  0  0  0  0  0  0  0  0  0
  1  2  1  0  0  0  0
  1 20  1  0  0  0  0
  1 21  1  0  0  0  0
  1 22  1  0  0  0  0
  2  3  1  0  0  0  0
  3 19  1  0  0  0  0
  3  4  2  0  0  0  0
  4  5  1  0  0  0  0
  4 23  1  0  0  0  0
  5  6  2  0  0  0  0
  5 24  1  0  0  0  0
  6  7  1  0  0  0  0
  6 18  1  0  0  0  0
  7  8  1  0  0  0  0
  7 25  1  0  0  0  0
  8  9  2  0  0  0  0
  8 10  1  0  0  0  0
 10 11  1  0  0  0  0
 10 26  1  0  0  0  0
 11 12  1  0  0  0  0
 11 27  1  0  0  0  0
 11 28  1  0  0  0  0
 12 17  1  0  0  0  0
 12 13  1  0  0  0  0
 12 29  1  0  0  0  0
 13 14  1  0  0  0  0
 13 30  1  0  0  0  0
 13 31  1  0  0  0  0
 14 15  1  0  0  0  0
 14 32  1  0  0  0  0
 14 33  1  0  0  0  0
 15 16  1  0  0  0  0
 15 17  1  0  0  0  0
 15 40  1  0  0  0  0
 16 34  1  0  0  0  0
 16 35  1  0  0  0  0
 16 36  1  0  0  0  0
 17 37  1  0  0  0  0
 17 38  1  0  0  0  0
 18 19  2  0  0  0  0
 18 39  1  0  0  0  0
M  CHG  1  15   1
M  END
> <s_m_source_file>
AV-unprocessed.smi

> <i_m_source_file_index>
1198

> <i_lp_mmshare_version>
43012

> <i_f3d_flags>
0

> <s_epik_input>
W0NIM11PYzFbY0hdW2NIXWMoW2NIXW4xKVtOSF1DKD1PKVtOSF1bQ0gyXVtDQEBIXTJbQ0gyXVtDSDJdTihbQ0gzXSlbQ0gyXTI=

> <s_epik_cmdline>
J2VwaWtfcHl0aG9uJywgJy1waCcsICc3LjAnLCAnLXRuJywgJzgnLCAnLW1hJywgJzIwMCcsICctbWV0YWxfYmluZGluZycsICctaW1hZScsICc8aW5maWxlLm1hZT4nLCAnLW9tYWUnLCAnPG91dGZpbGUubWFlPic=

> <r_lp_tautomer_probability>
1

> <r_epik_Ionization_Penalty>
0.00131396

> <r_epik_Ionization_Penalty_Charging>
0.0012301

> <r_epik_Ionization_Penalty_Neutral>
8.38549e-05

> <r_epik_State_Penalty>
0.00081314

> <r_epik_Charging_Adjusted_Penalty>
0.00204324

> <i_epik_Tot_Q>
1

> <i_epik_Tot_abs_Q>
1

> <r_epik_Metal_State_Penalty>
-0

> <b_epik_Metal_Only>
0

> <s_lp_Force_Field>
OPLS_2005

> <r_lp_Energy>
29.7758

> <b_lp_Chiralities_Consistent>
1

> <s_lp_Variant>
AV-unprocessed.smi:1198-2

> <Gold.Version>
5.8.1

> <Gold.Id.Protein>
6NUR|6NUR_protein|mol2

> <Gold.PLP.Fitness>
45.0483

> <Gold.PLP.PLP>
-32.2458

> <Gold.PLP.part.hbond>
-4.0739

> <Gold.PLP.part.metal>
0.0000

> <Gold.PLP.part.buried>
-2.7257

> <Gold.PLP.part.nonpolar>
-24.6552

> <Gold.PLP.part.repulsive>
0.3344

> <Gold.PLP.ligand.clash>
0.0000

> <Gold.PLP.ligand.torsion>
0.8951

> <Gold.PLP.Chemscore.Hbond>
4.8620

> <Gold.PLP.Chemscore.CHOScore>
0.0000

> <Gold.PLP.Chemscore.Metal>
0.0000

> <Gold.Chemscore.Hbonds>
donor molecule, donor type, donor heavy atom, donor atom, acceptor molecule, acceptor atom, score
      L1  H     7    25       P1  7948  1.00
      L1  H    10    26       P1  7948  0.91
      L1  H    15    40       P1 10186  2.00
      P1  H  7989  7998       L1    19  1.00

> <Gold.PLP.Chemscore.Internal.Correction>
0.0068

> <Gold.Rescore>
     Score         DG    S(hbond)    S(metal)    S(lipo)     H(rot)  DE(clash)    DE(int)     intcor
     16.99     -19.36       2.92        0.00      68.44       1.51       0.07       2.31       ----

> <Gold.Chemscore.Fitness>
16.9867

> <Gold.Chemscore.DG>
-19.3639

> <Gold.Chemscore.ZeroCoef>
-5.4800

> <Gold.Chemscore.Hbond>
2.9207

> <Gold.Chemscore.Metal>
0.0000

> <Gold.Chemscore.Lipo>
68.4360

> <Gold.Chemscore.Internal_Hbond>
0.0000

> <Gold.Chemscore.DEClash>
0.0684

> <Gold.Chemscore.DEInternal>
2.3088

> <Gold.Chemscore.Rot>
1.5149

> <Gold.Chemscore.Internal.Correction>
   9.000000E+99

> <Gold.Chemscore.Hbonds>
donor molecule, donor type, donor heavy atom, donor atom, acceptor molecule, acceptor atom, score
      L1  H     7    25       P1  7948  0.99
      L1  H    10    26       P1  7948  0.84
      L1  H    15    40       P1 10186  0.96
      P1  H  7989  7998       L1    19  0.07

> <Gold.Chemscore.Hbond.Weighted>
-9.7550

> <Gold.Chemscore.Metal.Weighted>
-0.0000

> <Gold.Chemscore.Lipo.Weighted>
-8.0070

> <Gold.Chemscore.Internal_Hbond.Weighted>
0.0000

> <Gold.Chemscore.DEClash.Weighted>
0.0684

> <Gold.Chemscore.DEInternal.Weighted>
2.3088

> <Gold.Chemscore.Rot.Weighted>
3.8781

> <Gold.Chemscore.Internal.Correction.Weighted>
   9.000000E+99

> <Gold.Protein.RotatedTorsions>
[ 6907 6896 6895 6894 ] final -138.26 input  -60.11 | X-H torsion
[ 7974 7965 7964 7962 ] final  109.36 input  175.53 | X-H torsion
[ 8008 7997 7996 7995 ] final -170.53 input   59.86 | X-H torsion
[ 10167 10162 10161 10158 ] final   32.42 input  -65.29 | X-H torsion
[ 10718 10713 10712 10709 ] final -177.62 input   66.30 | X-H torsion
[ 10763 10752 10751 10750 ] final  -75.22 input  -60.55 | X-H torsion
[ 11005 11000 10999 10996 ] final  144.57 input  -57.11 | X-H torsion

> <Gold.Protein.ActiveResidues>
 VAL166  LYS551  ARG553  GLY616  TRP617  ASP618  TYR619  PRO620  LYS621  CYS622 
 ASP623  PHE694  ASN695  SER759  ASP760  ASP761  ALA762  ILE779  LEU786  VAL792 
 PHE793  MET794  SER795  GLU796  ALA797  LYS798  CYS799  TRP800  GLU811  SER814 

> <Gold.Protein.RotatedAtoms>
  151.0328  133.5775  159.2658 H   0  0  0  0  0  0  0  0  0  0  0  0  # atno 6907 bound_to 6896
  151.2851  135.0724  159.9193 H   0  0  0  0  0  0  0  0  0  0  0  0  # atno 6908 bound_to 6896
  152.5348  134.0035  159.7960 H   0  0  0  0  0  0  0  0  0  0  0  0  # atno 6909 bound_to 6896
  145.2688  139.2674  143.3977 H   0  0  0  0  0  0  0  0  0  0  0  0  # atno 7974 bound_to 7965
  155.9196  140.1072  157.1217 H   0  0  0  0  0  0  0  0  0  0  0  0  # atno 8008 bound_to 7997
  154.4052  140.1258  156.4727 H   0  0  0  0  0  0  0  0  0  0  0  0  # atno 8009 bound_to 7997
  155.7212  140.3470  155.5019 H   0  0  0  0  0  0  0  0  0  0  0  0  # atno 8010 bound_to 7997
  140.4500  144.1063  150.6190 H   0  0  0  0  0  0  0  0  0  0  0  0  # atno 10167 bound_to 10162
  156.8322  130.9657  151.3105 H   0  0  0  0  0  0  0  0  0  0  0  0  # atno 10718 bound_to 10713
  154.4836  135.5838  153.6407 H   0  0  0  0  0  0  0  0  0  0  0  0  # atno 10763 bound_to 10752
  152.9851  135.6095  154.3215 H   0  0  0  0  0  0  0  0  0  0  0  0  # atno 10764 bound_to 10752
  154.3108  135.2845  155.2546 H   0  0  0  0  0  0  0  0  0  0  0  0  # atno 10765 bound_to 10752
  140.0643  134.9187  157.1237 H   0  0  0  0  0  0  0  0  0  0  0  0  # atno 11005 bound_to 11000
  146.3253  140.3125  142.8627 LP  0  0  0  0  0  0  0  0  0  0  0  0  # atno 17320 bound_to 7965
  144.9353  140.8020  143.5664 LP  0  0  0  0  0  0  0  0  0  0  0  0  # atno 17321 bound_to 7965
  140.4219  143.2608  151.9705 LP  0  0  0  0  0  0  0  0  0  0  0  0  # atno 17342 bound_to 10162
  139.4796  144.5823  151.7911 LP  0  0  0  0  0  0  0  0  0  0  0  0  # atno 17343 bound_to 10162
  157.6400  130.8798  149.9431 LP  0  0  0  0  0  0  0  0  0  0  0  0  # atno 17370 bound_to 10713
  156.0928  130.3662  150.0363 LP  0  0  0  0  0  0  0  0  0  0  0  0  # atno 17371 bound_to 10713
  140.3723  134.2377  155.7177 LP  0  0  0  0  0  0  0  0  0  0  0  0  # atno 17394 bound_to 11000
  141.1986  133.8031  157.0575 LP  0  0  0  0  0  0  0  0  0  0  0  0  # atno 17395 bound_to 11000

$$$$
