AV-unprocessed.smi:1322|AV-procd|sdf|5464|dock4
  -GOLD-   22720 5 33D 1   1.00000     0.00000
 Structure written by MMmdl.
 32 33  0  0  0  0  0  0  0  0  1 V2000
  149.2845  141.9421  157.6228 C   0  0  0  0  0  0  0  0  0  0  0  0
  150.6150  141.1688  157.6797 C   0  0  1  0  0  0  0  0  0  0  0  0
  151.3758  141.1683  156.3389 C   0  0  0  0  0  0  0  0  0  0  0  0
  151.2355  139.9181  155.6137 N   0  0  0  0  0  0  0  0  0  0  0  0
  151.6724  138.6634  155.9830 C   0  0  0  0  0  0  0  0  0  0  0  0
  151.3148  137.7993  154.9880 C   0  0  0  0  0  0  0  0  0  0  0  0
  150.6573  138.6310  154.0388 C   0  0  0  0  0  0  0  0  0  0  0  0
  150.6135  139.8989  154.4149 N   0  0  0  0  0  0  0  0  0  0  0  0
  151.4776  141.7282  158.7171 N   0  0  0  0  0  0  0  0  0  0  0  0
  151.9390  142.9878  158.7520 C   0  0  0  0  0  0  0  0  0  0  0  0
  151.6804  143.8263  157.8877 O   0  0  0  0  0  0  0  0  0  0  0  0
  152.8273  143.3445  159.9512 C   0  0  0  0  0  0  0  0  0  0  0  0
  153.0731  142.1868  160.9352 C   0  0  0  0  0  0  0  0  0  0  0  0
  152.8224  143.1659  162.0859 C   0  0  0  0  0  0  0  0  0  0  0  0
  152.0980  144.0774  161.0909 C   0  0  0  0  0  0  0  0  0  0  0  0
  148.5952  141.4993  156.9039 H   0  0  0  0  0  0  0  0  0  0  0  0
  149.4433  142.9818  157.3349 H   0  0  0  0  0  0  0  0  0  0  0  0
  148.7833  141.9378  158.5913 H   0  0  0  0  0  0  0  0  0  0  0  0
  150.3937  140.1302  157.9332 H   0  0  0  0  0  0  0  0  0  0  0  0
  151.0288  141.9864  155.7048 H   0  0  0  0  0  0  0  0  0  0  0  0
  152.4396  141.3387  156.5107 H   0  0  0  0  0  0  0  0  0  0  0  0
  152.1935  138.4926  156.9136 H   0  0  0  0  0  0  0  0  0  0  0  0
  151.4956  136.7356  154.9447 H   0  0  0  0  0  0  0  0  0  0  0  0
  150.2140  138.3530  153.0939 H   0  0  0  0  0  0  0  0  0  0  0  0
  151.7437  141.1085  159.4686 H   0  0  0  0  0  0  0  0  0  0  0  0
  153.7562  143.8462  159.6720 H   0  0  0  0  0  0  0  0  0  0  0  0
  152.3274  141.3911  160.8904 H   0  0  0  0  0  0  0  0  0  0  0  0
  154.0854  141.7829  160.9100 H   0  0  0  0  0  0  0  0  0  0  0  0
  152.1937  142.7757  162.8867 H   0  0  0  0  0  0  0  0  0  0  0  0
  153.7424  143.6083  162.4709 H   0  0  0  0  0  0  0  0  0  0  0  0
  152.3584  145.1318  161.1857 H   0  0  0  0  0  0  0  0  0  0  0  0
  151.0160  143.9333  161.0989 H   0  0  0  0  0  0  0  0  0  0  0  0
  1  2  1  0  0  0  0
  1 16  1  0  0  0  0
  1 17  1  0  0  0  0
  1 18  1  0  0  0  0
  2  3  1  0  0  0  0
  2  9  1  0  0  0  0
  2 19  1  0  0  0  0
  3  4  1  0  0  0  0
  3 20  1  0  0  0  0
  3 21  1  0  0  0  0
  4  8  1  0  0  0  0
  4  5  1  0  0  0  0
  5  6  2  0  0  0  0
  5 22  1  0  0  0  0
  6  7  1  0  0  0  0
  6 23  1  0  0  0  0
  7  8  2  0  0  0  0
  7 24  1  0  0  0  0
  9 10  1  0  0  0  0
  9 25  1  0  0  0  0
 10 11  2  0  0  0  0
 10 12  1  0  0  0  0
 12 15  1  0  0  0  0
 12 13  1  0  0  0  0
 12 26  1  0  0  0  0
 13 14  1  0  0  0  0
 13 27  1  0  0  0  0
 13 28  1  0  0  0  0
 14 15  1  0  0  0  0
 14 29  1  0  0  0  0
 14 30  1  0  0  0  0
 15 31  1  0  0  0  0
 15 32  1  0  0  0  0
M  END
> <s_m_source_file>
AV-unprocessed.smi

> <i_m_source_file_index>
1322

> <i_lp_mmshare_version>
43012

> <i_f3d_flags>
0

> <s_epik_input>
W0NIMl0xW0NIMl1bQ0gyXVtDSF0xQyg9TylbTkhdW0NASF0oW0NIM10pW0NIMl1uMltjSF1bY0hdW2NIXW4y

> <s_epik_cmdline>
J2VwaWtfcHl0aG9uJywgJy1waCcsICc3LjAnLCAnLXRuJywgJzgnLCAnLW1hJywgJzIwMCcsICctbWV0YWxfYmluZGluZycsICctaW1hZScsICc8aW5maWxlLm1hZT4nLCAnLW9tYWUnLCAnPG91dGZpbGUubWFlPic=

> <r_lp_tautomer_probability>
1

> <r_epik_Ionization_Penalty>
0.000326653

> <r_epik_Ionization_Penalty_Charging>
0

> <r_epik_Ionization_Penalty_Neutral>
0.000326653

> <r_epik_State_Penalty>
-0

> <r_epik_Charging_Adjusted_Penalty>
0

> <i_epik_Tot_Q>
0

> <i_epik_Tot_abs_Q>
0

> <r_epik_Metal_State_Penalty>
-0

> <b_epik_Metal_Only>
0

> <s_lp_Force_Field>
OPLS_2005

> <r_lp_Energy>
10.775

> <b_lp_Chiralities_Consistent>
1

> <s_lp_Variant>
AV-unprocessed.smi:1322-2

> <Gold.Version>
5.8.1

> <Gold.Id.Protein>
6NUR|6NUR_protein|mol2

> <Gold.PLP.Fitness>
42.4316

> <Gold.PLP.PLP>
-36.4658

> <Gold.PLP.part.hbond>
-1.0000

> <Gold.PLP.part.metal>
0.0000

> <Gold.PLP.part.buried>
-6.0465

> <Gold.PLP.part.nonpolar>
-29.2603

> <Gold.PLP.part.repulsive>
0.3284

> <Gold.PLP.ligand.clash>
0.0000

> <Gold.PLP.ligand.torsion>
0.9501

> <Gold.PLP.Chemscore.Hbond>
1.0000

> <Gold.PLP.Chemscore.CHOScore>
1.4825

> <Gold.PLP.Chemscore.Metal>
0.0000

> <Gold.Chemscore.Hbonds>
donor molecule, donor type, donor heavy atom, donor atom, acceptor molecule, acceptor atom, score
      P1  H  7989  7998       L1     8  1.00
      L1  C     7    24       P1  7948  0.56
      L1  C     7    24       P1  7957  0.72

> <Gold.PLP.Chemscore.Internal.Correction>
0.4184

> <Gold.Rescore>
     Score         DG    S(hbond)    S(metal)    S(lipo)     H(rot)  DE(clash)    DE(int)     intcor
     12.53     -14.43       0.93        0.00      83.69       1.55       0.03       1.87       ----

> <Gold.Chemscore.Fitness>
12.5305

> <Gold.Chemscore.DG>
-14.4271

> <Gold.Chemscore.ZeroCoef>
-5.4800

> <Gold.Chemscore.Hbond>
0.9328

> <Gold.Chemscore.Metal>
0.0000

> <Gold.Chemscore.Lipo>
83.6934

> <Gold.Chemscore.Internal_Hbond>
0.0000

> <Gold.Chemscore.DEClash>
0.0309

> <Gold.Chemscore.DEInternal>
1.8657

> <Gold.Chemscore.Rot>
1.5471

> <Gold.Chemscore.Internal.Correction>
   9.000000E+99

> <Gold.Chemscore.Hbonds>
donor molecule, donor type, donor heavy atom, donor atom, acceptor molecule, acceptor atom, score
      P1  H  7989  7998       L1     8  0.28

> <Gold.Chemscore.Hbond.Weighted>
-3.1156

> <Gold.Chemscore.Metal.Weighted>
-0.0000

> <Gold.Chemscore.Lipo.Weighted>
-9.7921

> <Gold.Chemscore.Internal_Hbond.Weighted>
0.0000

> <Gold.Chemscore.DEClash.Weighted>
0.0309

> <Gold.Chemscore.DEInternal.Weighted>
1.8657

> <Gold.Chemscore.Rot.Weighted>
3.9606

> <Gold.Chemscore.Internal.Correction.Weighted>
   9.000000E+99

> <Gold.Protein.RotatedTorsions>
[ 6907 6896 6895 6894 ] final  -42.32 input  -60.11 | X-H torsion
[ 7974 7965 7964 7962 ] final   79.11 input  175.53 | X-H torsion
[ 8008 7997 7996 7995 ] final  -91.28 input   59.86 | X-H torsion
[ 10167 10162 10161 10158 ] final -167.88 input  -65.29 | X-H torsion
[ 10718 10713 10712 10709 ] final   59.19 input   66.30 | X-H torsion
[ 10763 10752 10751 10750 ] final   10.18 input  -60.55 | X-H torsion
[ 11005 11000 10999 10996 ] final  -24.12 input  -57.11 | X-H torsion

> <Gold.Protein.ActiveResidues>
 VAL166  LYS551  ARG553  GLY616  TRP617  ASP618  TYR619  PRO620  LYS621  CYS622 
 ASP623  PHE694  ASN695  SER759  ASP760  ASP761  ALA762  ILE779  LEU786  VAL792 
 PHE793  MET794  SER795  GLU796  ALA797  LYS798  CYS799  TRP800  GLU811  SER814 

> <Gold.Protein.RotatedAtoms>
  150.9566  134.8959  159.7704 H   0  0  0  0  0  0  0  0  0  0  0  0  # atno 6907 bound_to 6896
  152.5140  134.3732  159.9335 H   0  0  0  0  0  0  0  0  0  0  0  0  # atno 6908 bound_to 6896
  151.3746  133.3802  159.2738 H   0  0  0  0  0  0  0  0  0  0  0  0  # atno 6909 bound_to 6896
  145.6684  139.2490  143.1882 H   0  0  0  0  0  0  0  0  0  0  0  0  # atno 7974 bound_to 7965
  154.7088  140.0521  157.0529 H   0  0  0  0  0  0  0  0  0  0  0  0  # atno 8008 bound_to 7997
  155.0584  140.3187  155.4650 H   0  0  0  0  0  0  0  0  0  0  0  0  # atno 8009 bound_to 7997
  156.2783  140.2103  156.5710 H   0  0  0  0  0  0  0  0  0  0  0  0  # atno 8010 bound_to 7997
  139.6020  144.0990  152.1753 H   0  0  0  0  0  0  0  0  0  0  0  0  # atno 10167 bound_to 10162
  157.5656  130.8868  149.9182 H   0  0  0  0  0  0  0  0  0  0  0  0  # atno 10718 bound_to 10713
  153.2060  135.6862  153.8172 H   0  0  0  0  0  0  0  0  0  0  0  0  # atno 10763 bound_to 10752
  153.7422  135.3236  155.3307 H   0  0  0  0  0  0  0  0  0  0  0  0  # atno 10764 bound_to 10752
  154.8197  135.4661  154.0847 H   0  0  0  0  0  0  0  0  0  0  0  0  # atno 10765 bound_to 10752
  140.8815  133.7650  156.0308 H   0  0  0  0  0  0  0  0  0  0  0  0  # atno 11005 bound_to 11000
  146.1066  140.7480  142.9523 LP  0  0  0  0  0  0  0  0  0  0  0  0  # atno 17320 bound_to 7965
  144.7065  140.3872  143.7114 LP  0  0  0  0  0  0  0  0  0  0  0  0  # atno 17321 bound_to 7965
  140.0589  144.5873  150.7278 LP  0  0  0  0  0  0  0  0  0  0  0  0  # atno 17342 bound_to 10162
  140.7257  143.2634  151.4128 LP  0  0  0  0  0  0  0  0  0  0  0  0  # atno 17343 bound_to 10162
  156.0704  130.3686  150.0787 LP  0  0  0  0  0  0  0  0  0  0  0  0  # atno 17370 bound_to 10713
  156.8946  130.9600  151.3584 LP  0  0  0  0  0  0  0  0  0  0  0  0  # atno 17371 bound_to 10713
  140.8455  134.3016  157.5296 LP  0  0  0  0  0  0  0  0  0  0  0  0  # atno 17394 bound_to 11000
  139.8720  134.9439  156.3867 LP  0  0  0  0  0  0  0  0  0  0  0  0  # atno 17395 bound_to 11000

$$$$
