AV-unprocessed.smi:16|AV-procd|sdf|92|dock6
  -GOLD-   2262015233D 1   1.00000     0.00000
 Structure written by MMmdl.
 60 64  0  0  0  0  0  0  0  0  2 V2000
  148.4397  129.7943  153.8895 C   0  0  0  0  0  0  0  0  0  0  0  0
  147.0096  129.7956  154.4496 C   0  0  0  0  0  0  0  0  0  0  0  0
  146.0107  130.2837  153.4650 N   0  3  2  0  0  0  0  0  0  0  0  0
  145.9495  129.4188  152.2572 C   0  0  0  0  0  0  0  0  0  0  0  0
  144.8345  129.8697  151.2993 C   0  0  0  0  0  0  0  0  0  0  0  0
  145.0237  131.3404  150.9128 C   0  0  1  0  0  0  0  0  0  0  0  0
  143.9554  131.7594  150.0720 O   0  0  0  0  0  0  0  0  0  0  0  0
  144.1325  133.1013  149.6299 C   0  0  0  0  0  0  0  0  0  0  0  0
  144.1643  134.0436  150.8445 C   0  0  0  0  0  0  0  0  0  0  0  0
  145.1827  133.6195  151.8008 N   0  0  0  0  0  0  0  0  0  0  0  0
  145.2931  134.5149  152.8087 C   0  0  0  0  0  0  0  0  0  0  0  0
  145.0932  134.1258  154.0960 N   0  0  0  0  0  0  0  0  0  0  0  0
  145.2026  135.0174  155.0860 C   0  0  0  0  0  0  0  0  0  0  0  0
  145.4954  136.3178  155.0099 N   0  0  0  0  0  0  0  0  0  0  0  0
  145.6873  136.7091  153.7171 C   0  0  0  0  0  0  0  0  0  0  0  0
  145.6072  135.8770  152.5666 C   0  0  0  0  0  0  0  0  0  0  0  0
  145.8801  136.6136  151.4219 N   0  0  0  0  0  0  0  0  0  0  0  0
  146.1150  137.8166  151.8716 C   0  0  0  0  0  0  0  0  0  0  0  0
  145.9957  137.9688  153.2355 N   0  0  0  0  0  0  0  0  0  0  0  0
  146.2352  139.1605  153.9947 C   0  0  0  0  0  0  0  0  0  0  0  0
  146.7876  140.4215  153.3271 C   0  0  0  0  0  0  0  0  0  0  0  0
  147.5255  140.7818  154.6367 C   0  0  0  0  0  0  0  0  0  0  0  0
  148.9558  141.3193  154.4666 C   0  0  0  0  0  0  0  0  0  0  0  0
  149.5610  140.8003  153.2999 O   0  0  0  0  0  0  0  0  0  0  0  0
  146.7476  141.7044  155.5968 C   0  0  0  0  0  0  0  0  0  0  0  0
  147.3871  141.8007  156.8535 O   0  0  0  0  0  0  0  0  0  0  0  0
  147.4256  139.2727  154.9501 C   0  0  0  0  0  0  0  0  0  0  0  0
  145.0502  132.2112  152.1854 C   0  0  2  0  0  0  0  0  0  0  0  0
  146.1895  131.7181  153.1101 C   0  0  0  0  0  0  0  0  0  0  0  0
  145.9654  131.4413  150.3689 H   0  0  0  0  0  0  0  0  0  0  0  0
  144.0988  132.0890  152.7064 H   0  0  0  0  0  0  0  0  0  0  0  0
  149.1543  129.5265  154.6682 H   0  0  0  0  0  0  0  0  0  0  0  0
  148.7166  130.7797  153.5137 H   0  0  0  0  0  0  0  0  0  0  0  0
  148.5649  129.0769  153.0792 H   0  0  0  0  0  0  0  0  0  0  0  0
  146.7330  128.8019  154.8045 H   0  0  0  0  0  0  0  0  0  0  0  0
  146.9994  130.4484  155.3234 H   0  0  0  0  0  0  0  0  0  0  0  0
  146.9139  129.4389  151.7470 H   0  0  0  0  0  0  0  0  0  0  0  0
  145.7682  128.3846  152.5527 H   0  0  0  0  0  0  0  0  0  0  0  0
  144.8366  129.2456  150.4052 H   0  0  0  0  0  0  0  0  0  0  0  0
  143.8615  129.7320  151.7731 H   0  0  0  0  0  0  0  0  0  0  0  0
  145.0504  133.1877  149.0462 H   0  0  0  0  0  0  0  0  0  0  0  0
  143.3084  133.3691  148.9685 H   0  0  0  0  0  0  0  0  0  0  0  0
  144.3637  135.0639  150.5131 H   0  0  0  0  0  0  0  0  0  0  0  0
  143.1877  134.0496  151.3312 H   0  0  0  0  0  0  0  0  0  0  0  0
  145.0299  134.6355  156.0815 H   0  0  0  0  0  0  0  0  0  0  0  0
  146.3798  138.6315  151.2132 H   0  0  0  0  0  0  0  0  0  0  0  0
  145.3008  139.3779  154.5149 H   0  0  0  0  0  0  0  0  0  0  0  0
  147.4653  140.1915  152.5029 H   0  0  0  0  0  0  0  0  0  0  0  0
  146.0237  141.1338  153.0137 H   0  0  0  0  0  0  0  0  0  0  0  0
  148.9531  142.4065  154.3834 H   0  0  0  0  0  0  0  0  0  0  0  0
  149.5809  141.0814  155.3276 H   0  0  0  0  0  0  0  0  0  0  0  0
  148.9057  140.3347  152.8032 H   0  0  0  0  0  0  0  0  0  0  0  0
  146.6604  142.7123  155.1908 H   0  0  0  0  0  0  0  0  0  0  0  0
  145.7270  141.3528  155.7493 H   0  0  0  0  0  0  0  0  0  0  0  0
  146.7477  141.6341  157.5291 H   0  0  0  0  0  0  0  0  0  0  0  0
  147.1953  139.0345  155.9889 H   0  0  0  0  0  0  0  0  0  0  0  0
  148.2955  138.7110  154.6042 H   0  0  0  0  0  0  0  0  0  0  0  0
  146.2085  132.3110  154.0230 H   0  0  0  0  0  0  0  0  0  0  0  0
  147.1568  131.8581  152.6248 H   0  0  0  0  0  0  0  0  0  0  0  0
  145.1082  130.2033  153.9118 H   0  0  0  0  0  0  0  0  0  0  0  0
  1  2  1  0  0  0  0
  1 32  1  0  0  0  0
  1 33  1  0  0  0  0
  1 34  1  0  0  0  0
  2  3  1  0  0  0  0
  2 35  1  0  0  0  0
  2 36  1  0  0  0  0
  3 29  1  0  0  0  0
  3  4  1  0  0  0  0
  3 60  1  0  0  0  0
  4  5  1  0  0  0  0
  4 37  1  0  0  0  0
  4 38  1  0  0  0  0
  5  6  1  0  0  0  0
  5 39  1  0  0  0  0
  5 40  1  0  0  0  0
  6 30  1  0  0  0  0
  6 28  1  0  0  0  0
  6  7  1  0  0  0  0
  7  8  1  0  0  0  0
  8  9  1  0  0  0  0
  8 41  1  0  0  0  0
  8 42  1  0  0  0  0
  9 10  1  0  0  0  0
  9 43  1  0  0  0  0
  9 44  1  0  0  0  0
 10 11  1  0  0  0  0
 10 28  1  0  0  0  0
 11 16  1  0  0  0  0
 11 12  2  0  0  0  0
 12 13  1  0  0  0  0
 13 14  2  0  0  0  0
 13 45  1  0  0  0  0
 14 15  1  0  0  0  0
 15 19  1  0  0  0  0
 15 16  2  0  0  0  0
 16 17  1  0  0  0  0
 17 18  2  0  0  0  0
 18 19  1  0  0  0  0
 18 46  1  0  0  0  0
 19 20  1  0  0  0  0
 20 27  1  0  0  0  0
 20 21  1  0  0  0  0
 20 47  1  0  0  0  0
 21 22  1  0  0  0  0
 21 48  1  0  0  0  0
 21 49  1  0  0  0  0
 22 23  1  0  0  0  0
 22 25  1  0  0  0  0
 22 27  1  0  0  0  0
 23 24  1  0  0  0  0
 23 50  1  0  0  0  0
 23 51  1  0  0  0  0
 24 52  1  0  0  0  0
 25 26  1  0  0  0  0
 25 53  1  0  0  0  0
 25 54  1  0  0  0  0
 26 55  1  0  0  0  0
 27 56  1  0  0  0  0
 27 57  1  0  0  0  0
 28 31  1  0  0  0  0
 28 29  1  0  0  0  0
 29 58  1  0  0  0  0
 29 59  1  0  0  0  0
M  CHG  1   3   1
M  END
> <s_m_source_file>
AV-unprocessed.smi

> <i_m_source_file_index>
16

> <i_lp_mmshare_version>
43012

> <i_f3d_flags>
0

> <s_epik_input>
W0NIM11bQ0gyXU4oW0NIMl1bQ0gyXTEpW0NIMl1bQ0BASF0oW0NAQEhdMTIpTihbQ0gyXVtDSDJdTzIpYyhuW2NIXW4zKWMoYzM0KW5bY0hdbjRbQ0hdKFtDSDJdNSlbQ0gyXUM1KFtDSDJdW09IXSlbQ0gyXVtPSF0=

> <s_epik_cmdline>
J2VwaWtfcHl0aG9uJywgJy1waCcsICc3LjAnLCAnLXRuJywgJzgnLCAnLW1hJywgJzIwMCcsICctbWV0YWxfYmluZGluZycsICctaW1hZScsICc8aW5maWxlLm1hZT4nLCAnLW9tYWUnLCAnPG91dGZpbGUubWFlPic=

> <r_lp_tautomer_probability>
1

> <r_epik_Ionization_Penalty>
0.0135603

> <r_epik_Ionization_Penalty_Charging>
0.0131385

> <r_epik_Ionization_Penalty_Neutral>
0.000421734

> <r_epik_State_Penalty>
0.0102091

> <r_epik_Charging_Adjusted_Penalty>
0.0233476

> <i_epik_Tot_Q>
1

> <i_epik_Tot_abs_Q>
1

> <r_epik_Metal_State_Penalty>
0.0103746

> <b_epik_Metal_Only>
0

> <s_lp_Force_Field>
OPLS_2005

> <r_lp_Energy>
53.4104

> <b_lp_Chiralities_Consistent>
1

> <s_lp_Variant>
AV-unprocessed.smi:16-6

> <Gold.Version>
5.8.1

> <Gold.Id.Protein>
6NUR|6NUR_protein|mol2

> <Gold.PLP.Fitness>
43.9199

> <Gold.PLP.PLP>
-34.0781

> <Gold.PLP.part.hbond>
-4.3506

> <Gold.PLP.part.metal>
0.0000

> <Gold.PLP.part.buried>
-8.0634

> <Gold.PLP.part.nonpolar>
-26.7355

> <Gold.PLP.part.repulsive>
1.1610

> <Gold.PLP.ligand.clash>
0.0000

> <Gold.PLP.ligand.torsion>
0.5674

> <Gold.PLP.Chemscore.Hbond>
3.4513

> <Gold.PLP.Chemscore.CHOScore>
0.0000

> <Gold.PLP.Chemscore.Metal>
0.0000

> <Gold.Chemscore.Hbonds>
donor molecule, donor type, donor heavy atom, donor atom, acceptor molecule, acceptor atom, score
      L1  H     3    60       P1 10956  1.17
      L1  H    24    52       P1  7957  0.14
      P1  H  7989  7998       L1    24  0.27
      P1  H  8011  8017       L1    24  1.00
      P1  H 10785 10796       L1     7  0.41
      L1  C    18    46       P1 10171  0.05

> <Gold.PLP.Chemscore.Internal.Correction>
0.6226

> <Gold.Rescore>
     Score         DG    S(hbond)    S(metal)    S(lipo)     H(rot)  DE(clash)    DE(int)     intcor
      8.79     -12.70       1.27        0.00      98.19       3.33       1.77       2.14       ----

> <Gold.Chemscore.Fitness>
8.7903

> <Gold.Chemscore.DG>
-12.7011

> <Gold.Chemscore.ZeroCoef>
-5.4800

> <Gold.Chemscore.Hbond>
1.2711

> <Gold.Chemscore.Metal>
0.0000

> <Gold.Chemscore.Lipo>
98.1860

> <Gold.Chemscore.Internal_Hbond>
0.0000

> <Gold.Chemscore.DEClash>
1.7744

> <Gold.Chemscore.DEInternal>
2.1363

> <Gold.Chemscore.Rot>
3.3251

> <Gold.Chemscore.Internal.Correction>
   9.000000E+99

> <Gold.Chemscore.Hbonds>
donor molecule, donor type, donor heavy atom, donor atom, acceptor molecule, acceptor atom, score
      L1  H     3    60       P1 10956  0.07
      L1  H    24    52       P1  7957  0.15
      P1  H  7989  7998       L1    24  0.19
      P1  H  8011  8017       L1    24  0.11
      P1  H 10785 10796       L1     7  0.33

> <Gold.Chemscore.Hbond.Weighted>
-4.2455

> <Gold.Chemscore.Metal.Weighted>
-0.0000

> <Gold.Chemscore.Lipo.Weighted>
-11.4878

> <Gold.Chemscore.Internal_Hbond.Weighted>
0.0000

> <Gold.Chemscore.DEClash.Weighted>
1.7744

> <Gold.Chemscore.DEInternal.Weighted>
2.1363

> <Gold.Chemscore.Rot.Weighted>
8.5122

> <Gold.Chemscore.Internal.Correction.Weighted>
   9.000000E+99

> <Gold.Protein.RotatedTorsions>
[ 6907 6896 6895 6894 ] final  -18.88 input  -60.11 | X-H torsion
[ 7974 7965 7964 7962 ] final  -17.68 input  175.53 | X-H torsion
[ 8008 7997 7996 7995 ] final   10.42 input   59.86 | X-H torsion
[ 10167 10162 10161 10158 ] final -138.74 input  -65.29 | X-H torsion
[ 10718 10713 10712 10709 ] final  -47.55 input   66.30 | X-H torsion
[ 10763 10752 10751 10750 ] final -140.85 input  -60.55 | X-H torsion
[ 11005 11000 10999 10996 ] final   72.02 input  -57.11 | X-H torsion

> <Gold.Protein.ActiveResidues>
 VAL166  LYS551  ARG553  GLY616  TRP617  ASP618  TYR619  PRO620  LYS621  CYS622 
 ASP623  PHE694  ASN695  SER759  ASP760  ASP761  ALA762  ILE779  LEU786  VAL792 
 PHE793  MET794  SER795  GLU796  ALA797  LYS798  CYS799  TRP800  GLU811  SER814 

> <Gold.Protein.RotatedAtoms>
  151.2715  135.0686  159.9135 H   0  0  0  0  0  0  0  0  0  0  0  0  # atno 6907 bound_to 6896
  152.5350  134.0126  159.7955 H   0  0  0  0  0  0  0  0  0  0  0  0  # atno 6908 bound_to 6896
  151.0365  133.5694  159.2686 H   0  0  0  0  0  0  0  0  0  0  0  0  # atno 6909 bound_to 6896
  146.1929  140.3813  142.8451 H   0  0  0  0  0  0  0  0  0  0  0  0  # atno 7974 bound_to 7965
  154.7932  140.2839  155.5976 H   0  0  0  0  0  0  0  0  0  0  0  0  # atno 8008 bound_to 7997
  156.2967  140.2601  156.2712 H   0  0  0  0  0  0  0  0  0  0  0  0  # atno 8009 bound_to 7997
  154.9646  140.0377  157.2195 H   0  0  0  0  0  0  0  0  0  0  0  0  # atno 8010 bound_to 7997
  139.8448  143.7275  152.2661 H   0  0  0  0  0  0  0  0  0  0  0  0  # atno 10167 bound_to 10162
  156.2073  130.4159  149.9160 H   0  0  0  0  0  0  0  0  0  0  0  0  # atno 10718 bound_to 10713
  154.8565  135.3541  154.5773 H   0  0  0  0  0  0  0  0  0  0  0  0  # atno 10763 bound_to 10752
  153.6384  135.6999  153.5255 H   0  0  0  0  0  0  0  0  0  0  0  0  # atno 10764 bound_to 10752
  153.2991  135.4212  155.1195 H   0  0  0  0  0  0  0  0  0  0  0  0  # atno 10765 bound_to 10752
  139.9512  134.7223  156.0857 H   0  0  0  0  0  0  0  0  0  0  0  0  # atno 11005 bound_to 11000
  144.8522  140.7018  143.6161 LP  0  0  0  0  0  0  0  0  0  0  0  0  # atno 17320 bound_to 7965
  145.3735  139.1653  143.4319 LP  0  0  0  0  0  0  0  0  0  0  0  0  # atno 17321 bound_to 7965
  139.7523  144.7530  151.0488 LP  0  0  0  0  0  0  0  0  0  0  0  0  # atno 17342 bound_to 10162
  140.7794  143.4846  150.9973 LP  0  0  0  0  0  0  0  0  0  0  0  0  # atno 17343 bound_to 10162
  156.6850  130.8873  151.3581 LP  0  0  0  0  0  0  0  0  0  0  0  0  # atno 17370 bound_to 10713
  157.7019  130.9343  150.0812 LP  0  0  0  0  0  0  0  0  0  0  0  0  # atno 17371 bound_to 10713
  141.1176  133.6623  156.3132 LP  0  0  0  0  0  0  0  0  0  0  0  0  # atno 17394 bound_to 11000
  140.5714  134.5837  157.5458 LP  0  0  0  0  0  0  0  0  0  0  0  0  # atno 17395 bound_to 11000

$$$$
