AV-unprocessed.smi:3179|AV-procd|sdf|12133|dock9
  -GOLD-   2272017573D 1   1.00000     0.00000
 Structure written by MMmdl.
 34 34  0  0  0  0  0  0  0  0  2 V2000
  146.8346  138.9411  151.8565 C   0  0  0  0  0  0  0  0  0  0  0  0
  146.7729  139.2656  153.3513 C   0  0  0  0  0  0  0  0  0  0  0  0
  146.4243  140.6748  153.5755 N   0  3  0  0  0  0  0  0  0  0  0  0
  147.2281  141.6046  154.1278 C   0  0  0  0  0  0  0  0  0  0  0  0
  146.7896  142.8694  154.2810 N   0  0  0  0  0  0  0  0  0  0  0  0
  145.4643  143.3694  153.8929 C   0  0  0  0  0  0  0  0  0  0  0  0
  145.5697  144.4012  152.7665 C   0  0  0  0  0  0  0  0  0  0  0  0
  148.4707  141.2697  154.5267 N   0  0  0  0  0  0  0  0  0  0  0  0
  149.4476  142.1790  155.1403 C   0  0  0  0  0  0  0  0  0  0  0  0
  149.9839  141.6107  156.4594 C   0  0  0  0  0  0  0  0  0  0  0  0
  150.8803  140.4370  156.2485 C   0  0  0  0  0  0  0  0  0  0  0  0
  151.1357  139.9117  155.0471 N   0  0  0  0  0  0  0  0  0  0  0  0
  152.0269  138.8376  155.1122 C   0  0  0  0  0  0  0  0  0  0  0  0
  152.4606  138.5629  156.3842 C   0  0  0  0  0  0  0  0  0  0  0  0
  151.7615  139.6493  157.5532 S   0  0  0  0  0  0  0  0  0  0  0  0
  147.1473  137.9089  151.6971 H   0  0  0  0  0  0  0  0  0  0  0  0
  147.5464  139.5866  151.3413 H   0  0  0  0  0  0  0  0  0  0  0  0
  145.8600  139.0695  151.3847 H   0  0  0  0  0  0  0  0  0  0  0  0
  146.0377  138.6304  153.8456 H   0  0  0  0  0  0  0  0  0  0  0  0
  147.7393  139.0638  153.8137 H   0  0  0  0  0  0  0  0  0  0  0  0
  147.4165  143.5417  154.6995 H   0  0  0  0  0  0  0  0  0  0  0  0
  144.8493  142.5288  153.5709 H   0  0  0  0  0  0  0  0  0  0  0  0
  144.9795  143.8116  154.7634 H   0  0  0  0  0  0  0  0  0  0  0  0
  144.5805  144.7437  152.4622 H   0  0  0  0  0  0  0  0  0  0  0  0
  146.0592  143.9783  151.8886 H   0  0  0  0  0  0  0  0  0  0  0  0
  146.1408  145.2744  153.0832 H   0  0  0  0  0  0  0  0  0  0  0  0
  148.7678  140.3128  154.3993 H   0  0  0  0  0  0  0  0  0  0  0  0
  150.2682  142.3411  154.4406 H   0  0  0  0  0  0  0  0  0  0  0  0
  148.9718  143.1449  155.3123 H   0  0  0  0  0  0  0  0  0  0  0  0
  150.5388  142.3775  157.0011 H   0  0  0  0  0  0  0  0  0  0  0  0
  149.1568  141.3091  157.1034 H   0  0  0  0  0  0  0  0  0  0  0  0
  152.3010  138.3260  154.2015 H   0  0  0  0  0  0  0  0  0  0  0  0
  153.1472  137.7923  156.7023 H   0  0  0  0  0  0  0  0  0  0  0  0
  145.4954  140.9560  153.2960 H   0  0  0  0  0  0  0  0  0  0  0  0
  1  2  1  0  0  0  0
  1 16  1  0  0  0  0
  1 17  1  0  0  0  0
  1 18  1  0  0  0  0
  2  3  1  0  0  0  0
  2 19  1  0  0  0  0
  2 20  1  0  0  0  0
  3  4  2  0  0  0  0
  3 34  1  0  0  0  0
  4  5  1  0  0  0  0
  4  8  1  0  0  0  0
  5  6  1  0  0  0  0
  5 21  1  0  0  0  0
  6  7  1  0  0  0  0
  6 22  1  0  0  0  0
  6 23  1  0  0  0  0
  7 24  1  0  0  0  0
  7 25  1  0  0  0  0
  7 26  1  0  0  0  0
  8  9  1  0  0  0  0
  8 27  1  0  0  0  0
  9 10  1  0  0  0  0
  9 28  1  0  0  0  0
  9 29  1  0  0  0  0
 10 11  1  0  0  0  0
 10 30  1  0  0  0  0
 10 31  1  0  0  0  0
 11 15  1  0  0  0  0
 11 12  2  0  0  0  0
 12 13  1  0  0  0  0
 13 14  2  0  0  0  0
 13 32  1  0  0  0  0
 14 15  1  0  0  0  0
 14 33  1  0  0  0  0
M  CHG  1   3   1
M  END
> <s_m_source_file>
AV-unprocessed.smi

> <i_m_source_file_index>
3179

> <i_lp_mmshare_version>
43012

> <i_f3d_flags>
0

> <s_epik_input>
W0NIM11bQ0gyXS9OPUMoXFtOSF1bQ0gyXVtDSDNdKVtOSF1bQ0gyXVtDSDJdYzFuW2NIXVtjSF1zMQ==

> <s_epik_cmdline>
J2VwaWtfcHl0aG9uJywgJy1waCcsICc3LjAnLCAnLXRuJywgJzgnLCAnLW1hJywgJzIwMCcsICctbWV0YWxfYmluZGluZycsICctaW1hZScsICc8aW5maWxlLm1hZT4nLCAnLW9tYWUnLCAnPG91dGZpbGUubWFlPic=

> <r_lp_tautomer_probability>
1

> <r_epik_Ionization_Penalty>
3.28801e-05

> <r_epik_Ionization_Penalty_Charging>
8.99277e-08

> <r_epik_Ionization_Penalty_Neutral>
3.27902e-05

> <r_epik_State_Penalty>
-0

> <r_epik_Charging_Adjusted_Penalty>
8.99277e-08

> <i_epik_Tot_Q>
1

> <i_epik_Tot_abs_Q>
1

> <r_epik_Metal_State_Penalty>
-0

> <b_epik_Metal_Only>
0

> <s_epik_Chemistry_Notes>
This compound has an imine and may undergo hydrolysis.

> <s_lp_Force_Field>
OPLS_2005

> <r_lp_Energy>
0.365327

> <b_lp_Chiralities_Consistent>
1

> <s_lp_Variant>
AV-unprocessed.smi:3179-2

> <Gold.Version>
5.8.1

> <Gold.Id.Protein>
6NUR|6NUR_protein|mol2

> <Gold.PLP.Fitness>
44.9999

> <Gold.PLP.PLP>
-31.5247

> <Gold.PLP.part.hbond>
-2.8640

> <Gold.PLP.part.metal>
0.0000

> <Gold.PLP.part.buried>
1.2822

> <Gold.PLP.part.nonpolar>
-29.6752

> <Gold.PLP.part.repulsive>
0.3870

> <Gold.PLP.ligand.clash>
0.0000

> <Gold.PLP.ligand.torsion>
0.1037

> <Gold.PLP.Chemscore.Hbond>
4.5571

> <Gold.PLP.Chemscore.CHOScore>
0.0000

> <Gold.PLP.Chemscore.Metal>
0.0000

> <Gold.Chemscore.Hbonds>
donor molecule, donor type, donor heavy atom, donor atom, acceptor molecule, acceptor atom, score
      L1  H     3    34       P1 10175  1.98
      L1  H     5    21       P1  8028  1.48
      P1  H  7989  7998       L1    12  1.00

> <Gold.PLP.Chemscore.Internal.Correction>
0.0112

> <Gold.Rescore>
     Score         DG    S(hbond)    S(metal)    S(lipo)     H(rot)  DE(clash)    DE(int)     intcor
     14.43     -15.73       1.91        0.00      70.79       1.72       1.22       0.09       ----

> <Gold.Chemscore.Fitness>
14.4279

> <Gold.Chemscore.DG>
-15.7313

> <Gold.Chemscore.ZeroCoef>
-5.4800

> <Gold.Chemscore.Hbond>
1.9068

> <Gold.Chemscore.Metal>
0.0000

> <Gold.Chemscore.Lipo>
70.7890

> <Gold.Chemscore.Internal_Hbond>
0.0000

> <Gold.Chemscore.DEClash>
1.2154

> <Gold.Chemscore.DEInternal>
0.0880

> <Gold.Chemscore.Rot>
1.7187

> <Gold.Chemscore.Internal.Correction>
   9.000000E+99

> <Gold.Chemscore.Hbonds>
donor molecule, donor type, donor heavy atom, donor atom, acceptor molecule, acceptor atom, score
      L1  H     3    34       P1 10175  0.48
      L1  H     5    21       P1  8028  0.10
      P1  H  7989  7998       L1    12  0.50

> <Gold.Chemscore.Hbond.Weighted>
-6.3687

> <Gold.Chemscore.Metal.Weighted>
-0.0000

> <Gold.Chemscore.Lipo.Weighted>
-8.2823

> <Gold.Chemscore.Internal_Hbond.Weighted>
0.0000

> <Gold.Chemscore.DEClash.Weighted>
1.2154

> <Gold.Chemscore.DEInternal.Weighted>
0.0880

> <Gold.Chemscore.Rot.Weighted>
4.3998

> <Gold.Chemscore.Internal.Correction.Weighted>
   9.000000E+99

> <Gold.Protein.RotatedTorsions>
[ 6907 6896 6895 6894 ] final  136.64 input  -60.11 | X-H torsion
[ 7974 7965 7964 7962 ] final   10.52 input  175.53 | X-H torsion
[ 8008 7997 7996 7995 ] final  175.11 input   59.86 | X-H torsion
[ 10167 10162 10161 10158 ] final  114.35 input  -65.29 | X-H torsion
[ 10718 10713 10712 10709 ] final  -24.29 input   66.30 | X-H torsion
[ 10763 10752 10751 10750 ] final -132.41 input  -60.55 | X-H torsion
[ 11005 11000 10999 10996 ] final  166.71 input  -57.11 | X-H torsion

> <Gold.Protein.ActiveResidues>
 VAL166  LYS551  ARG553  GLY616  TRP617  ASP618  TYR619  PRO620  LYS621  CYS622 
 ASP623  PHE694  ASN695  SER759  ASP760  ASP761  ALA762  ILE779  LEU786  VAL792 
 PHE793  MET794  SER795  GLU796  ALA797  LYS798  CYS799  TRP800  GLU811  SER814 

> <Gold.Protein.RotatedAtoms>
  152.2871  133.5525  159.5533 H   0  0  0  0  0  0  0  0  0  0  0  0  # atno 6907 bound_to 6896
  150.7219  134.0482  159.3798 H   0  0  0  0  0  0  0  0  0  0  0  0  # atno 6908 bound_to 6896
  151.8390  135.0597  160.0496 H   0  0  0  0  0  0  0  0  0  0  0  0  # atno 6909 bound_to 6896
  146.2387  139.9622  142.8457 H   0  0  0  0  0  0  0  0  0  0  0  0  # atno 7974 bound_to 7965
  156.0904  140.1417  156.9599 H   0  0  0  0  0  0  0  0  0  0  0  0  # atno 8008 bound_to 7997
  154.4638  140.0933  156.7014 H   0  0  0  0  0  0  0  0  0  0  0  0  # atno 8009 bound_to 7997
  155.4928  140.3448  155.4360 H   0  0  0  0  0  0  0  0  0  0  0  0  # atno 8010 bound_to 7997
  139.6395  144.7122  151.2266 H   0  0  0  0  0  0  0  0  0  0  0  0  # atno 10167 bound_to 10162
  156.4797  130.4542  149.6819 H   0  0  0  0  0  0  0  0  0  0  0  0  # atno 10718 bound_to 10713
  154.8743  135.3799  154.4405 H   0  0  0  0  0  0  0  0  0  0  0  0  # atno 10763 bound_to 10752
  153.5091  135.7030  153.5796 H   0  0  0  0  0  0  0  0  0  0  0  0  # atno 10764 bound_to 10752
  153.4093  135.3928  155.2006 H   0  0  0  0  0  0  0  0  0  0  0  0  # atno 10765 bound_to 10752
  140.2692  134.7840  157.3660 H   0  0  0  0  0  0  0  0  0  0  0  0  # atno 11005 bound_to 11000
  145.1760  140.9744  143.4294 LP  0  0  0  0  0  0  0  0  0  0  0  0  # atno 17320 bound_to 7965
  144.9985  139.3620  143.6179 LP  0  0  0  0  0  0  0  0  0  0  0  0  # atno 17321 bound_to 7965
  140.7483  143.6337  150.8399 LP  0  0  0  0  0  0  0  0  0  0  0  0  # atno 17342 bound_to 10162
  139.9972  143.5783  152.2889 LP  0  0  0  0  0  0  0  0  0  0  0  0  # atno 17343 bound_to 10162
  156.3535  130.7444  151.2407 LP  0  0  0  0  0  0  0  0  0  0  0  0  # atno 17370 bound_to 10713
  157.7484  131.0370  150.4438 LP  0  0  0  0  0  0  0  0  0  0  0  0  # atno 17371 bound_to 10713
  140.1389  134.4997  155.8047 LP  0  0  0  0  0  0  0  0  0  0  0  0  # atno 17394 bound_to 11000
  141.2180  133.6818  156.7175 LP  0  0  0  0  0  0  0  0  0  0  0  0  # atno 17395 bound_to 11000

$$$$
