AV-unprocessed.smi:458|AV-procd|sdf|2621|dock4
  -GOLD-   2262023 23D 1   1.00000     0.00000
 Structure written by MMmdl.
 36 38  0  0  0  0  0  0  0  0  1 V2000
  153.2036  135.9099  157.3885 O   0  0  0  0  0  0  0  0  0  0  0  0
  153.9981  137.0164  157.7585 C   0  0  0  0  0  0  0  0  0  0  0  0
  154.6903  136.8186  159.0728 C   0  0  0  0  0  0  0  0  0  0  0  0
  155.4733  135.7647  159.3049 N   0  0  0  0  0  0  0  0  0  0  0  0
  155.9030  135.9843  160.5990 C   0  0  0  0  0  0  0  0  0  0  0  0
  156.7623  135.2223  161.4228 C   0  0  0  0  0  0  0  0  0  0  0  0
  157.0625  135.6519  162.7320 C   0  0  0  0  0  0  0  0  0  0  0  0
  156.5093  136.8472  163.2355 C   0  0  0  0  0  0  0  0  0  0  0  0
  155.6512  137.6216  162.4313 C   0  0  0  0  0  0  0  0  0  0  0  0
  155.3548  137.1886  161.1248 C   0  0  0  0  0  0  0  0  0  0  0  0
  154.5677  137.7001  160.0972 N   0  0  0  0  0  0  0  0  0  0  0  0
  153.7894  138.9311  160.1360 C   0  0  0  0  0  0  0  0  0  0  0  0
  154.6617  140.1879  160.3288 C   0  0  1  0  0  0  0  0  0  0  0  0
  155.5784  140.3129  159.2584 O   0  0  0  0  0  0  0  0  0  0  0  0
  153.8003  141.4288  160.5051 C   0  0  0  0  0  0  0  0  0  0  0  0
  153.8400  142.1744  161.7046 C   0  0  0  0  0  0  0  0  0  0  0  0
  153.0457  143.3288  161.8492 C   0  0  0  0  0  0  0  0  0  0  0  0
  152.2120  143.7475  160.7946 C   0  0  0  0  0  0  0  0  0  0  0  0
  151.4511  144.8589  160.9331 F   0  0  0  0  0  0  0  0  0  0  0  0
  152.1723  143.0112  159.5950 C   0  0  0  0  0  0  0  0  0  0  0  0
  152.9649  141.8559  159.4506 C   0  0  0  0  0  0  0  0  0  0  0  0
  153.4125  135.1862  157.9590 H   0  0  0  0  0  0  0  0  0  0  0  0
  154.7303  137.2129  156.9764 H   0  0  0  0  0  0  0  0  0  0  0  0
  153.3598  137.8988  157.8167 H   0  0  0  0  0  0  0  0  0  0  0  0
  157.1916  134.3057  161.0463 H   0  0  0  0  0  0  0  0  0  0  0  0
  157.7202  135.0616  163.3531 H   0  0  0  0  0  0  0  0  0  0  0  0
  156.7436  137.1689  164.2397 H   0  0  0  0  0  0  0  0  0  0  0  0
  155.2237  138.5362  162.8145 H   0  0  0  0  0  0  0  0  0  0  0  0
  153.2150  139.0080  159.2117 H   0  0  0  0  0  0  0  0  0  0  0  0
  153.0554  138.8543  160.9382 H   0  0  0  0  0  0  0  0  0  0  0  0
  155.2639  140.0686  161.2297 H   0  0  0  0  0  0  0  0  0  0  0  0
  156.4464  140.4151  159.6176 H   0  0  0  0  0  0  0  0  0  0  0  0
  154.4819  141.8671  162.5172 H   0  0  0  0  0  0  0  0  0  0  0  0
  153.0780  143.8946  162.7686 H   0  0  0  0  0  0  0  0  0  0  0  0
  151.5352  143.3334  158.7845 H   0  0  0  0  0  0  0  0  0  0  0  0
  152.9320  141.3005  158.5246 H   0  0  0  0  0  0  0  0  0  0  0  0
  1  2  1  0  0  0  0
  1 22  1  0  0  0  0
  2  3  1  0  0  0  0
  2 23  1  0  0  0  0
  2 24  1  0  0  0  0
  3 11  1  0  0  0  0
  3  4  2  0  0  0  0
  4  5  1  0  0  0  0
  5 10  2  0  0  0  0
  5  6  1  0  0  0  0
  6  7  2  0  0  0  0
  6 25  1  0  0  0  0
  7  8  1  0  0  0  0
  7 26  1  0  0  0  0
  8  9  2  0  0  0  0
  8 27  1  0  0  0  0
  9 10  1  0  0  0  0
  9 28  1  0  0  0  0
 10 11  1  0  0  0  0
 11 12  1  0  0  0  0
 12 13  1  0  0  0  0
 12 29  1  0  0  0  0
 12 30  1  0  0  0  0
 13 14  1  0  0  0  0
 13 15  1  0  0  0  0
 13 31  1  0  0  0  0
 14 32  1  0  0  0  0
 15 21  1  0  0  0  0
 15 16  2  0  0  0  0
 16 17  1  0  0  0  0
 16 33  1  0  0  0  0
 17 18  2  0  0  0  0
 17 34  1  0  0  0  0
 18 19  1  0  0  0  0
 18 20  1  0  0  0  0
 20 21  2  0  0  0  0
 20 35  1  0  0  0  0
 21 36  1  0  0  0  0
M  END
> <s_m_source_file>
AV-unprocessed.smi

> <i_m_source_file_index>
458

> <i_lp_mmshare_version>
43012

> <i_f3d_flags>
0

> <s_epik_input>
W2NIXTFbY0hdW2NIXVtjSF1jKGMxMiluKGMobjIpW0NIMl1bT0hdKVtDSDJdW0NASF0oW09IXSljM1tjSF1bY0hdYyhGKVtjSF1bY0hdMw==

> <s_epik_cmdline>
J2VwaWtfcHl0aG9uJywgJy1waCcsICc3LjAnLCAnLXRuJywgJzgnLCAnLW1hJywgJzIwMCcsICctbWV0YWxfYmluZGluZycsICctaW1hZScsICc8aW5maWxlLm1hZT4nLCAnLW9tYWUnLCAnPG91dGZpbGUubWFlPic=

> <r_epik_Ionization_Penalty>
0.0634724

> <r_epik_Ionization_Penalty_Charging>
0

> <r_epik_Ionization_Penalty_Neutral>
0.0634724

> <r_epik_State_Penalty>
0.0551572

> <r_epik_Charging_Adjusted_Penalty>
0.0551572

> <i_epik_Tot_Q>
0

> <i_epik_Tot_abs_Q>
0

> <r_epik_Metal_State_Penalty>
5.78034e-05

> <b_epik_Metal_Only>
0

> <s_lp_Force_Field>
OPLS_2005

> <r_lp_Energy>
11.6134

> <b_lp_Chiralities_Consistent>
1

> <s_lp_Variant>
AV-unprocessed.smi:458-2

> <Gold.Version>
5.8.1

> <Gold.Id.Protein>
6NUR|6NUR_protein|mol2

> <Gold.PLP.Fitness>
53.4430

> <Gold.PLP.PLP>
-50.5168

> <Gold.PLP.part.hbond>
-1.0000

> <Gold.PLP.part.metal>
0.0000

> <Gold.PLP.part.buried>
-5.8333

> <Gold.PLP.part.nonpolar>
-43.9000

> <Gold.PLP.part.repulsive>
0.0000

> <Gold.PLP.ligand.clash>
0.0000

> <Gold.PLP.ligand.torsion>
0.0523

> <Gold.PLP.Chemscore.Hbond>
1.0000

> <Gold.PLP.Chemscore.CHOScore>
0.0000

> <Gold.PLP.Chemscore.Metal>
0.0000

> <Gold.Chemscore.Hbonds>
donor molecule, donor type, donor heavy atom, donor atom, acceptor molecule, acceptor atom, score
      P1  H  7997  8008       L1    14  0.50
      P1  H 10752 10764       L1     1  0.73

> <Gold.PLP.Chemscore.Internal.Correction>
0.0309

> <Gold.Rescore>
     Score         DG    S(hbond)    S(metal)    S(lipo)     H(rot)  DE(clash)    DE(int)     intcor
     16.67     -16.81       0.94        0.00     130.07       2.75       0.00       0.13       ----

> <Gold.Chemscore.Fitness>
16.6734

> <Gold.Chemscore.DG>
-16.8063

> <Gold.Chemscore.ZeroCoef>
-5.4800

> <Gold.Chemscore.Hbond>
0.9426

> <Gold.Chemscore.Metal>
0.0000

> <Gold.Chemscore.Lipo>
130.0684

> <Gold.Chemscore.Internal_Hbond>
0.0000

> <Gold.Chemscore.DEClash>
0.0000

> <Gold.Chemscore.DEInternal>
0.1329

> <Gold.Chemscore.Rot>
2.7500

> <Gold.Chemscore.Internal.Correction>
   9.000000E+99

> <Gold.Chemscore.Hbonds>
donor molecule, donor type, donor heavy atom, donor atom, acceptor molecule, acceptor atom, score
      P1  H  7997  8008       L1    14  0.24
      P1  H 10752 10764       L1     1  0.31

> <Gold.Chemscore.Hbond.Weighted>
-3.1483

> <Gold.Chemscore.Metal.Weighted>
-0.0000

> <Gold.Chemscore.Lipo.Weighted>
-15.2180

> <Gold.Chemscore.Internal_Hbond.Weighted>
0.0000

> <Gold.Chemscore.DEClash.Weighted>
0.0000

> <Gold.Chemscore.DEInternal.Weighted>
0.1329

> <Gold.Chemscore.Rot.Weighted>
7.0399

> <Gold.Chemscore.Internal.Correction.Weighted>
   9.000000E+99

> <Gold.Protein.RotatedTorsions>
[ 6907 6896 6895 6894 ] final  137.13 input  -60.11 | X-H torsion
[ 7974 7965 7964 7962 ] final  -46.98 input  175.53 | X-H torsion
[ 8008 7997 7996 7995 ] final -167.27 input   59.86 | X-H torsion
[ 10167 10162 10161 10158 ] final  176.14 input  -65.29 | X-H torsion
[ 10718 10713 10712 10709 ] final  167.12 input   66.30 | X-H torsion
[ 10763 10752 10751 10750 ] final   11.11 input  -60.55 | X-H torsion
[ 11005 11000 10999 10996 ] final   28.59 input  -57.11 | X-H torsion

> <Gold.Protein.ActiveResidues>
 VAL166  LYS551  ARG553  GLY616  TRP617  ASP618  TYR619  PRO620  LYS621  CYS622 
 ASP623  PHE694  ASN695  SER759  ASP760  ASP761  ALA762  ILE779  LEU786  VAL792 
 PHE793  MET794  SER795  GLU796  ALA797  LYS798  CYS799  TRP800  GLU811  SER814 

> <Gold.Protein.RotatedAtoms>
  152.2816  133.5476  159.5500 H   0  0  0  0  0  0  0  0  0  0  0  0  # atno 6907 bound_to 6896
  150.7198  134.0556  159.3822 H   0  0  0  0  0  0  0  0  0  0  0  0  # atno 6908 bound_to 6896
  151.8466  135.0572  160.0505 H   0  0  0  0  0  0  0  0  0  0  0  0  # atno 6909 bound_to 6896
  145.9663  140.7428  142.9432 H   0  0  0  0  0  0  0  0  0  0  0  0  # atno 7974 bound_to 7965
  155.8754  140.1000  157.1522 H   0  0  0  0  0  0  0  0  0  0  0  0  # atno 8008 bound_to 7997
  154.4000  140.1339  156.4193 H   0  0  0  0  0  0  0  0  0  0  0  0  # atno 8009 bound_to 7997
  155.7703  140.3461  155.5246 H   0  0  0  0  0  0  0  0  0  0  0  0  # atno 8010 bound_to 7997
  139.5203  144.2950  152.0430 H   0  0  0  0  0  0  0  0  0  0  0  0  # atno 10167 bound_to 10162
  157.0561  131.0327  151.2663 H   0  0  0  0  0  0  0  0  0  0  0  0  # atno 10718 bound_to 10713
  153.1961  135.6849  153.8290 H   0  0  0  0  0  0  0  0  0  0  0  0  # atno 10763 bound_to 10752
  153.7572  135.3215  155.3332 H   0  0  0  0  0  0  0  0  0  0  0  0  # atno 10764 bound_to 10752
  154.8145  135.4695  154.0706 H   0  0  0  0  0  0  0  0  0  0  0  0  # atno 10765 bound_to 10752
  140.3140  134.2618  155.7729 H   0  0  0  0  0  0  0  0  0  0  0  0  # atno 11005 bound_to 11000
  144.6826  140.2674  143.7310 LP  0  0  0  0  0  0  0  0  0  0  0  0  # atno 17320 bound_to 7965
  145.7969  139.1949  143.2070 LP  0  0  0  0  0  0  0  0  0  0  0  0  # atno 17321 bound_to 7965
  140.2399  144.4280  150.6264 LP  0  0  0  0  0  0  0  0  0  0  0  0  # atno 17342 bound_to 10162
  140.6297  143.2186  151.6521 LP  0  0  0  0  0  0  0  0  0  0  0  0  # atno 17343 bound_to 10162
  157.4992  130.7869  149.7587 LP  0  0  0  0  0  0  0  0  0  0  0  0  # atno 17370 bound_to 10713
  155.9992  130.3890  150.2671 LP  0  0  0  0  0  0  0  0  0  0  0  0  # atno 17371 bound_to 10713
  141.2102  133.7727  156.9949 LP  0  0  0  0  0  0  0  0  0  0  0  0  # atno 17394 bound_to 11000
  140.1000  134.9541  157.1908 LP  0  0  0  0  0  0  0  0  0  0  0  0  # atno 17395 bound_to 11000

$$$$
