AV-unprocessed.smi:2124|AV-procd|sdf|8670|dock5
  -GOLD-   2272011423D 1   1.00000     0.00000
 Structure written by MMmdl.
 46 48  0  0  0  0  0  0  0  0  2 V2000
  151.0055  142.9353  157.5208 C   0  0  0  0  0  0  0  0  0  0  0  0
  151.0373  141.6715  156.6883 C   0  0  0  0  0  0  0  0  0  0  0  0
  150.0457  141.3999  155.9284 N   0  0  0  0  0  0  0  0  0  0  0  0
  150.0659  140.2253  155.1572 C   0  0  0  0  0  0  0  0  0  0  0  0
  148.8428  139.9809  154.2908 C   0  0  0  0  0  0  0  0  0  0  0  0
  151.1263  139.3689  155.2053 C   0  0  0  0  0  0  0  0  0  0  0  0
  151.2055  138.0759  154.3949 C   0  0  0  0  0  0  0  0  0  0  0  0
  150.9608  136.7823  155.1757 C   0  0  0  0  0  0  0  0  0  0  0  0
  151.5399  136.5754  156.2424 O   0  0  0  0  0  0  0  0  0  0  0  0
  150.0947  135.9170  154.6265 N   0  0  0  0  0  0  0  0  0  0  0  0
  149.6860  134.6374  155.2025 C   0  0  2  0  0  0  0  0  0  0  0  0
  150.9093  133.7041  155.2732 C   0  0  0  0  0  0  0  0  0  0  0  0
  148.5265  134.0452  154.3633 C   0  0  2  0  0  0  0  0  0  0  0  0
  147.7145  132.9541  155.1069 C   0  0  0  0  0  0  0  0  0  0  0  0
  147.7342  131.7667  154.1290 C   0  0  1  0  0  0  0  0  0  0  0  0
  146.8779  132.1003  152.8939 C   0  0  0  0  0  0  0  0  0  0  0  0
  147.7448  133.1346  152.1522 C   0  0  0  0  0  0  0  0  0  0  0  0
  148.9634  133.2880  153.0830 C   0  0  2  0  0  0  0  0  0  0  0  0
  149.1485  131.8555  153.5729 C   0  0  0  0  0  0  0  0  0  0  0  0
  152.2535  139.7236  156.0853 C   0  0  0  0  0  0  0  0  0  0  0  0
  153.2428  138.9944  156.1478 O   0  0  0  0  0  0  0  0  0  0  0  0
  152.1545  140.8756  156.8081 N   0  5  0  0  0  0  0  0  0  0  0  0
  150.2229  143.6122  157.1755 H   0  0  0  0  0  0  0  0  0  0  0  0
  151.9596  143.4596  157.4580 H   0  0  0  0  0  0  0  0  0  0  0  0
  150.8123  142.6913  158.5655 H   0  0  0  0  0  0  0  0  0  0  0  0
  148.3038  139.0975  154.6331 H   0  0  0  0  0  0  0  0  0  0  0  0
  149.1305  139.8313  153.2503 H   0  0  0  0  0  0  0  0  0  0  0  0
  148.1571  140.8280  154.3282 H   0  0  0  0  0  0  0  0  0  0  0  0
  150.5165  138.1325  153.5509 H   0  0  0  0  0  0  0  0  0  0  0  0
  152.1914  137.9962  153.9380 H   0  0  0  0  0  0  0  0  0  0  0  0
  149.6662  136.1761  153.7496 H   0  0  0  0  0  0  0  0  0  0  0  0
  149.3245  134.8102  156.2175 H   0  0  0  0  0  0  0  0  0  0  0  0
  150.6749  132.7642  155.7708 H   0  0  0  0  0  0  0  0  0  0  0  0
  151.7227  134.1635  155.8357 H   0  0  0  0  0  0  0  0  0  0  0  0
  151.2875  133.4696  154.2778 H   0  0  0  0  0  0  0  0  0  0  0  0
  147.8611  134.8657  154.0891 H   0  0  0  0  0  0  0  0  0  0  0  0
  148.1940  132.6644  156.0433 H   0  0  0  0  0  0  0  0  0  0  0  0
  146.7015  133.2805  155.3449 H   0  0  0  0  0  0  0  0  0  0  0  0
  147.4805  130.8138  154.5941 H   0  0  0  0  0  0  0  0  0  0  0  0
  146.7225  131.2157  152.2749 H   0  0  0  0  0  0  0  0  0  0  0  0
  145.8987  132.4957  153.1667 H   0  0  0  0  0  0  0  0  0  0  0  0
  148.0493  132.7485  151.1786 H   0  0  0  0  0  0  0  0  0  0  0  0
  147.2221  134.0773  151.9861 H   0  0  0  0  0  0  0  0  0  0  0  0
  149.8290  133.7088  152.5734 H   0  0  0  0  0  0  0  0  0  0  0  0
  149.9220  131.7499  154.3354 H   0  0  0  0  0  0  0  0  0  0  0  0
  149.3418  131.1441  152.7680 H   0  0  0  0  0  0  0  0  0  0  0  0
  1  2  1  0  0  0  0
  1 23  1  0  0  0  0
  1 24  1  0  0  0  0
  1 25  1  0  0  0  0
  2 22  1  0  0  0  0
  2  3  2  0  0  0  0
  3  4  1  0  0  0  0
  4  5  1  0  0  0  0
  4  6  2  0  0  0  0
  5 26  1  0  0  0  0
  5 27  1  0  0  0  0
  5 28  1  0  0  0  0
  6  7  1  0  0  0  0
  6 20  1  0  0  0  0
  7  8  1  0  0  0  0
  7 29  1  0  0  0  0
  7 30  1  0  0  0  0
  8  9  2  0  0  0  0
  8 10  1  0  0  0  0
 10 11  1  0  0  0  0
 10 31  1  0  0  0  0
 11 12  1  0  0  0  0
 11 13  1  0  0  0  0
 11 32  1  0  0  0  0
 12 33  1  0  0  0  0
 12 34  1  0  0  0  0
 12 35  1  0  0  0  0
 13 18  1  0  0  0  0
 13 14  1  0  0  0  0
 13 36  1  0  0  0  0
 14 15  1  0  0  0  0
 14 37  1  0  0  0  0
 14 38  1  0  0  0  0
 15 19  1  0  0  0  0
 15 16  1  0  0  0  0
 15 39  1  0  0  0  0
 16 17  1  0  0  0  0
 16 40  1  0  0  0  0
 16 41  1  0  0  0  0
 17 18  1  0  0  0  0
 17 42  1  0  0  0  0
 17 43  1  0  0  0  0
 18 19  1  0  0  0  0
 18 44  1  0  0  0  0
 19 45  1  0  0  0  0
 19 46  1  0  0  0  0
 20 21  2  0  0  0  0
 20 22  1  0  0  0  0
M  CHG  1  22  -1
M  END
> <s_m_source_file>
AV-unprocessed.smi

> <i_m_source_file_index>
2124

> <i_lp_mmshare_version>
43012

> <i_f3d_flags>
0

> <s_epik_input>
W0NIM11jMW5jKFtDSDNdKWMoYyg9TylbbkhdMSlbQ0gyXUMoPU8pW05IXVtDQEhdKFtDSDNdKVtDQEhdKFtDSDJdW0NASF0yMylbQ0BIXShbQ0gyXTMpW0NIMl1bQ0gyXTI=

> <s_epik_cmdline>
J2VwaWtfcHl0aG9uJywgJy1waCcsICc3LjAnLCAnLXRuJywgJzgnLCAnLW1hJywgJzIwMCcsICctbWV0YWxfYmluZGluZycsICctaW1hZScsICc8aW5maWxlLm1hZT4nLCAnLW9tYWUnLCAnPG91dGZpbGUubWFlPic=

> <r_lp_tautomer_probability>
0.839158

> <r_epik_Ionization_Penalty>
6.63797

> <r_epik_Ionization_Penalty_Charging>
7.48558e-08

> <r_epik_Ionization_Penalty_Neutral>
6.63797

> <r_epik_State_Penalty>
4.49496

> <r_epik_Charging_Adjusted_Penalty>
4.49496

> <i_epik_Tot_Q>
-1

> <i_epik_Tot_abs_Q>
1

> <r_epik_Metal_State_Penalty>
0.841241

> <b_epik_Metal_Only>
1

> <s_lp_Force_Field>
OPLS_2005

> <r_lp_Energy>
56.157

> <b_lp_Chiralities_Consistent>
1

> <s_lp_Variant>
AV-unprocessed.smi:2124-21

> <Gold.Version>
5.8.1

> <Gold.Id.Protein>
6NUR|6NUR_protein|mol2

> <Gold.PLP.Fitness>
40.4290

> <Gold.PLP.PLP>
-36.3371

> <Gold.PLP.part.hbond>
-2.3188

> <Gold.PLP.part.metal>
0.0000

> <Gold.PLP.part.buried>
-0.7357

> <Gold.PLP.part.nonpolar>
-32.5052

> <Gold.PLP.part.repulsive>
0.1329

> <Gold.PLP.ligand.clash>
0.0000

> <Gold.PLP.ligand.torsion>
0.7407

> <Gold.PLP.Chemscore.Hbond>
1.8500

> <Gold.PLP.Chemscore.CHOScore>
0.0000

> <Gold.PLP.Chemscore.Metal>
0.0000

> <Gold.Chemscore.Hbonds>
donor molecule, donor type, donor heavy atom, donor atom, acceptor molecule, acceptor atom, score
      L1  H    10    31       P1  7948  1.00
      P1  H  7997  8009       L1    21  0.95
      P1  H 10752 10765       L1     9  0.04

> <Gold.PLP.Chemscore.Internal.Correction>
0.0232

> <Gold.Rescore>
     Score         DG    S(hbond)    S(metal)    S(lipo)     H(rot)  DE(clash)    DE(int)     intcor
     14.46     -16.23       1.78        0.00      76.27       1.61       0.11       1.66       ----

> <Gold.Chemscore.Fitness>
14.4619

> <Gold.Chemscore.DG>
-16.2287

> <Gold.Chemscore.ZeroCoef>
-5.4800

> <Gold.Chemscore.Hbond>
1.7768

> <Gold.Chemscore.Metal>
0.0000

> <Gold.Chemscore.Lipo>
76.2669

> <Gold.Chemscore.Internal_Hbond>
0.0000

> <Gold.Chemscore.DEClash>
0.1107

> <Gold.Chemscore.DEInternal>
1.6561

> <Gold.Chemscore.Rot>
1.6051

> <Gold.Chemscore.Internal.Correction>
   9.000000E+99

> <Gold.Chemscore.Hbonds>
donor molecule, donor type, donor heavy atom, donor atom, acceptor molecule, acceptor atom, score
      L1  H    10    31       P1  7948  0.39
      P1  H  7997  8009       L1    21  0.21

> <Gold.Chemscore.Hbond.Weighted>
-5.9344

> <Gold.Chemscore.Metal.Weighted>
-0.0000

> <Gold.Chemscore.Lipo.Weighted>
-8.9232

> <Gold.Chemscore.Internal_Hbond.Weighted>
0.0000

> <Gold.Chemscore.DEClash.Weighted>
0.1107

> <Gold.Chemscore.DEInternal.Weighted>
1.6561

> <Gold.Chemscore.Rot.Weighted>
4.1090

> <Gold.Chemscore.Internal.Correction.Weighted>
   9.000000E+99

> <Gold.Protein.RotatedTorsions>
[ 6907 6896 6895 6894 ] final   -4.78 input  -60.11 | X-H torsion
[ 7974 7965 7964 7962 ] final  174.47 input  175.53 | X-H torsion
[ 8008 7997 7996 7995 ] final -161.47 input   59.86 | X-H torsion
[ 10167 10162 10161 10158 ] final   13.66 input  -65.29 | X-H torsion
[ 10718 10713 10712 10709 ] final  159.84 input   66.30 | X-H torsion
[ 10763 10752 10751 10750 ] final -162.76 input  -60.55 | X-H torsion
[ 11005 11000 10999 10996 ] final -136.23 input  -57.11 | X-H torsion

> <Gold.Protein.ActiveResidues>
 VAL166  LYS551  ARG553  GLY616  TRP617  ASP618  TYR619  PRO620  LYS621  CYS622 
 ASP623  PHE694  ASN695  SER759  ASP760  ASP761  ALA762  ILE779  LEU786  VAL792 
 PHE793  MET794  SER795  GLU796  ALA797  LYS798  CYS799  TRP800  GLU811  SER814 

> <Gold.Protein.RotatedAtoms>
  151.4921  135.1058  159.9805 H   0  0  0  0  0  0  0  0  0  0  0  0  # atno 6907 bound_to 6896
  152.4737  133.8084  159.7000 H   0  0  0  0  0  0  0  0  0  0  0  0  # atno 6908 bound_to 6896
  150.8761  133.7375  159.2972 H   0  0  0  0  0  0  0  0  0  0  0  0  # atno 6909 bound_to 6896
  144.7221  139.9801  143.6438 H   0  0  0  0  0  0  0  0  0  0  0  0  # atno 7974 bound_to 7965
  155.7926  140.0880  157.2000 H   0  0  0  0  0  0  0  0  0  0  0  0  # atno 8008 bound_to 7997
  154.3985  140.1487  156.3239 H   0  0  0  0  0  0  0  0  0  0  0  0  # atno 8009 bound_to 7997
  155.8543  140.3433  155.5716 H   0  0  0  0  0  0  0  0  0  0  0  0  # atno 8010 bound_to 7997
  140.5987  143.8648  150.6944 H   0  0  0  0  0  0  0  0  0  0  0  0  # atno 10167 bound_to 10162
  157.1586  131.0582  151.2243 H   0  0  0  0  0  0  0  0  0  0  0  0  # atno 10718 bound_to 10713
  154.7185  135.3020  154.9086 H   0  0  0  0  0  0  0  0  0  0  0  0  # atno 10763 bound_to 10752
  153.9965  135.6712  153.4761 H   0  0  0  0  0  0  0  0  0  0  0  0  # atno 10764 bound_to 10752
  153.0813  135.5007  154.8425 H   0  0  0  0  0  0  0  0  0  0  0  0  # atno 10765 bound_to 10752
  140.8825  134.1914  157.4582 H   0  0  0  0  0  0  0  0  0  0  0  0  # atno 11005 bound_to 11000
  146.0494  139.3497  143.0648 LP  0  0  0  0  0  0  0  0  0  0  0  0  # atno 17320 bound_to 7965
  145.8234  140.9668  143.0887 LP  0  0  0  0  0  0  0  0  0  0  0  0  # atno 17321 bound_to 7965
  140.2189  143.3824  152.1659 LP  0  0  0  0  0  0  0  0  0  0  0  0  # atno 17342 bound_to 10162
  139.5276  144.7121  151.5172 LP  0  0  0  0  0  0  0  0  0  0  0  0  # atno 17343 bound_to 10162
  157.4153  130.7408  149.6871 LP  0  0  0  0  0  0  0  0  0  0  0  0  # atno 17370 bound_to 10713
  155.9757  130.4084  150.3826 LP  0  0  0  0  0  0  0  0  0  0  0  0  # atno 17371 bound_to 10713
  139.8721  134.9823  156.5152 LP  0  0  0  0  0  0  0  0  0  0  0  0  # atno 17394 bound_to 11000
  140.8445  133.8180  155.9107 LP  0  0  0  0  0  0  0  0  0  0  0  0  # atno 17395 bound_to 11000

$$$$
