AV-unprocessed.smi:542|AV-procd|sdf|2874|dock10
  -GOLD-   2262023363D 1   1.00000     0.00000
 Structure written by MMmdl.
 45 47  0  0  0  0  0  0  0  0  2 V2000
  149.4303  141.3370  154.7127 C   0  0  0  0  0  0  0  0  0  0  0  0
  150.4902  140.4096  154.5586 O   0  0  0  0  0  0  0  0  0  0  0  0
  150.2858  139.2234  155.3074 C   0  0  0  0  0  0  0  0  0  0  0  0
  150.3498  139.5674  156.8050 C   0  0  0  0  0  0  0  0  0  0  0  0
  151.6525  139.2644  157.3923 N   0  0  0  0  0  0  0  0  0  0  0  0
  152.5041  140.0897  158.0691 C   0  0  0  0  0  0  0  0  0  0  0  0
  152.2523  141.4501  158.2991 N   0  0  0  0  0  0  0  0  0  0  0  0
  151.3920  142.3446  157.5202 C   0  0  0  0  0  0  0  0  0  0  0  0
  150.4249  143.1440  158.4131 C   0  0  0  0  0  0  0  0  0  0  0  0
  151.1989  143.9741  159.4494 C   0  0  0  0  0  0  0  0  0  0  0  0
  150.2580  144.7180  160.4072 C   0  0  0  0  0  0  0  0  0  0  0  0
  152.1740  143.0529  160.2003 C   0  0  0  0  0  0  0  0  0  0  0  0
  153.0546  142.2638  159.2153 C   0  0  0  0  0  0  0  0  0  0  0  0
  153.5996  139.4815  158.5321 N   0  0  0  0  0  0  0  0  0  0  0  0
  153.4462  138.1730  158.1069 C   0  0  0  0  0  0  0  0  0  0  0  0
  152.2790  138.0124  157.4298 C   0  0  0  0  0  0  0  0  0  0  0  0
  151.8203  136.7136  156.8850 C   0  0  0  0  0  0  0  0  0  0  0  0
  150.7400  136.6109  156.3076 O   0  0  0  0  0  0  0  0  0  0  0  0
  152.7235  135.7080  157.1121 N   0  5  0  0  0  0  0  0  0  0  0  0
  153.9206  135.8307  157.7835 C   0  0  0  0  0  0  0  0  0  0  0  0
  154.6776  134.8724  157.9436 O   0  0  0  0  0  0  0  0  0  0  0  0
  154.2931  137.0465  158.2931 N   0  0  0  0  0  0  0  0  0  0  0  0
  155.5565  137.2056  159.0190 C   0  0  0  0  0  0  0  0  0  0  0  0
  149.6318  142.2267  154.1160 H   0  0  0  0  0  0  0  0  0  0  0  0
  149.3254  141.6462  155.7535 H   0  0  0  0  0  0  0  0  0  0  0  0
  148.4834  140.9131  154.3760 H   0  0  0  0  0  0  0  0  0  0  0  0
  149.3198  138.7871  155.0538 H   0  0  0  0  0  0  0  0  0  0  0  0
  151.0423  138.4844  155.0439 H   0  0  0  0  0  0  0  0  0  0  0  0
  150.1095  140.6145  156.9697 H   0  0  0  0  0  0  0  0  0  0  0  0
  149.5824  139.0194  157.3510 H   0  0  0  0  0  0  0  0  0  0  0  0
  152.0255  143.0338  156.9601 H   0  0  0  0  0  0  0  0  0  0  0  0
  150.8357  141.7924  156.7692 H   0  0  0  0  0  0  0  0  0  0  0  0
  149.8100  143.7984  157.7947 H   0  0  0  0  0  0  0  0  0  0  0  0
  149.7391  142.4652  158.9207 H   0  0  0  0  0  0  0  0  0  0  0  0
  151.7867  144.7205  158.9129 H   0  0  0  0  0  0  0  0  0  0  0  0
  149.6388  144.0228  160.9748 H   0  0  0  0  0  0  0  0  0  0  0  0
  149.5928  145.3877  159.8615 H   0  0  0  0  0  0  0  0  0  0  0  0
  150.8209  145.3211  161.1199 H   0  0  0  0  0  0  0  0  0  0  0  0
  152.8045  143.6403  160.8685 H   0  0  0  0  0  0  0  0  0  0  0  0
  151.6196  142.3553  160.8297 H   0  0  0  0  0  0  0  0  0  0  0  0
  153.7333  141.6258  159.7822 H   0  0  0  0  0  0  0  0  0  0  0  0
  153.6825  142.9439  158.6384 H   0  0  0  0  0  0  0  0  0  0  0  0
  155.5881  136.5395  159.8820 H   0  0  0  0  0  0  0  0  0  0  0  0
  155.7058  138.2200  159.3876 H   0  0  0  0  0  0  0  0  0  0  0  0
  156.4009  136.9658  158.3714 H   0  0  0  0  0  0  0  0  0  0  0  0
  1  2  1  0  0  0  0
  1 24  1  0  0  0  0
  1 25  1  0  0  0  0
  1 26  1  0  0  0  0
  2  3  1  0  0  0  0
  3  4  1  0  0  0  0
  3 27  1  0  0  0  0
  3 28  1  0  0  0  0
  4  5  1  0  0  0  0
  4 29  1  0  0  0  0
  4 30  1  0  0  0  0
  5 16  1  0  0  0  0
  5  6  1  0  0  0  0
  6  7  1  0  0  0  0
  6 14  2  0  0  0  0
  7 13  1  0  0  0  0
  7  8  1  0  0  0  0
  8  9  1  0  0  0  0
  8 31  1  0  0  0  0
  8 32  1  0  0  0  0
  9 10  1  0  0  0  0
  9 33  1  0  0  0  0
  9 34  1  0  0  0  0
 10 11  1  0  0  0  0
 10 12  1  0  0  0  0
 10 35  1  0  0  0  0
 11 36  1  0  0  0  0
 11 37  1  0  0  0  0
 11 38  1  0  0  0  0
 12 13  1  0  0  0  0
 12 39  1  0  0  0  0
 12 40  1  0  0  0  0
 13 41  1  0  0  0  0
 13 42  1  0  0  0  0
 14 15  1  0  0  0  0
 15 22  1  0  0  0  0
 15 16  2  0  0  0  0
 16 17  1  0  0  0  0
 17 18  2  0  0  0  0
 17 19  1  0  0  0  0
 19 20  1  0  0  0  0
 20 21  2  0  0  0  0
 20 22  1  0  0  0  0
 22 23  1  0  0  0  0
 23 43  1  0  0  0  0
 23 44  1  0  0  0  0
 23 45  1  0  0  0  0
M  CHG  1  19  -1
M  END
> <s_m_source_file>
AV-unprocessed.smi

> <i_m_source_file_index>
542

> <i_lp_mmshare_version>
43012

> <i_f3d_flags>
0

> <s_epik_input>
W0NIM11uMWMoPU8pW25IXWMoPU8pYyhjMTIpbihbQ0gyXVtDSDJdT1tDSDNdKWMobjIpTjNbQ0gyXVtDSDJdW0NIXShbQ0gzXSlbQ0gyXVtDSDJdMw==

> <s_epik_cmdline>
J2VwaWtfcHl0aG9uJywgJy1waCcsICc3LjAnLCAnLXRuJywgJzgnLCAnLW1hJywgJzIwMCcsICctbWV0YWxfYmluZGluZycsICctaW1hZScsICc8aW5maWxlLm1hZT4nLCAnLW9tYWUnLCAnPG91dGZpbGUubWFlPic=

> <r_lp_tautomer_probability>
1

> <r_epik_Ionization_Penalty>
5.11335

> <r_epik_Ionization_Penalty_Charging>
0.0783784

> <r_epik_Ionization_Penalty_Neutral>
5.03497

> <r_epik_State_Penalty>
5.01923

> <r_epik_Charging_Adjusted_Penalty>
5.09761

> <i_epik_Tot_Q>
-1

> <i_epik_Tot_abs_Q>
1

> <r_epik_Metal_State_Penalty>
1.13361

> <b_epik_Metal_Only>
1

> <s_lp_Force_Field>
OPLS_2005

> <r_lp_Energy>
42.8721

> <b_lp_Chiralities_Consistent>
1

> <s_lp_Variant>
AV-unprocessed.smi:542-2

> <Gold.Version>
5.8.1

> <Gold.Id.Protein>
6NUR|6NUR_protein|mol2

> <Gold.PLP.Fitness>
44.0214

> <Gold.PLP.PLP>
-32.7653

> <Gold.PLP.part.hbond>
-3.0000

> <Gold.PLP.part.metal>
0.0000

> <Gold.PLP.part.buried>
-5.0450

> <Gold.PLP.part.nonpolar>
-24.1149

> <Gold.PLP.part.repulsive>
0.1262

> <Gold.PLP.ligand.clash>
0.0000

> <Gold.PLP.ligand.torsion>
0.4340

> <Gold.PLP.Chemscore.Hbond>
4.0000

> <Gold.PLP.Chemscore.CHOScore>
0.0000

> <Gold.PLP.Chemscore.Metal>
0.0000

> <Gold.Chemscore.Hbonds>
donor molecule, donor type, donor heavy atom, donor atom, acceptor molecule, acceptor atom, score
      P1  H  7989  7998       L1     2  1.00
      P1  H  7997  8010       L1    14  0.90
      P1  H 10752 10763       L1    19  1.70

> <Gold.PLP.Chemscore.Internal.Correction>
0.1242

> <Gold.Rescore>
     Score         DG    S(hbond)    S(metal)    S(lipo)     H(rot)  DE(clash)    DE(int)     intcor
     13.12     -15.53       1.24        0.00      81.89       1.44       0.01       2.39       ----

> <Gold.Chemscore.Fitness>
13.1206

> <Gold.Chemscore.DG>
-15.5264

> <Gold.Chemscore.ZeroCoef>
-5.4800

> <Gold.Chemscore.Hbond>
1.2409

> <Gold.Chemscore.Metal>
0.0000

> <Gold.Chemscore.Lipo>
81.8892

> <Gold.Chemscore.Internal_Hbond>
0.0000

> <Gold.Chemscore.DEClash>
0.0141

> <Gold.Chemscore.DEInternal>
2.3917

> <Gold.Chemscore.Rot>
1.4372

> <Gold.Chemscore.Internal.Correction>
   9.000000E+99

> <Gold.Chemscore.Hbonds>
donor molecule, donor type, donor heavy atom, donor atom, acceptor molecule, acceptor atom, score
      P1  H  7989  7998       L1     2  0.85
      P1  H  7997  8010       L1    14  0.07
      P1  H 10752 10763       L1    19  0.06

> <Gold.Chemscore.Hbond.Weighted>
-4.1447

> <Gold.Chemscore.Metal.Weighted>
-0.0000

> <Gold.Chemscore.Lipo.Weighted>
-9.5810

> <Gold.Chemscore.Internal_Hbond.Weighted>
0.0000

> <Gold.Chemscore.DEClash.Weighted>
0.0141

> <Gold.Chemscore.DEInternal.Weighted>
2.3917

> <Gold.Chemscore.Rot.Weighted>
3.6793

> <Gold.Chemscore.Internal.Correction.Weighted>
   9.000000E+99

> <Gold.Protein.RotatedTorsions>
[ 6907 6896 6895 6894 ] final   22.70 input  -60.11 | X-H torsion
[ 7974 7965 7964 7962 ] final -114.12 input  175.53 | X-H torsion
[ 8008 7997 7996 7995 ] final    6.96 input   59.86 | X-H torsion
[ 10167 10162 10161 10158 ] final  145.30 input  -65.29 | X-H torsion
[ 10718 10713 10712 10709 ] final   19.45 input   66.30 | X-H torsion
[ 10763 10752 10751 10750 ] final   99.40 input  -60.55 | X-H torsion
[ 11005 11000 10999 10996 ] final  148.42 input  -57.11 | X-H torsion

> <Gold.Protein.ActiveResidues>
 VAL166  LYS551  ARG553  GLY616  TRP617  ASP618  TYR619  PRO620  LYS621  CYS622 
 ASP623  PHE694  ASN695  SER759  ASP760  ASP761  ALA762  ILE779  LEU786  VAL792 
 PHE793  MET794  SER795  GLU796  ALA797  LYS798  CYS799  TRP800  GLU811  SER814 

> <Gold.Protein.RotatedAtoms>
  151.9312  135.0255  160.0529 H   0  0  0  0  0  0  0  0  0  0  0  0  # atno 6907 bound_to 6896
  152.2117  133.4911  159.5122 H   0  0  0  0  0  0  0  0  0  0  0  0  # atno 6908 bound_to 6896
  150.6978  134.1375  159.4135 H   0  0  0  0  0  0  0  0  0  0  0  0  # atno 6909 bound_to 6896
  145.1239  140.8685  143.3798 H   0  0  0  0  0  0  0  0  0  0  0  0  # atno 7974 bound_to 7965
  154.7477  140.2761  155.6319 H   0  0  0  0  0  0  0  0  0  0  0  0  # atno 8008 bound_to 7997
  156.2888  140.2684  156.2149 H   0  0  0  0  0  0  0  0  0  0  0  0  # atno 8009 bound_to 7997
  155.0176  140.0371  157.2414 H   0  0  0  0  0  0  0  0  0  0  0  0  # atno 8010 bound_to 7997
  139.4929  144.5911  151.6678 H   0  0  0  0  0  0  0  0  0  0  0  0  # atno 10167 bound_to 10162
  157.1106  130.6507  149.5896 H   0  0  0  0  0  0  0  0  0  0  0  0  # atno 10718 bound_to 10713
  153.3009  135.4115  155.1252 H   0  0  0  0  0  0  0  0  0  0  0  0  # atno 10763 bound_to 10752
  154.8549  135.3541  154.5853 H   0  0  0  0  0  0  0  0  0  0  0  0  # atno 10764 bound_to 10752
  153.6278  135.7062  153.5345 H   0  0  0  0  0  0  0  0  0  0  0  0  # atno 10765 bound_to 10752
  140.0958  134.9013  157.1721 H   0  0  0  0  0  0  0  0  0  0  0  0  # atno 11005 bound_to 11000
  145.0710  139.3032  143.5832 LP  0  0  0  0  0  0  0  0  0  0  0  0  # atno 17320 bound_to 7965
  146.3519  140.0184  142.8660 LP  0  0  0  0  0  0  0  0  0  0  0  0  # atno 17321 bound_to 7965
  140.5539  144.0380  150.6139 LP  0  0  0  0  0  0  0  0  0  0  0  0  # atno 17342 bound_to 10162
  140.3444  143.3000  152.0554 LP  0  0  0  0  0  0  0  0  0  0  0  0  # atno 17343 bound_to 10162
  155.9851  130.4880  150.7017 LP  0  0  0  0  0  0  0  0  0  0  0  0  # atno 17370 bound_to 10713
  157.4563  131.0878  151.0793 LP  0  0  0  0  0  0  0  0  0  0  0  0  # atno 17371 bound_to 10713
  140.3289  134.2833  155.7232 LP  0  0  0  0  0  0  0  0  0  0  0  0  # atno 17394 bound_to 11000
  141.2091  133.7757  157.0015 LP  0  0  0  0  0  0  0  0  0  0  0  0  # atno 17395 bound_to 11000

$$$$
