AV-unprocessed.smi:2093|AV-procd|sdf|8545|dock3
  -GOLD-   2272011263D 1   1.00000     0.00000
 Structure written by MMmdl.
 31 32  0  0  0  0  0  0  0  0  1 V2000
  152.2166  139.8573  159.4818 C   0  0  0  0  0  0  0  0  0  0  0  0
  152.6889  141.1713  158.8428 C   0  0  1  0  0  0  0  0  0  0  0  0
  151.6257  141.6840  157.9795 N   0  0  0  0  0  0  0  0  0  0  0  0
  150.8756  140.9564  157.1384 C   0  0  0  0  0  0  0  0  0  0  0  0
  151.0003  139.7405  156.9901 O   0  0  0  0  0  0  0  0  0  0  0  0
  149.9906  141.7307  156.4867 N   0  0  0  0  0  0  0  0  0  0  0  0
  149.0267  141.3405  155.5203 C   0  0  0  0  0  0  0  0  0  0  0  0
  149.3202  140.9632  154.2704 N   0  0  0  0  0  0  0  0  0  0  0  0
  148.1762  140.6309  153.5405 C   0  0  0  0  0  0  0  0  0  0  0  0
  147.0117  140.7624  154.2553 C   0  0  0  0  0  0  0  0  0  0  0  0
  147.3075  141.3110  155.8835 S   0  0  0  0  0  0  0  0  0  0  0  0
  153.0729  142.2223  159.9046 C   0  0  2  0  0  0  0  0  0  0  0  0
  152.5440  141.9410  161.3132 C   0  0  0  0  0  0  0  0  0  0  0  0
  152.5323  143.3256  161.9176 C   0  0  0  0  0  0  0  0  0  0  0  0
  152.0722  144.1726  160.7357 C   0  0  0  0  0  0  0  0  0  0  0  0
  152.5326  143.4987  159.5669 O   0  0  0  0  0  0  0  0  0  0  0  0
  152.9985  139.4169  160.1010 H   0  0  0  0  0  0  0  0  0  0  0  0
  151.9524  139.1235  158.7197 H   0  0  0  0  0  0  0  0  0  0  0  0
  151.3410  140.0132  160.1131 H   0  0  0  0  0  0  0  0  0  0  0  0
  153.5753  140.9458  158.2472 H   0  0  0  0  0  0  0  0  0  0  0  0
  151.4508  142.6771  158.0266 H   0  0  0  0  0  0  0  0  0  0  0  0
  150.0097  142.7156  156.7059 H   0  0  0  0  0  0  0  0  0  0  0  0
  148.2828  140.3092  152.5150 H   0  0  0  0  0  0  0  0  0  0  0  0
  146.0021  140.5698  153.9241 H   0  0  0  0  0  0  0  0  0  0  0  0
  154.1583  142.3272  159.9517 H   0  0  0  0  0  0  0  0  0  0  0  0
  151.5283  141.5448  161.2715 H   0  0  0  0  0  0  0  0  0  0  0  0
  153.1635  141.2371  161.8696 H   0  0  0  0  0  0  0  0  0  0  0  0
  151.8781  143.4120  162.7853 H   0  0  0  0  0  0  0  0  0  0  0  0
  153.5413  143.6118  162.2176 H   0  0  0  0  0  0  0  0  0  0  0  0
  150.9829  144.2175  160.7008 H   0  0  0  0  0  0  0  0  0  0  0  0
  152.4521  145.1933  160.7836 H   0  0  0  0  0  0  0  0  0  0  0  0
  1  2  1  0  0  0  0
  1 17  1  0  0  0  0
  1 18  1  0  0  0  0
  1 19  1  0  0  0  0
  2  3  1  0  0  0  0
  2 12  1  0  0  0  0
  2 20  1  0  0  0  0
  3  4  1  0  0  0  0
  3 21  1  0  0  0  0
  4  5  2  0  0  0  0
  4  6  1  0  0  0  0
  6  7  1  0  0  0  0
  6 22  1  0  0  0  0
  7 11  1  0  0  0  0
  7  8  2  0  0  0  0
  8  9  1  0  0  0  0
  9 10  2  0  0  0  0
  9 23  1  0  0  0  0
 10 11  1  0  0  0  0
 10 24  1  0  0  0  0
 12 16  1  0  0  0  0
 12 13  1  0  0  0  0
 12 25  1  0  0  0  0
 13 14  1  0  0  0  0
 13 26  1  0  0  0  0
 13 27  1  0  0  0  0
 14 15  1  0  0  0  0
 14 28  1  0  0  0  0
 14 29  1  0  0  0  0
 15 16  1  0  0  0  0
 15 30  1  0  0  0  0
 15 31  1  0  0  0  0
M  END
> <s_m_source_file>
AV-unprocessed.smi

> <i_m_source_file_index>
2093

> <i_lp_mmshare_version>
43012

> <i_f3d_flags>
0

> <s_epik_input>
TzFbQ0gyXVtDSDJdW0NIMl1bQ0BIXTFbQ0BIXShbQ0gzXSlbTkhdQyg9TylbTkhdYzJuW2NIXVtjSF1zMg==

> <s_epik_cmdline>
J2VwaWtfcHl0aG9uJywgJy1waCcsICc3LjAnLCAnLXRuJywgJzgnLCAnLW1hJywgJzIwMCcsICctbWV0YWxfYmluZGluZycsICctaW1hZScsICc8aW5maWxlLm1hZT4nLCAnLW9tYWUnLCAnPG91dGZpbGUubWFlPic=

> <r_lp_tautomer_probability>
0.999

> <r_epik_Ionization_Penalty>
0.000334433

> <r_epik_Ionization_Penalty_Charging>
0

> <r_epik_Ionization_Penalty_Neutral>
0.000334433

> <r_epik_State_Penalty>
0.000177984

> <r_epik_Charging_Adjusted_Penalty>
0.000177984

> <i_epik_Tot_Q>
0

> <i_epik_Tot_abs_Q>
0

> <r_epik_Metal_State_Penalty>
0.00767616

> <b_epik_Metal_Only>
0

> <s_lp_Force_Field>
OPLS_2005

> <r_lp_Energy>
15.8348

> <b_lp_Chiralities_Consistent>
1

> <s_lp_Variant>
AV-unprocessed.smi:2093-2

> <Gold.Version>
5.8.1

> <Gold.Id.Protein>
6NUR|6NUR_protein|mol2

> <Gold.PLP.Fitness>
36.1529

> <Gold.PLP.PLP>
-31.7109

> <Gold.PLP.part.hbond>
-2.4576

> <Gold.PLP.part.metal>
0.0000

> <Gold.PLP.part.buried>
-3.3433

> <Gold.PLP.part.nonpolar>
-24.9842

> <Gold.PLP.part.repulsive>
0.2995

> <Gold.PLP.ligand.clash>
0.0000

> <Gold.PLP.ligand.torsion>
2.1432

> <Gold.PLP.Chemscore.Hbond>
0.9077

> <Gold.PLP.Chemscore.CHOScore>
1.9982

> <Gold.PLP.Chemscore.Metal>
0.0000

> <Gold.Chemscore.Hbonds>
donor molecule, donor type, donor heavy atom, donor atom, acceptor molecule, acceptor atom, score
      P1  H  7989  7998       L1     8  0.02
      L1  C     9    23       P1  7957  0.68
      L1  C    10    24       P1 10175  0.49

> <Gold.PLP.Chemscore.Internal.Correction>
0.0108

> <Gold.Rescore>
     Score         DG    S(hbond)    S(metal)    S(lipo)     H(rot)  DE(clash)    DE(int)     intcor
     10.76     -14.88       1.02        0.00      79.62       1.29       0.26       3.86       ----

> <Gold.Chemscore.Fitness>
10.7648

> <Gold.Chemscore.DG>
-14.8846

> <Gold.Chemscore.ZeroCoef>
-5.4800

> <Gold.Chemscore.Hbond>
1.0182

> <Gold.Chemscore.Metal>
0.0000

> <Gold.Chemscore.Lipo>
79.6250

> <Gold.Chemscore.Internal_Hbond>
0.0000

> <Gold.Chemscore.DEClash>
0.2551

> <Gold.Chemscore.DEInternal>
3.8647

> <Gold.Chemscore.Rot>
1.2938

> <Gold.Chemscore.Internal.Correction>
   9.000000E+99

> <Gold.Chemscore.Hbonds>
donor molecule, donor type, donor heavy atom, donor atom, acceptor molecule, acceptor atom, score
      L1  H     6    22       P1  8028  0.01
      P1  H  7989  7998       L1     8  0.04

> <Gold.Chemscore.Hbond.Weighted>
-3.4007

> <Gold.Chemscore.Metal.Weighted>
-0.0000

> <Gold.Chemscore.Lipo.Weighted>
-9.3161

> <Gold.Chemscore.Internal_Hbond.Weighted>
0.0000

> <Gold.Chemscore.DEClash.Weighted>
0.2551

> <Gold.Chemscore.DEInternal.Weighted>
3.8647

> <Gold.Chemscore.Rot.Weighted>
3.3122

> <Gold.Chemscore.Internal.Correction.Weighted>
   9.000000E+99

> <Gold.Protein.RotatedTorsions>
[ 6907 6896 6895 6894 ] final  134.74 input  -60.11 | X-H torsion
[ 7974 7965 7964 7962 ] final -161.30 input  175.53 | X-H torsion
[ 8008 7997 7996 7995 ] final   30.00 input   59.86 | X-H torsion
[ 10167 10162 10161 10158 ] final  150.55 input  -65.29 | X-H torsion
[ 10718 10713 10712 10709 ] final  156.41 input   66.30 | X-H torsion
[ 10763 10752 10751 10750 ] final -122.45 input  -60.55 | X-H torsion
[ 11005 11000 10999 10996 ] final  -22.97 input  -57.11 | X-H torsion

> <Gold.Protein.ActiveResidues>
 VAL166  LYS551  ARG553  GLY616  TRP617  ASP618  TYR619  PRO620  LYS621  CYS622 
 ASP623  PHE694  ASN695  SER759  ASP760  ASP761  ALA762  ILE779  LEU786  VAL792 
 PHE793  MET794  SER795  GLU796  ALA797  LYS798  CYS799  TRP800  GLU811  SER814 

> <Gold.Protein.RotatedAtoms>
  152.3080  133.5723  159.5661 H   0  0  0  0  0  0  0  0  0  0  0  0  # atno 6907 bound_to 6896
  150.7309  134.0194  159.3705 H   0  0  0  0  0  0  0  0  0  0  0  0  # atno 6908 bound_to 6896
  151.8088  135.0687  160.0461 H   0  0  0  0  0  0  0  0  0  0  0  0  # atno 6909 bound_to 6896
  144.7396  140.3418  143.6133 H   0  0  0  0  0  0  0  0  0  0  0  0  # atno 7974 bound_to 7965
  155.0835  140.3212  155.4594 H   0  0  0  0  0  0  0  0  0  0  0  0  # atno 8008 bound_to 7997
  156.2761  140.2090  156.5908 H   0  0  0  0  0  0  0  0  0  0  0  0  # atno 8009 bound_to 7997
  154.6960  140.0512  157.0398 H   0  0  0  0  0  0  0  0  0  0  0  0  # atno 8010 bound_to 7997
  139.4849  144.5513  151.7396 H   0  0  0  0  0  0  0  0  0  0  0  0  # atno 10167 bound_to 10162
  157.2054  131.0685  151.2001 H   0  0  0  0  0  0  0  0  0  0  0  0  # atno 10718 bound_to 10713
  154.8689  135.4132  154.2783 H   0  0  0  0  0  0  0  0  0  0  0  0  # atno 10763 bound_to 10752
  153.3681  135.7006  153.6665 H   0  0  0  0  0  0  0  0  0  0  0  0  # atno 10764 bound_to 10752
  153.5538  135.3623  155.2743 H   0  0  0  0  0  0  0  0  0  0  0  0  # atno 10765 bound_to 10752
  140.8707  133.7722  156.0183 H   0  0  0  0  0  0  0  0  0  0  0  0  # atno 11005 bound_to 11000
  145.7366  139.1752  143.2399 LP  0  0  0  0  0  0  0  0  0  0  0  0  # atno 17320 bound_to 7965
  146.1165  140.7362  142.9478 LP  0  0  0  0  0  0  0  0  0  0  0  0  # atno 17321 bound_to 7965
  140.5067  144.1087  150.5984 LP  0  0  0  0  0  0  0  0  0  0  0  0  # atno 17342 bound_to 10162
  140.3999  143.2709  151.9960 LP  0  0  0  0  0  0  0  0  0  0  0  0  # atno 17343 bound_to 10162
  157.3726  130.7189  149.6575 LP  0  0  0  0  0  0  0  0  0  0  0  0  # atno 17370 bound_to 10713
  155.9696  130.4194  150.4376 LP  0  0  0  0  0  0  0  0  0  0  0  0  # atno 17371 bound_to 10713
  140.8576  134.2879  157.5248 LP  0  0  0  0  0  0  0  0  0  0  0  0  # atno 17394 bound_to 11000
  139.8712  134.9501  156.4046 LP  0  0  0  0  0  0  0  0  0  0  0  0  # atno 17395 bound_to 11000

$$$$
