AV-unprocessed.smi:39|AV-procd|sdf|353|dock6
  -GOLD-   2262016193D 1   1.00000     0.00000
 Structure written by MMmdl.
 32 33  0  0  0  0  0  0  0  0  3 V2000
  147.0324  141.1269  152.8780 C   0  0  0  0  0  0  0  0  0  0  0  0
  147.7193  141.3850  154.2088 C   0  0  0  0  0  0  0  0  0  0  0  0
  148.9920  140.9842  154.4616 C   0  0  0  0  0  0  0  0  0  0  0  0
  149.6440  141.2050  155.6671 N   0  0  0  0  0  0  0  0  0  0  0  0
  151.0576  140.7288  155.9061 C   0  0  1  0  0  0  0  0  0  0  0  0
  151.1237  139.8171  157.1279 C   0  0  0  0  0  0  0  0  0  0  0  0
  152.2843  138.9207  156.7457 C   0  0  1  0  0  0  0  0  0  0  0  0
  152.3237  137.6646  157.5008 N   0  0  0  0  0  0  0  0  0  0  0  0
  153.1502  136.8207  157.1301 N   0  3  0  0  0  0  0  0  0  0  0  0
  153.9992  136.1217  156.8372 N   0  5  0  0  0  0  0  0  0  0  0  0
  152.0731  138.7475  155.2297 C   0  0  1  0  0  0  0  0  0  0  0  0
  151.1271  137.6070  154.7953 C   0  0  0  0  0  0  0  0  0  0  0  0
  151.7542  136.7583  153.8563 O   0  0  0  0  0  0  0  0  0  0  0  0
  151.4963  139.9855  154.8056 O   0  0  0  0  0  0  0  0  0  0  0  0
  148.9580  141.8527  156.7148 C   0  0  0  0  0  0  0  0  0  0  0  0
  149.4596  142.0504  157.8209 O   0  0  0  0  0  0  0  0  0  0  0  0
  147.6534  142.2691  156.4549 N   0  0  0  0  0  0  0  0  0  0  0  0
  146.9664  142.0870  155.2522 C   0  0  0  0  0  0  0  0  0  0  0  0
  145.8149  142.5049  155.1411 O   0  0  0  0  0  0  0  0  0  0  0  0
  151.6940  141.6123  155.9861 H   0  0  0  0  0  0  0  0  0  0  0  0
  153.2123  139.4789  156.8895 H   0  0  0  0  0  0  0  0  0  0  0  0
  153.0321  138.6323  154.7229 H   0  0  0  0  0  0  0  0  0  0  0  0
  147.1605  142.7384  157.2007 H   0  0  0  0  0  0  0  0  0  0  0  0
  147.6869  140.6058  152.1786 H   0  0  0  0  0  0  0  0  0  0  0  0
  146.7304  142.0671  152.4153 H   0  0  0  0  0  0  0  0  0  0  0  0
  146.1416  140.5143  153.0217 H   0  0  0  0  0  0  0  0  0  0  0  0
  149.5164  140.4610  153.6775 H   0  0  0  0  0  0  0  0  0  0  0  0
  151.2860  140.3910  158.0409 H   0  0  0  0  0  0  0  0  0  0  0  0
  150.1971  139.2478  157.2192 H   0  0  0  0  0  0  0  0  0  0  0  0
  150.7747  137.0277  155.6488 H   0  0  0  0  0  0  0  0  0  0  0  0
  150.2459  138.0244  154.3075 H   0  0  0  0  0  0  0  0  0  0  0  0
  151.4961  137.0277  152.9881 H   0  0  0  0  0  0  0  0  0  0  0  0
  1  2  1  0  0  0  0
  1 24  1  0  0  0  0
  1 25  1  0  0  0  0
  1 26  1  0  0  0  0
  2 18  1  0  0  0  0
  2  3  2  0  0  0  0
  3  4  1  0  0  0  0
  3 27  1  0  0  0  0
  4  5  1  0  0  0  0
  4 15  1  0  0  0  0
  5 20  1  0  0  0  0
  5 14  1  0  0  0  0
  5  6  1  0  0  0  0
  6  7  1  0  0  0  0
  6 28  1  0  0  0  0
  6 29  1  0  0  0  0
  7 21  1  0  0  0  0
  7  8  1  0  0  0  0
  7 11  1  0  0  0  0
  8  9  2  0  0  0  0
  9 10  2  0  0  0  0
 11 22  1  0  0  0  0
 11 12  1  0  0  0  0
 11 14  1  0  0  0  0
 12 13  1  0  0  0  0
 12 30  1  0  0  0  0
 12 31  1  0  0  0  0
 13 32  1  0  0  0  0
 15 16  2  0  0  0  0
 15 17  1  0  0  0  0
 17 23  1  0  0  0  0
 17 18  1  0  0  0  0
 18 19  2  0  0  0  0
M  CHG  1   9   1
M  CHG  1  10  -1
M  END
> <s_m_source_file>
AV-unprocessed.smi

> <i_m_source_file_index>
39

> <i_lp_mmshare_version>
43012

> <i_f3d_flags>
0

> <s_epik_input>
Tz1jMVtuSF1jKD1PKW4oW2NIXWMxW0NIM10pW0NASF0yW0NIMl1bQ0BIXShOPVtOK109W04tXSlbQ0BIXShPMilbQ0gyXVtPSF0=

> <s_epik_cmdline>
J2VwaWtfcHl0aG9uJywgJy1waCcsICc3LjAnLCAnLXRuJywgJzgnLCAnLW1hJywgJzIwMCcsICctbWV0YWxfYmluZGluZycsICctaW1hZScsICc8aW5maWxlLm1hZT4nLCAnLW9tYWUnLCAnPG91dGZpbGUubWFlPic=

> <r_lp_tautomer_probability>
0.999537

> <r_epik_Ionization_Penalty>
0.00127512

> <r_epik_Ionization_Penalty_Charging>
0.00127507

> <r_epik_Ionization_Penalty_Neutral>
5.43433e-08

> <r_epik_State_Penalty>
0.000844892

> <r_epik_Charging_Adjusted_Penalty>
0.00211996

> <i_epik_Tot_Q>
0

> <i_epik_Tot_abs_Q>
2

> <r_epik_Metal_State_Penalty>
0.680636

> <b_epik_Metal_Only>
0

> <s_epik_Chemistry_Notes>
This compound contains an acetal/aminal-like group ( X-CH(R)-Y where X, Y are N, S, or O) that may be acid/base labile, releasing an aldehyde.

> <s_lp_Force_Field>
OPLS_2005

> <r_lp_Energy>
27.4259

> <b_lp_Chiralities_Consistent>
1

> <s_lp_Variant>
AV-unprocessed.smi:39-3

> <Gold.Version>
5.8.1

> <Gold.Id.Protein>
6NUR|6NUR_protein|mol2

> <Gold.PLP.Fitness>
41.9577

> <Gold.PLP.PLP>
-29.2723

> <Gold.PLP.part.hbond>
-4.8455

> <Gold.PLP.part.metal>
0.0000

> <Gold.PLP.part.buried>
-2.7702

> <Gold.PLP.part.nonpolar>
-22.1374

> <Gold.PLP.part.repulsive>
0.3853

> <Gold.PLP.ligand.clash>
0.0000

> <Gold.PLP.ligand.torsion>
0.8301

> <Gold.PLP.Chemscore.Hbond>
3.7840

> <Gold.PLP.Chemscore.CHOScore>
0.9925

> <Gold.PLP.Chemscore.Metal>
0.0000

> <Gold.Chemscore.Hbonds>
donor molecule, donor type, donor heavy atom, donor atom, acceptor molecule, acceptor atom, score
      L1  H    13    32       P1  7949  0.59
      P1  H  7989  7998       L1    14  1.00
      P1  H 10752 10764       L1    13  1.00
      P1  H 10752 10765       L1    10  1.00
      L1  C     3    27       P1  7957  0.95

> <Gold.PLP.Chemscore.Internal.Correction>
0.0161

> <Gold.Rescore>
     Score         DG    S(hbond)    S(metal)    S(lipo)     H(rot)  DE(clash)    DE(int)     intcor
     11.49     -13.60       2.89        0.00      47.08       2.75       0.12       1.99       ----

> <Gold.Chemscore.Fitness>
11.4945

> <Gold.Chemscore.DG>
-13.6028

> <Gold.Chemscore.ZeroCoef>
-5.4800

> <Gold.Chemscore.Hbond>
2.8924

> <Gold.Chemscore.Metal>
0.0000

> <Gold.Chemscore.Lipo>
47.0788

> <Gold.Chemscore.Internal_Hbond>
0.0000

> <Gold.Chemscore.DEClash>
0.1202

> <Gold.Chemscore.DEInternal>
1.9881

> <Gold.Chemscore.Rot>
2.7524

> <Gold.Chemscore.Internal.Correction>
   9.000000E+99

> <Gold.Chemscore.Hbonds>
donor molecule, donor type, donor heavy atom, donor atom, acceptor molecule, acceptor atom, score
      L1  H    13    32       P1  7949  0.53
      P1  H  7989  7998       L1    14  0.82
      P1  H 10752 10764       L1    13  0.92
      P1  H 10752 10765       L1    10  0.96

> <Gold.Chemscore.Hbond.Weighted>
-9.6607

> <Gold.Chemscore.Metal.Weighted>
-0.0000

> <Gold.Chemscore.Lipo.Weighted>
-5.5082

> <Gold.Chemscore.Internal_Hbond.Weighted>
0.0000

> <Gold.Chemscore.DEClash.Weighted>
0.1202

> <Gold.Chemscore.DEInternal.Weighted>
1.9881

> <Gold.Chemscore.Rot.Weighted>
7.0461

> <Gold.Chemscore.Internal.Correction.Weighted>
   9.000000E+99

> <Gold.Protein.RotatedTorsions>
[ 6907 6896 6895 6894 ] final -141.58 input  -60.11 | X-H torsion
[ 7974 7965 7964 7962 ] final  -67.22 input  175.53 | X-H torsion
[ 8008 7997 7996 7995 ] final  -12.87 input   59.86 | X-H torsion
[ 10167 10162 10161 10158 ] final  142.25 input  -65.29 | X-H torsion
[ 10718 10713 10712 10709 ] final -138.55 input   66.30 | X-H torsion
[ 10763 10752 10751 10750 ] final  -99.12 input  -60.55 | X-H torsion
[ 11005 11000 10999 10996 ] final -163.42 input  -57.11 | X-H torsion

> <Gold.Protein.ActiveResidues>
 VAL166  LYS551  ARG553  GLY616  TRP617  ASP618  TYR619  PRO620  LYS621  CYS622 
 ASP623  PHE694  ASN695  SER759  ASP760  ASP761  ALA762  ILE779  LEU786  VAL792 
 PHE793  MET794  SER795  GLU796  ALA797  LYS798  CYS799  TRP800  GLU811  SER814 

> <Gold.Protein.RotatedAtoms>
  151.0756  133.5431  159.2623 H   0  0  0  0  0  0  0  0  0  0  0  0  # atno 6907 bound_to 6896
  151.2353  135.0569  159.9014 H   0  0  0  0  0  0  0  0  0  0  0  0  # atno 6908 bound_to 6896
  152.5417  134.0539  159.8176 H   0  0  0  0  0  0  0  0  0  0  0  0  # atno 6909 bound_to 6896
  145.7319  140.8993  143.0575 H   0  0  0  0  0  0  0  0  0  0  0  0  # atno 7974 bound_to 7965
  154.5341  140.2265  155.8754 H   0  0  0  0  0  0  0  0  0  0  0  0  # atno 8008 bound_to 7997
  156.1793  140.3104  155.9081 H   0  0  0  0  0  0  0  0  0  0  0  0  # atno 8009 bound_to 7997
  155.3392  140.0449  157.3035 H   0  0  0  0  0  0  0  0  0  0  0  0  # atno 8010 bound_to 7997
  139.4999  144.6119  151.6252 H   0  0  0  0  0  0  0  0  0  0  0  0  # atno 10167 bound_to 10162
  156.3007  130.7427  151.1477 H   0  0  0  0  0  0  0  0  0  0  0  0  # atno 10718 bound_to 10713
  154.7471  135.4984  153.9224 H   0  0  0  0  0  0  0  0  0  0  0  0  # atno 10763 bound_to 10752
  153.1104  135.6708  153.9519 H   0  0  0  0  0  0  0  0  0  0  0  0  # atno 10764 bound_to 10752
  153.9280  135.3081  155.3425 H   0  0  0  0  0  0  0  0  0  0  0  0  # atno 10765 bound_to 10752
  140.5983  134.4974  157.5202 H   0  0  0  0  0  0  0  0  0  0  0  0  # atno 11005 bound_to 11000
  144.6891  139.9343  143.7473 LP  0  0  0  0  0  0  0  0  0  0  0  0  # atno 17320 bound_to 7965
  146.0529  139.3529  143.0628 LP  0  0  0  0  0  0  0  0  0  0  0  0  # atno 17321 bound_to 7965
  140.5796  143.9969  150.6261 LP  0  0  0  0  0  0  0  0  0  0  0  0  # atno 17342 bound_to 10162
  140.3113  143.3196  152.0876 LP  0  0  0  0  0  0  0  0  0  0  0  0  # atno 17343 bound_to 10162
  157.7367  131.0559  150.5399 LP  0  0  0  0  0  0  0  0  0  0  0  0  # atno 17370 bound_to 10713
  156.5526  130.4235  149.6100 LP  0  0  0  0  0  0  0  0  0  0  0  0  # atno 17371 bound_to 10713
  139.9243  134.8086  156.1114 LP  0  0  0  0  0  0  0  0  0  0  0  0  # atno 17394 bound_to 11000
  141.0889  133.6722  156.2497 LP  0  0  0  0  0  0  0  0  0  0  0  0  # atno 17395 bound_to 11000

$$$$
