AV-unprocessed.smi:1492|AV-procd|sdf|6046|dock4
  -GOLD-   22720 6163D 1   1.00000     0.00000
 Structure written by MMmdl.
 52 53  0  0  0  0  0  0  0  0  3 V2000
  150.1113  132.7575  154.9574 C   0  0  0  0  0  0  0  0  0  0  0  0
  149.2682  133.4387  153.8635 C   0  0  0  0  0  0  0  0  0  0  0  0
  147.8071  133.8625  154.2373 C   0  0  1  0  0  0  0  0  0  0  0  0
  147.0478  132.6219  154.7689 C   0  0  0  0  0  0  0  0  0  0  0  0
  147.8571  134.9331  155.3726 C   0  0  0  0  0  0  0  0  0  0  0  0
  148.1615  134.3287  156.6638 N   0  0  0  0  0  0  0  0  0  0  0  0
  147.4068  134.3831  157.7706 C   0  0  0  0  0  0  0  0  0  0  0  0
  146.2388  134.7683  157.7856 O   0  0  0  0  0  0  0  0  0  0  0  0
  148.1168  134.0103  159.0733 C   0  0  0  0  0  0  0  0  0  0  0  0
  147.7840  134.9395  160.2417 C   0  0  0  0  0  0  0  0  0  0  0  0
  147.3243  134.5042  161.4501 C   0  0  0  0  0  0  0  0  0  0  0  0
  147.0247  133.0457  161.7486 C   0  0  0  0  0  0  0  0  0  0  0  0
  147.1294  135.3982  162.5164 N   0  0  0  0  0  0  0  0  0  0  0  0
  147.4138  136.6350  162.3622 C   0  0  0  0  0  0  0  0  0  0  0  0
  147.2221  137.5878  163.5226 C   0  0  0  0  0  0  0  0  0  0  0  0
  147.8995  137.1708  161.1907 N   0  5  0  0  0  0  0  0  0  0  0  0
  148.0737  136.3764  160.0976 C   0  0  0  0  0  0  0  0  0  0  0  0
  148.4774  136.8201  159.0239 O   0  0  0  0  0  0  0  0  0  0  0  0
  147.1136  134.4378  153.0198 N   0  3  0  0  0  0  0  0  0  0  0  0
  146.5335  133.4509  152.0611 C   0  0  0  0  0  0  0  0  0  0  0  0
  145.9641  134.1490  150.8117 C   0  0  0  0  0  0  0  0  0  0  0  0
  145.0204  135.1419  151.1844 O   0  0  0  0  0  0  0  0  0  0  0  0
  145.6158  136.1434  151.9951 C   0  0  0  0  0  0  0  0  0  0  0  0
  146.1056  135.5007  153.3003 C   0  0  0  0  0  0  0  0  0  0  0  0
  151.0660  132.4308  154.5450 H   0  0  0  0  0  0  0  0  0  0  0  0
  149.6199  131.8765  155.3682 H   0  0  0  0  0  0  0  0  0  0  0  0
  150.3412  133.4360  155.7785 H   0  0  0  0  0  0  0  0  0  0  0  0
  149.8245  134.3096  153.5129 H   0  0  0  0  0  0  0  0  0  0  0  0
  149.2417  132.7432  153.0245 H   0  0  0  0  0  0  0  0  0  0  0  0
  147.5564  132.1772  155.6235 H   0  0  0  0  0  0  0  0  0  0  0  0
  146.9560  131.8440  154.0111 H   0  0  0  0  0  0  0  0  0  0  0  0
  146.0444  132.8694  155.1151 H   0  0  0  0  0  0  0  0  0  0  0  0
  148.5532  135.7394  155.1446 H   0  0  0  0  0  0  0  0  0  0  0  0
  146.8974  135.4406  155.4631 H   0  0  0  0  0  0  0  0  0  0  0  0
  149.0985  133.9667  156.7704 H   0  0  0  0  0  0  0  0  0  0  0  0
  147.8720  132.9813  159.3412 H   0  0  0  0  0  0  0  0  0  0  0  0
  149.1895  134.0074  158.8834 H   0  0  0  0  0  0  0  0  0  0  0  0
  146.2193  132.6844  161.1088 H   0  0  0  0  0  0  0  0  0  0  0  0
  146.7132  132.9110  162.7851 H   0  0  0  0  0  0  0  0  0  0  0  0
  147.9058  132.4260  161.5833 H   0  0  0  0  0  0  0  0  0  0  0  0
  146.7819  138.5260  163.1823 H   0  0  0  0  0  0  0  0  0  0  0  0
  148.1824  137.8055  163.9908 H   0  0  0  0  0  0  0  0  0  0  0  0
  146.5613  137.1576  164.2766 H   0  0  0  0  0  0  0  0  0  0  0  0
  147.2825  132.7455  151.7061 H   0  0  0  0  0  0  0  0  0  0  0  0
  145.7478  132.8749  152.5504 H   0  0  0  0  0  0  0  0  0  0  0  0
  146.7582  134.5975  150.2158 H   0  0  0  0  0  0  0  0  0  0  0  0
  145.4701  133.4187  150.1706 H   0  0  0  0  0  0  0  0  0  0  0  0
  146.4326  136.6362  151.4661 H   0  0  0  0  0  0  0  0  0  0  0  0
  144.8700  136.9084  152.2119 H   0  0  0  0  0  0  0  0  0  0  0  0
  145.2477  135.0801  153.8252 H   0  0  0  0  0  0  0  0  0  0  0  0
  146.5104  136.2873  153.9317 H   0  0  0  0  0  0  0  0  0  0  0  0
  147.8490  134.8970  152.5003 H   0  0  0  0  0  0  0  0  0  0  0  0
  1  2  1  0  0  0  0
  1 25  1  0  0  0  0
  1 26  1  0  0  0  0
  1 27  1  0  0  0  0
  2  3  1  0  0  0  0
  2 28  1  0  0  0  0
  2 29  1  0  0  0  0
  3  4  1  0  0  0  0
  3  5  1  0  0  0  0
  3 19  1  0  0  0  0
  4 30  1  0  0  0  0
  4 31  1  0  0  0  0
  4 32  1  0  0  0  0
  5  6  1  0  0  0  0
  5 33  1  0  0  0  0
  5 34  1  0  0  0  0
  6  7  1  0  0  0  0
  6 35  1  0  0  0  0
  7  8  2  0  0  0  0
  7  9  1  0  0  0  0
  9 10  1  0  0  0  0
  9 36  1  0  0  0  0
  9 37  1  0  0  0  0
 10 17  1  0  0  0  0
 10 11  2  0  0  0  0
 11 12  1  0  0  0  0
 11 13  1  0  0  0  0
 12 38  1  0  0  0  0
 12 39  1  0  0  0  0
 12 40  1  0  0  0  0
 13 14  2  0  0  0  0
 14 15  1  0  0  0  0
 14 16  1  0  0  0  0
 15 41  1  0  0  0  0
 15 42  1  0  0  0  0
 15 43  1  0  0  0  0
 16 17  1  0  0  0  0
 17 18  2  0  0  0  0
 19 24  1  0  0  0  0
 19 20  1  0  0  0  0
 19 52  1  0  0  0  0
 20 21  1  0  0  0  0
 20 44  1  0  0  0  0
 20 45  1  0  0  0  0
 21 22  1  0  0  0  0
 21 46  1  0  0  0  0
 21 47  1  0  0  0  0
 22 23  1  0  0  0  0
 23 24  1  0  0  0  0
 23 48  1  0  0  0  0
 23 49  1  0  0  0  0
 24 50  1  0  0  0  0
 24 51  1  0  0  0  0
M  CHG  1  16  -1
M  CHG  1  19   1
M  END
> <s_m_source_file>
AV-unprocessed.smi

> <i_m_source_file_index>
1492

> <i_lp_mmshare_version>
43012

> <i_f3d_flags>
0

> <s_epik_input>
W0NIMl0xW0NIMl1PW0NIMl1bQ0gyXU4xW0NAQF0oW0NIM10pKFtDSDJdW0NIM10pW0NIMl1bTkhdQyg9TylbQ0gyXWMyYyhbQ0gzXSluYyhbQ0gzXSlbbkhdYzI9Tw==

> <s_epik_cmdline>
J2VwaWtfcHl0aG9uJywgJy1waCcsICc3LjAnLCAnLXRuJywgJzgnLCAnLW1hJywgJzIwMCcsICctbWV0YWxfYmluZGluZycsICctaW1hZScsICc8aW5maWxlLm1hZT4nLCAnLW9tYWUnLCAnPG91dGZpbGUubWFlPic=

> <r_lp_tautomer_probability>
0.839158

> <r_epik_Ionization_Penalty>
6.90614

> <r_epik_Ionization_Penalty_Charging>
0.570079

> <r_epik_Ionization_Penalty_Neutral>
6.33607

> <r_epik_State_Penalty>
4.81716

> <r_epik_Charging_Adjusted_Penalty>
5.38724

> <i_epik_Tot_Q>
0

> <i_epik_Tot_abs_Q>
2

> <r_epik_Metal_State_Penalty>
1.25629

> <b_epik_Metal_Only>
1

> <s_lp_Force_Field>
OPLS_2005

> <r_lp_Energy>
28.2979

> <b_lp_Chiralities_Consistent>
1

> <s_lp_Variant>
AV-unprocessed.smi:1492-11

> <Gold.Version>
5.8.1

> <Gold.Id.Protein>
6NUR|6NUR_protein|mol2

> <Gold.PLP.Fitness>
47.9964

> <Gold.PLP.PLP>
-33.7800

> <Gold.PLP.part.hbond>
-3.0000

> <Gold.PLP.part.metal>
0.0000

> <Gold.PLP.part.buried>
-5.0644

> <Gold.PLP.part.nonpolar>
-26.0448

> <Gold.PLP.part.repulsive>
0.2156

> <Gold.PLP.ligand.clash>
0.0000

> <Gold.PLP.ligand.torsion>
1.4246

> <Gold.PLP.Chemscore.Hbond>
5.6320

> <Gold.PLP.Chemscore.CHOScore>
0.0000

> <Gold.PLP.Chemscore.Metal>
0.0000

> <Gold.Chemscore.Hbonds>
donor molecule, donor type, donor heavy atom, donor atom, acceptor molecule, acceptor atom, score
      L1  H    19    52       P1  7948  2.00
      P1  H  6931  6943       L1    16  1.70
      P1  H  6934  6947       L1    16  1.50

> <Gold.PLP.Chemscore.Internal.Correction>
0.1696

> <Gold.Rescore>
     Score         DG    S(hbond)    S(metal)    S(lipo)     H(rot)  DE(clash)    DE(int)     intcor
     12.12     -16.23       2.35        0.00      71.33       2.12       1.38       2.73       ----

> <Gold.Chemscore.Fitness>
12.1161

> <Gold.Chemscore.DG>
-16.2338

> <Gold.Chemscore.ZeroCoef>
-5.4800

> <Gold.Chemscore.Hbond>
2.3485

> <Gold.Chemscore.Metal>
0.0000

> <Gold.Chemscore.Lipo>
71.3306

> <Gold.Chemscore.Internal_Hbond>
0.0000

> <Gold.Chemscore.DEClash>
1.3841

> <Gold.Chemscore.DEInternal>
2.7336

> <Gold.Chemscore.Rot>
2.1235

> <Gold.Chemscore.Internal.Correction>
   9.000000E+99

> <Gold.Chemscore.Hbonds>
donor molecule, donor type, donor heavy atom, donor atom, acceptor molecule, acceptor atom, score
      L1  H    19    52       P1  7948  0.88
      P1  H  6931  6943       L1    16  0.14
      P1  H  6934  6947       L1    16  0.53

> <Gold.Chemscore.Hbond.Weighted>
-7.8441

> <Gold.Chemscore.Metal.Weighted>
-0.0000

> <Gold.Chemscore.Lipo.Weighted>
-8.3457

> <Gold.Chemscore.Internal_Hbond.Weighted>
0.0000

> <Gold.Chemscore.DEClash.Weighted>
1.3841

> <Gold.Chemscore.DEInternal.Weighted>
2.7336

> <Gold.Chemscore.Rot.Weighted>
5.4360

> <Gold.Chemscore.Internal.Correction.Weighted>
   9.000000E+99

> <Gold.Protein.RotatedTorsions>
[ 6907 6896 6895 6894 ] final  -12.85 input  -60.11 | X-H torsion
[ 7974 7965 7964 7962 ] final  -82.45 input  175.53 | X-H torsion
[ 8008 7997 7996 7995 ] final  137.45 input   59.86 | X-H torsion
[ 10167 10162 10161 10158 ] final   86.16 input  -65.29 | X-H torsion
[ 10718 10713 10712 10709 ] final  124.81 input   66.30 | X-H torsion
[ 10763 10752 10751 10750 ] final  -97.35 input  -60.55 | X-H torsion
[ 11005 11000 10999 10996 ] final   92.41 input  -57.11 | X-H torsion

> <Gold.Protein.ActiveResidues>
 VAL166  LYS551  ARG553  GLY616  TRP617  ASP618  TYR619  PRO620  LYS621  CYS622 
 ASP623  PHE694  ASN695  SER759  ASP760  ASP761  ALA762  ILE779  LEU786  VAL792 
 PHE793  MET794  SER795  GLU796  ALA797  LYS798  CYS799  TRP800  GLU811  SER814 

> <Gold.Protein.RotatedAtoms>
  151.3640  135.0909  159.9443 H   0  0  0  0  0  0  0  0  0  0  0  0  # atno 6907 bound_to 6896
  152.5154  133.9230  159.7554 H   0  0  0  0  0  0  0  0  0  0  0  0  # atno 6908 bound_to 6896
  150.9630  133.6370  159.2780 H   0  0  0  0  0  0  0  0  0  0  0  0  # atno 6909 bound_to 6896
  145.5331  140.9519  143.1592 H   0  0  0  0  0  0  0  0  0  0  0  0  # atno 7974 bound_to 7965
  156.3002  140.2419  156.3911 H   0  0  0  0  0  0  0  0  0  0  0  0  # atno 8008 bound_to 7997
  154.8613  140.0420  157.1686 H   0  0  0  0  0  0  0  0  0  0  0  0  # atno 8009 bound_to 7997
  154.8893  140.2961  155.5383 H   0  0  0  0  0  0  0  0  0  0  0  0  # atno 8010 bound_to 7997
  139.8904  144.6389  150.8745 H   0  0  0  0  0  0  0  0  0  0  0  0  # atno 10167 bound_to 10162
  157.5554  131.1092  150.8630 H   0  0  0  0  0  0  0  0  0  0  0  0  # atno 10718 bound_to 10713
  154.7320  135.5050  153.8979 H   0  0  0  0  0  0  0  0  0  0  0  0  # atno 10763 bound_to 10752
  153.0959  135.6672  153.9773 H   0  0  0  0  0  0  0  0  0  0  0  0  # atno 10764 bound_to 10752
  153.9572  135.3051  155.3415 H   0  0  0  0  0  0  0  0  0  0  0  0  # atno 10765 bound_to 10752
  139.8824  134.8731  156.3569 H   0  0  0  0  0  0  0  0  0  0  0  0  # atno 11005 bound_to 11000
  144.7615  139.6945  143.7232 LP  0  0  0  0  0  0  0  0  0  0  0  0  # atno 17320 bound_to 7965
  146.2031  139.5337  142.9730 LP  0  0  0  0  0  0  0  0  0  0  0  0  # atno 17321 bound_to 7965
  140.7727  143.3515  151.2005 LP  0  0  0  0  0  0  0  0  0  0  0  0  # atno 17342 bound_to 10162
  139.7115  143.9369  152.2949 LP  0  0  0  0  0  0  0  0  0  0  0  0  # atno 17343 bound_to 10162
  156.9143  130.5292  149.5280 LP  0  0  0  0  0  0  0  0  0  0  0  0  # atno 17370 bound_to 10713
  156.0614  130.5666  150.9200 LP  0  0  0  0  0  0  0  0  0  0  0  0  # atno 17371 bound_to 10713
  140.9556  133.7422  156.0331 LP  0  0  0  0  0  0  0  0  0  0  0  0  # atno 17394 bound_to 11000
  140.8053  134.3462  157.5428 LP  0  0  0  0  0  0  0  0  0  0  0  0  # atno 17395 bound_to 11000

$$$$
