AV-unprocessed.smi:765|AV-procd|sdf|3645|dock3
  -GOLD-   22720 1 43D 1   1.00000     0.00000
 Structure written by MMmdl.
 39 40  0  0  0  0  0  0  0  0  1 V2000
  151.6867  137.8624  154.8126 C   0  0  0  0  0  0  0  0  0  0  0  0
  150.5041  138.7864  155.1355 C   0  0  2  0  0  0  0  0  0  0  0  0
  149.6651  139.0845  153.8799 C   0  0  0  0  0  0  0  0  0  0  0  0
  148.4914  140.0224  154.1951 C   0  0  0  0  0  0  0  0  0  0  0  0
  148.9858  141.3208  154.8530 C   0  0  0  0  0  0  0  0  0  0  0  0
  149.8052  141.0532  156.1348 C   0  0  2  0  0  0  0  0  0  0  0  0
  148.9275  140.4496  157.1580 C   0  0  0  0  0  0  0  0  0  0  0  0
  148.2399  139.9774  157.9603 N   0  0  0  0  0  0  0  0  0  0  0  0
  150.3255  142.3439  156.5907 N   0  0  0  0  0  0  0  0  0  0  0  0
  151.2069  142.5565  157.5828 C   0  0  0  0  0  0  0  0  0  0  0  0
  151.7231  141.6486  158.2347 O   0  0  0  0  0  0  0  0  0  0  0  0
  151.5424  144.0261  157.8812 C   0  0  2  0  0  0  0  0  0  0  0  0
  153.0128  144.3780  157.5891 C   0  0  0  0  0  0  0  0  0  0  0  0
  151.1911  144.3569  159.2563 N   0  0  0  0  0  0  0  0  0  0  0  0
  150.1752  145.1704  159.7207 C   0  0  0  0  0  0  0  0  0  0  0  0
  150.2394  145.1675  161.0843 C   0  0  0  0  0  0  0  0  0  0  0  0
  151.3382  144.3098  161.3684 C   0  0  0  0  0  0  0  0  0  0  0  0
  151.9037  143.8257  160.2745 N   0  0  0  0  0  0  0  0  0  0  0  0
  150.9780  140.1010  155.7888 C   0  0  0  0  0  0  0  0  0  0  0  0
  152.3698  138.3251  154.0995 H   0  0  0  0  0  0  0  0  0  0  0  0
  151.3432  136.9214  154.3821 H   0  0  0  0  0  0  0  0  0  0  0  0
  152.2555  137.6240  155.7118 H   0  0  0  0  0  0  0  0  0  0  0  0
  149.8682  138.2606  155.8489 H   0  0  0  0  0  0  0  0  0  0  0  0
  150.2957  139.5383  153.1141 H   0  0  0  0  0  0  0  0  0  0  0  0
  149.2849  138.1550  153.4547 H   0  0  0  0  0  0  0  0  0  0  0  0
  147.9475  140.2552  153.2792 H   0  0  0  0  0  0  0  0  0  0  0  0
  147.7827  139.5177  154.8525 H   0  0  0  0  0  0  0  0  0  0  0  0
  149.5928  141.8720  154.1329 H   0  0  0  0  0  0  0  0  0  0  0  0
  148.1315  141.9595  155.0825 H   0  0  0  0  0  0  0  0  0  0  0  0
  149.9593  143.1592  156.1208 H   0  0  0  0  0  0  0  0  0  0  0  0
  150.9246  144.6342  157.2171 H   0  0  0  0  0  0  0  0  0  0  0  0
  153.2802  144.1393  156.5591 H   0  0  0  0  0  0  0  0  0  0  0  0
  153.6966  143.8375  158.2449 H   0  0  0  0  0  0  0  0  0  0  0  0
  153.1921  145.4437  157.7338 H   0  0  0  0  0  0  0  0  0  0  0  0
  149.4997  145.6787  159.0483 H   0  0  0  0  0  0  0  0  0  0  0  0
  149.5980  145.6962  161.7739 H   0  0  0  0  0  0  0  0  0  0  0  0
  151.7382  144.0256  162.3304 H   0  0  0  0  0  0  0  0  0  0  0  0
  151.5473  139.8649  156.6884 H   0  0  0  0  0  0  0  0  0  0  0  0
  151.6725  140.6063  155.1154 H   0  0  0  0  0  0  0  0  0  0  0  0
  1  2  1  0  0  0  0
  1 20  1  0  0  0  0
  1 21  1  0  0  0  0
  1 22  1  0  0  0  0
  2 19  1  0  0  0  0
  2  3  1  0  0  0  0
  2 23  1  0  0  0  0
  3  4  1  0  0  0  0
  3 24  1  0  0  0  0
  3 25  1  0  0  0  0
  4  5  1  0  0  0  0
  4 26  1  0  0  0  0
  4 27  1  0  0  0  0
  5  6  1  0  0  0  0
  5 28  1  0  0  0  0
  5 29  1  0  0  0  0
  6  7  1  0  0  0  0
  6  9  1  0  0  0  0
  6 19  1  0  0  0  0
  7  8  3  0  0  0  0
  9 10  1  0  0  0  0
  9 30  1  0  0  0  0
 10 11  2  0  0  0  0
 10 12  1  0  0  0  0
 12 13  1  0  0  0  0
 12 14  1  0  0  0  0
 12 31  1  0  0  0  0
 13 32  1  0  0  0  0
 13 33  1  0  0  0  0
 13 34  1  0  0  0  0
 14 18  1  0  0  0  0
 14 15  1  0  0  0  0
 15 16  2  0  0  0  0
 15 35  1  0  0  0  0
 16 17  1  0  0  0  0
 16 36  1  0  0  0  0
 17 18  2  0  0  0  0
 17 37  1  0  0  0  0
 19 38  1  0  0  0  0
 19 39  1  0  0  0  0
M  END
> <s_m_source_file>
AV-unprocessed.smi

> <i_m_source_file_index>
765

> <i_lp_mmshare_version>
43012

> <i_f3d_flags>
0

> <s_epik_input>
W0NIM11bQ0BASF0oW0NIMl0xKVtDSDJdW0NIMl1bQ0gyXVtDQEBdMShDI04pW05IXUMoPU8pW0NASF0oW0NIM10pbjJbY0hdW2NIXVtjSF1uMg==

> <s_epik_cmdline>
J2VwaWtfcHl0aG9uJywgJy1waCcsICc3LjAnLCAnLXRuJywgJzgnLCAnLW1hJywgJzIwMCcsICctbWV0YWxfYmluZGluZycsICctaW1hZScsICc8aW5maWxlLm1hZT4nLCAnLW9tYWUnLCAnPG91dGZpbGUubWFlPic=

> <r_lp_tautomer_probability>
1

> <r_epik_Ionization_Penalty>
2.71142e-05

> <r_epik_Ionization_Penalty_Charging>
0

> <r_epik_Ionization_Penalty_Neutral>
2.71142e-05

> <r_epik_State_Penalty>
-0

> <r_epik_Charging_Adjusted_Penalty>
0

> <i_epik_Tot_Q>
0

> <i_epik_Tot_abs_Q>
0

> <r_epik_Metal_State_Penalty>
-0

> <b_epik_Metal_Only>
0

> <s_lp_Force_Field>
OPLS_2005

> <r_lp_Energy>
10.9875

> <b_lp_Chiralities_Consistent>
1

> <s_lp_Variant>
AV-unprocessed.smi:765-3

> <Gold.Version>
5.8.1

> <Gold.Id.Protein>
6NUR|6NUR_protein|mol2

> <Gold.PLP.Fitness>
41.1681

> <Gold.PLP.PLP>
-35.5202

> <Gold.PLP.part.hbond>
-1.3245

> <Gold.PLP.part.metal>
0.0000

> <Gold.PLP.part.buried>
1.6722

> <Gold.PLP.part.nonpolar>
-36.7701

> <Gold.PLP.part.repulsive>
0.1081

> <Gold.PLP.ligand.clash>
0.0000

> <Gold.PLP.ligand.torsion>
0.2088

> <Gold.PLP.Chemscore.Hbond>
1.0000

> <Gold.PLP.Chemscore.CHOScore>
0.9994

> <Gold.PLP.Chemscore.Metal>
0.0000

> <Gold.Chemscore.Hbonds>
donor molecule, donor type, donor heavy atom, donor atom, acceptor molecule, acceptor atom, score
      L1  H     9    30       P1  8028  1.00
      L1  C    15    35       P1  8029  1.00

> <Gold.PLP.Chemscore.Internal.Correction>
0.0672

> <Gold.Rescore>
     Score         DG    S(hbond)    S(metal)    S(lipo)     H(rot)  DE(clash)    DE(int)     intcor
     12.75     -17.52       0.98        0.00     105.88       1.42       3.39       1.38       ----

> <Gold.Chemscore.Fitness>
12.7479

> <Gold.Chemscore.DG>
-17.5189

> <Gold.Chemscore.ZeroCoef>
-5.4800

> <Gold.Chemscore.Hbond>
0.9827

> <Gold.Chemscore.Metal>
0.0000

> <Gold.Chemscore.Lipo>
105.8764

> <Gold.Chemscore.Internal_Hbond>
0.0000

> <Gold.Chemscore.DEClash>
3.3863

> <Gold.Chemscore.DEInternal>
1.3847

> <Gold.Chemscore.Rot>
1.4183

> <Gold.Chemscore.Internal.Correction>
   9.000000E+99

> <Gold.Chemscore.Hbonds>
donor molecule, donor type, donor heavy atom, donor atom, acceptor molecule, acceptor atom, score
      L1  H     9    30       P1  8028  0.99

> <Gold.Chemscore.Hbond.Weighted>
-3.2823

> <Gold.Chemscore.Metal.Weighted>
-0.0000

> <Gold.Chemscore.Lipo.Weighted>
-12.3875

> <Gold.Chemscore.Internal_Hbond.Weighted>
0.0000

> <Gold.Chemscore.DEClash.Weighted>
3.3863

> <Gold.Chemscore.DEInternal.Weighted>
1.3847

> <Gold.Chemscore.Rot.Weighted>
3.6309

> <Gold.Chemscore.Internal.Correction.Weighted>
   9.000000E+99

> <Gold.Protein.RotatedTorsions>
[ 6907 6896 6895 6894 ] final   48.93 input  -60.11 | X-H torsion
[ 7974 7965 7964 7962 ] final  -22.92 input  175.53 | X-H torsion
[ 8008 7997 7996 7995 ] final  -26.73 input   59.86 | X-H torsion
[ 10167 10162 10161 10158 ] final -125.18 input  -65.29 | X-H torsion
[ 10718 10713 10712 10709 ] final  103.45 input   66.30 | X-H torsion
[ 10763 10752 10751 10750 ] final   89.79 input  -60.55 | X-H torsion
[ 11005 11000 10999 10996 ] final  143.97 input  -57.11 | X-H torsion

> <Gold.Protein.ActiveResidues>
 VAL166  LYS551  ARG553  GLY616  TRP617  ASP618  TYR619  PRO620  LYS621  CYS622 
 ASP623  PHE694  ASN695  SER759  ASP760  ASP761  ALA762  ILE779  LEU786  VAL792 
 PHE793  MET794  SER795  GLU796  ALA797  LYS798  CYS799  TRP800  GLU811  SER814 

> <Gold.Protein.RotatedAtoms>
  152.2851  134.7785  160.0388 H   0  0  0  0  0  0  0  0  0  0  0  0  # atno 6907 bound_to 6896
  151.8351  133.3409  159.3633 H   0  0  0  0  0  0  0  0  0  0  0  0  # atno 6908 bound_to 6896
  150.7206  134.5374  159.5775 H   0  0  0  0  0  0  0  0  0  0  0  0  # atno 6909 bound_to 6896
  146.1647  140.4545  142.8557 H   0  0  0  0  0  0  0  0  0  0  0  0  # atno 7974 bound_to 7965
  154.4411  140.1891  156.0821 H   0  0  0  0  0  0  0  0  0  0  0  0  # atno 8008 bound_to 7997
  156.0431  140.3317  155.7239 H   0  0  0  0  0  0  0  0  0  0  0  0  # atno 8009 bound_to 7997
  155.5670  140.0609  157.2806 H   0  0  0  0  0  0  0  0  0  0  0  0  # atno 8010 bound_to 7997
  139.9848  143.5703  152.2364 H   0  0  0  0  0  0  0  0  0  0  0  0  # atno 10167 bound_to 10162
  157.6772  131.0779  150.5557 H   0  0  0  0  0  0  0  0  0  0  0  0  # atno 10718 bound_to 10713
  153.1907  135.4457  155.0146 H   0  0  0  0  0  0  0  0  0  0  0  0  # atno 10763 bound_to 10752
  154.8088  135.3286  154.7362 H   0  0  0  0  0  0  0  0  0  0  0  0  # atno 10764 bound_to 10752
  153.7816  135.6977  153.4942 H   0  0  0  0  0  0  0  0  0  0  0  0  # atno 10765 bound_to 10752
  140.0596  134.9212  157.1160 H   0  0  0  0  0  0  0  0  0  0  0  0  # atno 11005 bound_to 11000
  144.8075  140.6327  143.6437 LP  0  0  0  0  0  0  0  0  0  0  0  0  # atno 17320 bound_to 7965
  145.4498  139.1525  143.3924 LP  0  0  0  0  0  0  0  0  0  0  0  0  # atno 17321 bound_to 7965
  139.6383  144.7652  151.2392 LP  0  0  0  0  0  0  0  0  0  0  0  0  # atno 17342 bound_to 10162
  140.7476  143.6361  150.8378 LP  0  0  0  0  0  0  0  0  0  0  0  0  # atno 17343 bound_to 10162
  156.5861  130.4317  149.5956 LP  0  0  0  0  0  0  0  0  0  0  0  0  # atno 17370 bound_to 10713
  156.2622  130.6968  151.1740 LP  0  0  0  0  0  0  0  0  0  0  0  0  # atno 17371 bound_to 10713
  140.3791  134.2306  155.7172 LP  0  0  0  0  0  0  0  0  0  0  0  0  # atno 17394 bound_to 11000
  141.1967  133.8076  157.0660 LP  0  0  0  0  0  0  0  0  0  0  0  0  # atno 17395 bound_to 11000

$$$$
