AV-unprocessed.smi:2976|AV-procd|sdf|11363|dock9
  -GOLD-   2272016283D 1   1.00000     0.00000
 Structure written by MMmdl.
 40 41  0  0  0  0  0  0  0  0  1 V2000
  143.8138  133.0595  149.3370 C   0  0  0  0  0  0  0  0  0  0  0  0
  143.8568  133.0486  150.8789 C   0  0  2  0  0  0  0  0  0  0  0  0
  144.0081  134.4715  151.4534 C   0  0  0  0  0  0  0  0  0  0  0  0
  145.4225  135.0332  151.2448 C   0  0  0  0  0  0  0  0  0  0  0  0
  146.4817  134.0979  151.8436 C   0  0  0  0  0  0  0  0  0  0  0  0
  146.3677  132.6641  151.2897 C   0  0  1  0  0  0  0  0  0  0  0  0
  147.3530  131.8268  151.9738 N   0  0  0  0  0  0  0  0  0  0  0  0
  147.2150  131.2759  153.1900 C   0  0  0  0  0  0  0  0  0  0  0  0
  146.2190  131.4343  153.8975 O   0  0  0  0  0  0  0  0  0  0  0  0
  148.4060  130.4383  153.6785 C   0  0  0  0  0  0  0  0  0  0  0  0
  148.4587  129.0903  153.0938 N   0  0  0  0  0  0  0  0  0  0  0  0
  147.6156  128.9133  152.0107 N   0  0  0  0  0  0  0  0  0  0  0  0
  147.5861  127.7743  151.4093 C   0  0  0  0  0  0  0  0  0  0  0  0
  148.4063  126.6600  151.8293 C   0  0  0  0  0  0  0  0  0  0  0  0
  148.3227  125.1550  150.9834 Cl  0  0  0  0  0  0  0  0  0  0  0  0
  149.2271  126.8429  152.8941 C   0  0  0  0  0  0  0  0  0  0  0  0
  150.2394  125.5561  153.4545 Cl  0  0  0  0  0  0  0  0  0  0  0  0
  149.2873  128.1280  153.6046 C   0  0  0  0  0  0  0  0  0  0  0  0
  150.0164  128.3331  154.5759 O   0  0  0  0  0  0  0  0  0  0  0  0
  144.9320  132.1019  151.4777 C   0  0  2  0  0  0  0  0  0  0  0  0
  144.7753  130.6526  150.9756 C   0  0  0  0  0  0  0  0  0  0  0  0
  144.7697  133.3456  148.8993 H   0  0  0  0  0  0  0  0  0  0  0  0
  143.0644  133.7636  148.9745 H   0  0  0  0  0  0  0  0  0  0  0  0
  143.5466  132.0813  148.9375 H   0  0  0  0  0  0  0  0  0  0  0  0
  142.8829  132.6821  151.2065 H   0  0  0  0  0  0  0  0  0  0  0  0
  143.2714  135.1404  151.0074 H   0  0  0  0  0  0  0  0  0  0  0  0
  143.7879  134.4524  152.5215 H   0  0  0  0  0  0  0  0  0  0  0  0
  145.6159  135.1774  150.1816 H   0  0  0  0  0  0  0  0  0  0  0  0
  145.4997  136.0187  151.7045 H   0  0  0  0  0  0  0  0  0  0  0  0
  147.4768  134.4973  151.6428 H   0  0  0  0  0  0  0  0  0  0  0  0
  146.3700  134.0834  152.9287 H   0  0  0  0  0  0  0  0  0  0  0  0
  146.5936  132.7007  150.2228 H   0  0  0  0  0  0  0  0  0  0  0  0
  148.2118  131.6462  151.4742 H   0  0  0  0  0  0  0  0  0  0  0  0
  149.3338  130.9739  153.4677 H   0  0  0  0  0  0  0  0  0  0  0  0
  148.3478  130.3734  154.7665 H   0  0  0  0  0  0  0  0  0  0  0  0
  146.9402  127.5896  150.5510 H   0  0  0  0  0  0  0  0  0  0  0  0
  144.7435  132.0698  152.5522 H   0  0  0  0  0  0  0  0  0  0  0  0
  145.0736  130.5556  149.9315 H   0  0  0  0  0  0  0  0  0  0  0  0
  143.7418  130.3167  151.0618 H   0  0  0  0  0  0  0  0  0  0  0  0
  145.3860  129.9603  151.5549 H   0  0  0  0  0  0  0  0  0  0  0  0
  1  2  1  0  0  0  0
  1 22  1  0  0  0  0
  1 23  1  0  0  0  0
  1 24  1  0  0  0  0
  2 20  1  0  0  0  0
  2  3  1  0  0  0  0
  2 25  1  0  0  0  0
  3  4  1  0  0  0  0
  3 26  1  0  0  0  0
  3 27  1  0  0  0  0
  4  5  1  0  0  0  0
  4 28  1  0  0  0  0
  4 29  1  0  0  0  0
  5  6  1  0  0  0  0
  5 30  1  0  0  0  0
  5 31  1  0  0  0  0
  6  7  1  0  0  0  0
  6 20  1  0  0  0  0
  6 32  1  0  0  0  0
  7  8  1  0  0  0  0
  7 33  1  0  0  0  0
  8  9  2  0  0  0  0
  8 10  1  0  0  0  0
 10 11  1  0  0  0  0
 10 34  1  0  0  0  0
 10 35  1  0  0  0  0
 11 18  1  0  0  0  0
 11 12  1  0  0  0  0
 12 13  2  0  0  0  0
 13 14  1  0  0  0  0
 13 36  1  0  0  0  0
 14 15  1  0  0  0  0
 14 16  2  0  0  0  0
 16 17  1  0  0  0  0
 16 18  1  0  0  0  0
 18 19  2  0  0  0  0
 20 21  1  0  0  0  0
 20 37  1  0  0  0  0
 21 38  1  0  0  0  0
 21 39  1  0  0  0  0
 21 40  1  0  0  0  0
M  END
> <s_m_source_file>
AV-unprocessed.smi

> <i_m_source_file_index>
2976

> <i_lp_mmshare_version>
43012

> <i_f3d_flags>
0

> <s_epik_input>
W0NIM11bQ0BASF0xW0NIMl1bQ0gyXVtDSDJdW0NASF0oW0NASF0xW0NIM10pW05IXUMoPU8pW0NIMl1uMm5bY0hdYyhDbCljKENsKWMyPU8=

> <s_epik_cmdline>
J2VwaWtfcHl0aG9uJywgJy1waCcsICc3LjAnLCAnLXRuJywgJzgnLCAnLW1hJywgJzIwMCcsICctbWV0YWxfYmluZGluZycsICctaW1hZScsICc8aW5maWxlLm1hZT4nLCAnLW9tYWUnLCAnPG91dGZpbGUubWFlPic=

> <r_lp_tautomer_probability>
1

> <r_epik_Ionization_Penalty>
1.90777e-08

> <r_epik_Ionization_Penalty_Charging>
3.07942e-11

> <r_epik_Ionization_Penalty_Neutral>
1.90469e-08

> <r_epik_State_Penalty>
-0

> <r_epik_Charging_Adjusted_Penalty>
3.07942e-11

> <i_epik_Tot_Q>
0

> <i_epik_Tot_abs_Q>
0

> <r_epik_Metal_State_Penalty>
-0

> <b_epik_Metal_Only>
0

> <s_lp_Force_Field>
OPLS_2005

> <r_lp_Energy>
28.556

> <b_lp_Chiralities_Consistent>
1

> <s_lp_Variant>
AV-unprocessed.smi:2976-5

> <Gold.Version>
5.8.1

> <Gold.Id.Protein>
6NUR|6NUR_protein|mol2

> <Gold.PLP.Fitness>
38.0586

> <Gold.PLP.PLP>
-36.4219

> <Gold.PLP.part.hbond>
-1.0000

> <Gold.PLP.part.metal>
0.0000

> <Gold.PLP.part.buried>
-4.4738

> <Gold.PLP.part.nonpolar>
-33.1052

> <Gold.PLP.part.repulsive>
1.8018

> <Gold.PLP.ligand.clash>
0.0000

> <Gold.PLP.ligand.torsion>
0.6718

> <Gold.PLP.Chemscore.Hbond>
0.9920

> <Gold.PLP.Chemscore.CHOScore>
0.0000

> <Gold.PLP.Chemscore.Metal>
0.0000

> <Gold.Chemscore.Hbonds>
donor molecule, donor type, donor heavy atom, donor atom, acceptor molecule, acceptor atom, score
      L1  H     7    33       P1 10747  0.99

> <Gold.PLP.Chemscore.Internal.Correction>
0.0043

> <Gold.Rescore>
     Score         DG    S(hbond)    S(metal)    S(lipo)     H(rot)  DE(clash)    DE(int)     intcor
     12.08     -15.32       0.95        0.00      89.52       1.49       0.20       3.04       ----

> <Gold.Chemscore.Fitness>
12.0752

> <Gold.Chemscore.DG>
-15.3156

> <Gold.Chemscore.ZeroCoef>
-5.4800

> <Gold.Chemscore.Hbond>
0.9484

> <Gold.Chemscore.Metal>
0.0000

> <Gold.Chemscore.Lipo>
89.5190

> <Gold.Chemscore.Internal_Hbond>
0.0000

> <Gold.Chemscore.DEClash>
0.1988

> <Gold.Chemscore.DEInternal>
3.0415

> <Gold.Chemscore.Rot>
1.4866

> <Gold.Chemscore.Internal.Correction>
   9.000000E+99

> <Gold.Chemscore.Hbonds>
donor molecule, donor type, donor heavy atom, donor atom, acceptor molecule, acceptor atom, score
      L1  H     7    33       P1 10747  0.93

> <Gold.Chemscore.Hbond.Weighted>
-3.1675

> <Gold.Chemscore.Metal.Weighted>
-0.0000

> <Gold.Chemscore.Lipo.Weighted>
-10.4737

> <Gold.Chemscore.Internal_Hbond.Weighted>
0.0000

> <Gold.Chemscore.DEClash.Weighted>
0.1988

> <Gold.Chemscore.DEInternal.Weighted>
3.0415

> <Gold.Chemscore.Rot.Weighted>
3.8057

> <Gold.Chemscore.Internal.Correction.Weighted>
   9.000000E+99

> <Gold.Protein.RotatedTorsions>
[ 6907 6896 6895 6894 ] final -136.50 input  -60.11 | X-H torsion
[ 7974 7965 7964 7962 ] final  129.13 input  175.53 | X-H torsion
[ 8008 7997 7996 7995 ] final    5.89 input   59.86 | X-H torsion
[ 10167 10162 10161 10158 ] final  129.11 input  -65.29 | X-H torsion
[ 10718 10713 10712 10709 ] final   71.10 input   66.30 | X-H torsion
[ 10763 10752 10751 10750 ] final -179.20 input  -60.55 | X-H torsion
[ 11005 11000 10999 10996 ] final  -36.77 input  -57.11 | X-H torsion

> <Gold.Protein.ActiveResidues>
 VAL166  LYS551  ARG553  GLY616  TRP617  ASP618  TYR619  PRO620  LYS621  CYS622 
 ASP623  PHE694  ASN695  SER759  ASP760  ASP761  ALA762  ILE779  LEU786  VAL792 
 PHE793  MET794  SER795  GLU796  ALA797  LYS798  CYS799  TRP800  GLU811  SER814 

> <Gold.Protein.RotatedAtoms>
  151.0109  133.5966  159.2682 H   0  0  0  0  0  0  0  0  0  0  0  0  # atno 6907 bound_to 6896
  151.3119  135.0795  159.9285 H   0  0  0  0  0  0  0  0  0  0  0  0  # atno 6908 bound_to 6896
  152.5299  133.9772  159.7844 H   0  0  0  0  0  0  0  0  0  0  0  0  # atno 6909 bound_to 6896
  145.0320  139.4038  143.5145 H   0  0  0  0  0  0  0  0  0  0  0  0  # atno 7974 bound_to 7965
  154.7340  140.2736  155.6431 H   0  0  0  0  0  0  0  0  0  0  0  0  # atno 8008 bound_to 7997
  156.2857  140.2710  156.1974 H   0  0  0  0  0  0  0  0  0  0  0  0  # atno 8009 bound_to 7997
  155.0344  140.0371  157.2476 H   0  0  0  0  0  0  0  0  0  0  0  0  # atno 8010 bound_to 7997
  139.5494  144.6800  151.4371 H   0  0  0  0  0  0  0  0  0  0  0  0  # atno 10167 bound_to 10162
  157.6434  130.9511  150.0742 H   0  0  0  0  0  0  0  0  0  0  0  0  # atno 10718 bound_to 10713
  154.5381  135.2804  155.1120 H   0  0  0  0  0  0  0  0  0  0  0  0  # atno 10763 bound_to 10752
  154.2614  135.6321  153.5279 H   0  0  0  0  0  0  0  0  0  0  0  0  # atno 10764 bound_to 10752
  152.9972  135.5606  154.5913 H   0  0  0  0  0  0  0  0  0  0  0  0  # atno 10765 bound_to 10752
  140.9900  133.7010  156.1833 H   0  0  0  0  0  0  0  0  0  0  0  0  # atno 11005 bound_to 11000
  146.3499  139.9874  142.8689 LP  0  0  0  0  0  0  0  0  0  0  0  0  # atno 17320 bound_to 7965
  145.1759  140.9743  143.4295 LP  0  0  0  0  0  0  0  0  0  0  0  0  # atno 17321 bound_to 7965
  140.6752  143.8206  150.7049 LP  0  0  0  0  0  0  0  0  0  0  0  0  # atno 17342 bound_to 10162
  140.1642  143.4249  152.2046 LP  0  0  0  0  0  0  0  0  0  0  0  0  # atno 17343 bound_to 10162
  156.1737  130.3647  149.9130 LP  0  0  0  0  0  0  0  0  0  0  0  0  # atno 17370 bound_to 10713
  156.7099  130.8966  151.3608 LP  0  0  0  0  0  0  0  0  0  0  0  0  # atno 17371 bound_to 10713
  140.7054  134.4518  157.5584 LP  0  0  0  0  0  0  0  0  0  0  0  0  # atno 17394 bound_to 11000
  139.8988  134.8606  156.1987 LP  0  0  0  0  0  0  0  0  0  0  0  0  # atno 17395 bound_to 11000

$$$$
