AV-unprocessed.smi:912|AV-procd|sdf|4142|dock7
  -GOLD-   22720 2 43D 1   1.00000     0.00000
 Structure written by MMmdl.
 27 27  0  0  0  0  0  0  0  0  2 V2000
  146.8095  138.9664  152.2403 C   0  0  0  0  0  0  0  0  0  0  0  0
  148.1515  138.8465  152.8568 N   0  3  0  0  0  0  0  0  0  0  0  0
  148.2972  139.1990  154.2994 C   0  0  1  0  0  0  0  0  0  0  0  0
  147.6399  140.5765  154.5771 C   0  0  0  0  0  0  0  0  0  0  0  0
  147.6361  138.0717  155.1334 C   0  0  0  0  0  0  0  0  0  0  0  0
  147.3040  136.9391  154.5021 N   0  0  0  0  0  0  0  0  0  0  0  0
  147.4109  138.2207  156.3331 O   0  0  0  0  0  0  0  0  0  0  0  0
  149.7906  139.2768  154.6827 C   0  0  0  0  0  0  0  0  0  0  0  0
  150.7052  138.2257  154.4158 C   0  0  0  0  0  0  0  0  0  0  0  0
  152.0539  138.3786  154.7955 C   0  0  0  0  0  0  0  0  0  0  0  0
  152.5344  139.4804  155.4062 N   0  0  0  0  0  0  0  0  0  0  0  0
  151.6704  140.4836  155.6608 C   0  0  0  0  0  0  0  0  0  0  0  0
  150.3041  140.4314  155.3223 C   0  0  0  0  0  0  0  0  0  0  0  0
  146.8476  138.5801  151.2219 H   0  0  0  0  0  0  0  0  0  0  0  0
  146.4867  140.0055  152.1804 H   0  0  0  0  0  0  0  0  0  0  0  0
  146.0565  138.3943  152.7822 H   0  0  0  0  0  0  0  0  0  0  0  0
  148.4588  137.8908  152.7478 H   0  0  0  0  0  0  0  0  0  0  0  0
  147.7543  140.8815  155.6176 H   0  0  0  0  0  0  0  0  0  0  0  0
  146.5685  140.5789  154.3757 H   0  0  0  0  0  0  0  0  0  0  0  0
  148.0905  141.3560  153.9619 H   0  0  0  0  0  0  0  0  0  0  0  0
  146.8450  136.1907  155.0009 H   0  0  0  0  0  0  0  0  0  0  0  0
  147.4894  136.8482  153.5132 H   0  0  0  0  0  0  0  0  0  0  0  0
  150.4102  137.3076  153.9311 H   0  0  0  0  0  0  0  0  0  0  0  0
  152.7668  137.5906  154.6028 H   0  0  0  0  0  0  0  0  0  0  0  0
  152.0788  141.3550  156.1509 H   0  0  0  0  0  0  0  0  0  0  0  0
  149.6648  141.2695  155.5591 H   0  0  0  0  0  0  0  0  0  0  0  0
  148.7794  139.4399  152.3336 H   0  0  0  0  0  0  0  0  0  0  0  0
  1  2  1  0  0  0  0
  1 14  1  0  0  0  0
  1 15  1  0  0  0  0
  1 16  1  0  0  0  0
  2  3  1  0  0  0  0
  2 17  1  0  0  0  0
  2 27  1  0  0  0  0
  3  4  1  0  0  0  0
  3  5  1  0  0  0  0
  3  8  1  0  0  0  0
  4 18  1  0  0  0  0
  4 19  1  0  0  0  0
  4 20  1  0  0  0  0
  5  6  1  0  0  0  0
  5  7  2  0  0  0  0
  6 21  1  0  0  0  0
  6 22  1  0  0  0  0
  8 13  1  0  0  0  0
  8  9  2  0  0  0  0
  9 10  1  0  0  0  0
  9 23  1  0  0  0  0
 10 11  2  0  0  0  0
 10 24  1  0  0  0  0
 11 12  1  0  0  0  0
 12 13  2  0  0  0  0
 12 25  1  0  0  0  0
 13 26  1  0  0  0  0
M  CHG  1   2   1
M  END
> <s_m_source_file>
AV-unprocessed.smi

> <i_m_source_file_index>
912

> <i_lp_mmshare_version>
43012

> <i_f3d_flags>
0

> <s_epik_input>
W0NIM11bTkhdW0NAQF0oW0NIM10pKEMoPU8pW05IMl0pYzFbY0hdW2NIXW5bY0hdW2NIXTE=

> <s_epik_cmdline>
J2VwaWtfcHl0aG9uJywgJy1waCcsICc3LjAnLCAnLXRuJywgJzgnLCAnLW1hJywgJzIwMCcsICctbWV0YWxfYmluZGluZycsICctaW1hZScsICc8aW5maWxlLm1hZT4nLCAnLW9tYWUnLCAnPG91dGZpbGUubWFlPic=

> <r_epik_Ionization_Penalty>
0.8426

> <r_epik_Ionization_Penalty_Charging>
0.842363

> <r_epik_Ionization_Penalty_Neutral>
0.000236815

> <r_epik_State_Penalty>
0.498415

> <r_epik_Charging_Adjusted_Penalty>
1.34078

> <i_epik_Tot_Q>
1

> <i_epik_Tot_abs_Q>
1

> <r_epik_Metal_State_Penalty>
0.661775

> <b_epik_Metal_Only>
0

> <s_lp_Force_Field>
OPLS_2005

> <r_lp_Energy>
11.5285

> <b_lp_Chiralities_Consistent>
1

> <s_lp_Variant>
AV-unprocessed.smi:912-3

> <Gold.Version>
5.8.1

> <Gold.Id.Protein>
6NUR|6NUR_protein|mol2

> <Gold.PLP.Fitness>
37.9576

> <Gold.PLP.PLP>
-24.3339

> <Gold.PLP.part.hbond>
-4.6798

> <Gold.PLP.part.metal>
0.0000

> <Gold.PLP.part.buried>
-2.3463

> <Gold.PLP.part.nonpolar>
-17.8868

> <Gold.PLP.part.repulsive>
0.0755

> <Gold.PLP.ligand.clash>
0.0000

> <Gold.PLP.ligand.torsion>
0.6577

> <Gold.PLP.Chemscore.Hbond>
4.9760

> <Gold.PLP.Chemscore.CHOScore>
0.0000

> <Gold.PLP.Chemscore.Metal>
0.0000

> <Gold.Chemscore.Hbonds>
donor molecule, donor type, donor heavy atom, donor atom, acceptor molecule, acceptor atom, score
      L1  H     2    17       P1  7948  2.00
      L1  H     2    27       P1  7957  1.00
      L1  H     6    22       P1  7948  0.33
      P1  H  7997  8010       L1    11  0.88

> <Gold.PLP.Chemscore.Internal.Correction>
0.0111

> <Gold.Rescore>
     Score         DG    S(hbond)    S(metal)    S(lipo)     H(rot)  DE(clash)    DE(int)     intcor
     19.21     -19.96       3.86        0.00      53.62       1.83       0.05       0.70       ----

> <Gold.Chemscore.Fitness>
19.2090

> <Gold.Chemscore.DG>
-19.9589

> <Gold.Chemscore.ZeroCoef>
-5.4800

> <Gold.Chemscore.Hbond>
3.8571

> <Gold.Chemscore.Metal>
0.0000

> <Gold.Chemscore.Lipo>
53.6169

> <Gold.Chemscore.Internal_Hbond>
0.0000

> <Gold.Chemscore.DEClash>
0.0494

> <Gold.Chemscore.DEInternal>
0.7005

> <Gold.Chemscore.Rot>
1.8270

> <Gold.Chemscore.Internal.Correction>
   9.000000E+99

> <Gold.Chemscore.Hbonds>
donor molecule, donor type, donor heavy atom, donor atom, acceptor molecule, acceptor atom, score
      L1  H     2    17       P1  7948  0.99
      L1  H     2    27       P1  7957  0.95
      L1  H     6    22       P1  7948  0.32
      P1  H  7997  8010       L1    11  0.43

> <Gold.Chemscore.Hbond.Weighted>
-12.8828

> <Gold.Chemscore.Metal.Weighted>
-0.0000

> <Gold.Chemscore.Lipo.Weighted>
-6.2732

> <Gold.Chemscore.Internal_Hbond.Weighted>
0.0000

> <Gold.Chemscore.DEClash.Weighted>
0.0494

> <Gold.Chemscore.DEInternal.Weighted>
0.7005

> <Gold.Chemscore.Rot.Weighted>
4.6771

> <Gold.Chemscore.Internal.Correction.Weighted>
   9.000000E+99

> <Gold.Protein.RotatedTorsions>
[ 6907 6896 6895 6894 ] final  -78.71 input  -60.11 | X-H torsion
[ 7974 7965 7964 7962 ] final  -53.71 input  175.53 | X-H torsion
[ 8008 7997 7996 7995 ] final   87.94 input   59.86 | X-H torsion
[ 10167 10162 10161 10158 ] final  -84.99 input  -65.29 | X-H torsion
[ 10718 10713 10712 10709 ] final   68.40 input   66.30 | X-H torsion
[ 10763 10752 10751 10750 ] final -110.11 input  -60.55 | X-H torsion
[ 11005 11000 10999 10996 ] final   57.18 input  -57.11 | X-H torsion

> <Gold.Protein.ActiveResidues>
 VAL166  LYS551  ARG553  GLY616  TRP617  ASP618  TYR619  PRO620  LYS621  CYS622 
 ASP623  PHE694  ASN695  SER759  ASP760  ASP761  ALA762  ILE779  LEU786  VAL792 
 PHE793  MET794  SER795  GLU796  ALA797  LYS798  CYS799  TRP800  GLU811  SER814 

> <Gold.Protein.RotatedAtoms>
  150.6966  134.4231  159.5213 H   0  0  0  0  0  0  0  0  0  0  0  0  # atno 6907 bound_to 6896
  152.1970  134.8619  160.0521 H   0  0  0  0  0  0  0  0  0  0  0  0  # atno 6908 bound_to 6896
  151.9553  133.3643  159.4052 H   0  0  0  0  0  0  0  0  0  0  0  0  # atno 6909 bound_to 6896
  145.8938  140.8049  142.9778 H   0  0  0  0  0  0  0  0  0  0  0  0  # atno 7974 bound_to 7965
  155.9816  140.3377  155.6668 H   0  0  0  0  0  0  0  0  0  0  0  0  # atno 8008 bound_to 7997
  155.6541  140.0709  157.2595 H   0  0  0  0  0  0  0  0  0  0  0  0  # atno 8009 bound_to 7997
  154.4193  140.1720  156.1694 H   0  0  0  0  0  0  0  0  0  0  0  0  # atno 8010 bound_to 7997
  140.4080  143.2634  151.9055 H   0  0  0  0  0  0  0  0  0  0  0  0  # atno 10167 bound_to 10162
  157.6287  130.9372  150.0373 H   0  0  0  0  0  0  0  0  0  0  0  0  # atno 10718 bound_to 10713
  154.8230  135.4576  154.0835 H   0  0  0  0  0  0  0  0  0  0  0  0  # atno 10763 bound_to 10752
  153.2173  135.6889  153.8049 H   0  0  0  0  0  0  0  0  0  0  0  0  # atno 10764 bound_to 10752
  153.7479  135.3302  155.3292 H   0  0  0  0  0  0  0  0  0  0  0  0  # atno 10765 bound_to 10752
  140.0472  134.5789  155.9308 H   0  0  0  0  0  0  0  0  0  0  0  0  # atno 11005 bound_to 11000
  144.6732  140.1571  143.7425 LP  0  0  0  0  0  0  0  0  0  0  0  0  # atno 17320 bound_to 7965
  145.8876  139.2357  143.1569 LP  0  0  0  0  0  0  0  0  0  0  0  0  # atno 17321 bound_to 7965
  139.4783  144.5566  151.8304 LP  0  0  0  0  0  0  0  0  0  0  0  0  # atno 17342 bound_to 10162
  140.4668  144.1643  150.5913 LP  0  0  0  0  0  0  0  0  0  0  0  0  # atno 17343 bound_to 10162
  156.1476  130.3642  149.9487 LP  0  0  0  0  0  0  0  0  0  0  0  0  # atno 17370 bound_to 10713
  156.7514  130.9116  151.3637 LP  0  0  0  0  0  0  0  0  0  0  0  0  # atno 17371 bound_to 10713
  141.1913  133.6571  156.5449 LP  0  0  0  0  0  0  0  0  0  0  0  0  # atno 17394 bound_to 11000
  140.3975  134.7386  157.4759 LP  0  0  0  0  0  0  0  0  0  0  0  0  # atno 17395 bound_to 11000

$$$$
