AV-unprocessed.smi:126|AV-procd|sdf|1151|dock5
  -GOLD-   2262018283D 1   1.00000     0.00000
 Structure written by MMmdl.
 40 42  0  0  0  0  0  0  0  0  1 V2000
  154.7252  140.0345  158.9959 O   0  0  0  0  0  0  0  0  0  0  0  0
  154.8543  139.9314  160.2166 C   0  0  0  0  0  0  0  0  0  0  0  0
  155.6668  138.7740  160.8184 C   0  0  0  0  0  0  0  0  0  0  0  0
  155.4549  138.5972  162.2718 N   0  0  0  0  0  0  0  0  0  0  0  0
  154.6412  137.5271  162.7195 C   0  0  0  0  0  0  0  0  0  0  0  0
  154.1071  136.7537  161.9234 O   0  0  0  0  0  0  0  0  0  0  0  0
  154.4942  137.4105  164.1660 C   0  0  0  0  0  0  0  0  0  0  0  0
  153.7343  136.4288  164.6805 F   0  0  0  0  0  0  0  0  0  0  0  0
  155.1099  138.2742  164.9997 C   0  0  0  0  0  0  0  0  0  0  0  0
  155.9102  139.3081  164.5483 N   0  0  0  0  0  0  0  0  0  0  0  0
  156.6060  140.2587  165.4979 C   0  0  2  0  0  0  0  0  0  0  0  0
  156.2735  139.9026  166.9576 C   0  0  0  0  0  0  0  0  0  0  0  0
  155.8742  141.2427  167.5413 C   0  0  0  0  0  0  0  0  0  0  0  0
  155.2791  141.9453  166.3303 C   0  0  0  0  0  0  0  0  0  0  0  0
  156.1560  141.5655  165.2773 O   0  0  0  0  0  0  0  0  0  0  0  0
  156.1011  139.4879  163.1614 C   0  0  0  0  0  0  0  0  0  0  0  0
  156.8211  140.3955  162.7392 O   0  0  0  0  0  0  0  0  0  0  0  0
  154.2931  140.7613  161.1148 N   0  0  0  0  0  0  0  0  0  0  0  0
  153.5077  141.9225  160.8811 C   0  0  0  0  0  0  0  0  0  0  0  0
  153.2488  142.2681  159.5379 C   0  0  0  0  0  0  0  0  0  0  0  0
  152.4624  143.3945  159.2286 C   0  0  0  0  0  0  0  0  0  0  0  0
  151.9186  144.1793  160.2627 C   0  0  0  0  0  0  0  0  0  0  0  0
  152.1568  143.8326  161.6058 C   0  0  0  0  0  0  0  0  0  0  0  0
  152.9434  142.7063  161.9172 C   0  0  0  0  0  0  0  0  0  0  0  0
  155.4219  137.8543  160.2839 H   0  0  0  0  0  0  0  0  0  0  0  0
  156.7197  138.9406  160.5863 H   0  0  0  0  0  0  0  0  0  0  0  0
  154.9593  138.1338  166.0589 H   0  0  0  0  0  0  0  0  0  0  0  0
  157.6686  140.2028  165.2552 H   0  0  0  0  0  0  0  0  0  0  0  0
  155.4335  139.2069  166.9935 H   0  0  0  0  0  0  0  0  0  0  0  0
  157.1309  139.4502  167.4568 H   0  0  0  0  0  0  0  0  0  0  0  0
  155.1745  141.1560  168.3728 H   0  0  0  0  0  0  0  0  0  0  0  0
  156.7575  141.7798  167.8890 H   0  0  0  0  0  0  0  0  0  0  0  0
  154.2702  141.5826  166.1295 H   0  0  0  0  0  0  0  0  0  0  0  0
  155.2388  143.0285  166.4472 H   0  0  0  0  0  0  0  0  0  0  0  0
  154.3959  140.4963  162.0836 H   0  0  0  0  0  0  0  0  0  0  0  0
  153.6586  141.6715  158.7359 H   0  0  0  0  0  0  0  0  0  0  0  0
  152.2748  143.6553  158.1975 H   0  0  0  0  0  0  0  0  0  0  0  0
  151.3138  145.0423  160.0262 H   0  0  0  0  0  0  0  0  0  0  0  0
  151.7307  144.4278  162.3999 H   0  0  0  0  0  0  0  0  0  0  0  0
  153.0874  142.4550  162.9567 H   0  0  0  0  0  0  0  0  0  0  0  0
  1  2  2  0  0  0  0
  2  3  1  0  0  0  0
  2 18  1  0  0  0  0
  3  4  1  0  0  0  0
  3 25  1  0  0  0  0
  3 26  1  0  0  0  0
  4 16  1  0  0  0  0
  4  5  1  0  0  0  0
  5  6  2  0  0  0  0
  5  7  1  0  0  0  0
  7  8  1  0  0  0  0
  7  9  2  0  0  0  0
  9 10  1  0  0  0  0
  9 27  1  0  0  0  0
 10 11  1  0  0  0  0
 10 16  1  0  0  0  0
 11 15  1  0  0  0  0
 11 12  1  0  0  0  0
 11 28  1  0  0  0  0
 12 13  1  0  0  0  0
 12 29  1  0  0  0  0
 12 30  1  0  0  0  0
 13 14  1  0  0  0  0
 13 31  1  0  0  0  0
 13 32  1  0  0  0  0
 14 15  1  0  0  0  0
 14 33  1  0  0  0  0
 14 34  1  0  0  0  0
 16 17  2  0  0  0  0
 18 19  1  0  0  0  0
 18 35  1  0  0  0  0
 19 24  1  0  0  0  0
 19 20  2  0  0  0  0
 20 21  1  0  0  0  0
 20 36  1  0  0  0  0
 21 22  2  0  0  0  0
 21 37  1  0  0  0  0
 22 23  1  0  0  0  0
 22 38  1  0  0  0  0
 23 24  2  0  0  0  0
 23 39  1  0  0  0  0
 24 40  1  0  0  0  0
M  END
> <s_m_source_file>
AV-unprocessed.smi

> <i_m_source_file_index>
126

> <i_lp_mmshare_version>
43012

> <i_f3d_flags>
0

> <s_epik_input>
W2NIXTFbY0hdW2NIXVtjSF1bY0hdYzFbTkhdQyg9TylbQ0gyXW4yYyg9TyljKEYpW2NIXW4oYzI9TylbQ0BASF0zW0NIMl1bQ0gyXVtDSDJdTzM=

> <s_epik_cmdline>
J2VwaWtfcHl0aG9uJywgJy1waCcsICc3LjAnLCAnLXRuJywgJzgnLCAnLW1hJywgJzIwMCcsICctbWV0YWxfYmluZGluZycsICctaW1hZScsICc8aW5maWxlLm1hZT4nLCAnLW9tYWUnLCAnPG91dGZpbGUubWFlPic=

> <r_lp_tautomer_probability>
1

> <r_epik_Ionization_Penalty>
1.86934e-06

> <r_epik_Ionization_Penalty_Charging>
3.88729e-08

> <r_epik_Ionization_Penalty_Neutral>
1.83046e-06

> <r_epik_State_Penalty>
-0

> <r_epik_Charging_Adjusted_Penalty>
3.88729e-08

> <i_epik_Tot_Q>
0

> <i_epik_Tot_abs_Q>
0

> <r_epik_Metal_State_Penalty>
-0

> <b_epik_Metal_Only>
0

> <s_epik_Chemistry_Notes>
This compound contains an acetal/aminal-like group ( X-CH(R)-Y where X, Y are N, S, or O) that may be acid/base labile, releasing an aldehyde.

> <s_lp_Force_Field>
OPLS_2005

> <r_lp_Energy>
33.0924

> <b_lp_Chiralities_Consistent>
1

> <s_lp_Variant>
AV-unprocessed.smi:126-1

> <Gold.Version>
5.8.1

> <Gold.Id.Protein>
6NUR|6NUR_protein|mol2

> <Gold.PLP.Fitness>
52.7913

> <Gold.PLP.PLP>
-51.3636

> <Gold.PLP.part.hbond>
-2.0000

> <Gold.PLP.part.metal>
0.0000

> <Gold.PLP.part.buried>
-4.8696

> <Gold.PLP.part.nonpolar>
-43.8919

> <Gold.PLP.part.repulsive>
0.0101

> <Gold.PLP.ligand.clash>
0.6643

> <Gold.PLP.ligand.torsion>
0.3777

> <Gold.PLP.Chemscore.Hbond>
0.9440

> <Gold.PLP.Chemscore.CHOScore>
0.0000

> <Gold.PLP.Chemscore.Metal>
0.0000

> <Gold.Chemscore.Hbonds>
donor molecule, donor type, donor heavy atom, donor atom, acceptor molecule, acceptor atom, score
      P1  H  7997  8009       L1     1  0.93

> <Gold.PLP.Chemscore.Internal.Correction>
0.0153

> <Gold.Rescore>
     Score         DG    S(hbond)    S(metal)    S(lipo)     H(rot)  DE(clash)    DE(int)     intcor
     11.75     -16.59       0.99        0.00     103.15       1.66       1.67       3.17       ----

> <Gold.Chemscore.Fitness>
11.7469

> <Gold.Chemscore.DG>
-16.5910

> <Gold.Chemscore.ZeroCoef>
-5.4800

> <Gold.Chemscore.Hbond>
0.9874

> <Gold.Chemscore.Metal>
0.0000

> <Gold.Chemscore.Lipo>
103.1451

> <Gold.Chemscore.Internal_Hbond>
0.0000

> <Gold.Chemscore.DEClash>
1.6714

> <Gold.Chemscore.DEInternal>
3.1728

> <Gold.Chemscore.Rot>
1.6621

> <Gold.Chemscore.Internal.Correction>
   9.000000E+99

> <Gold.Chemscore.Hbonds>
donor molecule, donor type, donor heavy atom, donor atom, acceptor molecule, acceptor atom, score
      P1  H  7997  8009       L1     1  0.91

> <Gold.Chemscore.Hbond.Weighted>
-3.2980

> <Gold.Chemscore.Metal.Weighted>
-0.0000

> <Gold.Chemscore.Lipo.Weighted>
-12.0680

> <Gold.Chemscore.Internal_Hbond.Weighted>
0.0000

> <Gold.Chemscore.DEClash.Weighted>
1.6714

> <Gold.Chemscore.DEInternal.Weighted>
3.1728

> <Gold.Chemscore.Rot.Weighted>
4.2550

> <Gold.Chemscore.Internal.Correction.Weighted>
   9.000000E+99

> <Gold.Protein.RotatedTorsions>
[ 6907 6896 6895 6894 ] final  -11.92 input  -60.11 | X-H torsion
[ 7974 7965 7964 7962 ] final -146.80 input  175.53 | X-H torsion
[ 8008 7997 7996 7995 ] final  108.22 input   59.86 | X-H torsion
[ 10167 10162 10161 10158 ] final   15.71 input  -65.29 | X-H torsion
[ 10718 10713 10712 10709 ] final   87.19 input   66.30 | X-H torsion
[ 10763 10752 10751 10750 ] final  -95.60 input  -60.55 | X-H torsion
[ 11005 11000 10999 10996 ] final  156.46 input  -57.11 | X-H torsion

> <Gold.Protein.ActiveResidues>
 VAL166  LYS551  ARG553  GLY616  TRP617  ASP618  TYR619  PRO620  LYS621  CYS622 
 ASP623  PHE694  ASN695  SER759  ASP760  ASP761  ALA762  ILE779  LEU786  VAL792 
 PHE793  MET794  SER795  GLU796  ALA797  LYS798  CYS799  TRP800  GLU811  SER814 

> <Gold.Protein.RotatedAtoms>
  151.3787  135.0936  159.9488 H   0  0  0  0  0  0  0  0  0  0  0  0  # atno 6907 bound_to 6896
  152.5114  133.9093  159.7490 H   0  0  0  0  0  0  0  0  0  0  0  0  # atno 6908 bound_to 6896
  150.9522  133.6481  159.2799 H   0  0  0  0  0  0  0  0  0  0  0  0  # atno 6909 bound_to 6896
  144.8135  140.5410  143.5626 H   0  0  0  0  0  0  0  0  0  0  0  0  # atno 7974 bound_to 7965
  156.1886  140.3080  155.9287 H   0  0  0  0  0  0  0  0  0  0  0  0  # atno 8008 bound_to 7997
  155.3225  140.0456  157.3057 H   0  0  0  0  0  0  0  0  0  0  0  0  # atno 8009 bound_to 7997
  154.5425  140.2266  155.8627 H   0  0  0  0  0  0  0  0  0  0  0  0  # atno 8010 bound_to 7997
  140.5848  143.8910  150.6821 H   0  0  0  0  0  0  0  0  0  0  0  0  # atno 10167 bound_to 10162
  157.6937  131.0245  150.3086 H   0  0  0  0  0  0  0  0  0  0  0  0  # atno 10718 bound_to 10713
  154.7164  135.5114  153.8743 H   0  0  0  0  0  0  0  0  0  0  0  0  # atno 10763 bound_to 10752
  153.0824  135.6635  154.0027 H   0  0  0  0  0  0  0  0  0  0  0  0  # atno 10764 bound_to 10752
  153.9859  135.3024  155.3395 H   0  0  0  0  0  0  0  0  0  0  0  0  # atno 10765 bound_to 10752
  140.1677  134.8565  157.2652 H   0  0  0  0  0  0  0  0  0  0  0  0  # atno 11005 bound_to 11000
  145.5267  139.1476  143.3522 LP  0  0  0  0  0  0  0  0  0  0  0  0  # atno 17320 bound_to 7965
  146.2436  140.5408  142.8923 LP  0  0  0  0  0  0  0  0  0  0  0  0  # atno 17321 bound_to 7965
  140.2419  143.3658  152.1480 LP  0  0  0  0  0  0  0  0  0  0  0  0  # atno 17342 bound_to 10162
  139.5191  144.7015  151.5479 LP  0  0  0  0  0  0  0  0  0  0  0  0  # atno 17343 bound_to 10162
  156.3591  130.3844  149.7266 LP  0  0  0  0  0  0  0  0  0  0  0  0  # atno 17370 bound_to 10713
  156.4719  130.8000  151.3018 LP  0  0  0  0  0  0  0  0  0  0  0  0  # atno 17371 bound_to 10713
  140.2414  134.3791  155.7479 LP  0  0  0  0  0  0  0  0  0  0  0  0  # atno 17394 bound_to 11000
  141.2215  133.7267  156.8795 LP  0  0  0  0  0  0  0  0  0  0  0  0  # atno 17395 bound_to 11000

$$$$
