AV-unprocessed.smi:3025|AV-procd|sdf|11509|dock2
  -GOLD-   2272016443D 1   1.00000     0.00000
 Structure written by MMmdl.
 42 43  0  0  0  0  0  0  0  0  2 V2000
  152.0236  143.6549  158.6778 C   0  0  0  0  0  0  0  0  0  0  0  0
  151.3683  143.2140  157.3642 C   0  0  0  0  0  0  0  0  0  0  0  0
  151.4214  141.6897  157.1645 C   0  0  0  0  0  0  0  0  0  0  0  0
  150.7724  141.2005  155.8531 C   0  0  2  0  0  0  0  0  0  0  0  0
  149.2461  141.4300  155.8237 C   0  0  0  0  0  0  0  0  0  0  0  0
  148.6121  140.9118  154.5223 C   0  0  0  0  0  0  0  0  0  0  0  0
  148.9283  139.4199  154.2897 C   0  0  1  0  0  0  0  0  0  0  0  0
  148.3709  138.9370  153.0066 N   0  3  0  0  0  0  0  0  0  0  0  0
  146.9003  138.7954  152.9698 C   0  0  0  0  0  0  0  0  0  0  0  0
  146.4647  137.8761  151.8212 C   0  0  0  0  0  0  0  0  0  0  0  0
  145.2185  137.1176  152.1410 C   0  0  0  0  0  0  0  0  0  0  0  0
  145.1018  135.7861  152.0763 N   0  0  0  0  0  0  0  0  0  0  0  0
  143.8009  135.5073  152.4642 N   0  0  0  0  0  0  0  0  0  0  0  0
  143.2597  136.6980  152.7265 C   0  0  0  0  0  0  0  0  0  0  0  0
  144.0946  137.7284  152.5461 N   0  0  0  0  0  0  0  0  0  0  0  0
  150.4506  139.1956  154.3114 C   0  0  0  0  0  0  0  0  0  0  0  0
  151.0789  139.7079  155.6169 C   0  0  0  0  0  0  0  0  0  0  0  0
  143.9176  138.7136  152.6779 H   0  0  0  0  0  0  0  0  0  0  0  0
  151.9743  144.7381  158.7917 H   0  0  0  0  0  0  0  0  0  0  0  0
  153.0742  143.3648  158.7111 H   0  0  0  0  0  0  0  0  0  0  0  0
  151.5242  143.2067  159.5372 H   0  0  0  0  0  0  0  0  0  0  0  0
  150.3349  143.5597  157.3564 H   0  0  0  0  0  0  0  0  0  0  0  0
  151.8688  143.7111  156.5324 H   0  0  0  0  0  0  0  0  0  0  0  0
  152.4682  141.3830  157.1731 H   0  0  0  0  0  0  0  0  0  0  0  0
  150.9555  141.1905  158.0153 H   0  0  0  0  0  0  0  0  0  0  0  0
  151.2172  141.7622  155.0303 H   0  0  0  0  0  0  0  0  0  0  0  0
  148.7823  140.9328  156.6767 H   0  0  0  0  0  0  0  0  0  0  0  0
  149.0178  142.4905  155.9252 H   0  0  0  0  0  0  0  0  0  0  0  0
  147.5355  141.0746  154.5686 H   0  0  0  0  0  0  0  0  0  0  0  0
  148.9780  141.5031  153.6816 H   0  0  0  0  0  0  0  0  0  0  0  0
  148.4887  138.8309  155.0965 H   0  0  0  0  0  0  0  0  0  0  0  0
  148.6658  139.5594  152.2678 H   0  0  0  0  0  0  0  0  0  0  0  0
  146.5552  138.3873  153.9208 H   0  0  0  0  0  0  0  0  0  0  0  0
  146.4359  139.7742  152.8497 H   0  0  0  0  0  0  0  0  0  0  0  0
  146.3017  138.4594  150.9135 H   0  0  0  0  0  0  0  0  0  0  0  0
  147.2549  137.1593  151.5935 H   0  0  0  0  0  0  0  0  0  0  0  0
  142.2384  136.8188  153.0563 H   0  0  0  0  0  0  0  0  0  0  0  0
  150.6736  138.1345  154.1931 H   0  0  0  0  0  0  0  0  0  0  0  0
  150.9136  139.7041  153.4642 H   0  0  0  0  0  0  0  0  0  0  0  0
  152.1574  139.5497  155.5836 H   0  0  0  0  0  0  0  0  0  0  0  0
  150.7076  139.1172  156.4558 H   0  0  0  0  0  0  0  0  0  0  0  0
  148.7636  138.0231  152.8303 H   0  0  0  0  0  0  0  0  0  0  0  0
  1  2  1  0  0  0  0
  1 19  1  0  0  0  0
  1 20  1  0  0  0  0
  1 21  1  0  0  0  0
  2  3  1  0  0  0  0
  2 22  1  0  0  0  0
  2 23  1  0  0  0  0
  3  4  1  0  0  0  0
  3 24  1  0  0  0  0
  3 25  1  0  0  0  0
  4 17  1  0  0  0  0
  4  5  1  0  0  0  0
  4 26  1  0  0  0  0
  5  6  1  0  0  0  0
  5 27  1  0  0  0  0
  5 28  1  0  0  0  0
  6  7  1  0  0  0  0
  6 29  1  0  0  0  0
  6 30  1  0  0  0  0
  7  8  1  0  0  0  0
  7 16  1  0  0  0  0
  7 31  1  0  0  0  0
  8  9  1  0  0  0  0
  8 32  1  0  0  0  0
  8 42  1  0  0  0  0
  9 10  1  0  0  0  0
  9 33  1  0  0  0  0
  9 34  1  0  0  0  0
 10 11  1  0  0  0  0
 10 35  1  0  0  0  0
 10 36  1  0  0  0  0
 11 15  1  0  0  0  0
 11 12  2  0  0  0  0
 12 13  1  0  0  0  0
 13 14  2  0  0  0  0
 14 15  1  0  0  0  0
 14 37  1  0  0  0  0
 15 18  1  0  0  0  0
 16 17  1  0  0  0  0
 16 38  1  0  0  0  0
 16 39  1  0  0  0  0
 17 40  1  0  0  0  0
 17 41  1  0  0  0  0
M  CHG  1   8   1
M  END
> <s_m_source_file>
AV-unprocessed.smi

> <i_m_source_file_index>
3025

> <i_lp_mmshare_version>
43012

> <i_f3d_flags>
0

> <s_epik_input>
W0NIM11bQ0gyXVtDSDJdW0NAQEhdMVtDSDJdW0NIMl1bQ0BIXShbQ0gyXVtDSDJdMSlbTkhdW0NIMl1bQ0gyXWMybm5bY0hdW25IXTI=

> <s_epik_cmdline>
J2VwaWtfcHl0aG9uJywgJy1waCcsICc3LjAnLCAnLXRuJywgJzgnLCAnLW1hJywgJzIwMCcsICctbWV0YWxfYmluZGluZycsICctaW1hZScsICc8aW5maWxlLm1hZT4nLCAnLW9tYWUnLCAnPG91dGZpbGUubWFlPic=

> <r_lp_tautomer_probability>
0.0517155

> <r_epik_Ionization_Penalty>
0.0349397

> <r_epik_Ionization_Penalty_Charging>
0.000546397

> <r_epik_Ionization_Penalty_Neutral>
0.0343933

> <r_epik_State_Penalty>
2.24019

> <r_epik_Charging_Adjusted_Penalty>
2.24074

> <i_epik_Tot_Q>
1

> <i_epik_Tot_abs_Q>
1

> <r_epik_Metal_State_Penalty>
2.47389

> <b_epik_Metal_Only>
0

> <s_lp_Force_Field>
OPLS_2005

> <r_lp_Energy>
14.3839

> <b_lp_Chiralities_Consistent>
1

> <s_lp_Variant>
AV-unprocessed.smi:3025-5

> <Gold.Version>
5.8.1

> <Gold.Id.Protein>
6NUR|6NUR_protein|mol2

> <Gold.PLP.Fitness>
46.6280

> <Gold.PLP.PLP>
-35.3395

> <Gold.PLP.part.hbond>
-3.8673

> <Gold.PLP.part.metal>
0.0000

> <Gold.PLP.part.buried>
-1.6976

> <Gold.PLP.part.nonpolar>
-31.5257

> <Gold.PLP.part.repulsive>
0.3904

> <Gold.PLP.ligand.clash>
0.0000

> <Gold.PLP.ligand.torsion>
0.4357

> <Gold.PLP.Chemscore.Hbond>
4.0000

> <Gold.PLP.Chemscore.CHOScore>
0.0000

> <Gold.PLP.Chemscore.Metal>
0.0000

> <Gold.Chemscore.Hbonds>
donor molecule, donor type, donor heavy atom, donor atom, acceptor molecule, acceptor atom, score
      L1  H     8    32       P1  7957  0.98
      L1  H     8    42       P1  7948  2.00
      L1  H    15    18       P1 10175  1.00

> <Gold.PLP.Chemscore.Internal.Correction>
0.1599

> <Gold.Rescore>
     Score         DG    S(hbond)    S(metal)    S(lipo)     H(rot)  DE(clash)    DE(int)     intcor
     18.27     -18.91       2.97        0.00      86.16       2.56       0.16       0.48       ----

> <Gold.Chemscore.Fitness>
18.2738

> <Gold.Chemscore.DG>
-18.9133

> <Gold.Chemscore.ZeroCoef>
-5.4800

> <Gold.Chemscore.Hbond>
2.9661

> <Gold.Chemscore.Metal>
0.0000

> <Gold.Chemscore.Lipo>
86.1608

> <Gold.Chemscore.Internal_Hbond>
0.0000

> <Gold.Chemscore.DEClash>
0.1560

> <Gold.Chemscore.DEInternal>
0.4835

> <Gold.Chemscore.Rot>
2.5602

> <Gold.Chemscore.Internal.Correction>
   9.000000E+99

> <Gold.Chemscore.Hbonds>
donor molecule, donor type, donor heavy atom, donor atom, acceptor molecule, acceptor atom, score
      L1  H     8    32       P1  7957  0.91
      L1  H     8    42       P1  7948  0.93
      L1  H    15    18       P1 10175  1.00

> <Gold.Chemscore.Hbond.Weighted>
-9.9067

> <Gold.Chemscore.Metal.Weighted>
-0.0000

> <Gold.Chemscore.Lipo.Weighted>
-10.0808

> <Gold.Chemscore.Internal_Hbond.Weighted>
0.0000

> <Gold.Chemscore.DEClash.Weighted>
0.1560

> <Gold.Chemscore.DEInternal.Weighted>
0.4835

> <Gold.Chemscore.Rot.Weighted>
6.5542

> <Gold.Chemscore.Internal.Correction.Weighted>
   9.000000E+99

> <Gold.Protein.RotatedTorsions>
[ 6907 6896 6895 6894 ] final  -89.24 input  -60.11 | X-H torsion
[ 7974 7965 7964 7962 ] final   12.22 input  175.53 | X-H torsion
[ 8008 7997 7996 7995 ] final  147.47 input   59.86 | X-H torsion
[ 10167 10162 10161 10158 ] final  145.42 input  -65.29 | X-H torsion
[ 10718 10713 10712 10709 ] final -139.57 input   66.30 | X-H torsion
[ 10763 10752 10751 10750 ] final  -42.81 input  -60.55 | X-H torsion
[ 11005 11000 10999 10996 ] final   79.30 input  -57.11 | X-H torsion

> <Gold.Protein.ActiveResidues>
 VAL166  LYS551  ARG553  GLY616  TRP617  ASP618  TYR619  PRO620  LYS621  CYS622 
 ASP623  PHE694  ASN695  SER759  ASP760  ASP761  ALA762  ILE779  LEU786  VAL792 
 PHE793  MET794  SER795  GLU796  ALA797  LYS798  CYS799  TRP800  GLU811  SER814 

> <Gold.Protein.RotatedAtoms>
  150.6872  134.2618  159.4551 H   0  0  0  0  0  0  0  0  0  0  0  0  # atno 6907 bound_to 6896
  152.0547  134.9629  160.0584 H   0  0  0  0  0  0  0  0  0  0  0  0  # atno 6908 bound_to 6896
  152.1080  133.4250  159.4654 H   0  0  0  0  0  0  0  0  0  0  0  0  # atno 6909 bound_to 6896
  146.2356  139.9369  142.8488 H   0  0  0  0  0  0  0  0  0  0  0  0  # atno 7974 bound_to 7965
  156.2823  140.2154  156.5543 H   0  0  0  0  0  0  0  0  0  0  0  0  # atno 8008 bound_to 7997
  154.7265  140.0499  157.0710 H   0  0  0  0  0  0  0  0  0  0  0  0  # atno 8009 bound_to 7997
  155.0409  140.3145  155.4728 H   0  0  0  0  0  0  0  0  0  0  0  0  # atno 8010 bound_to 7997
  139.4926  144.5903  151.6695 H   0  0  0  0  0  0  0  0  0  0  0  0  # atno 10167 bound_to 10162
  156.3123  130.7488  151.1567 H   0  0  0  0  0  0  0  0  0  0  0  0  # atno 10718 bound_to 10713
  153.9853  135.6712  153.4751 H   0  0  0  0  0  0  0  0  0  0  0  0  # atno 10763 bound_to 10752
  153.0730  135.4964  154.8341 H   0  0  0  0  0  0  0  0  0  0  0  0  # atno 10764 bound_to 10752
  154.7141  135.3103  154.9113 H   0  0  0  0  0  0  0  0  0  0  0  0  # atno 10765 bound_to 10752
  139.9178  134.7831  156.1760 H   0  0  0  0  0  0  0  0  0  0  0  0  # atno 11005 bound_to 11000
  145.1990  140.9846  143.4167 LP  0  0  0  0  0  0  0  0  0  0  0  0  # atno 17320 bound_to 7965
  144.9790  139.3802  143.6271 LP  0  0  0  0  0  0  0  0  0  0  0  0  # atno 17321 bound_to 7965
  140.5528  144.0397  150.6134 LP  0  0  0  0  0  0  0  0  0  0  0  0  # atno 17342 bound_to 10162
  140.3457  143.2993  152.0541 LP  0  0  0  0  0  0  0  0  0  0  0  0  # atno 17343 bound_to 10162
  157.7394  131.0530  150.5236 LP  0  0  0  0  0  0  0  0  0  0  0  0  # atno 17370 bound_to 10713
  156.5377  130.4200  149.6169 LP  0  0  0  0  0  0  0  0  0  0  0  0  # atno 17371 bound_to 10713
  141.0671  133.6814  156.2066 LP  0  0  0  0  0  0  0  0  0  0  0  0  # atno 17394 bound_to 11000
  140.6567  134.5010  157.5581 LP  0  0  0  0  0  0  0  0  0  0  0  0  # atno 17395 bound_to 11000

$$$$
