AV-unprocessed.smi:3156|AV-procd|sdf|12030|dock4
  -GOLD-   2272017443D 1   1.00000     0.00000
 Structure written by MMmdl.
 41 42  0  0  0  0  0  0  0  0  2 V2000
  148.3855  139.7266  156.9997 C   0  0  0  0  0  0  0  0  0  0  0  0
  148.4562  140.8640  155.9646 C   0  0  1  0  0  0  0  0  0  0  0  0
  149.3882  141.9010  156.4606 N   0  3  0  0  0  0  0  0  0  0  0  0
  149.2468  142.2311  157.8938 C   0  0  0  0  0  0  0  0  0  0  0  0
  150.0485  143.4904  158.2484 C   0  0  2  0  0  0  0  0  0  0  0  0
  151.5197  143.3818  157.8023 C   0  0  0  0  0  0  0  0  0  0  0  0
  152.3131  144.6107  158.2607 C   0  0  0  0  0  0  0  0  0  0  0  0
  152.1290  144.8093  159.7689 C   0  0  0  0  0  0  0  0  0  0  0  0
  150.6344  144.8407  160.1242 C   0  0  0  0  0  0  0  0  0  0  0  0
  150.0024  143.6495  159.6652 O   0  0  0  0  0  0  0  0  0  0  0  0
  148.8877  140.3809  154.5546 C   0  0  2  0  0  0  0  0  0  0  0  0
  147.7424  139.7207  153.7649 C   0  0  0  0  0  0  0  0  0  0  0  0
  150.0287  139.4764  154.6200 N   0  0  0  0  0  0  0  0  0  0  0  0
  150.0784  138.1255  154.3367 C   0  0  0  0  0  0  0  0  0  0  0  0
  151.3598  137.7089  154.5568 C   0  0  0  0  0  0  0  0  0  0  0  0
  152.0302  138.8891  154.9828 C   0  0  0  0  0  0  0  0  0  0  0  0
  151.2317  139.9435  155.0206 N   0  0  0  0  0  0  0  0  0  0  0  0
  147.6297  138.9858  156.7389 H   0  0  0  0  0  0  0  0  0  0  0  0
  148.1256  140.1112  157.9866 H   0  0  0  0  0  0  0  0  0  0  0  0
  149.3423  139.2102  157.0860 H   0  0  0  0  0  0  0  0  0  0  0  0
  147.4535  141.2898  155.8931 H   0  0  0  0  0  0  0  0  0  0  0  0
  150.3333  141.5809  156.3038 H   0  0  0  0  0  0  0  0  0  0  0  0
  148.1948  142.3748  158.1440 H   0  0  0  0  0  0  0  0  0  0  0  0
  149.6036  141.3833  158.4803 H   0  0  0  0  0  0  0  0  0  0  0  0
  149.5876  144.3558  157.7682 H   0  0  0  0  0  0  0  0  0  0  0  0
  151.9682  142.4813  158.2241 H   0  0  0  0  0  0  0  0  0  0  0  0
  151.5815  143.2831  156.7182 H   0  0  0  0  0  0  0  0  0  0  0  0
  153.3698  144.4957  158.0177 H   0  0  0  0  0  0  0  0  0  0  0  0
  151.9627  145.4953  157.7272 H   0  0  0  0  0  0  0  0  0  0  0  0
  152.6136  143.9944  160.3079 H   0  0  0  0  0  0  0  0  0  0  0  0
  152.6150  145.7304  160.0914 H   0  0  0  0  0  0  0  0  0  0  0  0
  150.5079  144.9122  161.2045 H   0  0  0  0  0  0  0  0  0  0  0  0
  150.1478  145.7145  159.6880 H   0  0  0  0  0  0  0  0  0  0  0  0
  149.2044  141.2585  153.9867 H   0  0  0  0  0  0  0  0  0  0  0  0
  146.9325  140.4240  153.5719 H   0  0  0  0  0  0  0  0  0  0  0  0
  147.3230  138.8693  154.3018 H   0  0  0  0  0  0  0  0  0  0  0  0
  148.0921  139.3626  152.7960 H   0  0  0  0  0  0  0  0  0  0  0  0
  149.2076  137.5779  154.0071 H   0  0  0  0  0  0  0  0  0  0  0  0
  151.7578  136.7124  154.4341 H   0  0  0  0  0  0  0  0  0  0  0  0
  153.0657  139.0097  155.2653 H   0  0  0  0  0  0  0  0  0  0  0  0
  149.2435  142.7422  155.9198 H   0  0  0  0  0  0  0  0  0  0  0  0
  1  2  1  0  0  0  0
  1 18  1  0  0  0  0
  1 19  1  0  0  0  0
  1 20  1  0  0  0  0
  2  3  1  0  0  0  0
  2 11  1  0  0  0  0
  2 21  1  0  0  0  0
  3  4  1  0  0  0  0
  3 22  1  0  0  0  0
  3 41  1  0  0  0  0
  4  5  1  0  0  0  0
  4 23  1  0  0  0  0
  4 24  1  0  0  0  0
  5 10  1  0  0  0  0
  5  6  1  0  0  0  0
  5 25  1  0  0  0  0
  6  7  1  0  0  0  0
  6 26  1  0  0  0  0
  6 27  1  0  0  0  0
  7  8  1  0  0  0  0
  7 28  1  0  0  0  0
  7 29  1  0  0  0  0
  8  9  1  0  0  0  0
  8 30  1  0  0  0  0
  8 31  1  0  0  0  0
  9 10  1  0  0  0  0
  9 32  1  0  0  0  0
  9 33  1  0  0  0  0
 11 12  1  0  0  0  0
 11 13  1  0  0  0  0
 11 34  1  0  0  0  0
 12 35  1  0  0  0  0
 12 36  1  0  0  0  0
 12 37  1  0  0  0  0
 13 17  1  0  0  0  0
 13 14  1  0  0  0  0
 14 15  2  0  0  0  0
 14 38  1  0  0  0  0
 15 16  1  0  0  0  0
 15 39  1  0  0  0  0
 16 17  2  0  0  0  0
 16 40  1  0  0  0  0
M  CHG  1   3   1
M  END
> <s_m_source_file>
AV-unprocessed.smi

> <i_m_source_file_index>
3156

> <i_lp_mmshare_version>
43012

> <i_f3d_flags>
0

> <s_epik_input>
bjFbY0hdW2NIXVtjSF1uMVtDQEBIXShbQ0gzXSlbQ0BIXShbQ0gzXSlbTkhdW0NIMl1bQ0BASF0yW0NIMl1bQ0gyXVtDSDJdW0NIMl1PMg==

> <s_epik_cmdline>
J2VwaWtfcHl0aG9uJywgJy1waCcsICc3LjAnLCAnLXRuJywgJzgnLCAnLW1hJywgJzIwMCcsICctbWV0YWxfYmluZGluZycsICctaW1hZScsICc8aW5maWxlLm1hZT4nLCAnLW9tYWUnLCAnPG91dGZpbGUubWFlPic=

> <r_lp_tautomer_probability>
1

> <r_epik_Ionization_Penalty>
0.00658015

> <r_epik_Ionization_Penalty_Charging>
0.00656881

> <r_epik_Ionization_Penalty_Neutral>
1.13431e-05

> <r_epik_State_Penalty>
0.0048654

> <r_epik_Charging_Adjusted_Penalty>
0.0114342

> <i_epik_Tot_Q>
1

> <i_epik_Tot_abs_Q>
1

> <r_epik_Metal_State_Penalty>
-0

> <b_epik_Metal_Only>
0

> <s_lp_Force_Field>
OPLS_2005

> <r_lp_Energy>
19.2927

> <b_lp_Chiralities_Consistent>
1

> <s_lp_Variant>
AV-unprocessed.smi:3156-2

> <Gold.Version>
5.8.1

> <Gold.Id.Protein>
6NUR|6NUR_protein|mol2

> <Gold.PLP.Fitness>
48.3509

> <Gold.PLP.PLP>
-38.0025

> <Gold.PLP.part.hbond>
-3.0000

> <Gold.PLP.part.metal>
0.0000

> <Gold.PLP.part.buried>
-4.5721

> <Gold.PLP.part.nonpolar>
-32.1988

> <Gold.PLP.part.repulsive>
0.2029

> <Gold.PLP.ligand.clash>
0.0000

> <Gold.PLP.ligand.torsion>
0.6953

> <Gold.PLP.Chemscore.Hbond>
2.9000

> <Gold.PLP.Chemscore.CHOScore>
0.9717

> <Gold.PLP.Chemscore.Metal>
0.0000

> <Gold.Chemscore.Hbonds>
donor molecule, donor type, donor heavy atom, donor atom, acceptor molecule, acceptor atom, score
      L1  H     3    41       P1  8028  2.00
      P1  H  7989  7998       L1    17  0.90
      L1  C    14    38       P1  7948  0.92

> <Gold.PLP.Chemscore.Internal.Correction>
0.1238

> <Gold.Rescore>
     Score         DG    S(hbond)    S(metal)    S(lipo)     H(rot)  DE(clash)    DE(int)     intcor
     17.52     -18.93       1.83        0.00      97.49       1.59       0.02       1.38       ----

> <Gold.Chemscore.Fitness>
17.5237

> <Gold.Chemscore.DG>
-18.9302

> <Gold.Chemscore.ZeroCoef>
-5.4800

> <Gold.Chemscore.Hbond>
1.8334

> <Gold.Chemscore.Metal>
0.0000

> <Gold.Chemscore.Lipo>
97.4942

> <Gold.Chemscore.Internal_Hbond>
0.0000

> <Gold.Chemscore.DEClash>
0.0217

> <Gold.Chemscore.DEInternal>
1.3848

> <Gold.Chemscore.Rot>
1.5938

> <Gold.Chemscore.Internal.Correction>
   9.000000E+99

> <Gold.Chemscore.Hbonds>
donor molecule, donor type, donor heavy atom, donor atom, acceptor molecule, acceptor atom, score
      L1  H     3    41       P1  8028  0.92
      P1  H  7989  7998       L1    17  0.08

> <Gold.Chemscore.Hbond.Weighted>
-6.1237

> <Gold.Chemscore.Metal.Weighted>
-0.0000

> <Gold.Chemscore.Lipo.Weighted>
-11.4068

> <Gold.Chemscore.Internal_Hbond.Weighted>
0.0000

> <Gold.Chemscore.DEClash.Weighted>
0.0217

> <Gold.Chemscore.DEInternal.Weighted>
1.3848

> <Gold.Chemscore.Rot.Weighted>
4.0802

> <Gold.Chemscore.Internal.Correction.Weighted>
   9.000000E+99

> <Gold.Protein.RotatedTorsions>
[ 6907 6896 6895 6894 ] final -106.48 input  -60.11 | X-H torsion
[ 7974 7965 7964 7962 ] final  -90.95 input  175.53 | X-H torsion
[ 8008 7997 7996 7995 ] final   28.20 input   59.86 | X-H torsion
[ 10167 10162 10161 10158 ] final   62.23 input  -65.29 | X-H torsion
[ 10718 10713 10712 10709 ] final  150.00 input   66.30 | X-H torsion
[ 10763 10752 10751 10750 ] final   91.12 input  -60.55 | X-H torsion
[ 11005 11000 10999 10996 ] final  -11.17 input  -57.11 | X-H torsion

> <Gold.Protein.ActiveResidues>
 VAL166  LYS551  ARG553  GLY616  TRP617  ASP618  TYR619  PRO620  LYS621  CYS622 
 ASP623  PHE694  ASN695  SER759  ASP760  ASP761  ALA762  ILE779  LEU786  VAL792 
 PHE793  MET794  SER795  GLU796  ALA797  LYS798  CYS799  TRP800  GLU811  SER814 

> <Gold.Protein.RotatedAtoms>
  150.7391  133.9970  159.3625 H   0  0  0  0  0  0  0  0  0  0  0  0  # atno 6907 bound_to 6896
  151.7921  135.0730  160.0398 H   0  0  0  0  0  0  0  0  0  0  0  0  # atno 6908 bound_to 6896
  152.3200  133.5807  159.5774 H   0  0  0  0  0  0  0  0  0  0  0  0  # atno 6909 bound_to 6896
  145.4196  140.9550  143.2188 H   0  0  0  0  0  0  0  0  0  0  0  0  # atno 7974 bound_to 7965
  155.0550  140.3184  155.4679 H   0  0  0  0  0  0  0  0  0  0  0  0  # atno 8008 bound_to 7997
  156.2826  140.2139  156.5620 H   0  0  0  0  0  0  0  0  0  0  0  0  # atno 8009 bound_to 7997
  154.7179  140.0492  157.0599 H   0  0  0  0  0  0  0  0  0  0  0  0  # atno 8010 bound_to 7997
  140.1461  144.4507  150.6784 H   0  0  0  0  0  0  0  0  0  0  0  0  # atno 10167 bound_to 10162
  157.2890  131.0850  151.1476 H   0  0  0  0  0  0  0  0  0  0  0  0  # atno 10718 bound_to 10713
  153.2048  135.4409  155.0310 H   0  0  0  0  0  0  0  0  0  0  0  0  # atno 10763 bound_to 10752
  154.8167  135.3318  154.7157 H   0  0  0  0  0  0  0  0  0  0  0  0  # atno 10764 bound_to 10752
  153.7600  135.6992  153.4983 H   0  0  0  0  0  0  0  0  0  0  0  0  # atno 10765 bound_to 10752
  140.7524  133.8581  155.9056 H   0  0  0  0  0  0  0  0  0  0  0  0  # atno 11005 bound_to 11000
  144.8254  139.5719  143.6968 LP  0  0  0  0  0  0  0  0  0  0  0  0  # atno 17320 bound_to 7965
  146.2663  139.6528  142.9327 LP  0  0  0  0  0  0  0  0  0  0  0  0  # atno 17321 bound_to 7965
  140.6731  143.2294  151.5576 LP  0  0  0  0  0  0  0  0  0  0  0  0  # atno 17342 bound_to 10162
  139.5448  144.2550  152.1421 LP  0  0  0  0  0  0  0  0  0  0  0  0  # atno 17343 bound_to 10162
  157.2879  130.6782  149.6099 LP  0  0  0  0  0  0  0  0  0  0  0  0  # atno 17370 bound_to 10713
  155.9666  130.4430  150.5402 LP  0  0  0  0  0  0  0  0  0  0  0  0  # atno 17371 bound_to 10713
  140.9738  134.1496  157.4553 LP  0  0  0  0  0  0  0  0  0  0  0  0  # atno 17394 bound_to 11000
  139.8785  134.9988  156.5918 LP  0  0  0  0  0  0  0  0  0  0  0  0  # atno 17395 bound_to 11000

$$$$
