AV-unprocessed.smi:1423|AV-procd|sdf|5795|dock1
  -GOLD-   22720 5443D 1   1.00000     0.00000
 Structure written by MMmdl.
 44 45  0  0  0  0  0  0  0  0  2 V2000
  153.5405  142.1046  161.0053 C   0  0  0  0  0  0  0  0  0  0  0  0
  153.1316  142.9713  159.9529 O   0  0  0  0  0  0  0  0  0  0  0  0
  152.3256  142.4579  158.9574 C   0  0  0  0  0  0  0  0  0  0  0  0
  151.9513  141.1014  159.0251 C   0  0  0  0  0  0  0  0  0  0  0  0
  151.1339  140.5678  158.0105 C   0  0  0  0  0  0  0  0  0  0  0  0
  150.7075  141.4142  156.9586 C   0  0  0  0  0  0  0  0  0  0  0  0
  149.9022  140.9979  155.8632 N   0  0  0  0  0  0  0  0  0  0  0  0
  148.8524  140.1584  155.8579 C   0  0  0  0  0  0  0  0  0  0  0  0
  148.3472  139.6383  156.8522 O   0  0  0  0  0  0  0  0  0  0  0  0
  148.3977  139.9593  154.6121 N   0  0  0  0  0  0  0  0  0  0  0  0
  147.2720  139.0997  154.2561 C   0  0  2  0  0  0  0  0  0  0  0  0
  147.4815  137.6696  154.7890 C   0  0  0  0  0  0  0  0  0  0  0  0
  146.3554  136.7303  154.3260 C   0  0  0  0  0  0  0  0  0  0  0  0
  146.2401  136.7245  152.8456 N   0  3  1  0  0  0  0  0  0  0  0  0
  145.2647  135.7185  152.3524 C   0  0  0  0  0  0  0  0  0  0  0  0
  145.5274  135.2970  150.9031 C   0  0  0  0  0  0  0  0  0  0  0  0
  145.2676  136.2003  149.9553 N   0  0  0  0  0  0  0  0  0  0  0  0
  145.9431  134.1703  150.6381 O   0  0  0  0  0  0  0  0  0  0  0  0
  145.9890  138.0905  152.3135 C   0  0  0  0  0  0  0  0  0  0  0  0
  147.1083  139.0600  152.7281 C   0  0  0  0  0  0  0  0  0  0  0  0
  151.1444  142.7552  156.9803 C   0  0  0  0  0  0  0  0  0  0  0  0
  151.9287  143.2726  157.9488 N   0  0  0  0  0  0  0  0  0  0  0  0
  154.1674  142.6575  161.7046 H   0  0  0  0  0  0  0  0  0  0  0  0
  154.1266  141.2656  160.6277 H   0  0  0  0  0  0  0  0  0  0  0  0
  152.6837  141.7218  161.5616 H   0  0  0  0  0  0  0  0  0  0  0  0
  152.2910  140.4774  159.8386 H   0  0  0  0  0  0  0  0  0  0  0  0
  150.8680  139.5238  158.0566 H   0  0  0  0  0  0  0  0  0  0  0  0
  150.1465  141.4070  154.9733 H   0  0  0  0  0  0  0  0  0  0  0  0
  148.8667  140.4343  153.8548 H   0  0  0  0  0  0  0  0  0  0  0  0
  146.3581  139.5121  154.6883 H   0  0  0  0  0  0  0  0  0  0  0  0
  148.4405  137.2814  154.4425 H   0  0  0  0  0  0  0  0  0  0  0  0
  147.5266  137.6738  155.8788 H   0  0  0  0  0  0  0  0  0  0  0  0
  146.5639  135.7214  154.6838 H   0  0  0  0  0  0  0  0  0  0  0  0
  145.4043  137.0341  154.7661 H   0  0  0  0  0  0  0  0  0  0  0  0
  145.3326  134.8127  152.9565 H   0  0  0  0  0  0  0  0  0  0  0  0
  144.2469  136.0955  152.4662 H   0  0  0  0  0  0  0  0  0  0  0  0
  145.4253  135.9781  148.9828 H   0  0  0  0  0  0  0  0  0  0  0  0
  144.9149  137.1104  150.2160 H   0  0  0  0  0  0  0  0  0  0  0  0
  145.9244  138.0644  151.2256 H   0  0  0  0  0  0  0  0  0  0  0  0
  145.0260  138.4525  152.6773 H   0  0  0  0  0  0  0  0  0  0  0  0
  146.8891  140.0592  152.3491 H   0  0  0  0  0  0  0  0  0  0  0  0
  148.0446  138.7505  152.2607 H   0  0  0  0  0  0  0  0  0  0  0  0
  150.8554  143.4382  156.1945 H   0  0  0  0  0  0  0  0  0  0  0  0
  147.1407  136.4323  152.4927 H   0  0  0  0  0  0  0  0  0  0  0  0
  1  2  1  0  0  0  0
  1 23  1  0  0  0  0
  1 24  1  0  0  0  0
  1 25  1  0  0  0  0
  2  3  1  0  0  0  0
  3 22  1  0  0  0  0
  3  4  2  0  0  0  0
  4  5  1  0  0  0  0
  4 26  1  0  0  0  0
  5  6  2  0  0  0  0
  5 27  1  0  0  0  0
  6  7  1  0  0  0  0
  6 21  1  0  0  0  0
  7  8  1  0  0  0  0
  7 28  1  0  0  0  0
  8  9  2  0  0  0  0
  8 10  1  0  0  0  0
 10 11  1  0  0  0  0
 10 29  1  0  0  0  0
 11 20  1  0  0  0  0
 11 12  1  0  0  0  0
 11 30  1  0  0  0  0
 12 13  1  0  0  0  0
 12 31  1  0  0  0  0
 12 32  1  0  0  0  0
 13 14  1  0  0  0  0
 13 33  1  0  0  0  0
 13 34  1  0  0  0  0
 14 15  1  0  0  0  0
 14 19  1  0  0  0  0
 14 44  1  0  0  0  0
 15 16  1  0  0  0  0
 15 35  1  0  0  0  0
 15 36  1  0  0  0  0
 16 17  1  0  0  0  0
 16 18  2  0  0  0  0
 17 37  1  0  0  0  0
 17 38  1  0  0  0  0
 19 20  1  0  0  0  0
 19 39  1  0  0  0  0
 19 40  1  0  0  0  0
 20 41  1  0  0  0  0
 20 42  1  0  0  0  0
 21 22  2  0  0  0  0
 21 43  1  0  0  0  0
M  CHG  1  14   1
M  END
> <s_m_source_file>
AV-unprocessed.smi

> <i_m_source_file_index>
1423

> <i_lp_mmshare_version>
43012

> <i_f3d_flags>
0

> <s_epik_input>
W0NIM11PYzFbY0hdW2NIXWMoW2NIXW4xKVtOSF1DKD1PKVtOSF1bQ0hdMltDSDJdW0NIMl1OKFtDSDJdW0NIMl0yKVtDSDJdQyg9TylbTkgyXQ==

> <s_epik_cmdline>
J2VwaWtfcHl0aG9uJywgJy1waCcsICc3LjAnLCAnLXRuJywgJzgnLCAnLW1hJywgJzIwMCcsICctbWV0YWxfYmluZGluZycsICctaW1hZScsICc8aW5maWxlLm1hZT4nLCAnLW9tYWUnLCAnPG91dGZpbGUubWFlPic=

> <r_lp_tautomer_probability>
1

> <r_epik_Ionization_Penalty>
0.838963

> <r_epik_Ionization_Penalty_Charging>
0.838844

> <r_epik_Ionization_Penalty_Neutral>
0.0001192

> <r_epik_State_Penalty>
0.8734

> <r_epik_Charging_Adjusted_Penalty>
1.71224

> <i_epik_Tot_Q>
1

> <i_epik_Tot_abs_Q>
1

> <r_epik_Metal_State_Penalty>
0.890706

> <b_epik_Metal_Only>
0

> <s_lp_Force_Field>
OPLS_2005

> <r_lp_Energy>
16.4152

> <b_lp_Chiralities_Consistent>
1

> <s_lp_Variant>
AV-unprocessed.smi:1423-2

> <Gold.Version>
5.8.1

> <Gold.Id.Protein>
6NUR|6NUR_protein|mol2

> <Gold.PLP.Fitness>
44.0949

> <Gold.PLP.PLP>
-30.9703

> <Gold.PLP.part.hbond>
-3.0000

> <Gold.PLP.part.metal>
0.0000

> <Gold.PLP.part.buried>
-5.5422

> <Gold.PLP.part.nonpolar>
-24.2288

> <Gold.PLP.part.repulsive>
0.9230

> <Gold.PLP.ligand.clash>
0.7215

> <Gold.PLP.ligand.torsion>
0.5980

> <Gold.PLP.Chemscore.Hbond>
3.9920

> <Gold.PLP.Chemscore.CHOScore>
1.0000

> <Gold.PLP.Chemscore.Metal>
0.0000

> <Gold.Chemscore.Hbonds>
donor molecule, donor type, donor heavy atom, donor atom, acceptor molecule, acceptor atom, score
      L1  H    14    44       P1  7948  2.00
      L1  H    17    37       P1  7921  1.00
      L1  H    17    38       P1 10171  0.96
      L1  C    21    43       P1  8028  1.00

> <Gold.PLP.Chemscore.Internal.Correction>
0.0660

> <Gold.Rescore>
     Score         DG    S(hbond)    S(metal)    S(lipo)     H(rot)  DE(clash)    DE(int)     intcor
     15.20     -17.12       2.96        0.00      65.81       2.33       0.05       1.86       ----

> <Gold.Chemscore.Fitness>
15.2036

> <Gold.Chemscore.DG>
-17.1185

> <Gold.Chemscore.ZeroCoef>
-5.4800

> <Gold.Chemscore.Hbond>
2.9628

> <Gold.Chemscore.Metal>
0.0000

> <Gold.Chemscore.Lipo>
65.8119

> <Gold.Chemscore.Internal_Hbond>
0.0000

> <Gold.Chemscore.DEClash>
0.0508

> <Gold.Chemscore.DEInternal>
1.8641

> <Gold.Chemscore.Rot>
2.3271

> <Gold.Chemscore.Internal.Correction>
   9.000000E+99

> <Gold.Chemscore.Hbonds>
donor molecule, donor type, donor heavy atom, donor atom, acceptor molecule, acceptor atom, score
      L1  H    14    44       P1  7948  1.00
      L1  H    17    37       P1  7921  0.95
      L1  H    17    38       P1 10171  0.92

> <Gold.Chemscore.Hbond.Weighted>
-9.8959

> <Gold.Chemscore.Metal.Weighted>
-0.0000

> <Gold.Chemscore.Lipo.Weighted>
-7.7000

> <Gold.Chemscore.Internal_Hbond.Weighted>
0.0000

> <Gold.Chemscore.DEClash.Weighted>
0.0508

> <Gold.Chemscore.DEInternal.Weighted>
1.8641

> <Gold.Chemscore.Rot.Weighted>
5.9573

> <Gold.Chemscore.Internal.Correction.Weighted>
   9.000000E+99

> <Gold.Protein.RotatedTorsions>
[ 6907 6896 6895 6894 ] final   44.53 input  -60.11 | X-H torsion
[ 7974 7965 7964 7962 ] final -111.50 input  175.53 | X-H torsion
[ 8008 7997 7996 7995 ] final   76.13 input   59.86 | X-H torsion
[ 10167 10162 10161 10158 ] final   78.71 input  -65.29 | X-H torsion
[ 10718 10713 10712 10709 ] final -175.84 input   66.30 | X-H torsion
[ 10763 10752 10751 10750 ] final -154.51 input  -60.55 | X-H torsion
[ 11005 11000 10999 10996 ] final   88.77 input  -57.11 | X-H torsion

> <Gold.Protein.ActiveResidues>
 VAL166  LYS551  ARG553  GLY616  TRP617  ASP618  TYR619  PRO620  LYS621  CYS622 
 ASP623  PHE694  ASN695  SER759  ASP760  ASP761  ALA762  ILE779  LEU786  VAL792 
 PHE793  MET794  SER795  GLU796  ALA797  LYS798  CYS799  TRP800  GLU811  SER814 

> <Gold.Protein.RotatedAtoms>
  152.2337  134.8297  160.0469 H   0  0  0  0  0  0  0  0  0  0  0  0  # atno 6907 bound_to 6896
  151.9037  133.3539  159.3847 H   0  0  0  0  0  0  0  0  0  0  0  0  # atno 6908 bound_to 6896
  150.7033  134.4728  159.5477 H   0  0  0  0  0  0  0  0  0  0  0  0  # atno 6909 bound_to 6896
  145.1553  140.8850  143.3622 H   0  0  0  0  0  0  0  0  0  0  0  0  # atno 7974 bound_to 7965
  155.8229  140.3469  155.5525 H   0  0  0  0  0  0  0  0  0  0  0  0  # atno 8008 bound_to 7997
  155.8323  140.0929  157.1805 H   0  0  0  0  0  0  0  0  0  0  0  0  # atno 8009 bound_to 7997
  154.4004  140.1410  156.3616 H   0  0  0  0  0  0  0  0  0  0  0  0  # atno 8010 bound_to 7997
  139.9680  144.5914  150.8011 H   0  0  0  0  0  0  0  0  0  0  0  0  # atno 10167 bound_to 10162
  156.8058  130.9568  151.3117 H   0  0  0  0  0  0  0  0  0  0  0  0  # atno 10718 bound_to 10713
  154.7853  135.3188  154.7900 H   0  0  0  0  0  0  0  0  0  0  0  0  # atno 10763 bound_to 10752
  153.8601  135.6854  153.4788 H   0  0  0  0  0  0  0  0  0  0  0  0  # atno 10764 bound_to 10752
  153.1503  135.4702  154.9565 H   0  0  0  0  0  0  0  0  0  0  0  0  # atno 10765 bound_to 10752
  139.8889  134.8509  156.3047 H   0  0  0  0  0  0  0  0  0  0  0  0  # atno 11005 bound_to 11000
  145.0388  139.3278  143.5987 LP  0  0  0  0  0  0  0  0  0  0  0  0  # atno 17320 bound_to 7965
  146.3489  139.9753  142.8701 LP  0  0  0  0  0  0  0  0  0  0  0  0  # atno 17321 bound_to 7965
  140.7531  143.3003  151.3099 LP  0  0  0  0  0  0  0  0  0  0  0  0  # atno 17342 bound_to 10162
  139.6503  144.0375  152.2621 LP  0  0  0  0  0  0  0  0  0  0  0  0  # atno 17343 bound_to 10162
  157.6531  130.8901  149.9673 LP  0  0  0  0  0  0  0  0  0  0  0  0  # atno 17370 bound_to 10713
  156.1074  130.3652  150.0110 LP  0  0  0  0  0  0  0  0  0  0  0  0  # atno 17371 bound_to 10713
  140.9890  133.7220  156.0785 LP  0  0  0  0  0  0  0  0  0  0  0  0  # atno 17394 bound_to 11000
  140.7650  134.3896  157.5518 LP  0  0  0  0  0  0  0  0  0  0  0  0  # atno 17395 bound_to 11000

$$$$
