AV-unprocessed.smi:1263|AV-procd|sdf|5310|dock8
  -GOLD-   22720 4433D 1   1.00000     0.00000
 Structure written by MMmdl.
 44 46  0  0  0  0  0  0  0  0  2 V2000
  145.8373  143.5027  153.8290 C   0  0  0  0  0  0  0  0  0  0  0  0
  145.8757  142.0996  154.0653 O   0  0  0  0  0  0  0  0  0  0  0  0
  147.1026  141.4987  154.2742 C   0  0  0  0  0  0  0  0  0  0  0  0
  148.0903  142.2311  154.8479 N   0  0  0  0  0  0  0  0  0  0  0  0
  149.2901  141.6479  155.0470 C   0  0  0  0  0  0  0  0  0  0  0  0
  149.5702  140.3183  154.6823 C   0  0  0  0  0  0  0  0  0  0  0  0
  148.5475  139.5564  154.0879 C   0  0  0  0  0  0  0  0  0  0  0  0
  147.2774  140.1495  153.8865 C   0  0  0  0  0  0  0  0  0  0  0  0
  146.1821  139.4766  153.2776 N   0  0  0  0  0  0  0  0  0  0  0  0
  146.0435  138.1648  153.0220 C   0  0  0  0  0  0  0  0  0  0  0  0
  146.8685  137.2934  153.2960 O   0  0  0  0  0  0  0  0  0  0  0  0
  144.8652  137.9067  152.4362 N   0  0  0  0  0  0  0  0  0  0  0  0
  144.3904  136.5798  152.0543 C   0  0  2  0  0  0  0  0  0  0  0  0
  144.3403  135.6366  153.2715 C   0  0  0  0  0  0  0  0  0  0  0  0
  143.9345  134.2137  152.8523 C   0  0  0  0  0  0  0  0  0  0  0  0
  144.8514  133.6810  151.8142 N   0  3  1  0  0  0  0  0  0  0  0  0
  144.5491  132.2738  151.4731 C   0  0  0  0  0  0  0  0  0  0  0  0
  145.1319  131.8306  150.1513 C   0  0  0  0  0  0  0  0  0  0  0  0
  143.6518  132.1194  150.2673 C   0  0  0  0  0  0  0  0  0  0  0  0
  144.8883  134.5517  150.6130 C   0  0  0  0  0  0  0  0  0  0  0  0
  145.3148  135.9832  150.9800 C   0  0  0  0  0  0  0  0  0  0  0  0
  144.8038  143.8156  153.6822 H   0  0  0  0  0  0  0  0  0  0  0  0
  146.3946  143.7714  152.9304 H   0  0  0  0  0  0  0  0  0  0  0  0
  146.2344  144.0615  154.6776 H   0  0  0  0  0  0  0  0  0  0  0  0
  150.0519  142.2617  155.5042 H   0  0  0  0  0  0  0  0  0  0  0  0
  150.5489  139.8938  154.8494 H   0  0  0  0  0  0  0  0  0  0  0  0
  148.7616  138.5431  153.7865 H   0  0  0  0  0  0  0  0  0  0  0  0
  145.3809  140.0569  153.0761 H   0  0  0  0  0  0  0  0  0  0  0  0
  144.2467  138.6836  152.2539 H   0  0  0  0  0  0  0  0  0  0  0  0
  143.3876  136.6707  151.6318 H   0  0  0  0  0  0  0  0  0  0  0  0
  145.3158  135.6069  153.7595 H   0  0  0  0  0  0  0  0  0  0  0  0
  143.6353  136.0120  154.0141 H   0  0  0  0  0  0  0  0  0  0  0  0
  143.9500  133.5595  153.7247 H   0  0  0  0  0  0  0  0  0  0  0  0
  142.9114  134.2109  152.4727 H   0  0  0  0  0  0  0  0  0  0  0  0
  144.4779  131.5780  152.3076 H   0  0  0  0  0  0  0  0  0  0  0  0
  145.7385  132.5394  149.5903 H   0  0  0  0  0  0  0  0  0  0  0  0
  145.4306  130.7884  150.0581 H   0  0  0  0  0  0  0  0  0  0  0  0
  142.9753  131.2672  150.2500 H   0  0  0  0  0  0  0  0  0  0  0  0
  143.2768  133.0199  149.7842 H   0  0  0  0  0  0  0  0  0  0  0  0
  145.5873  134.1401  149.8842 H   0  0  0  0  0  0  0  0  0  0  0  0
  143.9058  134.5618  150.1381 H   0  0  0  0  0  0  0  0  0  0  0  0
  145.3054  136.6100  150.0873 H   0  0  0  0  0  0  0  0  0  0  0  0
  146.3449  135.9724  151.3396 H   0  0  0  0  0  0  0  0  0  0  0  0
  145.7799  133.6900  152.2114 H   0  0  0  0  0  0  0  0  0  0  0  0
  1  2  1  0  0  0  0
  1 22  1  0  0  0  0
  1 23  1  0  0  0  0
  1 24  1  0  0  0  0
  2  3  1  0  0  0  0
  3  8  1  0  0  0  0
  3  4  2  0  0  0  0
  4  5  1  0  0  0  0
  5  6  2  0  0  0  0
  5 25  1  0  0  0  0
  6  7  1  0  0  0  0
  6 26  1  0  0  0  0
  7  8  2  0  0  0  0
  7 27  1  0  0  0  0
  8  9  1  0  0  0  0
  9 10  1  0  0  0  0
  9 28  1  0  0  0  0
 10 11  2  0  0  0  0
 10 12  1  0  0  0  0
 12 13  1  0  0  0  0
 12 29  1  0  0  0  0
 13 21  1  0  0  0  0
 13 14  1  0  0  0  0
 13 30  1  0  0  0  0
 14 15  1  0  0  0  0
 14 31  1  0  0  0  0
 14 32  1  0  0  0  0
 15 16  1  0  0  0  0
 15 33  1  0  0  0  0
 15 34  1  0  0  0  0
 16 17  1  0  0  0  0
 16 20  1  0  0  0  0
 16 44  1  0  0  0  0
 17 19  1  0  0  0  0
 17 18  1  0  0  0  0
 17 35  1  0  0  0  0
 18 19  1  0  0  0  0
 18 36  1  0  0  0  0
 18 37  1  0  0  0  0
 19 38  1  0  0  0  0
 19 39  1  0  0  0  0
 20 21  1  0  0  0  0
 20 40  1  0  0  0  0
 20 41  1  0  0  0  0
 21 42  1  0  0  0  0
 21 43  1  0  0  0  0
M  CHG  1  16   1
M  END
> <s_m_source_file>
AV-unprocessed.smi

> <i_m_source_file_index>
1263

> <i_lp_mmshare_version>
43012

> <i_f3d_flags>
0

> <s_epik_input>
W0NIM11PYzFuW2NIXVtjSF1bY0hdYzFbTkhdQyg9TylbTkhdW0NIXTJbQ0gyXVtDSDJdTihbQ0gyXVtDSDJdMilbQ0hdM1tDSDJdW0NIMl0z

> <s_epik_cmdline>
J2VwaWtfcHl0aG9uJywgJy1waCcsICc3LjAnLCAnLXRuJywgJzgnLCAnLW1hJywgJzIwMCcsICctbWV0YWxfYmluZGluZycsICctaW1hZScsICc8aW5maWxlLm1hZT4nLCAnLW9tYWUnLCAnPG91dGZpbGUubWFlPic=

> <r_lp_tautomer_probability>
1

> <r_epik_Ionization_Penalty>
0.115628

> <r_epik_Ionization_Penalty_Charging>
0.115549

> <r_epik_Ionization_Penalty_Neutral>
7.89431e-05

> <r_epik_State_Penalty>
0.105184

> <r_epik_Charging_Adjusted_Penalty>
0.220733

> <i_epik_Tot_Q>
1

> <i_epik_Tot_abs_Q>
1

> <r_epik_Metal_State_Penalty>
0.105186

> <b_epik_Metal_Only>
0

> <s_lp_Force_Field>
OPLS_2005

> <r_lp_Energy>
28.8205

> <b_lp_Chiralities_Consistent>
1

> <s_lp_Variant>
AV-unprocessed.smi:1263-1

> <Gold.Version>
5.8.1

> <Gold.Id.Protein>
6NUR|6NUR_protein|mol2

> <Gold.PLP.Fitness>
39.4858

> <Gold.PLP.PLP>
-33.5313

> <Gold.PLP.part.hbond>
-3.0000

> <Gold.PLP.part.metal>
0.0000

> <Gold.PLP.part.buried>
-4.8071

> <Gold.PLP.part.nonpolar>
-32.4863

> <Gold.PLP.part.repulsive>
5.6031

> <Gold.PLP.ligand.clash>
0.0000

> <Gold.PLP.ligand.torsion>
1.0517

> <Gold.PLP.Chemscore.Hbond>
2.0000

> <Gold.PLP.Chemscore.CHOScore>
0.2648

> <Gold.PLP.Chemscore.Metal>
0.0000

> <Gold.Chemscore.Hbonds>
donor molecule, donor type, donor heavy atom, donor atom, acceptor molecule, acceptor atom, score
      L1  H     9    28       P1 10175  1.00
      L1  H    12    29       P1 10175  1.00
      L1  C     5    25       P1  8028  0.24

> <Gold.PLP.Chemscore.Internal.Correction>
1.2634

> <Gold.Rescore>
     Score         DG    S(hbond)    S(metal)    S(lipo)     H(rot)  DE(clash)    DE(int)     intcor
     13.41     -17.65       1.95        0.00      79.77       1.43       1.05       3.20       ----

> <Gold.Chemscore.Fitness>
13.4063

> <Gold.Chemscore.DG>
-17.6512

> <Gold.Chemscore.ZeroCoef>
-5.4800

> <Gold.Chemscore.Hbond>
1.9470

> <Gold.Chemscore.Metal>
0.0000

> <Gold.Chemscore.Lipo>
79.7729

> <Gold.Chemscore.Internal_Hbond>
0.0000

> <Gold.Chemscore.DEClash>
1.0475

> <Gold.Chemscore.DEInternal>
3.1975

> <Gold.Chemscore.Rot>
1.4318

> <Gold.Chemscore.Internal.Correction>
   9.000000E+99

> <Gold.Chemscore.Hbonds>
donor molecule, donor type, donor heavy atom, donor atom, acceptor molecule, acceptor atom, score
      L1  H     9    28       P1 10175  0.99
      L1  H    12    29       P1 10175  0.98

> <Gold.Chemscore.Hbond.Weighted>
-6.5031

> <Gold.Chemscore.Metal.Weighted>
-0.0000

> <Gold.Chemscore.Lipo.Weighted>
-9.3334

> <Gold.Chemscore.Internal_Hbond.Weighted>
0.0000

> <Gold.Chemscore.DEClash.Weighted>
1.0475

> <Gold.Chemscore.DEInternal.Weighted>
3.1975

> <Gold.Chemscore.Rot.Weighted>
3.6653

> <Gold.Chemscore.Internal.Correction.Weighted>
   9.000000E+99

> <Gold.Protein.RotatedTorsions>
[ 6907 6896 6895 6894 ] final    9.66 input  -60.11 | X-H torsion
[ 7974 7965 7964 7962 ] final -169.78 input  175.53 | X-H torsion
[ 8008 7997 7996 7995 ] final   82.65 input   59.86 | X-H torsion
[ 10167 10162 10161 10158 ] final   49.54 input  -65.29 | X-H torsion
[ 10718 10713 10712 10709 ] final  -13.02 input   66.30 | X-H torsion
[ 10763 10752 10751 10750 ] final  168.73 input  -60.55 | X-H torsion
[ 11005 11000 10999 10996 ] final -136.79 input  -57.11 | X-H torsion

> <Gold.Protein.ActiveResidues>
 VAL166  LYS551  ARG553  GLY616  TRP617  ASP618  TYR619  PRO620  LYS621  CYS622 
 ASP623  PHE694  ASN695  SER759  ASP760  ASP761  ALA762  ILE779  LEU786  VAL792 
 PHE793  MET794  SER795  GLU796  ALA797  LYS798  CYS799  TRP800  GLU811  SER814 

> <Gold.Protein.RotatedAtoms>
  151.7258  135.0885  160.0291 H   0  0  0  0  0  0  0  0  0  0  0  0  # atno 6907 bound_to 6896
  152.3573  133.6249  159.5997 H   0  0  0  0  0  0  0  0  0  0  0  0  # atno 6908 bound_to 6896
  150.7580  133.9396  159.3493 H   0  0  0  0  0  0  0  0  0  0  0  0  # atno 6909 bound_to 6896
  144.7180  140.2170  143.6320 H   0  0  0  0  0  0  0  0  0  0  0  0  # atno 7974 bound_to 7965
  155.9134  140.3426  155.6116 H   0  0  0  0  0  0  0  0  0  0  0  0  # atno 8008 bound_to 7997
  155.7360  140.0801  157.2286 H   0  0  0  0  0  0  0  0  0  0  0  0  # atno 8009 bound_to 7997
  154.4059  140.1579  156.2550 H   0  0  0  0  0  0  0  0  0  0  0  0  # atno 8010 bound_to 7997
  140.2818  144.3148  150.6262 H   0  0  0  0  0  0  0  0  0  0  0  0  # atno 10167 bound_to 10162
  156.6363  130.4915  149.6111 H   0  0  0  0  0  0  0  0  0  0  0  0  # atno 10718 bound_to 10713
  154.3729  135.2753  155.2256 H   0  0  0  0  0  0  0  0  0  0  0  0  # atno 10763 bound_to 10752
  154.4396  135.5957  153.6124 H   0  0  0  0  0  0  0  0  0  0  0  0  # atno 10764 bound_to 10752
  152.9837  135.6015  154.3962 H   0  0  0  0  0  0  0  0  0  0  0  0  # atno 10765 bound_to 10752
  140.8772  134.1977  157.4614 H   0  0  0  0  0  0  0  0  0  0  0  0  # atno 11005 bound_to 11000
  145.8537  139.2188  143.1757 LP  0  0  0  0  0  0  0  0  0  0  0  0  # atno 17320 bound_to 7965
  146.0237  140.8324  142.9910 LP  0  0  0  0  0  0  0  0  0  0  0  0  # atno 17321 bound_to 7965
  140.5805  143.2173  151.7436 LP  0  0  0  0  0  0  0  0  0  0  0  0  # atno 17342 bound_to 10162
  139.4960  144.4086  152.0104 LP  0  0  0  0  0  0  0  0  0  0  0  0  # atno 17343 bound_to 10162
  156.2194  130.6728  151.1353 LP  0  0  0  0  0  0  0  0  0  0  0  0  # atno 17370 bound_to 10713
  157.7185  131.0696  150.6233 LP  0  0  0  0  0  0  0  0  0  0  0  0  # atno 17371 bound_to 10713
  139.8716  134.9801  156.5062 LP  0  0  0  0  0  0  0  0  0  0  0  0  # atno 17394 bound_to 11000
  140.8504  133.8136  155.9163 LP  0  0  0  0  0  0  0  0  0  0  0  0  # atno 17395 bound_to 11000

$$$$
