AV-unprocessed.smi:285|AV-procd|sdf|2172|dock8
  -GOLD-   2262021533D 1   1.00000     0.00000
 Structure written by MMmdl.
 31 33  0  0  0  0  0  0  0  0  1 V2000
  153.0764  142.7365  161.2155 N   0  0  0  0  0  0  0  0  0  0  0  0
  152.6485  143.0405  159.9819 C   0  0  0  0  0  0  0  0  0  0  0  0
  152.9442  144.2632  159.4821 N   0  0  0  0  0  0  0  0  0  0  0  0
  152.5271  144.5927  158.2553 C   0  0  0  0  0  0  0  0  0  0  0  0
  151.8195  143.8631  157.3888 N   0  0  0  0  0  0  0  0  0  0  0  0
  151.5234  142.6282  157.8917 C   0  0  0  0  0  0  0  0  0  0  0  0
  151.9006  142.1429  159.1785 C   0  0  0  0  0  0  0  0  0  0  0  0
  151.4281  140.8492  159.3610 N   0  0  0  0  0  0  0  0  0  0  0  0
  150.8120  140.6074  158.2376 C   0  0  0  0  0  0  0  0  0  0  0  0
  149.9438  138.9352  157.9573 Br  0  0  0  0  0  0  0  0  0  0  0  0
  150.8121  141.6078  157.2914 N   0  0  0  0  0  0  0  0  0  0  0  0
  150.1963  141.6154  155.9282 C   0  0  1  0  0  0  0  0  0  0  0  0
  150.4692  140.3026  155.1960 C   0  0  0  0  0  0  0  0  0  0  0  0
  149.2142  140.1632  154.3612 C   0  0  2  0  0  0  0  0  0  0  0  0
  149.3284  140.9026  153.1581 O   0  0  0  0  0  0  0  0  0  0  0  0
  148.1416  140.7335  155.3044 C   0  0  2  0  0  0  0  0  0  0  0  0
  146.8853  141.2949  154.6144 C   0  0  0  0  0  0  0  0  0  0  0  0
  146.3762  140.3597  153.6876 O   0  0  0  0  0  0  0  0  0  0  0  0
  148.8125  141.7461  156.0561 O   0  0  0  0  0  0  0  0  0  0  0  0
  152.8677  141.8311  161.6115 H   0  0  0  0  0  0  0  0  0  0  0  0
  153.6066  143.4126  161.7459 H   0  0  0  0  0  0  0  0  0  0  0  0
  152.7980  145.5828  157.9195 H   0  0  0  0  0  0  0  0  0  0  0  0
  150.5988  142.4884  155.4151 H   0  0  0  0  0  0  0  0  0  0  0  0
  151.3955  140.3487  154.6220 H   0  0  0  0  0  0  0  0  0  0  0  0
  150.5351  139.4821  155.9118 H   0  0  0  0  0  0  0  0  0  0  0  0
  149.0131  139.1226  154.1051 H   0  0  0  0  0  0  0  0  0  0  0  0
  149.3543  140.2968  152.4333 H   0  0  0  0  0  0  0  0  0  0  0  0
  147.8597  139.9396  155.9985 H   0  0  0  0  0  0  0  0  0  0  0  0
  146.1188  141.5633  155.3423 H   0  0  0  0  0  0  0  0  0  0  0  0
  147.1349  142.1977  154.0561 H   0  0  0  0  0  0  0  0  0  0  0  0
  145.5597  140.6895  153.3445 H   0  0  0  0  0  0  0  0  0  0  0  0
  1  2  1  0  0  0  0
  1 20  1  0  0  0  0
  1 21  1  0  0  0  0
  2  7  1  0  0  0  0
  2  3  2  0  0  0  0
  3  4  1  0  0  0  0
  4  5  2  0  0  0  0
  4 22  1  0  0  0  0
  5  6  1  0  0  0  0
  6 11  1  0  0  0  0
  6  7  2  0  0  0  0
  7  8  1  0  0  0  0
  8  9  2  0  0  0  0
  9 10  1  0  0  0  0
  9 11  1  0  0  0  0
 11 12  1  0  0  0  0
 12 19  1  0  0  0  0
 12 13  1  0  0  0  0
 12 23  1  0  0  0  0
 13 14  1  0  0  0  0
 13 24  1  0  0  0  0
 13 25  1  0  0  0  0
 14 15  1  0  0  0  0
 14 16  1  0  0  0  0
 14 26  1  0  0  0  0
 15 27  1  0  0  0  0
 16 17  1  0  0  0  0
 16 19  1  0  0  0  0
 16 28  1  0  0  0  0
 17 18  1  0  0  0  0
 17 29  1  0  0  0  0
 17 30  1  0  0  0  0
 18 31  1  0  0  0  0
M  END
> <s_m_source_file>
AV-unprocessed.smi

> <i_m_source_file_index>
285

> <i_lp_mmshare_version>
43012

> <i_f3d_flags>
0

> <s_epik_input>
bjFbY0hdbmMoW05IMl0pYyhjMTIpbmMoQnIpbjJbQ0BASF0zW0NIMl1bQ0BASF0oW09IXSlbQ0BIXShPMylbQ0gyXVtPSF0=

> <s_epik_cmdline>
J2VwaWtfcHl0aG9uJywgJy1waCcsICc3LjAnLCAnLXRuJywgJzgnLCAnLW1hJywgJzIwMCcsICctbWV0YWxfYmluZGluZycsICctaW1hZScsICc8aW5maWxlLm1hZT4nLCAnLW9tYWUnLCAnPG91dGZpbGUubWFlPic=

> <r_lp_tautomer_probability>
1

> <r_epik_Ionization_Penalty>
0.000103242

> <r_epik_Ionization_Penalty_Charging>
0

> <r_epik_Ionization_Penalty_Neutral>
0.000103242

> <r_epik_State_Penalty>
-0

> <r_epik_Charging_Adjusted_Penalty>
0

> <i_epik_Tot_Q>
0

> <i_epik_Tot_abs_Q>
0

> <r_epik_Metal_State_Penalty>
-0

> <b_epik_Metal_Only>
0

> <s_epik_Chemistry_Notes>
This compound contains an acetal/aminal-like group ( X-CH(R)-Y where X, Y are N, S, or O) that may be acid/base labile, releasing an aldehyde.

> <s_lp_Force_Field>
OPLS_2005

> <r_lp_Energy>
37.1806

> <b_lp_Chiralities_Consistent>
1

> <s_lp_Variant>
AV-unprocessed.smi:285-8

> <Gold.Version>
5.8.1

> <Gold.Id.Protein>
6NUR|6NUR_protein|mol2

> <Gold.PLP.Fitness>
40.8108

> <Gold.PLP.PLP>
-34.1185

> <Gold.PLP.part.hbond>
-3.2195

> <Gold.PLP.part.metal>
0.0000

> <Gold.PLP.part.buried>
-5.2658

> <Gold.PLP.part.nonpolar>
-26.2928

> <Gold.PLP.part.repulsive>
0.7440

> <Gold.PLP.ligand.clash>
0.0000

> <Gold.PLP.ligand.torsion>
0.4343

> <Gold.PLP.Chemscore.Hbond>
2.5192

> <Gold.PLP.Chemscore.CHOScore>
0.0000

> <Gold.PLP.Chemscore.Metal>
0.0000

> <Gold.Chemscore.Hbonds>
donor molecule, donor type, donor heavy atom, donor atom, acceptor molecule, acceptor atom, score
      L1  H    15    27       P1  7957  0.47
      L1  H    18    31       P1 10175  0.89
      P1  H  7989  7998       L1    15  0.02
      P1  H  8011  8017       L1    15  1.00

> <Gold.PLP.Chemscore.Internal.Correction>
0.0032

> <Gold.Rescore>
     Score         DG    S(hbond)    S(metal)    S(lipo)     H(rot)  DE(clash)    DE(int)     intcor
      7.79      -7.99       1.99        0.00      31.67       3.06       0.09       0.12       ----

> <Gold.Chemscore.Fitness>
7.7868

> <Gold.Chemscore.DG>
-7.9949

> <Gold.Chemscore.ZeroCoef>
-5.4800

> <Gold.Chemscore.Hbond>
1.9894

> <Gold.Chemscore.Metal>
0.0000

> <Gold.Chemscore.Lipo>
31.6737

> <Gold.Chemscore.Internal_Hbond>
0.0000

> <Gold.Chemscore.DEClash>
0.0901

> <Gold.Chemscore.DEInternal>
0.1180

> <Gold.Chemscore.Rot>
3.0607

> <Gold.Chemscore.Internal.Correction>
   9.000000E+99

> <Gold.Chemscore.Hbonds>
donor molecule, donor type, donor heavy atom, donor atom, acceptor molecule, acceptor atom, score
      L1  H    15    27       P1  7957  0.45
      L1  H    18    31       P1 10175  0.73
      P1  H  8011  8017       L1    15  0.26

> <Gold.Chemscore.Hbond.Weighted>
-6.6445

> <Gold.Chemscore.Metal.Weighted>
-0.0000

> <Gold.Chemscore.Lipo.Weighted>
-3.7058

> <Gold.Chemscore.Internal_Hbond.Weighted>
0.0000

> <Gold.Chemscore.DEClash.Weighted>
0.0901

> <Gold.Chemscore.DEInternal.Weighted>
0.1180

> <Gold.Chemscore.Rot.Weighted>
7.8354

> <Gold.Chemscore.Internal.Correction.Weighted>
   9.000000E+99

> <Gold.Protein.RotatedTorsions>
[ 6907 6896 6895 6894 ] final  167.98 input  -60.11 | X-H torsion
[ 7974 7965 7964 7962 ] final    5.01 input  175.53 | X-H torsion
[ 8008 7997 7996 7995 ] final  -41.63 input   59.86 | X-H torsion
[ 10167 10162 10161 10158 ] final -123.24 input  -65.29 | X-H torsion
[ 10718 10713 10712 10709 ] final   38.65 input   66.30 | X-H torsion
[ 10763 10752 10751 10750 ] final   27.67 input  -60.55 | X-H torsion
[ 11005 11000 10999 10996 ] final    4.62 input  -57.11 | X-H torsion

> <Gold.Protein.ActiveResidues>
 VAL166  LYS551  ARG553  GLY616  TRP617  ASP618  TYR619  PRO620  LYS621  CYS622 
 ASP623  PHE694  ASN695  SER759  ASP760  ASP761  ALA762  ILE779  LEU786  VAL792 
 PHE793  MET794  SER795  GLU796  ALA797  LYS798  CYS799  TRP800  GLU811  SER814 

> <Gold.Protein.RotatedAtoms>
  151.8548  133.3446  159.3684 H   0  0  0  0  0  0  0  0  0  0  0  0  # atno 6907 bound_to 6896
  150.7196  134.5264  159.5688 H   0  0  0  0  0  0  0  0  0  0  0  0  # atno 6908 bound_to 6896
  152.2765  134.7876  160.0455 H   0  0  0  0  0  0  0  0  0  0  0  0  # atno 6909 bound_to 6896
  146.2442  140.0448  142.8379 H   0  0  0  0  0  0  0  0  0  0  0  0  # atno 7974 bound_to 7965
  154.4003  140.1494  156.3222 H   0  0  0  0  0  0  0  0  0  0  0  0  # atno 8008 bound_to 7997
  155.8519  140.3457  155.5677 H   0  0  0  0  0  0  0  0  0  0  0  0  # atno 8009 bound_to 7997
  155.7975  140.0865  157.1966 H   0  0  0  0  0  0  0  0  0  0  0  0  # atno 8010 bound_to 7997
  140.0056  143.5495  152.2285 H   0  0  0  0  0  0  0  0  0  0  0  0  # atno 10167 bound_to 10162
  157.3614  130.7651  149.7050 H   0  0  0  0  0  0  0  0  0  0  0  0  # atno 10718 bound_to 10713
  153.0541  135.6531  154.0621 H   0  0  0  0  0  0  0  0  0  0  0  0  # atno 10763 bound_to 10752
  154.0303  135.2912  155.3371 H   0  0  0  0  0  0  0  0  0  0  0  0  # atno 10764 bound_to 10752
  154.6846  135.5306  153.8376 H   0  0  0  0  0  0  0  0  0  0  0  0  # atno 10765 bound_to 10752
  140.5798  134.0023  155.8043 H   0  0  0  0  0  0  0  0  0  0  0  0  # atno 11005 bound_to 11000
  145.1037  140.9362  143.4698 LP  0  0  0  0  0  0  0  0  0  0  0  0  # atno 17320 bound_to 7965
  145.0647  139.3078  143.5862 LP  0  0  0  0  0  0  0  0  0  0  0  0  # atno 17321 bound_to 7965
  139.6241  144.7634  151.2677 LP  0  0  0  0  0  0  0  0  0  0  0  0  # atno 17342 bound_to 10162
  140.7401  143.6596  150.8176 LP  0  0  0  0  0  0  0  0  0  0  0  0  # atno 17343 bound_to 10162
  155.9738  130.4113  150.3973 LP  0  0  0  0  0  0  0  0  0  0  0  0  # atno 17370 bound_to 10713
  157.2051  131.0447  151.2630 LP  0  0  0  0  0  0  0  0  0  0  0  0  # atno 17371 bound_to 10713
  141.1003  133.9778  157.3090 LP  0  0  0  0  0  0  0  0  0  0  0  0  # atno 17394 bound_to 11000
  139.9322  135.0199  156.8439 LP  0  0  0  0  0  0  0  0  0  0  0  0  # atno 17395 bound_to 11000

$$$$
