AV-unprocessed.smi:2619|AV-procd|sdf|10222|dock1
  -GOLD-   2272014223D 1   1.00000     0.00000
 Structure written by MMmdl.
 25 26  0  0  0  0  0  0  0  0  1 V2000
  148.9535  139.6842  153.6756 O   0  0  0  0  0  0  0  0  0  0  0  0
  148.7663  140.4968  154.8157 C   0  0  0  0  0  0  0  0  0  0  0  0
  149.9011  141.5252  154.9549 C   0  0  0  0  0  0  0  0  0  0  0  0
  150.9312  141.1112  155.9005 N   0  0  0  0  0  0  0  0  0  0  0  0
  151.7367  140.0183  155.8558 C   0  0  0  0  0  0  0  0  0  0  0  0
  151.6999  139.0220  154.7370 C   0  0  0  0  0  0  0  0  0  0  0  0
  151.3575  137.3901  155.3658 Cl  0  0  0  0  0  0  0  0  0  0  0  0
  152.5959  139.8904  156.8677 N   0  0  0  0  0  0  0  0  0  0  0  0
  152.3245  141.0006  157.6419 C   0  0  0  0  0  0  0  0  0  0  0  0
  152.9023  141.4363  158.8558 C   0  0  0  0  0  0  0  0  0  0  0  0
  152.4572  142.6241  159.4719 C   0  0  0  0  0  0  0  0  0  0  0  0
  151.4306  143.3916  158.8843 C   0  0  0  0  0  0  0  0  0  0  0  0
  150.8958  144.8442  159.6461 Cl  0  0  0  0  0  0  0  0  0  0  0  0
  150.8411  142.9741  157.6755 C   0  0  0  0  0  0  0  0  0  0  0  0
  151.2881  141.7870  157.0645 C   0  0  0  0  0  0  0  0  0  0  0  0
  149.3383  140.2097  152.9911 H   0  0  0  0  0  0  0  0  0  0  0  0
  147.8072  141.0076  154.7283 H   0  0  0  0  0  0  0  0  0  0  0  0
  148.7079  139.8604  155.6976 H   0  0  0  0  0  0  0  0  0  0  0  0
  150.3689  141.6886  153.9835 H   0  0  0  0  0  0  0  0  0  0  0  0
  149.5041  142.4945  155.2534 H   0  0  0  0  0  0  0  0  0  0  0  0
  150.9076  139.2813  154.0344 H   0  0  0  0  0  0  0  0  0  0  0  0
  152.6371  138.9897  154.1844 H   0  0  0  0  0  0  0  0  0  0  0  0
  153.6903  140.8564  159.3131 H   0  0  0  0  0  0  0  0  0  0  0  0
  152.9076  142.9471  160.3992 H   0  0  0  0  0  0  0  0  0  0  0  0
  150.0575  143.5614  157.2204 H   0  0  0  0  0  0  0  0  0  0  0  0
  1  2  1  0  0  0  0
  1 16  1  0  0  0  0
  2  3  1  0  0  0  0
  2 17  1  0  0  0  0
  2 18  1  0  0  0  0
  3  4  1  0  0  0  0
  3 19  1  0  0  0  0
  3 20  1  0  0  0  0
  4 15  1  0  0  0  0
  4  5  1  0  0  0  0
  5  6  1  0  0  0  0
  5  8  2  0  0  0  0
  6  7  1  0  0  0  0
  6 21  1  0  0  0  0
  6 22  1  0  0  0  0
  8  9  1  0  0  0  0
  9 15  2  0  0  0  0
  9 10  1  0  0  0  0
 10 11  2  0  0  0  0
 10 23  1  0  0  0  0
 11 12  1  0  0  0  0
 11 24  1  0  0  0  0
 12 13  1  0  0  0  0
 12 14  2  0  0  0  0
 14 15  1  0  0  0  0
 14 25  1  0  0  0  0
M  END
> <s_m_source_file>
AV-unprocessed.smi

> <i_m_source_file_index>
2619

> <i_lp_mmshare_version>
43012

> <i_f3d_flags>
0

> <s_epik_input>
W09IXVtDSDJdW0NIMl1uKGMobjEpW0NIMl1DbCljKGMxMilbY0hdYyhDbClbY0hdW2NIXTI=

> <s_epik_cmdline>
J2VwaWtfcHl0aG9uJywgJy1waCcsICc3LjAnLCAnLXRuJywgJzgnLCAnLW1hJywgJzIwMCcsICctbWV0YWxfYmluZGluZycsICctaW1hZScsICc8aW5maWxlLm1hZT4nLCAnLW9tYWUnLCAnPG91dGZpbGUubWFlPic=

> <r_epik_Ionization_Penalty>
0.00756278

> <r_epik_Ionization_Penalty_Charging>
0

> <r_epik_Ionization_Penalty_Neutral>
0.00756278

> <r_epik_State_Penalty>
0.00565607

> <r_epik_Charging_Adjusted_Penalty>
0.00565607

> <i_epik_Tot_Q>
0

> <i_epik_Tot_abs_Q>
0

> <r_epik_Metal_State_Penalty>
-0

> <b_epik_Metal_Only>
0

> <s_lp_Force_Field>
OPLS_2005

> <r_lp_Energy>
6.1257

> <b_lp_Chiralities_Consistent>
1

> <s_lp_Variant>
AV-unprocessed.smi:2619-1

> <Gold.Version>
5.8.1

> <Gold.Id.Protein>
6NUR|6NUR_protein|mol2

> <Gold.PLP.Fitness>
38.7310

> <Gold.PLP.PLP>
-33.7761

> <Gold.PLP.part.hbond>
-2.0000

> <Gold.PLP.part.metal>
0.0000

> <Gold.PLP.part.buried>
-3.8906

> <Gold.PLP.part.nonpolar>
-27.5125

> <Gold.PLP.part.repulsive>
0.0000

> <Gold.PLP.ligand.clash>
0.0000

> <Gold.PLP.ligand.torsion>
0.2718

> <Gold.PLP.Chemscore.Hbond>
1.8320

> <Gold.PLP.Chemscore.CHOScore>
0.0000

> <Gold.PLP.Chemscore.Metal>
0.0000

> <Gold.Chemscore.Hbonds>
donor molecule, donor type, donor heavy atom, donor atom, acceptor molecule, acceptor atom, score
      L1  H     1    16       P1  7957  0.74
      P1  H  7997  8009       L1     8  1.00

> <Gold.PLP.Chemscore.Internal.Correction>
0.0024

> <Gold.Rescore>
     Score         DG    S(hbond)    S(metal)    S(lipo)     H(rot)  DE(clash)    DE(int)     intcor
     14.54     -15.30       1.17        0.00      91.51       1.88       0.42       0.34       ----

> <Gold.Chemscore.Fitness>
14.5400

> <Gold.Chemscore.DG>
-15.2979

> <Gold.Chemscore.ZeroCoef>
-5.4800

> <Gold.Chemscore.Hbond>
1.1744

> <Gold.Chemscore.Metal>
0.0000

> <Gold.Chemscore.Lipo>
91.5088

> <Gold.Chemscore.Internal_Hbond>
0.0000

> <Gold.Chemscore.DEClash>
0.4206

> <Gold.Chemscore.DEInternal>
0.3374

> <Gold.Chemscore.Rot>
1.8794

> <Gold.Chemscore.Internal.Correction>
   9.000000E+99

> <Gold.Chemscore.Hbonds>
donor molecule, donor type, donor heavy atom, donor atom, acceptor molecule, acceptor atom, score
      L1  H     1    16       P1  7957  0.72
      P1  H  7997  8009       L1     8  0.34

> <Gold.Chemscore.Hbond.Weighted>
-3.9226

> <Gold.Chemscore.Metal.Weighted>
-0.0000

> <Gold.Chemscore.Lipo.Weighted>
-10.7065

> <Gold.Chemscore.Internal_Hbond.Weighted>
0.0000

> <Gold.Chemscore.DEClash.Weighted>
0.4206

> <Gold.Chemscore.DEInternal.Weighted>
0.3374

> <Gold.Chemscore.Rot.Weighted>
4.8112

> <Gold.Chemscore.Internal.Correction.Weighted>
   9.000000E+99

> <Gold.Protein.RotatedTorsions>
[ 6907 6896 6895 6894 ] final  -51.67 input  -60.11 | X-H torsion
[ 7974 7965 7964 7962 ] final  107.59 input  175.53 | X-H torsion
[ 8008 7997 7996 7995 ] final -158.38 input   59.86 | X-H torsion
[ 10167 10162 10161 10158 ] final  -86.42 input  -65.29 | X-H torsion
[ 10718 10713 10712 10709 ] final  101.84 input   66.30 | X-H torsion
[ 10763 10752 10751 10750 ] final  150.19 input  -60.55 | X-H torsion
[ 11005 11000 10999 10996 ] final  122.27 input  -57.11 | X-H torsion

> <Gold.Protein.ActiveResidues>
 VAL166  LYS551  ARG553  GLY616  TRP617  ASP618  TYR619  PRO620  LYS621  CYS622 
 ASP623  PHE694  ASN695  SER759  ASP760  ASP761  ALA762  ILE779  LEU786  VAL792 
 PHE793  MET794  SER795  GLU796  ALA797  LYS798  CYS799  TRP800  GLU811  SER814 

> <Gold.Protein.RotatedAtoms>
  150.8589  134.7935  159.7066 H   0  0  0  0  0  0  0  0  0  0  0  0  # atno 6907 bound_to 6896
  152.4632  134.5133  159.9770 H   0  0  0  0  0  0  0  0  0  0  0  0  # atno 6908 bound_to 6896
  151.5240  133.3423  159.2942 H   0  0  0  0  0  0  0  0  0  0  0  0  # atno 6909 bound_to 6896
  145.2917  139.2598  143.3861 H   0  0  0  0  0  0  0  0  0  0  0  0  # atno 7974 bound_to 7965
  155.7467  140.0821  157.2220 H   0  0  0  0  0  0  0  0  0  0  0  0  # atno 8008 bound_to 7997
  154.4016  140.1568  156.2733 H   0  0  0  0  0  0  0  0  0  0  0  0  # atno 8009 bound_to 7997
  155.8969  140.3412  155.6000 H   0  0  0  0  0  0  0  0  0  0  0  0  # atno 8010 bound_to 7997
  140.3943  143.2691  151.9225 H   0  0  0  0  0  0  0  0  0  0  0  0  # atno 10167 bound_to 10162
  157.6819  131.0737  150.5313 H   0  0  0  0  0  0  0  0  0  0  0  0  # atno 10718 bound_to 10713
  154.0834  135.2858  155.3286 H   0  0  0  0  0  0  0  0  0  0  0  0  # atno 10763 bound_to 10752
  154.6668  135.5314  153.8091 H   0  0  0  0  0  0  0  0  0  0  0  0  # atno 10764 bound_to 10752
  153.0440  135.6547  154.1008 H   0  0  0  0  0  0  0  0  0  0  0  0  # atno 10765 bound_to 10752
  139.9261  134.9641  156.8084 H   0  0  0  0  0  0  0  0  0  0  0  0  # atno 11005 bound_to 11000
  146.3182  140.3409  142.8648 LP  0  0  0  0  0  0  0  0  0  0  0  0  # atno 17320 bound_to 7965
  144.9167  140.7821  143.5773 LP  0  0  0  0  0  0  0  0  0  0  0  0  # atno 17321 bound_to 7965
  139.4787  144.5697  151.8108 LP  0  0  0  0  0  0  0  0  0  0  0  0  # atno 17342 bound_to 10162
  140.4807  144.1453  150.5932 LP  0  0  0  0  0  0  0  0  0  0  0  0  # atno 17343 bound_to 10162
  156.5623  130.4258  149.6057 LP  0  0  0  0  0  0  0  0  0  0  0  0  # atno 17370 bound_to 10713
  156.2811  130.7071  151.1895 LP  0  0  0  0  0  0  0  0  0  0  0  0  # atno 17371 bound_to 10713
  140.6332  133.9886  155.7672 LP  0  0  0  0  0  0  0  0  0  0  0  0  # atno 17394 bound_to 11000
  141.0819  134.0049  157.3372 LP  0  0  0  0  0  0  0  0  0  0  0  0  # atno 17395 bound_to 11000

$$$$
