AV-unprocessed.smi:3280|AV-procd|sdf|12552|dock9
  -GOLD-   2272018473D 1   1.00000     0.00000
 Structure written by MMmdl.
 39 40  0  0  0  0  0  0  0  0  2 V2000
  153.8666  131.3641  157.0506 C   0  0  0  0  0  0  0  0  0  0  0  0
  152.4271  130.9197  156.7503 C   0  0  0  0  0  0  0  0  0  0  0  0
  152.3390  129.9223  155.5857 C   0  0  0  0  0  0  0  0  0  0  0  0
  151.5139  132.0898  156.5460 C   0  0  0  0  0  0  0  0  0  0  0  0
  151.3759  133.0263  157.4780 N   0  0  0  0  0  0  0  0  0  0  0  0
  150.4375  133.9058  156.9205 O   0  0  0  0  0  0  0  0  0  0  0  0
  150.1332  133.3970  155.7032 C   0  0  0  0  0  0  0  0  0  0  0  0
  149.1081  134.0893  154.8692 C   0  0  0  0  0  0  0  0  0  0  0  0
  148.7918  133.3218  153.5793 C   0  0  0  0  0  0  0  0  0  0  0  0
  147.6350  133.9187  152.8781 N   0  3  0  0  0  0  0  0  0  0  0  0
  146.9473  133.0330  151.9113 C   0  0  2  0  0  0  0  0  0  0  0  0
  145.7773  133.8023  151.2660 C   0  0  0  0  0  0  0  0  0  0  0  0
  145.0537  132.9944  150.1764 C   0  0  0  0  0  0  0  0  0  0  0  0
  144.4341  131.7008  150.7209 C   0  0  0  0  0  0  0  0  0  0  0  0
  145.7094  130.5987  151.3859 S   0  0  0  0  0  0  0  0  0  0  0  0
  146.4563  131.7347  152.5864 C   0  0  0  0  0  0  0  0  0  0  0  0
  150.7558  132.2554  155.4251 N   0  0  0  0  0  0  0  0  0  0  0  0
  153.9024  132.0161  157.9240 H   0  0  0  0  0  0  0  0  0  0  0  0
  154.2982  131.9085  156.2100 H   0  0  0  0  0  0  0  0  0  0  0  0
  154.5071  130.5054  157.2530 H   0  0  0  0  0  0  0  0  0  0  0  0
  152.0798  130.3882  157.6381 H   0  0  0  0  0  0  0  0  0  0  0  0
  151.3160  129.5707  155.4476 H   0  0  0  0  0  0  0  0  0  0  0  0
  152.9660  129.0494  155.7688 H   0  0  0  0  0  0  0  0  0  0  0  0
  152.6661  130.3749  154.6492 H   0  0  0  0  0  0  0  0  0  0  0  0
  148.2031  134.2143  155.4653 H   0  0  0  0  0  0  0  0  0  0  0  0
  149.4704  135.0909  154.6336 H   0  0  0  0  0  0  0  0  0  0  0  0
  149.6620  133.3365  152.9215 H   0  0  0  0  0  0  0  0  0  0  0  0
  148.5827  132.2789  153.8173 H   0  0  0  0  0  0  0  0  0  0  0  0
  146.9642  134.2454  153.5590 H   0  0  0  0  0  0  0  0  0  0  0  0
  147.6602  132.7792  151.1252 H   0  0  0  0  0  0  0  0  0  0  0  0
  145.0606  134.1001  152.0328 H   0  0  0  0  0  0  0  0  0  0  0  0
  146.1506  134.7270  150.8242 H   0  0  0  0  0  0  0  0  0  0  0  0
  144.2682  133.6094  149.7362 H   0  0  0  0  0  0  0  0  0  0  0  0
  145.7460  132.7595  149.3670 H   0  0  0  0  0  0  0  0  0  0  0  0
  143.7104  131.9241  151.5056 H   0  0  0  0  0  0  0  0  0  0  0  0
  143.8969  131.1766  149.9301 H   0  0  0  0  0  0  0  0  0  0  0  0
  147.2774  131.2021  153.0648 H   0  0  0  0  0  0  0  0  0  0  0  0
  145.7252  131.9583  153.3642 H   0  0  0  0  0  0  0  0  0  0  0  0
  147.9793  134.7158  152.3618 H   0  0  0  0  0  0  0  0  0  0  0  0
  1  2  1  0  0  0  0
  1 18  1  0  0  0  0
  1 19  1  0  0  0  0
  1 20  1  0  0  0  0
  2  3  1  0  0  0  0
  2  4  1  0  0  0  0
  2 21  1  0  0  0  0
  3 22  1  0  0  0  0
  3 23  1  0  0  0  0
  3 24  1  0  0  0  0
  4 17  1  0  0  0  0
  4  5  2  0  0  0  0
  5  6  1  0  0  0  0
  6  7  1  0  0  0  0
  7  8  1  0  0  0  0
  7 17  2  0  0  0  0
  8  9  1  0  0  0  0
  8 25  1  0  0  0  0
  8 26  1  0  0  0  0
  9 10  1  0  0  0  0
  9 27  1  0  0  0  0
  9 28  1  0  0  0  0
 10 11  1  0  0  0  0
 10 29  1  0  0  0  0
 10 39  1  0  0  0  0
 11 16  1  0  0  0  0
 11 12  1  0  0  0  0
 11 30  1  0  0  0  0
 12 13  1  0  0  0  0
 12 31  1  0  0  0  0
 12 32  1  0  0  0  0
 13 14  1  0  0  0  0
 13 33  1  0  0  0  0
 13 34  1  0  0  0  0
 14 15  1  0  0  0  0
 14 35  1  0  0  0  0
 14 36  1  0  0  0  0
 15 16  1  0  0  0  0
 16 37  1  0  0  0  0
 16 38  1  0  0  0  0
M  CHG  1  10   1
M  END
> <s_m_source_file>
AV-unprocessed.smi

> <i_m_source_file_index>
3280

> <i_lp_mmshare_version>
43012

> <i_f3d_flags>
0

> <s_epik_input>
W0NIM11bQ0hdKFtDSDNdKWMxbm9jKG4xKVtDSDJdW0NIMl1bTkhdW0NAQEhdMltDSDJdW0NIMl1bQ0gyXVNbQ0gyXTI=

> <s_epik_cmdline>
J2VwaWtfcHl0aG9uJywgJy1waCcsICc3LjAnLCAnLXRuJywgJzgnLCAnLW1hJywgJzIwMCcsICctbWV0YWxfYmluZGluZycsICctaW1hZScsICc8aW5maWxlLm1hZT4nLCAnLW9tYWUnLCAnPG91dGZpbGUubWFlPic=

> <r_lp_tautomer_probability>
1

> <r_epik_Ionization_Penalty>
0.0103043

> <r_epik_Ionization_Penalty_Charging>
0.0103043

> <r_epik_Ionization_Penalty_Neutral>
2.61801e-13

> <r_epik_State_Penalty>
0.0078728

> <r_epik_Charging_Adjusted_Penalty>
0.0181771

> <i_epik_Tot_Q>
1

> <i_epik_Tot_abs_Q>
1

> <r_epik_Metal_State_Penalty>
0.0078728

> <b_epik_Metal_Only>
0

> <s_lp_Force_Field>
OPLS_2005

> <r_lp_Energy>
0.790669

> <b_lp_Chiralities_Consistent>
1

> <s_lp_Variant>
AV-unprocessed.smi:3280-1

> <Gold.Version>
5.8.1

> <Gold.Id.Protein>
6NUR|6NUR_protein|mol2

> <Gold.PLP.Fitness>
40.4170

> <Gold.PLP.PLP>
-32.0637

> <Gold.PLP.part.hbond>
-2.3702

> <Gold.PLP.part.metal>
0.0000

> <Gold.PLP.part.buried>
-4.1383

> <Gold.PLP.part.nonpolar>
-25.1212

> <Gold.PLP.part.repulsive>
0.0000

> <Gold.PLP.ligand.clash>
0.0000

> <Gold.PLP.ligand.torsion>
0.1616

> <Gold.PLP.Chemscore.Hbond>
2.8640

> <Gold.PLP.Chemscore.CHOScore>
0.0000

> <Gold.PLP.Chemscore.Metal>
0.0000

> <Gold.Chemscore.Hbonds>
donor molecule, donor type, donor heavy atom, donor atom, acceptor molecule, acceptor atom, score
      L1  H    10    39       P1  7948  2.00
      P1  H  6896  6907       L1     5  0.86

> <Gold.PLP.Chemscore.Internal.Correction>
0.0846

> <Gold.Rescore>
     Score         DG    S(hbond)    S(metal)    S(lipo)     H(rot)  DE(clash)    DE(int)     intcor
     14.60     -14.86       1.53        0.00      74.95       1.76       0.11       0.15       ----

> <Gold.Chemscore.Fitness>
14.5955

> <Gold.Chemscore.DG>
-14.8604

> <Gold.Chemscore.ZeroCoef>
-5.4800

> <Gold.Chemscore.Hbond>
1.5298

> <Gold.Chemscore.Metal>
0.0000

> <Gold.Chemscore.Lipo>
74.9503

> <Gold.Chemscore.Internal_Hbond>
0.0000

> <Gold.Chemscore.DEClash>
0.1116

> <Gold.Chemscore.DEInternal>
0.1532

> <Gold.Chemscore.Rot>
1.7572

> <Gold.Chemscore.Internal.Correction>
   9.000000E+99

> <Gold.Chemscore.Hbonds>
donor molecule, donor type, donor heavy atom, donor atom, acceptor molecule, acceptor atom, score
      L1  H    10    39       P1  7948  0.55
      P1  H  6896  6907       L1     5  0.55

> <Gold.Chemscore.Hbond.Weighted>
-5.1096

> <Gold.Chemscore.Metal.Weighted>
-0.0000

> <Gold.Chemscore.Lipo.Weighted>
-8.7692

> <Gold.Chemscore.Internal_Hbond.Weighted>
0.0000

> <Gold.Chemscore.DEClash.Weighted>
0.1116

> <Gold.Chemscore.DEInternal.Weighted>
0.1532

> <Gold.Chemscore.Rot.Weighted>
4.4984

> <Gold.Chemscore.Internal.Correction.Weighted>
   9.000000E+99

> <Gold.Protein.RotatedTorsions>
[ 6907 6896 6895 6894 ] final -167.33 input  -60.11 | X-H torsion
[ 7974 7965 7964 7962 ] final  -90.37 input  175.53 | X-H torsion
[ 8008 7997 7996 7995 ] final -100.48 input   59.86 | X-H torsion
[ 10167 10162 10161 10158 ] final -144.59 input  -65.29 | X-H torsion
[ 10718 10713 10712 10709 ] final   74.59 input   66.30 | X-H torsion
[ 10763 10752 10751 10750 ] final  -99.80 input  -60.55 | X-H torsion
[ 11005 11000 10999 10996 ] final -139.94 input  -57.11 | X-H torsion

> <Gold.Protein.ActiveResidues>
 VAL166  LYS551  ARG553  GLY616  TRP617  ASP618  TYR619  PRO620  LYS621  CYS622 
 ASP623  PHE694  ASN695  SER759  ASP760  ASP761  ALA762  ILE779  LEU786  VAL792 
 PHE793  MET794  SER795  GLU796  ALA797  LYS798  CYS799  TRP800  GLU811  SER814 

> <Gold.Protein.RotatedAtoms>
  151.4578  133.3600  159.2804 H   0  0  0  0  0  0  0  0  0  0  0  0  # atno 6907 bound_to 6896
  150.9046  134.8462  159.7394 H   0  0  0  0  0  0  0  0  0  0  0  0  # atno 6908 bound_to 6896
  152.4899  134.4502  159.9624 H   0  0  0  0  0  0  0  0  0  0  0  0  # atno 6909 bound_to 6896
  145.4274  140.9554  143.2147 H   0  0  0  0  0  0  0  0  0  0  0  0  # atno 7974 bound_to 7965
  154.8292  140.0440  157.1465 H   0  0  0  0  0  0  0  0  0  0  0  0  # atno 8008 bound_to 7997
  154.9172  140.3022  155.5215 H   0  0  0  0  0  0  0  0  0  0  0  0  # atno 8009 bound_to 7997
  156.2986  140.2347  156.4218 H   0  0  0  0  0  0  0  0  0  0  0  0  # atno 8010 bound_to 7997
  139.7885  143.8000  152.2647 H   0  0  0  0  0  0  0  0  0  0  0  0  # atno 10167 bound_to 10162
  157.6599  130.9685  150.1233 H   0  0  0  0  0  0  0  0  0  0  0  0  # atno 10718 bound_to 10713
  154.7528  135.4958  153.9320 H   0  0  0  0  0  0  0  0  0  0  0  0  # atno 10763 bound_to 10752
  153.1162  135.6721  153.9422 H   0  0  0  0  0  0  0  0  0  0  0  0  # atno 10764 bound_to 10752
  153.9167  135.3093  155.3427 H   0  0  0  0  0  0  0  0  0  0  0  0  # atno 10765 bound_to 10752
  140.8471  134.2332  157.4780 H   0  0  0  0  0  0  0  0  0  0  0  0  # atno 11005 bound_to 11000
  144.8205  139.5799  143.6989 LP  0  0  0  0  0  0  0  0  0  0  0  0  # atno 17320 bound_to 7965
  146.2625  139.6443  142.9352 LP  0  0  0  0  0  0  0  0  0  0  0  0  # atno 17321 bound_to 7965
  139.8084  144.7346  150.9731 LP  0  0  0  0  0  0  0  0  0  0  0  0  # atno 17342 bound_to 10162
  140.7820  143.4275  151.0745 LP  0  0  0  0  0  0  0  0  0  0  0  0  # atno 17343 bound_to 10162
  156.2099  130.3666  149.8684 LP  0  0  0  0  0  0  0  0  0  0  0  0  # atno 17370 bound_to 10713
  156.6565  130.8765  151.3540 LP  0  0  0  0  0  0  0  0  0  0  0  0  # atno 17371 bound_to 10713
  139.8703  134.9664  156.4563 LP  0  0  0  0  0  0  0  0  0  0  0  0  # atno 17394 bound_to 11000
  140.8832  133.7903  155.9489 LP  0  0  0  0  0  0  0  0  0  0  0  0  # atno 17395 bound_to 11000

$$$$
