AV-unprocessed.smi:1404|AV-procd|sdf|5705|dock9
  -GOLD-   22720 5333D 1   1.00000     0.00000
 Structure written by MMmdl.
 47 48  0  0  0  0  0  0  0  0  1 V2000
  145.3245  129.7907  151.7647 C   0  0  0  0  0  0  0  0  0  0  0  0
  145.7187  131.1773  151.6285 N   0  0  0  0  0  0  0  0  0  0  0  0
  145.0509  131.9975  150.6867 C   0  0  0  0  0  0  0  0  0  0  0  0
  144.1394  131.5821  149.9706 O   0  0  0  0  0  0  0  0  0  0  0  0
  145.5312  133.3733  150.6387 C   0  0  0  0  0  0  0  0  0  0  0  0
  146.5311  133.7890  151.4463 C   0  0  0  0  0  0  0  0  0  0  0  0
  147.1639  132.9669  152.3610 N   0  0  0  0  0  0  0  0  0  0  0  0
  148.2471  133.5015  153.1959 C   0  0  0  0  0  0  0  0  0  0  0  0
  147.7354  134.1876  154.4691 C   0  0  0  0  0  0  0  0  0  0  0  0
  147.0857  133.5585  155.3054 O   0  0  0  0  0  0  0  0  0  0  0  0
  148.0541  135.4809  154.6090 N   0  0  0  0  0  0  0  0  0  0  0  0
  147.6423  136.3208  155.7292 C   0  0  0  0  0  0  0  0  0  0  0  0
  147.5972  137.8281  155.3484 C   0  0  0  0  0  0  0  0  0  0  0  0
  146.9810  137.9213  153.9318 C   0  0  0  0  0  0  0  0  0  0  0  0
  146.6006  138.4957  156.3297 C   0  0  0  0  0  0  0  0  0  0  0  0
  148.9434  138.4606  155.4433 N   0  0  0  0  0  0  0  0  0  0  0  0
  150.0051  137.7700  154.7014 C   0  0  0  0  0  0  0  0  0  0  0  0
  151.3857  138.4038  154.9421 C   0  0  0  0  0  0  0  0  0  0  0  0
  151.3476  139.7823  154.5930 O   0  0  0  0  0  0  0  0  0  0  0  0
  150.3711  140.5025  155.3349 C   0  0  0  0  0  0  0  0  0  0  0  0
  148.9814  139.8865  155.0994 C   0  0  0  0  0  0  0  0  0  0  0  0
  146.7618  131.6187  152.4718 C   0  0  0  0  0  0  0  0  0  0  0  0
  147.3081  130.8620  153.2792 O   0  0  0  0  0  0  0  0  0  0  0  0
  144.5503  129.5241  151.0461 H   0  0  0  0  0  0  0  0  0  0  0  0
  144.9506  129.6617  152.7820 H   0  0  0  0  0  0  0  0  0  0  0  0
  146.2125  129.1814  151.5869 H   0  0  0  0  0  0  0  0  0  0  0  0
  145.0795  134.0682  149.9462 H   0  0  0  0  0  0  0  0  0  0  0  0
  146.8524  134.8175  151.3692 H   0  0  0  0  0  0  0  0  0  0  0  0
  148.9227  132.6980  153.4918 H   0  0  0  0  0  0  0  0  0  0  0  0
  148.8542  134.1989  152.6154 H   0  0  0  0  0  0  0  0  0  0  0  0
  148.5894  135.9258  153.8773 H   0  0  0  0  0  0  0  0  0  0  0  0
  146.6734  135.9875  156.1038 H   0  0  0  0  0  0  0  0  0  0  0  0
  148.3391  136.1556  156.5526 H   0  0  0  0  0  0  0  0  0  0  0  0
  145.9979  137.4497  153.9021 H   0  0  0  0  0  0  0  0  0  0  0  0
  147.5930  137.4176  153.1838 H   0  0  0  0  0  0  0  0  0  0  0  0
  146.8430  138.9526  153.6082 H   0  0  0  0  0  0  0  0  0  0  0  0
  145.6678  137.9346  156.3968 H   0  0  0  0  0  0  0  0  0  0  0  0
  146.3253  139.5032  156.0181 H   0  0  0  0  0  0  0  0  0  0  0  0
  147.0117  138.5635  157.3377 H   0  0  0  0  0  0  0  0  0  0  0  0
  150.0686  136.7240  154.9955 H   0  0  0  0  0  0  0  0  0  0  0  0
  149.7916  137.7870  153.6326 H   0  0  0  0  0  0  0  0  0  0  0  0
  151.6855  138.2923  155.9855 H   0  0  0  0  0  0  0  0  0  0  0  0
  152.1421  137.9042  154.3366 H   0  0  0  0  0  0  0  0  0  0  0  0
  150.6254  140.4882  156.3959 H   0  0  0  0  0  0  0  0  0  0  0  0
  150.3810  141.5452  155.0172 H   0  0  0  0  0  0  0  0  0  0  0  0
  148.7080  140.0298  154.0540 H   0  0  0  0  0  0  0  0  0  0  0  0
  148.2651  140.4496  155.6945 H   0  0  0  0  0  0  0  0  0  0  0  0
  1  2  1  0  0  0  0
  1 24  1  0  0  0  0
  1 25  1  0  0  0  0
  1 26  1  0  0  0  0
  2 22  1  0  0  0  0
  2  3  1  0  0  0  0
  3  4  2  0  0  0  0
  3  5  1  0  0  0  0
  5  6  2  0  0  0  0
  5 27  1  0  0  0  0
  6  7  1  0  0  0  0
  6 28  1  0  0  0  0
  7  8  1  0  0  0  0
  7 22  1  0  0  0  0
  8  9  1  0  0  0  0
  8 29  1  0  0  0  0
  8 30  1  0  0  0  0
  9 10  2  0  0  0  0
  9 11  1  0  0  0  0
 11 12  1  0  0  0  0
 11 31  1  0  0  0  0
 12 13  1  0  0  0  0
 12 32  1  0  0  0  0
 12 33  1  0  0  0  0
 13 14  1  0  0  0  0
 13 15  1  0  0  0  0
 13 16  1  0  0  0  0
 14 34  1  0  0  0  0
 14 35  1  0  0  0  0
 14 36  1  0  0  0  0
 15 37  1  0  0  0  0
 15 38  1  0  0  0  0
 15 39  1  0  0  0  0
 16 21  1  0  0  0  0
 16 17  1  0  0  0  0
 17 18  1  0  0  0  0
 17 40  1  0  0  0  0
 17 41  1  0  0  0  0
 18 19  1  0  0  0  0
 18 42  1  0  0  0  0
 18 43  1  0  0  0  0
 19 20  1  0  0  0  0
 20 21  1  0  0  0  0
 20 44  1  0  0  0  0
 20 45  1  0  0  0  0
 21 46  1  0  0  0  0
 21 47  1  0  0  0  0
 22 23  2  0  0  0  0
M  END
> <s_m_source_file>
AV-unprocessed.smi

> <i_m_source_file_index>
1404

> <i_lp_mmshare_version>
43012

> <i_f3d_flags>
0

> <s_epik_input>
W0NIM11uMWMoPU8pW2NIXVtjSF1uKGMxPU8pW0NIMl1DKD1PKVtOSF1bQ0gyXUMoW0NIM10pKFtDSDNdKU4yW0NIMl1bQ0gyXU9bQ0gyXVtDSDJdMg==

> <s_epik_cmdline>
J2VwaWtfcHl0aG9uJywgJy1waCcsICc3LjAnLCAnLXRuJywgJzgnLCAnLW1hJywgJzIwMCcsICctbWV0YWxfYmluZGluZycsICctaW1hZScsICc8aW5maWxlLm1hZT4nLCAnLW9tYWUnLCAnPG91dGZpbGUubWFlPic=

> <r_lp_tautomer_probability>
1

> <r_epik_Ionization_Penalty>
0.237382

> <r_epik_Ionization_Penalty_Charging>
1.16427e-08

> <r_epik_Ionization_Penalty_Neutral>
0.237382

> <r_epik_State_Penalty>
0.228245

> <r_epik_Charging_Adjusted_Penalty>
0.228245

> <i_epik_Tot_Q>
0

> <i_epik_Tot_abs_Q>
0

> <r_epik_Metal_State_Penalty>
0.22822

> <b_epik_Metal_Only>
0

> <s_lp_Force_Field>
OPLS_2005

> <r_lp_Energy>
49.615

> <b_lp_Chiralities_Consistent>
1

> <s_lp_Variant>
AV-unprocessed.smi:1404-1

> <Gold.Version>
5.8.1

> <Gold.Id.Protein>
6NUR|6NUR_protein|mol2

> <Gold.PLP.Fitness>
39.9230

> <Gold.PLP.PLP>
-31.0708

> <Gold.PLP.part.hbond>
-3.0000

> <Gold.PLP.part.metal>
0.0000

> <Gold.PLP.part.buried>
-3.4992

> <Gold.PLP.part.nonpolar>
-25.5166

> <Gold.PLP.part.repulsive>
0.4220

> <Gold.PLP.ligand.clash>
0.0000

> <Gold.PLP.ligand.torsion>
0.9208

> <Gold.PLP.Chemscore.Hbond>
2.5286

> <Gold.PLP.Chemscore.CHOScore>
1.0000

> <Gold.PLP.Chemscore.Metal>
0.0000

> <Gold.Chemscore.Hbonds>
donor molecule, donor type, donor heavy atom, donor atom, acceptor molecule, acceptor atom, score
      L1  H    11    31       P1  7948  0.92
      P1  H  7989  7998       L1    19  0.95
      P1  H 10785 10796       L1     4  0.53
      L1  C     6    28       P1  7948  1.00

> <Gold.PLP.Chemscore.Internal.Correction>
0.1079

> <Gold.Rescore>
     Score         DG    S(hbond)    S(metal)    S(lipo)     H(rot)  DE(clash)    DE(int)     intcor
     13.71     -15.18       2.53        0.00      55.91       2.07       0.36       1.12       ----

> <Gold.Chemscore.Fitness>
13.7068

> <Gold.Chemscore.DG>
-15.1829

> <Gold.Chemscore.ZeroCoef>
-5.4800

> <Gold.Chemscore.Hbond>
2.5303

> <Gold.Chemscore.Metal>
0.0000

> <Gold.Chemscore.Lipo>
55.9128

> <Gold.Chemscore.Internal_Hbond>
0.0000

> <Gold.Chemscore.DEClash>
0.3583

> <Gold.Chemscore.DEInternal>
1.1178

> <Gold.Chemscore.Rot>
2.0664

> <Gold.Chemscore.Internal.Correction>
   9.000000E+99

> <Gold.Chemscore.Hbonds>
donor molecule, donor type, donor heavy atom, donor atom, acceptor molecule, acceptor atom, score
      L1  H    11    31       P1  7948  0.84
      P1  H  7989  7998       L1    19  0.21
      P1  H 10785 10796       L1     4  0.51

> <Gold.Chemscore.Hbond.Weighted>
-8.4511

> <Gold.Chemscore.Metal.Weighted>
-0.0000

> <Gold.Chemscore.Lipo.Weighted>
-6.5418

> <Gold.Chemscore.Internal_Hbond.Weighted>
0.0000

> <Gold.Chemscore.DEClash.Weighted>
0.3583

> <Gold.Chemscore.DEInternal.Weighted>
1.1178

> <Gold.Chemscore.Rot.Weighted>
5.2899

> <Gold.Chemscore.Internal.Correction.Weighted>
   9.000000E+99

> <Gold.Protein.RotatedTorsions>
[ 6907 6896 6895 6894 ] final  157.12 input  -60.11 | X-H torsion
[ 7974 7965 7964 7962 ] final  137.68 input  175.53 | X-H torsion
[ 8008 7997 7996 7995 ] final  -58.90 input   59.86 | X-H torsion
[ 10167 10162 10161 10158 ] final  165.63 input  -65.29 | X-H torsion
[ 10718 10713 10712 10709 ] final  142.77 input   66.30 | X-H torsion
[ 10763 10752 10751 10750 ] final  -52.42 input  -60.55 | X-H torsion
[ 11005 11000 10999 10996 ] final  -98.72 input  -57.11 | X-H torsion

> <Gold.Protein.ActiveResidues>
 VAL166  LYS551  ARG553  GLY616  TRP617  ASP618  TYR619  PRO620  LYS621  CYS622 
 ASP623  PHE694  ASN695  SER759  ASP760  ASP761  ALA762  ILE779  LEU786  VAL792 
 PHE793  MET794  SER795  GLU796  ALA797  LYS798  CYS799  TRP800  GLU811  SER814 

> <Gold.Protein.RotatedAtoms>
  152.0198  133.3894  159.4253 H   0  0  0  0  0  0  0  0  0  0  0  0  # atno 6907 bound_to 6896
  150.6891  134.3639  159.4971 H   0  0  0  0  0  0  0  0  0  0  0  0  # atno 6908 bound_to 6896
  152.1411  134.9061  160.0604 H   0  0  0  0  0  0  0  0  0  0  0  0  # atno 6909 bound_to 6896
  144.9445  139.4891  143.5556 H   0  0  0  0  0  0  0  0  0  0  0  0  # atno 7974 bound_to 7965
  154.4328  140.1074  156.6030 H   0  0  0  0  0  0  0  0  0  0  0  0  # atno 8008 bound_to 7997
  155.5891  140.3492  155.4542 H   0  0  0  0  0  0  0  0  0  0  0  0  # atno 8009 bound_to 7997
  156.0260  140.1250  157.0297 H   0  0  0  0  0  0  0  0  0  0  0  0  # atno 8010 bound_to 7997
  139.4909  144.4111  151.9298 H   0  0  0  0  0  0  0  0  0  0  0  0  # atno 10167 bound_to 10162
  157.3767  131.0986  151.0778 H   0  0  0  0  0  0  0  0  0  0  0  0  # atno 10718 bound_to 10713
  154.1425  135.6503  153.4945 H   0  0  0  0  0  0  0  0  0  0  0  0  # atno 10763 bound_to 10752
  153.0162  135.5319  154.6890 H   0  0  0  0  0  0  0  0  0  0  0  0  # atno 10764 bound_to 10752
  154.6156  135.2959  155.0355 H   0  0  0  0  0  0  0  0  0  0  0  0  # atno 10765 bound_to 10752
  141.1335  133.8267  157.0877 H   0  0  0  0  0  0  0  0  0  0  0  0  # atno 11005 bound_to 11000
  146.3298  139.8487  142.8877 LP  0  0  0  0  0  0  0  0  0  0  0  0  # atno 17320 bound_to 7965
  145.2940  141.0175  143.3647 LP  0  0  0  0  0  0  0  0  0  0  0  0  # atno 17321 bound_to 7965
  140.3553  144.3039  150.5942 LP  0  0  0  0  0  0  0  0  0  0  0  0  # atno 17342 bound_to 10162
  140.5450  143.2216  151.8022 LP  0  0  0  0  0  0  0  0  0  0  0  0  # atno 17343 bound_to 10162
  157.1862  130.6331  149.5688 LP  0  0  0  0  0  0  0  0  0  0  0  0  # atno 17370 bound_to 10713
  155.9767  130.4737  150.6543 LP  0  0  0  0  0  0  0  0  0  0  0  0  # atno 17371 bound_to 10713
  140.0412  134.9853  157.0965 LP  0  0  0  0  0  0  0  0  0  0  0  0  # atno 17394 bound_to 11000
  140.4133  134.1958  155.7163 LP  0  0  0  0  0  0  0  0  0  0  0  0  # atno 17395 bound_to 11000

$$$$
