AV-unprocessed.smi:3351|AV-procd|sdf|12947|dock1
  -GOLD-   2272019383D 1   1.00000     0.00000
 Structure written by MMmdl.
 35 36  0  0  0  0  0  0  0  0  2 V2000
  151.1803  139.4481  155.6334 C   0  0  0  0  0  0  0  0  0  0  0  0
  150.2313  140.6417  155.8046 C   0  0  2  0  0  0  0  0  0  0  0  0
  149.7004  141.1342  154.4401 C   0  0  0  0  0  0  0  0  0  0  0  0
  148.2372  141.2272  154.3901 N   0  0  0  0  0  0  0  0  0  0  0  0
  147.4271  142.0163  155.1656 C   0  0  0  0  0  0  0  0  0  0  0  0
  146.1385  141.7529  154.7792 C   0  0  0  0  0  0  0  0  0  0  0  0
  146.2171  140.8237  153.7766 N   0  3  0  0  0  0  0  0  0  0  0  0
  147.4944  140.5096  153.5375 C   0  0  0  0  0  0  0  0  0  0  0  0
  150.9371  141.7107  156.5108 N   0  0  0  0  0  0  0  0  0  0  0  0
  150.6395  142.1692  157.7371 C   0  0  0  0  0  0  0  0  0  0  0  0
  149.7302  141.7093  158.4293 O   0  0  0  0  0  0  0  0  0  0  0  0
  151.5073  143.3197  158.2591 C   0  0  0  0  0  0  0  0  0  0  0  0
  152.2174  142.9664  159.4888 N   0  0  0  0  0  0  0  0  0  0  0  0
  153.3518  142.0551  159.4187 C   0  0  0  0  0  0  0  0  0  0  0  0
  153.6492  141.5648  160.8374 C   0  0  0  0  0  0  0  0  0  0  0  0
  152.9770  142.7795  161.9898 S   0  0  0  0  0  0  0  0  0  0  0  0
  151.9123  143.4971  160.7354 C   0  0  0  0  0  0  0  0  0  0  0  0
  151.0507  144.3321  161.0049 O   0  0  0  0  0  0  0  0  0  0  0  0
  150.6793  138.6165  155.1372 H   0  0  0  0  0  0  0  0  0  0  0  0
  151.5358  139.0871  156.5992 H   0  0  0  0  0  0  0  0  0  0  0  0
  152.0524  139.7150  155.0354 H   0  0  0  0  0  0  0  0  0  0  0  0
  149.3894  140.2969  156.4078 H   0  0  0  0  0  0  0  0  0  0  0  0
  150.1114  142.1149  154.1957 H   0  0  0  0  0  0  0  0  0  0  0  0
  150.0098  140.4555  153.6439 H   0  0  0  0  0  0  0  0  0  0  0  0
  147.8156  142.6798  155.9249 H   0  0  0  0  0  0  0  0  0  0  0  0
  145.1971  142.1459  155.1346 H   0  0  0  0  0  0  0  0  0  0  0  0
  147.8539  139.8048  152.8092 H   0  0  0  0  0  0  0  0  0  0  0  0
  151.7080  142.1435  156.0223 H   0  0  0  0  0  0  0  0  0  0  0  0
  152.2213  143.5960  157.4823 H   0  0  0  0  0  0  0  0  0  0  0  0
  150.8909  144.2022  158.4397 H   0  0  0  0  0  0  0  0  0  0  0  0
  153.1486  141.2191  158.7481 H   0  0  0  0  0  0  0  0  0  0  0  0
  154.2075  142.6005  159.0191 H   0  0  0  0  0  0  0  0  0  0  0  0
  153.1439  140.6156  161.0169 H   0  0  0  0  0  0  0  0  0  0  0  0
  154.7153  141.4106  161.0050 H   0  0  0  0  0  0  0  0  0  0  0  0
  145.4245  140.4276  153.2870 H   0  0  0  0  0  0  0  0  0  0  0  0
  1  2  1  0  0  0  0
  1 19  1  0  0  0  0
  1 20  1  0  0  0  0
  1 21  1  0  0  0  0
  2  3  1  0  0  0  0
  2  9  1  0  0  0  0
  2 22  1  0  0  0  0
  3  4  1  0  0  0  0
  3 23  1  0  0  0  0
  3 24  1  0  0  0  0
  4  8  1  0  0  0  0
  4  5  1  0  0  0  0
  5  6  2  0  0  0  0
  5 25  1  0  0  0  0
  6  7  1  0  0  0  0
  6 26  1  0  0  0  0
  7  8  2  0  0  0  0
  7 35  1  0  0  0  0
  8 27  1  0  0  0  0
  9 10  1  0  0  0  0
  9 28  1  0  0  0  0
 10 11  2  0  0  0  0
 10 12  1  0  0  0  0
 12 13  1  0  0  0  0
 12 29  1  0  0  0  0
 12 30  1  0  0  0  0
 13 17  1  0  0  0  0
 13 14  1  0  0  0  0
 14 15  1  0  0  0  0
 14 31  1  0  0  0  0
 14 32  1  0  0  0  0
 15 16  1  0  0  0  0
 15 33  1  0  0  0  0
 15 34  1  0  0  0  0
 16 17  1  0  0  0  0
 17 18  2  0  0  0  0
M  CHG  1   7   1
M  END
> <s_m_source_file>
AV-unprocessed.smi

> <i_m_source_file_index>
3351

> <i_lp_mmshare_version>
43012

> <i_f3d_flags>
0

> <s_epik_input>
W2NIXTFuW2NIXVtjSF1uMVtDSDJdW0NAQEhdKFtDSDNdKVtOSF1DKD1PKVtDSDJdTjJbQ0gyXVtDSDJdU0MyPU8=

> <s_epik_cmdline>
J2VwaWtfcHl0aG9uJywgJy1waCcsICc3LjAnLCAnLXRuJywgJzgnLCAnLW1hJywgJzIwMCcsICctbWV0YWxfYmluZGluZycsICctaW1hZScsICc8aW5maWxlLm1hZT4nLCAnLW9tYWUnLCAnPG91dGZpbGUubWFlPic=

> <r_lp_tautomer_probability>
1

> <r_epik_Ionization_Penalty>
0.257312

> <r_epik_Ionization_Penalty_Charging>
0

> <r_epik_Ionization_Penalty_Neutral>
0.257312

> <r_epik_State_Penalty>
0.248897

> <r_epik_Charging_Adjusted_Penalty>
0.248897

> <i_epik_Tot_Q>
1

> <i_epik_Tot_abs_Q>
1

> <r_epik_Metal_State_Penalty>
0.538022

> <b_epik_Metal_Only>
0

> <s_lp_Force_Field>
OPLS_2005

> <r_lp_Energy>
4.24041

> <b_lp_Chiralities_Consistent>
1

> <s_lp_Variant>
AV-unprocessed.smi:3351-1

> <Gold.Version>
5.8.1

> <Gold.Id.Protein>
6NUR|6NUR_protein|mol2

> <Gold.PLP.Fitness>
50.4128

> <Gold.PLP.PLP>
-40.1499

> <Gold.PLP.part.hbond>
-1.0000

> <Gold.PLP.part.metal>
0.0000

> <Gold.PLP.part.buried>
-1.4620

> <Gold.PLP.part.nonpolar>
-37.4192

> <Gold.PLP.part.repulsive>
0.3365

> <Gold.PLP.ligand.clash>
0.0000

> <Gold.PLP.ligand.torsion>
0.8693

> <Gold.PLP.Chemscore.Hbond>
2.0000

> <Gold.PLP.Chemscore.CHOScore>
1.9762

> <Gold.PLP.Chemscore.Metal>
0.0000

> <Gold.Chemscore.Hbonds>
donor molecule, donor type, donor heavy atom, donor atom, acceptor molecule, acceptor atom, score
      L1  H     7    35       P1 10175  2.00
      L1  C     5    25       P1  8028  0.97
      L1  C     8    27       P1  7957  1.00

> <Gold.PLP.Chemscore.Internal.Correction>
0.0729

> <Gold.Rescore>
     Score         DG    S(hbond)    S(metal)    S(lipo)     H(rot)  DE(clash)    DE(int)     intcor
     10.00     -10.96       0.97        0.00      71.95       2.41       0.03       0.93       ----

> <Gold.Chemscore.Fitness>
9.9971

> <Gold.Chemscore.DG>
-10.9583

> <Gold.Chemscore.ZeroCoef>
-5.4800

> <Gold.Chemscore.Hbond>
0.9700

> <Gold.Chemscore.Metal>
0.0000

> <Gold.Chemscore.Lipo>
71.9526

> <Gold.Chemscore.Internal_Hbond>
0.0000

> <Gold.Chemscore.DEClash>
0.0324

> <Gold.Chemscore.DEInternal>
0.9288

> <Gold.Chemscore.Rot>
2.4141

> <Gold.Chemscore.Internal.Correction>
   9.000000E+99

> <Gold.Chemscore.Hbonds>
donor molecule, donor type, donor heavy atom, donor atom, acceptor molecule, acceptor atom, score
      L1  H     7    35       P1 10175  0.94

> <Gold.Chemscore.Hbond.Weighted>
-3.2399

> <Gold.Chemscore.Metal.Weighted>
-0.0000

> <Gold.Chemscore.Lipo.Weighted>
-8.4184

> <Gold.Chemscore.Internal_Hbond.Weighted>
0.0000

> <Gold.Chemscore.DEClash.Weighted>
0.0324

> <Gold.Chemscore.DEInternal.Weighted>
0.9288

> <Gold.Chemscore.Rot.Weighted>
6.1800

> <Gold.Chemscore.Internal.Correction.Weighted>
   9.000000E+99

> <Gold.Protein.RotatedTorsions>
[ 6907 6896 6895 6894 ] final  137.76 input  -60.11 | X-H torsion
[ 7974 7965 7964 7962 ] final   92.21 input  175.53 | X-H torsion
[ 8008 7997 7996 7995 ] final  -55.55 input   59.86 | X-H torsion
[ 10167 10162 10161 10158 ] final  -56.31 input  -65.29 | X-H torsion
[ 10718 10713 10712 10709 ] final  115.26 input   66.30 | X-H torsion
[ 10763 10752 10751 10750 ] final   41.45 input  -60.55 | X-H torsion
[ 11005 11000 10999 10996 ] final  160.63 input  -57.11 | X-H torsion

> <Gold.Protein.ActiveResidues>
 VAL166  LYS551  ARG553  GLY616  TRP617  ASP618  TYR619  PRO620  LYS621  CYS622 
 ASP623  PHE694  ASN695  SER759  ASP760  ASP761  ALA762  ILE779  LEU786  VAL792 
 PHE793  MET794  SER795  GLU796  ALA797  LYS798  CYS799  TRP800  GLU811  SER814 

> <Gold.Protein.RotatedAtoms>
  152.2744  133.5412  159.5458 H   0  0  0  0  0  0  0  0  0  0  0  0  # atno 6907 bound_to 6896
  150.7171  134.0652  159.3854 H   0  0  0  0  0  0  0  0  0  0  0  0  # atno 6908 bound_to 6896
  151.8566  135.0539  160.0515 H   0  0  0  0  0  0  0  0  0  0  0  0  # atno 6909 bound_to 6896
  145.4953  139.2276  143.2807 H   0  0  0  0  0  0  0  0  0  0  0  0  # atno 7974 bound_to 7965
  154.4199  140.1150  156.5495 H   0  0  0  0  0  0  0  0  0  0  0  0  # atno 8008 bound_to 7997
  155.6425  140.3496  155.4701 H   0  0  0  0  0  0  0  0  0  0  0  0  # atno 8009 bound_to 7997
  155.9859  140.1169  157.0673 H   0  0  0  0  0  0  0  0  0  0  0  0  # atno 8010 bound_to 7997
  140.6324  143.2466  151.5205 H   0  0  0  0  0  0  0  0  0  0  0  0  # atno 10167 bound_to 10162
  157.6233  131.1010  150.7304 H   0  0  0  0  0  0  0  0  0  0  0  0  # atno 10718 bound_to 10713
  152.9908  135.6161  154.2790 H   0  0  0  0  0  0  0  0  0  0  0  0  # atno 10763 bound_to 10752
  154.2520  135.2785  155.2814 H   0  0  0  0  0  0  0  0  0  0  0  0  # atno 10764 bound_to 10752
  154.5280  135.5796  153.6793 H   0  0  0  0  0  0  0  0  0  0  0  0  # atno 10765 bound_to 10752
  140.2078  134.8290  157.3088 H   0  0  0  0  0  0  0  0  0  0  0  0  # atno 11005 bound_to 11000
  146.2259  140.5750  142.8997 LP  0  0  0  0  0  0  0  0  0  0  0  0  # atno 17320 bound_to 7965
  144.7810  140.5841  143.6605 LP  0  0  0  0  0  0  0  0  0  0  0  0  # atno 17321 bound_to 7965
  139.5537  144.2329  152.1576 LP  0  0  0  0  0  0  0  0  0  0  0  0  # atno 17342 bound_to 10162
  140.1577  144.5055  150.6651 LP  0  0  0  0  0  0  0  0  0  0  0  0  # atno 17343 bound_to 10162
  156.7657  130.4812  149.5428 LP  0  0  0  0  0  0  0  0  0  0  0  0  # atno 17370 bound_to 10713
  156.1390  130.6231  151.0441 LP  0  0  0  0  0  0  0  0  0  0  0  0  # atno 17371 bound_to 10713
  140.1984  134.4285  155.7676 LP  0  0  0  0  0  0  0  0  0  0  0  0  # atno 17394 bound_to 11000
  141.2227  133.7060  156.8142 LP  0  0  0  0  0  0  0  0  0  0  0  0  # atno 17395 bound_to 11000

$$$$
