AV-unprocessed.smi:170|AV-procd|sdf|1410|dock9
  -GOLD-   2262019173D 1   1.00000     0.00000
 Structure written by MMmdl.
 57 61  0  0  0  0  0  0  0  0  1 V2000
  147.4133  134.5185  157.1779 O   0  0  0  0  0  0  0  0  0  0  0  0
  148.6981  135.1113  157.1451 C   0  0  2  0  0  0  0  0  0  0  0  0
  148.5913  136.6437  157.0211 C   0  0  0  0  0  0  0  0  0  0  0  0
  149.6457  137.3291  157.7469 N   0  0  0  0  0  0  0  0  0  0  0  0
  149.9061  137.2408  159.0953 C   0  0  0  0  0  0  0  0  0  0  0  0
  150.9073  137.9646  159.5157 N   0  0  0  0  0  0  0  0  0  0  0  0
  151.3697  138.6033  158.3706 C   0  0  0  0  0  0  0  0  0  0  0  0
  152.4124  139.5349  158.0990 C   0  0  0  0  0  0  0  0  0  0  0  0
  153.2501  140.0559  159.0239 N   0  0  0  0  0  0  0  0  0  0  0  0
  153.7959  139.0069  159.8767 C   0  0  0  0  0  0  0  0  0  0  0  0
  154.8870  139.5805  160.7905 C   0  0  0  0  0  0  0  0  0  0  0  0
  154.3409  140.6530  161.5467 O   0  0  0  0  0  0  0  0  0  0  0  0
  153.8898  141.7166  160.7149 C   0  0  0  0  0  0  0  0  0  0  0  0
  152.7682  141.2253  159.7702 C   0  0  1  0  0  0  0  0  0  0  0  0
  152.2711  142.3602  158.8358 C   0  0  0  0  0  0  0  0  0  0  0  0
  152.7846  143.7549  159.2016 C   0  0  0  0  0  0  0  0  0  0  0  0
  152.1923  144.4777  160.4245 C   0  0  0  0  0  0  0  0  0  0  0  0
  151.2870  145.2598  159.4712 C   0  0  0  0  0  0  0  0  0  0  0  0
  152.2981  144.9496  158.3652 C   0  0  0  0  0  0  0  0  0  0  0  0
  152.5850  139.9410  156.8172 N   0  0  0  0  0  0  0  0  0  0  0  0
  151.7774  139.4820  155.8564 C   0  0  0  0  0  0  0  0  0  0  0  0
  150.7583  138.6258  155.9597 N   0  0  0  0  0  0  0  0  0  0  0  0
  150.5911  138.2069  157.2472 C   0  0  0  0  0  0  0  0  0  0  0  0
  149.5515  134.4776  156.0284 C   0  0  1  0  0  0  0  0  0  0  0  0
  149.8941  132.9875  156.1977 C   0  0  0  0  0  0  0  0  0  0  0  0
  149.5407  132.3754  154.8511 C   0  0  0  0  0  0  0  0  0  0  0  0
  149.4523  133.5824  153.9246 C   0  0  0  0  0  0  0  0  0  0  0  0
  148.9110  134.5890  154.7629 O   0  0  0  0  0  0  0  0  0  0  0  0
  147.3564  133.9750  157.9492 H   0  0  0  0  0  0  0  0  0  0  0  0
  149.1703  134.8761  158.0996 H   0  0  0  0  0  0  0  0  0  0  0  0
  148.6477  136.9420  155.9736 H   0  0  0  0  0  0  0  0  0  0  0  0
  147.6277  136.9943  157.3923 H   0  0  0  0  0  0  0  0  0  0  0  0
  149.3236  136.6214  159.7617 H   0  0  0  0  0  0  0  0  0  0  0  0
  152.9971  138.5730  160.4801 H   0  0  0  0  0  0  0  0  0  0  0  0
  154.2108  138.2039  159.2658 H   0  0  0  0  0  0  0  0  0  0  0  0
  155.2500  138.8118  161.4728 H   0  0  0  0  0  0  0  0  0  0  0  0
  155.7440  139.9248  160.2093 H   0  0  0  0  0  0  0  0  0  0  0  0
  153.5270  142.5116  161.3654 H   0  0  0  0  0  0  0  0  0  0  0  0
  154.7279  142.1261  160.1484 H   0  0  0  0  0  0  0  0  0  0  0  0
  151.9399  140.8988  160.3976 H   0  0  0  0  0  0  0  0  0  0  0  0
  152.5521  142.1251  157.8087 H   0  0  0  0  0  0  0  0  0  0  0  0
  151.1818  142.3928  158.8341 H   0  0  0  0  0  0  0  0  0  0  0  0
  153.8736  143.7731  159.2508 H   0  0  0  0  0  0  0  0  0  0  0  0
  151.6556  143.8439  161.1305 H   0  0  0  0  0  0  0  0  0  0  0  0
  152.9192  145.1146  160.9313 H   0  0  0  0  0  0  0  0  0  0  0  0
  150.3218  144.7755  159.3121 H   0  0  0  0  0  0  0  0  0  0  0  0
  151.1771  146.3180  159.7086 H   0  0  0  0  0  0  0  0  0  0  0  0
  153.0550  145.7281  158.2566 H   0  0  0  0  0  0  0  0  0  0  0  0
  151.8519  144.6874  157.4053 H   0  0  0  0  0  0  0  0  0  0  0  0
  151.9740  139.8571  154.8628 H   0  0  0  0  0  0  0  0  0  0  0  0
  150.4882  135.0325  155.9515 H   0  0  0  0  0  0  0  0  0  0  0  0
  150.9560  132.8683  156.4153 H   0  0  0  0  0  0  0  0  0  0  0  0
  149.3406  132.5038  157.0029 H   0  0  0  0  0  0  0  0  0  0  0  0
  150.2665  131.6351  154.5139 H   0  0  0  0  0  0  0  0  0  0  0  0
  148.5664  131.8894  154.9130 H   0  0  0  0  0  0  0  0  0  0  0  0
  150.4424  133.8844  153.5799 H   0  0  0  0  0  0  0  0  0  0  0  0
  148.8228  133.4012  153.0535 H   0  0  0  0  0  0  0  0  0  0  0  0
  1  2  1  0  0  0  0
  1 29  1  0  0  0  0
  2  3  1  0  0  0  0
  2 24  1  0  0  0  0
  2 30  1  0  0  0  0
  3  4  1  0  0  0  0
  3 31  1  0  0  0  0
  3 32  1  0  0  0  0
  4 23  1  0  0  0  0
  4  5  1  0  0  0  0
  5  6  2  0  0  0  0
  5 33  1  0  0  0  0
  6  7  1  0  0  0  0
  7 23  2  0  0  0  0
  7  8  1  0  0  0  0
  8  9  1  0  0  0  0
  8 20  2  0  0  0  0
  9 14  1  0  0  0  0
  9 10  1  0  0  0  0
 10 11  1  0  0  0  0
 10 34  1  0  0  0  0
 10 35  1  0  0  0  0
 11 12  1  0  0  0  0
 11 36  1  0  0  0  0
 11 37  1  0  0  0  0
 12 13  1  0  0  0  0
 13 14  1  0  0  0  0
 13 38  1  0  0  0  0
 13 39  1  0  0  0  0
 14 15  1  0  0  0  0
 14 40  1  0  0  0  0
 15 16  1  0  0  0  0
 15 41  1  0  0  0  0
 15 42  1  0  0  0  0
 16 19  1  0  0  0  0
 16 17  1  0  0  0  0
 16 43  1  0  0  0  0
 17 18  1  0  0  0  0
 17 44  1  0  0  0  0
 17 45  1  0  0  0  0
 18 19  1  0  0  0  0
 18 46  1  0  0  0  0
 18 47  1  0  0  0  0
 19 48  1  0  0  0  0
 19 49  1  0  0  0  0
 20 21  1  0  0  0  0
 21 22  2  0  0  0  0
 21 50  1  0  0  0  0
 22 23  1  0  0  0  0
 24 28  1  0  0  0  0
 24 25  1  0  0  0  0
 24 51  1  0  0  0  0
 25 26  1  0  0  0  0
 25 52  1  0  0  0  0
 25 53  1  0  0  0  0
 26 27  1  0  0  0  0
 26 54  1  0  0  0  0
 26 55  1  0  0  0  0
 27 28  1  0  0  0  0
 27 56  1  0  0  0  0
 27 57  1  0  0  0  0
M  END
> <s_m_source_file>
AV-unprocessed.smi

> <i_m_source_file_index>
170

> <i_lp_mmshare_version>
43012

> <i_f3d_flags>
0

> <s_epik_input>
TzFbQ0gyXVtDSDJdW0NIMl1bQ0BIXTFbQ0BIXShbT0hdKVtDSDJdbihbY0hdbjIpYyhjMjMpbltjSF1uYzNONFtDSDJdW0NIMl1PW0NIMl1bQ0BIXTRbQ0gyXVtDSF01W0NIMl1bQ0gyXVtDSDJdNQ==

> <s_epik_cmdline>
J2VwaWtfcHl0aG9uJywgJy1waCcsICc3LjAnLCAnLXRuJywgJzgnLCAnLW1hJywgJzIwMCcsICctbWV0YWxfYmluZGluZycsICctaW1hZScsICc8aW5maWxlLm1hZT4nLCAnLW9tYWUnLCAnPG91dGZpbGUubWFlPic=

> <r_lp_tautomer_probability>
1

> <r_epik_Ionization_Penalty>
4.98275e-05

> <r_epik_Ionization_Penalty_Charging>
0

> <r_epik_Ionization_Penalty_Neutral>
4.98275e-05

> <r_epik_State_Penalty>
-0

> <r_epik_Charging_Adjusted_Penalty>
0

> <i_epik_Tot_Q>
0

> <i_epik_Tot_abs_Q>
0

> <r_epik_Metal_State_Penalty>
-0

> <b_epik_Metal_Only>
0

> <s_lp_Force_Field>
OPLS_2005

> <r_lp_Energy>
54.4618

> <b_lp_Chiralities_Consistent>
1

> <s_lp_Variant>
AV-unprocessed.smi:170-5

> <Gold.Version>
5.8.1

> <Gold.Id.Protein>
6NUR|6NUR_protein|mol2

> <Gold.PLP.Fitness>
48.5915

> <Gold.PLP.PLP>
-48.6205

> <Gold.PLP.part.hbond>
-1.7233

> <Gold.PLP.part.metal>
0.0000

> <Gold.PLP.part.buried>
-6.9278

> <Gold.PLP.part.nonpolar>
-39.7290

> <Gold.PLP.part.repulsive>
0.1386

> <Gold.PLP.ligand.clash>
0.0000

> <Gold.PLP.ligand.torsion>
1.6760

> <Gold.PLP.Chemscore.Hbond>
1.0000

> <Gold.PLP.Chemscore.CHOScore>
0.0000

> <Gold.PLP.Chemscore.Metal>
0.0000

> <Gold.Chemscore.Hbonds>
donor molecule, donor type, donor heavy atom, donor atom, acceptor molecule, acceptor atom, score
      P1  H  7997  8009       L1    20  1.00

> <Gold.PLP.Chemscore.Internal.Correction>
0.3230

> <Gold.Rescore>
     Score         DG    S(hbond)    S(metal)    S(lipo)     H(rot)  DE(clash)    DE(int)     intcor
     14.66     -16.19       0.89        0.00     123.24       2.61       0.03       1.51       ----

> <Gold.Chemscore.Fitness>
14.6558

> <Gold.Chemscore.DG>
-16.1929

> <Gold.Chemscore.ZeroCoef>
-5.4800

> <Gold.Chemscore.Hbond>
0.8943

> <Gold.Chemscore.Metal>
0.0000

> <Gold.Chemscore.Lipo>
123.2398

> <Gold.Chemscore.Internal_Hbond>
0.0000

> <Gold.Chemscore.DEClash>
0.0256

> <Gold.Chemscore.DEInternal>
1.5115

> <Gold.Chemscore.Rot>
2.6144

> <Gold.Chemscore.Internal.Correction>
   9.000000E+99

> <Gold.Chemscore.Hbonds>
donor molecule, donor type, donor heavy atom, donor atom, acceptor molecule, acceptor atom, score
      P1  H  7997  8009       L1    20  0.76

> <Gold.Chemscore.Hbond.Weighted>
-2.9868

> <Gold.Chemscore.Metal.Weighted>
-0.0000

> <Gold.Chemscore.Lipo.Weighted>
-14.4191

> <Gold.Chemscore.Internal_Hbond.Weighted>
0.0000

> <Gold.Chemscore.DEClash.Weighted>
0.0256

> <Gold.Chemscore.DEInternal.Weighted>
1.5115

> <Gold.Chemscore.Rot.Weighted>
6.6929

> <Gold.Chemscore.Internal.Correction.Weighted>
   9.000000E+99

> <Gold.Protein.RotatedTorsions>
[ 6907 6896 6895 6894 ] final   -9.76 input  -60.11 | X-H torsion
[ 7974 7965 7964 7962 ] final  -33.13 input  175.53 | X-H torsion
[ 8008 7997 7996 7995 ] final -158.34 input   59.86 | X-H torsion
[ 10167 10162 10161 10158 ] final   36.71 input  -65.29 | X-H torsion
[ 10718 10713 10712 10709 ] final  -38.24 input   66.30 | X-H torsion
[ 10763 10752 10751 10750 ] final   59.83 input  -60.55 | X-H torsion
[ 11005 11000 10999 10996 ] final  159.82 input  -57.11 | X-H torsion

> <Gold.Protein.ActiveResidues>
 VAL166  LYS551  ARG553  GLY616  TRP617  ASP618  TYR619  PRO620  LYS621  CYS622 
 ASP623  PHE694  ASN695  SER759  ASP760  ASP761  ALA762  ILE779  LEU786  VAL792 
 PHE793  MET794  SER795  GLU796  ALA797  LYS798  CYS799  TRP800  GLU811  SER814 

> <Gold.Protein.RotatedAtoms>
  151.4127  135.0987  159.9589 H   0  0  0  0  0  0  0  0  0  0  0  0  # atno 6907 bound_to 6896
  152.5014  133.8782  159.7343 H   0  0  0  0  0  0  0  0  0  0  0  0  # atno 6908 bound_to 6896
  150.9280  133.6743  159.2845 H   0  0  0  0  0  0  0  0  0  0  0  0  # atno 6909 bound_to 6896
  146.0935  140.5878  142.8853 H   0  0  0  0  0  0  0  0  0  0  0  0  # atno 7974 bound_to 7965
  155.7461  140.0820  157.2223 H   0  0  0  0  0  0  0  0  0  0  0  0  # atno 8008 bound_to 7997
  154.4017  140.1569  156.2727 H   0  0  0  0  0  0  0  0  0  0  0  0  # atno 8009 bound_to 7997
  155.8974  140.3412  155.6004 H   0  0  0  0  0  0  0  0  0  0  0  0  # atno 8010 bound_to 7997
  140.4101  144.1604  150.6139 H   0  0  0  0  0  0  0  0  0  0  0  0  # atno 10167 bound_to 10162
  156.3060  130.4246  149.8096 H   0  0  0  0  0  0  0  0  0  0  0  0  # atno 10718 bound_to 10713
  152.9904  135.5558  154.5776 H   0  0  0  0  0  0  0  0  0  0  0  0  # atno 10763 bound_to 10752
  154.5163  135.2805  155.1302 H   0  0  0  0  0  0  0  0  0  0  0  0  # atno 10764 bound_to 10752
  154.2673  135.6369  153.5350 H   0  0  0  0  0  0  0  0  0  0  0  0  # atno 10765 bound_to 10752
  140.1999  134.8345  157.3006 H   0  0  0  0  0  0  0  0  0  0  0  0  # atno 11005 bound_to 11000
  144.7378  140.4857  143.6891 LP  0  0  0  0  0  0  0  0  0  0  0  0  # atno 17320 bound_to 7965
  145.5993  139.1502  143.3138 LP  0  0  0  0  0  0  0  0  0  0  0  0  # atno 17321 bound_to 7965
  140.4647  143.2435  151.9172 LP  0  0  0  0  0  0  0  0  0  0  0  0  # atno 17342 bound_to 10162
  139.4783  144.5432  151.8497 LP  0  0  0  0  0  0  0  0  0  0  0  0  # atno 17343 bound_to 10162
  156.5457  130.8320  151.3283 LP  0  0  0  0  0  0  0  0  0  0  0  0  # atno 17370 bound_to 10713
  157.7379  130.9805  150.2224 LP  0  0  0  0  0  0  0  0  0  0  0  0  # atno 17371 bound_to 10713
  140.2065  134.4190  155.7635 LP  0  0  0  0  0  0  0  0  0  0  0  0  # atno 17394 bound_to 11000
  141.2227  133.7097  156.8269 LP  0  0  0  0  0  0  0  0  0  0  0  0  # atno 17395 bound_to 11000

$$$$
