AV-unprocessed.smi:1370|AV-procd|sdf|5580|dock9
  -GOLD-   22720 5183D 1   1.00000     0.00000
 Structure written by MMmdl.
 39 40  0  0  0  0  0  0  0  0  1 V2000
  151.8837  135.8484  155.4533 O   0  0  0  0  0  0  0  0  0  0  0  0
  151.2026  136.3568  154.5616 C   0  0  0  0  0  0  0  0  0  0  0  0
  151.6186  137.6848  153.9134 C   0  0  0  0  0  0  0  0  0  0  0  0
  150.8557  138.8405  154.4129 N   0  0  0  0  0  0  0  0  0  0  0  0
  149.4758  138.8704  154.1284 C   0  0  0  0  0  0  0  0  0  0  0  0
  148.6883  139.8779  154.5372 C   0  0  0  0  0  0  0  0  0  0  0  0
  149.2905  140.9523  155.2903 C   0  0  0  0  0  0  0  0  0  0  0  0
  150.6099  140.9355  155.5645 C   0  0  0  0  0  0  0  0  0  0  0  0
  151.4753  139.8384  155.1158 C   0  0  0  0  0  0  0  0  0  0  0  0
  152.6825  139.8175  155.3581 O   0  0  0  0  0  0  0  0  0  0  0  0
  150.0858  135.7923  154.0788 N   0  0  0  0  0  0  0  0  0  0  0  0
  149.5286  134.5179  154.5205 C   0  0  0  0  0  0  0  0  0  0  0  0
  149.3471  133.5355  153.3523 C   0  0  0  0  0  0  0  0  0  0  0  0
  147.8676  132.5016  153.5558 S   0  0  0  0  0  0  0  0  0  0  0  0
  146.8909  133.0496  152.1269 C   0  0  0  0  0  0  0  0  0  0  0  0
  146.1240  134.3413  152.4048 C   0  0  0  0  0  0  0  0  0  0  0  0
  145.0353  134.3562  151.3330 C   0  0  0  0  0  0  0  0  0  0  0  0
  144.6629  132.8842  151.1117 C   0  0  0  0  0  0  0  0  0  0  0  0
  145.8030  132.0495  151.7166 C   0  0  0  0  0  0  0  0  0  0  0  0
  152.6855  137.8261  154.0901 H   0  0  0  0  0  0  0  0  0  0  0  0
  151.5180  137.6092  152.8289 H   0  0  0  0  0  0  0  0  0  0  0  0
  149.1059  138.0329  153.5550 H   0  0  0  0  0  0  0  0  0  0  0  0
  147.6335  139.8863  154.3054 H   0  0  0  0  0  0  0  0  0  0  0  0
  148.6805  141.7743  155.6348 H   0  0  0  0  0  0  0  0  0  0  0  0
  151.0430  141.7483  156.1289 H   0  0  0  0  0  0  0  0  0  0  0  0
  149.5923  136.2726  153.3404 H   0  0  0  0  0  0  0  0  0  0  0  0
  150.1708  134.0769  155.2846 H   0  0  0  0  0  0  0  0  0  0  0  0
  148.5683  134.7078  155.0002 H   0  0  0  0  0  0  0  0  0  0  0  0
  149.2822  134.0740  152.4064 H   0  0  0  0  0  0  0  0  0  0  0  0
  150.2181  132.8836  153.2852 H   0  0  0  0  0  0  0  0  0  0  0  0
  147.5632  133.2185  151.2844 H   0  0  0  0  0  0  0  0  0  0  0  0
  145.6641  134.3017  153.3934 H   0  0  0  0  0  0  0  0  0  0  0  0
  146.7611  135.2253  152.3671 H   0  0  0  0  0  0  0  0  0  0  0  0
  144.1782  134.9665  151.6187 H   0  0  0  0  0  0  0  0  0  0  0  0
  145.4417  134.7709  150.4098 H   0  0  0  0  0  0  0  0  0  0  0  0
  143.7221  132.6474  151.6101 H   0  0  0  0  0  0  0  0  0  0  0  0
  144.5303  132.6732  150.0502 H   0  0  0  0  0  0  0  0  0  0  0  0
  146.1816  131.3046  151.0161 H   0  0  0  0  0  0  0  0  0  0  0  0
  145.4316  131.5142  152.5917 H   0  0  0  0  0  0  0  0  0  0  0  0
  1  2  2  0  0  0  0
  2  3  1  0  0  0  0
  2 11  1  0  0  0  0
  3  4  1  0  0  0  0
  3 20  1  0  0  0  0
  3 21  1  0  0  0  0
  4  9  1  0  0  0  0
  4  5  1  0  0  0  0
  5  6  2  0  0  0  0
  5 22  1  0  0  0  0
  6  7  1  0  0  0  0
  6 23  1  0  0  0  0
  7  8  2  0  0  0  0
  7 24  1  0  0  0  0
  8  9  1  0  0  0  0
  8 25  1  0  0  0  0
  9 10  2  0  0  0  0
 11 12  1  0  0  0  0
 11 26  1  0  0  0  0
 12 13  1  0  0  0  0
 12 27  1  0  0  0  0
 12 28  1  0  0  0  0
 13 14  1  0  0  0  0
 13 29  1  0  0  0  0
 13 30  1  0  0  0  0
 14 15  1  0  0  0  0
 15 19  1  0  0  0  0
 15 16  1  0  0  0  0
 15 31  1  0  0  0  0
 16 17  1  0  0  0  0
 16 32  1  0  0  0  0
 16 33  1  0  0  0  0
 17 18  1  0  0  0  0
 17 34  1  0  0  0  0
 17 35  1  0  0  0  0
 18 19  1  0  0  0  0
 18 36  1  0  0  0  0
 18 37  1  0  0  0  0
 19 38  1  0  0  0  0
 19 39  1  0  0  0  0
M  END
> <s_m_source_file>
AV-unprocessed.smi

> <i_m_source_file_index>
1370

> <i_lp_mmshare_version>
43012

> <i_f3d_flags>
0

> <s_epik_input>
Tz1jMVtjSF1bY0hdW2NIXVtjSF1uMVtDSDJdQyg9TylbTkhdW0NIMl1bQ0gyXVNbQ0hdMltDSDJdW0NIMl1bQ0gyXVtDSDJdMg==

> <s_epik_cmdline>
J2VwaWtfcHl0aG9uJywgJy1waCcsICc3LjAnLCAnLXRuJywgJzgnLCAnLW1hJywgJzIwMCcsICctbWV0YWxfYmluZGluZycsICctaW1hZScsICc8aW5maWxlLm1hZT4nLCAnLW9tYWUnLCAnPG91dGZpbGUubWFlPic=

> <r_lp_tautomer_probability>
1

> <r_epik_Ionization_Penalty>
3.75756e-07

> <r_epik_Ionization_Penalty_Charging>
3.52005e-07

> <r_epik_Ionization_Penalty_Neutral>
2.37506e-08

> <r_epik_State_Penalty>
-0

> <r_epik_Charging_Adjusted_Penalty>
3.52005e-07

> <i_epik_Tot_Q>
0

> <i_epik_Tot_abs_Q>
0

> <r_epik_Metal_State_Penalty>
-0

> <b_epik_Metal_Only>
0

> <s_lp_Force_Field>
OPLS_2005

> <r_lp_Energy>
28.6611

> <b_lp_Chiralities_Consistent>
1

> <s_lp_Variant>
AV-unprocessed.smi:1370-1

> <Gold.Version>
5.8.1

> <Gold.Id.Protein>
6NUR|6NUR_protein|mol2

> <Gold.PLP.Fitness>
48.6787

> <Gold.PLP.PLP>
-39.3687

> <Gold.PLP.part.hbond>
-3.8938

> <Gold.PLP.part.metal>
0.0000

> <Gold.PLP.part.buried>
1.5638

> <Gold.PLP.part.nonpolar>
-36.6725

> <Gold.PLP.part.repulsive>
0.0893

> <Gold.PLP.ligand.clash>
0.0000

> <Gold.PLP.ligand.torsion>
1.1141

> <Gold.PLP.Chemscore.Hbond>
2.8296

> <Gold.PLP.Chemscore.CHOScore>
1.0000

> <Gold.PLP.Chemscore.Metal>
0.0000

> <Gold.Chemscore.Hbonds>
donor molecule, donor type, donor heavy atom, donor atom, acceptor molecule, acceptor atom, score
      L1  H    11    26       P1  7948  0.94
      P1  H  7997  8010       L1    10  1.00
      P1  H 10752 10764       L1     1  0.65
      L1  C     5    22       P1  7948  1.00

> <Gold.PLP.Chemscore.Internal.Correction>
0.0493

> <Gold.Rescore>
     Score         DG    S(hbond)    S(metal)    S(lipo)     H(rot)  DE(clash)    DE(int)     intcor
     14.75     -15.98       1.82        0.00      78.50       1.87       0.05       1.18       ----

> <Gold.Chemscore.Fitness>
14.7519

> <Gold.Chemscore.DG>
-15.9763

> <Gold.Chemscore.ZeroCoef>
-5.4800

> <Gold.Chemscore.Hbond>
1.8246

> <Gold.Chemscore.Metal>
0.0000

> <Gold.Chemscore.Lipo>
78.5032

> <Gold.Chemscore.Internal_Hbond>
0.0000

> <Gold.Chemscore.DEClash>
0.0465

> <Gold.Chemscore.DEInternal>
1.1779

> <Gold.Chemscore.Rot>
1.8682

> <Gold.Chemscore.Internal.Correction>
   9.000000E+99

> <Gold.Chemscore.Hbonds>
donor molecule, donor type, donor heavy atom, donor atom, acceptor molecule, acceptor atom, score
      L1  H    11    26       P1  7948  0.31
      P1  H  7997  8010       L1    10  0.94
      P1  H 10752 10764       L1     1  0.62

> <Gold.Chemscore.Hbond.Weighted>
-6.0941

> <Gold.Chemscore.Metal.Weighted>
-0.0000

> <Gold.Chemscore.Lipo.Weighted>
-9.1849

> <Gold.Chemscore.Internal_Hbond.Weighted>
0.0000

> <Gold.Chemscore.DEClash.Weighted>
0.0465

> <Gold.Chemscore.DEInternal.Weighted>
1.1779

> <Gold.Chemscore.Rot.Weighted>
4.7827

> <Gold.Chemscore.Internal.Correction.Weighted>
   9.000000E+99

> <Gold.Protein.RotatedTorsions>
[ 6907 6896 6895 6894 ] final  106.48 input  -60.11 | X-H torsion
[ 7974 7965 7964 7962 ] final  156.06 input  175.53 | X-H torsion
[ 8008 7997 7996 7995 ] final   75.81 input   59.86 | X-H torsion
[ 10167 10162 10161 10158 ] final    9.46 input  -65.29 | X-H torsion
[ 10718 10713 10712 10709 ] final -114.67 input   66.30 | X-H torsion
[ 10763 10752 10751 10750 ] final  -17.23 input  -60.55 | X-H torsion
[ 11005 11000 10999 10996 ] final  100.39 input  -57.11 | X-H torsion

> <Gold.Protein.ActiveResidues>
 VAL166  LYS551  ARG553  GLY616  TRP617  ASP618  TYR619  PRO620  LYS621  CYS622 
 ASP623  PHE694  ASN695  SER759  ASP760  ASP761  ALA762  ILE779  LEU786  VAL792 
 PHE793  MET794  SER795  GLU796  ALA797  LYS798  CYS799  TRP800  GLU811  SER814 

> <Gold.Protein.RotatedAtoms>
  152.5192  133.9375  159.7610 H   0  0  0  0  0  0  0  0  0  0  0  0  # atno 6907 bound_to 6896
  150.9712  133.6333  159.2744 H   0  0  0  0  0  0  0  0  0  0  0  0  # atno 6908 bound_to 6896
  151.3544  135.0897  159.9466 H   0  0  0  0  0  0  0  0  0  0  0  0  # atno 6909 bound_to 6896
  144.7986  139.7152  143.6191 H   0  0  0  0  0  0  0  0  0  0  0  0  # atno 7974 bound_to 7965
  155.8182  140.3471  155.5498 H   0  0  0  0  0  0  0  0  0  0  0  0  # atno 8008 bound_to 7997
  155.8370  140.0935  157.1778 H   0  0  0  0  0  0  0  0  0  0  0  0  # atno 8009 bound_to 7997
  154.4004  140.1401  156.3669 H   0  0  0  0  0  0  0  0  0  0  0  0  # atno 8010 bound_to 7997
  140.6253  143.8114  150.7226 H   0  0  0  0  0  0  0  0  0  0  0  0  # atno 10167 bound_to 10162
  156.0845  130.6039  150.8806 H   0  0  0  0  0  0  0  0  0  0  0  0  # atno 10718 bound_to 10713
  153.5706  135.7007  153.5506 H   0  0  0  0  0  0  0  0  0  0  0  0  # atno 10763 bound_to 10752
  153.3347  135.4037  155.1524 H   0  0  0  0  0  0  0  0  0  0  0  0  # atno 10764 bound_to 10752
  154.8633  135.3727  154.5229 H   0  0  0  0  0  0  0  0  0  0  0  0  # atno 10765 bound_to 10752
  139.8771  134.9138  156.4749 H   0  0  0  0  0  0  0  0  0  0  0  0  # atno 11005 bound_to 11000
  146.2262  139.5726  142.9586 LP  0  0  0  0  0  0  0  0  0  0  0  0  # atno 17320 bound_to 7965
  145.5609  141.0404  143.2226 LP  0  0  0  0  0  0  0  0  0  0  0  0  # atno 17321 bound_to 7965
  140.1713  143.4192  152.1998 LP  0  0  0  0  0  0  0  0  0  0  0  0  # atno 17342 bound_to 10162
  139.5475  144.7310  151.4539 LP  0  0  0  0  0  0  0  0  0  0  0  0  # atno 17343 bound_to 10162
  157.5975  131.0942  150.9017 LP  0  0  0  0  0  0  0  0  0  0  0  0  # atno 17370 bound_to 10713
  156.9180  130.5305  149.5279 LP  0  0  0  0  0  0  0  0  0  0  0  0  # atno 17371 bound_to 10713
  140.8769  133.7947  155.9424 LP  0  0  0  0  0  0  0  0  0  0  0  0  # atno 17394 bound_to 11000
  140.8895  134.2513  157.5102 LP  0  0  0  0  0  0  0  0  0  0  0  0  # atno 17395 bound_to 11000

$$$$
