AV-unprocessed.smi:100|AV-procd|sdf|911|dock9
  -GOLD-   2262017413D 1   1.00000     0.00000
 Structure written by MMmdl.
 31 33  0  0  0  0  0  0  0  0  1 V2000
  152.3659  143.0474  161.0791 N   0  0  0  0  0  0  0  0  0  0  0  0
  152.6805  142.0541  160.2358 C   0  0  0  0  0  0  0  0  0  0  0  0
  153.8297  141.3710  160.4475 N   0  0  0  0  0  0  0  0  0  0  0  0
  154.1652  140.3749  159.6213 C   0  0  0  0  0  0  0  0  0  0  0  0
  153.5055  139.9165  158.5543 N   0  0  0  0  0  0  0  0  0  0  0  0
  152.3461  140.6056  158.3419 C   0  0  0  0  0  0  0  0  0  0  0  0
  151.8669  141.6855  159.1345 C   0  0  0  0  0  0  0  0  0  0  0  0
  150.6620  142.1489  158.6242 N   0  0  0  0  0  0  0  0  0  0  0  0
  150.4443  141.3828  157.5892 C   0  0  0  0  0  0  0  0  0  0  0  0
  151.4066  140.4273  157.3450 N   0  0  0  0  0  0  0  0  0  0  0  0
  151.4230  139.4182  156.2379 C   0  0  2  0  0  0  0  0  0  0  0  0
  151.0180  140.0215  155.0479 O   0  0  0  0  0  0  0  0  0  0  0  0
  150.1926  139.1384  154.2868 C   0  0  2  0  0  0  0  0  0  0  0  0
  148.8206  139.8051  154.0917 C   0  0  0  0  0  0  0  0  0  0  0  0
  148.0457  139.0723  153.1661 O   0  0  0  0  0  0  0  0  0  0  0  0
  150.1313  137.8223  155.0766 C   0  0  1  0  0  0  0  0  0  0  0  0
  151.0583  136.9834  154.6104 F   0  0  0  0  0  0  0  0  0  0  0  0
  150.4949  138.2237  156.4933 C   0  0  2  0  0  0  0  0  0  0  0  0
  149.3454  138.5286  157.2619 O   0  0  0  0  0  0  0  0  0  0  0  0
  151.5138  143.5720  160.9433 H   0  0  0  0  0  0  0  0  0  0  0  0
  152.9784  143.2650  161.8517 H   0  0  0  0  0  0  0  0  0  0  0  0
  155.0943  139.8727  159.8472 H   0  0  0  0  0  0  0  0  0  0  0  0
  149.5673  141.4954  156.9683 H   0  0  0  0  0  0  0  0  0  0  0  0
  152.4683  139.1205  156.1401 H   0  0  0  0  0  0  0  0  0  0  0  0
  150.6590  138.9829  153.3127 H   0  0  0  0  0  0  0  0  0  0  0  0
  148.2814  139.8893  155.0353 H   0  0  0  0  0  0  0  0  0  0  0  0
  148.9477  140.8158  153.7026 H   0  0  0  0  0  0  0  0  0  0  0  0
  148.3321  139.2942  152.2933 H   0  0  0  0  0  0  0  0  0  0  0  0
  149.1743  137.3043  154.9997 H   0  0  0  0  0  0  0  0  0  0  0  0
  151.0453  137.4395  157.0144 H   0  0  0  0  0  0  0  0  0  0  0  0
  149.4117  138.0778  158.0899 H   0  0  0  0  0  0  0  0  0  0  0  0
  1  2  1  0  0  0  0
  1 20  1  0  0  0  0
  1 21  1  0  0  0  0
  2  7  1  0  0  0  0
  2  3  2  0  0  0  0
  3  4  1  0  0  0  0
  4  5  2  0  0  0  0
  4 22  1  0  0  0  0
  5  6  1  0  0  0  0
  6 10  1  0  0  0  0
  6  7  2  0  0  0  0
  7  8  1  0  0  0  0
  8  9  2  0  0  0  0
  9 10  1  0  0  0  0
  9 23  1  0  0  0  0
 10 11  1  0  0  0  0
 11 18  1  0  0  0  0
 11 12  1  0  0  0  0
 11 24  1  0  0  0  0
 12 13  1  0  0  0  0
 13 14  1  0  0  0  0
 13 16  1  0  0  0  0
 13 25  1  0  0  0  0
 14 15  1  0  0  0  0
 14 26  1  0  0  0  0
 14 27  1  0  0  0  0
 15 28  1  0  0  0  0
 16 17  1  0  0  0  0
 16 18  1  0  0  0  0
 16 29  1  0  0  0  0
 18 19  1  0  0  0  0
 18 30  1  0  0  0  0
 19 31  1  0  0  0  0
M  END
> <s_m_source_file>
AV-unprocessed.smi

> <i_m_source_file_index>
100

> <i_lp_mmshare_version>
43012

> <i_f3d_flags>
0

> <s_epik_input>
bjFbY0hdbmMoW05IMl0pYyhjMTIpbltjSF1uMltDQEBIXTNPW0NAQEhdKFtDSDJdW09IXSlbQ0BIXShGKVtDQEhdM1tPSF0=

> <s_epik_cmdline>
J2VwaWtfcHl0aG9uJywgJy1waCcsICc3LjAnLCAnLXRuJywgJzgnLCAnLW1hJywgJzIwMCcsICctbWV0YWxfYmluZGluZycsICctaW1hZScsICc8aW5maWxlLm1hZT4nLCAnLW9tYWUnLCAnPG91dGZpbGUubWFlPic=

> <r_lp_tautomer_probability>
1

> <r_epik_Ionization_Penalty>
0.000750324

> <r_epik_Ionization_Penalty_Charging>
0

> <r_epik_Ionization_Penalty_Neutral>
0.000750324

> <r_epik_State_Penalty>
-0

> <r_epik_Charging_Adjusted_Penalty>
0

> <i_epik_Tot_Q>
0

> <i_epik_Tot_abs_Q>
0

> <r_epik_Metal_State_Penalty>
-0

> <b_epik_Metal_Only>
0

> <s_epik_Chemistry_Notes>
This compound contains an acetal/aminal-like group ( X-CH(R)-Y where X, Y are N, S, or O) that may be acid/base labile, releasing an aldehyde.

> <s_lp_Force_Field>
OPLS_2005

> <r_lp_Energy>
38.301

> <b_lp_Chiralities_Consistent>
1

> <s_lp_Variant>
AV-unprocessed.smi:100-15

> <Gold.Version>
5.8.1

> <Gold.Id.Protein>
6NUR|6NUR_protein|mol2

> <Gold.PLP.Fitness>
36.6580

> <Gold.PLP.PLP>
-29.5236

> <Gold.PLP.part.hbond>
-3.4796

> <Gold.PLP.part.metal>
0.0000

> <Gold.PLP.part.buried>
-4.3194

> <Gold.PLP.part.nonpolar>
-21.9513

> <Gold.PLP.part.repulsive>
0.1530

> <Gold.PLP.ligand.clash>
0.0000

> <Gold.PLP.ligand.torsion>
0.5465

> <Gold.PLP.Chemscore.Hbond>
2.7420

> <Gold.PLP.Chemscore.CHOScore>
0.0000

> <Gold.PLP.Chemscore.Metal>
0.0000

> <Gold.Chemscore.Hbonds>
donor molecule, donor type, donor heavy atom, donor atom, acceptor molecule, acceptor atom, score
      L1  H    15    28       P1  7957  1.00
      P1  H  7989  7998       L1    12  0.60
      P1  H  7997  8010       L1     5  1.00

> <Gold.PLP.Chemscore.Internal.Correction>
0.0014

> <Gold.Rescore>
     Score         DG    S(hbond)    S(metal)    S(lipo)     H(rot)  DE(clash)    DE(int)     intcor
      6.24      -6.90       1.73        0.00      32.46       3.19       0.02       0.64       ----

> <Gold.Chemscore.Fitness>
6.2406

> <Gold.Chemscore.DG>
-6.8993

> <Gold.Chemscore.ZeroCoef>
-5.4800

> <Gold.Chemscore.Hbond>
1.7331

> <Gold.Chemscore.Metal>
0.0000

> <Gold.Chemscore.Lipo>
32.4572

> <Gold.Chemscore.Internal_Hbond>
0.0000

> <Gold.Chemscore.DEClash>
0.0215

> <Gold.Chemscore.DEInternal>
0.6372

> <Gold.Chemscore.Rot>
3.1901

> <Gold.Chemscore.Internal.Correction>
   9.000000E+99

> <Gold.Chemscore.Hbonds>
donor molecule, donor type, donor heavy atom, donor atom, acceptor molecule, acceptor atom, score
      L1  H    15    28       P1  7957  0.95
      P1  H  7989  7998       L1    12  0.04
      P1  H  7997  8010       L1     5  0.35

> <Gold.Chemscore.Hbond.Weighted>
-5.7884

> <Gold.Chemscore.Metal.Weighted>
-0.0000

> <Gold.Chemscore.Lipo.Weighted>
-3.7975

> <Gold.Chemscore.Internal_Hbond.Weighted>
0.0000

> <Gold.Chemscore.DEClash.Weighted>
0.0215

> <Gold.Chemscore.DEInternal.Weighted>
0.6372

> <Gold.Chemscore.Rot.Weighted>
8.1667

> <Gold.Chemscore.Internal.Correction.Weighted>
   9.000000E+99

> <Gold.Protein.RotatedTorsions>
[ 6907 6896 6895 6894 ] final  156.64 input  -60.11 | X-H torsion
[ 7974 7965 7964 7962 ] final -143.92 input  175.53 | X-H torsion
[ 8008 7997 7996 7995 ] final   20.58 input   59.86 | X-H torsion
[ 10167 10162 10161 10158 ] final -112.87 input  -65.29 | X-H torsion
[ 10718 10713 10712 10709 ] final  130.96 input   66.30 | X-H torsion
[ 10763 10752 10751 10750 ] final  -41.36 input  -60.55 | X-H torsion
[ 11005 11000 10999 10996 ] final  156.00 input  -57.11 | X-H torsion

> <Gold.Protein.ActiveResidues>
 VAL166  LYS551  ARG553  GLY616  TRP617  ASP618  TYR619  PRO620  LYS621  CYS622 
 ASP623  PHE694  ASN695  SER759  ASP760  ASP761  ALA762  ILE779  LEU786  VAL792 
 PHE793  MET794  SER795  GLU796  ALA797  LYS798  CYS799  TRP800  GLU811  SER814 

> <Gold.Protein.RotatedAtoms>
  152.0268  133.3921  159.4280 H   0  0  0  0  0  0  0  0  0  0  0  0  # atno 6907 bound_to 6896
  150.6885  134.3565  159.4941 H   0  0  0  0  0  0  0  0  0  0  0  0  # atno 6908 bound_to 6896
  152.1346  134.9108  160.0607 H   0  0  0  0  0  0  0  0  0  0  0  0  # atno 6909 bound_to 6896
  144.8334  140.5774  143.5500 H   0  0  0  0  0  0  0  0  0  0  0  0  # atno 7974 bound_to 7965
  154.9377  140.3049  155.5136 H   0  0  0  0  0  0  0  0  0  0  0  0  # atno 8008 bound_to 7997
  156.2998  140.2342  156.4380 H   0  0  0  0  0  0  0  0  0  0  0  0  # atno 8009 bound_to 7997
  154.8176  140.0425  157.1376 H   0  0  0  0  0  0  0  0  0  0  0  0  # atno 8010 bound_to 7997
  140.1180  143.4469  152.1709 H   0  0  0  0  0  0  0  0  0  0  0  0  # atno 10167 bound_to 10162
  157.5012  131.1094  150.9424 H   0  0  0  0  0  0  0  0  0  0  0  0  # atno 10718 bound_to 10713
  153.9612  135.6739  153.4745 H   0  0  0  0  0  0  0  0  0  0  0  0  # atno 10763 bound_to 10752
  153.0837  135.4910  154.8551 H   0  0  0  0  0  0  0  0  0  0  0  0  # atno 10764 bound_to 10752
  154.7271  135.3130  154.8912 H   0  0  0  0  0  0  0  0  0  0  0  0  # atno 10765 bound_to 10752
  140.1634  134.8593  157.2602 H   0  0  0  0  0  0  0  0  0  0  0  0  # atno 11005 bound_to 11000
  145.4846  139.1493  143.3743 LP  0  0  0  0  0  0  0  0  0  0  0  0  # atno 17320 bound_to 7965
  146.2635  140.4983  142.8843 LP  0  0  0  0  0  0  0  0  0  0  0  0  # atno 17321 bound_to 7965
  139.5584  144.7389  151.4227 LP  0  0  0  0  0  0  0  0  0  0  0  0  # atno 17342 bound_to 10162
  140.6888  143.7910  150.7225 LP  0  0  0  0  0  0  0  0  0  0  0  0  # atno 17343 bound_to 10162
  157.0094  130.5631  149.5319 LP  0  0  0  0  0  0  0  0  0  0  0  0  # atno 17370 bound_to 10713
  156.0230  130.5325  150.8330 LP  0  0  0  0  0  0  0  0  0  0  0  0  # atno 17371 bound_to 10713
  140.2463  134.3736  155.7460 LP  0  0  0  0  0  0  0  0  0  0  0  0  # atno 17394 bound_to 11000
  141.2211  133.7292  156.8866 LP  0  0  0  0  0  0  0  0  0  0  0  0  # atno 17395 bound_to 11000

$$$$
