AV-unprocessed.smi:657|AV-procd|sdf|3228|dock5
  -GOLD-   22720 0173D 1   1.00000     0.00000
 Structure written by MMmdl.
 46 47  0  0  0  0  0  0  0  0  3 V2000
  145.9739  137.3710  154.0515 C   0  0  0  0  0  0  0  0  0  0  0  0
  147.1199  138.3909  153.8813 C   0  0  0  0  0  0  0  0  0  0  0  0
  146.9805  139.0385  152.4871 C   0  0  0  0  0  0  0  0  0  0  0  0
  148.4827  137.7872  154.0866 N   0  3  2  0  0  0  0  0  0  0  0  0
  148.5744  136.8146  155.2189 C   0  0  0  0  0  0  0  0  0  0  0  0
  149.9238  136.0772  155.2367 C   0  0  0  0  0  0  0  0  0  0  0  0
  151.1009  137.0520  155.2928 C   0  0  0  0  0  0  0  0  0  0  0  0
  150.9908  138.0537  154.1364 C   0  0  0  0  0  0  0  0  0  0  0  0
  149.6205  138.7706  154.0770 C   0  0  2  0  0  0  0  0  0  0  0  0
  149.4990  139.8971  155.1360 C   0  0  0  0  0  0  0  0  0  0  0  0
  148.4271  140.0529  155.7303 O   0  0  0  0  0  0  0  0  0  0  0  0
  150.6626  140.5942  155.2436 N   0  5  0  0  0  0  0  0  0  0  0  0
  151.2310  141.0377  156.5143 C   0  0  0  0  0  0  0  0  0  0  0  0
  150.3270  142.1048  157.1657 C   0  0  0  0  0  0  0  0  0  0  0  0
  151.0505  143.0105  158.1362 C   0  0  0  0  0  0  0  0  0  0  0  0
  152.3320  142.8169  158.7306 C   0  0  0  0  0  0  0  0  0  0  0  0
  152.6858  143.8084  159.5323 N   0  0  0  0  0  0  0  0  0  0  0  0
  151.6508  144.6711  159.4745 N   0  0  0  0  0  0  0  0  0  0  0  0
  151.6970  145.8949  160.2457 C   0  0  0  0  0  0  0  0  0  0  0  0
  150.6522  144.2184  158.6396 C   0  0  0  0  0  0  0  0  0  0  0  0
  145.0160  137.8062  153.7650 H   0  0  0  0  0  0  0  0  0  0  0  0
  145.8573  137.0522  155.0871 H   0  0  0  0  0  0  0  0  0  0  0  0
  146.1298  136.4865  153.4327 H   0  0  0  0  0  0  0  0  0  0  0  0
  146.9619  139.1660  154.6321 H   0  0  0  0  0  0  0  0  0  0  0  0
  145.9629  139.3920  152.3190 H   0  0  0  0  0  0  0  0  0  0  0  0
  147.2165  138.3276  151.6948 H   0  0  0  0  0  0  0  0  0  0  0  0
  147.6231  139.9085  152.3618 H   0  0  0  0  0  0  0  0  0  0  0  0
  148.3955  137.3174  156.1692 H   0  0  0  0  0  0  0  0  0  0  0  0
  147.8122  136.0433  155.1308 H   0  0  0  0  0  0  0  0  0  0  0  0
  149.9648  135.3988  156.0894 H   0  0  0  0  0  0  0  0  0  0  0  0
  150.0091  135.4552  154.3447 H   0  0  0  0  0  0  0  0  0  0  0  0
  151.1170  137.5665  156.2531 H   0  0  0  0  0  0  0  0  0  0  0  0
  152.0422  136.5061  155.2246 H   0  0  0  0  0  0  0  0  0  0  0  0
  151.7982  138.7847  154.2026 H   0  0  0  0  0  0  0  0  0  0  0  0
  151.1497  137.5218  153.1973 H   0  0  0  0  0  0  0  0  0  0  0  0
  149.6203  139.2282  153.0869 H   0  0  0  0  0  0  0  0  0  0  0  0
  151.3284  140.2022  157.2085 H   0  0  0  0  0  0  0  0  0  0  0  0
  152.2366  141.4426  156.3949 H   0  0  0  0  0  0  0  0  0  0  0  0
  149.8426  142.6914  156.3839 H   0  0  0  0  0  0  0  0  0  0  0  0
  149.5134  141.5912  157.6784 H   0  0  0  0  0  0  0  0  0  0  0  0
  153.0094  141.9853  158.6036 H   0  0  0  0  0  0  0  0  0  0  0  0
  150.9169  146.5778  159.9079 H   0  0  0  0  0  0  0  0  0  0  0  0
  152.6669  146.3780  160.1218 H   0  0  0  0  0  0  0  0  0  0  0  0
  151.5405  145.6694  161.3008 H   0  0  0  0  0  0  0  0  0  0  0  0
  149.7477  144.7848  158.4738 H   0  0  0  0  0  0  0  0  0  0  0  0
  148.6343  137.2225  153.2639 H   0  0  0  0  0  0  0  0  0  0  0  0
  1  2  1  0  0  0  0
  1 21  1  0  0  0  0
  1 22  1  0  0  0  0
  1 23  1  0  0  0  0
  2  3  1  0  0  0  0
  2  4  1  0  0  0  0
  2 24  1  0  0  0  0
  3 25  1  0  0  0  0
  3 26  1  0  0  0  0
  3 27  1  0  0  0  0
  4  9  1  0  0  0  0
  4  5  1  0  0  0  0
  4 46  1  0  0  0  0
  5  6  1  0  0  0  0
  5 28  1  0  0  0  0
  5 29  1  0  0  0  0
  6  7  1  0  0  0  0
  6 30  1  0  0  0  0
  6 31  1  0  0  0  0
  7  8  1  0  0  0  0
  7 32  1  0  0  0  0
  7 33  1  0  0  0  0
  8  9  1  0  0  0  0
  8 34  1  0  0  0  0
  8 35  1  0  0  0  0
  9 10  1  0  0  0  0
  9 36  1  0  0  0  0
 10 11  2  0  0  0  0
 10 12  1  0  0  0  0
 12 13  1  0  0  0  0
 13 14  1  0  0  0  0
 13 37  1  0  0  0  0
 13 38  1  0  0  0  0
 14 15  1  0  0  0  0
 14 39  1  0  0  0  0
 14 40  1  0  0  0  0
 15 20  2  0  0  0  0
 15 16  1  0  0  0  0
 16 17  2  0  0  0  0
 16 41  1  0  0  0  0
 17 18  1  0  0  0  0
 18 19  1  0  0  0  0
 18 20  1  0  0  0  0
 19 42  1  0  0  0  0
 19 43  1  0  0  0  0
 19 44  1  0  0  0  0
 20 45  1  0  0  0  0
M  CHG  1   4   1
M  CHG  1  12  -1
M  END
> <s_m_source_file>
AV-unprocessed.smi

> <i_m_source_file_index>
657

> <i_lp_mmshare_version>
43012

> <i_f3d_flags>
0

> <s_epik_input>
W0NIM11bQ0hdKFtDSDNdKU4xW0NIMl1bQ0gyXVtDSDJdW0NIMl1bQ0BIXTFDKD1PKVtOSF1bQ0gyXVtDSDJdYzJbY0hdbm4oW0NIM10pW2NIXTI=

> <s_epik_cmdline>
J2VwaWtfcHl0aG9uJywgJy1waCcsICc3LjAnLCAnLXRuJywgJzgnLCAnLW1hJywgJzIwMCcsICctbWV0YWxfYmluZGluZycsICctaW1hZScsICc8aW5maWxlLm1hZT4nLCAnLW9tYWUnLCAnPG91dGZpbGUubWFlPic=

> <r_lp_tautomer_probability>
1

> <r_epik_Ionization_Penalty>
6.1622

> <r_epik_Ionization_Penalty_Charging>
6.16146

> <r_epik_Ionization_Penalty_Neutral>
0.00073675

> <r_epik_State_Penalty>
6.18018

> <r_epik_Charging_Adjusted_Penalty>
12.3416

> <i_epik_Tot_Q>
0

> <i_epik_Tot_abs_Q>
2

> <r_epik_Metal_State_Penalty>
2.12232

> <b_epik_Metal_Only>
1

> <s_lp_Force_Field>
OPLS_2005

> <r_lp_Energy>
13.854

> <b_lp_Chiralities_Consistent>
1

> <s_lp_Variant>
AV-unprocessed.smi:657-9

> <Gold.Version>
5.8.1

> <Gold.Id.Protein>
6NUR|6NUR_protein|mol2

> <Gold.PLP.Fitness>
48.6151

> <Gold.PLP.PLP>
-38.8752

> <Gold.PLP.part.hbond>
-2.0000

> <Gold.PLP.part.metal>
0.0000

> <Gold.PLP.part.buried>
-4.3474

> <Gold.PLP.part.nonpolar>
-33.0452

> <Gold.PLP.part.repulsive>
0.0853

> <Gold.PLP.ligand.clash>
0.0000

> <Gold.PLP.ligand.torsion>
1.2660

> <Gold.PLP.Chemscore.Hbond>
2.9920

> <Gold.PLP.Chemscore.CHOScore>
1.0247

> <Gold.PLP.Chemscore.Metal>
0.0000

> <Gold.Chemscore.Hbonds>
donor molecule, donor type, donor heavy atom, donor atom, acceptor molecule, acceptor atom, score
      L1  H     4    46       P1  7948  2.00
      P1  H  7989  7998       L1    12  0.94
      L1  C    20    45       P1  8028  0.01
      L1  C    20    45       P1  8029  1.00

> <Gold.PLP.Chemscore.Internal.Correction>
0.2216

> <Gold.Rescore>
     Score         DG    S(hbond)    S(metal)    S(lipo)     H(rot)  DE(clash)    DE(int)     intcor
     15.44     -19.20       1.86        0.00      98.67       1.57       0.23       3.53       ----

> <Gold.Chemscore.Fitness>
15.4398

> <Gold.Chemscore.DG>
-19.2033

> <Gold.Chemscore.ZeroCoef>
-5.4800

> <Gold.Chemscore.Hbond>
1.8587

> <Gold.Chemscore.Metal>
0.0000

> <Gold.Chemscore.Lipo>
98.6749

> <Gold.Chemscore.Internal_Hbond>
0.0000

> <Gold.Chemscore.DEClash>
0.2325

> <Gold.Chemscore.DEInternal>
3.5309

> <Gold.Chemscore.Rot>
1.5741

> <Gold.Chemscore.Internal.Correction>
   9.000000E+99

> <Gold.Chemscore.Hbonds>
donor molecule, donor type, donor heavy atom, donor atom, acceptor molecule, acceptor atom, score
      L1  H     4    46       P1  7948  1.00
      P1  H  7989  7998       L1    12  0.77

> <Gold.Chemscore.Hbond.Weighted>
-6.2080

> <Gold.Chemscore.Metal.Weighted>
-0.0000

> <Gold.Chemscore.Lipo.Weighted>
-11.5450

> <Gold.Chemscore.Internal_Hbond.Weighted>
0.0000

> <Gold.Chemscore.DEClash.Weighted>
0.2325

> <Gold.Chemscore.DEInternal.Weighted>
3.5309

> <Gold.Chemscore.Rot.Weighted>
4.0297

> <Gold.Chemscore.Internal.Correction.Weighted>
   9.000000E+99

> <Gold.Protein.RotatedTorsions>
[ 6907 6896 6895 6894 ] final -145.83 input  -60.11 | X-H torsion
[ 7974 7965 7964 7962 ] final  159.65 input  175.53 | X-H torsion
[ 8008 7997 7996 7995 ] final  132.23 input   59.86 | X-H torsion
[ 10167 10162 10161 10158 ] final   65.47 input  -65.29 | X-H torsion
[ 10718 10713 10712 10709 ] final  -68.85 input   66.30 | X-H torsion
[ 10763 10752 10751 10750 ] final   46.03 input  -60.55 | X-H torsion
[ 11005 11000 10999 10996 ] final  -73.21 input  -57.11 | X-H torsion

> <Gold.Protein.ActiveResidues>
 VAL166  LYS551  ARG553  GLY616  TRP617  ASP618  TYR619  PRO620  LYS621  CYS622 
 ASP623  PHE694  ASN695  SER759  ASP760  ASP761  ALA762  ILE779  LEU786  VAL792 
 PHE793  MET794  SER795  GLU796  ALA797  LYS798  CYS799  TRP800  GLU811  SER814 

> <Gold.Protein.RotatedAtoms>
  151.1332  133.5022  159.2598 H   0  0  0  0  0  0  0  0  0  0  0  0  # atno 6907 bound_to 6896
  151.1735  135.0328  159.8772 H   0  0  0  0  0  0  0  0  0  0  0  0  # atno 6908 bound_to 6896
  152.5460  134.1192  159.8445 H   0  0  0  0  0  0  0  0  0  0  0  0  # atno 6909 bound_to 6896
  144.7779  139.7646  143.6271 H   0  0  0  0  0  0  0  0  0  0  0  0  # atno 7974 bound_to 7965
  156.2980  140.2551  156.3056 H   0  0  0  0  0  0  0  0  0  0  0  0  # atno 8008 bound_to 7997
  154.9376  140.0397  157.2099 H   0  0  0  0  0  0  0  0  0  0  0  0  # atno 8009 bound_to 7997
  154.8158  140.2852  155.5826 H   0  0  0  0  0  0  0  0  0  0  0  0  # atno 8010 bound_to 7997
  140.1109  144.4819  150.6978 H   0  0  0  0  0  0  0  0  0  0  0  0  # atno 10167 bound_to 10162
  156.0484  130.4302  150.2061 H   0  0  0  0  0  0  0  0  0  0  0  0  # atno 10718 bound_to 10713
  152.9816  135.6021  154.3533 H   0  0  0  0  0  0  0  0  0  0  0  0  # atno 10763 bound_to 10752
  154.3221  135.2769  155.2516 H   0  0  0  0  0  0  0  0  0  0  0  0  # atno 10764 bound_to 10752
  154.4678  135.5949  153.6356 H   0  0  0  0  0  0  0  0  0  0  0  0  # atno 10765 bound_to 10752
  141.1619  133.6871  156.7176 H   0  0  0  0  0  0  0  0  0  0  0  0  # atno 11005 bound_to 11000
  146.1970  139.5241  142.9768 LP  0  0  0  0  0  0  0  0  0  0  0  0  # atno 17320 bound_to 7965
  145.6134  141.0335  143.1954 LP  0  0  0  0  0  0  0  0  0  0  0  0  # atno 17321 bound_to 7965
  140.6926  143.2385  151.5090 LP  0  0  0  0  0  0  0  0  0  0  0  0  # atno 17342 bound_to 10162
  139.5619  144.2134  152.1705 LP  0  0  0  0  0  0  0  0  0  0  0  0  # atno 17343 bound_to 10162
  157.0147  130.9961  151.3356 LP  0  0  0  0  0  0  0  0  0  0  0  0  # atno 17370 bound_to 10713
  157.5385  130.8105  149.8001 LP  0  0  0  0  0  0  0  0  0  0  0  0  # atno 17371 bound_to 10713
  140.2840  134.8294  157.3958 LP  0  0  0  0  0  0  0  0  0  0  0  0  # atno 17394 bound_to 11000
  140.1407  134.4975  155.8033 LP  0  0  0  0  0  0  0  0  0  0  0  0  # atno 17395 bound_to 11000

$$$$
