AV-unprocessed.smi:1517|AV-procd|sdf|6120|dock7
  -GOLD-   22720 6253D 1   1.00000     0.00000
 Structure written by MMmdl.
 42 44  0  0  0  0  0  0  0  0  2 V2000
  148.3922  140.8736  153.4715 O   0  0  0  0  0  0  0  0  0  0  0  0
  149.4347  140.4833  154.3371 C   0  0  0  0  0  0  0  0  0  0  0  0
  149.4100  141.3626  155.5917 C   0  0  0  0  0  0  0  0  0  0  0  0
  150.4598  140.9872  156.5239 N   0  0  0  0  0  0  0  0  0  0  0  0
  150.8989  141.9490  157.4399 C   0  0  0  0  0  0  0  0  0  0  0  0
  150.7414  143.2945  157.3233 N   0  3  0  0  0  0  0  0  0  0  0  0
  151.2955  143.9013  158.4541 C   0  0  0  0  0  0  0  0  0  0  0  0
  151.3853  145.2428  158.8127 C   0  0  0  0  0  0  0  0  0  0  0  0
  152.0074  145.5287  160.0458 C   0  0  0  0  0  0  0  0  0  0  0  0
  152.5110  144.5025  160.8716 C   0  0  0  0  0  0  0  0  0  0  0  0
  152.4167  143.1451  160.5001 C   0  0  0  0  0  0  0  0  0  0  0  0
  151.8036  142.8686  159.2788 C   0  0  0  0  0  0  0  0  0  0  0  0
  151.5378  141.6698  158.6057 N   0  0  0  0  0  0  0  0  0  0  0  0
  151.9212  140.3877  159.2153 C   0  0  0  0  0  0  0  0  0  0  0  0
  153.4441  140.1505  159.1723 C   0  0  2  0  0  0  0  0  0  0  0  0
  153.7659  139.6079  157.9081 O   0  0  0  0  0  0  0  0  0  0  0  0
  153.9190  139.2693  160.3230 C   0  0  0  0  0  0  0  0  0  0  0  0
  154.8417  139.7686  161.2697 C   0  0  0  0  0  0  0  0  0  0  0  0
  155.3066  138.9463  162.3138 C   0  0  0  0  0  0  0  0  0  0  0  0
  154.8565  137.6167  162.4166 C   0  0  0  0  0  0  0  0  0  0  0  0
  155.3092  136.8236  163.4162 F   0  0  0  0  0  0  0  0  0  0  0  0
  153.9396  137.1110  161.4761 C   0  0  0  0  0  0  0  0  0  0  0  0
  153.4715  137.9322  160.4318 C   0  0  0  0  0  0  0  0  0  0  0  0
  152.6041  137.4224  159.5242 F   0  0  0  0  0  0  0  0  0  0  0  0
  148.6993  140.8043  152.5802 H   0  0  0  0  0  0  0  0  0  0  0  0
  149.3046  139.4325  154.5972 H   0  0  0  0  0  0  0  0  0  0  0  0
  150.3873  140.5779  153.8150 H   0  0  0  0  0  0  0  0  0  0  0  0
  149.5344  142.4102  155.3145 H   0  0  0  0  0  0  0  0  0  0  0  0
  148.4428  141.2700  156.0880 H   0  0  0  0  0  0  0  0  0  0  0  0
  150.5640  140.0105  156.7594 H   0  0  0  0  0  0  0  0  0  0  0  0
  150.9979  146.0316  158.1846 H   0  0  0  0  0  0  0  0  0  0  0  0
  152.0984  146.5568  160.3658 H   0  0  0  0  0  0  0  0  0  0  0  0
  152.9790  144.7612  161.8104 H   0  0  0  0  0  0  0  0  0  0  0  0
  152.8037  142.3667  161.1411 H   0  0  0  0  0  0  0  0  0  0  0  0
  151.5583  140.3813  160.2442 H   0  0  0  0  0  0  0  0  0  0  0  0
  151.3855  139.5907  158.6978 H   0  0  0  0  0  0  0  0  0  0  0  0
  153.9567  141.1113  159.2258 H   0  0  0  0  0  0  0  0  0  0  0  0
  153.2546  138.8237  157.7783 H   0  0  0  0  0  0  0  0  0  0  0  0
  155.2048  140.7833  161.1939 H   0  0  0  0  0  0  0  0  0  0  0  0
  156.0135  139.3342  163.0325 H   0  0  0  0  0  0  0  0  0  0  0  0
  153.5984  136.0890  161.5528 H   0  0  0  0  0  0  0  0  0  0  0  0
  150.2915  143.7545  156.5424 H   0  0  0  0  0  0  0  0  0  0  0  0
  1  2  1  0  0  0  0
  1 25  1  0  0  0  0
  2  3  1  0  0  0  0
  2 26  1  0  0  0  0
  2 27  1  0  0  0  0
  3  4  1  0  0  0  0
  3 28  1  0  0  0  0
  3 29  1  0  0  0  0
  4  5  1  0  0  0  0
  4 30  1  0  0  0  0
  5 13  1  0  0  0  0
  5  6  2  0  0  0  0
  6  7  1  0  0  0  0
  6 42  1  0  0  0  0
  7 12  2  0  0  0  0
  7  8  1  0  0  0  0
  8  9  2  0  0  0  0
  8 31  1  0  0  0  0
  9 10  1  0  0  0  0
  9 32  1  0  0  0  0
 10 11  2  0  0  0  0
 10 33  1  0  0  0  0
 11 12  1  0  0  0  0
 11 34  1  0  0  0  0
 12 13  1  0  0  0  0
 13 14  1  0  0  0  0
 14 15  1  0  0  0  0
 14 35  1  0  0  0  0
 14 36  1  0  0  0  0
 15 16  1  0  0  0  0
 15 17  1  0  0  0  0
 15 37  1  0  0  0  0
 16 38  1  0  0  0  0
 17 23  1  0  0  0  0
 17 18  2  0  0  0  0
 18 19  1  0  0  0  0
 18 39  1  0  0  0  0
 19 20  2  0  0  0  0
 19 40  1  0  0  0  0
 20 21  1  0  0  0  0
 20 22  1  0  0  0  0
 22 23  2  0  0  0  0
 22 41  1  0  0  0  0
 23 24  1  0  0  0  0
M  CHG  1   6   1
M  END
> <s_m_source_file>
AV-unprocessed.smi

> <i_m_source_file_index>
1517

> <i_lp_mmshare_version>
43012

> <i_f3d_flags>
0

> <s_epik_input>
W09IXVtDSDJdW0NIMl1bTkhdYyhuMSluKGMoYzEyKVtjSF1bY0hdW2NIXVtjSF0yKVtDSDJdW0NASF0oW09IXSljM1tjSF1bY0hdYyhGKVtjSF1jM0Y=

> <s_epik_cmdline>
J2VwaWtfcHl0aG9uJywgJy1waCcsICc3LjAnLCAnLXRuJywgJzgnLCAnLW1hJywgJzIwMCcsICctbWV0YWxfYmluZGluZycsICctaW1hZScsICc8aW5maWxlLm1hZT4nLCAnLW9tYWUnLCAnPG91dGZpbGUubWFlPic=

> <r_epik_Ionization_Penalty>
0.0688096

> <r_epik_Ionization_Penalty_Charging>
0.0688055

> <r_epik_Ionization_Penalty_Neutral>
4.12262e-06

> <r_epik_State_Penalty>
0.0602293

> <r_epik_Charging_Adjusted_Penalty>
0.129035

> <i_epik_Tot_Q>
1

> <i_epik_Tot_abs_Q>
1

> <r_epik_Metal_State_Penalty>
2.77411

> <b_epik_Metal_Only>
0

> <s_lp_Force_Field>
OPLS_2005

> <r_lp_Energy>
18.8563

> <b_lp_Chiralities_Consistent>
1

> <s_lp_Variant>
AV-unprocessed.smi:1517-1

> <Gold.Version>
5.8.1

> <Gold.Id.Protein>
6NUR|6NUR_protein|mol2

> <Gold.PLP.Fitness>
62.3753

> <Gold.PLP.PLP>
-51.5898

> <Gold.PLP.part.hbond>
-2.9805

> <Gold.PLP.part.metal>
0.0000

> <Gold.PLP.part.buried>
-5.7014

> <Gold.PLP.part.nonpolar>
-42.2235

> <Gold.PLP.part.repulsive>
0.0506

> <Gold.PLP.ligand.clash>
0.0000

> <Gold.PLP.ligand.torsion>
0.6107

> <Gold.PLP.Chemscore.Hbond>
3.9913

> <Gold.PLP.Chemscore.CHOScore>
0.0000

> <Gold.PLP.Chemscore.Metal>
0.0000

> <Gold.Chemscore.Hbonds>
donor molecule, donor type, donor heavy atom, donor atom, acceptor molecule, acceptor atom, score
      L1  H     1    25       P1  7957  1.00
      L1  H     6    42       P1  8028  2.00
      P1  H  7997  8009       L1    16  0.39

> <Gold.PLP.Chemscore.Internal.Correction>
0.0331

> <Gold.Rescore>
     Score         DG    S(hbond)    S(metal)    S(lipo)     H(rot)  DE(clash)    DE(int)     intcor
     20.79     -22.86       2.93        0.00     136.88       3.29       0.09       1.98       ----

> <Gold.Chemscore.Fitness>
20.7864

> <Gold.Chemscore.DG>
-22.8573

> <Gold.Chemscore.ZeroCoef>
-5.4800

> <Gold.Chemscore.Hbond>
2.9277

> <Gold.Chemscore.Metal>
0.0000

> <Gold.Chemscore.Lipo>
136.8780

> <Gold.Chemscore.Internal_Hbond>
0.0000

> <Gold.Chemscore.DEClash>
0.0940

> <Gold.Chemscore.DEInternal>
1.9769

> <Gold.Chemscore.Rot>
3.2874

> <Gold.Chemscore.Internal.Correction>
   9.000000E+99

> <Gold.Chemscore.Hbonds>
donor molecule, donor type, donor heavy atom, donor atom, acceptor molecule, acceptor atom, score
      L1  H     1    25       P1  7957  0.99
      L1  H     6    42       P1  8028  0.98
      P1  H  7997  8009       L1    16  0.39

> <Gold.Chemscore.Hbond.Weighted>
-9.7784

> <Gold.Chemscore.Metal.Weighted>
-0.0000

> <Gold.Chemscore.Lipo.Weighted>
-16.0147

> <Gold.Chemscore.Internal_Hbond.Weighted>
0.0000

> <Gold.Chemscore.DEClash.Weighted>
0.0940

> <Gold.Chemscore.DEInternal.Weighted>
1.9769

> <Gold.Chemscore.Rot.Weighted>
8.4158

> <Gold.Chemscore.Internal.Correction.Weighted>
   9.000000E+99

> <Gold.Protein.RotatedTorsions>
[ 6907 6896 6895 6894 ] final   -2.25 input  -60.11 | X-H torsion
[ 7974 7965 7964 7962 ] final -109.74 input  175.53 | X-H torsion
[ 8008 7997 7996 7995 ] final  158.49 input   59.86 | X-H torsion
[ 10167 10162 10161 10158 ] final -117.72 input  -65.29 | X-H torsion
[ 10718 10713 10712 10709 ] final  102.88 input   66.30 | X-H torsion
[ 10763 10752 10751 10750 ] final  -64.21 input  -60.55 | X-H torsion
[ 11005 11000 10999 10996 ] final   76.21 input  -57.11 | X-H torsion

> <Gold.Protein.ActiveResidues>
 VAL166  LYS551  ARG553  GLY616  TRP617  ASP618  TYR619  PRO620  LYS621  CYS622 
 ASP623  PHE694  ASN695  SER759  ASP760  ASP761  ALA762  ILE779  LEU786  VAL792 
 PHE793  MET794  SER795  GLU796  ALA797  LYS798  CYS799  TRP800  GLU811  SER814 

> <Gold.Protein.RotatedAtoms>
  151.5329  135.1068  159.9906 H   0  0  0  0  0  0  0  0  0  0  0  0  # atno 6907 bound_to 6896
  152.4570  133.7740  159.6825 H   0  0  0  0  0  0  0  0  0  0  0  0  # atno 6908 bound_to 6896
  150.8518  133.7710  159.3047 H   0  0  0  0  0  0  0  0  0  0  0  0  # atno 6909 bound_to 6896
  145.1768  140.8952  143.3503 H   0  0  0  0  0  0  0  0  0  0  0  0  # atno 7974 bound_to 7965
  156.2299  140.1857  156.7268 H   0  0  0  0  0  0  0  0  0  0  0  0  # atno 8008 bound_to 7997
  154.6005  140.0637  156.9390 H   0  0  0  0  0  0  0  0  0  0  0  0  # atno 8009 bound_to 7997
  155.2182  140.3305  155.4321 H   0  0  0  0  0  0  0  0  0  0  0  0  # atno 8010 bound_to 7997
  140.0653  143.4929  152.2009 H   0  0  0  0  0  0  0  0  0  0  0  0  # atno 10167 bound_to 10162
  157.6789  131.0764  150.5471 H   0  0  0  0  0  0  0  0  0  0  0  0  # atno 10718 bound_to 10713
  154.3266  135.6185  153.5532 H   0  0  0  0  0  0  0  0  0  0  0  0  # atno 10763 bound_to 10752
  152.9815  135.5737  154.5009 H   0  0  0  0  0  0  0  0  0  0  0  0  # atno 10764 bound_to 10752
  154.4687  135.2858  155.1635 H   0  0  0  0  0  0  0  0  0  0  0  0  # atno 10765 bound_to 10752
  139.9308  134.7582  156.1367 H   0  0  0  0  0  0  0  0  0  0  0  0  # atno 11005 bound_to 11000
  145.0177  139.3452  143.6088 LP  0  0  0  0  0  0  0  0  0  0  0  0  # atno 17320 bound_to 7965
  146.3460  139.9465  142.8734 LP  0  0  0  0  0  0  0  0  0  0  0  0  # atno 17321 bound_to 7965
  139.5869  144.7534  151.3499 LP  0  0  0  0  0  0  0  0  0  0  0  0  # atno 17342 bound_to 10162
  140.7152  143.7285  150.7641 LP  0  0  0  0  0  0  0  0  0  0  0  0  # atno 17343 bound_to 10162
  156.5776  130.4296  149.5991 LP  0  0  0  0  0  0  0  0  0  0  0  0  # atno 17370 bound_to 10713
  156.2688  130.7005  151.1796 LP  0  0  0  0  0  0  0  0  0  0  0  0  # atno 17371 bound_to 10713
  141.0896  133.6720  156.2511 LP  0  0  0  0  0  0  0  0  0  0  0  0  # atno 17394 bound_to 11000
  140.6206  134.5365  157.5547 LP  0  0  0  0  0  0  0  0  0  0  0  0  # atno 17395 bound_to 11000

$$$$
