AV-unprocessed.smi:66|AV-procd|sdf|627|dock5
  -GOLD-   2262016523D 1   1.00000     0.00000
 Structure written by MMmdl.
 27 29  0  0  0  0  0  0  0  0  3 V2000
  153.1249  139.3875  155.0655 O   0  0  0  0  0  0  0  0  0  0  0  0
  152.1247  138.6598  154.8818 C   0  0  0  0  0  0  0  0  0  0  0  0
  152.1471  137.5104  154.3875 O   0  5  0  0  0  0  0  0  0  0  0  0
  150.7668  139.2285  155.3193 C   0  0  2  0  0  0  0  0  0  0  0  0
  149.7864  139.3523  154.1438 C   0  0  0  0  0  0  0  0  0  0  0  0
  148.8679  140.4824  154.5987 C   0  0  2  0  0  0  0  0  0  0  0  0
  148.1985  141.1074  153.5234 O   0  0  0  0  0  0  0  0  0  0  0  0
  149.8137  141.4305  155.3393 C   0  0  0  0  0  0  0  0  0  0  0  0
  150.8705  140.5805  155.8753 N   0  0  0  0  0  0  0  0  0  0  0  0
  151.3669  140.8167  157.1772 C   0  0  0  0  0  0  0  0  0  0  0  0
  151.7040  139.7460  157.9415 N   0  0  0  0  0  0  0  0  0  0  0  0
  152.1688  139.9764  159.1740 C   0  0  0  0  0  0  0  0  0  0  0  0
  152.3420  141.1648  159.7599 N   0  0  0  0  0  0  0  0  0  0  0  0
  152.0167  142.2396  159.0129 C   0  0  0  0  0  0  0  0  0  0  0  0
  152.0673  143.5391  159.2582 N   0  5  0  0  0  0  0  0  0  0  0  0
  151.6279  144.1776  158.1437 C   0  0  0  0  0  0  0  0  0  0  0  0
  151.2778  143.3408  157.1460 N   0  0  0  0  0  0  0  0  0  0  0  0
  151.5236  142.1221  157.7136 C   0  0  0  0  0  0  0  0  0  0  0  0
  150.3248  138.5730  156.0712 H   0  0  0  0  0  0  0  0  0  0  0  0
  150.3058  139.6411  153.2277 H   0  0  0  0  0  0  0  0  0  0  0  0
  149.2469  138.4255  153.9469 H   0  0  0  0  0  0  0  0  0  0  0  0
  148.1306  140.0859  155.2983 H   0  0  0  0  0  0  0  0  0  0  0  0
  148.5382  140.7540  152.7159 H   0  0  0  0  0  0  0  0  0  0  0  0
  150.2691  142.1491  154.6566 H   0  0  0  0  0  0  0  0  0  0  0  0
  149.2772  141.9844  156.1107 H   0  0  0  0  0  0  0  0  0  0  0  0
  152.4268  139.1077  159.7615 H   0  0  0  0  0  0  0  0  0  0  0  0
  151.5897  145.2599  158.1236 H   0  0  0  0  0  0  0  0  0  0  0  0
  1  2  2  0  0  0  0
  2  3  1  0  0  0  0
  2  4  1  0  0  0  0
  4  5  1  0  0  0  0
  4 19  1  0  0  0  0
  4  9  1  0  0  0  0
  5  6  1  0  0  0  0
  5 20  1  0  0  0  0
  5 21  1  0  0  0  0
  6  7  1  0  0  0  0
  6  8  1  0  0  0  0
  6 22  1  0  0  0  0
  7 23  1  0  0  0  0
  8 24  1  0  0  0  0
  8 25  1  0  0  0  0
  8  9  1  0  0  0  0
  9 10  1  0  0  0  0
 10 11  1  0  0  0  0
 10 18  2  0  0  0  0
 11 12  2  0  0  0  0
 12 26  1  0  0  0  0
 12 13  1  0  0  0  0
 13 14  2  0  0  0  0
 14 15  1  0  0  0  0
 14 18  1  0  0  0  0
 15 16  1  0  0  0  0
 16 17  2  0  0  0  0
 16 27  1  0  0  0  0
 17 18  1  0  0  0  0
M  CHG  1   3  -1
M  CHG  1  15  -1
M  END
> <s_m_source_file>
AV-unprocessed.smi

> <i_m_source_file_index>
66

> <i_lp_mmshare_version>
43012

> <i_f3d_flags>
0

> <s_epik_input>
Tz1DKFtPSF0pW0NAQEhdMVtDSDJdW0NAQEhdKFtPSF0pW0NIMl1OMWMobltjSF1uMiljKGMyMylbbkhdW2NIXW4z

> <s_epik_cmdline>
J2VwaWtfcHl0aG9uJywgJy1waCcsICc3LjAnLCAnLXRuJywgJzgnLCAnLW1hJywgJzIwMCcsICctbWV0YWxfYmluZGluZycsICctaW1hZScsICc8aW5maWxlLm1hZT4nLCAnLW9tYWUnLCAnPG91dGZpbGUubWFlPic=

> <r_lp_tautomer_probability>
0.955585

> <r_epik_Ionization_Penalty>
7.65809

> <r_epik_Ionization_Penalty_Charging>
3.4974

> <r_epik_Ionization_Penalty_Neutral>
4.16069

> <r_epik_State_Penalty>
3.51624

> <r_epik_Charging_Adjusted_Penalty>
7.01364

> <i_epik_Tot_Q>
-2

> <i_epik_Tot_abs_Q>
2

> <r_epik_Metal_State_Penalty>
0.522662

> <b_epik_Metal_Only>
1

> <s_lp_Force_Field>
OPLS_2005

> <r_lp_Energy>
45.1142

> <b_lp_Chiralities_Consistent>
1

> <s_lp_Variant>
AV-unprocessed.smi:66-11

> <Gold.Version>
5.8.1

> <Gold.Id.Protein>
6NUR|6NUR_protein|mol2

> <Gold.PLP.Fitness>
48.6259

> <Gold.PLP.PLP>
-35.2058

> <Gold.PLP.part.hbond>
-3.9958

> <Gold.PLP.part.metal>
0.0000

> <Gold.PLP.part.buried>
-5.0987

> <Gold.PLP.part.nonpolar>
-26.8986

> <Gold.PLP.part.repulsive>
0.2947

> <Gold.PLP.ligand.clash>
0.0000

> <Gold.PLP.ligand.torsion>
0.2740

> <Gold.PLP.Chemscore.Hbond>
4.5680

> <Gold.PLP.Chemscore.CHOScore>
0.0000

> <Gold.PLP.Chemscore.Metal>
0.0000

> <Gold.Chemscore.Hbonds>
donor molecule, donor type, donor heavy atom, donor atom, acceptor molecule, acceptor atom, score
      L1  H     7    23       P1  7957  1.00
      P1  H  7997  8010       L1     1  2.00
      P1  H 10752 10765       L1     3  1.54

> <Gold.PLP.Chemscore.Internal.Correction>
0.2641

> <Gold.Rescore>
     Score         DG    S(hbond)    S(metal)    S(lipo)     H(rot)  DE(clash)    DE(int)     intcor
     12.92     -14.32       2.72        0.00      36.63       1.78       0.09       1.32       ----

> <Gold.Chemscore.Fitness>
12.9178

> <Gold.Chemscore.DG>
-14.3189

> <Gold.Chemscore.ZeroCoef>
-5.4800

> <Gold.Chemscore.Hbond>
2.7239

> <Gold.Chemscore.Metal>
0.0000

> <Gold.Chemscore.Lipo>
36.6349

> <Gold.Chemscore.Internal_Hbond>
0.0000

> <Gold.Chemscore.DEClash>
0.0856

> <Gold.Chemscore.DEInternal>
1.3155

> <Gold.Chemscore.Rot>
1.7754

> <Gold.Chemscore.Internal.Correction>
   9.000000E+99

> <Gold.Chemscore.Hbonds>
donor molecule, donor type, donor heavy atom, donor atom, acceptor molecule, acceptor atom, score
      L1  H     7    23       P1  7957  0.95
      P1  H  7997  8010       L1     1  1.00
      P1  H 10752 10765       L1     3  0.71

> <Gold.Chemscore.Hbond.Weighted>
-9.0977

> <Gold.Chemscore.Metal.Weighted>
-0.0000

> <Gold.Chemscore.Lipo.Weighted>
-4.2863

> <Gold.Chemscore.Internal_Hbond.Weighted>
0.0000

> <Gold.Chemscore.DEClash.Weighted>
0.0856

> <Gold.Chemscore.DEInternal.Weighted>
1.3155

> <Gold.Chemscore.Rot.Weighted>
4.5451

> <Gold.Chemscore.Internal.Correction.Weighted>
   9.000000E+99

> <Gold.Protein.RotatedTorsions>
[ 6907 6896 6895 6894 ] final   48.92 input  -60.11 | X-H torsion
[ 7974 7965 7964 7962 ] final   89.35 input  175.53 | X-H torsion
[ 8008 7997 7996 7995 ] final   96.27 input   59.86 | X-H torsion
[ 10167 10162 10161 10158 ] final  -79.79 input  -65.29 | X-H torsion
[ 10718 10713 10712 10709 ] final   -3.59 input   66.30 | X-H torsion
[ 10763 10752 10751 10750 ] final  145.82 input  -60.55 | X-H torsion
[ 11005 11000 10999 10996 ] final  101.27 input  -57.11 | X-H torsion

> <Gold.Protein.ActiveResidues>
 VAL166  LYS551  ARG553  GLY616  TRP617  ASP618  TYR619  PRO620  LYS621  CYS622 
 ASP623  PHE694  ASN695  SER759  ASP760  ASP761  ALA762  ILE779  LEU786  VAL792 
 PHE793  MET794  SER795  GLU796  ALA797  LYS798  CYS799  TRP800  GLU811  SER814 

> <Gold.Protein.RotatedAtoms>
  152.2850  134.7786  160.0388 H   0  0  0  0  0  0  0  0  0  0  0  0  # atno 6907 bound_to 6896
  151.8352  133.3409  159.3634 H   0  0  0  0  0  0  0  0  0  0  0  0  # atno 6908 bound_to 6896
  150.7205  134.5373  159.5774 H   0  0  0  0  0  0  0  0  0  0  0  0  # atno 6909 bound_to 6896
  145.5335  139.2284  143.2605 H   0  0  0  0  0  0  0  0  0  0  0  0  # atno 7974 bound_to 7965
  156.0778  140.3275  155.7656 H   0  0  0  0  0  0  0  0  0  0  0  0  # atno 8008 bound_to 7997
  155.5201  140.0584  157.2925 H   0  0  0  0  0  0  0  0  0  0  0  0  # atno 8009 bound_to 7997
  154.4565  140.1945  156.0381 H   0  0  0  0  0  0  0  0  0  0  0  0  # atno 8010 bound_to 7997
  140.4561  143.2468  151.8417 H   0  0  0  0  0  0  0  0  0  0  0  0  # atno 10167 bound_to 10162
  156.7739  130.5309  149.5762 H   0  0  0  0  0  0  0  0  0  0  0  0  # atno 10718 bound_to 10713
  154.0118  135.2914  155.3391 H   0  0  0  0  0  0  0  0  0  0  0  0  # atno 10763 bound_to 10752
  154.7099  135.5154  153.8654 H   0  0  0  0  0  0  0  0  0  0  0  0  # atno 10764 bound_to 10752
  153.0720  135.6651  154.0348 H   0  0  0  0  0  0  0  0  0  0  0  0  # atno 10765 bound_to 10752
  139.8773  134.9176  156.4882 H   0  0  0  0  0  0  0  0  0  0  0  0  # atno 11005 bound_to 11000
  146.2028  140.6153  142.9094 LP  0  0  0  0  0  0  0  0  0  0  0  0  # atno 17320 bound_to 7965
  144.7613  140.5429  143.6733 LP  0  0  0  0  0  0  0  0  0  0  0  0  # atno 17321 bound_to 7965
  139.4801  144.5063  151.8994 LP  0  0  0  0  0  0  0  0  0  0  0  0  # atno 17342 bound_to 10162
  140.4149  144.2320  150.5888 LP  0  0  0  0  0  0  0  0  0  0  0  0  # atno 17343 bound_to 10162
  156.1261  130.6144  151.0265 LP  0  0  0  0  0  0  0  0  0  0  0  0  # atno 17370 bound_to 10713
  157.6678  131.0868  150.7686 LP  0  0  0  0  0  0  0  0  0  0  0  0  # atno 17371 bound_to 10713
  140.8678  133.8011  155.9332 LP  0  0  0  0  0  0  0  0  0  0  0  0  # atno 17394 bound_to 11000
  140.8984  134.2409  157.5055 LP  0  0  0  0  0  0  0  0  0  0  0  0  # atno 17395 bound_to 11000

$$$$
