AV-unprocessed.smi:1389|AV-procd|sdf|5653|dock2
  -GOLD-   22720 5273D 1   1.00000     0.00000
 Structure written by MMmdl.
 53 55  0  0  0  0  0  0  0  0  3 V2000
  155.8397  139.6184  163.0483 C   0  0  0  0  0  0  0  0  0  0  0  0
  154.5109  139.2887  162.3336 C   0  0  1  0  0  0  0  0  0  0  0  0
  154.6550  139.5465  160.8098 C   0  0  0  0  0  0  0  0  0  0  0  0
  153.5571  140.3260  160.2374 N   0  0  0  0  0  0  0  0  0  0  0  0
  152.9684  140.0812  159.0576 C   0  0  0  0  0  0  0  0  0  0  0  0
  153.2518  139.1213  158.3420 O   0  0  0  0  0  0  0  0  0  0  0  0
  152.0589  141.0236  158.7566 N   0  0  0  0  0  0  0  0  0  0  0  0
  151.2948  141.1423  157.5603 C   0  0  0  0  0  0  0  0  0  0  0  0
  150.9711  140.0010  156.7821 C   0  0  0  0  0  0  0  0  0  0  0  0
  150.2358  140.1471  155.5908 C   0  0  0  0  0  0  0  0  0  0  0  0
  149.8298  141.4330  155.1961 C   0  0  0  0  0  0  0  0  0  0  0  0
  150.1349  142.4964  155.9678 N   0  3  0  0  0  0  0  0  0  0  0  0
  150.8270  142.4193  157.1322 C   0  0  0  0  0  0  0  0  0  0  0  0
  151.0616  143.6201  157.8402 N   0  0  0  0  0  0  0  0  0  0  0  0
  150.2584  143.9559  159.0103 C   0  0  0  0  0  0  0  0  0  0  0  0
  151.0119  145.0934  159.6940 C   0  0  0  0  0  0  0  0  0  0  0  0
  152.4689  144.7219  159.4363 C   0  0  0  0  0  0  0  0  0  0  0  0
  152.4367  144.0597  158.0545 C   0  0  0  0  0  0  0  0  0  0  0  0
  154.0155  137.9098  162.6538 N   0  3  0  0  0  0  0  0  0  0  0  0
  154.6762  136.8357  161.8611 C   0  0  0  0  0  0  0  0  0  0  0  0
  154.1269  135.4469  162.2281 C   0  0  0  0  0  0  0  0  0  0  0  0
  154.2866  135.2188  163.6196 O   0  0  0  0  0  0  0  0  0  0  0  0
  153.5581  136.1654  164.3857 C   0  0  0  0  0  0  0  0  0  0  0  0
  154.0922  137.5796  164.1040 C   0  0  0  0  0  0  0  0  0  0  0  0
  156.2490  140.5663  162.6978 H   0  0  0  0  0  0  0  0  0  0  0  0
  156.5929  138.8500  162.8724 H   0  0  0  0  0  0  0  0  0  0  0  0
  155.7106  139.7259  164.1251 H   0  0  0  0  0  0  0  0  0  0  0  0
  153.7692  139.9964  162.7075 H   0  0  0  0  0  0  0  0  0  0  0  0
  155.5803  140.0849  160.6064 H   0  0  0  0  0  0  0  0  0  0  0  0
  154.7710  138.6014  160.2763 H   0  0  0  0  0  0  0  0  0  0  0  0
  153.2652  141.1435  160.7528 H   0  0  0  0  0  0  0  0  0  0  0  0
  152.0032  141.8078  159.3897 H   0  0  0  0  0  0  0  0  0  0  0  0
  151.2747  139.0100  157.0845 H   0  0  0  0  0  0  0  0  0  0  0  0
  149.9896  139.2848  154.9883 H   0  0  0  0  0  0  0  0  0  0  0  0
  149.2669  141.6424  154.2977 H   0  0  0  0  0  0  0  0  0  0  0  0
  149.2472  144.2513  158.7293 H   0  0  0  0  0  0  0  0  0  0  0  0
  150.1932  143.1025  159.6866 H   0  0  0  0  0  0  0  0  0  0  0  0
  150.7780  146.0422  159.2091 H   0  0  0  0  0  0  0  0  0  0  0  0
  150.7740  145.1849  160.7541 H   0  0  0  0  0  0  0  0  0  0  0  0
  153.1417  145.5789  159.4806 H   0  0  0  0  0  0  0  0  0  0  0  0
  152.7982  143.9984  160.1836 H   0  0  0  0  0  0  0  0  0  0  0  0
  153.1476  143.2346  157.9935 H   0  0  0  0  0  0  0  0  0  0  0  0
  152.6941  144.7896  157.2865 H   0  0  0  0  0  0  0  0  0  0  0  0
  154.5126  136.9811  160.7944 H   0  0  0  0  0  0  0  0  0  0  0  0
  155.7535  136.8667  162.0313 H   0  0  0  0  0  0  0  0  0  0  0  0
  153.0760  135.3562  161.9484 H   0  0  0  0  0  0  0  0  0  0  0  0
  154.6680  134.6744  161.6813 H   0  0  0  0  0  0  0  0  0  0  0  0
  152.4928  136.0973  164.1588 H   0  0  0  0  0  0  0  0  0  0  0  0
  153.6734  135.9253  165.4429 H   0  0  0  0  0  0  0  0  0  0  0  0
  155.1265  137.6597  164.4422 H   0  0  0  0  0  0  0  0  0  0  0  0
  153.5062  138.2808  164.6957 H   0  0  0  0  0  0  0  0  0  0  0  0
  153.0375  137.8892  162.4023 H   0  0  0  0  0  0  0  0  0  0  0  0
  149.8177  143.4155  155.6589 H   0  0  0  0  0  0  0  0  0  0  0  0
  1  2  1  0  0  0  0
  1 25  1  0  0  0  0
  1 26  1  0  0  0  0
  1 27  1  0  0  0  0
  2  3  1  0  0  0  0
  2 19  1  0  0  0  0
  2 28  1  0  0  0  0
  3  4  1  0  0  0  0
  3 29  1  0  0  0  0
  3 30  1  0  0  0  0
  4  5  1  0  0  0  0
  4 31  1  0  0  0  0
  5  6  2  0  0  0  0
  5  7  1  0  0  0  0
  7  8  1  0  0  0  0
  7 32  1  0  0  0  0
  8 13  1  0  0  0  0
  8  9  2  0  0  0  0
  9 10  1  0  0  0  0
  9 33  1  0  0  0  0
 10 11  2  0  0  0  0
 10 34  1  0  0  0  0
 11 12  1  0  0  0  0
 11 35  1  0  0  0  0
 12 13  2  0  0  0  0
 12 53  1  0  0  0  0
 13 14  1  0  0  0  0
 14 18  1  0  0  0  0
 14 15  1  0  0  0  0
 15 16  1  0  0  0  0
 15 36  1  0  0  0  0
 15 37  1  0  0  0  0
 16 17  1  0  0  0  0
 16 38  1  0  0  0  0
 16 39  1  0  0  0  0
 17 18  1  0  0  0  0
 17 40  1  0  0  0  0
 17 41  1  0  0  0  0
 18 42  1  0  0  0  0
 18 43  1  0  0  0  0
 19 24  1  0  0  0  0
 19 20  1  0  0  0  0
 19 52  1  0  0  0  0
 20 21  1  0  0  0  0
 20 44  1  0  0  0  0
 20 45  1  0  0  0  0
 21 22  1  0  0  0  0
 21 46  1  0  0  0  0
 21 47  1  0  0  0  0
 22 23  1  0  0  0  0
 23 24  1  0  0  0  0
 23 48  1  0  0  0  0
 23 49  1  0  0  0  0
 24 50  1  0  0  0  0
 24 51  1  0  0  0  0
M  CHG  1  12   1
M  CHG  1  19   1
M  END
> <s_m_source_file>
AV-unprocessed.smi

> <i_m_source_file_index>
1389

> <i_lp_mmshare_version>
43012

> <i_f3d_flags>
0

> <s_epik_input>
W0NIMl0xW0NIMl1PW0NIMl1bQ0gyXU4xW0NASF0oW0NIM10pW0NIMl1bTkhdQyg9TylbTkhdYzJbY0hdW2NIXVtjSF1uYzJOM1tDSDJdW0NIMl1bQ0gyXVtDSDJdMw==

> <s_epik_cmdline>
J2VwaWtfcHl0aG9uJywgJy1waCcsICc3LjAnLCAnLXRuJywgJzgnLCAnLW1hJywgJzIwMCcsICctbWV0YWxfYmluZGluZycsICctaW1hZScsICc8aW5maWxlLm1hZT4nLCAnLW9tYWUnLCAnPG91dGZpbGUubWFlPic=

> <r_lp_tautomer_probability>
0.999994

> <r_epik_Ionization_Penalty>
1.80872

> <r_epik_Ionization_Penalty_Charging>
1.8087

> <r_epik_Ionization_Penalty_Neutral>
2.02981e-05

> <r_epik_State_Penalty>
1.84892

> <r_epik_Charging_Adjusted_Penalty>
3.65762

> <i_epik_Tot_Q>
2

> <i_epik_Tot_abs_Q>
2

> <r_epik_Metal_State_Penalty>
1.9311

> <b_epik_Metal_Only>
0

> <s_lp_Force_Field>
OPLS_2005

> <r_lp_Energy>
68.1678

> <b_lp_Chiralities_Consistent>
1

> <s_lp_Variant>
AV-unprocessed.smi:1389-8

> <Gold.Version>
5.8.1

> <Gold.Id.Protein>
6NUR|6NUR_protein|mol2

> <Gold.PLP.Fitness>
51.7716

> <Gold.PLP.PLP>
-45.1501

> <Gold.PLP.part.hbond>
-2.0000

> <Gold.PLP.part.metal>
0.0000

> <Gold.PLP.part.buried>
-7.7403

> <Gold.PLP.part.nonpolar>
-37.0206

> <Gold.PLP.part.repulsive>
0.4997

> <Gold.PLP.ligand.clash>
0.0000

> <Gold.PLP.ligand.torsion>
1.4161

> <Gold.PLP.Chemscore.Hbond>
3.0000

> <Gold.PLP.Chemscore.CHOScore>
0.0000

> <Gold.PLP.Chemscore.Metal>
0.0000

> <Gold.Chemscore.Hbonds>
donor molecule, donor type, donor heavy atom, donor atom, acceptor molecule, acceptor atom, score
      L1  H    12    53       P1  8028  2.00
      P1  H  7997  8008       L1     6  0.76

> <Gold.PLP.Chemscore.Internal.Correction>
0.4536

> <Gold.Rescore>
     Score         DG    S(hbond)    S(metal)    S(lipo)     H(rot)  DE(clash)    DE(int)     intcor
     18.96     -21.63       1.95        0.00     118.71       1.66       0.21       2.45       ----

> <Gold.Chemscore.Fitness>
18.9649

> <Gold.Chemscore.DG>
-21.6320

> <Gold.Chemscore.ZeroCoef>
-5.4800

> <Gold.Chemscore.Hbond>
1.9512

> <Gold.Chemscore.Metal>
0.0000

> <Gold.Chemscore.Lipo>
118.7141

> <Gold.Chemscore.Internal_Hbond>
0.0000

> <Gold.Chemscore.DEClash>
0.2129

> <Gold.Chemscore.DEInternal>
2.4542

> <Gold.Chemscore.Rot>
1.6620

> <Gold.Chemscore.Internal.Correction>
   9.000000E+99

> <Gold.Chemscore.Hbonds>
donor molecule, donor type, donor heavy atom, donor atom, acceptor molecule, acceptor atom, score
      L1  H    12    53       P1  8028  0.98
      P1  H  7997  8008       L1     6  0.17

> <Gold.Chemscore.Hbond.Weighted>
-6.5171

> <Gold.Chemscore.Metal.Weighted>
-0.0000

> <Gold.Chemscore.Lipo.Weighted>
-13.8896

> <Gold.Chemscore.Internal_Hbond.Weighted>
0.0000

> <Gold.Chemscore.DEClash.Weighted>
0.2129

> <Gold.Chemscore.DEInternal.Weighted>
2.4542

> <Gold.Chemscore.Rot.Weighted>
4.2547

> <Gold.Chemscore.Internal.Correction.Weighted>
   9.000000E+99

> <Gold.Protein.RotatedTorsions>
[ 6907 6896 6895 6894 ] final   22.44 input  -60.11 | X-H torsion
[ 7974 7965 7964 7962 ] final   57.96 input  175.53 | X-H torsion
[ 8008 7997 7996 7995 ] final  -99.67 input   59.86 | X-H torsion
[ 10167 10162 10161 10158 ] final  -26.76 input  -65.29 | X-H torsion
[ 10718 10713 10712 10709 ] final   25.80 input   66.30 | X-H torsion
[ 10763 10752 10751 10750 ] final  -23.91 input  -60.55 | X-H torsion
[ 11005 11000 10999 10996 ] final  161.05 input  -57.11 | X-H torsion

> <Gold.Protein.ActiveResidues>
 VAL166  LYS551  ARG553  GLY616  TRP617  ASP618  TYR619  PRO620  LYS621  CYS622 
 ASP623  PHE694  ASN695  SER759  ASP760  ASP761  ALA762  ILE779  LEU786  VAL792 
 PHE793  MET794  SER795  GLU796  ALA797  LYS798  CYS799  TRP800  GLU811  SER814 

> <Gold.Protein.RotatedAtoms>
  151.9272  135.0272  160.0526 H   0  0  0  0  0  0  0  0  0  0  0  0  # atno 6907 bound_to 6896
  152.2149  133.4934  159.5139 H   0  0  0  0  0  0  0  0  0  0  0  0  # atno 6908 bound_to 6896
  150.6985  134.1335  159.4121 H   0  0  0  0  0  0  0  0  0  0  0  0  # atno 6909 bound_to 6896
  145.9234  139.3748  143.0465 H   0  0  0  0  0  0  0  0  0  0  0  0  # atno 7974 bound_to 7965
  154.8180  140.0446  157.1390 H   0  0  0  0  0  0  0  0  0  0  0  0  # atno 8008 bound_to 7997
  154.9292  140.3037  155.5156 H   0  0  0  0  0  0  0  0  0  0  0  0  # atno 8009 bound_to 7997
  156.2978  140.2326  156.4350 H   0  0  0  0  0  0  0  0  0  0  0  0  # atno 8010 bound_to 7997
  140.7281  143.4151  151.1042 H   0  0  0  0  0  0  0  0  0  0  0  0  # atno 10167 bound_to 10162
  157.1982  130.6878  149.6177 H   0  0  0  0  0  0  0  0  0  0  0  0  # atno 10718 bound_to 10713
  153.6754  135.6969  153.5134 H   0  0  0  0  0  0  0  0  0  0  0  0  # atno 10763 bound_to 10752
  153.2526  135.4270  155.0812 H   0  0  0  0  0  0  0  0  0  0  0  0  # atno 10764 bound_to 10752
  154.8415  135.3535  154.6298 H   0  0  0  0  0  0  0  0  0  0  0  0  # atno 10765 bound_to 10752
  140.2120  134.8260  157.3130 H   0  0  0  0  0  0  0  0  0  0  0  0  # atno 11005 bound_to 11000
  145.8520  140.9523  143.0744 LP  0  0  0  0  0  0  0  0  0  0  0  0  # atno 17320 bound_to 7965
  144.6755  140.0420  143.7480 LP  0  0  0  0  0  0  0  0  0  0  0  0  # atno 17321 bound_to 7965
  139.7789  143.8384  152.3134 LP  0  0  0  0  0  0  0  0  0  0  0  0  # atno 17342 bound_to 10162
  139.8328  144.7246  150.9428 LP  0  0  0  0  0  0  0  0  0  0  0  0  # atno 17343 bound_to 10162
  155.9703  130.4591  150.6026 LP  0  0  0  0  0  0  0  0  0  0  0  0  # atno 17370 bound_to 10713
  157.3793  131.0778  151.1490 LP  0  0  0  0  0  0  0  0  0  0  0  0  # atno 17371 bound_to 10713
  140.1941  134.4335  155.7699 LP  0  0  0  0  0  0  0  0  0  0  0  0  # atno 17394 bound_to 11000
  141.2226  133.7041  156.8075 LP  0  0  0  0  0  0  0  0  0  0  0  0  # atno 17395 bound_to 11000

$$$$
