AV-unprocessed.smi:2016|AV-procd|sdf|8166|dock4
  -GOLD-   2272010413D 1   1.00000     0.00000
 Structure written by MMmdl.
 42 43  0  0  0  0  0  0  0  0  1 V2000
  144.0372  145.5629  154.9979 C   0  0  0  0  0  0  0  0  0  0  0  0
  144.2738  144.4760  156.0491 C   0  0  0  0  0  0  0  0  0  0  0  0
  143.9773  144.7273  157.2173 O   0  0  0  0  0  0  0  0  0  0  0  0
  144.7995  143.2873  155.6663 N   0  0  0  0  0  0  0  0  0  0  0  0
  145.2439  142.9520  154.3078 C   0  0  0  0  0  0  0  0  0  0  0  0
  146.7809  142.8779  154.2930 C   0  0  0  0  0  0  0  0  0  0  0  0
  147.3059  141.8696  155.3421 C   0  0  0  0  0  0  0  0  0  0  0  0
  148.7580  141.9587  155.4595 N   0  0  0  0  0  0  0  0  0  0  0  0
  149.5373  141.0982  156.1320 C   0  0  0  0  0  0  0  0  0  0  0  0
  149.0974  140.1136  156.7277 O   0  0  0  0  0  0  0  0  0  0  0  0
  151.0435  141.3955  156.1021 C   0  0  0  0  0  0  0  0  0  0  0  0
  151.5535  141.9658  157.3610 N   0  0  0  0  0  0  0  0  0  0  0  0
  151.1604  143.2806  157.6688 C   0  0  0  0  0  0  0  0  0  0  0  0
  151.5677  143.8950  158.7875 C   0  0  0  0  0  0  0  0  0  0  0  0
  152.4315  143.1709  159.6877 C   0  0  0  0  0  0  0  0  0  0  0  0
  152.8303  141.9065  159.4164 C   0  0  0  0  0  0  0  0  0  0  0  0
  153.7430  141.1251  160.3589 C   0  0  0  0  0  0  0  0  0  0  0  0
  155.0000  141.1412  159.9141 F   0  0  0  0  0  0  0  0  0  0  0  0
  153.7396  141.6382  161.5901 F   0  0  0  0  0  0  0  0  0  0  0  0
  153.3486  139.8543  160.4469 F   0  0  0  0  0  0  0  0  0  0  0  0
  152.3779  141.2397  158.1783 C   0  0  0  0  0  0  0  0  0  0  0  0
  152.7166  140.0914  157.8858 O   0  0  0  0  0  0  0  0  0  0  0  0
  146.6613  142.1077  156.7250 C   0  0  0  0  0  0  0  0  0  0  0  0
  145.1297  142.2217  156.6196 C   0  0  0  0  0  0  0  0  0  0  0  0
  144.9692  145.8281  154.4978 H   0  0  0  0  0  0  0  0  0  0  0  0
  143.6410  146.4667  155.4625 H   0  0  0  0  0  0  0  0  0  0  0  0
  143.3156  145.2285  154.2521 H   0  0  0  0  0  0  0  0  0  0  0  0
  144.8233  141.9868  154.0216 H   0  0  0  0  0  0  0  0  0  0  0  0
  144.8991  143.6533  153.5495 H   0  0  0  0  0  0  0  0  0  0  0  0
  147.1272  142.6002  153.2969 H   0  0  0  0  0  0  0  0  0  0  0  0
  147.1878  143.8698  154.4961 H   0  0  0  0  0  0  0  0  0  0  0  0
  147.0341  140.8624  155.0199 H   0  0  0  0  0  0  0  0  0  0  0  0
  149.2040  142.7371  154.9963 H   0  0  0  0  0  0  0  0  0  0  0  0
  151.5666  140.4685  155.8631 H   0  0  0  0  0  0  0  0  0  0  0  0
  151.2627  142.0670  155.2696 H   0  0  0  0  0  0  0  0  0  0  0  0
  150.5195  143.7546  156.9394 H   0  0  0  0  0  0  0  0  0  0  0  0
  151.2602  144.9068  159.0074 H   0  0  0  0  0  0  0  0  0  0  0  0
  152.7578  143.6629  160.5918 H   0  0  0  0  0  0  0  0  0  0  0  0
  146.9280  141.2994  157.4071 H   0  0  0  0  0  0  0  0  0  0  0  0
  147.0557  143.0254  157.1645 H   0  0  0  0  0  0  0  0  0  0  0  0
  144.7014  142.3913  157.6083 H   0  0  0  0  0  0  0  0  0  0  0  0
  144.7055  141.2789  156.2708 H   0  0  0  0  0  0  0  0  0  0  0  0
  1  2  1  0  0  0  0
  1 25  1  0  0  0  0
  1 26  1  0  0  0  0
  1 27  1  0  0  0  0
  2  3  2  0  0  0  0
  2  4  1  0  0  0  0
  4 24  1  0  0  0  0
  4  5  1  0  0  0  0
  5  6  1  0  0  0  0
  5 28  1  0  0  0  0
  5 29  1  0  0  0  0
  6  7  1  0  0  0  0
  6 30  1  0  0  0  0
  6 31  1  0  0  0  0
  7  8  1  0  0  0  0
  7 23  1  0  0  0  0
  7 32  1  0  0  0  0
  8  9  1  0  0  0  0
  8 33  1  0  0  0  0
  9 10  2  0  0  0  0
  9 11  1  0  0  0  0
 11 12  1  0  0  0  0
 11 34  1  0  0  0  0
 11 35  1  0  0  0  0
 12 21  1  0  0  0  0
 12 13  1  0  0  0  0
 13 14  2  0  0  0  0
 13 36  1  0  0  0  0
 14 15  1  0  0  0  0
 14 37  1  0  0  0  0
 15 16  2  0  0  0  0
 15 38  1  0  0  0  0
 16 17  1  0  0  0  0
 16 21  1  0  0  0  0
 17 18  1  0  0  0  0
 17 19  1  0  0  0  0
 17 20  1  0  0  0  0
 21 22  2  0  0  0  0
 23 24  1  0  0  0  0
 23 39  1  0  0  0  0
 23 40  1  0  0  0  0
 24 41  1  0  0  0  0
 24 42  1  0  0  0  0
M  END
> <s_m_source_file>
AV-unprocessed.smi

> <i_m_source_file_index>
2016

> <i_lp_mmshare_version>
43012

> <i_f3d_flags>
0

> <s_epik_input>
W0NIM11DKD1PKU4xW0NIMl1bQ0gyXVtDSF0oW0NIMl1bQ0gyXTEpW05IXUMoPU8pW0NIMl1uMltjSF1bY0hdW2NIXWMoQyhGKShGKUYpYzI9Tw==

> <s_epik_cmdline>
J2VwaWtfcHl0aG9uJywgJy1waCcsICc3LjAnLCAnLXRuJywgJzgnLCAnLW1hJywgJzIwMCcsICctbWV0YWxfYmluZGluZycsICctaW1hZScsICc8aW5maWxlLm1hZT4nLCAnLW9tYWUnLCAnPG91dGZpbGUubWFlPic=

> <r_lp_tautomer_probability>
1

> <r_epik_Ionization_Penalty>
1.12606e-06

> <r_epik_Ionization_Penalty_Charging>
2.00242e-09

> <r_epik_Ionization_Penalty_Neutral>
1.12405e-06

> <r_epik_State_Penalty>
-0

> <r_epik_Charging_Adjusted_Penalty>
2.00242e-09

> <i_epik_Tot_Q>
0

> <i_epik_Tot_abs_Q>
0

> <r_epik_Metal_State_Penalty>
-0

> <b_epik_Metal_Only>
0

> <s_lp_Force_Field>
OPLS_2005

> <r_lp_Energy>
31.7258

> <b_lp_Chiralities_Consistent>
1

> <s_lp_Variant>
AV-unprocessed.smi:2016-1

> <Gold.Version>
5.8.1

> <Gold.Id.Protein>
6NUR|6NUR_protein|mol2

> <Gold.PLP.Fitness>
49.7654

> <Gold.PLP.PLP>
-44.5773

> <Gold.PLP.part.hbond>
-2.0000

> <Gold.PLP.part.metal>
0.0000

> <Gold.PLP.part.buried>
-5.3195

> <Gold.PLP.part.nonpolar>
-37.6664

> <Gold.PLP.part.repulsive>
0.1795

> <Gold.PLP.ligand.clash>
0.0000

> <Gold.PLP.ligand.torsion>
1.1958

> <Gold.PLP.Chemscore.Hbond>
1.4191

> <Gold.PLP.Chemscore.CHOScore>
1.0000

> <Gold.PLP.Chemscore.Metal>
0.0000

> <Gold.Chemscore.Hbonds>
donor molecule, donor type, donor heavy atom, donor atom, acceptor molecule, acceptor atom, score
      L1  H     8    33       P1  8028  0.35
      P1  H  7997  8010       L1    22  0.98
      L1  C    13    36       P1  8028  1.00

> <Gold.PLP.Chemscore.Internal.Correction>
0.3222

> <Gold.Rescore>
     Score         DG    S(hbond)    S(metal)    S(lipo)     H(rot)  DE(clash)    DE(int)     intcor
     13.66     -16.36       1.48        0.00      86.77       1.64       0.05       2.65       ----

> <Gold.Chemscore.Fitness>
13.6617

> <Gold.Chemscore.DG>
-16.3616

> <Gold.Chemscore.ZeroCoef>
-5.4800

> <Gold.Chemscore.Hbond>
1.4782

> <Gold.Chemscore.Metal>
0.0000

> <Gold.Chemscore.Lipo>
86.7677

> <Gold.Chemscore.Internal_Hbond>
0.0000

> <Gold.Chemscore.DEClash>
0.0504

> <Gold.Chemscore.DEInternal>
2.6494

> <Gold.Chemscore.Rot>
1.6435

> <Gold.Chemscore.Internal.Correction>
   9.000000E+99

> <Gold.Chemscore.Hbonds>
donor molecule, donor type, donor heavy atom, donor atom, acceptor molecule, acceptor atom, score
      L1  H     8    33       P1  8028  0.34
      P1  H  7997  8010       L1    22  0.69

> <Gold.Chemscore.Hbond.Weighted>
-4.9372

> <Gold.Chemscore.Metal.Weighted>
-0.0000

> <Gold.Chemscore.Lipo.Weighted>
-10.1518

> <Gold.Chemscore.Internal_Hbond.Weighted>
0.0000

> <Gold.Chemscore.DEClash.Weighted>
0.0504

> <Gold.Chemscore.DEInternal.Weighted>
2.6494

> <Gold.Chemscore.Rot.Weighted>
4.2074

> <Gold.Chemscore.Internal.Correction.Weighted>
   9.000000E+99

> <Gold.Protein.RotatedTorsions>
[ 6907 6896 6895 6894 ] final  139.83 input  -60.11 | X-H torsion
[ 7974 7965 7964 7962 ] final   45.60 input  175.53 | X-H torsion
[ 8008 7997 7996 7995 ] final   53.28 input   59.86 | X-H torsion
[ 10167 10162 10161 10158 ] final  -56.63 input  -65.29 | X-H torsion
[ 10718 10713 10712 10709 ] final  147.72 input   66.30 | X-H torsion
[ 10763 10752 10751 10750 ] final  158.68 input  -60.55 | X-H torsion
[ 11005 11000 10999 10996 ] final  -46.89 input  -57.11 | X-H torsion

> <Gold.Protein.ActiveResidues>
 VAL166  LYS551  ARG553  GLY616  TRP617  ASP618  TYR619  PRO620  LYS621  CYS622 
 ASP623  PHE694  ASN695  SER759  ASP760  ASP761  ALA762  ILE779  LEU786  VAL792 
 PHE793  MET794  SER795  GLU796  ALA797  LYS798  CYS799  TRP800  GLU811  SER814 

> <Gold.Protein.RotatedAtoms>
  152.2503  133.5209  159.5321 H   0  0  0  0  0  0  0  0  0  0  0  0  # atno 6907 bound_to 6896
  150.7091  134.0969  159.3961 H   0  0  0  0  0  0  0  0  0  0  0  0  # atno 6908 bound_to 6896
  151.8889  135.0424  160.0546 H   0  0  0  0  0  0  0  0  0  0  0  0  # atno 6909 bound_to 6896
  146.0465  139.4946  142.9745 H   0  0  0  0  0  0  0  0  0  0  0  0  # atno 7974 bound_to 7965
  155.4657  140.3463  155.4319 H   0  0  0  0  0  0  0  0  0  0  0  0  # atno 8008 bound_to 7997
  156.1132  140.1467  156.9338 H   0  0  0  0  0  0  0  0  0  0  0  0  # atno 8009 bound_to 7997
  154.4771  140.0881  156.7267 H   0  0  0  0  0  0  0  0  0  0  0  0  # atno 8010 bound_to 7997
  140.6306  143.2457  151.5252 H   0  0  0  0  0  0  0  0  0  0  0  0  # atno 10167 bound_to 10162
  157.3174  131.0898  151.1268 H   0  0  0  0  0  0  0  0  0  0  0  0  # atno 10718 bound_to 10713
  154.2198  135.2782  155.2928 H   0  0  0  0  0  0  0  0  0  0  0  0  # atno 10763 bound_to 10752
  154.5711  135.5618  153.7099 H   0  0  0  0  0  0  0  0  0  0  0  0  # atno 10764 bound_to 10752
  153.0044  135.6321  154.2338 H   0  0  0  0  0  0  0  0  0  0  0  0  # atno 10765 bound_to 10752
  141.0607  133.6710  156.3219 H   0  0  0  0  0  0  0  0  0  0  0  0  # atno 11005 bound_to 11000
  145.6796  141.0194  143.1613 LP  0  0  0  0  0  0  0  0  0  0  0  0  # atno 17320 bound_to 7965
  144.7100  139.8406  143.7417 LP  0  0  0  0  0  0  0  0  0  0  0  0  # atno 17321 bound_to 7965
  139.5520  144.2370  152.1547 LP  0  0  0  0  0  0  0  0  0  0  0  0  # atno 17342 bound_to 10162
  140.1613  144.5023  150.6631 LP  0  0  0  0  0  0  0  0  0  0  0  0  # atno 17343 bound_to 10162
  157.2566  130.6639  149.5955 LP  0  0  0  0  0  0  0  0  0  0  0  0  # atno 17370 bound_to 10713
  155.9683  130.4522  150.5764 LP  0  0  0  0  0  0  0  0  0  0  0  0  # atno 17371 bound_to 10713
  140.5875  134.5684  157.5492 LP  0  0  0  0  0  0  0  0  0  0  0  0  # atno 17394 bound_to 11000
  139.9430  134.7753  156.0632 LP  0  0  0  0  0  0  0  0  0  0  0  0  # atno 17395 bound_to 11000

$$$$
