AV-unprocessed.smi:3128|AV-procd|sdf|11918|dock3
  -GOLD-   2272017293D 1   1.00000     0.00000
 Structure written by MMmdl.
 40 40  0  0  0  0  0  0  0  0  2 V2000
  150.6394  137.2418  154.7572 C   0  0  0  0  0  0  0  0  0  0  0  0
  150.6311  138.7576  154.4900 C   0  0  0  0  0  0  0  0  0  0  0  0
  151.5716  139.4579  155.4899 C   0  0  0  0  0  0  0  0  0  0  0  0
  149.1923  139.3506  154.5125 C   0  0  2  0  0  0  0  0  0  0  0  0
  148.4302  139.0982  155.8299 C   0  0  0  0  0  0  0  0  0  0  0  0
  148.3849  138.9256  153.3640 N   0  0  0  0  0  0  0  0  0  0  0  0
  147.1627  139.3645  153.0174 C   0  0  0  0  0  0  0  0  0  0  0  0
  146.5436  140.2270  153.6407 O   0  0  0  0  0  0  0  0  0  0  0  0
  146.5558  138.7323  151.7647 C   0  0  0  0  0  0  0  0  0  0  0  0
  145.1675  138.2860  151.9935 N   0  3  0  0  0  0  0  0  0  0  0  0
  145.0227  137.2750  153.0598 C   0  0  0  0  0  0  0  0  0  0  0  0
  143.7855  136.3904  152.8369 C   0  0  0  0  0  0  0  0  0  0  0  0
  144.0445  135.3109  151.9007 N   0  0  0  0  0  0  0  0  0  0  0  0
  144.6326  135.3786  150.6553 C   0  0  0  0  0  0  0  0  0  0  0  0
  144.6719  134.1084  150.1554 C   0  0  0  0  0  0  0  0  0  0  0  0
  144.0740  133.3224  151.1796 C   0  0  0  0  0  0  0  0  0  0  0  0
  143.7012  134.0450  152.2238 N   0  0  0  0  0  0  0  0  0  0  0  0
  150.1805  137.0060  155.7179 H   0  0  0  0  0  0  0  0  0  0  0  0
  151.6576  136.8519  154.7737 H   0  0  0  0  0  0  0  0  0  0  0  0
  150.1044  136.6907  153.9844 H   0  0  0  0  0  0  0  0  0  0  0  0
  151.0508  138.9052  153.4946 H   0  0  0  0  0  0  0  0  0  0  0  0
  151.1925  139.3804  156.5093 H   0  0  0  0  0  0  0  0  0  0  0  0
  151.6976  140.5157  155.2598 H   0  0  0  0  0  0  0  0  0  0  0  0
  152.5657  139.0104  155.4718 H   0  0  0  0  0  0  0  0  0  0  0  0
  149.2840  140.4319  154.4028 H   0  0  0  0  0  0  0  0  0  0  0  0
  148.8951  139.6181  156.6669 H   0  0  0  0  0  0  0  0  0  0  0  0
  148.3930  138.0377  156.0799 H   0  0  0  0  0  0  0  0  0  0  0  0
  147.4041  139.4613  155.7643 H   0  0  0  0  0  0  0  0  0  0  0  0
  148.8022  138.2189  152.7758 H   0  0  0  0  0  0  0  0  0  0  0  0
  146.5766  139.4620  150.9545 H   0  0  0  0  0  0  0  0  0  0  0  0
  147.1619  137.8791  151.4556 H   0  0  0  0  0  0  0  0  0  0  0  0
  144.6134  139.0929  152.2442 H   0  0  0  0  0  0  0  0  0  0  0  0
  145.9199  136.6554  153.0796 H   0  0  0  0  0  0  0  0  0  0  0  0
  144.9549  137.7702  154.0295 H   0  0  0  0  0  0  0  0  0  0  0  0
  143.4335  135.9695  153.7801 H   0  0  0  0  0  0  0  0  0  0  0  0
  142.9679  136.9941  152.4407 H   0  0  0  0  0  0  0  0  0  0  0  0
  144.9720  136.3132  150.2331 H   0  0  0  0  0  0  0  0  0  0  0  0
  145.0663  133.7889  149.2021 H   0  0  0  0  0  0  0  0  0  0  0  0
  143.9027  132.2560  151.1962 H   0  0  0  0  0  0  0  0  0  0  0  0
  144.8038  137.9079  151.1302 H   0  0  0  0  0  0  0  0  0  0  0  0
  1  2  1  0  0  0  0
  1 18  1  0  0  0  0
  1 19  1  0  0  0  0
  1 20  1  0  0  0  0
  2  3  1  0  0  0  0
  2  4  1  0  0  0  0
  2 21  1  0  0  0  0
  3 22  1  0  0  0  0
  3 23  1  0  0  0  0
  3 24  1  0  0  0  0
  4  5  1  0  0  0  0
  4  6  1  0  0  0  0
  4 25  1  0  0  0  0
  5 26  1  0  0  0  0
  5 27  1  0  0  0  0
  5 28  1  0  0  0  0
  6  7  1  0  0  0  0
  6 29  1  0  0  0  0
  7  8  2  0  0  0  0
  7  9  1  0  0  0  0
  9 10  1  0  0  0  0
  9 30  1  0  0  0  0
  9 31  1  0  0  0  0
 10 11  1  0  0  0  0
 10 32  1  0  0  0  0
 10 40  1  0  0  0  0
 11 12  1  0  0  0  0
 11 33  1  0  0  0  0
 11 34  1  0  0  0  0
 12 13  1  0  0  0  0
 12 35  1  0  0  0  0
 12 36  1  0  0  0  0
 13 17  1  0  0  0  0
 13 14  1  0  0  0  0
 14 15  2  0  0  0  0
 14 37  1  0  0  0  0
 15 16  1  0  0  0  0
 15 38  1  0  0  0  0
 16 17  2  0  0  0  0
 16 39  1  0  0  0  0
M  CHG  1  10   1
M  END
> <s_m_source_file>
AV-unprocessed.smi

> <i_m_source_file_index>
3128

> <i_lp_mmshare_version>
43012

> <i_f3d_flags>
0

> <s_epik_input>
W0NIM11bQ0hdKFtDSDNdKVtDQEhdKFtDSDNdKVtOSF1DKD1PKVtDSDJdW05IXVtDSDJdW0NIMl1uMVtjSF1bY0hdW2NIXW4x

> <s_epik_cmdline>
J2VwaWtfcHl0aG9uJywgJy1waCcsICc3LjAnLCAnLXRuJywgJzgnLCAnLW1hJywgJzIwMCcsICctbWV0YWxfYmluZGluZycsICctaW1hZScsICc8aW5maWxlLm1hZT4nLCAnLW9tYWUnLCAnPG91dGZpbGUubWFlPic=

> <r_lp_tautomer_probability>
1

> <r_epik_Ionization_Penalty>
0.20724

> <r_epik_Ionization_Penalty_Charging>
0.207237

> <r_epik_Ionization_Penalty_Neutral>
3.20642e-06

> <r_epik_State_Penalty>
0.197613

> <r_epik_Charging_Adjusted_Penalty>
0.40485

> <i_epik_Tot_Q>
1

> <i_epik_Tot_abs_Q>
1

> <r_epik_Metal_State_Penalty>
0.197789

> <b_epik_Metal_Only>
0

> <s_lp_Force_Field>
OPLS_2005

> <r_lp_Energy>
3.68696

> <b_lp_Chiralities_Consistent>
1

> <s_lp_Variant>
AV-unprocessed.smi:3128-1

> <Gold.Version>
5.8.1

> <Gold.Id.Protein>
6NUR|6NUR_protein|mol2

> <Gold.PLP.Fitness>
47.4999

> <Gold.PLP.PLP>
-34.2841

> <Gold.PLP.part.hbond>
-4.0000

> <Gold.PLP.part.metal>
0.0000

> <Gold.PLP.part.buried>
-3.4802

> <Gold.PLP.part.nonpolar>
-28.6375

> <Gold.PLP.part.repulsive>
0.4305

> <Gold.PLP.ligand.clash>
0.0000

> <Gold.PLP.ligand.torsion>
0.6043

> <Gold.PLP.Chemscore.Hbond>
3.7200

> <Gold.PLP.Chemscore.CHOScore>
1.0000

> <Gold.PLP.Chemscore.Metal>
0.0000

> <Gold.Chemscore.Hbonds>
donor molecule, donor type, donor heavy atom, donor atom, acceptor molecule, acceptor atom, score
      L1  H     6    29       P1  7948  0.67
      L1  H    10    32       P1 10175  2.00
      L1  H    10    40       P1 10171  0.67
      L1  C    14    37       P1 10171  0.96

> <Gold.PLP.Chemscore.Internal.Correction>
0.2645

> <Gold.Rescore>
     Score         DG    S(hbond)    S(metal)    S(lipo)     H(rot)  DE(clash)    DE(int)     intcor
     15.84     -16.32       2.65        0.00      66.07       2.24       0.13       0.35       ----

> <Gold.Chemscore.Fitness>
15.8386

> <Gold.Chemscore.DG>
-16.3156

> <Gold.Chemscore.ZeroCoef>
-5.4800

> <Gold.Chemscore.Hbond>
2.6481

> <Gold.Chemscore.Metal>
0.0000

> <Gold.Chemscore.Lipo>
66.0653

> <Gold.Chemscore.Internal_Hbond>
0.0000

> <Gold.Chemscore.DEClash>
0.1267

> <Gold.Chemscore.DEInternal>
0.3503

> <Gold.Chemscore.Rot>
2.2416

> <Gold.Chemscore.Internal.Correction>
   9.000000E+99

> <Gold.Chemscore.Hbonds>
donor molecule, donor type, donor heavy atom, donor atom, acceptor molecule, acceptor atom, score
      L1  H     6    29       P1  7948  0.66
      L1  H    10    32       P1 10175  1.00
      L1  H    10    40       P1 10171  0.66

> <Gold.Chemscore.Hbond.Weighted>
-8.8445

> <Gold.Chemscore.Metal.Weighted>
-0.0000

> <Gold.Chemscore.Lipo.Weighted>
-7.7296

> <Gold.Chemscore.Internal_Hbond.Weighted>
0.0000

> <Gold.Chemscore.DEClash.Weighted>
0.1267

> <Gold.Chemscore.DEInternal.Weighted>
0.3503

> <Gold.Chemscore.Rot.Weighted>
5.7385

> <Gold.Chemscore.Internal.Correction.Weighted>
   9.000000E+99

> <Gold.Protein.RotatedTorsions>
[ 6907 6896 6895 6894 ] final   43.11 input  -60.11 | X-H torsion
[ 7974 7965 7964 7962 ] final  -18.84 input  175.53 | X-H torsion
[ 8008 7997 7996 7995 ] final  110.82 input   59.86 | X-H torsion
[ 10167 10162 10161 10158 ] final   -8.12 input  -65.29 | X-H torsion
[ 10718 10713 10712 10709 ] final -176.86 input   66.30 | X-H torsion
[ 10763 10752 10751 10750 ] final -127.82 input  -60.55 | X-H torsion
[ 11005 11000 10999 10996 ] final   30.18 input  -57.11 | X-H torsion

> <Gold.Protein.ActiveResidues>
 VAL166  LYS551  ARG553  GLY616  TRP617  ASP618  TYR619  PRO620  LYS621  CYS622 
 ASP623  PHE694  ASN695  SER759  ASP760  ASP761  ALA762  ILE779  LEU786  VAL792 
 PHE793  MET794  SER795  GLU796  ALA797  LYS798  CYS799  TRP800  GLU811  SER814 

> <Gold.Protein.RotatedAtoms>
  152.2162  134.8456  160.0491 H   0  0  0  0  0  0  0  0  0  0  0  0  # atno 6907 bound_to 6896
  151.9256  133.3592  159.3921 H   0  0  0  0  0  0  0  0  0  0  0  0  # atno 6908 bound_to 6896
  150.6988  134.4515  159.5382 H   0  0  0  0  0  0  0  0  0  0  0  0  # atno 6909 bound_to 6896
  146.1872  140.3977  142.8472 H   0  0  0  0  0  0  0  0  0  0  0  0  # atno 7974 bound_to 7965
  156.2080  140.3031  155.9669 H   0  0  0  0  0  0  0  0  0  0  0  0  # atno 8008 bound_to 7997
  155.2794  140.0437  157.3031 H   0  0  0  0  0  0  0  0  0  0  0  0  # atno 8009 bound_to 7997
  154.5660  140.2334  155.8272 H   0  0  0  0  0  0  0  0  0  0  0  0  # atno 8010 bound_to 7997
  140.7049  143.6004  150.8803 H   0  0  0  0  0  0  0  0  0  0  0  0  # atno 10167 bound_to 10162
  156.8209  130.9619  151.3112 H   0  0  0  0  0  0  0  0  0  0  0  0  # atno 10718 bound_to 10713
  154.8754  135.3949  154.3656 H   0  0  0  0  0  0  0  0  0  0  0  0  # atno 10763 bound_to 10752
  153.4423  135.7027  153.6166 H   0  0  0  0  0  0  0  0  0  0  0  0  # atno 10764 bound_to 10752
  153.4742  135.3783  155.2376 H   0  0  0  0  0  0  0  0  0  0  0  0  # atno 10765 bound_to 10752
  140.2971  134.2798  155.7762 H   0  0  0  0  0  0  0  0  0  0  0  0  # atno 11005 bound_to 11000
  144.8419  140.6870  143.6224 LP  0  0  0  0  0  0  0  0  0  0  0  0  # atno 17320 bound_to 7965
  145.3903  139.1618  143.4233 LP  0  0  0  0  0  0  0  0  0  0  0  0  # atno 17321 bound_to 7965
  139.9729  143.6037  152.2968 LP  0  0  0  0  0  0  0  0  0  0  0  0  # atno 17342 bound_to 10162
  139.6630  144.7662  151.1926 LP  0  0  0  0  0  0  0  0  0  0  0  0  # atno 17343 bound_to 10162
  157.6457  130.8842  149.9534 LP  0  0  0  0  0  0  0  0  0  0  0  0  # atno 17370 bound_to 10713
  156.0989  130.3657  150.0254 LP  0  0  0  0  0  0  0  0  0  0  0  0  # atno 17371 bound_to 10713
  141.2135  133.7622  156.9712 LP  0  0  0  0  0  0  0  0  0  0  0  0  # atno 17394 bound_to 11000
  140.1142  134.9457  157.2110 LP  0  0  0  0  0  0  0  0  0  0  0  0  # atno 17395 bound_to 11000

$$$$
