AV-unprocessed.smi:601|AV-procd|sdf|3034|dock10
  -GOLD-   2262023553D 1   1.00000     0.00000
 Structure written by MMmdl.
 49 50  0  0  0  0  0  0  0  0  2 V2000
  151.1657  144.8766  159.9653 C   0  0  0  0  0  0  0  0  0  0  0  0
  152.1696  144.0125  159.1905 C   0  0  0  0  0  0  0  0  0  0  0  0
  151.5119  143.0397  158.1987 C   0  0  0  0  0  0  0  0  0  0  0  0
  150.9208  141.7836  158.8671 C   0  0  0  0  0  0  0  0  0  0  0  0
  151.3767  140.5449  158.2173 N   0  0  0  0  0  0  0  0  0  0  0  0
  151.3261  140.4040  156.8652 C   0  0  0  0  0  0  0  0  0  0  0  0
  150.8540  141.2820  156.1400 O   0  0  0  0  0  0  0  0  0  0  0  0
  151.8537  139.1040  156.2180 C   0  0  1  0  0  0  0  0  0  0  0  0
  150.8441  138.3071  155.3754 C   0  0  0  0  0  0  0  0  0  0  0  0
  151.6956  137.6756  154.2803 C   0  0  0  0  0  0  0  0  0  0  0  0
  153.0955  138.2440  154.5137 C   0  0  0  0  0  0  0  0  0  0  0  0
  152.8635  139.4184  155.2714 O   0  0  0  0  0  0  0  0  0  0  0  0
  151.9122  139.5511  159.0586 C   0  0  0  0  0  0  0  0  0  0  0  0
  152.9994  139.7684  159.8460 C   0  0  0  0  0  0  0  0  0  0  0  0
  153.6456  140.9966  159.8460 N   0  0  0  0  0  0  0  0  0  0  0  0
  153.4897  138.7300  160.6830 N   0  0  0  0  0  0  0  0  0  0  0  0
  154.6656  139.0008  161.5419 C   0  0  0  0  0  0  0  0  0  0  0  0
  155.9552  139.2629  160.7353 C   0  0  0  0  0  0  0  0  0  0  0  0
  157.1723  139.6378  161.5912 C   0  0  0  0  0  0  0  0  0  0  0  0
  152.8827  137.5024  160.7005 C   0  0  0  0  0  0  0  0  0  0  0  0
  153.3316  136.6155  161.4279 O   0  0  0  0  0  0  0  0  0  0  0  0
  151.7953  137.2887  159.9060 N   0  5  0  0  0  0  0  0  0  0  0  0
  151.2685  138.2332  159.0834 C   0  0  0  0  0  0  0  0  0  0  0  0
  150.2862  138.0117  158.3748 O   0  0  0  0  0  0  0  0  0  0  0  0
  151.6844  145.5917  160.6039 H   0  0  0  0  0  0  0  0  0  0  0  0
  150.5247  144.2714  160.6062 H   0  0  0  0  0  0  0  0  0  0  0  0
  150.5262  145.4415  159.2863 H   0  0  0  0  0  0  0  0  0  0  0  0
  152.8387  144.6735  158.6386 H   0  0  0  0  0  0  0  0  0  0  0  0
  152.7992  143.4604  159.8891 H   0  0  0  0  0  0  0  0  0  0  0  0
  150.7365  143.5642  157.6401 H   0  0  0  0  0  0  0  0  0  0  0  0
  152.2608  142.7377  157.4657 H   0  0  0  0  0  0  0  0  0  0  0  0
  151.1721  141.7662  159.9290 H   0  0  0  0  0  0  0  0  0  0  0  0
  149.8319  141.8306  158.8317 H   0  0  0  0  0  0  0  0  0  0  0  0
  152.2698  138.4438  156.9802 H   0  0  0  0  0  0  0  0  0  0  0  0
  150.3269  137.5568  155.9740 H   0  0  0  0  0  0  0  0  0  0  0  0
  150.0873  138.9427  154.9142 H   0  0  0  0  0  0  0  0  0  0  0  0
  151.6952  136.5863  154.3303 H   0  0  0  0  0  0  0  0  0  0  0  0
  151.3204  137.9666  153.2984 H   0  0  0  0  0  0  0  0  0  0  0  0
  153.7046  137.5525  155.0984 H   0  0  0  0  0  0  0  0  0  0  0  0
  153.6221  138.4640  153.5849 H   0  0  0  0  0  0  0  0  0  0  0  0
  153.3314  141.7612  159.2661 H   0  0  0  0  0  0  0  0  0  0  0  0
  154.5335  141.1234  160.3104 H   0  0  0  0  0  0  0  0  0  0  0  0
  154.4605  139.8551  162.1874 H   0  0  0  0  0  0  0  0  0  0  0  0
  154.8479  138.1925  162.2514 H   0  0  0  0  0  0  0  0  0  0  0  0
  156.2018  138.3924  160.1276 H   0  0  0  0  0  0  0  0  0  0  0  0
  155.7634  140.0727  160.0309 H   0  0  0  0  0  0  0  0  0  0  0  0
  158.0296  139.8760  160.9616 H   0  0  0  0  0  0  0  0  0  0  0  0
  157.4660  138.8188  162.2479 H   0  0  0  0  0  0  0  0  0  0  0  0
  156.9629  140.5090  162.2124 H   0  0  0  0  0  0  0  0  0  0  0  0
  1  2  1  0  0  0  0
  1 25  1  0  0  0  0
  1 26  1  0  0  0  0
  1 27  1  0  0  0  0
  2  3  1  0  0  0  0
  2 28  1  0  0  0  0
  2 29  1  0  0  0  0
  3  4  1  0  0  0  0
  3 30  1  0  0  0  0
  3 31  1  0  0  0  0
  4  5  1  0  0  0  0
  4 32  1  0  0  0  0
  4 33  1  0  0  0  0
  5  6  1  0  0  0  0
  5 13  1  0  0  0  0
  6  7  2  0  0  0  0
  6  8  1  0  0  0  0
  8 12  1  0  0  0  0
  8  9  1  0  0  0  0
  8 34  1  0  0  0  0
  9 10  1  0  0  0  0
  9 35  1  0  0  0  0
  9 36  1  0  0  0  0
 10 11  1  0  0  0  0
 10 37  1  0  0  0  0
 10 38  1  0  0  0  0
 11 12  1  0  0  0  0
 11 39  1  0  0  0  0
 11 40  1  0  0  0  0
 13 23  1  0  0  0  0
 13 14  2  0  0  0  0
 14 15  1  0  0  0  0
 14 16  1  0  0  0  0
 15 41  1  0  0  0  0
 15 42  1  0  0  0  0
 16 17  1  0  0  0  0
 16 20  1  0  0  0  0
 17 18  1  0  0  0  0
 17 43  1  0  0  0  0
 17 44  1  0  0  0  0
 18 19  1  0  0  0  0
 18 45  1  0  0  0  0
 18 46  1  0  0  0  0
 19 47  1  0  0  0  0
 19 48  1  0  0  0  0
 19 49  1  0  0  0  0
 20 21  2  0  0  0  0
 20 22  1  0  0  0  0
 22 23  1  0  0  0  0
 23 24  2  0  0  0  0
M  CHG  1  22  -1
M  END
> <s_m_source_file>
AV-unprocessed.smi

> <i_m_source_file_index>
601

> <i_lp_mmshare_version>
43012

> <i_f3d_flags>
0

> <s_epik_input>
TzFbQ0gyXVtDSDJdW0NIMl1bQ0BIXTFDKD1PKU4oW0NIMl1bQ0gyXVtDSDJdW0NIM10pYzJjKFtOSDJdKW4oW0NIMl1bQ0gyXVtDSDNdKWMoPU8pW25IXWMyPU8=

> <s_epik_cmdline>
J2VwaWtfcHl0aG9uJywgJy1waCcsICc3LjAnLCAnLXRuJywgJzgnLCAnLW1hJywgJzIwMCcsICctbWV0YWxfYmluZGluZycsICctaW1hZScsICc8aW5maWxlLm1hZT4nLCAnLW9tYWUnLCAnPG91dGZpbGUubWFlPic=

> <r_lp_tautomer_probability>
1

> <r_epik_Ionization_Penalty>
5.90608

> <r_epik_Ionization_Penalty_Charging>
4.55687e-07

> <r_epik_Ionization_Penalty_Neutral>
5.90608

> <r_epik_State_Penalty>
5.90604

> <r_epik_Charging_Adjusted_Penalty>
5.90604

> <i_epik_Tot_Q>
-1

> <i_epik_Tot_abs_Q>
1

> <r_epik_Metal_State_Penalty>
1.84043

> <b_epik_Metal_Only>
1

> <s_lp_Force_Field>
OPLS_2005

> <r_lp_Energy>
54.0415

> <b_lp_Chiralities_Consistent>
1

> <s_lp_Variant>
AV-unprocessed.smi:601-4

> <Gold.Version>
5.8.1

> <Gold.Id.Protein>
6NUR|6NUR_protein|mol2

> <Gold.PLP.Fitness>
46.7566

> <Gold.PLP.PLP>
-39.6682

> <Gold.PLP.part.hbond>
-2.6813

> <Gold.PLP.part.metal>
0.0000

> <Gold.PLP.part.buried>
-8.0490

> <Gold.PLP.part.nonpolar>
-30.6857

> <Gold.PLP.part.repulsive>
0.1386

> <Gold.PLP.ligand.clash>
0.0000

> <Gold.PLP.ligand.torsion>
1.7201

> <Gold.PLP.Chemscore.Hbond>
2.7906

> <Gold.PLP.Chemscore.CHOScore>
0.0000

> <Gold.PLP.Chemscore.Metal>
0.0000

> <Gold.Chemscore.Hbonds>
donor molecule, donor type, donor heavy atom, donor atom, acceptor molecule, acceptor atom, score
      P1  H  6896  6907       L1    22  1.53
      P1  H  7997  8008       L1    12  1.00

> <Gold.PLP.Chemscore.Internal.Correction>
2.1568

> <Gold.Rescore>
     Score         DG    S(hbond)    S(metal)    S(lipo)     H(rot)  DE(clash)    DE(int)     intcor
     12.24     -16.01       1.55        0.00      87.87       1.92       0.02       3.75       ----

> <Gold.Chemscore.Fitness>
12.2446

> <Gold.Chemscore.DG>
-16.0145

> <Gold.Chemscore.ZeroCoef>
-5.4800

> <Gold.Chemscore.Hbond>
1.5477

> <Gold.Chemscore.Metal>
0.0000

> <Gold.Chemscore.Lipo>
87.8687

> <Gold.Chemscore.Internal_Hbond>
0.0000

> <Gold.Chemscore.DEClash>
0.0170

> <Gold.Chemscore.DEInternal>
3.7529

> <Gold.Chemscore.Rot>
1.9201

> <Gold.Chemscore.Internal.Correction>
   9.000000E+99

> <Gold.Chemscore.Hbonds>
donor molecule, donor type, donor heavy atom, donor atom, acceptor molecule, acceptor atom, score
      P1  H  6896  6907       L1    22  0.22
      P1  H  7997  8008       L1    12  0.73

> <Gold.Chemscore.Hbond.Weighted>
-5.1692

> <Gold.Chemscore.Metal.Weighted>
-0.0000

> <Gold.Chemscore.Lipo.Weighted>
-10.2806

> <Gold.Chemscore.Internal_Hbond.Weighted>
0.0000

> <Gold.Chemscore.DEClash.Weighted>
0.0170

> <Gold.Chemscore.DEInternal.Weighted>
3.7529

> <Gold.Chemscore.Rot.Weighted>
4.9154

> <Gold.Chemscore.Internal.Correction.Weighted>
   9.000000E+99

> <Gold.Protein.RotatedTorsions>
[ 6907 6896 6895 6894 ] final    4.47 input  -60.11 | X-H torsion
[ 7974 7965 7964 7962 ] final -177.56 input  175.53 | X-H torsion
[ 8008 7997 7996 7995 ] final  -30.70 input   59.86 | X-H torsion
[ 10167 10162 10161 10158 ] final   22.16 input  -65.29 | X-H torsion
[ 10718 10713 10712 10709 ] final   21.85 input   66.30 | X-H torsion
[ 10763 10752 10751 10750 ] final   81.43 input  -60.55 | X-H torsion
[ 11005 11000 10999 10996 ] final  -73.54 input  -57.11 | X-H torsion

> <Gold.Protein.ActiveResidues>
 VAL166  LYS551  ARG553  GLY616  TRP617  ASP618  TYR619  PRO620  LYS621  CYS622 
 ASP623  PHE694  ASN695  SER759  ASP760  ASP761  ALA762  ILE779  LEU786  VAL792 
 PHE793  MET794  SER795  GLU796  ALA797  LYS798  CYS799  TRP800  GLU811  SER814 

> <Gold.Protein.RotatedAtoms>
  151.6418  135.1012  160.0142 H   0  0  0  0  0  0  0  0  0  0  0  0  # atno 6907 bound_to 6896
  152.4050  133.6870  159.6357 H   0  0  0  0  0  0  0  0  0  0  0  0  # atno 6908 bound_to 6896
  150.7945  133.8642  159.3281 H   0  0  0  0  0  0  0  0  0  0  0  0  # atno 6909 bound_to 6896
  144.7128  140.1001  143.6417 H   0  0  0  0  0  0  0  0  0  0  0  0  # atno 7974 bound_to 7965
  154.4241  140.1784  156.1449 H   0  0  0  0  0  0  0  0  0  0  0  0  # atno 8008 bound_to 7997
  155.9962  140.3364  155.6776 H   0  0  0  0  0  0  0  0  0  0  0  0  # atno 8009 bound_to 7997
  155.6305  140.0669  157.2641 H   0  0  0  0  0  0  0  0  0  0  0  0  # atno 8010 bound_to 7997
  140.5370  143.9743  150.6497 H   0  0  0  0  0  0  0  0  0  0  0  0  # atno 10167 bound_to 10162
  157.1442  130.6646  149.5990 H   0  0  0  0  0  0  0  0  0  0  0  0  # atno 10718 bound_to 10713
  153.1116  135.4766  154.9045 H   0  0  0  0  0  0  0  0  0  0  0  0  # atno 10763 bound_to 10752
  154.7486  135.3100  154.8601 H   0  0  0  0  0  0  0  0  0  0  0  0  # atno 10764 bound_to 10752
  153.9188  135.6857  153.4802 H   0  0  0  0  0  0  0  0  0  0  0  0  # atno 10765 bound_to 10752
  141.1624  133.6881  156.7227 H   0  0  0  0  0  0  0  0  0  0  0  0  # atno 11005 bound_to 11000
  145.9545  139.2757  143.1192 LP  0  0  0  0  0  0  0  0  0  0  0  0  # atno 17320 bound_to 7965
  145.9288  140.9063  143.0367 LP  0  0  0  0  0  0  0  0  0  0  0  0  # atno 17321 bound_to 7965
  140.3133  143.3184  152.0857 LP  0  0  0  0  0  0  0  0  0  0  0  0  # atno 17342 bound_to 10162
  139.4974  144.6622  151.6439 LP  0  0  0  0  0  0  0  0  0  0  0  0  # atno 17343 bound_to 10162
  155.9783  130.4767  150.6645 LP  0  0  0  0  0  0  0  0  0  0  0  0  # atno 17370 bound_to 10713
  157.4280  131.0845  151.1067 LP  0  0  0  0  0  0  0  0  0  0  0  0  # atno 17371 bound_to 10713
  140.2804  134.8321  157.3928 LP  0  0  0  0  0  0  0  0  0  0  0  0  # atno 17394 bound_to 11000
  140.1439  134.4937  155.8011 LP  0  0  0  0  0  0  0  0  0  0  0  0  # atno 17395 bound_to 11000

$$$$
