AV-unprocessed.smi:3343|AV-procd|sdf|12895|dock1
  -GOLD-   2272019303D 1   1.00000     0.00000
 Structure written by MMmdl.
 42 43  0  0  0  0  0  0  0  0  2 V2000
  148.7991  140.8329  154.4427 C   0  0  0  0  0  0  0  0  0  0  0  0
  148.9642  139.3238  154.1717 C   0  0  2  0  0  0  0  0  0  0  0  0
  147.9365  138.4588  154.9243 C   0  0  0  0  0  0  0  0  0  0  0  0
  147.2935  138.9201  155.8679 O   0  0  0  0  0  0  0  0  0  0  0  0
  147.7860  137.1978  154.4880 N   0  0  0  0  0  0  0  0  0  0  0  0
  146.8920  136.2089  155.0764 C   0  0  0  0  0  0  0  0  0  0  0  0
  147.1805  134.8167  154.4918 C   0  0  0  0  0  0  0  0  0  0  0  0
  146.9169  134.7473  153.0327 N   0  3  0  0  0  0  0  0  0  0  0  0
  145.6171  135.3591  152.6648 C   0  0  0  0  0  0  0  0  0  0  0  0
  145.4238  135.3497  151.1337 C   0  0  0  0  0  0  0  0  0  0  0  0
  145.5149  134.0002  150.5742 N   0  0  0  0  0  0  0  0  0  0  0  0
  144.3642  133.1649  150.9007 C   0  0  0  0  0  0  0  0  0  0  0  0
  146.7927  133.3914  150.9472 C   0  0  0  0  0  0  0  0  0  0  0  0
  147.0075  133.3740  152.4757 C   0  0  0  0  0  0  0  0  0  0  0  0
  150.3239  138.8758  154.4513 N   0  0  0  0  0  0  0  0  0  0  0  0
  150.8495  137.6494  154.4145 C   0  0  0  0  0  0  0  0  0  0  0  0
  152.1261  137.5998  154.7678 N   0  0  0  0  0  0  0  0  0  0  0  0
  152.3428  138.9235  155.0276 C   0  0  0  0  0  0  0  0  0  0  0  0
  151.2940  139.7296  154.8639 N   0  0  0  0  0  0  0  0  0  0  0  0
  147.8046  141.1791  154.1590 H   0  0  0  0  0  0  0  0  0  0  0  0
  149.5206  141.4121  153.8656 H   0  0  0  0  0  0  0  0  0  0  0  0
  148.9478  141.0764  155.4955 H   0  0  0  0  0  0  0  0  0  0  0  0
  148.7865  139.1643  153.1070 H   0  0  0  0  0  0  0  0  0  0  0  0
  148.3447  136.9003  153.7012 H   0  0  0  0  0  0  0  0  0  0  0  0
  147.0091  136.1781  156.1611 H   0  0  0  0  0  0  0  0  0  0  0  0
  145.8680  136.5203  154.8725 H   0  0  0  0  0  0  0  0  0  0  0  0
  148.2081  134.5131  154.6979 H   0  0  0  0  0  0  0  0  0  0  0  0
  146.5374  134.0976  155.0022 H   0  0  0  0  0  0  0  0  0  0  0  0
  144.8016  134.8387  153.1688 H   0  0  0  0  0  0  0  0  0  0  0  0
  145.5906  136.3913  153.0162 H   0  0  0  0  0  0  0  0  0  0  0  0
  144.4633  135.7928  150.8679 H   0  0  0  0  0  0  0  0  0  0  0  0
  146.1894  135.9708  150.6663 H   0  0  0  0  0  0  0  0  0  0  0  0
  144.4498  132.1962  150.4078 H   0  0  0  0  0  0  0  0  0  0  0  0
  143.4456  133.6341  150.5471 H   0  0  0  0  0  0  0  0  0  0  0  0
  144.2622  132.9897  151.9710 H   0  0  0  0  0  0  0  0  0  0  0  0
  146.8482  132.3797  150.5434 H   0  0  0  0  0  0  0  0  0  0  0  0
  147.5966  133.9568  150.4735 H   0  0  0  0  0  0  0  0  0  0  0  0
  147.9904  132.9522  152.6810 H   0  0  0  0  0  0  0  0  0  0  0  0
  146.2835  132.7216  152.9656 H   0  0  0  0  0  0  0  0  0  0  0  0
  150.2853  136.7737  154.1289 H   0  0  0  0  0  0  0  0  0  0  0  0
  153.2997  139.3032  155.3546 H   0  0  0  0  0  0  0  0  0  0  0  0
  147.6295  135.3014  152.5792 H   0  0  0  0  0  0  0  0  0  0  0  0
  1  2  1  0  0  0  0
  1 20  1  0  0  0  0
  1 21  1  0  0  0  0
  1 22  1  0  0  0  0
  2  3  1  0  0  0  0
  2 15  1  0  0  0  0
  2 23  1  0  0  0  0
  3  4  2  0  0  0  0
  3  5  1  0  0  0  0
  5  6  1  0  0  0  0
  5 24  1  0  0  0  0
  6  7  1  0  0  0  0
  6 25  1  0  0  0  0
  6 26  1  0  0  0  0
  7  8  1  0  0  0  0
  7 27  1  0  0  0  0
  7 28  1  0  0  0  0
  8 14  1  0  0  0  0
  8  9  1  0  0  0  0
  8 42  1  0  0  0  0
  9 10  1  0  0  0  0
  9 29  1  0  0  0  0
  9 30  1  0  0  0  0
 10 11  1  0  0  0  0
 10 31  1  0  0  0  0
 10 32  1  0  0  0  0
 11 12  1  0  0  0  0
 11 13  1  0  0  0  0
 12 33  1  0  0  0  0
 12 34  1  0  0  0  0
 12 35  1  0  0  0  0
 13 14  1  0  0  0  0
 13 36  1  0  0  0  0
 13 37  1  0  0  0  0
 14 38  1  0  0  0  0
 14 39  1  0  0  0  0
 15 19  1  0  0  0  0
 15 16  1  0  0  0  0
 16 17  2  0  0  0  0
 16 40  1  0  0  0  0
 17 18  1  0  0  0  0
 18 19  2  0  0  0  0
 18 41  1  0  0  0  0
M  CHG  1   8   1
M  END
> <s_m_source_file>
AV-unprocessed.smi

> <i_m_source_file_index>
3343

> <i_lp_mmshare_version>
43012

> <i_f3d_flags>
0

> <s_epik_input>
bjFbY0hdbltjSF1uMVtDQEhdKFtDSDNdKUMoPU8pW05IXVtDSDJdW0NIMl1OMltDSDJdW0NIMl1OKFtDSDNdKVtDSDJdW0NIMl0y

> <s_epik_cmdline>
J2VwaWtfcHl0aG9uJywgJy1waCcsICc3LjAnLCAnLXRuJywgJzgnLCAnLW1hJywgJzIwMCcsICctbWV0YWxfYmluZGluZycsICctaW1hZScsICc8aW5maWxlLm1hZT4nLCAnLW9tYWUnLCAnPG91dGZpbGUubWFlPic=

> <r_epik_Ionization_Penalty>
0.559944

> <r_epik_Ionization_Penalty_Charging>
0.558624

> <r_epik_Ionization_Penalty_Neutral>
0.00131959

> <r_epik_State_Penalty>
2.08679

> <r_epik_Charging_Adjusted_Penalty>
2.64542

> <i_epik_Tot_Q>
1

> <i_epik_Tot_abs_Q>
1

> <r_epik_Metal_State_Penalty>
2.0868

> <b_epik_Metal_Only>
0

> <s_lp_Force_Field>
OPLS_2005

> <r_lp_Energy>
23.1114

> <b_lp_Chiralities_Consistent>
1

> <s_lp_Variant>
AV-unprocessed.smi:3343-5

> <Gold.Version>
5.8.1

> <Gold.Id.Protein>
6NUR|6NUR_protein|mol2

> <Gold.PLP.Fitness>
48.1853

> <Gold.PLP.PLP>
-31.7789

> <Gold.PLP.part.hbond>
-4.0000

> <Gold.PLP.part.metal>
0.0000

> <Gold.PLP.part.buried>
-5.3555

> <Gold.PLP.part.nonpolar>
-24.5545

> <Gold.PLP.part.repulsive>
0.9257

> <Gold.PLP.ligand.clash>
0.0000

> <Gold.PLP.ligand.torsion>
0.5332

> <Gold.PLP.Chemscore.Hbond>
4.8000

> <Gold.PLP.Chemscore.CHOScore>
0.9754

> <Gold.PLP.Chemscore.Metal>
0.0000

> <Gold.Chemscore.Hbonds>
donor molecule, donor type, donor heavy atom, donor atom, acceptor molecule, acceptor atom, score
      L1  H     5    24       P1  7948  0.96
      L1  H     8    42       P1  7948  2.00
      P1  H  7989  7998       L1    19  1.00
      P1  H 10752 10764       L1    17  0.54
      L1  C    16    40       P1  7948  0.67
      L1  C    16    40       P1  7949  0.02

> <Gold.PLP.Chemscore.Internal.Correction>
0.1466

> <Gold.Rescore>
     Score         DG    S(hbond)    S(metal)    S(lipo)     H(rot)  DE(clash)    DE(int)     intcor
     15.38     -16.57       3.74        0.00      45.48       2.63       0.56       0.64       ----

> <Gold.Chemscore.Fitness>
15.3752

> <Gold.Chemscore.DG>
-16.5690

> <Gold.Chemscore.ZeroCoef>
-5.4800

> <Gold.Chemscore.Hbond>
3.7410

> <Gold.Chemscore.Metal>
0.0000

> <Gold.Chemscore.Lipo>
45.4786

> <Gold.Chemscore.Internal_Hbond>
0.0000

> <Gold.Chemscore.DEClash>
0.5558

> <Gold.Chemscore.DEInternal>
0.6380

> <Gold.Chemscore.Rot>
2.6278

> <Gold.Chemscore.Internal.Correction>
   9.000000E+99

> <Gold.Chemscore.Hbonds>
donor molecule, donor type, donor heavy atom, donor atom, acceptor molecule, acceptor atom, score
      L1  H     5    24       P1  7948  0.91
      L1  H     8    42       P1  7948  1.00
      P1  H  7989  7998       L1    19  0.43
      P1  H 10752 10764       L1    17  0.41

> <Gold.Chemscore.Hbond.Weighted>
-12.4951

> <Gold.Chemscore.Metal.Weighted>
-0.0000

> <Gold.Chemscore.Lipo.Weighted>
-5.3210

> <Gold.Chemscore.Internal_Hbond.Weighted>
0.0000

> <Gold.Chemscore.DEClash.Weighted>
0.5558

> <Gold.Chemscore.DEInternal.Weighted>
0.6380

> <Gold.Chemscore.Rot.Weighted>
6.7271

> <Gold.Chemscore.Internal.Correction.Weighted>
   9.000000E+99

> <Gold.Protein.RotatedTorsions>
[ 6907 6896 6895 6894 ] final  178.25 input  -60.11 | X-H torsion
[ 7974 7965 7964 7962 ] final   -3.25 input  175.53 | X-H torsion
[ 8008 7997 7996 7995 ] final  166.62 input   59.86 | X-H torsion
[ 10167 10162 10161 10158 ] final  136.05 input  -65.29 | X-H torsion
[ 10718 10713 10712 10709 ] final   -5.02 input   66.30 | X-H torsion
[ 10763 10752 10751 10750 ] final  -77.55 input  -60.55 | X-H torsion
[ 11005 11000 10999 10996 ] final -111.98 input  -57.11 | X-H torsion

> <Gold.Protein.ActiveResidues>
 VAL166  LYS551  ARG553  GLY616  TRP617  ASP618  TYR619  PRO620  LYS621  CYS622 
 ASP623  PHE694  ASN695  SER759  ASP760  ASP761  ALA762  ILE779  LEU786  VAL792 
 PHE793  MET794  SER795  GLU796  ALA797  LYS798  CYS799  TRP800  GLU811  SER814 

> <Gold.Protein.RotatedAtoms>
  151.6908  133.3311  159.3242 H   0  0  0  0  0  0  0  0  0  0  0  0  # atno 6907 bound_to 6896
  150.7780  134.6700  159.6396 H   0  0  0  0  0  0  0  0  0  0  0  0  # atno 6908 bound_to 6896
  152.3828  134.6567  160.0188 H   0  0  0  0  0  0  0  0  0  0  0  0  # atno 6909 bound_to 6896
  146.2392  140.1694  142.8332 H   0  0  0  0  0  0  0  0  0  0  0  0  # atno 7974 bound_to 7965
  156.1703  140.1638  156.8459 H   0  0  0  0  0  0  0  0  0  0  0  0  # atno 8008 bound_to 7997
  154.5250  140.0769  156.8276 H   0  0  0  0  0  0  0  0  0  0  0  0  # atno 8009 bound_to 7997
  155.3526  140.3391  155.4242 H   0  0  0  0  0  0  0  0  0  0  0  0  # atno 8010 bound_to 7997
  139.5194  144.6485  151.5371 H   0  0  0  0  0  0  0  0  0  0  0  0  # atno 10167 bound_to 10162
  156.7528  130.5245  149.5800 H   0  0  0  0  0  0  0  0  0  0  0  0  # atno 10718 bound_to 10713
  154.5144  135.5760  153.6630 H   0  0  0  0  0  0  0  0  0  0  0  0  # atno 10763 bound_to 10752
  152.9904  135.6166  154.2836 H   0  0  0  0  0  0  0  0  0  0  0  0  # atno 10764 bound_to 10752
  154.2753  135.2852  155.2700 H   0  0  0  0  0  0  0  0  0  0  0  0  # atno 10765 bound_to 10752
  141.0702  133.9392  157.2499 H   0  0  0  0  0  0  0  0  0  0  0  0  # atno 11005 bound_to 11000
  145.0024  140.8643  143.5273 LP  0  0  0  0  0  0  0  0  0  0  0  0  # atno 17320 bound_to 7965
  145.1715  139.2401  143.5339 LP  0  0  0  0  0  0  0  0  0  0  0  0  # atno 17321 bound_to 7965
  140.6280  143.9132  150.6581 LP  0  0  0  0  0  0  0  0  0  0  0  0  # atno 17342 bound_to 10162
  140.2427  143.3652  152.1473 LP  0  0  0  0  0  0  0  0  0  0  0  0  # atno 17343 bound_to 10162
  156.1390  130.6231  151.0441 LP  0  0  0  0  0  0  0  0  0  0  0  0  # atno 17370 bound_to 10713
  157.6769  131.0848  150.7470 LP  0  0  0  0  0  0  0  0  0  0  0  0  # atno 17371 bound_to 10713
  139.9516  135.0174  156.9010 LP  0  0  0  0  0  0  0  0  0  0  0  0  # atno 17394 bound_to 11000
  140.5689  134.0462  155.7423 LP  0  0  0  0  0  0  0  0  0  0  0  0  # atno 17395 bound_to 11000

$$$$
