AV-unprocessed.smi:2581|AV-procd|sdf|10132|dock2
  -GOLD-   2272014143D 1   1.00000     0.00000
 Structure written by MMmdl.
 40 42  0  0  0  0  0  0  0  0  2 V2000
  151.7060  138.3950  156.7767 O   0  0  0  0  0  0  0  0  0  0  0  0
  151.3105  139.5543  156.8962 C   0  0  0  0  0  0  0  0  0  0  0  0
  151.9937  140.5410  157.7364 C   0  0  0  0  0  0  0  0  0  0  0  0
  151.5933  141.8343  157.8530 C   0  0  0  0  0  0  0  0  0  0  0  0
  152.2675  142.7554  158.6589 N   0  0  0  0  0  0  0  0  0  0  0  0
  152.1886  144.2059  158.5054 C   0  0  0  0  0  0  0  0  0  0  0  0
  151.4895  144.8292  159.7248 C   0  0  0  0  0  0  0  0  0  0  0  0
  152.2126  144.4849  160.9025 O   0  0  0  0  0  0  0  0  0  0  0  0
  152.2837  143.0754  161.0966 C   0  0  0  0  0  0  0  0  0  0  0  0
  152.9778  142.4160  159.8906 C   0  0  0  0  0  0  0  0  0  0  0  0
  150.4130  142.1940  157.0811 C   0  0  0  0  0  0  0  0  0  0  0  0
  149.7799  141.3560  156.3339 N   0  0  0  0  0  0  0  0  0  0  0  0
  150.2068  140.0409  156.2515 N   0  0  0  0  0  0  0  0  0  0  0  0
  149.4007  139.1857  155.3574 C   0  0  1  0  0  0  0  0  0  0  0  0
  147.9485  139.0063  155.8577 C   0  0  0  0  0  0  0  0  0  0  0  0
  147.1568  138.1256  154.8792 C   0  0  0  0  0  0  0  0  0  0  0  0
  147.2195  138.6991  153.4533 C   0  0  0  0  0  0  0  0  0  0  0  0
  148.6229  138.8636  153.0146 N   0  3  0  0  0  0  0  0  0  0  0  0
  149.4139  139.7329  153.9135 C   0  0  0  0  0  0  0  0  0  0  0  0
  152.8717  140.2016  158.2654 H   0  0  0  0  0  0  0  0  0  0  0  0
  153.2009  144.6028  158.4199 H   0  0  0  0  0  0  0  0  0  0  0  0
  151.6795  144.4880  157.5846 H   0  0  0  0  0  0  0  0  0  0  0  0
  151.4621  145.9146  159.6303 H   0  0  0  0  0  0  0  0  0  0  0  0
  150.4564  144.4863  159.8006 H   0  0  0  0  0  0  0  0  0  0  0  0
  152.8420  142.8716  162.0103 H   0  0  0  0  0  0  0  0  0  0  0  0
  151.2811  142.6676  161.2368 H   0  0  0  0  0  0  0  0  0  0  0  0
  153.0182  141.3399  160.0524 H   0  0  0  0  0  0  0  0  0  0  0  0
  154.0095  142.7613  159.8138 H   0  0  0  0  0  0  0  0  0  0  0  0
  150.0766  143.2261  157.1730 H   0  0  0  0  0  0  0  0  0  0  0  0
  149.8238  138.1805  155.3200 H   0  0  0  0  0  0  0  0  0  0  0  0
  147.9441  138.5575  156.8516 H   0  0  0  0  0  0  0  0  0  0  0  0
  147.4425  139.9684  155.9464 H   0  0  0  0  0  0  0  0  0  0  0  0
  147.5609  137.1125  154.8867 H   0  0  0  0  0  0  0  0  0  0  0  0
  146.1191  138.0468  155.2049 H   0  0  0  0  0  0  0  0  0  0  0  0
  146.7035  138.0380  152.7567 H   0  0  0  0  0  0  0  0  0  0  0  0
  146.7144  139.6652  153.4099 H   0  0  0  0  0  0  0  0  0  0  0  0
  149.0589  137.9528  152.9864 H   0  0  0  0  0  0  0  0  0  0  0  0
  149.0063  140.7440  153.8755 H   0  0  0  0  0  0  0  0  0  0  0  0
  150.4360  139.7872  153.5375 H   0  0  0  0  0  0  0  0  0  0  0  0
  148.6332  139.2582  152.0847 H   0  0  0  0  0  0  0  0  0  0  0  0
  1  2  2  0  0  0  0
  2 13  1  0  0  0  0
  2  3  1  0  0  0  0
  3  4  2  0  0  0  0
  3 20  1  0  0  0  0
  4  5  1  0  0  0  0
  4 11  1  0  0  0  0
  5 10  1  0  0  0  0
  5  6  1  0  0  0  0
  6  7  1  0  0  0  0
  6 21  1  0  0  0  0
  6 22  1  0  0  0  0
  7  8  1  0  0  0  0
  7 23  1  0  0  0  0
  7 24  1  0  0  0  0
  8  9  1  0  0  0  0
  9 10  1  0  0  0  0
  9 25  1  0  0  0  0
  9 26  1  0  0  0  0
 10 27  1  0  0  0  0
 10 28  1  0  0  0  0
 11 12  2  0  0  0  0
 11 29  1  0  0  0  0
 12 13  1  0  0  0  0
 13 14  1  0  0  0  0
 14 19  1  0  0  0  0
 14 15  1  0  0  0  0
 14 30  1  0  0  0  0
 15 16  1  0  0  0  0
 15 31  1  0  0  0  0
 15 32  1  0  0  0  0
 16 17  1  0  0  0  0
 16 33  1  0  0  0  0
 16 34  1  0  0  0  0
 17 18  1  0  0  0  0
 17 35  1  0  0  0  0
 17 36  1  0  0  0  0
 18 19  1  0  0  0  0
 18 37  1  0  0  0  0
 18 40  1  0  0  0  0
 19 38  1  0  0  0  0
 19 39  1  0  0  0  0
M  CHG  1  18   1
M  END
> <s_m_source_file>
AV-unprocessed.smi

> <i_m_source_file_index>
2581

> <i_lp_mmshare_version>
43012

> <i_f3d_flags>
0

> <s_epik_input>
W0NIMl0xW0NIMl1PW0NIMl1bQ0gyXU4xYyhbY0hdYzI9TylbY0hdbm4yW0NAQEhdM1tDSDJdW0NIMl1bQ0gyXVtOSF1bQ0gyXTM=

> <s_epik_cmdline>
J2VwaWtfcHl0aG9uJywgJy1waCcsICc3LjAnLCAnLXRuJywgJzgnLCAnLW1hJywgJzIwMCcsICctbWV0YWxfYmluZGluZycsICctaW1hZScsICc8aW5maWxlLm1hZT4nLCAnLW9tYWUnLCAnPG91dGZpbGUubWFlPic=

> <r_lp_tautomer_probability>
1

> <r_epik_Ionization_Penalty>
0.00140529

> <r_epik_Ionization_Penalty_Charging>
0.00140528

> <r_epik_Ionization_Penalty_Neutral>
1.0684e-08

> <r_epik_State_Penalty>
0.000937322

> <r_epik_Charging_Adjusted_Penalty>
0.00234261

> <i_epik_Tot_Q>
1

> <i_epik_Tot_abs_Q>
1

> <r_epik_Metal_State_Penalty>
-0

> <b_epik_Metal_Only>
0

> <s_lp_Force_Field>
OPLS_2005

> <r_lp_Energy>
43.4563

> <b_lp_Chiralities_Consistent>
1

> <s_lp_Variant>
AV-unprocessed.smi:2581-2

> <Gold.Version>
5.8.1

> <Gold.Id.Protein>
6NUR|6NUR_protein|mol2

> <Gold.PLP.Fitness>
42.8388

> <Gold.PLP.PLP>
-33.3201

> <Gold.PLP.part.hbond>
-1.5397

> <Gold.PLP.part.metal>
0.0000

> <Gold.PLP.part.buried>
-2.0148

> <Gold.PLP.part.nonpolar>
-30.3334

> <Gold.PLP.part.repulsive>
0.3033

> <Gold.PLP.ligand.clash>
0.0000

> <Gold.PLP.ligand.torsion>
0.3167

> <Gold.PLP.Chemscore.Hbond>
2.3680

> <Gold.PLP.Chemscore.CHOScore>
1.0000

> <Gold.PLP.Chemscore.Metal>
0.0000

> <Gold.Chemscore.Hbonds>
donor molecule, donor type, donor heavy atom, donor atom, acceptor molecule, acceptor atom, score
      L1  H    18    37       P1  7948  1.54
      L1  H    18    40       P1  7957  0.80
      L1  C    11    29       P1  8028  1.00

> <Gold.PLP.Chemscore.Internal.Correction>
0.0481

> <Gold.Rescore>
     Score         DG    S(hbond)    S(metal)    S(lipo)     H(rot)  DE(clash)    DE(int)     intcor
     17.23     -17.72       1.46        0.00      84.98       1.00       0.28       0.22       ----

> <Gold.Chemscore.Fitness>
17.2287

> <Gold.Chemscore.DG>
-17.7236

> <Gold.Chemscore.ZeroCoef>
-5.4800

> <Gold.Chemscore.Hbond>
1.4555

> <Gold.Chemscore.Metal>
0.0000

> <Gold.Chemscore.Lipo>
84.9760

> <Gold.Chemscore.Internal_Hbond>
0.0000

> <Gold.Chemscore.DEClash>
0.2753

> <Gold.Chemscore.DEInternal>
0.2197

> <Gold.Chemscore.Rot>
1.0000

> <Gold.Chemscore.Internal.Correction>
   9.000000E+99

> <Gold.Chemscore.Hbonds>
donor molecule, donor type, donor heavy atom, donor atom, acceptor molecule, acceptor atom, score
      L1  H    18    37       P1  7948  0.71
      L1  H    18    40       P1  7957  0.74

> <Gold.Chemscore.Hbond.Weighted>
-4.8614

> <Gold.Chemscore.Metal.Weighted>
-0.0000

> <Gold.Chemscore.Lipo.Weighted>
-9.9422

> <Gold.Chemscore.Internal_Hbond.Weighted>
0.0000

> <Gold.Chemscore.DEClash.Weighted>
0.2753

> <Gold.Chemscore.DEInternal.Weighted>
0.2197

> <Gold.Chemscore.Rot.Weighted>
2.5600

> <Gold.Chemscore.Internal.Correction.Weighted>
   9.000000E+99

> <Gold.Protein.RotatedTorsions>
[ 6907 6896 6895 6894 ] final  128.72 input  -60.11 | X-H torsion
[ 7974 7965 7964 7962 ] final  123.74 input  175.53 | X-H torsion
[ 8008 7997 7996 7995 ] final   46.30 input   59.86 | X-H torsion
[ 10167 10162 10161 10158 ] final    5.85 input  -65.29 | X-H torsion
[ 10718 10713 10712 10709 ] final  -97.54 input   66.30 | X-H torsion
[ 10763 10752 10751 10750 ] final  -89.16 input  -60.55 | X-H torsion
[ 11005 11000 10999 10996 ] final  167.09 input  -57.11 | X-H torsion

> <Gold.Protein.ActiveResidues>
 VAL166  LYS551  ARG553  GLY616  TRP617  ASP618  TYR619  PRO620  LYS621  CYS622 
 ASP623  PHE694  ASN695  SER759  ASP760  ASP761  ALA762  ILE779  LEU786  VAL792 
 PHE793  MET794  SER795  GLU796  ALA797  LYS798  CYS799  TRP800  GLU811  SER814 

> <Gold.Protein.RotatedAtoms>
  152.3693  133.6397  159.6074 H   0  0  0  0  0  0  0  0  0  0  0  0  # atno 6907 bound_to 6896
  150.7656  133.9297  159.3432 H   0  0  0  0  0  0  0  0  0  0  0  0  # atno 6908 bound_to 6896
  151.7123  135.0911  160.0321 H   0  0  0  0  0  0  0  0  0  0  0  0  # atno 6909 bound_to 6896
  145.0924  139.3577  143.4853 H   0  0  0  0  0  0  0  0  0  0  0  0  # atno 7974 bound_to 7965
  155.3502  140.3413  155.4239 H   0  0  0  0  0  0  0  0  0  0  0  0  # atno 8008 bound_to 7997
  156.1768  140.1650  156.8383 H   0  0  0  0  0  0  0  0  0  0  0  0  # atno 8009 bound_to 7997
  154.5290  140.0749  156.8294 H   0  0  0  0  0  0  0  0  0  0  0  0  # atno 8010 bound_to 7997
  140.6459  143.7662  150.7499 H   0  0  0  0  0  0  0  0  0  0  0  0  # atno 10167 bound_to 10162
  156.0086  130.5199  150.6389 H   0  0  0  0  0  0  0  0  0  0  0  0  # atno 10718 bound_to 10713
  154.6523  135.5351  153.7916 H   0  0  0  0  0  0  0  0  0  0  0  0  # atno 10763 bound_to 10752
  153.0393  135.6485  154.0999 H   0  0  0  0  0  0  0  0  0  0  0  0  # atno 10764 bound_to 10752
  154.0915  135.2939  155.3250 H   0  0  0  0  0  0  0  0  0  0  0  0  # atno 10765 bound_to 10752
  140.2732  134.7810  157.3693 H   0  0  0  0  0  0  0  0  0  0  0  0  # atno 11005 bound_to 11000
  146.3531  140.0765  142.8620 LP  0  0  0  0  0  0  0  0  0  0  0  0  # atno 17320 bound_to 7965
  145.1050  140.9369  143.4690 LP  0  0  0  0  0  0  0  0  0  0  0  0  # atno 17321 bound_to 7965
  140.1303  143.4532  152.2258 LP  0  0  0  0  0  0  0  0  0  0  0  0  # atno 17342 bound_to 10162
  139.5670  144.7441  151.3994 LP  0  0  0  0  0  0  0  0  0  0  0  0  # atno 17343 bound_to 10162
  157.4173  131.0832  151.1164 LP  0  0  0  0  0  0  0  0  0  0  0  0  # atno 17370 bound_to 10713
  157.1777  130.6295  149.5661 LP  0  0  0  0  0  0  0  0  0  0  0  0  # atno 17371 bound_to 10713
  140.1354  134.5041  155.8073 LP  0  0  0  0  0  0  0  0  0  0  0  0  # atno 17394 bound_to 11000
  141.2174  133.6805  156.7114 LP  0  0  0  0  0  0  0  0  0  0  0  0  # atno 17395 bound_to 11000

$$$$
