AV-unprocessed.smi:2095|AV-procd|sdf|8560|dock9
  -GOLD-   2272011283D 1   1.00000     0.00000
 Structure written by MMmdl.
 42 43  0  0  0  0  0  0  0  0  2 V2000
  143.2876  132.6613  151.1140 C   0  0  0  0  0  0  0  0  0  0  0  0
  144.5517  133.1015  150.3545 C   0  0  2  0  0  0  0  0  0  0  0  0
  145.7147  132.1024  150.5051 C   0  0  0  0  0  0  0  0  0  0  0  0
  146.3500  132.1884  151.9010 C   0  0  0  0  0  0  0  0  0  0  0  0
  146.7605  133.6320  152.2299 C   0  0  0  0  0  0  0  0  0  0  0  0
  145.5947  134.5498  152.1142 N   0  3  1  0  0  0  0  0  0  0  0  0
  145.8112  135.9297  152.6388 C   0  0  1  0  0  0  0  0  0  0  0  0
  144.5433  136.7854  152.4559 C   0  0  0  0  0  0  0  0  0  0  0  0
  146.3380  135.9525  154.0962 C   0  0  0  0  0  0  0  0  0  0  0  0
  147.7882  136.0966  154.1575 N   0  0  0  0  0  0  0  0  0  0  0  0
  148.4737  136.5028  155.2380 C   0  0  0  0  0  0  0  0  0  0  0  0
  147.9382  136.7922  156.3076 O   0  0  0  0  0  0  0  0  0  0  0  0
  149.9944  136.5845  155.0969 C   0  0  0  0  0  0  0  0  0  0  0  0
  150.4562  137.9593  155.1447 N   0  0  0  0  0  0  0  0  0  0  0  0
  150.2053  138.9976  154.3446 C   0  0  0  0  0  0  0  0  0  0  0  0
  150.8469  140.0861  154.7417 N   0  0  0  0  0  0  0  0  0  0  0  0
  151.5302  139.6564  155.8670 N   0  0  0  0  0  0  0  0  0  0  0  0
  151.3021  138.3953  156.1115 N   0  0  0  0  0  0  0  0  0  0  0  0
  145.0042  134.5230  150.7484 C   0  0  0  0  0  0  0  0  0  0  0  0
  143.4488  132.6284  152.1916 H   0  0  0  0  0  0  0  0  0  0  0  0
  142.9665  131.6687  150.7970 H   0  0  0  0  0  0  0  0  0  0  0  0
  142.4604  133.3465  150.9265 H   0  0  0  0  0  0  0  0  0  0  0  0
  144.2804  133.1264  149.2981 H   0  0  0  0  0  0  0  0  0  0  0  0
  145.3756  131.0855  150.3043 H   0  0  0  0  0  0  0  0  0  0  0  0
  146.4754  132.3232  149.7550 H   0  0  0  0  0  0  0  0  0  0  0  0
  145.6512  131.8224  152.6541 H   0  0  0  0  0  0  0  0  0  0  0  0
  147.2213  131.5349  151.9508 H   0  0  0  0  0  0  0  0  0  0  0  0
  147.1732  133.6636  153.2378 H   0  0  0  0  0  0  0  0  0  0  0  0
  147.5534  133.9472  151.5503 H   0  0  0  0  0  0  0  0  0  0  0  0
  146.5681  136.3879  152.0009 H   0  0  0  0  0  0  0  0  0  0  0  0
  144.7432  137.8372  152.6623 H   0  0  0  0  0  0  0  0  0  0  0  0
  143.7396  136.4717  153.1218 H   0  0  0  0  0  0  0  0  0  0  0  0
  144.1728  136.7245  151.4323 H   0  0  0  0  0  0  0  0  0  0  0  0
  145.9116  136.7934  154.6433 H   0  0  0  0  0  0  0  0  0  0  0  0
  146.0422  135.0523  154.6363 H   0  0  0  0  0  0  0  0  0  0  0  0
  148.3076  135.8808  153.3181 H   0  0  0  0  0  0  0  0  0  0  0  0
  150.4755  136.0266  155.9015 H   0  0  0  0  0  0  0  0  0  0  0  0
  150.3057  136.1283  154.1560 H   0  0  0  0  0  0  0  0  0  0  0  0
  149.5625  138.9554  153.4776 H   0  0  0  0  0  0  0  0  0  0  0  0
  145.7399  134.8845  150.0290 H   0  0  0  0  0  0  0  0  0  0  0  0
  144.1533  135.2029  150.6899 H   0  0  0  0  0  0  0  0  0  0  0  0
  144.8797  134.1585  152.7107 H   0  0  0  0  0  0  0  0  0  0  0  0
  1  2  1  0  0  0  0
  1 20  1  0  0  0  0
  1 21  1  0  0  0  0
  1 22  1  0  0  0  0
  2 19  1  0  0  0  0
  2  3  1  0  0  0  0
  2 23  1  0  0  0  0
  3  4  1  0  0  0  0
  3 24  1  0  0  0  0
  3 25  1  0  0  0  0
  4  5  1  0  0  0  0
  4 26  1  0  0  0  0
  4 27  1  0  0  0  0
  5  6  1  0  0  0  0
  5 28  1  0  0  0  0
  5 29  1  0  0  0  0
  6  7  1  0  0  0  0
  6 19  1  0  0  0  0
  6 42  1  0  0  0  0
  7  8  1  0  0  0  0
  7  9  1  0  0  0  0
  7 30  1  0  0  0  0
  8 31  1  0  0  0  0
  8 32  1  0  0  0  0
  8 33  1  0  0  0  0
  9 10  1  0  0  0  0
  9 34  1  0  0  0  0
  9 35  1  0  0  0  0
 10 11  1  0  0  0  0
 10 36  1  0  0  0  0
 11 12  2  0  0  0  0
 11 13  1  0  0  0  0
 13 14  1  0  0  0  0
 13 37  1  0  0  0  0
 13 38  1  0  0  0  0
 14 18  1  0  0  0  0
 14 15  1  0  0  0  0
 15 16  2  0  0  0  0
 15 39  1  0  0  0  0
 16 17  1  0  0  0  0
 17 18  2  0  0  0  0
 19 40  1  0  0  0  0
 19 41  1  0  0  0  0
M  CHG  1   6   1
M  END
> <s_m_source_file>
AV-unprocessed.smi

> <i_m_source_file_index>
2095

> <i_lp_mmshare_version>
43012

> <i_f3d_flags>
0

> <s_epik_input>
W0NIM11bQ0BASF0xW0NIMl1bQ0gyXVtDSDJdTihbQ0gyXTEpW0NASF0oW0NIM10pW0NIMl1bTkhdQyg9TylbQ0gyXW4yW2NIXW5ubjI=

> <s_epik_cmdline>
J2VwaWtfcHl0aG9uJywgJy1waCcsICc3LjAnLCAnLXRuJywgJzgnLCAnLW1hJywgJzIwMCcsICctbWV0YWxfYmluZGluZycsICctaW1hZScsICc8aW5maWxlLm1hZT4nLCAnLW9tYWUnLCAnPG91dGZpbGUubWFlPic=

> <r_lp_tautomer_probability>
1

> <r_epik_Ionization_Penalty>
0.00268321

> <r_epik_Ionization_Penalty_Charging>
0.00267875

> <r_epik_Ionization_Penalty_Neutral>
4.46125e-06

> <r_epik_State_Penalty>
0.00186642

> <r_epik_Charging_Adjusted_Penalty>
0.00454517

> <i_epik_Tot_Q>
1

> <i_epik_Tot_abs_Q>
1

> <r_epik_Metal_State_Penalty>
-0

> <b_epik_Metal_Only>
0

> <s_lp_Force_Field>
OPLS_2005

> <r_lp_Energy>
24.9707

> <b_lp_Chiralities_Consistent>
1

> <s_lp_Variant>
AV-unprocessed.smi:2095-7

> <Gold.Version>
5.8.1

> <Gold.Id.Protein>
6NUR|6NUR_protein|mol2

> <Gold.PLP.Fitness>
35.3983

> <Gold.PLP.PLP>
-27.9156

> <Gold.PLP.part.hbond>
-1.8192

> <Gold.PLP.part.metal>
0.0000

> <Gold.PLP.part.buried>
-4.3110

> <Gold.PLP.part.nonpolar>
-22.3973

> <Gold.PLP.part.repulsive>
0.1096

> <Gold.PLP.ligand.clash>
0.0000

> <Gold.PLP.ligand.torsion>
0.8070

> <Gold.PLP.Chemscore.Hbond>
1.9920

> <Gold.PLP.Chemscore.CHOScore>
1.0000

> <Gold.PLP.Chemscore.Metal>
0.0000

> <Gold.Chemscore.Hbonds>
donor molecule, donor type, donor heavy atom, donor atom, acceptor molecule, acceptor atom, score
      L1  H    10    36       P1  7948  1.00
      P1  H  7989  7998       L1    16  1.00
      L1  C    15    39       P1  7957  0.95

> <Gold.PLP.Chemscore.Internal.Correction>
0.1206

> <Gold.Rescore>
     Score         DG    S(hbond)    S(metal)    S(lipo)     H(rot)  DE(clash)    DE(int)     intcor
     11.34     -12.18       1.90        0.00      60.97       2.64       0.03       0.81       ----

> <Gold.Chemscore.Fitness>
11.3441

> <Gold.Chemscore.DG>
-12.1795

> <Gold.Chemscore.ZeroCoef>
-5.4800

> <Gold.Chemscore.Hbond>
1.8965

> <Gold.Chemscore.Metal>
0.0000

> <Gold.Chemscore.Lipo>
60.9717

> <Gold.Chemscore.Internal_Hbond>
0.0000

> <Gold.Chemscore.DEClash>
0.0286

> <Gold.Chemscore.DEInternal>
0.8068

> <Gold.Chemscore.Rot>
2.6439

> <Gold.Chemscore.Internal.Correction>
   9.000000E+99

> <Gold.Chemscore.Hbonds>
donor molecule, donor type, donor heavy atom, donor atom, acceptor molecule, acceptor atom, score
      L1  H    10    36       P1  7948  0.97
      P1  H  7989  7998       L1    16  0.84

> <Gold.Chemscore.Hbond.Weighted>
-6.3343

> <Gold.Chemscore.Metal.Weighted>
-0.0000

> <Gold.Chemscore.Lipo.Weighted>
-7.1337

> <Gold.Chemscore.Internal_Hbond.Weighted>
0.0000

> <Gold.Chemscore.DEClash.Weighted>
0.0286

> <Gold.Chemscore.DEInternal.Weighted>
0.8068

> <Gold.Chemscore.Rot.Weighted>
6.7685

> <Gold.Chemscore.Internal.Correction.Weighted>
   9.000000E+99

> <Gold.Protein.RotatedTorsions>
[ 6907 6896 6895 6894 ] final  -24.73 input  -60.11 | X-H torsion
[ 7974 7965 7964 7962 ] final  105.29 input  175.53 | X-H torsion
[ 8008 7997 7996 7995 ] final   37.24 input   59.86 | X-H torsion
[ 10167 10162 10161 10158 ] final  156.95 input  -65.29 | X-H torsion
[ 10718 10713 10712 10709 ] final   -5.74 input   66.30 | X-H torsion
[ 10763 10752 10751 10750 ] final   74.64 input  -60.55 | X-H torsion
[ 11005 11000 10999 10996 ] final  -52.06 input  -57.11 | X-H torsion

> <Gold.Protein.ActiveResidues>
 VAL166  LYS551  ARG553  GLY616  TRP617  ASP618  TYR619  PRO620  LYS621  CYS622 
 ASP623  PHE694  ASN695  SER759  ASP760  ASP761  ALA762  ILE779  LEU786  VAL792 
 PHE793  MET794  SER795  GLU796  ALA797  LYS798  CYS799  TRP800  GLU811  SER814 

> <Gold.Protein.RotatedAtoms>
  151.1853  135.0379  159.8809 H   0  0  0  0  0  0  0  0  0  0  0  0  # atno 6907 bound_to 6896
  152.5442  134.1017  159.8331 H   0  0  0  0  0  0  0  0  0  0  0  0  # atno 6908 bound_to 6896
  151.1139  133.5106  159.2637 H   0  0  0  0  0  0  0  0  0  0  0  0  # atno 6909 bound_to 6896
  145.3216  139.2511  143.3709 H   0  0  0  0  0  0  0  0  0  0  0  0  # atno 7974 bound_to 7965
  155.2006  140.3315  155.4344 H   0  0  0  0  0  0  0  0  0  0  0  0  # atno 8008 bound_to 7997
  156.2408  140.1894  156.7043 H   0  0  0  0  0  0  0  0  0  0  0  0  # atno 8009 bound_to 7997
  154.6144  140.0604  156.9521 H   0  0  0  0  0  0  0  0  0  0  0  0  # atno 8010 bound_to 7997
  139.4822  144.4962  151.8236 H   0  0  0  0  0  0  0  0  0  0  0  0  # atno 10167 bound_to 10162
  156.7422  130.5213  149.5822 H   0  0  0  0  0  0  0  0  0  0  0  0  # atno 10718 bound_to 10713
  153.0600  135.5018  154.8072 H   0  0  0  0  0  0  0  0  0  0  0  0  # atno 10763 bound_to 10752
  154.6868  135.2977  154.9538 H   0  0  0  0  0  0  0  0  0  0  0  0  # atno 10764 bound_to 10752
  154.0306  135.6730  153.4833 H   0  0  0  0  0  0  0  0  0  0  0  0  # atno 10765 bound_to 10752
  141.0904  133.6634  156.3969 H   0  0  0  0  0  0  0  0  0  0  0  0  # atno 11005 bound_to 11000
  146.3080  140.3774  142.8680 LP  0  0  0  0  0  0  0  0  0  0  0  0  # atno 17320 bound_to 7965
  144.8935  140.7553  143.5912 LP  0  0  0  0  0  0  0  0  0  0  0  0  # atno 17321 bound_to 7965
  140.4450  144.1933  150.5893 LP  0  0  0  0  0  0  0  0  0  0  0  0  # atno 17342 bound_to 10162
  140.4643  143.2436  151.9176 LP  0  0  0  0  0  0  0  0  0  0  0  0  # atno 17343 bound_to 10162
  156.1457  130.6275  151.0528 LP  0  0  0  0  0  0  0  0  0  0  0  0  # atno 17370 bound_to 10713
  157.6814  131.0837  150.7360 LP  0  0  0  0  0  0  0  0  0  0  0  0  # atno 17371 bound_to 10713
  140.5264  134.6254  157.5335 LP  0  0  0  0  0  0  0  0  0  0  0  0  # atno 17394 bound_to 11000
  139.9729  134.7262  156.0005 LP  0  0  0  0  0  0  0  0  0  0  0  0  # atno 17395 bound_to 11000

$$$$
