AV-unprocessed.smi:1239|AV-procd|sdf|5191|dock3
  -GOLD-   22720 4273D 1   1.00000     0.00000
 Structure written by MMmdl.
 48 49  0  0  0  0  0  0  0  0  2 V2000
  146.2550  142.5093  154.1750 C   0  0  0  0  0  0  0  0  0  0  0  0
  146.9857  141.1611  154.3863 C   0  0  2  0  0  0  0  0  0  0  0  0
  148.5103  141.3139  154.1204 C   0  0  0  0  0  0  0  0  0  0  0  0
  149.2025  142.1049  155.1360 N   0  0  0  0  0  0  0  0  0  0  0  0
  149.8549  141.6080  156.1975 C   0  0  0  0  0  0  0  0  0  0  0  0
  149.9767  140.4028  156.4132 O   0  0  0  0  0  0  0  0  0  0  0  0
  150.3607  142.5939  156.9581 N   0  0  0  0  0  0  0  0  0  0  0  0
  151.0973  142.5028  158.1711 C   0  0  0  0  0  0  0  0  0  0  0  0
  151.7144  141.2735  158.4712 C   0  0  0  0  0  0  0  0  0  0  0  0
  152.4667  141.1464  159.6539 C   0  0  0  0  0  0  0  0  0  0  0  0
  152.5927  142.2631  160.5165 C   0  0  0  0  0  0  0  0  0  0  0  0
  153.3376  142.1888  161.7158 N   0  0  0  0  0  0  0  0  0  0  0  0
  153.1336  143.1873  162.7604 C   0  0  0  0  0  0  0  0  0  0  0  0
  154.2737  141.0924  161.9319 C   0  0  0  0  0  0  0  0  0  0  0  0
  152.0054  143.4483  160.2204 N   0  0  0  0  0  0  0  0  0  0  0  0
  151.2842  143.5662  159.0856 C   0  0  0  0  0  0  0  0  0  0  0  0
  146.3614  140.0743  153.5575 N   0  3  0  0  0  0  0  0  0  0  0  0
  147.1769  139.6383  152.3884 C   0  0  0  0  0  0  0  0  0  0  0  0
  146.4727  138.5294  151.5878 C   0  0  0  0  0  0  0  0  0  0  0  0
  146.1799  137.4312  152.4370 O   0  0  0  0  0  0  0  0  0  0  0  0
  145.2948  137.8111  153.4780 C   0  0  0  0  0  0  0  0  0  0  0  0
  145.9628  138.8811  154.3568 C   0  0  0  0  0  0  0  0  0  0  0  0
  146.6955  143.3086  154.7696 H   0  0  0  0  0  0  0  0  0  0  0  0
  145.2114  142.4779  154.4809 H   0  0  0  0  0  0  0  0  0  0  0  0
  146.2914  142.8192  153.1301 H   0  0  0  0  0  0  0  0  0  0  0  0
  146.8696  140.8791  155.4342 H   0  0  0  0  0  0  0  0  0  0  0  0
  149.0036  140.3431  154.1483 H   0  0  0  0  0  0  0  0  0  0  0  0
  148.6815  141.7200  153.1218 H   0  0  0  0  0  0  0  0  0  0  0  0
  149.1618  143.1086  155.0340 H   0  0  0  0  0  0  0  0  0  0  0  0
  150.2267  143.5318  156.6096 H   0  0  0  0  0  0  0  0  0  0  0  0
  151.6134  140.4305  157.8035 H   0  0  0  0  0  0  0  0  0  0  0  0
  152.9319  140.1974  159.8728 H   0  0  0  0  0  0  0  0  0  0  0  0
  152.1018  143.1666  163.1129 H   0  0  0  0  0  0  0  0  0  0  0  0
  153.3515  144.1868  162.3826 H   0  0  0  0  0  0  0  0  0  0  0  0
  153.7829  143.0062  163.6170 H   0  0  0  0  0  0  0  0  0  0  0  0
  155.0506  141.0945  161.1668 H   0  0  0  0  0  0  0  0  0  0  0  0
  153.7543  140.1340  161.9016 H   0  0  0  0  0  0  0  0  0  0  0  0
  154.7637  141.1739  162.9020 H   0  0  0  0  0  0  0  0  0  0  0  0
  150.8725  144.5489  158.9214 H   0  0  0  0  0  0  0  0  0  0  0  0
  147.3468  140.4645  151.6996 H   0  0  0  0  0  0  0  0  0  0  0  0
  148.1522  139.2907  152.7327 H   0  0  0  0  0  0  0  0  0  0  0  0
  145.5577  138.9035  151.1252 H   0  0  0  0  0  0  0  0  0  0  0  0
  147.1180  138.1855  150.7792 H   0  0  0  0  0  0  0  0  0  0  0  0
  144.3539  138.1763  153.0630 H   0  0  0  0  0  0  0  0  0  0  0  0
  145.0568  136.9312  154.0760 H   0  0  0  0  0  0  0  0  0  0  0  0
  146.8410  138.4604  154.8488 H   0  0  0  0  0  0  0  0  0  0  0  0
  145.2540  139.1457  155.1382 H   0  0  0  0  0  0  0  0  0  0  0  0
  145.5114  140.4632  153.1740 H   0  0  0  0  0  0  0  0  0  0  0  0
  1  2  1  0  0  0  0
  1 23  1  0  0  0  0
  1 24  1  0  0  0  0
  1 25  1  0  0  0  0
  2  3  1  0  0  0  0
  2 17  1  0  0  0  0
  2 26  1  0  0  0  0
  3  4  1  0  0  0  0
  3 27  1  0  0  0  0
  3 28  1  0  0  0  0
  4  5  1  0  0  0  0
  4 29  1  0  0  0  0
  5  6  2  0  0  0  0
  5  7  1  0  0  0  0
  7  8  1  0  0  0  0
  7 30  1  0  0  0  0
  8 16  1  0  0  0  0
  8  9  2  0  0  0  0
  9 10  1  0  0  0  0
  9 31  1  0  0  0  0
 10 11  2  0  0  0  0
 10 32  1  0  0  0  0
 11 12  1  0  0  0  0
 11 15  1  0  0  0  0
 12 13  1  0  0  0  0
 12 14  1  0  0  0  0
 13 33  1  0  0  0  0
 13 34  1  0  0  0  0
 13 35  1  0  0  0  0
 14 36  1  0  0  0  0
 14 37  1  0  0  0  0
 14 38  1  0  0  0  0
 15 16  2  0  0  0  0
 16 39  1  0  0  0  0
 17 22  1  0  0  0  0
 17 18  1  0  0  0  0
 17 48  1  0  0  0  0
 18 19  1  0  0  0  0
 18 40  1  0  0  0  0
 18 41  1  0  0  0  0
 19 20  1  0  0  0  0
 19 42  1  0  0  0  0
 19 43  1  0  0  0  0
 20 21  1  0  0  0  0
 21 22  1  0  0  0  0
 21 44  1  0  0  0  0
 21 45  1  0  0  0  0
 22 46  1  0  0  0  0
 22 47  1  0  0  0  0
M  CHG  1  17   1
M  END
> <s_m_source_file>
AV-unprocessed.smi

> <i_m_source_file_index>
1239

> <i_lp_mmshare_version>
43012

> <i_f3d_flags>
0

> <s_epik_input>
W0NIMl0xW0NIMl1PW0NIMl1bQ0gyXU4xW0NASF0oW0NIM10pW0NIMl1bTkhdQyg9TylbTkhdYzJbY0hdW2NIXWMoTihbQ0gzXSlbQ0gzXSluW2NIXTI=

> <s_epik_cmdline>
J2VwaWtfcHl0aG9uJywgJy1waCcsICc3LjAnLCAnLXRuJywgJzgnLCAnLW1hJywgJzIwMCcsICctbWV0YWxfYmluZGluZycsICctaW1hZScsICc8aW5maWxlLm1hZT4nLCAnLW9tYWUnLCAnPG91dGZpbGUubWFlPic=

> <r_epik_Ionization_Penalty>
1.1428

> <r_epik_Ionization_Penalty_Charging>
0.602531

> <r_epik_Ionization_Penalty_Neutral>
0.540271

> <r_epik_State_Penalty>
1.1888

> <r_epik_Charging_Adjusted_Penalty>
1.79133

> <i_epik_Tot_Q>
1

> <i_epik_Tot_abs_Q>
1

> <r_epik_Metal_State_Penalty>
0.936295

> <b_epik_Metal_Only>
0

> <s_lp_Force_Field>
OPLS_2005

> <r_lp_Energy>
25.054

> <b_lp_Chiralities_Consistent>
1

> <s_lp_Variant>
AV-unprocessed.smi:1239-7

> <Gold.Version>
5.8.1

> <Gold.Id.Protein>
6NUR|6NUR_protein|mol2

> <Gold.PLP.Fitness>
53.3809

> <Gold.PLP.PLP>
-45.3370

> <Gold.PLP.part.hbond>
-3.0000

> <Gold.PLP.part.metal>
0.0000

> <Gold.PLP.part.buried>
-1.4361

> <Gold.PLP.part.nonpolar>
-41.5217

> <Gold.PLP.part.repulsive>
1.0587

> <Gold.PLP.ligand.clash>
0.0000

> <Gold.PLP.ligand.torsion>
1.8108

> <Gold.PLP.Chemscore.Hbond>
3.8640

> <Gold.PLP.Chemscore.CHOScore>
0.0000

> <Gold.PLP.Chemscore.Metal>
0.0000

> <Gold.Chemscore.Hbonds>
donor molecule, donor type, donor heavy atom, donor atom, acceptor molecule, acceptor atom, score
      L1  H     4    29       P1  8028  1.00
      L1  H     7    30       P1  8028  0.86
      L1  H    17    48       P1 10175  2.00

> <Gold.PLP.Chemscore.Internal.Correction>
0.0734

> <Gold.Rescore>
     Score         DG    S(hbond)    S(metal)    S(lipo)     H(rot)  DE(clash)    DE(int)     intcor
     18.16     -23.63       2.89        0.00     105.24       1.48       2.76       2.71       ----

> <Gold.Chemscore.Fitness>
18.1646

> <Gold.Chemscore.DG>
-23.6345

> <Gold.Chemscore.ZeroCoef>
-5.4800

> <Gold.Chemscore.Hbond>
2.8855

> <Gold.Chemscore.Metal>
0.0000

> <Gold.Chemscore.Lipo>
105.2439

> <Gold.Chemscore.Internal_Hbond>
0.0000

> <Gold.Chemscore.DEClash>
2.7629

> <Gold.Chemscore.DEInternal>
2.7070

> <Gold.Chemscore.Rot>
1.4830

> <Gold.Chemscore.Internal.Correction>
   9.000000E+99

> <Gold.Chemscore.Hbonds>
donor molecule, donor type, donor heavy atom, donor atom, acceptor molecule, acceptor atom, score
      L1  H     4    29       P1  8028  0.97
      L1  H     7    30       P1  8028  0.80
      L1  H    17    48       P1 10175  0.93

> <Gold.Chemscore.Hbond.Weighted>
-9.6374

> <Gold.Chemscore.Metal.Weighted>
-0.0000

> <Gold.Chemscore.Lipo.Weighted>
-12.3135

> <Gold.Chemscore.Internal_Hbond.Weighted>
0.0000

> <Gold.Chemscore.DEClash.Weighted>
2.7629

> <Gold.Chemscore.DEInternal.Weighted>
2.7070

> <Gold.Chemscore.Rot.Weighted>
3.7964

> <Gold.Chemscore.Internal.Correction.Weighted>
   9.000000E+99

> <Gold.Protein.RotatedTorsions>
[ 6907 6896 6895 6894 ] final  -38.62 input  -60.11 | X-H torsion
[ 7974 7965 7964 7962 ] final -179.82 input  175.53 | X-H torsion
[ 8008 7997 7996 7995 ] final  -28.96 input   59.86 | X-H torsion
[ 10167 10162 10161 10158 ] final   40.24 input  -65.29 | X-H torsion
[ 10718 10713 10712 10709 ] final -157.48 input   66.30 | X-H torsion
[ 10763 10752 10751 10750 ] final  -30.39 input  -60.55 | X-H torsion
[ 11005 11000 10999 10996 ] final -170.00 input  -57.11 | X-H torsion

> <Gold.Protein.ActiveResidues>
 VAL166  LYS551  ARG553  GLY616  TRP617  ASP618  TYR619  PRO620  LYS621  CYS622 
 ASP623  PHE694  ASN695  SER759  ASP760  ASP761  ALA762  ILE779  LEU786  VAL792 
 PHE793  MET794  SER795  GLU796  ALA797  LYS798  CYS799  TRP800  GLU811  SER814 

> <Gold.Protein.RotatedAtoms>
  151.0002  134.9316  159.7949 H   0  0  0  0  0  0  0  0  0  0  0  0  # atno 6907 bound_to 6896
  152.5276  134.3164  159.9142 H   0  0  0  0  0  0  0  0  0  0  0  0  # atno 6908 bound_to 6896
  151.3170  133.4014  159.2686 H   0  0  0  0  0  0  0  0  0  0  0  0  # atno 6909 bound_to 6896
  144.7139  140.0660  143.6431 H   0  0  0  0  0  0  0  0  0  0  0  0  # atno 7974 bound_to 7965
  154.4310  140.1831  156.1173 H   0  0  0  0  0  0  0  0  0  0  0  0  # atno 8008 bound_to 7997
  156.0171  140.3344  155.6975 H   0  0  0  0  0  0  0  0  0  0  0  0  # atno 8009 bound_to 7997
  155.6029  140.0642  157.2718 H   0  0  0  0  0  0  0  0  0  0  0  0  # atno 8010 bound_to 7997
  140.3761  144.2041  150.6131 H   0  0  0  0  0  0  0  0  0  0  0  0  # atno 10167 bound_to 10162
  156.5409  130.8563  151.2748 H   0  0  0  0  0  0  0  0  0  0  0  0  # atno 10718 bound_to 10713
  153.7802  135.6905  153.4890 H   0  0  0  0  0  0  0  0  0  0  0  0  # atno 10763 bound_to 10752
  153.1816  135.4504  155.0034 H   0  0  0  0  0  0  0  0  0  0  0  0  # atno 10764 bound_to 10752
  154.8084  135.3367  154.7306 H   0  0  0  0  0  0  0  0  0  0  0  0  # atno 10765 bound_to 10752
  140.5244  134.5678  157.5057 H   0  0  0  0  0  0  0  0  0  0  0  0  # atno 11005 bound_to 11000
  145.9824  139.2951  143.1034 LP  0  0  0  0  0  0  0  0  0  0  0  0  # atno 17320 bound_to 7965
  145.8996  140.9252  143.0510 LP  0  0  0  0  0  0  0  0  0  0  0  0  # atno 17321 bound_to 7965
  140.4984  143.2325  151.8715 LP  0  0  0  0  0  0  0  0  0  0  0  0  # atno 17342 bound_to 10162
  139.4799  144.5087  151.8962 LP  0  0  0  0  0  0  0  0  0  0  0  0  # atno 17343 bound_to 10162
  157.7405  130.9852  150.2384 LP  0  0  0  0  0  0  0  0  0  0  0  0  # atno 17370 bound_to 10713
  156.2972  130.3753  149.7785 LP  0  0  0  0  0  0  0  0  0  0  0  0  # atno 17371 bound_to 10713
  139.9588  134.7488  156.0282 LP  0  0  0  0  0  0  0  0  0  0  0  0  # atno 17394 bound_to 11000
  141.1316  133.6585  156.3481 LP  0  0  0  0  0  0  0  0  0  0  0  0  # atno 17395 bound_to 11000

$$$$
