AV-unprocessed.smi:1527|AV-procd|sdf|6149|dock1
  -GOLD-   22720 6293D 1   1.00000     0.00000
 Structure written by MMmdl.
 31 31  0  0  0  0  0  0  0  0  1 V2000
  153.0853  143.0215  162.2698 C   0  0  0  0  0  0  0  0  0  0  0  0
  152.8013  143.1152  160.7632 C   0  0  0  0  0  0  0  0  0  0  0  0
  153.0093  141.7862  160.0136 C   0  0  2  0  0  0  0  0  0  0  0  0
  154.4947  141.4049  159.9270 C   0  0  0  0  0  0  0  0  0  0  0  0
  152.4415  141.8725  158.6702 N   0  0  0  0  0  0  0  0  0  0  0  0
  151.5340  141.0327  158.1492 C   0  0  0  0  0  0  0  0  0  0  0  0
  151.0963  140.0497  158.7486 O   0  0  0  0  0  0  0  0  0  0  0  0
  151.0669  141.3461  156.7209 C   0  0  0  0  0  0  0  0  0  0  0  0
  151.2823  140.2280  155.7919 N   0  0  0  0  0  0  0  0  0  0  0  0
  152.5944  139.7837  155.7315 N   0  0  0  0  0  0  0  0  0  0  0  0
  152.9059  138.7982  154.9594 C   0  0  0  0  0  0  0  0  0  0  0  0
  154.2161  138.3879  154.9338 O   0  0  0  0  0  0  0  0  0  0  0  0
  151.9088  138.1420  154.1428 C   0  0  0  0  0  0  0  0  0  0  0  0
  150.6337  138.5843  154.2057 C   0  0  0  0  0  0  0  0  0  0  0  0
  150.2452  139.6984  155.0723 C   0  0  0  0  0  0  0  0  0  0  0  0
  149.0919  140.1221  155.1495 O   0  0  0  0  0  0  0  0  0  0  0  0
  154.3429  137.9053  155.7362 H   0  0  0  0  0  0  0  0  0  0  0  0
  152.9663  143.9943  162.7470 H   0  0  0  0  0  0  0  0  0  0  0  0
  154.1045  142.6822  162.4570 H   0  0  0  0  0  0  0  0  0  0  0  0
  152.4059  142.3275  162.7653 H   0  0  0  0  0  0  0  0  0  0  0  0
  151.7819  143.4719  160.6099 H   0  0  0  0  0  0  0  0  0  0  0  0
  153.4553  143.8746  160.3331 H   0  0  0  0  0  0  0  0  0  0  0  0
  152.4949  141.0069  160.5790 H   0  0  0  0  0  0  0  0  0  0  0  0
  154.9350  141.3164  160.9206 H   0  0  0  0  0  0  0  0  0  0  0  0
  155.0662  142.1522  159.3753 H   0  0  0  0  0  0  0  0  0  0  0  0
  154.6261  140.4461  159.4243 H   0  0  0  0  0  0  0  0  0  0  0  0
  152.7469  142.6476  158.0994 H   0  0  0  0  0  0  0  0  0  0  0  0
  150.0113  141.6256  156.7254 H   0  0  0  0  0  0  0  0  0  0  0  0
  151.6031  142.2329  156.3789 H   0  0  0  0  0  0  0  0  0  0  0  0
  152.1867  137.3189  153.5009 H   0  0  0  0  0  0  0  0  0  0  0  0
  149.8787  138.1037  153.6012 H   0  0  0  0  0  0  0  0  0  0  0  0
  1  2  1  0  0  0  0
  1 18  1  0  0  0  0
  1 19  1  0  0  0  0
  1 20  1  0  0  0  0
  2  3  1  0  0  0  0
  2 21  1  0  0  0  0
  2 22  1  0  0  0  0
  3  4  1  0  0  0  0
  3  5  1  0  0  0  0
  3 23  1  0  0  0  0
  4 24  1  0  0  0  0
  4 25  1  0  0  0  0
  4 26  1  0  0  0  0
  5  6  1  0  0  0  0
  5 27  1  0  0  0  0
  6  7  2  0  0  0  0
  6  8  1  0  0  0  0
  8 28  1  0  0  0  0
  8 29  1  0  0  0  0
  8  9  1  0  0  0  0
  9 10  1  0  0  0  0
  9 15  1  0  0  0  0
 10 11  2  0  0  0  0
 11 12  1  0  0  0  0
 11 13  1  0  0  0  0
 12 17  1  0  0  0  0
 13 30  1  0  0  0  0
 13 14  2  0  0  0  0
 14 31  1  0  0  0  0
 14 15  1  0  0  0  0
 15 16  2  0  0  0  0
M  END
> <s_m_source_file>
AV-unprocessed.smi

> <i_m_source_file_index>
1527

> <i_lp_mmshare_version>
43012

> <i_f3d_flags>
0

> <s_epik_input>
W0NIM11bQ0gyXVtDQEhdKFtDSDNdKVtOSF1DKD1PKVtDSDJdbjFbbkhdYyg9TylbY0hdW2NIXWMxPU8=

> <s_epik_cmdline>
J2VwaWtfcHl0aG9uJywgJy1waCcsICc3LjAnLCAnLXRuJywgJzgnLCAnLW1hJywgJzIwMCcsICctbWV0YWxfYmluZGluZycsICctaW1hZScsICc8aW5maWxlLm1hZT4nLCAnLW9tYWUnLCAnPG91dGZpbGUubWFlPic=

> <r_lp_tautomer_probability>
0.9996

> <r_epik_Ionization_Penalty>
2.12171

> <r_epik_Ionization_Penalty_Charging>
3.79077e-08

> <r_epik_Ionization_Penalty_Neutral>
2.12171

> <r_epik_State_Penalty>
1.69857

> <r_epik_Charging_Adjusted_Penalty>
1.69857

> <i_epik_Tot_Q>
0

> <i_epik_Tot_abs_Q>
0

> <r_epik_Metal_State_Penalty>
1.69857

> <b_epik_Metal_Only>
0

> <s_lp_Force_Field>
OPLS_2005

> <r_lp_Energy>
14.661

> <b_lp_Chiralities_Consistent>
1

> <s_lp_Variant>
AV-unprocessed.smi:1527-3

> <Gold.Version>
5.8.1

> <Gold.Id.Protein>
6NUR|6NUR_protein|mol2

> <Gold.PLP.Fitness>
42.1023

> <Gold.PLP.PLP>
-39.3624

> <Gold.PLP.part.hbond>
-3.0000

> <Gold.PLP.part.metal>
0.0000

> <Gold.PLP.part.buried>
-5.7293

> <Gold.PLP.part.nonpolar>
-30.7633

> <Gold.PLP.part.repulsive>
0.1735

> <Gold.PLP.ligand.clash>
0.0000

> <Gold.PLP.ligand.torsion>
0.1410

> <Gold.PLP.Chemscore.Hbond>
1.0000

> <Gold.PLP.Chemscore.CHOScore>
0.0000

> <Gold.PLP.Chemscore.Metal>
0.0000

> <Gold.Chemscore.Hbonds>
donor molecule, donor type, donor heavy atom, donor atom, acceptor molecule, acceptor atom, score
      P1  H  7997  8009       L1    10  0.85

> <Gold.PLP.Chemscore.Internal.Correction>
0.0220

> <Gold.Rescore>
     Score         DG    S(hbond)    S(metal)    S(lipo)     H(rot)  DE(clash)    DE(int)     intcor
      9.11      -9.60       0.88        0.00      66.58       2.58       0.02       0.47       ----

> <Gold.Chemscore.Fitness>
9.1083

> <Gold.Chemscore.DG>
-9.6000

> <Gold.Chemscore.ZeroCoef>
-5.4800

> <Gold.Chemscore.Hbond>
0.8791

> <Gold.Chemscore.Metal>
0.0000

> <Gold.Chemscore.Lipo>
66.5822

> <Gold.Chemscore.Internal_Hbond>
0.0000

> <Gold.Chemscore.DEClash>
0.0237

> <Gold.Chemscore.DEInternal>
0.4680

> <Gold.Chemscore.Rot>
2.5806

> <Gold.Chemscore.Internal.Correction>
   9.000000E+99

> <Gold.Chemscore.Hbonds>
donor molecule, donor type, donor heavy atom, donor atom, acceptor molecule, acceptor atom, score
      P1  H  7997  8009       L1    10  0.15

> <Gold.Chemscore.Hbond.Weighted>
-2.9362

> <Gold.Chemscore.Metal.Weighted>
-0.0000

> <Gold.Chemscore.Lipo.Weighted>
-7.7901

> <Gold.Chemscore.Internal_Hbond.Weighted>
0.0000

> <Gold.Chemscore.DEClash.Weighted>
0.0237

> <Gold.Chemscore.DEInternal.Weighted>
0.4680

> <Gold.Chemscore.Rot.Weighted>
6.6063

> <Gold.Chemscore.Internal.Correction.Weighted>
   9.000000E+99

> <Gold.Protein.RotatedTorsions>
[ 6907 6896 6895 6894 ] final   12.69 input  -60.11 | X-H torsion
[ 7974 7965 7964 7962 ] final  -48.44 input  175.53 | X-H torsion
[ 8008 7997 7996 7995 ] final -164.82 input   59.86 | X-H torsion
[ 10167 10162 10161 10158 ] final  -80.79 input  -65.29 | X-H torsion
[ 10718 10713 10712 10709 ] final  -99.12 input   66.30 | X-H torsion
[ 10763 10752 10751 10750 ] final   47.33 input  -60.55 | X-H torsion
[ 11005 11000 10999 10996 ] final -141.17 input  -57.11 | X-H torsion

> <Gold.Protein.ActiveResidues>
 VAL166  LYS551  ARG553  GLY616  TRP617  ASP618  TYR619  PRO620  LYS621  CYS622 
 ASP623  PHE694  ASN695  SER759  ASP760  ASP761  ALA762  ILE779  LEU786  VAL792 
 PHE793  MET794  SER795  GLU796  ALA797  LYS798  CYS799  TRP800  GLU811  SER814 

> <Gold.Protein.RotatedAtoms>
  151.7743  135.0778  160.0364 H   0  0  0  0  0  0  0  0  0  0  0  0  # atno 6907 bound_to 6896
  152.3267  133.5908  159.5790 H   0  0  0  0  0  0  0  0  0  0  0  0  # atno 6908 bound_to 6896
  150.7399  133.9846  159.3629 H   0  0  0  0  0  0  0  0  0  0  0  0  # atno 6909 bound_to 6896
  145.9511  140.7571  142.9504 H   0  0  0  0  0  0  0  0  0  0  0  0  # atno 7974 bound_to 7965
  155.8410  140.0948  157.1734 H   0  0  0  0  0  0  0  0  0  0  0  0  # atno 8008 bound_to 7997
  154.3982  140.1401  156.3790 H   0  0  0  0  0  0  0  0  0  0  0  0  # atno 8009 bound_to 7997
  155.8064  140.3451  155.5435 H   0  0  0  0  0  0  0  0  0  0  0  0  # atno 8010 bound_to 7997
  140.4471  143.2495  151.8543 H   0  0  0  0  0  0  0  0  0  0  0  0  # atno 10167 bound_to 10162
  156.0125  130.5268  150.6623 H   0  0  0  0  0  0  0  0  0  0  0  0  # atno 10718 bound_to 10713
  152.9801  135.5980  154.3745 H   0  0  0  0  0  0  0  0  0  0  0  0  # atno 10763 bound_to 10752
  154.3415  135.2767  155.2422 H   0  0  0  0  0  0  0  0  0  0  0  0  # atno 10764 bound_to 10752
  154.4501  135.5992  153.6241 H   0  0  0  0  0  0  0  0  0  0  0  0  # atno 10765 bound_to 10752
  140.8351  134.2470  157.4838 H   0  0  0  0  0  0  0  0  0  0  0  0  # atno 11005 bound_to 11000
  144.6796  140.2436  143.7340 LP  0  0  0  0  0  0  0  0  0  0  0  0  # atno 17320 bound_to 7965
  145.8169  139.2027  143.1960 LP  0  0  0  0  0  0  0  0  0  0  0  0  # atno 17321 bound_to 7965
  139.4793  144.5163  151.8863 LP  0  0  0  0  0  0  0  0  0  0  0  0  # atno 17342 bound_to 10162
  140.4251  144.2191  150.5887 LP  0  0  0  0  0  0  0  0  0  0  0  0  # atno 17343 bound_to 10162
  157.4363  131.0855  151.0989 LP  0  0  0  0  0  0  0  0  0  0  0  0  # atno 17370 bound_to 10713
  157.1546  130.6199  149.5592 LP  0  0  0  0  0  0  0  0  0  0  0  0  # atno 17371 bound_to 10713
  139.8704  134.9606  156.4370 LP  0  0  0  0  0  0  0  0  0  0  0  0  # atno 17394 bound_to 11000
  140.8956  133.7816  155.9622 LP  0  0  0  0  0  0  0  0  0  0  0  0  # atno 17395 bound_to 11000

$$$$
