AV-unprocessed.smi:3346|AV-procd|sdf|12907|dock10
  -GOLD-   2272019323D 1   1.00000     0.00000
 Structure written by MMmdl.
 48 49  0  0  0  0  0  0  0  0  2 V2000
  150.6312  144.6862  160.2472 C   0  0  0  0  0  0  0  0  0  0  0  0
  151.3978  143.8331  159.2226 C   0  0  0  0  0  0  0  0  0  0  0  0
  152.3332  144.7179  158.3842 C   0  0  0  0  0  0  0  0  0  0  0  0
  150.4566  143.0304  158.2991 C   0  0  0  0  0  0  0  0  0  0  0  0
  150.5437  141.4892  158.4003 C   0  0  2  0  0  0  0  0  0  0  0  0
  151.9952  140.9849  158.3958 C   0  0  0  0  0  0  0  0  0  0  0  0
  149.8163  140.8754  157.2691 N   0  3  0  0  0  0  0  0  0  0  0  0
  150.0306  141.5244  155.9587 C   0  0  0  0  0  0  0  0  0  0  0  0
  148.9592  141.0847  154.9752 C   0  0  0  0  0  0  0  0  0  0  0  0
  148.0175  142.0218  154.5000 C   0  0  0  0  0  0  0  0  0  0  0  0
  147.0174  141.5954  153.6076 C   0  0  0  0  0  0  0  0  0  0  0  0
  146.9973  140.2416  153.2245 C   0  0  0  0  0  0  0  0  0  0  0  0
  147.8906  139.3345  153.6717 N   0  0  0  0  0  0  0  0  0  0  0  0
  148.8567  139.7402  154.5306 C   0  0  0  0  0  0  0  0  0  0  0  0
  149.7847  138.7780  154.9671 N   0  0  0  0  0  0  0  0  0  0  0  0
  149.4346  137.3887  154.6914 C   0  0  0  0  0  0  0  0  0  0  0  0
  150.4581  136.4499  155.3534 C   0  0  0  0  0  0  0  0  0  0  0  0
  151.7666  136.7742  154.8933 O   0  0  0  0  0  0  0  0  0  0  0  0
  152.1374  138.1100  155.2221 C   0  0  0  0  0  0  0  0  0  0  0  0
  151.1515  139.0988  154.5742 C   0  0  0  0  0  0  0  0  0  0  0  0
  149.9396  145.3713  159.7554 H   0  0  0  0  0  0  0  0  0  0  0  0
  151.3164  145.2838  160.8489 H   0  0  0  0  0  0  0  0  0  0  0  0
  150.0586  144.0683  160.9382 H   0  0  0  0  0  0  0  0  0  0  0  0
  152.0316  143.1369  159.7717 H   0  0  0  0  0  0  0  0  0  0  0  0
  151.7717  145.4481  157.8002 H   0  0  0  0  0  0  0  0  0  0  0  0
  152.9233  144.1203  157.6883 H   0  0  0  0  0  0  0  0  0  0  0  0
  153.0318  145.2653  159.0180 H   0  0  0  0  0  0  0  0  0  0  0  0
  149.4359  143.3508  158.5036 H   0  0  0  0  0  0  0  0  0  0  0  0
  150.6482  143.3180  157.2643 H   0  0  0  0  0  0  0  0  0  0  0  0
  150.0721  141.1442  159.3209 H   0  0  0  0  0  0  0  0  0  0  0  0
  152.5414  141.3275  159.2744 H   0  0  0  0  0  0  0  0  0  0  0  0
  152.5338  141.3274  157.5116 H   0  0  0  0  0  0  0  0  0  0  0  0
  152.0308  139.8950  158.4046 H   0  0  0  0  0  0  0  0  0  0  0  0
  150.0991  139.9080  157.2050 H   0  0  0  0  0  0  0  0  0  0  0  0
  150.0056  142.6067  156.0887 H   0  0  0  0  0  0  0  0  0  0  0  0
  151.0155  141.2895  155.5564 H   0  0  0  0  0  0  0  0  0  0  0  0
  148.0564  143.0538  154.8170 H   0  0  0  0  0  0  0  0  0  0  0  0
  146.2819  142.2884  153.2267 H   0  0  0  0  0  0  0  0  0  0  0  0
  146.2441  139.8772  152.5418 H   0  0  0  0  0  0  0  0  0  0  0  0
  148.4328  137.1783  155.0674 H   0  0  0  0  0  0  0  0  0  0  0  0
  149.4215  137.2140  153.6147 H   0  0  0  0  0  0  0  0  0  0  0  0
  150.4143  136.5258  156.4409 H   0  0  0  0  0  0  0  0  0  0  0  0
  150.2382  135.4134  155.0973 H   0  0  0  0  0  0  0  0  0  0  0  0
  152.1620  138.2339  156.3054 H   0  0  0  0  0  0  0  0  0  0  0  0
  153.1483  138.2969  154.8595 H   0  0  0  0  0  0  0  0  0  0  0  0
  151.2362  139.0496  153.4876 H   0  0  0  0  0  0  0  0  0  0  0  0
  151.3989  140.1193  154.8689 H   0  0  0  0  0  0  0  0  0  0  0  0
  148.8261  140.9062  157.4657 H   0  0  0  0  0  0  0  0  0  0  0  0
  1  2  1  0  0  0  0
  1 21  1  0  0  0  0
  1 22  1  0  0  0  0
  1 23  1  0  0  0  0
  2  3  1  0  0  0  0
  2  4  1  0  0  0  0
  2 24  1  0  0  0  0
  3 25  1  0  0  0  0
  3 26  1  0  0  0  0
  3 27  1  0  0  0  0
  4  5  1  0  0  0  0
  4 28  1  0  0  0  0
  4 29  1  0  0  0  0
  5  6  1  0  0  0  0
  5  7  1  0  0  0  0
  5 30  1  0  0  0  0
  6 31  1  0  0  0  0
  6 32  1  0  0  0  0
  6 33  1  0  0  0  0
  7  8  1  0  0  0  0
  7 34  1  0  0  0  0
  7 48  1  0  0  0  0
  8  9  1  0  0  0  0
  8 35  1  0  0  0  0
  8 36  1  0  0  0  0
  9 14  1  0  0  0  0
  9 10  2  0  0  0  0
 10 11  1  0  0  0  0
 10 37  1  0  0  0  0
 11 12  2  0  0  0  0
 11 38  1  0  0  0  0
 12 13  1  0  0  0  0
 12 39  1  0  0  0  0
 13 14  2  0  0  0  0
 14 15  1  0  0  0  0
 15 20  1  0  0  0  0
 15 16  1  0  0  0  0
 16 17  1  0  0  0  0
 16 40  1  0  0  0  0
 16 41  1  0  0  0  0
 17 18  1  0  0  0  0
 17 42  1  0  0  0  0
 17 43  1  0  0  0  0
 18 19  1  0  0  0  0
 19 20  1  0  0  0  0
 19 44  1  0  0  0  0
 19 45  1  0  0  0  0
 20 46  1  0  0  0  0
 20 47  1  0  0  0  0
M  CHG  1   7   1
M  END
> <s_m_source_file>
AV-unprocessed.smi

> <i_m_source_file_index>
3346

> <i_lp_mmshare_version>
43012

> <i_f3d_flags>
0

> <s_epik_input>
W0NIM11bQ0hdKFtDSDNdKVtDSDJdW0NASF0oW0NIM10pW05IXVtDSDJdYzFbY0hdW2NIXVtjSF1uYzFOMltDSDJdW0NIMl1PW0NIMl1bQ0gyXTI=

> <s_epik_cmdline>
J2VwaWtfcHl0aG9uJywgJy1waCcsICc3LjAnLCAnLXRuJywgJzgnLCAnLW1hJywgJzIwMCcsICctbWV0YWxfYmluZGluZycsICctaW1hZScsICc8aW5maWxlLm1hZT4nLCAnLW9tYWUnLCAnPG91dGZpbGUubWFlPic=

> <r_lp_tautomer_probability>
1

> <r_epik_Ionization_Penalty>
0.0185938

> <r_epik_Ionization_Penalty_Charging>
0.0176519

> <r_epik_Ionization_Penalty_Neutral>
0.000941891

> <r_epik_State_Penalty>
0.0140027

> <r_epik_Charging_Adjusted_Penalty>
0.0316546

> <i_epik_Tot_Q>
1

> <i_epik_Tot_abs_Q>
1

> <r_epik_Metal_State_Penalty>
0.0141454

> <b_epik_Metal_Only>
0

> <s_lp_Force_Field>
OPLS_2005

> <r_lp_Energy>
22.6913

> <b_lp_Chiralities_Consistent>
1

> <s_lp_Variant>
AV-unprocessed.smi:3346-1

> <Gold.Version>
5.8.1

> <Gold.Id.Protein>
6NUR|6NUR_protein|mol2

> <Gold.PLP.Fitness>
43.7785

> <Gold.PLP.PLP>
-40.1365

> <Gold.PLP.part.hbond>
-1.0000

> <Gold.PLP.part.metal>
0.0000

> <Gold.PLP.part.buried>
-3.7297

> <Gold.PLP.part.nonpolar>
-36.6885

> <Gold.PLP.part.repulsive>
0.4568

> <Gold.PLP.ligand.clash>
0.0000

> <Gold.PLP.ligand.torsion>
1.2584

> <Gold.PLP.Chemscore.Hbond>
1.0000

> <Gold.PLP.Chemscore.CHOScore>
1.0000

> <Gold.PLP.Chemscore.Metal>
0.0000

> <Gold.Chemscore.Hbonds>
donor molecule, donor type, donor heavy atom, donor atom, acceptor molecule, acceptor atom, score
      P1  H 10752 10764       L1    18  1.00
      L1  C    12    39       P1 10175  0.74

> <Gold.PLP.Chemscore.Internal.Correction>
0.1587

> <Gold.Rescore>
     Score         DG    S(hbond)    S(metal)    S(lipo)     H(rot)  DE(clash)    DE(int)     intcor
     17.03     -18.32       0.88        0.00     120.06       1.62       0.00       1.28       ----

> <Gold.Chemscore.Fitness>
17.0309

> <Gold.Chemscore.DG>
-18.3152

> <Gold.Chemscore.ZeroCoef>
-5.4800

> <Gold.Chemscore.Hbond>
0.8827

> <Gold.Chemscore.Metal>
0.0000

> <Gold.Chemscore.Lipo>
120.0576

> <Gold.Chemscore.Internal_Hbond>
0.0000

> <Gold.Chemscore.DEClash>
0.0008

> <Gold.Chemscore.DEInternal>
1.2835

> <Gold.Chemscore.Rot>
1.6248

> <Gold.Chemscore.Internal.Correction>
   9.000000E+99

> <Gold.Chemscore.Hbonds>
donor molecule, donor type, donor heavy atom, donor atom, acceptor molecule, acceptor atom, score
      P1  H 10752 10764       L1    18  0.97

> <Gold.Chemscore.Hbond.Weighted>
-2.9481

> <Gold.Chemscore.Metal.Weighted>
-0.0000

> <Gold.Chemscore.Lipo.Weighted>
-14.0467

> <Gold.Chemscore.Internal_Hbond.Weighted>
0.0000

> <Gold.Chemscore.DEClash.Weighted>
0.0008

> <Gold.Chemscore.DEInternal.Weighted>
1.2835

> <Gold.Chemscore.Rot.Weighted>
4.1596

> <Gold.Chemscore.Internal.Correction.Weighted>
   9.000000E+99

> <Gold.Protein.RotatedTorsions>
[ 6907 6896 6895 6894 ] final  165.32 input  -60.11 | X-H torsion
[ 7974 7965 7964 7962 ] final   26.40 input  175.53 | X-H torsion
[ 8008 7997 7996 7995 ] final  174.05 input   59.86 | X-H torsion
[ 10167 10162 10161 10158 ] final -113.15 input  -65.29 | X-H torsion
[ 10718 10713 10712 10709 ] final  -85.18 input   66.30 | X-H torsion
[ 10763 10752 10751 10750 ] final  -64.48 input  -60.55 | X-H torsion
[ 11005 11000 10999 10996 ] final    5.26 input  -57.11 | X-H torsion

> <Gold.Protein.ActiveResidues>
 VAL166  LYS551  ARG553  GLY616  TRP617  ASP618  TYR619  PRO620  LYS621  CYS622 
 ASP623  PHE694  ASN695  SER759  ASP760  ASP761  ALA762  ILE779  LEU786  VAL792 
 PHE793  MET794  SER795  GLU796  ALA797  LYS798  CYS799  TRP800  GLU811  SER814 

> <Gold.Protein.RotatedAtoms>
  151.8962  133.3527  159.3814 H   0  0  0  0  0  0  0  0  0  0  0  0  # atno 6907 bound_to 6896
  150.7091  134.4874  159.5509 H   0  0  0  0  0  0  0  0  0  0  0  0  # atno 6908 bound_to 6896
  152.2454  134.8187  160.0505 H   0  0  0  0  0  0  0  0  0  0  0  0  # atno 6909 bound_to 6896
  146.1839  139.7333  142.8880 H   0  0  0  0  0  0  0  0  0  0  0  0  # atno 7974 bound_to 7965
  156.1013  140.1444  156.9463 H   0  0  0  0  0  0  0  0  0  0  0  0  # atno 8008 bound_to 7997
  154.4704  140.0911  156.7176 H   0  0  0  0  0  0  0  0  0  0  0  0  # atno 8009 bound_to 7997
  155.4754  140.3443  155.4334 H   0  0  0  0  0  0  0  0  0  0  0  0  # atno 8010 bound_to 7997
  140.1149  143.4494  152.1728 H   0  0  0  0  0  0  0  0  0  0  0  0  # atno 10167 bound_to 10162
  155.9999  130.4722  150.4523 H   0  0  0  0  0  0  0  0  0  0  0  0  # atno 10718 bound_to 10713
  154.3307  135.6177  153.5550 H   0  0  0  0  0  0  0  0  0  0  0  0  # atno 10763 bound_to 10752
  152.9811  135.5746  154.4965 H   0  0  0  0  0  0  0  0  0  0  0  0  # atno 10764 bound_to 10752
  154.4651  135.2857  155.1661 H   0  0  0  0  0  0  0  0  0  0  0  0  # atno 10765 bound_to 10752
  140.5727  134.0087  155.8015 H   0  0  0  0  0  0  0  0  0  0  0  0  # atno 11005 bound_to 11000
  145.3996  141.0383  143.3078 LP  0  0  0  0  0  0  0  0  0  0  0  0  # atno 17320 bound_to 7965
  144.8363  139.5545  143.6921 LP  0  0  0  0  0  0  0  0  0  0  0  0  # atno 17321 bound_to 7965
  139.5599  144.7398  151.4185 LP  0  0  0  0  0  0  0  0  0  0  0  0  # atno 17342 bound_to 10162
  140.6905  143.7874  150.7248 LP  0  0  0  0  0  0  0  0  0  0  0  0  # atno 17343 bound_to 10162
  157.2555  131.0555  151.2353 LP  0  0  0  0  0  0  0  0  0  0  0  0  # atno 17370 bound_to 10713
  157.3486  130.7070  149.6426 LP  0  0  0  0  0  0  0  0  0  0  0  0  # atno 17371 bound_to 10713
  141.1046  133.9714  157.3019 LP  0  0  0  0  0  0  0  0  0  0  0  0  # atno 17394 bound_to 11000
  139.9354  135.0197  156.8539 LP  0  0  0  0  0  0  0  0  0  0  0  0  # atno 17395 bound_to 11000

$$$$
