AV-unprocessed.smi:1340|AV-procd|sdf|5504|dock9
  -GOLD-   22720 5 83D 1   1.00000     0.00000
 Structure written by MMmdl.
 40 41  0  0  0  0  0  0  0  0  1 V2000
  156.9763  144.0911  167.1216 C   0  0  0  0  0  0  0  0  0  0  0  0
  157.1106  142.5916  166.8343 C   0  0  0  0  0  0  0  0  0  0  0  0
  157.3014  142.2941  165.3367 C   0  0  0  0  0  0  0  0  0  0  0  0
  156.1218  142.7480  164.4555 C   0  0  1  0  0  0  0  0  0  0  0  0
  156.1358  144.2706  164.2406 C   0  0  0  0  0  0  0  0  0  0  0  0
  156.1565  142.0571  163.1681 N   0  0  0  0  0  0  0  0  0  0  0  0
  156.3404  140.7387  162.9954 C   0  0  0  0  0  0  0  0  0  0  0  0
  156.4934  139.9519  163.9309 O   0  0  0  0  0  0  0  0  0  0  0  0
  156.3333  140.2439  161.5437 C   0  0  0  0  0  0  0  0  0  0  0  0
  155.0725  140.6390  160.8275 C   0  0  0  0  0  0  0  0  0  0  0  0
  154.3761  139.8868  159.9131 C   0  0  0  0  0  0  0  0  0  0  0  0
  152.9654  140.7188  159.3204 S   0  0  0  0  0  0  0  0  0  0  0  0
  153.3745  142.0844  160.3632 C   0  0  0  0  0  0  0  0  0  0  0  0
  152.6458  143.3048  160.4837 N   0  0  0  0  0  0  0  0  0  0  0  0
  151.7904  143.7964  159.4082 C   0  0  0  0  0  0  0  0  0  0  0  0
  151.2168  145.0972  159.9619 C   0  0  0  0  0  0  0  0  0  0  0  0
  151.8269  145.1659  161.2688 N   0  0  0  0  0  0  0  0  0  0  0  0
  152.6347  144.1389  161.5425 C   0  0  0  0  0  0  0  0  0  0  0  0
  153.2512  144.0129  162.5989 O   0  0  0  0  0  0  0  0  0  0  0  0
  154.4872  141.8850  161.0781 N   0  0  0  0  0  0  0  0  0  0  0  0
  156.8396  144.2714  168.1880 H   0  0  0  0  0  0  0  0  0  0  0  0
  156.1186  144.5166  166.6000 H   0  0  0  0  0  0  0  0  0  0  0  0
  157.8663  144.6345  166.8036 H   0  0  0  0  0  0  0  0  0  0  0  0
  157.9518  142.1968  167.4047 H   0  0  0  0  0  0  0  0  0  0  0  0
  156.2213  142.0763  167.1990 H   0  0  0  0  0  0  0  0  0  0  0  0
  158.2095  142.7923  164.9941 H   0  0  0  0  0  0  0  0  0  0  0  0
  157.4723  141.2257  165.1977 H   0  0  0  0  0  0  0  0  0  0  0  0
  155.1976  142.4847  164.9737 H   0  0  0  0  0  0  0  0  0  0  0  0
  156.1014  144.8005  165.1928 H   0  0  0  0  0  0  0  0  0  0  0  0
  155.2762  144.5978  163.6550 H   0  0  0  0  0  0  0  0  0  0  0  0
  157.0368  144.5893  163.7155 H   0  0  0  0  0  0  0  0  0  0  0  0
  156.0348  142.6280  162.3442 H   0  0  0  0  0  0  0  0  0  0  0  0
  157.2052  140.6580  161.0366 H   0  0  0  0  0  0  0  0  0  0  0  0
  156.4538  139.1595  161.5265 H   0  0  0  0  0  0  0  0  0  0  0  0
  154.6115  138.8978  159.5490 H   0  0  0  0  0  0  0  0  0  0  0  0
  152.3723  143.9715  158.5021 H   0  0  0  0  0  0  0  0  0  0  0  0
  151.0020  143.0767  159.1832 H   0  0  0  0  0  0  0  0  0  0  0  0
  151.5002  145.9606  159.3591 H   0  0  0  0  0  0  0  0  0  0  0  0
  150.1304  145.0630  160.0475 H   0  0  0  0  0  0  0  0  0  0  0  0
  151.6510  145.9274  161.9083 H   0  0  0  0  0  0  0  0  0  0  0  0
  1  2  1  0  0  0  0
  1 21  1  0  0  0  0
  1 22  1  0  0  0  0
  1 23  1  0  0  0  0
  2  3  1  0  0  0  0
  2 24  1  0  0  0  0
  2 25  1  0  0  0  0
  3  4  1  0  0  0  0
  3 26  1  0  0  0  0
  3 27  1  0  0  0  0
  4  5  1  0  0  0  0
  4  6  1  0  0  0  0
  4 28  1  0  0  0  0
  5 29  1  0  0  0  0
  5 30  1  0  0  0  0
  5 31  1  0  0  0  0
  6  7  1  0  0  0  0
  6 32  1  0  0  0  0
  7  8  2  0  0  0  0
  7  9  1  0  0  0  0
  9 10  1  0  0  0  0
  9 33  1  0  0  0  0
  9 34  1  0  0  0  0
 10 20  1  0  0  0  0
 10 11  2  0  0  0  0
 11 12  1  0  0  0  0
 11 35  1  0  0  0  0
 12 13  1  0  0  0  0
 13 14  1  0  0  0  0
 13 20  2  0  0  0  0
 14 18  1  0  0  0  0
 14 15  1  0  0  0  0
 15 16  1  0  0  0  0
 15 36  1  0  0  0  0
 15 37  1  0  0  0  0
 16 17  1  0  0  0  0
 16 38  1  0  0  0  0
 16 39  1  0  0  0  0
 17 18  1  0  0  0  0
 17 40  1  0  0  0  0
 18 19  2  0  0  0  0
M  END
> <s_m_source_file>
AV-unprocessed.smi

> <i_m_source_file_index>
1340

> <i_lp_mmshare_version>
43012

> <i_f3d_flags>
0

> <s_epik_input>
W0NIM11bQ0gyXVtDSDJdW0NASF0oW0NIM10pW05IXUMoPU8pW0NIMl1jMVtjSF1zYyhuMSlOMltDSDJdW0NIMl1bTkhdQzI9Tw==

> <s_epik_cmdline>
J2VwaWtfcHl0aG9uJywgJy1waCcsICc3LjAnLCAnLXRuJywgJzgnLCAnLW1hJywgJzIwMCcsICctbWV0YWxfYmluZGluZycsICctaW1hZScsICc8aW5maWxlLm1hZT4nLCAnLW9tYWUnLCAnPG91dGZpbGUubWFlPic=

> <r_lp_tautomer_probability>
1

> <r_epik_Ionization_Penalty>
0.00012151

> <r_epik_Ionization_Penalty_Charging>
0

> <r_epik_Ionization_Penalty_Neutral>
0.00012151

> <r_epik_State_Penalty>
-0

> <r_epik_Charging_Adjusted_Penalty>
0

> <i_epik_Tot_Q>
0

> <i_epik_Tot_abs_Q>
0

> <r_epik_Metal_State_Penalty>
-0

> <b_epik_Metal_Only>
0

> <s_lp_Force_Field>
OPLS_2005

> <r_lp_Energy>
32.5305

> <b_lp_Chiralities_Consistent>
1

> <s_lp_Variant>
AV-unprocessed.smi:1340-2

> <Gold.Version>
5.8.1

> <Gold.Id.Protein>
6NUR|6NUR_protein|mol2

> <Gold.PLP.Fitness>
45.1963

> <Gold.PLP.PLP>
-46.8903

> <Gold.PLP.part.hbond>
-3.0000

> <Gold.PLP.part.metal>
0.0000

> <Gold.PLP.part.buried>
-6.1872

> <Gold.PLP.part.nonpolar>
-37.6700

> <Gold.PLP.part.repulsive>
0.4870

> <Gold.PLP.ligand.clash>
0.0000

> <Gold.PLP.ligand.torsion>
0.8743

> <Gold.PLP.Chemscore.Hbond>
0.0000

> <Gold.PLP.Chemscore.CHOScore>
0.0000

> <Gold.PLP.Chemscore.Metal>
0.0000

> <Gold.PLP.Chemscore.Internal.Correction>
0.0545

> <Gold.Rescore>
     Score         DG    S(hbond)    S(metal)    S(lipo)     H(rot)  DE(clash)    DE(int)     intcor
      5.38     -10.20       0.00        0.00      82.26       1.92       0.03       4.78       ----

> <Gold.Chemscore.Fitness>
5.3823

> <Gold.Chemscore.DG>
-10.1956

> <Gold.Chemscore.ZeroCoef>
-5.4800

> <Gold.Chemscore.Hbond>
0.0000

> <Gold.Chemscore.Metal>
0.0000

> <Gold.Chemscore.Lipo>
82.2620

> <Gold.Chemscore.Internal_Hbond>
0.0000

> <Gold.Chemscore.DEClash>
0.0324

> <Gold.Chemscore.DEInternal>
4.7808

> <Gold.Chemscore.Rot>
1.9176

> <Gold.Chemscore.Internal.Correction>
   9.000000E+99

> <Gold.Chemscore.Hbond.Weighted>
-0.0000

> <Gold.Chemscore.Metal.Weighted>
-0.0000

> <Gold.Chemscore.Lipo.Weighted>
-9.6247

> <Gold.Chemscore.Internal_Hbond.Weighted>
0.0000

> <Gold.Chemscore.DEClash.Weighted>
0.0324

> <Gold.Chemscore.DEInternal.Weighted>
4.7808

> <Gold.Chemscore.Rot.Weighted>
4.9091

> <Gold.Chemscore.Internal.Correction.Weighted>
   9.000000E+99

> <Gold.Protein.RotatedTorsions>
[ 6907 6896 6895 6894 ] final -110.98 input  -60.11 | X-H torsion
[ 7974 7965 7964 7962 ] final -164.50 input  175.53 | X-H torsion
[ 8008 7997 7996 7995 ] final  -84.52 input   59.86 | X-H torsion
[ 10167 10162 10161 10158 ] final  130.57 input  -65.29 | X-H torsion
[ 10718 10713 10712 10709 ] final  -65.20 input   66.30 | X-H torsion
[ 10763 10752 10751 10750 ] final   -2.66 input  -60.55 | X-H torsion
[ 11005 11000 10999 10996 ] final  -61.14 input  -57.11 | X-H torsion

> <Gold.Protein.ActiveResidues>
 VAL166  LYS551  ARG553  GLY616  TRP617  ASP618  TYR619  PRO620  LYS621  CYS622 
 ASP623  PHE694  ASN695  SER759  ASP760  ASP761  ALA762  ILE779  LEU786  VAL792 
 PHE793  MET794  SER795  GLU796  ALA797  LYS798  CYS799  TRP800  GLU811  SER814 

> <Gold.Protein.RotatedAtoms>
  150.7660  133.9302  159.3424 H   0  0  0  0  0  0  0  0  0  0  0  0  # atno 6907 bound_to 6896
  151.7200  135.0894  160.0292 H   0  0  0  0  0  0  0  0  0  0  0  0  # atno 6908 bound_to 6896
  152.3656  133.6314  159.6083 H   0  0  0  0  0  0  0  0  0  0  0  0  # atno 6909 bound_to 6896
  144.7295  140.2952  143.6214 H   0  0  0  0  0  0  0  0  0  0  0  0  # atno 7974 bound_to 7965
  154.6307  140.0604  156.9729 H   0  0  0  0  0  0  0  0  0  0  0  0  # atno 8008 bound_to 7997
  155.1670  140.3287  155.4381 H   0  0  0  0  0  0  0  0  0  0  0  0  # atno 8009 bound_to 7997
  156.2481  140.1921  156.6774 H   0  0  0  0  0  0  0  0  0  0  0  0  # atno 8010 bound_to 7997
  139.5424  144.6742  151.4582 H   0  0  0  0  0  0  0  0  0  0  0  0  # atno 10167 bound_to 10162
  156.0683  130.4244  150.1530 H   0  0  0  0  0  0  0  0  0  0  0  0  # atno 10718 bound_to 10713
  153.3610  135.6990  153.6712 H   0  0  0  0  0  0  0  0  0  0  0  0  # atno 10763 bound_to 10752
  153.5401  135.3574  155.2715 H   0  0  0  0  0  0  0  0  0  0  0  0  # atno 10764 bound_to 10752
  154.8668  135.4201  154.2867 H   0  0  0  0  0  0  0  0  0  0  0  0  # atno 10765 bound_to 10752
  141.1313  133.6627  156.5331 H   0  0  0  0  0  0  0  0  0  0  0  0  # atno 11005 bound_to 11000
  145.7815  139.1893  143.2155 LP  0  0  0  0  0  0  0  0  0  0  0  0  # atno 17320 bound_to 7965
  146.0830  140.7743  142.9632 LP  0  0  0  0  0  0  0  0  0  0  0  0  # atno 17321 bound_to 7965
  140.6659  143.8399  150.6941 LP  0  0  0  0  0  0  0  0  0  0  0  0  # atno 17342 bound_to 10162
  140.1808  143.4116  152.1934 LP  0  0  0  0  0  0  0  0  0  0  0  0  # atno 17343 bound_to 10162
  156.9585  130.9797  151.3484 LP  0  0  0  0  0  0  0  0  0  0  0  0  # atno 17370 bound_to 10713
  157.5739  130.8329  149.8429 LP  0  0  0  0  0  0  0  0  0  0  0  0  # atno 17371 bound_to 10713
  140.4200  134.7196  157.4884 LP  0  0  0  0  0  0  0  0  0  0  0  0  # atno 17394 bound_to 11000
  140.0367  134.6327  155.9035 LP  0  0  0  0  0  0  0  0  0  0  0  0  # atno 17395 bound_to 11000

$$$$
