AV-unprocessed.smi:83|AV-procd|sdf|805|dock6
  -GOLD-   2262017193D 1   1.00000     0.00000
 Structure written by MMmdl.
 56 59  0  0  0  0  0  0  0  0  1 V2000
  153.5598  142.3801  162.5435 C   0  0  0  0  0  0  0  0  0  0  0  0
  152.6513  142.8961  161.4264 C   0  0  0  0  0  0  0  0  0  0  0  0
  152.0531  143.9599  161.5866 O   0  0  0  0  0  0  0  0  0  0  0  0
  152.5374  142.1614  160.3017 N   0  0  0  0  0  0  0  0  0  0  0  0
  153.2243  140.8991  160.0324 C   0  0  0  0  0  0  0  0  0  0  0  0
  152.9273  140.5771  158.5665 C   0  0  0  0  0  0  0  0  0  0  0  0
  151.6023  141.2806  158.2943 C   0  0  2  0  0  0  0  0  0  0  0  0
  151.3320  141.5510  156.8014 C   0  0  0  0  0  0  0  0  0  0  0  0
  150.8433  140.3656  156.0935 N   0  0  0  0  0  0  0  0  0  0  0  0
  151.3254  139.0606  156.5269 C   0  0  0  0  0  0  0  0  0  0  0  0
  149.6959  140.4531  155.3644 C   0  0  0  0  0  0  0  0  0  0  0  0
  149.2363  141.6927  155.0466 N   0  0  0  0  0  0  0  0  0  0  0  0
  148.1136  141.8468  154.3405 C   0  0  0  0  0  0  0  0  0  0  0  0
  147.2996  140.9096  153.8559 N   0  0  0  0  0  0  0  0  0  0  0  0
  147.7464  139.6605  154.1690 C   0  0  0  0  0  0  0  0  0  0  0  0
  148.9229  139.3408  154.9084 C   0  0  0  0  0  0  0  0  0  0  0  0
  149.0297  137.9579  155.0272 N   0  0  0  0  0  0  0  0  0  0  0  0
  147.9903  137.4925  154.3912 C   0  0  0  0  0  0  0  0  0  0  0  0
  147.1663  138.4471  153.8451 N   0  0  0  0  0  0  0  0  0  0  0  0
  145.9484  138.2103  153.0901 C   0  0  0  0  0  0  0  0  0  0  0  0
  146.1571  137.2083  151.9379 C   0  0  2  0  0  0  0  0  0  0  0  0
  146.4148  137.9179  150.7411 O   0  0  0  0  0  0  0  0  0  0  0  0
  144.9309  136.3015  151.7253 C   0  0  1  0  0  0  0  0  0  0  0  0
  145.1091  135.2360  150.6405 C   0  0  0  0  0  0  0  0  0  0  0  0
  144.1715  134.1165  151.0682 C   0  0  0  0  0  0  0  0  0  0  0  0
  143.7794  134.4844  152.5008 C   0  0  0  0  0  0  0  0  0  0  0  0
  144.6896  135.5074  152.8767 O   0  0  0  0  0  0  0  0  0  0  0  0
  151.6903  142.5338  159.1726 C   0  0  0  0  0  0  0  0  0  0  0  0
  153.2646  141.3768  162.8515 H   0  0  0  0  0  0  0  0  0  0  0  0
  153.5021  143.0302  163.4171 H   0  0  0  0  0  0  0  0  0  0  0  0
  154.5981  142.3537  162.2120 H   0  0  0  0  0  0  0  0  0  0  0  0
  154.2984  140.9656  160.2100 H   0  0  0  0  0  0  0  0  0  0  0  0
  152.8165  140.1243  160.6831 H   0  0  0  0  0  0  0  0  0  0  0  0
  153.7103  141.0000  157.9352 H   0  0  0  0  0  0  0  0  0  0  0  0
  152.8845  139.5051  158.3717 H   0  0  0  0  0  0  0  0  0  0  0  0
  150.8096  140.6444  158.6912 H   0  0  0  0  0  0  0  0  0  0  0  0
  150.6562  142.3985  156.6873 H   0  0  0  0  0  0  0  0  0  0  0  0
  152.2618  141.8622  156.3244 H   0  0  0  0  0  0  0  0  0  0  0  0
  151.2960  138.3416  155.7076 H   0  0  0  0  0  0  0  0  0  0  0  0
  150.7232  138.6809  157.3526 H   0  0  0  0  0  0  0  0  0  0  0  0
  152.3584  139.1282  156.8688 H   0  0  0  0  0  0  0  0  0  0  0  0
  147.8258  142.8676  154.1370 H   0  0  0  0  0  0  0  0  0  0  0  0
  147.7944  136.4339  154.3025 H   0  0  0  0  0  0  0  0  0  0  0  0
  145.1905  137.8399  153.7811 H   0  0  0  0  0  0  0  0  0  0  0  0
  145.5798  139.1628  152.7079 H   0  0  0  0  0  0  0  0  0  0  0  0
  147.0292  136.5895  152.1543 H   0  0  0  0  0  0  0  0  0  0  0  0
  145.6577  138.4451  150.5365 H   0  0  0  0  0  0  0  0  0  0  0  0
  144.0414  136.9004  151.5183 H   0  0  0  0  0  0  0  0  0  0  0  0
  144.8873  135.6149  149.6424 H   0  0  0  0  0  0  0  0  0  0  0  0
  146.1359  134.8672  150.6370 H   0  0  0  0  0  0  0  0  0  0  0  0
  143.2907  134.0588  150.4276 H   0  0  0  0  0  0  0  0  0  0  0  0
  144.6800  133.1527  151.0279 H   0  0  0  0  0  0  0  0  0  0  0  0
  142.7632  134.8798  152.5306 H   0  0  0  0  0  0  0  0  0  0  0  0
  143.8350  133.6361  153.1833 H   0  0  0  0  0  0  0  0  0  0  0  0
  150.6997  142.8624  159.4921 H   0  0  0  0  0  0  0  0  0  0  0  0
  152.1652  143.3577  158.6377 H   0  0  0  0  0  0  0  0  0  0  0  0
  1  2  1  0  0  0  0
  1 29  1  0  0  0  0
  1 30  1  0  0  0  0
  1 31  1  0  0  0  0
  2  3  2  0  0  0  0
  2  4  1  0  0  0  0
  4 28  1  0  0  0  0
  4  5  1  0  0  0  0
  5  6  1  0  0  0  0
  5 32  1  0  0  0  0
  5 33  1  0  0  0  0
  6  7  1  0  0  0  0
  6 34  1  0  0  0  0
  6 35  1  0  0  0  0
  7  8  1  0  0  0  0
  7 28  1  0  0  0  0
  7 36  1  0  0  0  0
  8  9  1  0  0  0  0
  8 37  1  0  0  0  0
  8 38  1  0  0  0  0
  9 10  1  0  0  0  0
  9 11  1  0  0  0  0
 10 39  1  0  0  0  0
 10 40  1  0  0  0  0
 10 41  1  0  0  0  0
 11 16  1  0  0  0  0
 11 12  2  0  0  0  0
 12 13  1  0  0  0  0
 13 14  2  0  0  0  0
 13 42  1  0  0  0  0
 14 15  1  0  0  0  0
 15 19  1  0  0  0  0
 15 16  2  0  0  0  0
 16 17  1  0  0  0  0
 17 18  2  0  0  0  0
 18 19  1  0  0  0  0
 18 43  1  0  0  0  0
 19 20  1  0  0  0  0
 20 21  1  0  0  0  0
 20 44  1  0  0  0  0
 20 45  1  0  0  0  0
 21 22  1  0  0  0  0
 21 23  1  0  0  0  0
 21 46  1  0  0  0  0
 22 47  1  0  0  0  0
 23 27  1  0  0  0  0
 23 24  1  0  0  0  0
 23 48  1  0  0  0  0
 24 25  1  0  0  0  0
 24 49  1  0  0  0  0
 24 50  1  0  0  0  0
 25 26  1  0  0  0  0
 25 51  1  0  0  0  0
 25 52  1  0  0  0  0
 26 27  1  0  0  0  0
 26 53  1  0  0  0  0
 26 54  1  0  0  0  0
 28 55  1  0  0  0  0
 28 56  1  0  0  0  0
M  END
> <s_m_source_file>
AV-unprocessed.smi

> <i_m_source_file_index>
83

> <i_lp_mmshare_version>
43012

> <i_f3d_flags>
0

> <s_epik_input>
W0NIM11DKD1PKU4xW0NIMl1bQ0gyXVtDQEhdKFtDSDJdMSlbQ0gyXU4oW0NIM10pYyhuW2NIXW4yKWMoYzIzKW5bY0hdbjNbQ0gyXVtDQEhdKFtPSF0pW0NAQEhdNFtDSDJdW0NIMl1bQ0gyXU80

> <s_epik_cmdline>
J2VwaWtfcHl0aG9uJywgJy1waCcsICc3LjAnLCAnLXRuJywgJzgnLCAnLW1hJywgJzIwMCcsICctbWV0YWxfYmluZGluZycsICctaW1hZScsICc8aW5maWxlLm1hZT4nLCAnLW9tYWUnLCAnPG91dGZpbGUubWFlPic=

> <r_lp_tautomer_probability>
1

> <r_epik_Ionization_Penalty>
0.00109752

> <r_epik_Ionization_Penalty_Charging>
0

> <r_epik_Ionization_Penalty_Neutral>
0.00109752

> <r_epik_State_Penalty>
0.000634803

> <r_epik_Charging_Adjusted_Penalty>
0.000634803

> <i_epik_Tot_Q>
0

> <i_epik_Tot_abs_Q>
0

> <r_epik_Metal_State_Penalty>
-0

> <b_epik_Metal_Only>
0

> <s_lp_Force_Field>
OPLS_2005

> <r_lp_Energy>
52.1459

> <b_lp_Chiralities_Consistent>
1

> <s_lp_Variant>
AV-unprocessed.smi:83-6

> <Gold.Version>
5.8.1

> <Gold.Id.Protein>
6NUR|6NUR_protein|mol2

> <Gold.PLP.Fitness>
54.9544

> <Gold.PLP.PLP>
-48.7854

> <Gold.PLP.part.hbond>
-2.7784

> <Gold.PLP.part.metal>
0.0000

> <Gold.PLP.part.buried>
-3.8916

> <Gold.PLP.part.nonpolar>
-42.1999

> <Gold.PLP.part.repulsive>
0.7884

> <Gold.PLP.ligand.clash>
0.0000

> <Gold.PLP.ligand.torsion>
1.0075

> <Gold.PLP.Chemscore.Hbond>
2.0000

> <Gold.PLP.Chemscore.CHOScore>
0.5797

> <Gold.PLP.Chemscore.Metal>
0.0000

> <Gold.Chemscore.Hbonds>
donor molecule, donor type, donor heavy atom, donor atom, acceptor molecule, acceptor atom, score
      L1  H    22    47       P1 10171  1.00
      P1  H  7954  7966       L1    22  1.00
      L1  C    13    42       P1  8028  0.67
      L1  C    18    43       P1  7948  0.16

> <Gold.PLP.Chemscore.Internal.Correction>
0.4449

> <Gold.Rescore>
     Score         DG    S(hbond)    S(metal)    S(lipo)     H(rot)  DE(clash)    DE(int)     intcor
     12.65     -16.27       1.92        0.00      94.67       2.62       0.39       3.23       ----

> <Gold.Chemscore.Fitness>
12.6519

> <Gold.Chemscore.DG>
-16.2744

> <Gold.Chemscore.ZeroCoef>
-5.4800

> <Gold.Chemscore.Hbond>
1.9199

> <Gold.Chemscore.Metal>
0.0000

> <Gold.Chemscore.Lipo>
94.6736

> <Gold.Chemscore.Internal_Hbond>
0.0000

> <Gold.Chemscore.DEClash>
0.3887

> <Gold.Chemscore.DEInternal>
3.2338

> <Gold.Chemscore.Rot>
2.6152

> <Gold.Chemscore.Internal.Correction>
   9.000000E+99

> <Gold.Chemscore.Hbonds>
donor molecule, donor type, donor heavy atom, donor atom, acceptor molecule, acceptor atom, score
      L1  H    22    47       P1 10171  0.94
      P1  H  7954  7966       L1    22  0.94

> <Gold.Chemscore.Hbond.Weighted>
-6.4125

> <Gold.Chemscore.Metal.Weighted>
-0.0000

> <Gold.Chemscore.Lipo.Weighted>
-11.0768

> <Gold.Chemscore.Internal_Hbond.Weighted>
0.0000

> <Gold.Chemscore.DEClash.Weighted>
0.3887

> <Gold.Chemscore.DEInternal.Weighted>
3.2338

> <Gold.Chemscore.Rot.Weighted>
6.6949

> <Gold.Chemscore.Internal.Correction.Weighted>
   9.000000E+99

> <Gold.Protein.RotatedTorsions>
[ 6907 6896 6895 6894 ] final   11.82 input  -60.11 | X-H torsion
[ 7974 7965 7964 7962 ] final   89.97 input  175.53 | X-H torsion
[ 8008 7997 7996 7995 ] final  179.64 input   59.86 | X-H torsion
[ 10167 10162 10161 10158 ] final  176.00 input  -65.29 | X-H torsion
[ 10718 10713 10712 10709 ] final -118.60 input   66.30 | X-H torsion
[ 10763 10752 10751 10750 ] final  -65.15 input  -60.55 | X-H torsion
[ 11005 11000 10999 10996 ] final -153.06 input  -57.11 | X-H torsion

> <Gold.Protein.ActiveResidues>
 VAL166  LYS551  ARG553  GLY616  TRP617  ASP618  TYR619  PRO620  LYS621  CYS622 
 ASP623  PHE694  ASN695  SER759  ASP760  ASP761  ALA762  ILE779  LEU786  VAL792 
 PHE793  MET794  SER795  GLU796  ALA797  LYS798  CYS799  TRP800  GLU811  SER814 

> <Gold.Protein.RotatedAtoms>
  151.7604  135.0811  160.0344 H   0  0  0  0  0  0  0  0  0  0  0  0  # atno 6907 bound_to 6896
  152.3357  133.6004  159.5849 H   0  0  0  0  0  0  0  0  0  0  0  0  # atno 6908 bound_to 6896
  150.7449  133.9716  159.3589 H   0  0  0  0  0  0  0  0  0  0  0  0  # atno 6909 bound_to 6896
  145.5252  139.2281  143.2649 H   0  0  0  0  0  0  0  0  0  0  0  0  # atno 7974 bound_to 7965
  156.0411  140.1303  157.0154 H   0  0  0  0  0  0  0  0  0  0  0  0  # atno 8008 bound_to 7997
  154.4391  140.1030  156.6309 H   0  0  0  0  0  0  0  0  0  0  0  0  # atno 8009 bound_to 7997
  155.5665  140.3465  155.4506 H   0  0  0  0  0  0  0  0  0  0  0  0  # atno 8010 bound_to 7997
  139.5198  144.2966  152.0416 H   0  0  0  0  0  0  0  0  0  0  0  0  # atno 10167 bound_to 10162
  156.1118  130.6255  150.9311 H   0  0  0  0  0  0  0  0  0  0  0  0  # atno 10718 bound_to 10713
  154.3407  135.6157  153.5595 H   0  0  0  0  0  0  0  0  0  0  0  0  # atno 10763 bound_to 10752
  152.9804  135.5769  154.4856 H   0  0  0  0  0  0  0  0  0  0  0  0  # atno 10764 bound_to 10752
  154.4560  135.2854  155.1724 H   0  0  0  0  0  0  0  0  0  0  0  0  # atno 10765 bound_to 10752
  140.7122  134.3820  157.5196 H   0  0  0  0  0  0  0  0  0  0  0  0  # atno 11005 bound_to 11000
  146.2080  140.6066  142.9072 LP  0  0  0  0  0  0  0  0  0  0  0  0  # atno 17320 bound_to 7965
  144.7655  140.5519  143.6706 LP  0  0  0  0  0  0  0  0  0  0  0  0  # atno 17321 bound_to 7965
  140.2415  144.4264  150.6258 LP  0  0  0  0  0  0  0  0  0  0  0  0  # atno 17342 bound_to 10162
  140.6287  143.2184  151.6541 LP  0  0  0  0  0  0  0  0  0  0  0  0  # atno 17343 bound_to 10162
  157.6300  131.0922  150.8460 LP  0  0  0  0  0  0  0  0  0  0  0  0  # atno 17370 bound_to 10713
  156.8570  130.5100  149.5307 LP  0  0  0  0  0  0  0  0  0  0  0  0  # atno 17371 bound_to 10713
  139.8869  134.8898  156.2560 LP  0  0  0  0  0  0  0  0  0  0  0  0  # atno 17394 bound_to 11000
  141.0074  133.7115  156.1057 LP  0  0  0  0  0  0  0  0  0  0  0  0  # atno 17395 bound_to 11000

$$$$
