AV-unprocessed.smi:175|AV-procd|sdf|1431|dock8
  -GOLD-   2262019213D 1   1.00000     0.00000
 Structure written by MMmdl.
 47 50  0  0  0  0  0  0  0  0  1 V2000
  146.5248  130.6607  153.0432 C   0  0  0  0  0  0  0  0  0  0  0  0
  145.7138  131.6469  152.1867 C   0  0  2  0  0  0  0  0  0  0  0  0
  145.2099  130.9979  151.0275 O   0  0  0  0  0  0  0  0  0  0  0  0
  144.8652  132.0089  150.0979 C   0  0  0  0  0  0  0  0  0  0  0  0
  146.0542  132.9568  150.1844 C   0  0  0  0  0  0  0  0  0  0  0  0
  146.4600  132.9028  151.6601 C   0  0  2  0  0  0  0  0  0  0  0  0
  147.8681  132.7482  151.7261 O   0  0  0  0  0  0  0  0  0  0  0  0
  146.0742  134.2003  152.4135 C   0  0  0  0  0  0  0  0  0  0  0  0
  146.4899  134.2108  153.8081 N   0  0  0  0  0  0  0  0  0  0  0  0
  146.3244  133.1995  154.7289 C   0  0  0  0  0  0  0  0  0  0  0  0
  146.7916  133.4488  155.9222 N   0  0  0  0  0  0  0  0  0  0  0  0
  147.3072  134.7337  155.8176 C   0  0  0  0  0  0  0  0  0  0  0  0
  147.9548  135.6122  156.7236 C   0  0  0  0  0  0  0  0  0  0  0  0
  148.1929  135.2657  158.0079 N   0  0  0  0  0  0  0  0  0  0  0  0
  148.7963  136.3047  158.8428 C   0  0  0  0  0  0  0  0  0  0  0  0
  147.9412  136.2712  160.0938 C   0  0  0  0  0  0  0  0  0  0  0  0
  148.1379  136.9987  161.0657 O   0  0  0  0  0  0  0  0  0  0  0  0
  146.9827  135.3517  159.9690 N   0  0  0  0  0  0  0  0  0  0  0  0
  145.9666  135.0052  160.9602 C   0  0  0  0  0  0  0  0  0  0  0  0
  146.5740  134.3815  162.2295 C   0  0  0  0  0  0  0  0  0  0  0  0
  147.3107  133.3265  161.8835 F   0  0  0  0  0  0  0  0  0  0  0  0
  147.3560  135.2514  162.8680 F   0  0  0  0  0  0  0  0  0  0  0  0
  145.6083  133.9733  163.0527 F   0  0  0  0  0  0  0  0  0  0  0  0
  147.0606  134.6488  158.6996 C   0  0  0  0  0  0  0  0  0  0  0  0
  148.3279  136.8377  156.2688 N   0  0  0  0  0  0  0  0  0  0  0  0
  148.0847  137.1785  154.9995 C   0  0  0  0  0  0  0  0  0  0  0  0
  147.4933  136.4617  154.0404 N   0  0  0  0  0  0  0  0  0  0  0  0
  147.1193  135.2320  154.4986 C   0  0  0  0  0  0  0  0  0  0  0  0
  146.9275  131.1494  153.9308 H   0  0  0  0  0  0  0  0  0  0  0  0
  147.3583  130.2358  152.4832 H   0  0  0  0  0  0  0  0  0  0  0  0
  145.8982  129.8333  153.3764 H   0  0  0  0  0  0  0  0  0  0  0  0
  144.8376  131.9595  152.7562 H   0  0  0  0  0  0  0  0  0  0  0  0
  144.7193  131.6047  149.0961 H   0  0  0  0  0  0  0  0  0  0  0  0
  143.9440  132.5030  150.4109 H   0  0  0  0  0  0  0  0  0  0  0  0
  146.8515  132.5733  149.5448 H   0  0  0  0  0  0  0  0  0  0  0  0
  145.8115  133.9606  149.8341 H   0  0  0  0  0  0  0  0  0  0  0  0
  148.1360  132.1386  151.0557 H   0  0  0  0  0  0  0  0  0  0  0  0
  146.5125  135.0691  151.9204 H   0  0  0  0  0  0  0  0  0  0  0  0
  144.9936  134.3466  152.3801 H   0  0  0  0  0  0  0  0  0  0  0  0
  145.8478  132.2611  154.4861 H   0  0  0  0  0  0  0  0  0  0  0  0
  149.8283  136.0456  159.0807 H   0  0  0  0  0  0  0  0  0  0  0  0
  148.7799  137.2997  158.3949 H   0  0  0  0  0  0  0  0  0  0  0  0
  145.4089  135.9046  161.2250 H   0  0  0  0  0  0  0  0  0  0  0  0
  145.2433  134.3195  160.5158 H   0  0  0  0  0  0  0  0  0  0  0  0
  146.1184  134.7408  158.1557 H   0  0  0  0  0  0  0  0  0  0  0  0
  147.2598  133.5892  158.8634 H   0  0  0  0  0  0  0  0  0  0  0  0
  148.4105  138.1670  154.7108 H   0  0  0  0  0  0  0  0  0  0  0  0
  1  2  1  0  0  0  0
  1 29  1  0  0  0  0
  1 30  1  0  0  0  0
  1 31  1  0  0  0  0
  2  6  1  0  0  0  0
  2  3  1  0  0  0  0
  2 32  1  0  0  0  0
  3  4  1  0  0  0  0
  4  5  1  0  0  0  0
  4 33  1  0  0  0  0
  4 34  1  0  0  0  0
  5  6  1  0  0  0  0
  5 35  1  0  0  0  0
  5 36  1  0  0  0  0
  6  7  1  0  0  0  0
  6  8  1  0  0  0  0
  7 37  1  0  0  0  0
  8  9  1  0  0  0  0
  8 38  1  0  0  0  0
  8 39  1  0  0  0  0
  9 28  1  0  0  0  0
  9 10  1  0  0  0  0
 10 11  2  0  0  0  0
 10 40  1  0  0  0  0
 11 12  1  0  0  0  0
 12 28  2  0  0  0  0
 12 13  1  0  0  0  0
 13 14  1  0  0  0  0
 13 25  2  0  0  0  0
 14 24  1  0  0  0  0
 14 15  1  0  0  0  0
 15 16  1  0  0  0  0
 15 41  1  0  0  0  0
 15 42  1  0  0  0  0
 16 17  2  0  0  0  0
 16 18  1  0  0  0  0
 18 19  1  0  0  0  0
 18 24  1  0  0  0  0
 19 20  1  0  0  0  0
 19 43  1  0  0  0  0
 19 44  1  0  0  0  0
 20 21  1  0  0  0  0
 20 22  1  0  0  0  0
 20 23  1  0  0  0  0
 24 45  1  0  0  0  0
 24 46  1  0  0  0  0
 25 26  1  0  0  0  0
 26 27  2  0  0  0  0
 26 47  1  0  0  0  0
 27 28  1  0  0  0  0
M  END
> <s_m_source_file>
AV-unprocessed.smi

> <i_m_source_file_index>
175

> <i_lp_mmshare_version>
43012

> <i_f3d_flags>
0

> <s_epik_input>
W0NIMl0xW0NIMl1PW0NAQEhdKFtDSDNdKVtDQEBdMShbT0hdKVtDSDJdbihbY0hdbjIpYyhjMjMpbltjSF1uYzNONFtDSDJdQyg9TylOKFtDSDJdNClbQ0gyXUMoRikoRilG

> <s_epik_cmdline>
J2VwaWtfcHl0aG9uJywgJy1waCcsICc3LjAnLCAnLXRuJywgJzgnLCAnLW1hJywgJzIwMCcsICctbWV0YWxfYmluZGluZycsICctaW1hZScsICc8aW5maWxlLm1hZT4nLCAnLW9tYWUnLCAnPG91dGZpbGUubWFlPic=

> <r_lp_tautomer_probability>
1

> <r_epik_Ionization_Penalty>
0.000307802

> <r_epik_Ionization_Penalty_Charging>
0

> <r_epik_Ionization_Penalty_Neutral>
0.000307802

> <r_epik_State_Penalty>
-0

> <r_epik_Charging_Adjusted_Penalty>
0

> <i_epik_Tot_Q>
0

> <i_epik_Tot_abs_Q>
0

> <r_epik_Metal_State_Penalty>
-0

> <b_epik_Metal_Only>
0

> <s_epik_Chemistry_Notes>
This compound contains an acetal/aminal-like group ( X-CH(R)-Y where X, Y are N, S, or O) that may be acid/base labile, releasing an aldehyde.

> <s_lp_Force_Field>
OPLS_2005

> <r_lp_Energy>
38.2687

> <b_lp_Chiralities_Consistent>
1

> <s_lp_Variant>
AV-unprocessed.smi:175-3

> <Gold.Version>
5.8.1

> <Gold.Id.Protein>
6NUR|6NUR_protein|mol2

> <Gold.PLP.Fitness>
42.4859

> <Gold.PLP.PLP>
-34.9637

> <Gold.PLP.part.hbond>
-3.0000

> <Gold.PLP.part.metal>
0.0000

> <Gold.PLP.part.buried>
-2.2431

> <Gold.PLP.part.nonpolar>
-31.1074

> <Gold.PLP.part.repulsive>
2.1714

> <Gold.PLP.ligand.clash>
0.0000

> <Gold.PLP.ligand.torsion>
0.3998

> <Gold.PLP.Chemscore.Hbond>
2.7120

> <Gold.PLP.Chemscore.CHOScore>
0.0000

> <Gold.PLP.Chemscore.Metal>
0.0000

> <Gold.Chemscore.Hbonds>
donor molecule, donor type, donor heavy atom, donor atom, acceptor molecule, acceptor atom, score
      L1  H     7    37       P1 10747  1.00
      P1  H  6931  6943       L1    17  1.00
      P1  H  6934  6947       L1    17  0.34

> <Gold.PLP.Chemscore.Internal.Correction>
0.1857

> <Gold.Rescore>
     Score         DG    S(hbond)    S(metal)    S(lipo)     H(rot)  DE(clash)    DE(int)     intcor
      9.65     -13.89       2.75        0.00      60.00       3.05       1.31       2.93       ----

> <Gold.Chemscore.Fitness>
9.6531

> <Gold.Chemscore.DG>
-13.8921

> <Gold.Chemscore.ZeroCoef>
-5.4800

> <Gold.Chemscore.Hbond>
2.7536

> <Gold.Chemscore.Metal>
0.0000

> <Gold.Chemscore.Lipo>
59.9975

> <Gold.Chemscore.Internal_Hbond>
0.0000

> <Gold.Chemscore.DEClash>
1.3096

> <Gold.Chemscore.DEInternal>
2.9294

> <Gold.Chemscore.Rot>
3.0487

> <Gold.Chemscore.Internal.Correction>
   9.000000E+99

> <Gold.Chemscore.Hbonds>
donor molecule, donor type, donor heavy atom, donor atom, acceptor molecule, acceptor atom, score
      L1  H     7    37       P1 10747  1.00
      P1  H  6931  6943       L1    17  0.98
      P1  H  6934  6947       L1    17  0.32

> <Gold.Chemscore.Hbond.Weighted>
-9.1970

> <Gold.Chemscore.Metal.Weighted>
-0.0000

> <Gold.Chemscore.Lipo.Weighted>
-7.0197

> <Gold.Chemscore.Internal_Hbond.Weighted>
0.0000

> <Gold.Chemscore.DEClash.Weighted>
1.3096

> <Gold.Chemscore.DEInternal.Weighted>
2.9294

> <Gold.Chemscore.Rot.Weighted>
7.8046

> <Gold.Chemscore.Internal.Correction.Weighted>
   9.000000E+99

> <Gold.Protein.RotatedTorsions>
[ 6907 6896 6895 6894 ] final  -10.12 input  -60.11 | X-H torsion
[ 7974 7965 7964 7962 ] final   27.99 input  175.53 | X-H torsion
[ 8008 7997 7996 7995 ] final  -73.73 input   59.86 | X-H torsion
[ 10167 10162 10161 10158 ] final -122.81 input  -65.29 | X-H torsion
[ 10718 10713 10712 10709 ] final  -47.12 input   66.30 | X-H torsion
[ 10763 10752 10751 10750 ] final -111.56 input  -60.55 | X-H torsion
[ 11005 11000 10999 10996 ] final   62.12 input  -57.11 | X-H torsion

> <Gold.Protein.ActiveResidues>
 VAL166  LYS551  ARG553  GLY616  TRP617  ASP618  TYR619  PRO620  LYS621  CYS622 
 ASP623  PHE694  ASN695  SER759  ASP760  ASP761  ALA762  ILE779  LEU786  VAL792 
 PHE793  MET794  SER795  GLU796  ALA797  LYS798  CYS799  TRP800  GLU811  SER814 

> <Gold.Protein.RotatedAtoms>
  151.4069  135.0979  159.9572 H   0  0  0  0  0  0  0  0  0  0  0  0  # atno 6907 bound_to 6896
  152.5032  133.8834  159.7368 H   0  0  0  0  0  0  0  0  0  0  0  0  # atno 6908 bound_to 6896
  150.9321  133.6698  159.2837 H   0  0  0  0  0  0  0  0  0  0  0  0  # atno 6909 bound_to 6896
  146.1754  139.7117  142.8938 H   0  0  0  0  0  0  0  0  0  0  0  0  # atno 7974 bound_to 7965
  154.5271  140.0774  156.8279 H   0  0  0  0  0  0  0  0  0  0  0  0  # atno 8008 bound_to 7997
  155.3452  140.3409  155.4221 H   0  0  0  0  0  0  0  0  0  0  0  0  # atno 8009 bound_to 7997
  156.1743  140.1630  156.8377 H   0  0  0  0  0  0  0  0  0  0  0  0  # atno 8010 bound_to 7997
  140.0103  143.5449  152.2266 H   0  0  0  0  0  0  0  0  0  0  0  0  # atno 10167 bound_to 10162
  156.2116  130.4161  149.9108 H   0  0  0  0  0  0  0  0  0  0  0  0  # atno 10718 bound_to 10713
  154.8306  135.4523  154.1058 H   0  0  0  0  0  0  0  0  0  0  0  0  # atno 10763 bound_to 10752
  153.2334  135.6908  153.7870 H   0  0  0  0  0  0  0  0  0  0  0  0  # atno 10764 bound_to 10752
  153.7244  135.3336  155.3249 H   0  0  0  0  0  0  0  0  0  0  0  0  # atno 10765 bound_to 10752
  140.0114  134.6291  155.9775 H   0  0  0  0  0  0  0  0  0  0  0  0  # atno 11005 bound_to 11000
  145.4226  141.0408  143.2955 LP  0  0  0  0  0  0  0  0  0  0  0  0  # atno 17320 bound_to 7965
  144.8228  139.5763  143.6979 LP  0  0  0  0  0  0  0  0  0  0  0  0  # atno 17321 bound_to 7965
  139.6210  144.7629  151.2741 LP  0  0  0  0  0  0  0  0  0  0  0  0  # atno 17342 bound_to 10162
  140.7384  143.6649  150.8132 LP  0  0  0  0  0  0  0  0  0  0  0  0  # atno 17343 bound_to 10162
  156.6784  130.8848  151.3572 LP  0  0  0  0  0  0  0  0  0  0  0  0  # atno 17370 bound_to 10713
  157.7041  130.9365  150.0876 LP  0  0  0  0  0  0  0  0  0  0  0  0  # atno 17371 bound_to 10713
  141.1713  133.6537  156.4663 LP  0  0  0  0  0  0  0  0  0  0  0  0  # atno 17394 bound_to 11000
  140.4548  134.6895  157.5057 LP  0  0  0  0  0  0  0  0  0  0  0  0  # atno 17395 bound_to 11000

$$$$
