AV-unprocessed.smi:2202|AV-procd|sdf|8929|dock9
  -GOLD-   2272012143D 1   1.00000     0.00000
 Structure written by MMmdl.
 42 44  0  0  0  0  0  0  0  0  1 V2000
  150.8290  139.9766  154.7526 O   0  0  0  0  0  0  0  0  0  0  0  0
  151.5603  139.3326  155.5064 C   0  0  0  0  0  0  0  0  0  0  0  0
  152.0536  137.9292  155.1243 C   0  0  0  0  0  0  0  0  0  0  0  0
  151.2059  136.8493  155.6505 N   0  0  0  0  0  0  0  0  0  0  0  0
  151.6655  135.8184  156.3716 C   0  0  0  0  0  0  0  0  0  0  0  0
  152.8421  135.6194  156.6758 O   0  0  0  0  0  0  0  0  0  0  0  0
  150.5303  134.8889  156.8070 C   0  0  2  0  0  0  0  0  0  0  0  0
  150.7863  133.4255  156.3598 C   0  0  0  0  0  0  0  0  0  0  0  0
  150.3807  133.1736  154.9224 C   0  0  0  0  0  0  0  0  0  0  0  0
  149.3017  133.7653  154.3931 C   0  0  0  0  0  0  0  0  0  0  0  0
  148.4450  134.7094  155.2111 C   0  0  0  0  0  0  0  0  0  0  0  0
  149.2774  135.5752  156.1935 C   0  0  2  0  0  0  0  0  0  0  0  0
  149.8765  136.7992  155.4971 C   0  0  0  0  0  0  0  0  0  0  0  0
  149.1897  137.6220  154.8908 O   0  0  0  0  0  0  0  0  0  0  0  0
  151.9694  139.7930  156.6981 N   0  0  0  0  0  0  0  0  0  0  0  0
  151.6116  141.0921  157.2560 C   0  0  0  0  0  0  0  0  0  0  0  0
  152.5820  141.5147  158.3718 C   0  0  0  0  0  0  0  0  0  0  0  0
  152.2154  142.8580  158.9728 C   0  0  0  0  0  0  0  0  0  0  0  0
  152.8549  143.3255  160.1409 C   0  0  0  0  0  0  0  0  0  0  0  0
  152.4807  144.5834  160.6524 C   0  0  0  0  0  0  0  0  0  0  0  0
  151.4880  145.3216  159.9792 C   0  0  0  0  0  0  0  0  0  0  0  0
  150.9114  144.7668  158.8192 C   0  0  0  0  0  0  0  0  0  0  0  0
  151.2635  143.5625  158.3201 N   0  0  0  0  0  0  0  0  0  0  0  0
  152.1127  137.8604  154.0365 H   0  0  0  0  0  0  0  0  0  0  0  0
  153.0777  137.8110  155.4822 H   0  0  0  0  0  0  0  0  0  0  0  0
  150.4801  134.9261  157.8961 H   0  0  0  0  0  0  0  0  0  0  0  0
  151.8365  133.1567  156.4821 H   0  0  0  0  0  0  0  0  0  0  0  0
  150.2241  132.7385  156.9930 H   0  0  0  0  0  0  0  0  0  0  0  0
  150.9568  132.4604  154.3511 H   0  0  0  0  0  0  0  0  0  0  0  0
  148.9863  133.5406  153.3847 H   0  0  0  0  0  0  0  0  0  0  0  0
  147.8646  135.3356  154.5324 H   0  0  0  0  0  0  0  0  0  0  0  0
  147.7196  134.1115  155.7637 H   0  0  0  0  0  0  0  0  0  0  0  0
  148.6254  135.9412  156.9879 H   0  0  0  0  0  0  0  0  0  0  0  0
  152.5692  139.2033  157.2572 H   0  0  0  0  0  0  0  0  0  0  0  0
  151.6302  141.8266  156.4503 H   0  0  0  0  0  0  0  0  0  0  0  0
  150.5859  141.0666  157.6286 H   0  0  0  0  0  0  0  0  0  0  0  0
  152.5922  140.7687  159.1680 H   0  0  0  0  0  0  0  0  0  0  0  0
  153.6003  141.5601  157.9831 H   0  0  0  0  0  0  0  0  0  0  0  0
  153.6144  142.7365  160.6338 H   0  0  0  0  0  0  0  0  0  0  0  0
  152.9465  144.9751  161.5447 H   0  0  0  0  0  0  0  0  0  0  0  0
  151.1757  146.2894  160.3426 H   0  0  0  0  0  0  0  0  0  0  0  0
  150.1475  145.3045  158.2772 H   0  0  0  0  0  0  0  0  0  0  0  0
  1  2  2  0  0  0  0
  2  3  1  0  0  0  0
  2 15  1  0  0  0  0
  3  4  1  0  0  0  0
  3 24  1  0  0  0  0
  3 25  1  0  0  0  0
  4 13  1  0  0  0  0
  4  5  1  0  0  0  0
  5  6  2  0  0  0  0
  5  7  1  0  0  0  0
  7 12  1  0  0  0  0
  7  8  1  0  0  0  0
  7 26  1  0  0  0  0
  8  9  1  0  0  0  0
  8 27  1  0  0  0  0
  8 28  1  0  0  0  0
  9 10  2  0  0  0  0
  9 29  1  0  0  0  0
 10 11  1  0  0  0  0
 10 30  1  0  0  0  0
 11 12  1  0  0  0  0
 11 31  1  0  0  0  0
 11 32  1  0  0  0  0
 12 13  1  0  0  0  0
 12 33  1  0  0  0  0
 13 14  2  0  0  0  0
 15 16  1  0  0  0  0
 15 34  1  0  0  0  0
 16 17  1  0  0  0  0
 16 35  1  0  0  0  0
 16 36  1  0  0  0  0
 17 18  1  0  0  0  0
 17 37  1  0  0  0  0
 17 38  1  0  0  0  0
 18 23  1  0  0  0  0
 18 19  2  0  0  0  0
 19 20  1  0  0  0  0
 19 39  1  0  0  0  0
 20 21  2  0  0  0  0
 20 40  1  0  0  0  0
 21 22  1  0  0  0  0
 21 41  1  0  0  0  0
 22 23  2  0  0  0  0
 22 42  1  0  0  0  0
M  END
> <s_m_source_file>
AV-unprocessed.smi

> <i_m_source_file_index>
2202

> <i_lp_mmshare_version>
43012

> <i_f3d_flags>
0

> <s_epik_input>
W0NIMl0xW0NIXT1bQ0hdW0NIMl1bQ0BIXShbQ0BIXTEyKUMoPU8pTihDMj1PKVtDSDJdQyg9TylbTkhdW0NIMl1bQ0gyXWMzW2NIXVtjSF1bY0hdW2NIXW4z

> <s_epik_cmdline>
J2VwaWtfcHl0aG9uJywgJy1waCcsICc3LjAnLCAnLXRuJywgJzgnLCAnLW1hJywgJzIwMCcsICctbWV0YWxfYmluZGluZycsICctaW1hZScsICc8aW5maWxlLm1hZT4nLCAnLW9tYWUnLCAnPG91dGZpbGUubWFlPic=

> <r_lp_tautomer_probability>
1

> <r_epik_Ionization_Penalty>
0.0244696

> <r_epik_Ionization_Penalty_Charging>
0

> <r_epik_Ionization_Penalty_Neutral>
0.0244696

> <r_epik_State_Penalty>
0.0198648

> <r_epik_Charging_Adjusted_Penalty>
0.0198648

> <i_epik_Tot_Q>
0

> <i_epik_Tot_abs_Q>
0

> <r_epik_Metal_State_Penalty>
0.0190699

> <b_epik_Metal_Only>
0

> <s_lp_Force_Field>
OPLS_2005

> <r_lp_Energy>
13.8656

> <b_lp_Chiralities_Consistent>
1

> <s_lp_Variant>
AV-unprocessed.smi:2202-1

> <Gold.Version>
5.8.1

> <Gold.Id.Protein>
6NUR|6NUR_protein|mol2

> <Gold.PLP.Fitness>
49.3097

> <Gold.PLP.PLP>
-41.5150

> <Gold.PLP.part.hbond>
-2.0000

> <Gold.PLP.part.metal>
0.0000

> <Gold.PLP.part.buried>
-7.2815

> <Gold.PLP.part.nonpolar>
-32.7437

> <Gold.PLP.part.repulsive>
0.4751

> <Gold.PLP.ligand.clash>
0.0000

> <Gold.PLP.ligand.torsion>
0.6479

> <Gold.PLP.Chemscore.Hbond>
2.0000

> <Gold.PLP.Chemscore.CHOScore>
1.0136

> <Gold.PLP.Chemscore.Metal>
0.0000

> <Gold.Chemscore.Hbonds>
donor molecule, donor type, donor heavy atom, donor atom, acceptor molecule, acceptor atom, score
      P1  H  7989  7998       L1     1  1.00
      P1  H 10752 10764       L1     6  0.84
      L1  C    22    42       P1  8028  0.01
      L1  C    22    42       P1  8029  1.00

> <Gold.PLP.Chemscore.Internal.Correction>
0.0496

> <Gold.Rescore>
     Score         DG    S(hbond)    S(metal)    S(lipo)     H(rot)  DE(clash)    DE(int)     intcor
     15.20     -18.69       1.85        0.00     100.73       1.85       0.14       3.35       ----

> <Gold.Chemscore.Fitness>
15.1985

> <Gold.Chemscore.DG>
-18.6916

> <Gold.Chemscore.ZeroCoef>
-5.4800

> <Gold.Chemscore.Hbond>
1.8481

> <Gold.Chemscore.Metal>
0.0000

> <Gold.Chemscore.Lipo>
100.7283

> <Gold.Chemscore.Internal_Hbond>
0.0000

> <Gold.Chemscore.DEClash>
0.1412

> <Gold.Chemscore.DEInternal>
3.3519

> <Gold.Chemscore.Rot>
1.8540

> <Gold.Chemscore.Internal.Correction>
   9.000000E+99

> <Gold.Chemscore.Hbonds>
donor molecule, donor type, donor heavy atom, donor atom, acceptor molecule, acceptor atom, score
      P1  H  7989  7998       L1     1  0.93
      P1  H 10752 10764       L1     6  0.14

> <Gold.Chemscore.Hbond.Weighted>
-6.1726

> <Gold.Chemscore.Metal.Weighted>
-0.0000

> <Gold.Chemscore.Lipo.Weighted>
-11.7852

> <Gold.Chemscore.Internal_Hbond.Weighted>
0.0000

> <Gold.Chemscore.DEClash.Weighted>
0.1412

> <Gold.Chemscore.DEInternal.Weighted>
3.3519

> <Gold.Chemscore.Rot.Weighted>
4.7462

> <Gold.Chemscore.Internal.Correction.Weighted>
   9.000000E+99

> <Gold.Protein.RotatedTorsions>
[ 6907 6896 6895 6894 ] final   20.26 input  -60.11 | X-H torsion
[ 7974 7965 7964 7962 ] final   29.98 input  175.53 | X-H torsion
[ 8008 7997 7996 7995 ] final -135.60 input   59.86 | X-H torsion
[ 10167 10162 10161 10158 ] final  172.29 input  -65.29 | X-H torsion
[ 10718 10713 10712 10709 ] final   43.96 input   66.30 | X-H torsion
[ 10763 10752 10751 10750 ] final  -12.76 input  -60.55 | X-H torsion
[ 11005 11000 10999 10996 ] final  -90.12 input  -57.11 | X-H torsion

> <Gold.Protein.ActiveResidues>
 VAL166  LYS551  ARG553  GLY616  TRP617  ASP618  TYR619  PRO620  LYS621  CYS622 
 ASP623  PHE694  ASN695  SER759  ASP760  ASP761  ALA762  ILE779  LEU786  VAL792 
 PHE793  MET794  SER795  GLU796  ALA797  LYS798  CYS799  TRP800  GLU811  SER814 

> <Gold.Protein.RotatedAtoms>
  151.8937  135.0406  160.0499 H   0  0  0  0  0  0  0  0  0  0  0  0  # atno 6907 bound_to 6896
  152.2415  133.5135  159.5281 H   0  0  0  0  0  0  0  0  0  0  0  0  # atno 6908 bound_to 6896
  150.7055  134.0998  159.4004 H   0  0  0  0  0  0  0  0  0  0  0  0  # atno 6909 bound_to 6896
  146.1639  139.6850  142.9014 H   0  0  0  0  0  0  0  0  0  0  0  0  # atno 7974 bound_to 7965
  155.3813  140.0494  157.3043 H   0  0  0  0  0  0  0  0  0  0  0  0  # atno 8008 bound_to 7997
  154.5081  140.2181  155.9172 H   0  0  0  0  0  0  0  0  0  0  0  0  # atno 8009 bound_to 7997
  156.1550  140.3128  155.8716 H   0  0  0  0  0  0  0  0  0  0  0  0  # atno 8010 bound_to 7997
  139.5072  144.3390  152.0037 H   0  0  0  0  0  0  0  0  0  0  0  0  # atno 10167 bound_to 10162
  157.4216  130.7972  149.7520 H   0  0  0  0  0  0  0  0  0  0  0  0  # atno 10718 bound_to 10713
  153.5032  135.7017  153.5820 H   0  0  0  0  0  0  0  0  0  0  0  0  # atno 10763 bound_to 10752
  153.3943  135.3888  155.1944 H   0  0  0  0  0  0  0  0  0  0  0  0  # atno 10764 bound_to 10752
  154.8709  135.3866  154.4505 H   0  0  0  0  0  0  0  0  0  0  0  0  # atno 10765 bound_to 10752
  141.1572  133.7672  156.9692 H   0  0  0  0  0  0  0  0  0  0  0  0  # atno 11005 bound_to 11000
  145.4517  141.0428  143.2801 LP  0  0  0  0  0  0  0  0  0  0  0  0  # atno 17320 bound_to 7965
  144.8066  139.6041  143.7048 LP  0  0  0  0  0  0  0  0  0  0  0  0  # atno 17321 bound_to 7965
  140.2828  144.3840  150.6113 LP  0  0  0  0  0  0  0  0  0  0  0  0  # atno 17342 bound_to 10162
  140.6005  143.2167  151.7081 LP  0  0  0  0  0  0  0  0  0  0  0  0  # atno 17343 bound_to 10162
  155.9882  130.3960  150.3127 LP  0  0  0  0  0  0  0  0  0  0  0  0  # atno 17370 bound_to 10713
  157.1276  131.0263  151.2983 LP  0  0  0  0  0  0  0  0  0  0  0  0  # atno 17371 bound_to 10713
  140.1141  134.9458  157.2108 LP  0  0  0  0  0  0  0  0  0  0  0  0  # atno 17394 bound_to 11000
  140.3156  134.2974  155.7257 LP  0  0  0  0  0  0  0  0  0  0  0  0  # atno 17395 bound_to 11000

$$$$
