AV-unprocessed.smi:1157|AV-procd|sdf|4907|dock8
  -GOLD-   22720 3483D 1   1.00000     0.00000
 Structure written by MMmdl.
 55 57  0  0  0  0  0  0  0  0  2 V2000
  144.1730  135.3208  152.7044 C   0  0  0  0  0  0  0  0  0  0  0  0
  145.5292  135.8622  152.1861 C   0  0  0  0  0  0  0  0  0  0  0  0
  145.6073  135.4620  150.6914 C   0  0  0  0  0  0  0  0  0  0  0  0
  145.5843  137.4146  152.3159 C   0  0  0  0  0  0  0  0  0  0  0  0
  146.9183  137.9270  152.6281 N   0  0  0  0  0  0  0  0  0  0  0  0
  147.2381  138.6659  153.7004 C   0  0  0  0  0  0  0  0  0  0  0  0
  146.4203  139.0145  154.5515 O   0  0  0  0  0  0  0  0  0  0  0  0
  148.5433  138.9856  153.6973 N   0  0  0  0  0  0  0  0  0  0  0  0
  149.2693  139.7521  154.6486 C   0  0  0  0  0  0  0  0  0  0  0  0
  150.6009  139.4837  155.0428 C   0  0  0  0  0  0  0  0  0  0  0  0
  151.2180  140.3310  155.9828 C   0  0  0  0  0  0  0  0  0  0  0  0
  150.4950  141.4324  156.4993 C   0  0  0  0  0  0  0  0  0  0  0  0
  151.0749  142.2998  157.4458 N   0  0  0  0  0  0  0  0  0  0  0  0
  151.5685  143.6180  157.0780 C   0  0  0  0  0  0  0  0  0  0  0  0
  152.2324  144.1494  158.3474 C   0  0  0  0  0  0  0  0  0  0  0  0
  152.7727  142.8833  159.0125 C   0  0  0  0  0  0  0  0  0  0  0  0
  151.7611  141.7973  158.6283 C   0  0  0  0  0  0  0  0  0  0  0  0
  149.2222  141.6910  156.1152 N   0  0  0  0  0  0  0  0  0  0  0  0
  148.6358  140.8771  155.2130 C   0  0  0  0  0  0  0  0  0  0  0  0
  146.6534  135.2079  152.9488 N   0  3  0  0  0  0  0  0  0  0  0  0
  146.7024  135.4963  154.4105 C   0  0  0  0  0  0  0  0  0  0  0  0
  147.9897  134.9283  155.0318 C   0  0  0  0  0  0  0  0  0  0  0  0
  148.0630  133.5305  154.7916 O   0  0  0  0  0  0  0  0  0  0  0  0
  148.1092  133.2390  153.4023 C   0  0  0  0  0  0  0  0  0  0  0  0
  146.8246  133.7440  152.7246 C   0  0  0  0  0  0  0  0  0  0  0  0
  143.3483  135.5959  152.0462 H   0  0  0  0  0  0  0  0  0  0  0  0
  143.9176  135.7145  153.6881 H   0  0  0  0  0  0  0  0  0  0  0  0
  144.1771  134.2321  152.7685 H   0  0  0  0  0  0  0  0  0  0  0  0
  144.7054  135.7484  150.1491 H   0  0  0  0  0  0  0  0  0  0  0  0
  145.7208  134.3837  150.5736 H   0  0  0  0  0  0  0  0  0  0  0  0
  146.4355  135.9465  150.1746 H   0  0  0  0  0  0  0  0  0  0  0  0
  145.2096  137.8977  151.4133 H   0  0  0  0  0  0  0  0  0  0  0  0
  144.9341  137.7510  153.1227 H   0  0  0  0  0  0  0  0  0  0  0  0
  147.6555  137.6946  151.9787 H   0  0  0  0  0  0  0  0  0  0  0  0
  149.0712  138.6920  152.8885 H   0  0  0  0  0  0  0  0  0  0  0  0
  151.1652  138.6580  154.6382 H   0  0  0  0  0  0  0  0  0  0  0  0
  152.2307  140.1232  156.2942 H   0  0  0  0  0  0  0  0  0  0  0  0
  152.2982  143.5224  156.2728 H   0  0  0  0  0  0  0  0  0  0  0  0
  150.7628  144.2708  156.7404 H   0  0  0  0  0  0  0  0  0  0  0  0
  153.0065  144.8896  158.1438 H   0  0  0  0  0  0  0  0  0  0  0  0
  151.4825  144.6115  158.9912 H   0  0  0  0  0  0  0  0  0  0  0  0
  153.7478  142.6391  158.5892 H   0  0  0  0  0  0  0  0  0  0  0  0
  152.8931  142.9863  160.0914 H   0  0  0  0  0  0  0  0  0  0  0  0
  151.0300  141.6504  159.4238 H   0  0  0  0  0  0  0  0  0  0  0  0
  152.2630  140.8473  158.4422 H   0  0  0  0  0  0  0  0  0  0  0  0
  147.6230  141.1325  154.9368 H   0  0  0  0  0  0  0  0  0  0  0  0
  146.6841  136.5658  154.6098 H   0  0  0  0  0  0  0  0  0  0  0  0
  145.8382  135.0596  154.9115 H   0  0  0  0  0  0  0  0  0  0  0  0
  148.8715  135.4275  154.6271 H   0  0  0  0  0  0  0  0  0  0  0  0
  147.9937  135.1007  156.1082 H   0  0  0  0  0  0  0  0  0  0  0  0
  148.9933  133.6915  152.9501 H   0  0  0  0  0  0  0  0  0  0  0  0
  148.2025  132.1607  153.2722 H   0  0  0  0  0  0  0  0  0  0  0  0
  145.9708  133.1968  153.1243 H   0  0  0  0  0  0  0  0  0  0  0  0
  146.8926  133.5049  151.6653 H   0  0  0  0  0  0  0  0  0  0  0  0
  147.4908  135.6286  152.5716 H   0  0  0  0  0  0  0  0  0  0  0  0
  1  2  1  0  0  0  0
  1 26  1  0  0  0  0
  1 27  1  0  0  0  0
  1 28  1  0  0  0  0
  2  3  1  0  0  0  0
  2  4  1  0  0  0  0
  2 20  1  0  0  0  0
  3 29  1  0  0  0  0
  3 30  1  0  0  0  0
  3 31  1  0  0  0  0
  4  5  1  0  0  0  0
  4 32  1  0  0  0  0
  4 33  1  0  0  0  0
  5  6  1  0  0  0  0
  5 34  1  0  0  0  0
  6  7  2  0  0  0  0
  6  8  1  0  0  0  0
  8  9  1  0  0  0  0
  8 35  1  0  0  0  0
  9 19  1  0  0  0  0
  9 10  2  0  0  0  0
 10 11  1  0  0  0  0
 10 36  1  0  0  0  0
 11 12  2  0  0  0  0
 11 37  1  0  0  0  0
 12 13  1  0  0  0  0
 12 18  1  0  0  0  0
 13 17  1  0  0  0  0
 13 14  1  0  0  0  0
 14 15  1  0  0  0  0
 14 38  1  0  0  0  0
 14 39  1  0  0  0  0
 15 16  1  0  0  0  0
 15 40  1  0  0  0  0
 15 41  1  0  0  0  0
 16 17  1  0  0  0  0
 16 42  1  0  0  0  0
 16 43  1  0  0  0  0
 17 44  1  0  0  0  0
 17 45  1  0  0  0  0
 18 19  2  0  0  0  0
 19 46  1  0  0  0  0
 20 25  1  0  0  0  0
 20 21  1  0  0  0  0
 20 55  1  0  0  0  0
 21 22  1  0  0  0  0
 21 47  1  0  0  0  0
 21 48  1  0  0  0  0
 22 23  1  0  0  0  0
 22 49  1  0  0  0  0
 22 50  1  0  0  0  0
 23 24  1  0  0  0  0
 24 25  1  0  0  0  0
 24 51  1  0  0  0  0
 24 52  1  0  0  0  0
 25 53  1  0  0  0  0
 25 54  1  0  0  0  0
M  CHG  1  20   1
M  END
> <s_m_source_file>
AV-unprocessed.smi

> <i_m_source_file_index>
1157

> <i_lp_mmshare_version>
43012

> <i_f3d_flags>
0

> <s_epik_input>
W0NIMl0xW0NIMl1PW0NIMl1bQ0gyXU4xQyhbQ0gzXSkoW0NIM10pW0NIMl1bTkhdQyg9TylbTkhdYzJbY0hdW2NIXWMobltjSF0yKU4zW0NIMl1bQ0gyXVtDSDJdW0NIMl0z

> <s_epik_cmdline>
J2VwaWtfcHl0aG9uJywgJy1waCcsICc3LjAnLCAnLXRuJywgJzgnLCAnLW1hJywgJzIwMCcsICctbWV0YWxfYmluZGluZycsICctaW1hZScsICc8aW5maWxlLm1hZT4nLCAnLW9tYWUnLCAnPG91dGZpbGUubWFlPic=

> <r_lp_tautomer_probability>
1

> <r_epik_Ionization_Penalty>
0.687101

> <r_epik_Ionization_Penalty_Charging>
0.602531

> <r_epik_Ionization_Penalty_Neutral>
0.0845707

> <r_epik_State_Penalty>
0.681137

> <r_epik_Charging_Adjusted_Penalty>
1.28367

> <i_epik_Tot_Q>
1

> <i_epik_Tot_abs_Q>
1

> <r_epik_Metal_State_Penalty>
0.680046

> <b_epik_Metal_Only>
0

> <s_lp_Force_Field>
OPLS_2005

> <r_lp_Energy>
50.3969

> <b_lp_Chiralities_Consistent>
1

> <s_lp_Variant>
AV-unprocessed.smi:1157-2

> <Gold.Version>
5.8.1

> <Gold.Id.Protein>
6NUR|6NUR_protein|mol2

> <Gold.PLP.Fitness>
49.2385

> <Gold.PLP.PLP>
-44.1740

> <Gold.PLP.part.hbond>
-3.0506

> <Gold.PLP.part.metal>
0.0000

> <Gold.PLP.part.buried>
-2.0335

> <Gold.PLP.part.nonpolar>
-38.8313

> <Gold.PLP.part.repulsive>
0.7432

> <Gold.PLP.ligand.clash>
0.0000

> <Gold.PLP.ligand.torsion>
2.2174

> <Gold.PLP.Chemscore.Hbond>
3.0730

> <Gold.PLP.Chemscore.CHOScore>
0.0000

> <Gold.PLP.Chemscore.Metal>
0.0000

> <Gold.Chemscore.Hbonds>
donor molecule, donor type, donor heavy atom, donor atom, acceptor molecule, acceptor atom, score
      L1  H     5    34       P1  7948  0.70
      L1  H     8    35       P1  7957  0.24
      L1  H    20    55       P1  7948  2.00

> <Gold.PLP.Chemscore.Internal.Correction>
0.2802

> <Gold.Rescore>
     Score         DG    S(hbond)    S(metal)    S(lipo)     H(rot)  DE(clash)    DE(int)     intcor
     17.67     -21.02       2.05        0.00     105.49       1.42       0.01       3.34       ----

> <Gold.Chemscore.Fitness>
17.6704

> <Gold.Chemscore.DG>
-21.0209

> <Gold.Chemscore.ZeroCoef>
-5.4800

> <Gold.Chemscore.Hbond>
2.0492

> <Gold.Chemscore.Metal>
0.0000

> <Gold.Chemscore.Lipo>
105.4939

> <Gold.Chemscore.Internal_Hbond>
0.0000

> <Gold.Chemscore.DEClash>
0.0064

> <Gold.Chemscore.DEInternal>
3.3441

> <Gold.Chemscore.Rot>
1.4243

> <Gold.Chemscore.Internal.Correction>
   9.000000E+99

> <Gold.Chemscore.Hbonds>
donor molecule, donor type, donor heavy atom, donor atom, acceptor molecule, acceptor atom, score
      L1  H     5    34       P1  7948  0.70
      L1  H     8    35       P1  7957  0.22
      L1  H    20    55       P1  7948  1.00

> <Gold.Chemscore.Hbond.Weighted>
-6.8443

> <Gold.Chemscore.Metal.Weighted>
-0.0000

> <Gold.Chemscore.Lipo.Weighted>
-12.3428

> <Gold.Chemscore.Internal_Hbond.Weighted>
0.0000

> <Gold.Chemscore.DEClash.Weighted>
0.0064

> <Gold.Chemscore.DEInternal.Weighted>
3.3441

> <Gold.Chemscore.Rot.Weighted>
3.6462

> <Gold.Chemscore.Internal.Correction.Weighted>
   9.000000E+99

> <Gold.Protein.RotatedTorsions>
[ 6907 6896 6895 6894 ] final   10.80 input  -60.11 | X-H torsion
[ 7974 7965 7964 7962 ] final -160.39 input  175.53 | X-H torsion
[ 8008 7997 7996 7995 ] final   30.57 input   59.86 | X-H torsion
[ 10167 10162 10161 10158 ] final  -86.79 input  -65.29 | X-H torsion
[ 10718 10713 10712 10709 ] final  111.88 input   66.30 | X-H torsion
[ 10763 10752 10751 10750 ] final  -40.99 input  -60.55 | X-H torsion
[ 11005 11000 10999 10996 ] final  -82.87 input  -57.11 | X-H torsion

> <Gold.Protein.ActiveResidues>
 VAL166  LYS551  ARG553  GLY616  TRP617  ASP618  TYR619  PRO620  LYS621  CYS622 
 ASP623  PHE694  ASN695  SER759  ASP760  ASP761  ALA762  ILE779  LEU786  VAL792 
 PHE793  MET794  SER795  GLU796  ALA797  LYS798  CYS799  TRP800  GLU811  SER814 

> <Gold.Protein.RotatedAtoms>
  151.7440  135.0848  160.0320 H   0  0  0  0  0  0  0  0  0  0  0  0  # atno 6907 bound_to 6896
  152.3460  133.6119  159.5919 H   0  0  0  0  0  0  0  0  0  0  0  0  # atno 6908 bound_to 6896
  150.7509  133.9564  159.3543 H   0  0  0  0  0  0  0  0  0  0  0  0  # atno 6909 bound_to 6896
  144.7429  140.3549  143.6108 H   0  0  0  0  0  0  0  0  0  0  0  0  # atno 7974 bound_to 7965
  155.0925  140.3221  155.4569 H   0  0  0  0  0  0  0  0  0  0  0  0  # atno 8008 bound_to 7997
  156.2739  140.2075  156.5999 H   0  0  0  0  0  0  0  0  0  0  0  0  # atno 8009 bound_to 7997
  154.6892  140.0518  157.0333 H   0  0  0  0  0  0  0  0  0  0  0  0  # atno 8010 bound_to 7997
  140.3907  143.2706  151.9268 H   0  0  0  0  0  0  0  0  0  0  0  0  # atno 10167 bound_to 10162
  157.6421  131.0958  150.6814 H   0  0  0  0  0  0  0  0  0  0  0  0  # atno 10718 bound_to 10713
  153.9552  135.6746  153.4744 H   0  0  0  0  0  0  0  0  0  0  0  0  # atno 10763 bound_to 10752
  153.0865  135.4896  154.8603 H   0  0  0  0  0  0  0  0  0  0  0  0  # atno 10764 bound_to 10752
  154.7303  135.3137  154.8861 H   0  0  0  0  0  0  0  0  0  0  0  0  # atno 10765 bound_to 10752
  141.1661  133.7266  156.8635 H   0  0  0  0  0  0  0  0  0  0  0  0  # atno 11005 bound_to 11000
  145.7238  139.1717  143.2469 LP  0  0  0  0  0  0  0  0  0  0  0  0  # atno 17320 bound_to 7965
  146.1257  140.7251  142.9436 LP  0  0  0  0  0  0  0  0  0  0  0  0  # atno 17321 bound_to 7965
  139.4789  144.5730  151.8058 LP  0  0  0  0  0  0  0  0  0  0  0  0  # atno 17342 bound_to 10162
  140.4842  144.1405  150.5938 LP  0  0  0  0  0  0  0  0  0  0  0  0  # atno 17343 bound_to 10162
  156.7136  130.4659  149.5541 LP  0  0  0  0  0  0  0  0  0  0  0  0  # atno 17370 bound_to 10713
  156.1713  130.6439  151.0840 LP  0  0  0  0  0  0  0  0  0  0  0  0  # atno 17371 bound_to 10713
  140.1832  134.9019  157.2973 LP  0  0  0  0  0  0  0  0  0  0  0  0  # atno 17394 bound_to 11000
  140.2372  134.3838  155.7496 LP  0  0  0  0  0  0  0  0  0  0  0  0  # atno 17395 bound_to 11000

$$$$
