AV-unprocessed.smi:1451|AV-procd|sdf|5899|dock9
  -GOLD-   22720 5583D 1   1.00000     0.00000
 Structure written by MMmdl.
 47 48  0  0  0  0  0  0  0  0  2 V2000
  145.7665  134.2799  155.3682 C   0  0  0  0  0  0  0  0  0  0  0  0
  147.1526  134.4257  154.7239 C   0  0  2  0  0  0  0  0  0  0  0  0
  147.9846  133.1424  154.8841 C   0  0  0  0  0  0  0  0  0  0  0  0
  149.3706  133.3261  154.2535 C   0  0  0  0  0  0  0  0  0  0  0  0
  150.0807  134.5585  154.8358 C   0  0  0  0  0  0  0  0  0  0  0  0
  149.2567  135.7834  154.6655 N   0  3  2  0  0  0  0  0  0  0  0  0
  149.9780  137.0063  155.1003 C   0  0  0  0  0  0  0  0  0  0  0  0
  149.1219  138.2799  154.9548 C   0  0  0  0  0  0  0  0  0  0  0  0
  149.9266  139.4837  155.1258 N   0  0  0  0  0  0  0  0  0  0  0  0
  149.6273  140.4965  155.9532 C   0  0  0  0  0  0  0  0  0  0  0  0
  148.6337  140.4981  156.6812 O   0  0  0  0  0  0  0  0  0  0  0  0
  150.6105  141.6758  155.9615 C   0  0  0  0  0  0  0  0  0  0  0  0
  151.3045  141.8426  157.2498 N   0  0  0  0  0  0  0  0  0  0  0  0
  151.0583  143.0316  157.9646 C   0  0  0  0  0  0  0  0  0  0  0  0
  151.6422  143.3108  159.1457 C   0  0  0  0  0  0  0  0  0  0  0  0
  151.3159  144.5801  159.9172 C   0  0  0  0  0  0  0  0  0  0  0  0
  151.9170  144.5878  161.1073 F   0  0  0  0  0  0  0  0  0  0  0  0
  151.7326  145.6453  159.2341 F   0  0  0  0  0  0  0  0  0  0  0  0
  150.0019  144.6997  160.1110 F   0  0  0  0  0  0  0  0  0  0  0  0
  152.5309  142.2985  159.6817 C   0  0  0  0  0  0  0  0  0  0  0  0
  152.7725  141.1532  159.0143 C   0  0  0  0  0  0  0  0  0  0  0  0
  152.1486  140.8749  157.7188 C   0  0  0  0  0  0  0  0  0  0  0  0
  152.3707  139.8379  157.0927 O   0  0  0  0  0  0  0  0  0  0  0  0
  147.9189  135.6340  155.2993 C   0  0  0  0  0  0  0  0  0  0  0  0
  145.8434  134.1069  156.4423 H   0  0  0  0  0  0  0  0  0  0  0  0
  145.2181  133.4426  154.9350 H   0  0  0  0  0  0  0  0  0  0  0  0
  145.1668  135.1780  155.2175 H   0  0  0  0  0  0  0  0  0  0  0  0
  147.0008  134.5996  153.6572 H   0  0  0  0  0  0  0  0  0  0  0  0
  148.0926  132.8977  155.9419 H   0  0  0  0  0  0  0  0  0  0  0  0
  147.4743  132.2984  154.4188 H   0  0  0  0  0  0  0  0  0  0  0  0
  149.9759  132.4343  154.4192 H   0  0  0  0  0  0  0  0  0  0  0  0
  149.2710  133.4363  153.1728 H   0  0  0  0  0  0  0  0  0  0  0  0
  150.2940  134.4062  155.8951 H   0  0  0  0  0  0  0  0  0  0  0  0
  151.0406  134.6850  154.3334 H   0  0  0  0  0  0  0  0  0  0  0  0
  150.3253  136.8866  156.1279 H   0  0  0  0  0  0  0  0  0  0  0  0
  150.8728  137.1243  154.4875 H   0  0  0  0  0  0  0  0  0  0  0  0
  148.6242  138.2986  153.9837 H   0  0  0  0  0  0  0  0  0  0  0  0
  148.3352  138.3092  155.7073 H   0  0  0  0  0  0  0  0  0  0  0  0
  150.7667  139.5571  154.5699 H   0  0  0  0  0  0  0  0  0  0  0  0
  151.3266  141.5257  155.1526 H   0  0  0  0  0  0  0  0  0  0  0  0
  150.0801  142.5953  155.7056 H   0  0  0  0  0  0  0  0  0  0  0  0
  150.3640  143.7086  157.4883 H   0  0  0  0  0  0  0  0  0  0  0  0
  153.0162  142.4623  160.6326 H   0  0  0  0  0  0  0  0  0  0  0  0
  153.4428  140.4223  159.4427 H   0  0  0  0  0  0  0  0  0  0  0  0
  147.3270  136.5344  155.1390 H   0  0  0  0  0  0  0  0  0  0  0  0
  148.0394  135.5256  156.3785 H   0  0  0  0  0  0  0  0  0  0  0  0
  149.1042  135.8808  153.6717 H   0  0  0  0  0  0  0  0  0  0  0  0
  1  2  1  0  0  0  0
  1 25  1  0  0  0  0
  1 26  1  0  0  0  0
  1 27  1  0  0  0  0
  2 24  1  0  0  0  0
  2  3  1  0  0  0  0
  2 28  1  0  0  0  0
  3  4  1  0  0  0  0
  3 29  1  0  0  0  0
  3 30  1  0  0  0  0
  4  5  1  0  0  0  0
  4 31  1  0  0  0  0
  4 32  1  0  0  0  0
  5  6  1  0  0  0  0
  5 33  1  0  0  0  0
  5 34  1  0  0  0  0
  6  7  1  0  0  0  0
  6 24  1  0  0  0  0
  6 47  1  0  0  0  0
  7  8  1  0  0  0  0
  7 35  1  0  0  0  0
  7 36  1  0  0  0  0
  8  9  1  0  0  0  0
  8 37  1  0  0  0  0
  8 38  1  0  0  0  0
  9 10  1  0  0  0  0
  9 39  1  0  0  0  0
 10 11  2  0  0  0  0
 10 12  1  0  0  0  0
 12 13  1  0  0  0  0
 12 40  1  0  0  0  0
 12 41  1  0  0  0  0
 13 22  1  0  0  0  0
 13 14  1  0  0  0  0
 14 15  2  0  0  0  0
 14 42  1  0  0  0  0
 15 16  1  0  0  0  0
 15 20  1  0  0  0  0
 16 17  1  0  0  0  0
 16 18  1  0  0  0  0
 16 19  1  0  0  0  0
 20 21  2  0  0  0  0
 20 43  1  0  0  0  0
 21 22  1  0  0  0  0
 21 44  1  0  0  0  0
 22 23  2  0  0  0  0
 24 45  1  0  0  0  0
 24 46  1  0  0  0  0
M  CHG  1   6   1
M  END
> <s_m_source_file>
AV-unprocessed.smi

> <i_m_source_file_index>
1451

> <i_lp_mmshare_version>
43012

> <i_f3d_flags>
0

> <s_epik_input>
W0NIM11bQ0BASF0xW0NIMl1bQ0gyXVtDSDJdTihbQ0gyXTEpW0NIMl1bQ0gyXVtOSF1DKD1PKVtDSDJdbjJbY0hdYyhDKEYpKEYpRilbY0hdW2NIXWMyPU8=

> <s_epik_cmdline>
J2VwaWtfcHl0aG9uJywgJy1waCcsICc3LjAnLCAnLXRuJywgJzgnLCAnLW1hJywgJzIwMCcsICctbWV0YWxfYmluZGluZycsICctaW1hZScsICc8aW5maWxlLm1hZT4nLCAnLW9tYWUnLCAnPG91dGZpbGUubWFlPic=

> <r_lp_tautomer_probability>
1

> <r_epik_Ionization_Penalty>
0.00192452

> <r_epik_Ionization_Penalty_Charging>
0.00192444

> <r_epik_Ionization_Penalty_Neutral>
8.16761e-08

> <r_epik_State_Penalty>
0.00131115

> <r_epik_Charging_Adjusted_Penalty>
0.00323559

> <i_epik_Tot_Q>
1

> <i_epik_Tot_abs_Q>
1

> <r_epik_Metal_State_Penalty>
-0

> <b_epik_Metal_Only>
0

> <s_lp_Force_Field>
OPLS_2005

> <r_lp_Energy>
28.0939

> <b_lp_Chiralities_Consistent>
1

> <s_lp_Variant>
AV-unprocessed.smi:1451-1

> <Gold.Version>
5.8.1

> <Gold.Id.Protein>
6NUR|6NUR_protein|mol2

> <Gold.PLP.Fitness>
54.7791

> <Gold.PLP.PLP>
-43.3359

> <Gold.PLP.part.hbond>
-2.0000

> <Gold.PLP.part.metal>
0.0000

> <Gold.PLP.part.buried>
-5.4508

> <Gold.PLP.part.nonpolar>
-35.6236

> <Gold.PLP.part.repulsive>
0.1441

> <Gold.PLP.ligand.clash>
0.0000

> <Gold.PLP.ligand.torsion>
0.1893

> <Gold.PLP.Chemscore.Hbond>
3.0000

> <Gold.PLP.Chemscore.CHOScore>
0.9128

> <Gold.PLP.Chemscore.Metal>
0.0000

> <Gold.Chemscore.Hbonds>
donor molecule, donor type, donor heavy atom, donor atom, acceptor molecule, acceptor atom, score
      L1  H     6    47       P1  7948  2.00
      P1  H  7997  8010       L1    23  0.82
      L1  C    14    42       P1  8028  0.97

> <Gold.PLP.Chemscore.Internal.Correction>
0.0833

> <Gold.Rescore>
     Score         DG    S(hbond)    S(metal)    S(lipo)     H(rot)  DE(clash)    DE(int)     intcor
     16.33     -16.80       1.86        0.00      88.94       2.08       0.24       0.22       ----

> <Gold.Chemscore.Fitness>
16.3312

> <Gold.Chemscore.DG>
-16.7966

> <Gold.Chemscore.ZeroCoef>
-5.4800

> <Gold.Chemscore.Hbond>
1.8640

> <Gold.Chemscore.Metal>
0.0000

> <Gold.Chemscore.Lipo>
88.9391

> <Gold.Chemscore.Internal_Hbond>
0.0000

> <Gold.Chemscore.DEClash>
0.2424

> <Gold.Chemscore.DEInternal>
0.2230

> <Gold.Chemscore.Rot>
2.0762

> <Gold.Chemscore.Internal.Correction>
   9.000000E+99

> <Gold.Chemscore.Hbonds>
donor molecule, donor type, donor heavy atom, donor atom, acceptor molecule, acceptor atom, score
      L1  H     6    47       P1  7948  0.88
      P1  H  7997  8010       L1    23  0.18

> <Gold.Chemscore.Hbond.Weighted>
-6.2258

> <Gold.Chemscore.Metal.Weighted>
-0.0000

> <Gold.Chemscore.Lipo.Weighted>
-10.4059

> <Gold.Chemscore.Internal_Hbond.Weighted>
0.0000

> <Gold.Chemscore.DEClash.Weighted>
0.2424

> <Gold.Chemscore.DEInternal.Weighted>
0.2230

> <Gold.Chemscore.Rot.Weighted>
5.3150

> <Gold.Chemscore.Internal.Correction.Weighted>
   9.000000E+99

> <Gold.Protein.RotatedTorsions>
[ 6907 6896 6895 6894 ] final  -96.87 input  -60.11 | X-H torsion
[ 7974 7965 7964 7962 ] final   74.98 input  175.53 | X-H torsion
[ 8008 7997 7996 7995 ] final   52.97 input   59.86 | X-H torsion
[ 10167 10162 10161 10158 ] final   51.11 input  -65.29 | X-H torsion
[ 10718 10713 10712 10709 ] final  -78.69 input   66.30 | X-H torsion
[ 10763 10752 10751 10750 ] final    5.96 input  -60.55 | X-H torsion
[ 11005 11000 10999 10996 ] final   40.16 input  -57.11 | X-H torsion

> <Gold.Protein.ActiveResidues>
 VAL166  LYS551  ARG553  GLY616  TRP617  ASP618  TYR619  PRO620  LYS621  CYS622 
 ASP623  PHE694  ASN695  SER759  ASP760  ASP761  ALA762  ILE779  LEU786  VAL792 
 PHE793  MET794  SER795  GLU796  ALA797  LYS798  CYS799  TRP800  GLU811  SER814 

> <Gold.Protein.RotatedAtoms>
  150.7000  134.1435  159.4113 H   0  0  0  0  0  0  0  0  0  0  0  0  # atno 6907 bound_to 6896
  151.9419  135.0207  160.0545 H   0  0  0  0  0  0  0  0  0  0  0  0  # atno 6908 bound_to 6896
  152.2086  133.4859  159.5134 H   0  0  0  0  0  0  0  0  0  0  0  0  # atno 6909 bound_to 6896
  145.7213  139.2649  143.1594 H   0  0  0  0  0  0  0  0  0  0  0  0  # atno 7974 bound_to 7965
  155.4606  140.3461  155.4312 H   0  0  0  0  0  0  0  0  0  0  0  0  # atno 8008 bound_to 7997
  156.1163  140.1475  156.9297 H   0  0  0  0  0  0  0  0  0  0  0  0  # atno 8009 bound_to 7997
  154.4791  140.0875  156.7314 H   0  0  0  0  0  0  0  0  0  0  0  0  # atno 8010 bound_to 7997
  140.2654  144.3326  150.6305 H   0  0  0  0  0  0  0  0  0  0  0  0  # atno 10167 bound_to 10162
  156.0111  130.4525  150.3534 H   0  0  0  0  0  0  0  0  0  0  0  0  # atno 10718 bound_to 10713
  153.2532  135.6916  153.7656 H   0  0  0  0  0  0  0  0  0  0  0  0  # atno 10763 bound_to 10752
  153.6743  135.3339  155.3162 H   0  0  0  0  0  0  0  0  0  0  0  0  # atno 10764 bound_to 10752
  154.8402  135.4507  154.1497 H   0  0  0  0  0  0  0  0  0  0  0  0  # atno 10765 bound_to 10752
  140.1957  134.3932  155.8122 H   0  0  0  0  0  0  0  0  0  0  0  0  # atno 11005 bound_to 11000
  146.0623  140.7958  142.9729 LP  0  0  0  0  0  0  0  0  0  0  0  0  # atno 17320 bound_to 7965
  144.6916  140.3215  143.7231 LP  0  0  0  0  0  0  0  0  0  0  0  0  # atno 17321 bound_to 7965
  140.5933  143.2167  151.7212 LP  0  0  0  0  0  0  0  0  0  0  0  0  # atno 17342 bound_to 10162
  139.5004  144.3906  152.0283 LP  0  0  0  0  0  0  0  0  0  0  0  0  # atno 17343 bound_to 10162
  157.1626  131.0349  151.2834 LP  0  0  0  0  0  0  0  0  0  0  0  0  # atno 17370 bound_to 10713
  157.4298  130.7484  149.6981 LP  0  0  0  0  0  0  0  0  0  0  0  0  # atno 17371 bound_to 10713
  141.2227  133.7068  156.8172 LP  0  0  0  0  0  0  0  0  0  0  0  0  # atno 17394 bound_to 11000
  140.2110  134.8828  157.3274 LP  0  0  0  0  0  0  0  0  0  0  0  0  # atno 17395 bound_to 11000

$$$$
