AV-unprocessed.smi:287|AV-procd|sdf|2199|dock6
  -GOLD-   2262022 13D 1   1.00000     0.00000
 Structure written by MMmdl.
 55 58  0  0  0  0  0  0  0  0  1 V2000
  152.5645  144.1077  162.3942 C   0  0  0  0  0  0  0  0  0  0  0  0
  152.7847  142.9391  161.4960 C   0  0  0  0  0  0  0  0  0  0  0  0
  153.3909  141.7274  161.6551 C   0  0  0  0  0  0  0  0  0  0  0  0
  153.2900  141.0333  160.4125 C   0  0  0  0  0  0  0  0  0  0  0  0
  153.8367  139.6418  160.1214 C   0  0  1  0  0  0  0  0  0  0  0  0
  152.7363  138.7696  159.4949 C   0  0  0  0  0  0  0  0  0  0  0  0
  154.8904  139.6510  159.1776 O   0  0  0  0  0  0  0  0  0  0  0  0
  154.4030  138.9581  161.3872 C   0  0  0  0  0  0  0  0  0  0  0  0
  155.5729  139.6460  161.9229 N   0  0  0  0  0  0  0  0  0  0  0  0
  155.7289  139.7903  163.2549 C   0  0  0  0  0  0  0  0  0  0  0  0
  155.9030  138.7117  164.0621 N   0  0  0  0  0  0  0  0  0  0  0  0
  156.0504  138.8835  165.3793 C   0  0  0  0  0  0  0  0  0  0  0  0
  156.0537  140.0213  166.0771 N   0  0  0  0  0  0  0  0  0  0  0  0
  155.8828  141.1082  165.2696 C   0  0  0  0  0  0  0  0  0  0  0  0
  155.7145  141.0742  163.8573 C   0  0  0  0  0  0  0  0  0  0  0  0
  155.5651  142.3652  163.3682 N   0  0  0  0  0  0  0  0  0  0  0  0
  155.6431  143.1164  164.4334 C   0  0  0  0  0  0  0  0  0  0  0  0
  155.8343  142.4428  165.6195 N   0  0  0  0  0  0  0  0  0  0  0  0
  155.9657  143.0317  166.9858 C   0  0  1  0  0  0  0  0  0  0  0  0
  156.9801  143.9839  166.9562 O   0  0  0  0  0  0  0  0  0  0  0  0
  156.6385  145.0510  167.8285 C   0  0  1  0  0  0  0  0  0  0  0  0
  157.4556  146.3127  167.5004 C   0  0  0  0  0  0  0  0  0  0  0  0
  157.0720  147.3718  168.3509 O   0  0  0  0  0  0  0  0  0  0  0  0
  155.1166  145.1759  167.6557 C   0  0  1  0  0  0  0  0  0  0  0  0
  154.7801  145.9959  166.5521 O   0  0  0  0  0  0  0  0  0  0  0  0
  154.6659  143.7373  167.4113 C   0  0  2  0  0  0  0  0  0  0  0  0
  154.1637  143.1900  168.6146 O   0  0  0  0  0  0  0  0  0  0  0  0
  152.6039  141.8915  159.5866 C   0  0  0  0  0  0  0  0  0  0  0  0
  152.1397  141.8197  158.1690 C   0  0  0  0  0  0  0  0  0  0  0  0
  152.2968  143.0497  160.2352 O   0  0  0  0  0  0  0  0  0  0  0  0
  156.2445  142.1950  167.6285 H   0  0  0  0  0  0  0  0  0  0  0  0
  156.8359  144.7319  168.8540 H   0  0  0  0  0  0  0  0  0  0  0  0
  154.6522  145.6164  168.5392 H   0  0  0  0  0  0  0  0  0  0  0  0
  153.9002  143.6633  166.6366 H   0  0  0  0  0  0  0  0  0  0  0  0
  153.1131  143.9886  163.3286 H   0  0  0  0  0  0  0  0  0  0  0  0
  151.5069  144.2160  162.6343 H   0  0  0  0  0  0  0  0  0  0  0  0
  152.9019  145.0295  161.9201 H   0  0  0  0  0  0  0  0  0  0  0  0
  153.8637  141.3783  162.5611 H   0  0  0  0  0  0  0  0  0  0  0  0
  151.8837  138.6652  160.1669 H   0  0  0  0  0  0  0  0  0  0  0  0
  153.0999  137.7659  159.2711 H   0  0  0  0  0  0  0  0  0  0  0  0
  152.3685  139.2036  158.5641 H   0  0  0  0  0  0  0  0  0  0  0  0
  155.6944  139.8585  159.6284 H   0  0  0  0  0  0  0  0  0  0  0  0
  153.6357  138.9752  162.1628 H   0  0  0  0  0  0  0  0  0  0  0  0
  154.6316  137.9082  161.1977 H   0  0  0  0  0  0  0  0  0  0  0  0
  156.1906  140.0638  161.2413 H   0  0  0  0  0  0  0  0  0  0  0  0
  156.1847  137.9812  165.9571 H   0  0  0  0  0  0  0  0  0  0  0  0
  155.5657  144.1926  164.3819 H   0  0  0  0  0  0  0  0  0  0  0  0
  158.5265  146.1261  167.5875 H   0  0  0  0  0  0  0  0  0  0  0  0
  157.2611  146.6321  166.4764 H   0  0  0  0  0  0  0  0  0  0  0  0
  156.1292  147.4378  168.3432 H   0  0  0  0  0  0  0  0  0  0  0  0
  154.7347  146.8930  166.8446 H   0  0  0  0  0  0  0  0  0  0  0  0
  154.6715  143.5310  169.3346 H   0  0  0  0  0  0  0  0  0  0  0  0
  151.5046  140.9475  158.0144 H   0  0  0  0  0  0  0  0  0  0  0  0
  152.9881  141.7480  157.4885 H   0  0  0  0  0  0  0  0  0  0  0  0
  151.5652  142.7049  157.8956 H   0  0  0  0  0  0  0  0  0  0  0  0
  1  2  1  0  0  0  0
  1 35  1  0  0  0  0
  1 36  1  0  0  0  0
  1 37  1  0  0  0  0
  2 30  1  0  0  0  0
  2  3  2  0  0  0  0
  3  4  1  0  0  0  0
  3 38  1  0  0  0  0
  4  5  1  0  0  0  0
  4 28  2  0  0  0  0
  5  6  1  0  0  0  0
  5  7  1  0  0  0  0
  5  8  1  0  0  0  0
  6 39  1  0  0  0  0
  6 40  1  0  0  0  0
  6 41  1  0  0  0  0
  7 42  1  0  0  0  0
  8  9  1  0  0  0  0
  8 43  1  0  0  0  0
  8 44  1  0  0  0  0
  9 10  1  0  0  0  0
  9 45  1  0  0  0  0
 10 15  1  0  0  0  0
 10 11  2  0  0  0  0
 11 12  1  0  0  0  0
 12 13  2  0  0  0  0
 12 46  1  0  0  0  0
 13 14  1  0  0  0  0
 14 18  1  0  0  0  0
 14 15  2  0  0  0  0
 15 16  1  0  0  0  0
 16 17  2  0  0  0  0
 17 18  1  0  0  0  0
 17 47  1  0  0  0  0
 18 19  1  0  0  0  0
 19 31  1  0  0  0  0
 19 26  1  0  0  0  0
 19 20  1  0  0  0  0
 20 21  1  0  0  0  0
 21 32  1  0  0  0  0
 21 22  1  0  0  0  0
 21 24  1  0  0  0  0
 22 23  1  0  0  0  0
 22 48  1  0  0  0  0
 22 49  1  0  0  0  0
 23 50  1  0  0  0  0
 24 33  1  0  0  0  0
 24 25  1  0  0  0  0
 24 26  1  0  0  0  0
 25 51  1  0  0  0  0
 26 34  1  0  0  0  0
 26 27  1  0  0  0  0
 27 52  1  0  0  0  0
 28 29  1  0  0  0  0
 28 30  1  0  0  0  0
 29 53  1  0  0  0  0
 29 54  1  0  0  0  0
 29 55  1  0  0  0  0
M  END
> <s_m_source_file>
AV-unprocessed.smi

> <i_m_source_file_index>
287

> <i_lp_mmshare_version>
43012

> <i_f3d_flags>
0

> <s_epik_input>
W0NIM11jMVtjSF1jKGMobzEpW0NIM10pW0NAQF0oW0NIM10pKFtPSF0pW0NIMl1bTkhdYyhuW2NIXW4yKWMoYzIzKW5bY0hdbjNbQ0BASF00T1tDQEhdKFtDSDJdW09IXSlbQ0BASF0oW09IXSlbQ0BIXTRbT0hd

> <s_epik_cmdline>
J2VwaWtfcHl0aG9uJywgJy1waCcsICc3LjAnLCAnLXRuJywgJzgnLCAnLW1hJywgJzIwMCcsICctbWV0YWxfYmluZGluZycsICctaW1hZScsICc8aW5maWxlLm1hZT4nLCAnLW9tYWUnLCAnPG91dGZpbGUubWFlPic=

> <r_lp_tautomer_probability>
1

> <r_epik_Ionization_Penalty>
0.000992612

> <r_epik_Ionization_Penalty_Charging>
0

> <r_epik_Ionization_Penalty_Neutral>
0.000992612

> <r_epik_State_Penalty>
-0

> <r_epik_Charging_Adjusted_Penalty>
0

> <i_epik_Tot_Q>
0

> <i_epik_Tot_abs_Q>
0

> <r_epik_Metal_State_Penalty>
-0

> <b_epik_Metal_Only>
0

> <s_epik_Chemistry_Notes>
This compound contains an acetal/aminal-like group ( X-CH(R)-Y where X, Y are N, S, or O) that may be acid/base labile, releasing an aldehyde.

> <s_lp_Force_Field>
OPLS_2005

> <r_lp_Energy>
38.8116

> <b_lp_Chiralities_Consistent>
1

> <s_lp_Variant>
AV-unprocessed.smi:287-23

> <Gold.Version>
5.8.1

> <Gold.Id.Protein>
6NUR|6NUR_protein|mol2

> <Gold.PLP.Fitness>
56.7330

> <Gold.PLP.PLP>
-55.7198

> <Gold.PLP.part.hbond>
-4.8756

> <Gold.PLP.part.metal>
0.0000

> <Gold.PLP.part.buried>
-8.4811

> <Gold.PLP.part.nonpolar>
-40.7603

> <Gold.PLP.part.repulsive>
0.1782

> <Gold.PLP.ligand.clash>
0.0000

> <Gold.PLP.ligand.torsion>
0.9991

> <Gold.PLP.Chemscore.Hbond>
0.9760

> <Gold.PLP.Chemscore.CHOScore>
0.0000

> <Gold.PLP.Chemscore.Metal>
0.0000

> <Gold.Chemscore.Hbonds>
donor molecule, donor type, donor heavy atom, donor atom, acceptor molecule, acceptor atom, score
      P1  H  7997  8008       L1     7  1.00

> <Gold.PLP.Chemscore.Internal.Correction>
0.0834

> <Gold.Rescore>
     Score         DG    S(hbond)    S(metal)    S(lipo)     H(rot)  DE(clash)    DE(int)     intcor
      1.37      -7.64       0.92        0.00     107.36       5.27       4.64       1.64       ----

> <Gold.Chemscore.Fitness>
1.3689

> <Gold.Chemscore.DG>
-7.6434

> <Gold.Chemscore.ZeroCoef>
-5.4800

> <Gold.Chemscore.Hbond>
0.9238

> <Gold.Chemscore.Metal>
0.0000

> <Gold.Chemscore.Lipo>
107.3646

> <Gold.Chemscore.Internal_Hbond>
0.0000

> <Gold.Chemscore.DEClash>
4.6359

> <Gold.Chemscore.DEInternal>
1.6385

> <Gold.Chemscore.Rot>
5.2672

> <Gold.Chemscore.Internal.Correction>
   9.000000E+99

> <Gold.Chemscore.Hbonds>
donor molecule, donor type, donor heavy atom, donor atom, acceptor molecule, acceptor atom, score
      P1  H  7997  8008       L1     7  0.45

> <Gold.Chemscore.Hbond.Weighted>
-3.0856

> <Gold.Chemscore.Metal.Weighted>
-0.0000

> <Gold.Chemscore.Lipo.Weighted>
-12.5617

> <Gold.Chemscore.Internal_Hbond.Weighted>
0.0000

> <Gold.Chemscore.DEClash.Weighted>
4.6359

> <Gold.Chemscore.DEInternal.Weighted>
1.6385

> <Gold.Chemscore.Rot.Weighted>
13.4839

> <Gold.Chemscore.Internal.Correction.Weighted>
   9.000000E+99

> <Gold.Protein.RotatedTorsions>
[ 6907 6896 6895 6894 ] final -115.40 input  -60.11 | X-H torsion
[ 7974 7965 7964 7962 ] final   76.00 input  175.53 | X-H torsion
[ 8008 7997 7996 7995 ] final -128.84 input   59.86 | X-H torsion
[ 10167 10162 10161 10158 ] final  -67.48 input  -65.29 | X-H torsion
[ 10718 10713 10712 10709 ] final -131.17 input   66.30 | X-H torsion
[ 10763 10752 10751 10750 ] final -105.02 input  -60.55 | X-H torsion
[ 11005 11000 10999 10996 ] final  -43.91 input  -57.11 | X-H torsion

> <Gold.Protein.ActiveResidues>
 VAL166  LYS551  ARG553  GLY616  TRP617  ASP618  TYR619  PRO620  LYS621  CYS622 
 ASP623  PHE694  ASN695  SER759  ASP760  ASP761  ALA762  ILE779  LEU786  VAL792 
 PHE793  MET794  SER795  GLU796  ALA797  LYS798  CYS799  TRP800  GLU811  SER814 

> <Gold.Protein.RotatedAtoms>
  150.7975  133.8664  159.3245 H   0  0  0  0  0  0  0  0  0  0  0  0  # atno 6907 bound_to 6896
  151.6485  135.1002  160.0165 H   0  0  0  0  0  0  0  0  0  0  0  0  # atno 6908 bound_to 6896
  152.4058  133.6848  159.6390 H   0  0  0  0  0  0  0  0  0  0  0  0  # atno 6909 bound_to 6896
  145.7085  139.2606  143.1664 H   0  0  0  0  0  0  0  0  0  0  0  0  # atno 7974 bound_to 7965
  155.2693  140.0439  157.3005 H   0  0  0  0  0  0  0  0  0  0  0  0  # atno 8008 bound_to 7997
  154.5663  140.2361  155.8227 H   0  0  0  0  0  0  0  0  0  0  0  0  # atno 8009 bound_to 7997
  156.2088  140.3005  155.9693 H   0  0  0  0  0  0  0  0  0  0  0  0  # atno 8010 bound_to 7997
  140.5580  143.2312  151.6784 H   0  0  0  0  0  0  0  0  0  0  0  0  # atno 10167 bound_to 10162
  156.2217  130.6982  151.0763 H   0  0  0  0  0  0  0  0  0  0  0  0  # atno 10718 bound_to 10713
  154.7918  135.4764  154.0070 H   0  0  0  0  0  0  0  0  0  0  0  0  # atno 10763 bound_to 10752
  153.1643  135.6814  153.8705 H   0  0  0  0  0  0  0  0  0  0  0  0  # atno 10764 bound_to 10752
  153.8309  135.3192  155.3396 H   0  0  0  0  0  0  0  0  0  0  0  0  # atno 10765 bound_to 10752
  141.0415  133.6778  156.2799 H   0  0  0  0  0  0  0  0  0  0  0  0  # atno 11005 bound_to 11000
  146.0734  140.7844  142.9677 LP  0  0  0  0  0  0  0  0  0  0  0  0  # atno 17320 bound_to 7965
  144.6948  140.3377  143.7205 LP  0  0  0  0  0  0  0  0  0  0  0  0  # atno 17321 bound_to 7965
  139.5057  144.3709  152.0471 LP  0  0  0  0  0  0  0  0  0  0  0  0  # atno 17342 bound_to 10162
  140.2833  144.3835  150.6112 LP  0  0  0  0  0  0  0  0  0  0  0  0  # atno 17343 bound_to 10162
  157.7091  131.0743  150.6565 LP  0  0  0  0  0  0  0  0  0  0  0  0  # atno 17370 bound_to 10713
  156.6629  130.4517  149.5682 LP  0  0  0  0  0  0  0  0  0  0  0  0  # atno 17371 bound_to 10713
  140.6225  134.5347  157.5549 LP  0  0  0  0  0  0  0  0  0  0  0  0  # atno 17394 bound_to 11000
  139.9279  134.8019  156.1014 LP  0  0  0  0  0  0  0  0  0  0  0  0  # atno 17395 bound_to 11000

$$$$
