AV-unprocessed.smi:2821|AV-procd|sdf|10856|dock3
  -GOLD-   2272015303D 1   1.00000     0.00000
 Structure written by MMmdl.
 36 37  0  0  0  0  0  0  0  0  1 V2000
  152.7663  138.5817  154.7311 C   0  0  0  0  0  0  0  0  0  0  0  0
  151.6377  137.6391  155.1550 C   0  0  0  0  0  0  0  0  0  0  0  0
  150.4840  137.9242  154.3702 O   0  0  0  0  0  0  0  0  0  0  0  0
  149.8710  139.1498  154.5304 C   0  0  0  0  0  0  0  0  0  0  0  0
  148.6688  139.4217  153.8432 C   0  0  0  0  0  0  0  0  0  0  0  0
  148.0290  140.6058  153.9626 N   0  0  0  0  0  0  0  0  0  0  0  0
  148.5973  141.5216  154.7777 C   0  0  0  0  0  0  0  0  0  0  0  0
  149.7978  141.2627  155.4753 C   0  0  0  0  0  0  0  0  0  0  0  0
  150.3374  142.2544  156.3077 N   0  0  0  0  0  0  0  0  0  0  0  0
  151.2314  141.9249  157.4147 C   0  0  2  0  0  0  0  0  0  0  0  0
  150.7780  140.6254  158.1033 C   0  0  0  0  0  0  0  0  0  0  0  0
  151.2901  143.0942  158.4159 C   0  0  2  0  0  0  0  0  0  0  0  0
  151.7510  144.4230  157.8124 C   0  0  0  0  0  0  0  0  0  0  0  0
  152.3430  145.1732  158.9959 C   0  0  0  0  0  0  0  0  0  0  0  0
  152.5072  144.0987  160.0735 C   0  0  0  0  0  0  0  0  0  0  0  0
  152.2859  142.8675  159.4015 O   0  0  0  0  0  0  0  0  0  0  0  0
  150.4356  140.0744  155.3474 N   0  0  0  0  0  0  0  0  0  0  0  0
  153.6678  138.3974  155.3159 H   0  0  0  0  0  0  0  0  0  0  0  0
  152.4810  139.6240  154.8755 H   0  0  0  0  0  0  0  0  0  0  0  0
  153.0162  138.4442  153.6789 H   0  0  0  0  0  0  0  0  0  0  0  0
  151.9517  136.6039  155.0103 H   0  0  0  0  0  0  0  0  0  0  0  0
  151.4213  137.7817  156.2152 H   0  0  0  0  0  0  0  0  0  0  0  0
  148.2189  138.6852  153.1939 H   0  0  0  0  0  0  0  0  0  0  0  0
  148.0858  142.4684  154.8744 H   0  0  0  0  0  0  0  0  0  0  0  0
  149.9542  143.1878  156.2674 H   0  0  0  0  0  0  0  0  0  0  0  0
  152.2385  141.7755  157.0234 H   0  0  0  0  0  0  0  0  0  0  0  0
  151.4536  140.3527  158.9143 H   0  0  0  0  0  0  0  0  0  0  0  0
  150.7588  139.7875  157.4059 H   0  0  0  0  0  0  0  0  0  0  0  0
  149.7780  140.7287  158.5257 H   0  0  0  0  0  0  0  0  0  0  0  0
  150.3263  143.2231  158.9130 H   0  0  0  0  0  0  0  0  0  0  0  0
  152.5290  144.2486  157.0677 H   0  0  0  0  0  0  0  0  0  0  0  0
  150.9409  144.9684  157.3279 H   0  0  0  0  0  0  0  0  0  0  0  0
  153.2990  145.6246  158.7287 H   0  0  0  0  0  0  0  0  0  0  0  0
  151.6807  145.9675  159.3413 H   0  0  0  0  0  0  0  0  0  0  0  0
  153.4915  144.1201  160.5420 H   0  0  0  0  0  0  0  0  0  0  0  0
  151.7552  144.2203  160.8545 H   0  0  0  0  0  0  0  0  0  0  0  0
  1  2  1  0  0  0  0
  1 18  1  0  0  0  0
  1 19  1  0  0  0  0
  1 20  1  0  0  0  0
  2  3  1  0  0  0  0
  2 21  1  0  0  0  0
  2 22  1  0  0  0  0
  3  4  1  0  0  0  0
  4 17  1  0  0  0  0
  4  5  2  0  0  0  0
  5  6  1  0  0  0  0
  5 23  1  0  0  0  0
  6  7  2  0  0  0  0
  7  8  1  0  0  0  0
  7 24  1  0  0  0  0
  8  9  1  0  0  0  0
  8 17  2  0  0  0  0
  9 10  1  0  0  0  0
  9 25  1  0  0  0  0
 10 11  1  0  0  0  0
 10 12  1  0  0  0  0
 10 26  1  0  0  0  0
 11 27  1  0  0  0  0
 11 28  1  0  0  0  0
 11 29  1  0  0  0  0
 12 16  1  0  0  0  0
 12 13  1  0  0  0  0
 12 30  1  0  0  0  0
 13 14  1  0  0  0  0
 13 31  1  0  0  0  0
 13 32  1  0  0  0  0
 14 15  1  0  0  0  0
 14 33  1  0  0  0  0
 14 34  1  0  0  0  0
 15 16  1  0  0  0  0
 15 35  1  0  0  0  0
 15 36  1  0  0  0  0
M  END
> <s_m_source_file>
AV-unprocessed.smi

> <i_m_source_file_index>
2821

> <i_lp_mmshare_version>
43012

> <i_f3d_flags>
0

> <s_epik_input>
W0NIM11bQ0gyXU9jMVtjSF1uW2NIXWMobjEpW05IXVtDQEhdKFtDSDNdKVtDQEBIXTJbQ0gyXVtDSDJdW0NIMl1PMg==

> <s_epik_cmdline>
J2VwaWtfcHl0aG9uJywgJy1waCcsICc3LjAnLCAnLXRuJywgJzgnLCAnLW1hJywgJzIwMCcsICctbWV0YWxfYmluZGluZycsICctaW1hZScsICc8aW5maWxlLm1hZT4nLCAnLW9tYWUnLCAnPG91dGZpbGUubWFlPic=

> <r_lp_tautomer_probability>
1

> <r_epik_Ionization_Penalty>
4.69533e-05

> <r_epik_Ionization_Penalty_Charging>
0

> <r_epik_Ionization_Penalty_Neutral>
4.69533e-05

> <r_epik_State_Penalty>
-0

> <r_epik_Charging_Adjusted_Penalty>
0

> <i_epik_Tot_Q>
0

> <i_epik_Tot_abs_Q>
0

> <r_epik_Metal_State_Penalty>
-0

> <b_epik_Metal_Only>
0

> <s_lp_Force_Field>
OPLS_2005

> <r_lp_Energy>
27.5992

> <b_lp_Chiralities_Consistent>
1

> <s_lp_Variant>
AV-unprocessed.smi:2821-1

> <Gold.Version>
5.8.1

> <Gold.Id.Protein>
6NUR|6NUR_protein|mol2

> <Gold.PLP.Fitness>
44.9891

> <Gold.PLP.PLP>
-37.5554

> <Gold.PLP.part.hbond>
-1.6546

> <Gold.PLP.part.metal>
0.0000

> <Gold.PLP.part.buried>
-3.9913

> <Gold.PLP.part.nonpolar>
-33.6777

> <Gold.PLP.part.repulsive>
1.1951

> <Gold.PLP.ligand.clash>
0.0000

> <Gold.PLP.ligand.torsion>
0.4648

> <Gold.PLP.Chemscore.Hbond>
1.0894

> <Gold.PLP.Chemscore.CHOScore>
1.6595

> <Gold.PLP.Chemscore.Metal>
0.0000

> <Gold.Chemscore.Hbonds>
donor molecule, donor type, donor heavy atom, donor atom, acceptor molecule, acceptor atom, score
      L1  H     9    25       P1  8028  1.00
      P1  H  7989  7998       L1    17  0.05
      L1  C     5    23       P1  7948  0.16
      L1  C     5    23       P1  7957  0.03
      L1  C     7    24       P1  8028  1.00

> <Gold.PLP.Chemscore.Internal.Correction>
0.1165

> <Gold.Rescore>
     Score         DG    S(hbond)    S(metal)    S(lipo)     H(rot)  DE(clash)    DE(int)     intcor
     13.98     -15.72       0.97        0.00      93.69       1.55       0.18       1.56       ----

> <Gold.Chemscore.Fitness>
13.9805

> <Gold.Chemscore.DG>
-15.7214

> <Gold.Chemscore.ZeroCoef>
-5.4800

> <Gold.Chemscore.Hbond>
0.9736

> <Gold.Chemscore.Metal>
0.0000

> <Gold.Chemscore.Lipo>
93.6861

> <Gold.Chemscore.Internal_Hbond>
0.0000

> <Gold.Chemscore.DEClash>
0.1805

> <Gold.Chemscore.DEInternal>
1.5605

> <Gold.Chemscore.Rot>
1.5514

> <Gold.Chemscore.Internal.Correction>
   9.000000E+99

> <Gold.Chemscore.Hbonds>
donor molecule, donor type, donor heavy atom, donor atom, acceptor molecule, acceptor atom, score
      L1  H     9    25       P1  8028  0.98

> <Gold.Chemscore.Hbond.Weighted>
-3.2517

> <Gold.Chemscore.Metal.Weighted>
-0.0000

> <Gold.Chemscore.Lipo.Weighted>
-10.9613

> <Gold.Chemscore.Internal_Hbond.Weighted>
0.0000

> <Gold.Chemscore.DEClash.Weighted>
0.1805

> <Gold.Chemscore.DEInternal.Weighted>
1.5605

> <Gold.Chemscore.Rot.Weighted>
3.9715

> <Gold.Chemscore.Internal.Correction.Weighted>
   9.000000E+99

> <Gold.Protein.RotatedTorsions>
[ 6907 6896 6895 6894 ] final   76.19 input  -60.11 | X-H torsion
[ 7974 7965 7964 7962 ] final   90.61 input  175.53 | X-H torsion
[ 8008 7997 7996 7995 ] final  103.39 input   59.86 | X-H torsion
[ 10167 10162 10161 10158 ] final -174.52 input  -65.29 | X-H torsion
[ 10718 10713 10712 10709 ] final -151.66 input   66.30 | X-H torsion
[ 10763 10752 10751 10750 ] final -111.82 input  -60.55 | X-H torsion
[ 11005 11000 10999 10996 ] final   64.45 input  -57.11 | X-H torsion

> <Gold.Protein.ActiveResidues>
 VAL166  LYS551  ARG553  GLY616  TRP617  ASP618  TYR619  PRO620  LYS621  CYS622 
 ASP623  PHE694  ASN695  SER759  ASP760  ASP761  ALA762  ILE779  LEU786  VAL792 
 PHE793  MET794  SER795  GLU796  ALA797  LYS798  CYS799  TRP800  GLU811  SER814 

> <Gold.Protein.RotatedAtoms>
  152.5061  134.4007  159.9415 H   0  0  0  0  0  0  0  0  0  0  0  0  # atno 6907 bound_to 6896
  151.3970  133.3763  159.2735 H   0  0  0  0  0  0  0  0  0  0  0  0  # atno 6908 bound_to 6896
  150.9390  134.8821  159.7659 H   0  0  0  0  0  0  0  0  0  0  0  0  # atno 6909 bound_to 6896
  145.5167  139.2278  143.2694 H   0  0  0  0  0  0  0  0  0  0  0  0  # atno 7974 bound_to 7965
  156.1479  140.3165  155.8601 H   0  0  0  0  0  0  0  0  0  0  0  0  # atno 8008 bound_to 7997
  155.4028  140.0501  157.3053 H   0  0  0  0  0  0  0  0  0  0  0  0  # atno 8009 bound_to 7997
  154.5033  140.2137  155.9315 H   0  0  0  0  0  0  0  0  0  0  0  0  # atno 8010 bound_to 7997
  139.5629  144.1825  152.1267 H   0  0  0  0  0  0  0  0  0  0  0  0  # atno 10167 bound_to 10162
  156.4621  130.8218  151.2449 H   0  0  0  0  0  0  0  0  0  0  0  0  # atno 10718 bound_to 10713
  154.8319  135.4513  154.1098 H   0  0  0  0  0  0  0  0  0  0  0  0  # atno 10763 bound_to 10752
  153.2364  135.6911  153.7838 H   0  0  0  0  0  0  0  0  0  0  0  0  # atno 10764 bound_to 10752
  153.7202  135.3343  155.3241 H   0  0  0  0  0  0  0  0  0  0  0  0  # atno 10765 bound_to 10752
  139.9958  134.6519  156.0013 H   0  0  0  0  0  0  0  0  0  0  0  0  # atno 11005 bound_to 11000
  146.2132  140.5977  142.9050 LP  0  0  0  0  0  0  0  0  0  0  0  0  # atno 17320 bound_to 7965
  144.7698  140.5612  143.6678 LP  0  0  0  0  0  0  0  0  0  0  0  0  # atno 17321 bound_to 7965
  140.1343  144.5260  150.6783 LP  0  0  0  0  0  0  0  0  0  0  0  0  # atno 17342 bound_to 10162
  140.6911  143.2376  151.5129 LP  0  0  0  0  0  0  0  0  0  0  0  0  # atno 17343 bound_to 10162
  157.7497  131.0103  150.3303 LP  0  0  0  0  0  0  0  0  0  0  0  0  # atno 17370 bound_to 10713
  156.3705  130.3862  149.7179 LP  0  0  0  0  0  0  0  0  0  0  0  0  # atno 17371 bound_to 10713
  141.1603  133.6539  156.4297 LP  0  0  0  0  0  0  0  0  0  0  0  0  # atno 17394 bound_to 11000
  140.4821  134.6655  157.5175 LP  0  0  0  0  0  0  0  0  0  0  0  0  # atno 17395 bound_to 11000

$$$$
