AV-unprocessed.smi:284|AV-procd|sdf|2159|dock4
  -GOLD-   2262021513D 1   1.00000     0.00000
 Structure written by MMmdl.
 60 62  0  0  0  0  0  0  0  0  1 V2000
  147.0310  132.4057  159.6583 C   0  0  0  0  0  0  0  0  0  0  0  0
  147.7203  133.0111  158.4452 C   0  0  0  0  0  0  0  0  0  0  0  0
  148.3780  132.2527  157.5384 C   0  0  0  0  0  0  0  0  0  0  0  0
  149.0236  132.7689  156.4312 N   0  0  0  0  0  0  0  0  0  0  0  0
  149.7086  131.8265  155.4646 C   0  0  2  0  0  0  0  0  0  0  0  0
  148.9932  131.7081  154.1111 C   0  0  0  0  0  0  0  0  0  0  0  0
  149.3296  130.2818  153.7254 C   0  0  2  0  0  0  0  0  0  0  0  0
  148.3550  129.7511  152.8508 O   0  0  0  0  0  0  0  0  0  0  0  0
  149.3344  129.5805  155.0905 C   0  0  1  0  0  0  0  0  0  0  0  0
  150.1714  128.2945  155.2096 C   0  0  0  0  0  0  0  0  0  0  0  0
  149.8481  127.3591  154.2010 O   0  0  0  0  0  0  0  0  0  0  0  0
  149.7670  130.5537  156.0380 O   0  0  0  0  0  0  0  0  0  0  0  0
  148.9720  134.1582  156.1802 C   0  0  0  0  0  0  0  0  0  0  0  0
  149.5028  134.6456  155.1804 O   0  0  0  0  0  0  0  0  0  0  0  0
  148.2929  134.9789  157.1092 N   0  0  0  0  0  0  0  0  0  0  0  0
  148.2711  136.4421  156.8841 C   0  0  0  0  0  0  0  0  0  0  0  0
  149.4006  137.1907  157.6102 C   0  0  0  0  0  0  0  0  0  0  0  0
  150.2764  136.5684  158.2132 O   0  0  0  0  0  0  0  0  0  0  0  0
  149.3614  138.5312  157.5000 N   0  0  0  0  0  0  0  0  0  0  0  0
  150.2431  139.4900  158.0680 C   0  0  0  0  0  0  0  0  0  0  0  0
  149.9269  140.8509  157.8909 C   0  0  0  0  0  0  0  0  0  0  0  0
  150.7468  141.8565  158.4379 C   0  0  0  0  0  0  0  0  0  0  0  0
  151.9019  141.5235  159.1879 C   0  0  0  0  0  0  0  0  0  0  0  0
  152.8280  142.5933  159.7979 C   0  0  0  0  0  0  0  0  0  0  0  0
  154.0766  141.9155  160.3994 C   0  0  0  0  0  0  0  0  0  0  0  0
  152.1496  143.4089  160.9217 C   0  0  0  0  0  0  0  0  0  0  0  0
  153.2666  143.5854  158.7002 C   0  0  0  0  0  0  0  0  0  0  0  0
  152.1991  140.1535  159.3790 C   0  0  0  0  0  0  0  0  0  0  0  0
  151.3809  139.1465  158.8331 C   0  0  0  0  0  0  0  0  0  0  0  0
  147.6586  134.4632  158.2662 C   0  0  0  0  0  0  0  0  0  0  0  0
  147.0967  135.2172  159.0630 O   0  0  0  0  0  0  0  0  0  0  0  0
  147.1549  131.3232  159.6974 H   0  0  0  0  0  0  0  0  0  0  0  0
  145.9617  132.6190  159.6352 H   0  0  0  0  0  0  0  0  0  0  0  0
  147.4435  132.8206  160.5788 H   0  0  0  0  0  0  0  0  0  0  0  0
  148.4043  131.1839  157.6966 H   0  0  0  0  0  0  0  0  0  0  0  0
  150.7305  132.1888  155.3488 H   0  0  0  0  0  0  0  0  0  0  0  0
  147.9174  131.8421  154.2195 H   0  0  0  0  0  0  0  0  0  0  0  0
  149.3649  132.4516  153.4056 H   0  0  0  0  0  0  0  0  0  0  0  0
  150.3122  130.2555  153.2536 H   0  0  0  0  0  0  0  0  0  0  0  0
  148.5206  130.0818  151.9809 H   0  0  0  0  0  0  0  0  0  0  0  0
  148.3054  129.3439  155.3660 H   0  0  0  0  0  0  0  0  0  0  0  0
  151.2363  128.5243  155.1668 H   0  0  0  0  0  0  0  0  0  0  0  0
  149.9845  127.8233  156.1748 H   0  0  0  0  0  0  0  0  0  0  0  0
  150.5770  127.2985  153.6026 H   0  0  0  0  0  0  0  0  0  0  0  0
  148.3296  136.6819  155.8213 H   0  0  0  0  0  0  0  0  0  0  0  0
  147.3144  136.8655  157.1946 H   0  0  0  0  0  0  0  0  0  0  0  0
  148.6505  138.9041  156.8877 H   0  0  0  0  0  0  0  0  0  0  0  0
  149.0514  141.1329  157.3239 H   0  0  0  0  0  0  0  0  0  0  0  0
  150.4614  142.8820  158.2632 H   0  0  0  0  0  0  0  0  0  0  0  0
  154.7437  142.6475  160.8563 H   0  0  0  0  0  0  0  0  0  0  0  0
  154.6574  141.3814  159.6473 H   0  0  0  0  0  0  0  0  0  0  0  0
  153.8012  141.1969  161.1723 H   0  0  0  0  0  0  0  0  0  0  0  0
  151.8424  142.7730  161.7528 H   0  0  0  0  0  0  0  0  0  0  0  0
  151.2701  143.9422  160.5590 H   0  0  0  0  0  0  0  0  0  0  0  0
  152.8286  144.1582  161.3304 H   0  0  0  0  0  0  0  0  0  0  0  0
  153.9073  144.3690  159.1063 H   0  0  0  0  0  0  0  0  0  0  0  0
  152.4048  144.0724  158.2420 H   0  0  0  0  0  0  0  0  0  0  0  0
  153.8282  143.0960  157.9045 H   0  0  0  0  0  0  0  0  0  0  0  0
  153.0634  139.8580  159.9545 H   0  0  0  0  0  0  0  0  0  0  0  0
  151.6396  138.1167  159.0260 H   0  0  0  0  0  0  0  0  0  0  0  0
  1  2  1  0  0  0  0
  1 32  1  0  0  0  0
  1 33  1  0  0  0  0
  1 34  1  0  0  0  0
  2 30  1  0  0  0  0
  2  3  2  0  0  0  0
  3  4  1  0  0  0  0
  3 35  1  0  0  0  0
  4  5  1  0  0  0  0
  4 13  1  0  0  0  0
  5 12  1  0  0  0  0
  5  6  1  0  0  0  0
  5 36  1  0  0  0  0
  6  7  1  0  0  0  0
  6 37  1  0  0  0  0
  6 38  1  0  0  0  0
  7  8  1  0  0  0  0
  7  9  1  0  0  0  0
  7 39  1  0  0  0  0
  8 40  1  0  0  0  0
  9 10  1  0  0  0  0
  9 12  1  0  0  0  0
  9 41  1  0  0  0  0
 10 11  1  0  0  0  0
 10 42  1  0  0  0  0
 10 43  1  0  0  0  0
 11 44  1  0  0  0  0
 13 14  2  0  0  0  0
 13 15  1  0  0  0  0
 15 16  1  0  0  0  0
 15 30  1  0  0  0  0
 16 17  1  0  0  0  0
 16 45  1  0  0  0  0
 16 46  1  0  0  0  0
 17 18  2  0  0  0  0
 17 19  1  0  0  0  0
 19 20  1  0  0  0  0
 19 47  1  0  0  0  0
 20 29  1  0  0  0  0
 20 21  2  0  0  0  0
 21 22  1  0  0  0  0
 21 48  1  0  0  0  0
 22 23  2  0  0  0  0
 22 49  1  0  0  0  0
 23 24  1  0  0  0  0
 23 28  1  0  0  0  0
 24 25  1  0  0  0  0
 24 26  1  0  0  0  0
 24 27  1  0  0  0  0
 25 50  1  0  0  0  0
 25 51  1  0  0  0  0
 25 52  1  0  0  0  0
 26 53  1  0  0  0  0
 26 54  1  0  0  0  0
 26 55  1  0  0  0  0
 27 56  1  0  0  0  0
 27 57  1  0  0  0  0
 27 58  1  0  0  0  0
 28 29  2  0  0  0  0
 28 59  1  0  0  0  0
 29 60  1  0  0  0  0
 30 31  2  0  0  0  0
M  END
> <s_m_source_file>
AV-unprocessed.smi

> <i_m_source_file_index>
284

> <i_lp_mmshare_version>
43012

> <i_f3d_flags>
0

> <s_epik_input>
W09IXVtDSDJdW0NAQEhdKE8xKVtDQEhdKFtPSF0pW0NIMl1bQ0BIXTFuKFtjSF1jMltDSDNdKWMoPU8pbihjMj1PKVtDSDJdQyg9TylbTkhdYzNbY0hdW2NIXWMoQyhbQ0gzXSkoW0NIM10pW0NIM10pW2NIXVtjSF0z

> <s_epik_cmdline>
J2VwaWtfcHl0aG9uJywgJy1waCcsICc3LjAnLCAnLXRuJywgJzgnLCAnLW1hJywgJzIwMCcsICctbWV0YWxfYmluZGluZycsICctaW1hZScsICc8aW5maWxlLm1hZT4nLCAnLW9tYWUnLCAnPG91dGZpbGUubWFlPic=

> <r_lp_tautomer_probability>
1

> <r_epik_Ionization_Penalty>
4.92358e-06

> <r_epik_Ionization_Penalty_Charging>
1.29777e-07

> <r_epik_Ionization_Penalty_Neutral>
4.79381e-06

> <r_epik_State_Penalty>
-0

> <r_epik_Charging_Adjusted_Penalty>
1.29777e-07

> <i_epik_Tot_Q>
0

> <i_epik_Tot_abs_Q>
0

> <r_epik_Metal_State_Penalty>
-0

> <b_epik_Metal_Only>
0

> <s_epik_Chemistry_Notes>
This compound contains an acetal/aminal-like group ( X-CH(R)-Y where X, Y are N, S, or O) that may be acid/base labile, releasing an aldehyde.

> <s_lp_Force_Field>
OPLS_2005

> <r_lp_Energy>
37.3901

> <b_lp_Chiralities_Consistent>
1

> <s_lp_Variant>
AV-unprocessed.smi:284-3

> <Gold.Version>
5.8.1

> <Gold.Id.Protein>
6NUR|6NUR_protein|mol2

> <Gold.PLP.Fitness>
45.9484

> <Gold.PLP.PLP>
-39.4392

> <Gold.PLP.part.hbond>
-3.0000

> <Gold.PLP.part.metal>
0.0000

> <Gold.PLP.part.buried>
-6.1706

> <Gold.PLP.part.nonpolar>
-29.9013

> <Gold.PLP.part.repulsive>
0.1753

> <Gold.PLP.ligand.clash>
0.0000

> <Gold.PLP.ligand.torsion>
0.7139

> <Gold.PLP.Chemscore.Hbond>
2.6339

> <Gold.PLP.Chemscore.CHOScore>
0.0000

> <Gold.PLP.Chemscore.Metal>
0.0000

> <Gold.Chemscore.Hbonds>
donor molecule, donor type, donor heavy atom, donor atom, acceptor molecule, acceptor atom, score
      L1  H     8    40       P1 10747  1.00
      L1  H    11    44       P1 10737  0.02
      P1  H  6896  6908       L1    18  0.26

> <Gold.PLP.Chemscore.Internal.Correction>
0.0353

> <Gold.Rescore>
     Score         DG    S(hbond)    S(metal)    S(lipo)     H(rot)  DE(clash)    DE(int)     intcor
     17.09     -19.01       2.85        0.00     105.80       3.27       0.10       1.82       ----

> <Gold.Chemscore.Fitness>
17.0930

> <Gold.Chemscore.DG>
-19.0131

> <Gold.Chemscore.ZeroCoef>
-5.4800

> <Gold.Chemscore.Hbond>
2.8546

> <Gold.Chemscore.Metal>
0.0000

> <Gold.Chemscore.Lipo>
105.8025

> <Gold.Chemscore.Internal_Hbond>
0.0000

> <Gold.Chemscore.DEClash>
0.1010

> <Gold.Chemscore.DEInternal>
1.8191

> <Gold.Chemscore.Rot>
3.2735

> <Gold.Chemscore.Internal.Correction>
   9.000000E+99

> <Gold.Chemscore.Hbonds>
donor molecule, donor type, donor heavy atom, donor atom, acceptor molecule, acceptor atom, score
      L1  H     8    40       P1 10747  0.55
      L1  H    11    44       P1 10737  0.09
      P1  H  6896  6908       L1    18  0.27

> <Gold.Chemscore.Hbond.Weighted>
-9.5343

> <Gold.Chemscore.Metal.Weighted>
-0.0000

> <Gold.Chemscore.Lipo.Weighted>
-12.3789

> <Gold.Chemscore.Internal_Hbond.Weighted>
0.0000

> <Gold.Chemscore.DEClash.Weighted>
0.1010

> <Gold.Chemscore.DEInternal.Weighted>
1.8191

> <Gold.Chemscore.Rot.Weighted>
8.3801

> <Gold.Chemscore.Internal.Correction.Weighted>
   9.000000E+99

> <Gold.Protein.RotatedTorsions>
[ 6907 6896 6895 6894 ] final -168.58 input  -60.11 | X-H torsion
[ 7974 7965 7964 7962 ] final  -92.54 input  175.53 | X-H torsion
[ 8008 7997 7996 7995 ] final    9.25 input   59.86 | X-H torsion
[ 10167 10162 10161 10158 ] final -107.10 input  -65.29 | X-H torsion
[ 10718 10713 10712 10709 ] final -146.19 input   66.30 | X-H torsion
[ 10763 10752 10751 10750 ] final  -74.40 input  -60.55 | X-H torsion
[ 11005 11000 10999 10996 ] final   61.18 input  -57.11 | X-H torsion

> <Gold.Protein.ActiveResidues>
 VAL166  LYS551  ARG553  GLY616  TRP617  ASP618  TYR619  PRO620  LYS621  CYS622 
 ASP623  PHE694  ASN695  SER759  ASP760  ASP761  ALA762  ILE779  LEU786  VAL792 
 PHE793  MET794  SER795  GLU796  ALA797  LYS798  CYS799  TRP800  GLU811  SER814 

> <Gold.Protein.RotatedAtoms>
  151.4779  133.3553  159.2833 H   0  0  0  0  0  0  0  0  0  0  0  0  # atno 6907 bound_to 6896
  150.8917  134.8323  159.7309 H   0  0  0  0  0  0  0  0  0  0  0  0  # atno 6908 bound_to 6896
  152.4827  134.4689  159.9681 H   0  0  0  0  0  0  0  0  0  0  0  0  # atno 6909 bound_to 6896
  145.3985  140.9535  143.2300 H   0  0  0  0  0  0  0  0  0  0  0  0  # atno 7974 bound_to 7965
  154.7776  140.2813  155.6089 H   0  0  0  0  0  0  0  0  0  0  0  0  # atno 8008 bound_to 7997
  156.2944  140.2629  156.2521 H   0  0  0  0  0  0  0  0  0  0  0  0  # atno 8009 bound_to 7997
  154.9824  140.0374  157.2273 H   0  0  0  0  0  0  0  0  0  0  0  0  # atno 8010 bound_to 7997
  140.1806  143.3969  152.1284 H   0  0  0  0  0  0  0  0  0  0  0  0  # atno 10167 bound_to 10162
  156.3918  130.7889  151.2092 H   0  0  0  0  0  0  0  0  0  0  0  0  # atno 10718 bound_to 10713
  154.4726  135.5865  153.6332 H   0  0  0  0  0  0  0  0  0  0  0  0  # atno 10763 bound_to 10752
  152.9836  135.6070  154.3348 H   0  0  0  0  0  0  0  0  0  0  0  0  # atno 10764 bound_to 10752
  154.3231  135.2843  155.2489 H   0  0  0  0  0  0  0  0  0  0  0  0  # atno 10765 bound_to 10752
  140.0179  134.6197  155.9683 H   0  0  0  0  0  0  0  0  0  0  0  0  # atno 11005 bound_to 11000
  144.8390  139.5502  143.6909 LP  0  0  0  0  0  0  0  0  0  0  0  0  # atno 17320 bound_to 7965
  146.2763  139.6762  142.9260 LP  0  0  0  0  0  0  0  0  0  0  0  0  # atno 17321 bound_to 7965
  139.5298  144.7145  151.5098 LP  0  0  0  0  0  0  0  0  0  0  0  0  # atno 17342 bound_to 10162
  140.6522  143.8673  150.6797 LP  0  0  0  0  0  0  0  0  0  0  0  0  # atno 17343 bound_to 10162
  157.7499  131.0313  150.4176 LP  0  0  0  0  0  0  0  0  0  0  0  0  # atno 17370 bound_to 10713
  156.4439  130.3997  149.6679 LP  0  0  0  0  0  0  0  0  0  0  0  0  # atno 17371 bound_to 10713
  141.1755  133.6540  156.4811 LP  0  0  0  0  0  0  0  0  0  0  0  0  # atno 17394 bound_to 11000
  140.4439  134.6991  157.5005 LP  0  0  0  0  0  0  0  0  0  0  0  0  # atno 17395 bound_to 11000

$$$$
