AV-unprocessed.smi:3246|AV-procd|sdf|12411|dock1
  -GOLD-   2272018293D 1   1.00000     0.00000
 Structure written by MMmdl.
 36 37  0  0  0  0  0  0  0  0  2 V2000
  153.6396  139.0170  157.8860 O   0  0  0  0  0  0  0  0  0  0  0  0
  152.6108  139.3960  158.4449 C   0  0  0  0  0  0  0  0  0  0  0  0
  151.2618  138.8084  157.9980 C   0  0  0  0  0  0  0  0  0  0  0  0
  151.2881  138.0970  156.7173 N   0  0  0  0  0  0  0  0  0  0  0  0
  151.0920  136.6574  156.6663 C   0  0  0  0  0  0  0  0  0  0  0  0
  150.9649  136.3251  155.1728 C   0  0  0  0  0  0  0  0  0  0  0  0
  151.4522  137.5712  154.4254 C   0  0  0  0  0  0  0  0  0  0  0  0
  151.5020  138.6340  155.5095 C   0  0  0  0  0  0  0  0  0  0  0  0
  151.7053  139.8233  155.2708 O   0  0  0  0  0  0  0  0  0  0  0  0
  152.6190  140.3017  159.4383 N   0  0  0  0  0  0  0  0  0  0  0  0
  153.8101  140.9499  159.9721 C   0  0  0  0  0  0  0  0  0  0  0  0
  153.4657  141.8846  161.1429 C   0  0  0  0  0  0  0  0  0  0  0  0
  152.7105  143.1170  160.6858 C   0  0  0  0  0  0  0  0  0  0  0  0
  152.5987  143.4261  159.3121 C   0  0  0  0  0  0  0  0  0  0  0  0
  151.8920  144.5819  158.9190 C   0  0  0  0  0  0  0  0  0  0  0  0
  151.3133  145.4027  159.9089 C   0  0  0  0  0  0  0  0  0  0  0  0
  151.4424  145.0757  161.2137 N   0  3  0  0  0  0  0  0  0  0  0  0
  152.1111  143.9780  161.6307 C   0  0  0  0  0  0  0  0  0  0  0  0
  150.8988  138.1379  158.7786 H   0  0  0  0  0  0  0  0  0  0  0  0
  150.5376  139.6219  157.9380 H   0  0  0  0  0  0  0  0  0  0  0  0
  151.9579  136.1600  157.1054 H   0  0  0  0  0  0  0  0  0  0  0  0
  150.2044  136.3567  157.2247 H   0  0  0  0  0  0  0  0  0  0  0  0
  151.5411  135.4382  154.9070 H   0  0  0  0  0  0  0  0  0  0  0  0
  149.9224  136.1265  154.9205 H   0  0  0  0  0  0  0  0  0  0  0  0
  152.4517  137.4244  154.0149 H   0  0  0  0  0  0  0  0  0  0  0  0
  150.7787  137.8569  153.6168 H   0  0  0  0  0  0  0  0  0  0  0  0
  151.7330  140.5650  159.8454 H   0  0  0  0  0  0  0  0  0  0  0  0
  154.5363  140.1963  160.2829 H   0  0  0  0  0  0  0  0  0  0  0  0
  154.2774  141.5170  159.1667 H   0  0  0  0  0  0  0  0  0  0  0  0
  152.8676  141.3517  161.8835 H   0  0  0  0  0  0  0  0  0  0  0  0
  154.3752  142.2026  161.6548 H   0  0  0  0  0  0  0  0  0  0  0  0
  153.0493  142.7867  158.5667 H   0  0  0  0  0  0  0  0  0  0  0  0
  151.7953  144.8347  157.8732 H   0  0  0  0  0  0  0  0  0  0  0  0
  150.7562  146.3041  159.6983 H   0  0  0  0  0  0  0  0  0  0  0  0
  152.1470  143.8237  162.6997 H   0  0  0  0  0  0  0  0  0  0  0  0
  151.0167  145.6836  161.9143 H   0  0  0  0  0  0  0  0  0  0  0  0
  1  2  2  0  0  0  0
  2  3  1  0  0  0  0
  2 10  1  0  0  0  0
  3  4  1  0  0  0  0
  3 19  1  0  0  0  0
  3 20  1  0  0  0  0
  4  8  1  0  0  0  0
  4  5  1  0  0  0  0
  5  6  1  0  0  0  0
  5 21  1  0  0  0  0
  5 22  1  0  0  0  0
  6  7  1  0  0  0  0
  6 23  1  0  0  0  0
  6 24  1  0  0  0  0
  7  8  1  0  0  0  0
  7 25  1  0  0  0  0
  7 26  1  0  0  0  0
  8  9  2  0  0  0  0
 10 11  1  0  0  0  0
 10 27  1  0  0  0  0
 11 12  1  0  0  0  0
 11 28  1  0  0  0  0
 11 29  1  0  0  0  0
 12 13  1  0  0  0  0
 12 30  1  0  0  0  0
 12 31  1  0  0  0  0
 13 18  1  0  0  0  0
 13 14  2  0  0  0  0
 14 15  1  0  0  0  0
 14 32  1  0  0  0  0
 15 16  2  0  0  0  0
 15 33  1  0  0  0  0
 16 17  1  0  0  0  0
 16 34  1  0  0  0  0
 17 18  2  0  0  0  0
 17 36  1  0  0  0  0
 18 35  1  0  0  0  0
M  CHG  1  17   1
M  END
> <s_m_source_file>
AV-unprocessed.smi

> <i_m_source_file_index>
3246

> <i_lp_mmshare_version>
43012

> <i_f3d_flags>
0

> <s_epik_input>
Tz1DMVtDSDJdW0NIMl1bQ0gyXU4xW0NIMl1DKD1PKVtOSF1bQ0gyXVtDSDJdYzJbY0hdW2NIXVtjSF1uW2NIXTI=

> <s_epik_cmdline>
J2VwaWtfcHl0aG9uJywgJy1waCcsICc3LjAnLCAnLXRuJywgJzgnLCAnLW1hJywgJzIwMCcsICctbWV0YWxfYmluZGluZycsICctaW1hZScsICc8aW5maWxlLm1hZT4nLCAnLW9tYWUnLCAnPG91dGZpbGUubWFlPic=

> <r_epik_Ionization_Penalty>
2.27275

> <r_epik_Ionization_Penalty_Charging>
2.27275

> <r_epik_Ionization_Penalty_Neutral>
5.87859e-08

> <r_epik_State_Penalty>
2.42145

> <r_epik_Charging_Adjusted_Penalty>
4.69419

> <i_epik_Tot_Q>
1

> <i_epik_Tot_abs_Q>
1

> <r_epik_Metal_State_Penalty>
2.43419

> <b_epik_Metal_Only>
0

> <s_lp_Force_Field>
OPLS_2005

> <r_lp_Energy>
18.8936

> <b_lp_Chiralities_Consistent>
1

> <s_lp_Variant>
AV-unprocessed.smi:3246-2

> <Gold.Version>
5.8.1

> <Gold.Id.Protein>
6NUR|6NUR_protein|mol2

> <Gold.PLP.Fitness>
50.4647

> <Gold.PLP.PLP>
-45.4367

> <Gold.PLP.part.hbond>
-3.0000

> <Gold.PLP.part.metal>
0.0000

> <Gold.PLP.part.buried>
-6.1953

> <Gold.PLP.part.nonpolar>
-36.1491

> <Gold.PLP.part.repulsive>
0.2851

> <Gold.PLP.ligand.clash>
0.0000

> <Gold.PLP.ligand.torsion>
0.3778

> <Gold.PLP.Chemscore.Hbond>
1.9120

> <Gold.PLP.Chemscore.CHOScore>
0.0000

> <Gold.PLP.Chemscore.Metal>
0.0000

> <Gold.Chemscore.Hbonds>
donor molecule, donor type, donor heavy atom, donor atom, acceptor molecule, acceptor atom, score
      P1  H  7989  7998       L1     9  0.94
      P1  H  7997  8008       L1     1  1.00

> <Gold.PLP.Chemscore.Internal.Correction>
0.0476

> <Gold.Rescore>
     Score         DG    S(hbond)    S(metal)    S(lipo)     H(rot)  DE(clash)    DE(int)     intcor
     18.16     -19.07       1.96        0.00     103.02       1.96       0.73       0.18       ----

> <Gold.Chemscore.Fitness>
18.1585

> <Gold.Chemscore.DG>
-19.0664

> <Gold.Chemscore.ZeroCoef>
-5.4800

> <Gold.Chemscore.Hbond>
1.9596

> <Gold.Chemscore.Metal>
0.0000

> <Gold.Chemscore.Lipo>
103.0198

> <Gold.Chemscore.Internal_Hbond>
0.0000

> <Gold.Chemscore.DEClash>
0.7287

> <Gold.Chemscore.DEInternal>
0.1792

> <Gold.Chemscore.Rot>
1.9579

> <Gold.Chemscore.Internal.Correction>
   9.000000E+99

> <Gold.Chemscore.Hbonds>
donor molecule, donor type, donor heavy atom, donor atom, acceptor molecule, acceptor atom, score
      P1  H  7989  7998       L1     9  0.86
      P1  H  7997  8008       L1     1  0.98

> <Gold.Chemscore.Hbond.Weighted>
-6.5452

> <Gold.Chemscore.Metal.Weighted>
-0.0000

> <Gold.Chemscore.Lipo.Weighted>
-12.0533

> <Gold.Chemscore.Internal_Hbond.Weighted>
0.0000

> <Gold.Chemscore.DEClash.Weighted>
0.7287

> <Gold.Chemscore.DEInternal.Weighted>
0.1792

> <Gold.Chemscore.Rot.Weighted>
5.0121

> <Gold.Chemscore.Internal.Correction.Weighted>
   9.000000E+99

> <Gold.Protein.RotatedTorsions>
[ 6907 6896 6895 6894 ] final   43.82 input  -60.11 | X-H torsion
[ 7974 7965 7964 7962 ] final   -2.89 input  175.53 | X-H torsion
[ 8008 7997 7996 7995 ] final  -81.59 input   59.86 | X-H torsion
[ 10167 10162 10161 10158 ] final  -94.30 input  -65.29 | X-H torsion
[ 10718 10713 10712 10709 ] final  179.48 input   66.30 | X-H torsion
[ 10763 10752 10751 10750 ] final  -58.15 input  -60.55 | X-H torsion
[ 11005 11000 10999 10996 ] final  -84.17 input  -57.11 | X-H torsion

> <Gold.Protein.ActiveResidues>
 VAL166  LYS551  ARG553  GLY616  TRP617  ASP618  TYR619  PRO620  LYS621  CYS622 
 ASP623  PHE694  ASN695  SER759  ASP760  ASP761  ALA762  ILE779  LEU786  VAL792 
 PHE793  MET794  SER795  GLU796  ALA797  LYS798  CYS799  TRP800  GLU811  SER814 

> <Gold.Protein.RotatedAtoms>
  152.2249  134.8377  160.0480 H   0  0  0  0  0  0  0  0  0  0  0  0  # atno 6907 bound_to 6896
  151.9147  133.3565  159.3884 H   0  0  0  0  0  0  0  0  0  0  0  0  # atno 6908 bound_to 6896
  150.7010  134.4622  159.5430 H   0  0  0  0  0  0  0  0  0  0  0  0  # atno 6909 bound_to 6896
  146.2398  140.1639  142.8332 H   0  0  0  0  0  0  0  0  0  0  0  0  # atno 7974 bound_to 7965
  154.5999  140.0645  156.9354 H   0  0  0  0  0  0  0  0  0  0  0  0  # atno 8008 bound_to 7997
  155.2150  140.3325  155.4305 H   0  0  0  0  0  0  0  0  0  0  0  0  # atno 8009 bound_to 7997
  156.2311  140.1841  156.7223 H   0  0  0  0  0  0  0  0  0  0  0  0  # atno 8010 bound_to 7997
  140.3158  143.3078  152.0100 H   0  0  0  0  0  0  0  0  0  0  0  0  # atno 10167 bound_to 10162
  156.8752  130.9797  151.3068 H   0  0  0  0  0  0  0  0  0  0  0  0  # atno 10718 bound_to 10713
  154.2336  135.6356  153.5183 H   0  0  0  0  0  0  0  0  0  0  0  0  # atno 10763 bound_to 10752
  152.9944  135.5525  154.5986 H   0  0  0  0  0  0  0  0  0  0  0  0  # atno 10764 bound_to 10752
  154.5475  135.2899  155.1014 H   0  0  0  0  0  0  0  0  0  0  0  0  # atno 10765 bound_to 10752
  141.1652  133.7332  156.8828 H   0  0  0  0  0  0  0  0  0  0  0  0  # atno 11005 bound_to 11000
  145.0067  140.8678  143.5249 LP  0  0  0  0  0  0  0  0  0  0  0  0  # atno 17320 bound_to 7965
  145.1666  139.2428  143.5363 LP  0  0  0  0  0  0  0  0  0  0  0  0  # atno 17321 bound_to 7965
  139.4884  144.6349  151.6995 LP  0  0  0  0  0  0  0  0  0  0  0  0  # atno 17342 bound_to 10162
  140.5528  144.0398  150.6134 LP  0  0  0  0  0  0  0  0  0  0  0  0  # atno 17343 bound_to 10162
  157.6172  130.8628  149.9049 LP  0  0  0  0  0  0  0  0  0  0  0  0  # atno 17370 bound_to 10713
  156.0706  130.3686  150.0785 LP  0  0  0  0  0  0  0  0  0  0  0  0  # atno 17371 bound_to 10713
  140.1703  134.9104  157.2825 LP  0  0  0  0  0  0  0  0  0  0  0  0  # atno 17394 bound_to 11000
  140.2510  134.3683  155.7442 LP  0  0  0  0  0  0  0  0  0  0  0  0  # atno 17395 bound_to 11000

$$$$
