AV-unprocessed.smi:2278|AV-procd|sdf|9182|dock6
  -GOLD-   2272012403D 1   1.00000     0.00000
 Structure written by MMmdl.
 46 47  0  0  0  0  0  0  0  0  2 V2000
  151.8601  139.9359  156.6025 C   0  0  0  0  0  0  0  0  0  0  0  0
  150.4737  139.8686  155.9871 C   0  0  0  0  0  0  0  0  0  0  0  0
  150.3409  140.4669  154.7305 N   0  0  0  0  0  0  0  0  0  0  0  0
  149.1962  140.4589  154.1297 C   0  0  0  0  0  0  0  0  0  0  0  0
  148.0647  139.8607  154.7078 N   0  0  0  0  0  0  0  0  0  0  0  0
  146.8166  139.9311  153.9298 C   0  0  0  0  0  0  0  0  0  0  0  0
  146.6477  138.7142  152.9918 C   0  0  1  0  0  0  0  0  0  0  0  0
  147.8317  138.5697  152.2321 O   0  0  0  0  0  0  0  0  0  0  0  0
  146.4491  137.4071  153.7861 C   0  0  0  0  0  0  0  0  0  0  0  0
  146.4121  136.2107  152.9065 N   0  3  2  0  0  0  0  0  0  0  0  0
  145.4977  136.3641  151.7438 C   0  0  0  0  0  0  0  0  0  0  0  0
  145.6048  135.1598  150.7916 C   0  0  0  0  0  0  0  0  0  0  0  0
  145.3438  133.8236  151.5105 C   0  0  2  0  0  0  0  0  0  0  0  0
  143.8565  133.6056  151.8397 C   0  0  0  0  0  0  0  0  0  0  0  0
  146.2495  133.7250  152.7516 C   0  0  0  0  0  0  0  0  0  0  0  0
  146.1318  134.9621  153.6602 C   0  0  0  0  0  0  0  0  0  0  0  0
  148.1058  139.2585  155.9317 C   0  0  0  0  0  0  0  0  0  0  0  0
  147.1014  138.7494  156.4338 O   0  0  0  0  0  0  0  0  0  0  0  0
  149.4158  139.2724  156.6017 C   0  0  0  0  0  0  0  0  0  0  0  0
  149.4994  138.6068  157.9696 C   0  0  0  0  0  0  0  0  0  0  0  0
  152.2454  138.9331  156.7887 H   0  0  0  0  0  0  0  0  0  0  0  0
  151.8324  140.4804  157.5469 H   0  0  0  0  0  0  0  0  0  0  0  0
  152.5633  140.4464  155.9432 H   0  0  0  0  0  0  0  0  0  0  0  0
  149.0397  140.9145  153.1504 H   0  0  0  0  0  0  0  0  0  0  0  0
  145.9361  140.0556  154.5642 H   0  0  0  0  0  0  0  0  0  0  0  0
  146.8448  140.8476  153.3373 H   0  0  0  0  0  0  0  0  0  0  0  0
  145.8099  138.8740  152.3142 H   0  0  0  0  0  0  0  0  0  0  0  0
  148.0034  137.6478  152.1113 H   0  0  0  0  0  0  0  0  0  0  0  0
  147.2589  137.3157  154.5120 H   0  0  0  0  0  0  0  0  0  0  0  0
  145.5268  137.4457  154.3678 H   0  0  0  0  0  0  0  0  0  0  0  0
  144.4720  136.4810  152.0963 H   0  0  0  0  0  0  0  0  0  0  0  0
  145.7374  137.2702  151.1888 H   0  0  0  0  0  0  0  0  0  0  0  0
  144.9150  135.2804  149.9556 H   0  0  0  0  0  0  0  0  0  0  0  0
  146.6054  135.1422  150.3570 H   0  0  0  0  0  0  0  0  0  0  0  0
  145.6298  133.0213  150.8290 H   0  0  0  0  0  0  0  0  0  0  0  0
  143.4694  134.3629  152.5210 H   0  0  0  0  0  0  0  0  0  0  0  0
  143.6989  132.6326  152.3057 H   0  0  0  0  0  0  0  0  0  0  0  0
  143.2488  133.6354  150.9349 H   0  0  0  0  0  0  0  0  0  0  0  0
  146.0192  132.8214  153.3171 H   0  0  0  0  0  0  0  0  0  0  0  0
  147.2864  133.6221  152.4287 H   0  0  0  0  0  0  0  0  0  0  0  0
  146.8422  134.8637  154.4821 H   0  0  0  0  0  0  0  0  0  0  0  0
  145.1390  135.0179  154.1086 H   0  0  0  0  0  0  0  0  0  0  0  0
  148.8105  139.0881  158.6644 H   0  0  0  0  0  0  0  0  0  0  0  0
  150.4939  138.6534  158.4103 H   0  0  0  0  0  0  0  0  0  0  0  0
  149.2232  137.5546  157.8933 H   0  0  0  0  0  0  0  0  0  0  0  0
  147.3469  136.1092  152.5369 H   0  0  0  0  0  0  0  0  0  0  0  0
  1  2  1  0  0  0  0
  1 21  1  0  0  0  0
  1 22  1  0  0  0  0
  1 23  1  0  0  0  0
  2 19  2  0  0  0  0
  2  3  1  0  0  0  0
  3  4  2  0  0  0  0
  4  5  1  0  0  0  0
  4 24  1  0  0  0  0
  5  6  1  0  0  0  0
  5 17  1  0  0  0  0
  6  7  1  0  0  0  0
  6 25  1  0  0  0  0
  6 26  1  0  0  0  0
  7  8  1  0  0  0  0
  7  9  1  0  0  0  0
  7 27  1  0  0  0  0
  8 28  1  0  0  0  0
  9 10  1  0  0  0  0
  9 29  1  0  0  0  0
  9 30  1  0  0  0  0
 10 16  1  0  0  0  0
 10 11  1  0  0  0  0
 10 46  1  0  0  0  0
 11 12  1  0  0  0  0
 11 31  1  0  0  0  0
 11 32  1  0  0  0  0
 12 13  1  0  0  0  0
 12 33  1  0  0  0  0
 12 34  1  0  0  0  0
 13 14  1  0  0  0  0
 13 15  1  0  0  0  0
 13 35  1  0  0  0  0
 14 36  1  0  0  0  0
 14 37  1  0  0  0  0
 14 38  1  0  0  0  0
 15 16  1  0  0  0  0
 15 39  1  0  0  0  0
 15 40  1  0  0  0  0
 16 41  1  0  0  0  0
 16 42  1  0  0  0  0
 17 18  2  0  0  0  0
 17 19  1  0  0  0  0
 19 20  1  0  0  0  0
 20 43  1  0  0  0  0
 20 44  1  0  0  0  0
 20 45  1  0  0  0  0
M  CHG  1  10   1
M  END
> <s_m_source_file>
AV-unprocessed.smi

> <i_m_source_file_index>
2278

> <i_lp_mmshare_version>
43012

> <i_f3d_flags>
0

> <s_epik_input>
W0NIM11jMW5bY0hdbihjKD1PKWMxW0NIM10pW0NIMl1bQ0BIXShbT0hdKVtDSDJdTjJbQ0gyXVtDSDJdW0NIXShbQ0gzXSlbQ0gyXVtDSDJdMg==

> <s_epik_cmdline>
J2VwaWtfcHl0aG9uJywgJy1waCcsICc3LjAnLCAnLXRuJywgJzgnLCAnLW1hJywgJzIwMCcsICctbWV0YWxfYmluZGluZycsICctaW1hZScsICc8aW5maWxlLm1hZT4nLCAnLW9tYWUnLCAnPG91dGZpbGUubWFlPic=

> <r_lp_tautomer_probability>
1

> <r_epik_Ionization_Penalty>
0.00139489

> <r_epik_Ionization_Penalty_Charging>
0.00136819

> <r_epik_Ionization_Penalty_Neutral>
2.66975e-05

> <r_epik_State_Penalty>
0.000910892

> <r_epik_Charging_Adjusted_Penalty>
0.00227908

> <i_epik_Tot_Q>
1

> <i_epik_Tot_abs_Q>
1

> <r_epik_Metal_State_Penalty>
-0

> <b_epik_Metal_Only>
0

> <s_lp_Force_Field>
OPLS_2005

> <r_lp_Energy>
31.1112

> <b_lp_Chiralities_Consistent>
1

> <s_lp_Variant>
AV-unprocessed.smi:2278-4

> <Gold.Version>
5.8.1

> <Gold.Id.Protein>
6NUR|6NUR_protein|mol2

> <Gold.PLP.Fitness>
41.7926

> <Gold.PLP.PLP>
-27.9016

> <Gold.PLP.part.hbond>
-4.0097

> <Gold.PLP.part.metal>
0.0000

> <Gold.PLP.part.buried>
-3.5981

> <Gold.PLP.part.nonpolar>
-21.0987

> <Gold.PLP.part.repulsive>
0.1026

> <Gold.PLP.ligand.clash>
0.0000

> <Gold.PLP.ligand.torsion>
0.4512

> <Gold.PLP.Chemscore.Hbond>
4.0000

> <Gold.PLP.Chemscore.CHOScore>
0.9106

> <Gold.PLP.Chemscore.Metal>
0.0000

> <Gold.Chemscore.Hbonds>
donor molecule, donor type, donor heavy atom, donor atom, acceptor molecule, acceptor atom, score
      L1  H     8    28       P1  7948  1.00
      L1  H    10    46       P1  7948  2.00
      P1  H  7989  7998       L1     3  0.99
      L1  C     4    24       P1  7957  0.94

> <Gold.PLP.Chemscore.Internal.Correction>
0.0616

> <Gold.Rescore>
     Score         DG    S(hbond)    S(metal)    S(lipo)     H(rot)  DE(clash)    DE(int)     intcor
     14.31     -16.19       2.83        0.00      58.74       2.20       0.21       1.67       ----

> <Gold.Chemscore.Fitness>
14.3108

> <Gold.Chemscore.DG>
-16.1878

> <Gold.Chemscore.ZeroCoef>
-5.4800

> <Gold.Chemscore.Hbond>
2.8334

> <Gold.Chemscore.Metal>
0.0000

> <Gold.Chemscore.Lipo>
58.7398

> <Gold.Chemscore.Internal_Hbond>
0.0000

> <Gold.Chemscore.DEClash>
0.2107

> <Gold.Chemscore.DEInternal>
1.6662

> <Gold.Chemscore.Rot>
2.1986

> <Gold.Chemscore.Internal.Correction>
   9.000000E+99

> <Gold.Chemscore.Hbonds>
donor molecule, donor type, donor heavy atom, donor atom, acceptor molecule, acceptor atom, score
      L1  H     8    28       P1  7948  0.98
      L1  H    10    46       P1  7948  1.00
      P1  H  7989  7998       L1     3  0.62

> <Gold.Chemscore.Hbond.Weighted>
-9.4637

> <Gold.Chemscore.Metal.Weighted>
-0.0000

> <Gold.Chemscore.Lipo.Weighted>
-6.8726

> <Gold.Chemscore.Internal_Hbond.Weighted>
0.0000

> <Gold.Chemscore.DEClash.Weighted>
0.2107

> <Gold.Chemscore.DEInternal.Weighted>
1.6662

> <Gold.Chemscore.Rot.Weighted>
5.6285

> <Gold.Chemscore.Internal.Correction.Weighted>
   9.000000E+99

> <Gold.Protein.RotatedTorsions>
[ 6907 6896 6895 6894 ] final  -54.73 input  -60.11 | X-H torsion
[ 7974 7965 7964 7962 ] final -101.27 input  175.53 | X-H torsion
[ 8008 7997 7996 7995 ] final  104.56 input   59.86 | X-H torsion
[ 10167 10162 10161 10158 ] final  143.78 input  -65.29 | X-H torsion
[ 10718 10713 10712 10709 ] final  -49.98 input   66.30 | X-H torsion
[ 10763 10752 10751 10750 ] final -157.97 input  -60.55 | X-H torsion
[ 11005 11000 10999 10996 ] final  -18.55 input  -57.11 | X-H torsion

> <Gold.Protein.ActiveResidues>
 VAL166  LYS551  ARG553  GLY616  TRP617  ASP618  TYR619  PRO620  LYS621  CYS622 
 ASP623  PHE694  ASN695  SER759  ASP760  ASP761  ALA762  ILE779  LEU786  VAL792 
 PHE793  MET794  SER795  GLU796  ALA797  LYS798  CYS799  TRP800  GLU811  SER814 

> <Gold.Protein.RotatedAtoms>
  150.8313  134.7567  159.6855 H   0  0  0  0  0  0  0  0  0  0  0  0  # atno 6907 bound_to 6896
  152.4417  134.5574  159.9894 H   0  0  0  0  0  0  0  0  0  0  0  0  # atno 6908 bound_to 6896
  151.5735  133.3349  159.3030 H   0  0  0  0  0  0  0  0  0  0  0  0  # atno 6909 bound_to 6896
  145.2838  140.9334  143.2917 H   0  0  0  0  0  0  0  0  0  0  0  0  # atno 7974 bound_to 7965
  156.1583  140.3145  155.8764 H   0  0  0  0  0  0  0  0  0  0  0  0  # atno 8008 bound_to 7997
  155.3833  140.0489  157.3060 H   0  0  0  0  0  0  0  0  0  0  0  0  # atno 8009 bound_to 7997
  154.5122  140.2169  155.9144 H   0  0  0  0  0  0  0  0  0  0  0  0  # atno 8010 bound_to 7997
  139.4961  144.6017  151.6467 H   0  0  0  0  0  0  0  0  0  0  0  0  # atno 10167 bound_to 10162
  156.1843  130.4151  149.9461 H   0  0  0  0  0  0  0  0  0  0  0  0  # atno 10718 bound_to 10713
  154.7593  135.3113  154.8408 H   0  0  0  0  0  0  0  0  0  0  0  0  # atno 10763 bound_to 10752
  153.9173  135.6799  153.4753 H   0  0  0  0  0  0  0  0  0  0  0  0  # atno 10764 bound_to 10752
  153.1193  135.4830  154.9099 H   0  0  0  0  0  0  0  0  0  0  0  0  # atno 10765 bound_to 10752
  140.8279  133.8019  155.9728 H   0  0  0  0  0  0  0  0  0  0  0  0  # atno 11005 bound_to 11000
  144.9231  139.4388  143.6531 LP  0  0  0  0  0  0  0  0  0  0  0  0  # atno 17320 bound_to 7965
  146.3208  139.8101  142.8947 LP  0  0  0  0  0  0  0  0  0  0  0  0  # atno 17321 bound_to 7965
  140.5668  144.0176  150.6196 LP  0  0  0  0  0  0  0  0  0  0  0  0  # atno 17342 bound_to 10162
  140.3280  143.3095  152.0716 LP  0  0  0  0  0  0  0  0  0  0  0  0  # atno 17343 bound_to 10162
  156.7222  130.9011  151.3619 LP  0  0  0  0  0  0  0  0  0  0  0  0  # atno 17370 bound_to 10713
  157.6889  130.9213  150.0459 LP  0  0  0  0  0  0  0  0  0  0  0  0  # atno 17371 bound_to 10713
  140.9029  134.2356  157.5031 LP  0  0  0  0  0  0  0  0  0  0  0  0  # atno 17394 bound_to 11000
  139.8706  134.9715  156.4739 LP  0  0  0  0  0  0  0  0  0  0  0  0  # atno 17395 bound_to 11000

$$$$
