AV-unprocessed.smi:1389|AV-procd|sdf|5646|dock10
  -GOLD-   22720 5263D 1   1.00000     0.00000
 Structure written by MMmdl.
 51 53  0  0  0  0  0  0  0  0  1 V2000
  148.8018  136.8324  155.3364 C   0  0  0  0  0  0  0  0  0  0  0  0
  148.5745  138.3630  155.2408 C   0  0  2  0  0  0  0  0  0  0  0  0
  148.0483  138.7147  153.8201 C   0  0  0  0  0  0  0  0  0  0  0  0
  147.1450  137.7016  153.2788 N   0  0  0  0  0  0  0  0  0  0  0  0
  145.8983  137.4584  153.7078 C   0  0  0  0  0  0  0  0  0  0  0  0
  145.3652  138.0622  154.6385 O   0  0  0  0  0  0  0  0  0  0  0  0
  145.3138  136.4985  152.9719 N   0  0  0  0  0  0  0  0  0  0  0  0
  143.9837  135.9996  153.0706 C   0  0  0  0  0  0  0  0  0  0  0  0
  142.9859  136.6451  153.8411 C   0  0  0  0  0  0  0  0  0  0  0  0
  141.6961  136.0880  153.8998 C   0  0  0  0  0  0  0  0  0  0  0  0
  141.4504  134.8983  153.1926 C   0  0  0  0  0  0  0  0  0  0  0  0
  142.3940  134.2620  152.4697 N   0  0  0  0  0  0  0  0  0  0  0  0
  143.6394  134.7932  152.4035 C   0  0  0  0  0  0  0  0  0  0  0  0
  144.6135  134.0879  151.6668 N   0  0  0  0  0  0  0  0  0  0  0  0
  144.9320  132.7768  152.2249 C   0  0  0  0  0  0  0  0  0  0  0  0
  145.2123  131.8586  151.0342 C   0  0  0  0  0  0  0  0  0  0  0  0
  144.3618  132.4681  149.9270 C   0  0  0  0  0  0  0  0  0  0  0  0
  144.4633  133.9647  150.2174 C   0  0  0  0  0  0  0  0  0  0  0  0
  149.7742  139.1433  155.6254 N   0  0  0  0  0  0  0  0  0  0  0  0
  150.1496  138.9578  157.0320 C   0  0  0  0  0  0  0  0  0  0  0  0
  151.4085  139.7506  157.4238 C   0  0  0  0  0  0  0  0  0  0  0  0
  152.4893  139.3829  156.5782 O   0  0  0  0  0  0  0  0  0  0  0  0
  152.1977  139.6200  155.2081 C   0  0  0  0  0  0  0  0  0  0  0  0
  150.9452  138.8254  154.7997 C   0  0  0  0  0  0  0  0  0  0  0  0
  147.9271  136.2610  155.0293 H   0  0  0  0  0  0  0  0  0  0  0  0
  149.0033  136.5045  156.3548 H   0  0  0  0  0  0  0  0  0  0  0  0
  149.6357  136.5178  154.7079 H   0  0  0  0  0  0  0  0  0  0  0  0
  147.7765  138.6076  155.9434 H   0  0  0  0  0  0  0  0  0  0  0  0
  147.4565  139.6280  153.8355 H   0  0  0  0  0  0  0  0  0  0  0  0
  148.8876  138.9043  153.1487 H   0  0  0  0  0  0  0  0  0  0  0  0
  147.4930  137.1557  152.5043 H   0  0  0  0  0  0  0  0  0  0  0  0
  145.8423  136.1622  152.1802 H   0  0  0  0  0  0  0  0  0  0  0  0
  143.1900  137.5474  154.3967 H   0  0  0  0  0  0  0  0  0  0  0  0
  140.9151  136.5599  154.4773 H   0  0  0  0  0  0  0  0  0  0  0  0
  140.4728  134.4400  153.2146 H   0  0  0  0  0  0  0  0  0  0  0  0
  145.7907  132.8314  152.8944 H   0  0  0  0  0  0  0  0  0  0  0  0
  144.0849  132.3960  152.7982 H   0  0  0  0  0  0  0  0  0  0  0  0
  146.2669  131.9154  150.7618 H   0  0  0  0  0  0  0  0  0  0  0  0
  144.9697  130.8150  151.2362 H   0  0  0  0  0  0  0  0  0  0  0  0
  144.7061  132.2047  148.9267 H   0  0  0  0  0  0  0  0  0  0  0  0
  143.3267  132.1392  150.0294 H   0  0  0  0  0  0  0  0  0  0  0  0
  143.6194  134.5152  149.8014 H   0  0  0  0  0  0  0  0  0  0  0  0
  145.3638  134.3716  149.7563 H   0  0  0  0  0  0  0  0  0  0  0  0
  149.3510  139.2908  157.6919 H   0  0  0  0  0  0  0  0  0  0  0  0
  150.3107  137.8982  157.2355 H   0  0  0  0  0  0  0  0  0  0  0  0
  151.2275  140.8242  157.3506 H   0  0  0  0  0  0  0  0  0  0  0  0
  151.6803  139.5424  158.4587 H   0  0  0  0  0  0  0  0  0  0  0  0
  152.0505  140.6877  155.0375 H   0  0  0  0  0  0  0  0  0  0  0  0
  153.0529  139.3155  154.6049 H   0  0  0  0  0  0  0  0  0  0  0  0
  151.1595  137.7572  154.8567 H   0  0  0  0  0  0  0  0  0  0  0  0
  150.7526  139.0548  153.7534 H   0  0  0  0  0  0  0  0  0  0  0  0
  1  2  1  0  0  0  0
  1 25  1  0  0  0  0
  1 26  1  0  0  0  0
  1 27  1  0  0  0  0
  2  3  1  0  0  0  0
  2 19  1  0  0  0  0
  2 28  1  0  0  0  0
  3  4  1  0  0  0  0
  3 29  1  0  0  0  0
  3 30  1  0  0  0  0
  4  5  1  0  0  0  0
  4 31  1  0  0  0  0
  5  6  2  0  0  0  0
  5  7  1  0  0  0  0
  7  8  1  0  0  0  0
  7 32  1  0  0  0  0
  8 13  1  0  0  0  0
  8  9  2  0  0  0  0
  9 10  1  0  0  0  0
  9 33  1  0  0  0  0
 10 11  2  0  0  0  0
 10 34  1  0  0  0  0
 11 12  1  0  0  0  0
 11 35  1  0  0  0  0
 12 13  2  0  0  0  0
 13 14  1  0  0  0  0
 14 18  1  0  0  0  0
 14 15  1  0  0  0  0
 15 16  1  0  0  0  0
 15 36  1  0  0  0  0
 15 37  1  0  0  0  0
 16 17  1  0  0  0  0
 16 38  1  0  0  0  0
 16 39  1  0  0  0  0
 17 18  1  0  0  0  0
 17 40  1  0  0  0  0
 17 41  1  0  0  0  0
 18 42  1  0  0  0  0
 18 43  1  0  0  0  0
 19 24  1  0  0  0  0
 19 20  1  0  0  0  0
 20 21  1  0  0  0  0
 20 44  1  0  0  0  0
 20 45  1  0  0  0  0
 21 22  1  0  0  0  0
 21 46  1  0  0  0  0
 21 47  1  0  0  0  0
 22 23  1  0  0  0  0
 23 24  1  0  0  0  0
 23 48  1  0  0  0  0
 23 49  1  0  0  0  0
 24 50  1  0  0  0  0
 24 51  1  0  0  0  0
M  END
> <s_m_source_file>
AV-unprocessed.smi

> <i_m_source_file_index>
1389

> <i_lp_mmshare_version>
43012

> <i_f3d_flags>
0

> <s_epik_input>
W0NIMl0xW0NIMl1PW0NIMl1bQ0gyXU4xW0NASF0oW0NIM10pW0NIMl1bTkhdQyg9TylbTkhdYzJbY0hdW2NIXVtjSF1uYzJOM1tDSDJdW0NIMl1bQ0gyXVtDSDJdMw==

> <s_epik_cmdline>
J2VwaWtfcHl0aG9uJywgJy1waCcsICc3LjAnLCAnLXRuJywgJzgnLCAnLW1hJywgJzIwMCcsICctbWV0YWxfYmluZGluZycsICctaW1hZScsICc8aW5maWxlLm1hZT4nLCAnLW9tYWUnLCAnPG91dGZpbGUubWFlPic=

> <r_lp_tautomer_probability>
1

> <r_epik_Ionization_Penalty>
0.365229

> <r_epik_Ionization_Penalty_Charging>
0

> <r_epik_Ionization_Penalty_Neutral>
0.365229

> <r_epik_State_Penalty>
0.350519

> <r_epik_Charging_Adjusted_Penalty>
0.350519

> <i_epik_Tot_Q>
0

> <i_epik_Tot_abs_Q>
0

> <r_epik_Metal_State_Penalty>
0.33386

> <b_epik_Metal_Only>
0

> <s_lp_Force_Field>
OPLS_2005

> <r_lp_Energy>
57.3938

> <b_lp_Chiralities_Consistent>
1

> <s_lp_Variant>
AV-unprocessed.smi:1389-1

> <Gold.Version>
5.8.1

> <Gold.Id.Protein>
6NUR|6NUR_protein|mol2

> <Gold.PLP.Fitness>
37.4994

> <Gold.PLP.PLP>
-32.2614

> <Gold.PLP.part.hbond>
-2.0000

> <Gold.PLP.part.metal>
0.0000

> <Gold.PLP.part.buried>
-4.8916

> <Gold.PLP.part.nonpolar>
-25.6731

> <Gold.PLP.part.repulsive>
0.4892

> <Gold.PLP.ligand.clash>
0.0000

> <Gold.PLP.ligand.torsion>
0.3790

> <Gold.PLP.Chemscore.Hbond>
1.8960

> <Gold.PLP.Chemscore.CHOScore>
0.0472

> <Gold.PLP.Chemscore.Metal>
0.0000

> <Gold.Chemscore.Hbonds>
donor molecule, donor type, donor heavy atom, donor atom, acceptor molecule, acceptor atom, score
      L1  H     4    31       P1  7948  0.90
      P1  H  7997  8009       L1    22  0.98
      L1  C    11    35       P1 10187  0.06

> <Gold.PLP.Chemscore.Internal.Correction>
0.1664

> <Gold.Rescore>
     Score         DG    S(hbond)    S(metal)    S(lipo)     H(rot)  DE(clash)    DE(int)     intcor
     13.64     -15.79       1.38        0.00      83.16       1.57       0.50       1.65       ----

> <Gold.Chemscore.Fitness>
13.6354

> <Gold.Chemscore.DG>
-15.7862

> <Gold.Chemscore.ZeroCoef>
-5.4800

> <Gold.Chemscore.Hbond>
1.3772

> <Gold.Chemscore.Metal>
0.0000

> <Gold.Chemscore.Lipo>
83.1634

> <Gold.Chemscore.Internal_Hbond>
0.0000

> <Gold.Chemscore.DEClash>
0.4975

> <Gold.Chemscore.DEInternal>
1.6532

> <Gold.Chemscore.Rot>
1.5718

> <Gold.Chemscore.Internal.Correction>
   9.000000E+99

> <Gold.Chemscore.Hbonds>
donor molecule, donor type, donor heavy atom, donor atom, acceptor molecule, acceptor atom, score
      L1  H     4    31       P1  7948  0.88
      P1  H  7997  8009       L1    22  0.31

> <Gold.Chemscore.Hbond.Weighted>
-4.5999

> <Gold.Chemscore.Metal.Weighted>
-0.0000

> <Gold.Chemscore.Lipo.Weighted>
-9.7301

> <Gold.Chemscore.Internal_Hbond.Weighted>
0.0000

> <Gold.Chemscore.DEClash.Weighted>
0.4975

> <Gold.Chemscore.DEInternal.Weighted>
1.6532

> <Gold.Chemscore.Rot.Weighted>
4.0239

> <Gold.Chemscore.Internal.Correction.Weighted>
   9.000000E+99

> <Gold.Protein.RotatedTorsions>
[ 6907 6896 6895 6894 ] final   82.76 input  -60.11 | X-H torsion
[ 7974 7965 7964 7962 ] final  -63.72 input  175.53 | X-H torsion
[ 8008 7997 7996 7995 ] final  173.84 input   59.86 | X-H torsion
[ 10167 10162 10161 10158 ] final  104.36 input  -65.29 | X-H torsion
[ 10718 10713 10712 10709 ] final  118.81 input   66.30 | X-H torsion
[ 10763 10752 10751 10750 ] final   49.98 input  -60.55 | X-H torsion
[ 11005 11000 10999 10996 ] final -150.61 input  -57.11 | X-H torsion

> <Gold.Protein.ActiveResidues>
 VAL166  LYS551  ARG553  GLY616  TRP617  ASP618  TYR619  PRO620  LYS621  CYS622 
 ASP623  PHE694  ASN695  SER759  ASP760  ASP761  ALA762  ILE779  LEU786  VAL792 
 PHE793  MET794  SER795  GLU796  ALA797  LYS798  CYS799  TRP800  GLU811  SER814 

> <Gold.Protein.RotatedAtoms>
  152.5308  134.3000  159.9074 H   0  0  0  0  0  0  0  0  0  0  0  0  # atno 6907 bound_to 6896
  151.2951  133.4141  159.2643 H   0  0  0  0  0  0  0  0  0  0  0  0  # atno 6908 bound_to 6896
  151.0167  134.9454  159.8094 H   0  0  0  0  0  0  0  0  0  0  0  0  # atno 6909 bound_to 6896
  145.7756  140.8790  143.0357 H   0  0  0  0  0  0  0  0  0  0  0  0  # atno 7974 bound_to 7965
  156.1035  140.1450  156.9436 H   0  0  0  0  0  0  0  0  0  0  0  0  # atno 8008 bound_to 7997
  154.4718  140.0907  156.7208 H   0  0  0  0  0  0  0  0  0  0  0  0  # atno 8009 bound_to 7997
  155.4719  140.3442  155.4329 H   0  0  0  0  0  0  0  0  0  0  0  0  # atno 8010 bound_to 7997
  139.7184  144.7063  151.0913 H   0  0  0  0  0  0  0  0  0  0  0  0  # atno 10167 bound_to 10162
  157.6005  131.1052  150.7808 H   0  0  0  0  0  0  0  0  0  0  0  0  # atno 10718 bound_to 10713
  152.9785  135.5894  154.4177 H   0  0  0  0  0  0  0  0  0  0  0  0  # atno 10763 bound_to 10752
  154.3805  135.2767  155.2216 H   0  0  0  0  0  0  0  0  0  0  0  0  # atno 10764 bound_to 10752
  154.4131  135.6076  153.6019 H   0  0  0  0  0  0  0  0  0  0  0  0  # atno 10765 bound_to 10752
  140.7383  134.3543  157.5153 H   0  0  0  0  0  0  0  0  0  0  0  0  # atno 11005 bound_to 11000
  144.6805  139.9916  143.7484 LP  0  0  0  0  0  0  0  0  0  0  0  0  # atno 17320 bound_to 7965
  146.0126  139.3183  143.0861 LP  0  0  0  0  0  0  0  0  0  0  0  0  # atno 17321 bound_to 7965
  140.7748  143.5199  150.9549 LP  0  0  0  0  0  0  0  0  0  0  0  0  # atno 17342 bound_to 10162
  139.8886  143.6982  152.3148 LP  0  0  0  0  0  0  0  0  0  0  0  0  # atno 17343 bound_to 10162
  156.8209  130.4983  149.5343 LP  0  0  0  0  0  0  0  0  0  0  0  0  # atno 17370 bound_to 10713
  156.1077  130.6017  150.9997 LP  0  0  0  0  0  0  0  0  0  0  0  0  # atno 17371 bound_to 10713
  139.8811  134.9064  156.2922 LP  0  0  0  0  0  0  0  0  0  0  0  0  # atno 17394 bound_to 11000
  140.9859  133.7238  156.0741 LP  0  0  0  0  0  0  0  0  0  0  0  0  # atno 17395 bound_to 11000

$$$$
