AV-unprocessed.smi:2355|AV-procd|sdf|9386|dock9
  -GOLD-   2272013 23D 1   1.00000     0.00000
 Structure written by MMmdl.
 48 49  0  0  0  0  0  0  0  0  1 V2000
  153.6099  141.1940  160.1249 C   0  0  0  0  0  0  0  0  0  0  0  0
  152.7447  142.3058  159.5703 C   0  0  0  0  0  0  0  0  0  0  0  0
  152.6186  143.5303  160.2536 C   0  0  0  0  0  0  0  0  0  0  0  0
  151.7969  144.5250  159.6887 C   0  0  0  0  0  0  0  0  0  0  0  0
  151.6162  145.8662  160.3685 C   0  0  0  0  0  0  0  0  0  0  0  0
  151.1265  144.3555  158.5294 N   0  0  0  0  0  0  0  0  0  0  0  0
  151.2391  143.1799  157.8628 C   0  0  0  0  0  0  0  0  0  0  0  0
  150.5780  142.9043  156.6362 N   0  0  0  0  0  0  0  0  0  0  0  0
  150.2079  141.7087  156.1443 C   0  0  0  0  0  0  0  0  0  0  0  0
  150.4032  140.6222  156.6905 O   0  0  0  0  0  0  0  0  0  0  0  0
  149.5945  141.8390  154.9581 N   0  0  0  0  0  0  0  0  0  0  0  0
  149.0871  140.7337  154.1454 C   0  0  1  0  0  0  0  0  0  0  0  0
  150.1154  139.5890  154.1559 C   0  0  0  0  0  0  0  0  0  0  0  0
  147.6578  140.2907  154.5999 C   0  0  2  0  0  0  0  0  0  0  0  0
  147.0553  139.3076  153.5624 C   0  0  0  0  0  0  0  0  0  0  0  0
  146.7486  141.4149  154.9264 N   0  0  0  0  0  0  0  0  0  0  0  0
  146.4007  142.2133  153.7453 C   0  0  0  0  0  0  0  0  0  0  0  0
  145.4378  143.3687  154.0670 C   0  0  0  0  0  0  0  0  0  0  0  0
  144.2583  142.8533  154.6682 O   0  0  0  0  0  0  0  0  0  0  0  0
  144.5386  142.1350  155.8615 C   0  0  0  0  0  0  0  0  0  0  0  0
  145.4992  140.9725  155.5569 C   0  0  0  0  0  0  0  0  0  0  0  0
  152.0447  142.1306  158.3594 C   0  0  0  0  0  0  0  0  0  0  0  0
  154.2973  141.5716  160.8823 H   0  0  0  0  0  0  0  0  0  0  0  0
  154.1994  140.7350  159.3307 H   0  0  0  0  0  0  0  0  0  0  0  0
  152.9866  140.4241  160.5800 H   0  0  0  0  0  0  0  0  0  0  0  0
  153.1374  143.7021  161.1856 H   0  0  0  0  0  0  0  0  0  0  0  0
  152.2923  145.9738  161.2171 H   0  0  0  0  0  0  0  0  0  0  0  0
  150.5932  145.9710  160.7308 H   0  0  0  0  0  0  0  0  0  0  0  0
  151.8183  146.6781  159.6692 H   0  0  0  0  0  0  0  0  0  0  0  0
  150.3633  143.7101  156.0681 H   0  0  0  0  0  0  0  0  0  0  0  0
  149.4766  142.7685  154.5825 H   0  0  0  0  0  0  0  0  0  0  0  0
  149.0516  141.1204  153.1279 H   0  0  0  0  0  0  0  0  0  0  0  0
  149.7890  138.7587  153.5294 H   0  0  0  0  0  0  0  0  0  0  0  0
  150.2830  139.2021  155.1611 H   0  0  0  0  0  0  0  0  0  0  0  0
  151.0778  139.9266  153.7705 H   0  0  0  0  0  0  0  0  0  0  0  0
  147.7933  139.7145  155.5166 H   0  0  0  0  0  0  0  0  0  0  0  0
  147.7663  138.5460  153.2445 H   0  0  0  0  0  0  0  0  0  0  0  0
  146.7141  139.8305  152.6684 H   0  0  0  0  0  0  0  0  0  0  0  0
  146.2073  138.7582  153.9698 H   0  0  0  0  0  0  0  0  0  0  0  0
  147.2931  142.6532  153.3031 H   0  0  0  0  0  0  0  0  0  0  0  0
  145.9534  141.5719  152.9843 H   0  0  0  0  0  0  0  0  0  0  0  0
  145.9104  144.0924  154.7330 H   0  0  0  0  0  0  0  0  0  0  0  0
  145.1681  143.9015  153.1551 H   0  0  0  0  0  0  0  0  0  0  0  0
  144.9689  142.8054  156.6073 H   0  0  0  0  0  0  0  0  0  0  0  0
  143.6044  141.7548  156.2746 H   0  0  0  0  0  0  0  0  0  0  0  0
  144.9975  140.2459  154.9158 H   0  0  0  0  0  0  0  0  0  0  0  0
  145.6993  140.4763  156.5043 H   0  0  0  0  0  0  0  0  0  0  0  0
  152.1254  141.1981  157.8194 H   0  0  0  0  0  0  0  0  0  0  0  0
  1  2  1  0  0  0  0
  1 23  1  0  0  0  0
  1 24  1  0  0  0  0
  1 25  1  0  0  0  0
  2 22  1  0  0  0  0
  2  3  2  0  0  0  0
  3  4  1  0  0  0  0
  3 26  1  0  0  0  0
  4  5  1  0  0  0  0
  4  6  2  0  0  0  0
  5 27  1  0  0  0  0
  5 28  1  0  0  0  0
  5 29  1  0  0  0  0
  6  7  1  0  0  0  0
  7  8  1  0  0  0  0
  7 22  2  0  0  0  0
  8  9  1  0  0  0  0
  8 30  1  0  0  0  0
  9 10  2  0  0  0  0
  9 11  1  0  0  0  0
 11 12  1  0  0  0  0
 11 31  1  0  0  0  0
 12 13  1  0  0  0  0
 12 14  1  0  0  0  0
 12 32  1  0  0  0  0
 13 33  1  0  0  0  0
 13 34  1  0  0  0  0
 13 35  1  0  0  0  0
 14 15  1  0  0  0  0
 14 16  1  0  0  0  0
 14 36  1  0  0  0  0
 15 37  1  0  0  0  0
 15 38  1  0  0  0  0
 15 39  1  0  0  0  0
 16 21  1  0  0  0  0
 16 17  1  0  0  0  0
 17 18  1  0  0  0  0
 17 40  1  0  0  0  0
 17 41  1  0  0  0  0
 18 19  1  0  0  0  0
 18 42  1  0  0  0  0
 18 43  1  0  0  0  0
 19 20  1  0  0  0  0
 20 21  1  0  0  0  0
 20 44  1  0  0  0  0
 20 45  1  0  0  0  0
 21 46  1  0  0  0  0
 21 47  1  0  0  0  0
 22 48  1  0  0  0  0
M  END
> <s_m_source_file>
AV-unprocessed.smi

> <i_m_source_file_index>
2355

> <i_lp_mmshare_version>
43012

> <i_f3d_flags>
0

> <s_epik_input>
W0NIM11jMVtjSF1jKFtDSDNdKW5jKFtjSF0xKVtOSF1DKD1PKVtOSF1bQ0BIXShbQ0gzXSlbQ0BIXShbQ0gzXSlOMltDSDJdW0NIMl1PW0NIMl1bQ0gyXTI=

> <s_epik_cmdline>
J2VwaWtfcHl0aG9uJywgJy1waCcsICc3LjAnLCAnLXRuJywgJzgnLCAnLW1hJywgJzIwMCcsICctbWV0YWxfYmluZGluZycsICctaW1hZScsICc8aW5maWxlLm1hZT4nLCAnLW9tYWUnLCAnPG91dGZpbGUubWFlPic=

> <r_epik_Ionization_Penalty>
0.266238

> <r_epik_Ionization_Penalty_Charging>
0

> <r_epik_Ionization_Penalty_Neutral>
0.266238

> <r_epik_State_Penalty>
0.257924

> <r_epik_Charging_Adjusted_Penalty>
0.257924

> <i_epik_Tot_Q>
0

> <i_epik_Tot_abs_Q>
0

> <r_epik_Metal_State_Penalty>
0.257904

> <b_epik_Metal_Only>
0

> <s_lp_Force_Field>
OPLS_2005

> <r_lp_Energy>
33.1774

> <b_lp_Chiralities_Consistent>
1

> <s_lp_Variant>
AV-unprocessed.smi:2355-2

> <Gold.Version>
5.8.1

> <Gold.Id.Protein>
6NUR|6NUR_protein|mol2

> <Gold.PLP.Fitness>
47.0204

> <Gold.PLP.PLP>
-45.5850

> <Gold.PLP.part.hbond>
-2.0000

> <Gold.PLP.part.metal>
0.0000

> <Gold.PLP.part.buried>
-6.4345

> <Gold.PLP.part.nonpolar>
-38.6995

> <Gold.PLP.part.repulsive>
0.7173

> <Gold.PLP.ligand.clash>
0.0000

> <Gold.PLP.ligand.torsion>
0.6521

> <Gold.PLP.Chemscore.Hbond>
0.8813

> <Gold.PLP.Chemscore.CHOScore>
0.0000

> <Gold.PLP.Chemscore.Metal>
0.0000

> <Gold.Chemscore.Hbonds>
donor molecule, donor type, donor heavy atom, donor atom, acceptor molecule, acceptor atom, score
      L1  H     8    30       P1  8028  0.77
      L1  H    11    31       P1  8028  0.22

> <Gold.PLP.Chemscore.Internal.Correction>
0.0957

> <Gold.Rescore>
     Score         DG    S(hbond)    S(metal)    S(lipo)     H(rot)  DE(clash)    DE(int)     intcor
     15.17     -18.91       1.39        0.00     105.83       1.40       0.33       3.41       ----

> <Gold.Chemscore.Fitness>
15.1717

> <Gold.Chemscore.DG>
-18.9131

> <Gold.Chemscore.ZeroCoef>
-5.4800

> <Gold.Chemscore.Hbond>
1.3890

> <Gold.Chemscore.Metal>
0.0000

> <Gold.Chemscore.Lipo>
105.8258

> <Gold.Chemscore.Internal_Hbond>
0.0000

> <Gold.Chemscore.DEClash>
0.3344

> <Gold.Chemscore.DEInternal>
3.4071

> <Gold.Chemscore.Rot>
1.4015

> <Gold.Chemscore.Internal.Correction>
   9.000000E+99

> <Gold.Chemscore.Hbonds>
donor molecule, donor type, donor heavy atom, donor atom, acceptor molecule, acceptor atom, score
      L1  H     8    30       P1  8028  0.76
      L1  H    11    31       P1  8028  0.22

> <Gold.Chemscore.Hbond.Weighted>
-4.6393

> <Gold.Chemscore.Metal.Weighted>
-0.0000

> <Gold.Chemscore.Lipo.Weighted>
-12.3816

> <Gold.Chemscore.Internal_Hbond.Weighted>
0.0000

> <Gold.Chemscore.DEClash.Weighted>
0.3344

> <Gold.Chemscore.DEInternal.Weighted>
3.4071

> <Gold.Chemscore.Rot.Weighted>
3.5878

> <Gold.Chemscore.Internal.Correction.Weighted>
   9.000000E+99

> <Gold.Protein.RotatedTorsions>
[ 6907 6896 6895 6894 ] final  -60.05 input  -60.11 | X-H torsion
[ 7974 7965 7964 7962 ] final   84.09 input  175.53 | X-H torsion
[ 8008 7997 7996 7995 ] final -122.84 input   59.86 | X-H torsion
[ 10167 10162 10161 10158 ] final -128.11 input  -65.29 | X-H torsion
[ 10718 10713 10712 10709 ] final -151.60 input   66.30 | X-H torsion
[ 10763 10752 10751 10750 ] final   -6.06 input  -60.55 | X-H torsion
[ 11005 11000 10999 10996 ] final   75.29 input  -57.11 | X-H torsion

> <Gold.Protein.ActiveResidues>
 VAL166  LYS551  ARG553  GLY616  TRP617  ASP618  TYR619  PRO620  LYS621  CYS622 
 ASP623  PHE694  ASN695  SER759  ASP760  ASP761  ALA762  ILE779  LEU786  VAL792 
 PHE793  MET794  SER795  GLU796  ALA797  LYS798  CYS799  TRP800  GLU811  SER814 

> <Gold.Protein.RotatedAtoms>
  150.7885  134.6888  159.6484 H   0  0  0  0  0  0  0  0  0  0  0  0  # atno 6907 bound_to 6896
  152.3986  134.6321  160.0088 H   0  0  0  0  0  0  0  0  0  0  0  0  # atno 6908 bound_to 6896
  151.6600  133.3280  159.3208 H   0  0  0  0  0  0  0  0  0  0  0  0  # atno 6909 bound_to 6896
  145.6033  139.2356  143.2233 H   0  0  0  0  0  0  0  0  0  0  0  0  # atno 7974 bound_to 7965
  155.1707  140.0408  157.2862 H   0  0  0  0  0  0  0  0  0  0  0  0  # atno 8008 bound_to 7997
  154.6271  140.2515  155.7451 H   0  0  0  0  0  0  0  0  0  0  0  0  # atno 8009 bound_to 7997
  156.2465  140.2883  156.0606 H   0  0  0  0  0  0  0  0  0  0  0  0  # atno 8010 bound_to 7997
  139.9538  143.6026  152.2467 H   0  0  0  0  0  0  0  0  0  0  0  0  # atno 10167 bound_to 10162
  156.4613  130.8215  151.2445 H   0  0  0  0  0  0  0  0  0  0  0  0  # atno 10718 bound_to 10713
  153.4071  135.7006  153.6385 H   0  0  0  0  0  0  0  0  0  0  0  0  # atno 10763 bound_to 10752
  153.4895  135.3676  155.2484 H   0  0  0  0  0  0  0  0  0  0  0  0  # atno 10764 bound_to 10752
  154.8714  135.4085  154.3416 H   0  0  0  0  0  0  0  0  0  0  0  0  # atno 10765 bound_to 10752
  139.9350  134.7505  156.1253 H   0  0  0  0  0  0  0  0  0  0  0  0  # atno 11005 bound_to 11000
  146.1560  140.6857  142.9300 LP  0  0  0  0  0  0  0  0  0  0  0  0  # atno 17320 bound_to 7965
  144.7301  140.4644  143.6944 LP  0  0  0  0  0  0  0  0  0  0  0  0  # atno 17321 bound_to 7965
  139.6608  144.7662  151.1967 LP  0  0  0  0  0  0  0  0  0  0  0  0  # atno 17342 bound_to 10162
  140.7575  143.6014  150.8696 LP  0  0  0  0  0  0  0  0  0  0  0  0  # atno 17343 bound_to 10162
  157.7497  131.0106  150.3313 LP  0  0  0  0  0  0  0  0  0  0  0  0  # atno 17370 bound_to 10713
  156.3713  130.3864  149.7173 LP  0  0  0  0  0  0  0  0  0  0  0  0  # atno 17371 bound_to 10713
  141.0959  133.6695  156.2645 LP  0  0  0  0  0  0  0  0  0  0  0  0  # atno 17394 bound_to 11000
  140.6099  134.5469  157.5532 LP  0  0  0  0  0  0  0  0  0  0  0  0  # atno 17395 bound_to 11000

$$$$
