AV-unprocessed.smi:36|AV-procd|sdf|295|dock7
  -GOLD-   2262016 93D 1   1.00000     0.00000
 Structure written by MMmdl.
 63 66  0  0  0  0  0  0  0  0  2 V2000
  146.4791  133.8017  151.4428 C   0  0  0  0  0  0  0  0  0  0  0  0
  144.9423  133.7788  151.4887 C   0  0  0  0  0  0  0  0  0  0  0  0
  144.3772  134.3167  150.1630 C   0  0  0  0  0  0  0  0  0  0  0  0
  144.4468  132.3426  151.7256 C   0  0  0  0  0  0  0  0  0  0  0  0
  144.3422  134.8999  152.9140 Si  0  0  0  0  0  0  0  0  0  0  0  0
  142.4502  134.8155  153.0931 C   0  0  0  0  0  0  0  0  0  0  0  0
  145.1601  134.4185  154.5598 C   0  0  0  0  0  0  0  0  0  0  0  0
  144.8014  136.4887  152.5495 O   0  0  0  0  0  0  0  0  0  0  0  0
  144.9145  137.5218  153.5069 C   0  0  0  0  0  0  0  0  0  0  0  0
  146.2811  138.2030  153.3533 C   0  0  2  0  0  0  0  0  0  0  0  0
  146.3290  139.3719  154.1658 O   0  0  0  0  0  0  0  0  0  0  0  0
  147.1754  140.3231  153.5914 C   0  0  1  0  0  0  0  0  0  0  0  0
  148.3443  140.5190  154.5002 N   0  0  0  0  0  0  0  0  0  0  0  0
  148.5839  141.5300  155.3605 C   0  0  0  0  0  0  0  0  0  0  0  0
  149.7139  141.4811  156.0640 N   0  0  0  0  0  0  0  0  0  0  0  0
  150.2797  140.3002  155.6047 C   0  0  0  0  0  0  0  0  0  0  0  0
  151.4962  139.6328  155.9180 C   0  0  0  0  0  0  0  0  0  0  0  0
  152.3748  140.1022  156.8172 N   0  5  0  0  0  0  0  0  0  0  0  0
  151.9880  140.2982  158.1033 C   0  0  0  0  0  0  0  0  0  0  0  0
  151.5195  139.4697  158.8868 O   0  0  0  0  0  0  0  0  0  0  0  0
  152.1044  141.7318  158.5487 C   0  0  0  0  0  0  0  0  0  0  0  0
  151.5247  142.7568  157.7664 C   0  0  0  0  0  0  0  0  0  0  0  0
  151.6018  144.1022  158.1764 C   0  0  0  0  0  0  0  0  0  0  0  0
  152.2521  144.4366  159.3787 C   0  0  0  0  0  0  0  0  0  0  0  0
  152.8210  143.4238  160.1732 C   0  0  0  0  0  0  0  0  0  0  0  0
  152.7437  142.0782  159.7642 C   0  0  0  0  0  0  0  0  0  0  0  0
  151.7383  138.4621  155.2742 N   0  0  0  0  0  0  0  0  0  0  0  0
  150.8627  137.9879  154.3799 C   0  0  0  0  0  0  0  0  0  0  0  0
  149.6968  138.5098  153.9858 N   0  0  0  0  0  0  0  0  0  0  0  0
  149.4394  139.6839  154.6324 C   0  0  0  0  0  0  0  0  0  0  0  0
  147.6341  139.7701  152.2387 C   0  0  0  0  0  0  0  0  0  0  0  0
  146.5562  138.7452  151.9509 C   0  0  1  0  0  0  0  0  0  0  0  0
  147.0264  137.7457  151.0692 O   0  0  0  0  0  0  0  0  0  0  0  0
  146.8609  133.1825  150.6303 H   0  0  0  0  0  0  0  0  0  0  0  0
  146.9112  133.4268  152.3707 H   0  0  0  0  0  0  0  0  0  0  0  0
  146.8554  134.8135  151.2899 H   0  0  0  0  0  0  0  0  0  0  0  0
  144.6941  135.3452  149.9859 H   0  0  0  0  0  0  0  0  0  0  0  0
  143.2872  134.3048  150.1597 H   0  0  0  0  0  0  0  0  0  0  0  0
  144.7135  133.7183  149.3158 H   0  0  0  0  0  0  0  0  0  0  0  0
  144.7689  131.6757  150.9253 H   0  0  0  0  0  0  0  0  0  0  0  0
  143.3582  132.2996  151.7703 H   0  0  0  0  0  0  0  0  0  0  0  0
  144.8308  131.9399  152.6632 H   0  0  0  0  0  0  0  0  0  0  0  0
  142.1202  133.8127  153.3636 H   0  0  0  0  0  0  0  0  0  0  0  0
  141.9443  135.0821  152.1656 H   0  0  0  0  0  0  0  0  0  0  0  0
  142.0886  135.4932  153.8660 H   0  0  0  0  0  0  0  0  0  0  0  0
  144.9171  133.3952  154.8445 H   0  0  0  0  0  0  0  0  0  0  0  0
  144.8338  135.0676  155.3721 H   0  0  0  0  0  0  0  0  0  0  0  0
  146.2459  134.4918  154.5037 H   0  0  0  0  0  0  0  0  0  0  0  0
  144.1097  138.2420  153.3554 H   0  0  0  0  0  0  0  0  0  0  0  0
  144.7920  137.1120  154.5095 H   0  0  0  0  0  0  0  0  0  0  0  0
  147.0894  137.5353  153.6549 H   0  0  0  0  0  0  0  0  0  0  0  0
  146.6746  141.2898  153.5306 H   0  0  0  0  0  0  0  0  0  0  0  0
  147.8906  142.3498  155.4769 H   0  0  0  0  0  0  0  0  0  0  0  0
  151.0209  142.5173  156.8412 H   0  0  0  0  0  0  0  0  0  0  0  0
  151.1603  144.8771  157.5677 H   0  0  0  0  0  0  0  0  0  0  0  0
  152.3109  145.4680  159.6931 H   0  0  0  0  0  0  0  0  0  0  0  0
  153.3144  143.6778  161.0995 H   0  0  0  0  0  0  0  0  0  0  0  0
  153.1778  141.3155  160.3945 H   0  0  0  0  0  0  0  0  0  0  0  0
  151.1362  137.0538  153.9122 H   0  0  0  0  0  0  0  0  0  0  0  0
  147.7036  140.5603  151.4907 H   0  0  0  0  0  0  0  0  0  0  0  0
  148.6097  139.2910  152.3429 H   0  0  0  0  0  0  0  0  0  0  0  0
  145.6699  139.2307  151.5398 H   0  0  0  0  0  0  0  0  0  0  0  0
  147.3437  137.0170  151.5809 H   0  0  0  0  0  0  0  0  0  0  0  0
  1  2  1  0  0  0  0
  1 34  1  0  0  0  0
  1 35  1  0  0  0  0
  1 36  1  0  0  0  0
  2  3  1  0  0  0  0
  2  4  1  0  0  0  0
  2  5  1  0  0  0  0
  3 37  1  0  0  0  0
  3 38  1  0  0  0  0
  3 39  1  0  0  0  0
  4 40  1  0  0  0  0
  4 41  1  0  0  0  0
  4 42  1  0  0  0  0
  5  6  1  0  0  0  0
  5  7  1  0  0  0  0
  5  8  1  0  0  0  0
  6 43  1  0  0  0  0
  6 44  1  0  0  0  0
  6 45  1  0  0  0  0
  7 46  1  0  0  0  0
  7 47  1  0  0  0  0
  7 48  1  0  0  0  0
  8  9  1  0  0  0  0
  9 10  1  0  0  0  0
  9 49  1  0  0  0  0
  9 50  1  0  0  0  0
 10 32  1  0  0  0  0
 10 11  1  0  0  0  0
 10 51  1  0  0  0  0
 11 12  1  0  0  0  0
 12 13  1  0  0  0  0
 12 31  1  0  0  0  0
 12 52  1  0  0  0  0
 13 30  1  0  0  0  0
 13 14  1  0  0  0  0
 14 15  2  0  0  0  0
 14 53  1  0  0  0  0
 15 16  1  0  0  0  0
 16 30  2  0  0  0  0
 16 17  1  0  0  0  0
 17 18  1  0  0  0  0
 17 27  2  0  0  0  0
 18 19  1  0  0  0  0
 19 20  2  0  0  0  0
 19 21  1  0  0  0  0
 21 26  1  0  0  0  0
 21 22  2  0  0  0  0
 22 23  1  0  0  0  0
 22 54  1  0  0  0  0
 23 24  2  0  0  0  0
 23 55  1  0  0  0  0
 24 25  1  0  0  0  0
 24 56  1  0  0  0  0
 25 26  2  0  0  0  0
 25 57  1  0  0  0  0
 26 58  1  0  0  0  0
 27 28  1  0  0  0  0
 28 29  2  0  0  0  0
 28 59  1  0  0  0  0
 29 30  1  0  0  0  0
 31 32  1  0  0  0  0
 31 60  1  0  0  0  0
 31 61  1  0  0  0  0
 32 33  1  0  0  0  0
 32 62  1  0  0  0  0
 33 63  1  0  0  0  0
M  CHG  1  18  -1
M  END
> <s_m_source_file>
AV-unprocessed.smi

> <i_m_source_file_index>
36

> <i_lp_mmshare_version>
43012

> <i_f3d_flags>
0

> <s_epik_input>
W0NIM11DKFtDSDNdKShbQ0gzXSlbU2ldKFtDSDNdKShbQ0gzXSlPW0NIMl1bQ0BASF0xT1tDQEhdKFtDSDJdW0NASF0xW09IXSluKFtjSF1uMiljKGMyMyluW2NIXW5jM1tOSF1DKD1PKWM0W2NIXVtjSF1bY0hdW2NIXVtjSF00

> <s_epik_cmdline>
J2VwaWtfcHl0aG9uJywgJy1waCcsICc3LjAnLCAnLXRuJywgJzgnLCAnLW1hJywgJzIwMCcsICctbWV0YWxfYmluZGluZycsICctaW1hZScsICc8aW5maWxlLm1hZT4nLCAnLW9tYWUnLCAnPG91dGZpbGUubWFlPic=

> <r_lp_tautomer_probability>
1

> <r_epik_Ionization_Penalty>
4.75685

> <r_epik_Ionization_Penalty_Charging>
3.55822

> <r_epik_Ionization_Penalty_Neutral>
1.19863

> <r_epik_State_Penalty>
3.564

> <r_epik_Charging_Adjusted_Penalty>
7.12222

> <i_epik_Tot_Q>
-1

> <i_epik_Tot_abs_Q>
1

> <r_epik_Metal_State_Penalty>
0.523258

> <b_epik_Metal_Only>
1

> <s_epik_Chemistry_Notes>
This compound contains an acetal/aminal-like group ( X-CH(R)-Y where X, Y are N, S, or O) that may be acid/base labile, releasing an aldehyde.

> <s_lp_Force_Field>
OPLS_2005

> <r_lp_Energy>
36.9476

> <b_lp_Chiralities_Consistent>
1

> <s_lp_Variant>
AV-unprocessed.smi:36-17

> <Gold.Version>
5.8.1

> <Gold.Id.Protein>
6NUR|6NUR_protein|mol2

> <Gold.PLP.Fitness>
70.2904

> <Gold.PLP.PLP>
-60.1550

> <Gold.PLP.part.hbond>
-3.0000

> <Gold.PLP.part.metal>
0.0000

> <Gold.PLP.part.buried>
-1.7842

> <Gold.PLP.part.nonpolar>
-57.6127

> <Gold.PLP.part.repulsive>
1.5398

> <Gold.PLP.ligand.clash>
0.0000

> <Gold.PLP.ligand.torsion>
3.2873

> <Gold.PLP.Chemscore.Hbond>
3.7180

> <Gold.PLP.Chemscore.CHOScore>
1.7439

> <Gold.PLP.Chemscore.Metal>
0.0000

> <Gold.Chemscore.Hbonds>
donor molecule, donor type, donor heavy atom, donor atom, acceptor molecule, acceptor atom, score
      L1  H    33    63       P1  7948  0.69
      P1  H  7954  7966       L1    33  1.00
      P1  H  7997  8008       L1    18  2.00
      L1  C    14    53       P1  8028  0.71
      L1  C    28    59       P1  7949  0.71

> <Gold.PLP.Chemscore.Internal.Correction>
0.3245

> <Gold.Rescore>
     Score         DG    S(hbond)    S(metal)    S(lipo)     H(rot)  DE(clash)    DE(int)     intcor
     13.26     -20.89       1.88        0.00     136.47       2.67       2.22       5.41       ----

> <Gold.Chemscore.Fitness>
13.2590

> <Gold.Chemscore.DG>
-20.8929

> <Gold.Chemscore.ZeroCoef>
-5.4800

> <Gold.Chemscore.Hbond>
1.8808

> <Gold.Chemscore.Metal>
0.0000

> <Gold.Chemscore.Lipo>
136.4685

> <Gold.Chemscore.Internal_Hbond>
0.0000

> <Gold.Chemscore.DEClash>
2.2207

> <Gold.Chemscore.DEInternal>
5.4132

> <Gold.Chemscore.Rot>
2.6702

> <Gold.Chemscore.Internal.Correction>
   9.000000E+99

> <Gold.Chemscore.Hbonds>
donor molecule, donor type, donor heavy atom, donor atom, acceptor molecule, acceptor atom, score
      L1  H    33    63       P1  7948  0.68
      P1  H  7954  7966       L1    33  0.35
      P1  H  7997  8008       L1    18  0.89

> <Gold.Chemscore.Hbond.Weighted>
-6.2818

> <Gold.Chemscore.Metal.Weighted>
-0.0000

> <Gold.Chemscore.Lipo.Weighted>
-15.9668

> <Gold.Chemscore.Internal_Hbond.Weighted>
0.0000

> <Gold.Chemscore.DEClash.Weighted>
2.2207

> <Gold.Chemscore.DEInternal.Weighted>
5.4132

> <Gold.Chemscore.Rot.Weighted>
6.8358

> <Gold.Chemscore.Internal.Correction.Weighted>
   9.000000E+99

> <Gold.Protein.RotatedTorsions>
[ 6907 6896 6895 6894 ] final  -83.06 input  -60.11 | X-H torsion
[ 7974 7965 7964 7962 ] final  -23.96 input  175.53 | X-H torsion
[ 8008 7997 7996 7995 ] final  -47.94 input   59.86 | X-H torsion
[ 10167 10162 10161 10158 ] final   36.75 input  -65.29 | X-H torsion
[ 10718 10713 10712 10709 ] final -178.89 input   66.30 | X-H torsion
[ 10763 10752 10751 10750 ] final  106.67 input  -60.55 | X-H torsion
[ 11005 11000 10999 10996 ] final  -35.82 input  -57.11 | X-H torsion

> <Gold.Protein.ActiveResidues>
 VAL166  LYS551  ARG553  GLY616  TRP617  ASP618  TYR619  PRO620  LYS621  CYS622 
 ASP623  PHE694  ASN695  SER759  ASP760  ASP761  ALA762  ILE779  LEU786  VAL792 
 PHE793  MET794  SER795  GLU796  ALA797  LYS798  CYS799  TRP800  GLU811  SER814 

> <Gold.Protein.RotatedAtoms>
  150.6890  134.3569  159.4933 H   0  0  0  0  0  0  0  0  0  0  0  0  # atno 6907 bound_to 6896
  152.1403  134.9065  160.0563 H   0  0  0  0  0  0  0  0  0  0  0  0  # atno 6908 bound_to 6896
  152.0201  133.3860  159.4291 H   0  0  0  0  0  0  0  0  0  0  0  0  # atno 6909 bound_to 6896
  146.1584  140.4687  142.8582 H   0  0  0  0  0  0  0  0  0  0  0  0  # atno 7974 bound_to 7965
  154.4022  140.1334  156.4257 H   0  0  0  0  0  0  0  0  0  0  0  0  # atno 8008 bound_to 7997
  155.7599  140.3486  155.5173 H   0  0  0  0  0  0  0  0  0  0  0  0  # atno 8009 bound_to 7997
  155.8868  140.0996  157.1437 H   0  0  0  0  0  0  0  0  0  0  0  0  # atno 8010 bound_to 7997
  140.4098  144.1609  150.6138 H   0  0  0  0  0  0  0  0  0  0  0  0  # atno 10167 bound_to 10162
  156.8510  130.9719  151.3092 H   0  0  0  0  0  0  0  0  0  0  0  0  # atno 10718 bound_to 10713
  153.3962  135.3869  155.1957 H   0  0  0  0  0  0  0  0  0  0  0  0  # atno 10763 bound_to 10752
  154.8724  135.3760  154.4676 H   0  0  0  0  0  0  0  0  0  0  0  0  # atno 10764 bound_to 10752
  153.5168  135.7087  153.5814 H   0  0  0  0  0  0  0  0  0  0  0  0  # atno 10765 bound_to 10752
  140.9826  133.7048  156.1710 H   0  0  0  0  0  0  0  0  0  0  0  0  # atno 11005 bound_to 11000
  144.7994  140.6184  143.6488 LP  0  0  0  0  0  0  0  0  0  0  0  0  # atno 17320 bound_to 7965
  145.4650  139.1509  143.3845 LP  0  0  0  0  0  0  0  0  0  0  0  0  # atno 17321 bound_to 7965
  140.4650  143.2434  151.9167 LP  0  0  0  0  0  0  0  0  0  0  0  0  # atno 17342 bound_to 10162
  139.4783  144.5428  151.8503 LP  0  0  0  0  0  0  0  0  0  0  0  0  # atno 17343 bound_to 10162
  157.6303  130.8724  149.9263 LP  0  0  0  0  0  0  0  0  0  0  0  0  # atno 17370 bound_to 10713
  156.0828  130.3671  150.0546 LP  0  0  0  0  0  0  0  0  0  0  0  0  # atno 17371 bound_to 10713
  140.7163  134.4407  157.5578 LP  0  0  0  0  0  0  0  0  0  0  0  0  # atno 17394 bound_to 11000
  139.8957  134.8678  156.2122 LP  0  0  0  0  0  0  0  0  0  0  0  0  # atno 17395 bound_to 11000

$$$$
