AV-unprocessed.smi:72|AV-procd|sdf|670|dock4
  -GOLD-   2262016573D 1   1.00000     0.00000
 Structure written by MMmdl.
 29 30  0  0  0  0  0  0  0  0  1 V2000
  151.1468  137.3337  159.5462 N   0  0  0  0  0  0  0  0  0  0  0  0
  150.8209  138.0263  158.5135 C   0  0  0  0  0  0  0  0  0  0  0  0
  149.5178  138.4342  158.1893 N   0  0  0  0  0  0  0  0  0  0  0  0
  149.3342  139.1284  157.1088 C   0  0  0  0  0  0  0  0  0  0  0  0
  150.4314  139.4902  156.2245 N   0  0  0  0  0  0  0  0  0  0  0  0
  150.1823  140.3007  154.9697 C   0  0  1  0  0  0  0  0  0  0  0  0
  149.2146  139.6480  154.2069 O   0  0  0  0  0  0  0  0  0  0  0  0
  148.3935  140.6161  153.5705 C   0  0  1  0  0  0  0  0  0  0  0  0
  147.0416  139.9897  153.1951 C   0  0  0  0  0  0  0  0  0  0  0  0
  147.2002  139.1090  152.1032 O   0  0  0  0  0  0  0  0  0  0  0  0
  148.2854  141.7154  154.6319 C   0  0  2  0  0  0  0  0  0  0  0  0
  147.9907  142.9598  154.0305 O   0  0  0  0  0  0  0  0  0  0  0  0
  149.6778  141.7348  155.2505 C   0  0  1  0  0  0  0  0  0  0  0  0
  149.6132  142.0842  156.6219 O   0  0  0  0  0  0  0  0  0  0  0  0
  151.7548  139.1044  156.5466 C   0  0  0  0  0  0  0  0  0  0  0  0
  152.7235  139.4139  155.8533 O   0  0  0  0  0  0  0  0  0  0  0  0
  151.8900  138.3791  157.6781 N   0  0  0  0  0  0  0  0  0  0  0  0
  151.1116  140.2924  154.3982 H   0  0  0  0  0  0  0  0  0  0  0  0
  148.9125  141.0005  152.6895 H   0  0  0  0  0  0  0  0  0  0  0  0
  147.5301  141.4530  155.3749 H   0  0  0  0  0  0  0  0  0  0  0  0
  150.3369  142.4267  154.7235 H   0  0  0  0  0  0  0  0  0  0  0  0
  152.1423  137.1682  159.5630 H   0  0  0  0  0  0  0  0  0  0  0  0
  148.3532  139.4894  156.7963 H   0  0  0  0  0  0  0  0  0  0  0  0
  146.5957  139.4694  154.0434 H   0  0  0  0  0  0  0  0  0  0  0  0
  146.3413  140.7666  152.8872 H   0  0  0  0  0  0  0  0  0  0  0  0
  148.0974  139.1529  151.8093 H   0  0  0  0  0  0  0  0  0  0  0  0
  148.3620  143.6440  154.5667 H   0  0  0  0  0  0  0  0  0  0  0  0
  149.3554  142.9911  156.6876 H   0  0  0  0  0  0  0  0  0  0  0  0
  152.8214  138.0849  157.9330 H   0  0  0  0  0  0  0  0  0  0  0  0
  1  2  2  0  0  0  0
  1 22  1  0  0  0  0
  2 17  1  0  0  0  0
  2  3  1  0  0  0  0
  3  4  2  0  0  0  0
  4  5  1  0  0  0  0
  4 23  1  0  0  0  0
  5  6  1  0  0  0  0
  5 15  1  0  0  0  0
  6 18  1  0  0  0  0
  6 13  1  0  0  0  0
  6  7  1  0  0  0  0
  7  8  1  0  0  0  0
  8 19  1  0  0  0  0
  8  9  1  0  0  0  0
  8 11  1  0  0  0  0
  9 10  1  0  0  0  0
  9 24  1  0  0  0  0
  9 25  1  0  0  0  0
 10 26  1  0  0  0  0
 11 20  1  0  0  0  0
 11 12  1  0  0  0  0
 11 13  1  0  0  0  0
 12 27  1  0  0  0  0
 13 21  1  0  0  0  0
 13 14  1  0  0  0  0
 14 28  1  0  0  0  0
 15 16  2  0  0  0  0
 15 17  1  0  0  0  0
 17 29  1  0  0  0  0
M  END
> <s_m_source_file>
AV-unprocessed.smi

> <i_m_source_file_index>
72

> <i_lp_mmshare_version>
43012

> <i_f3d_flags>
0

> <s_epik_input>
W05IMl1jMW5bY0hdbihjKD1PKW4xKVtDQEBIXTJPW0NASF0oW0NIMl1bT0hdKVtDQEBIXShbT0hdKVtDQEhdMltPSF0=

> <s_epik_cmdline>
J2VwaWtfcHl0aG9uJywgJy1waCcsICc3LjAnLCAnLXRuJywgJzgnLCAnLW1hJywgJzIwMCcsICctbWV0YWxfYmluZGluZycsICctaW1hZScsICc8aW5maWxlLm1hZT4nLCAnLW9tYWUnLCAnPG91dGZpbGUubWFlPic=

> <r_lp_tautomer_probability>
7.17554e-07

> <r_epik_Ionization_Penalty>
0.0066451

> <r_epik_Ionization_Penalty_Charging>
0.00663793

> <r_epik_Ionization_Penalty_Neutral>
7.17052e-06

> <r_epik_State_Penalty>
0.419231

> <r_epik_Charging_Adjusted_Penalty>
0.425868

> <i_epik_Tot_Q>
0

> <i_epik_Tot_abs_Q>
0

> <r_epik_Metal_State_Penalty>
1.44144

> <b_epik_Metal_Only>
0

> <s_epik_Chemistry_Notes>
This compound contains an acetal/aminal-like group ( X-CH(R)-Y where X, Y are N, S, or O) that may be acid/base labile, releasing an aldehyde.

> <s_lp_Force_Field>
OPLS_2005

> <r_lp_Energy>
43.9506

> <b_lp_Chiralities_Consistent>
1

> <s_lp_Variant>
AV-unprocessed.smi:72-8

> <Gold.Version>
5.8.1

> <Gold.Id.Protein>
6NUR|6NUR_protein|mol2

> <Gold.PLP.Fitness>
35.5796

> <Gold.PLP.PLP>
-24.1191

> <Gold.PLP.part.hbond>
-6.3939

> <Gold.PLP.part.metal>
0.0000

> <Gold.PLP.part.buried>
1.6049

> <Gold.PLP.part.nonpolar>
-17.6205

> <Gold.PLP.part.repulsive>
0.2031

> <Gold.PLP.ligand.clash>
0.0000

> <Gold.PLP.ligand.torsion>
0.1214

> <Gold.PLP.Chemscore.Hbond>
3.8589

> <Gold.PLP.Chemscore.CHOScore>
0.0000

> <Gold.PLP.Chemscore.Metal>
0.0000

> <Gold.Chemscore.Hbonds>
donor molecule, donor type, donor heavy atom, donor atom, acceptor molecule, acceptor atom, score
      L1  H    10    26       P1  7957  1.00
      L1  H    12    27       P1  8028  1.00
      L1  H    14    28       P1  8028  0.86
      P1  H  7997  8008       L1    16  1.00

> <Gold.PLP.Chemscore.Internal.Correction>
0.1266

> <Gold.Rescore>
     Score         DG    S(hbond)    S(metal)    S(lipo)     H(rot)  DE(clash)    DE(int)     intcor
      8.63     -11.03       3.72        0.00      29.95       4.06       1.25       1.16       ----

> <Gold.Chemscore.Fitness>
8.6294

> <Gold.Chemscore.DG>
-11.0310

> <Gold.Chemscore.ZeroCoef>
-5.4800

> <Gold.Chemscore.Hbond>
3.7247

> <Gold.Chemscore.Metal>
0.0000

> <Gold.Chemscore.Lipo>
29.9492

> <Gold.Chemscore.Internal_Hbond>
0.0000

> <Gold.Chemscore.DEClash>
1.2465

> <Gold.Chemscore.DEInternal>
1.1551

> <Gold.Chemscore.Rot>
4.0600

> <Gold.Chemscore.Internal.Correction>
   9.000000E+99

> <Gold.Chemscore.Hbonds>
donor molecule, donor type, donor heavy atom, donor atom, acceptor molecule, acceptor atom, score
      L1  H    10    26       P1  7957  0.95
      L1  H    12    27       P1  8028  0.95
      L1  H    14    28       P1  8028  0.80
      P1  H  7997  8008       L1    16  1.00

> <Gold.Chemscore.Hbond.Weighted>
-12.4406

> <Gold.Chemscore.Metal.Weighted>
-0.0000

> <Gold.Chemscore.Lipo.Weighted>
-3.5041

> <Gold.Chemscore.Internal_Hbond.Weighted>
0.0000

> <Gold.Chemscore.DEClash.Weighted>
1.2465

> <Gold.Chemscore.DEInternal.Weighted>
1.1551

> <Gold.Chemscore.Rot.Weighted>
10.3936

> <Gold.Chemscore.Internal.Correction.Weighted>
   9.000000E+99

> <Gold.Protein.RotatedTorsions>
[ 6907 6896 6895 6894 ] final  112.76 input  -60.11 | X-H torsion
[ 7974 7965 7964 7962 ] final  167.53 input  175.53 | X-H torsion
[ 8008 7997 7996 7995 ] final  -43.83 input   59.86 | X-H torsion
[ 10167 10162 10161 10158 ] final   31.99 input  -65.29 | X-H torsion
[ 10718 10713 10712 10709 ] final  -37.74 input   66.30 | X-H torsion
[ 10763 10752 10751 10750 ] final -144.22 input  -60.55 | X-H torsion
[ 11005 11000 10999 10996 ] final -120.81 input  -57.11 | X-H torsion

> <Gold.Protein.ActiveResidues>
 VAL166  LYS551  ARG553  GLY616  TRP617  ASP618  TYR619  PRO620  LYS621  CYS622 
 ASP623  PHE694  ASN695  SER759  ASP760  ASP761  ALA762  ILE779  LEU786  VAL792 
 PHE793  MET794  SER795  GLU796  ALA797  LYS798  CYS799  TRP800  GLU811  SER814 

> <Gold.Protein.RotatedAtoms>
  152.4899  133.8471  159.7181 H   0  0  0  0  0  0  0  0  0  0  0  0  # atno 6907 bound_to 6896
  150.9018  133.7099  159.2883 H   0  0  0  0  0  0  0  0  0  0  0  0  # atno 6908 bound_to 6896
  151.4538  135.1036  159.9757 H   0  0  0  0  0  0  0  0  0  0  0  0  # atno 6909 bound_to 6896
  144.7421  139.8775  143.6393 H   0  0  0  0  0  0  0  0  0  0  0  0  # atno 7974 bound_to 7965
  154.3997  140.1437  156.3584 H   0  0  0  0  0  0  0  0  0  0  0  0  # atno 8008 bound_to 7997
  155.8204  140.3469  155.5490 H   0  0  0  0  0  0  0  0  0  0  0  0  # atno 8009 bound_to 7997
  155.8294  140.0910  157.1792 H   0  0  0  0  0  0  0  0  0  0  0  0  # atno 8010 bound_to 7997
  140.4539  144.1007  150.6197 H   0  0  0  0  0  0  0  0  0  0  0  0  # atno 10167 bound_to 10162
  156.3118  130.4253  149.8043 H   0  0  0  0  0  0  0  0  0  0  0  0  # atno 10718 bound_to 10713
  154.8437  135.3446  154.6311 H   0  0  0  0  0  0  0  0  0  0  0  0  # atno 10763 bound_to 10752
  153.6921  135.6974  153.5091 H   0  0  0  0  0  0  0  0  0  0  0  0  # atno 10764 bound_to 10752
  153.2587  135.4330  155.0827 H   0  0  0  0  0  0  0  0  0  0  0  0  # atno 10765 bound_to 10752
  141.0116  134.0256  157.3405 H   0  0  0  0  0  0  0  0  0  0  0  0  # atno 11005 bound_to 11000
  146.1235  139.4257  143.0213 LP  0  0  0  0  0  0  0  0  0  0  0  0  # atno 17320 bound_to 7965
  145.7269  141.0056  143.1372 LP  0  0  0  0  0  0  0  0  0  0  0  0  # atno 17321 bound_to 7965
  140.4174  143.2627  151.9757 LP  0  0  0  0  0  0  0  0  0  0  0  0  # atno 17342 bound_to 10162
  139.4799  144.5861  151.7851 LP  0  0  0  0  0  0  0  0  0  0  0  0  # atno 17343 bound_to 10162
  156.5384  130.8289  151.3260 LP  0  0  0  0  0  0  0  0  0  0  0  0  # atno 17370 bound_to 10713
  157.7392  130.9828  150.2302 LP  0  0  0  0  0  0  0  0  0  0  0  0  # atno 17371 bound_to 10713
  139.9093  135.0187  156.7624 LP  0  0  0  0  0  0  0  0  0  0  0  0  # atno 17394 bound_to 11000
  140.6723  133.9548  155.7863 LP  0  0  0  0  0  0  0  0  0  0  0  0  # atno 17395 bound_to 11000

$$$$
