AV-unprocessed.smi:211|AV-procd|sdf|1615|dock1
  -GOLD-   2262019543D 1   1.00000     0.00000
 Structure written by MMmdl.
 59 62  0  0  0  0  0  0  0  0  1 V2000
  146.4224  132.8184  150.8540 C   0  0  0  0  0  0  0  0  0  0  0  0
  146.9811  132.6635  152.2642 C   0  0  0  0  0  0  0  0  0  0  0  0
  146.2829  132.9401  153.2390 O   0  0  0  0  0  0  0  0  0  0  0  0
  148.2441  132.2195  152.3537 N   0  0  0  0  0  0  0  0  0  0  0  0
  148.9810  131.9852  153.5950 C   0  0  2  0  0  0  0  0  0  0  0  0
  148.0699  131.2137  154.5686 C   0  0  0  0  0  0  0  0  0  0  0  0
  149.4991  133.3309  154.1690 C   0  0  0  0  0  0  0  0  0  0  0  0
  150.4316  133.1287  155.3876 C   0  0  0  0  0  0  0  0  0  0  0  0
  150.9238  134.4669  155.9605 C   0  0  0  0  0  0  0  0  0  0  0  0
  149.7997  135.3397  156.2893 N   0  0  0  0  0  0  0  0  0  0  0  0
  150.1203  136.3859  157.0932 C   0  0  0  0  0  0  0  0  0  0  0  0
  149.9654  136.2802  158.4405 N   0  0  0  0  0  0  0  0  0  0  0  0
  150.2575  137.3121  159.2374 C   0  0  0  0  0  0  0  0  0  0  0  0
  150.7154  138.5198  158.9038 N   0  0  0  0  0  0  0  0  0  0  0  0
  150.8864  138.6293  157.5554 C   0  0  0  0  0  0  0  0  0  0  0  0
  150.6122  137.6224  156.5868 C   0  0  0  0  0  0  0  0  0  0  0  0
  150.9033  138.1003  155.3143 N   0  0  0  0  0  0  0  0  0  0  0  0
  151.3090  139.3240  155.5177 C   0  0  0  0  0  0  0  0  0  0  0  0
  151.3564  139.7149  156.8369 N   0  0  0  0  0  0  0  0  0  0  0  0
  151.7214  141.0073  157.3379 C   0  0  0  0  0  0  0  0  0  0  0  0
  151.3651  141.4393  158.7631 C   0  0  0  0  0  0  0  0  0  0  0  0
  151.2313  142.9005  158.2765 C   0  0  0  0  0  0  0  0  0  0  0  0
  150.0529  143.6721  158.8962 C   0  0  0  0  0  0  0  0  0  0  0  0
  150.0647  145.0375  158.5333 O   0  0  0  0  0  0  0  0  0  0  0  0
  152.5230  143.7315  158.4314 C   0  0  0  0  0  0  0  0  0  0  0  0
  152.7693  144.0935  159.7746 O   0  0  0  0  0  0  0  0  0  0  0  0
  150.9815  142.2683  156.8878 C   0  0  0  0  0  0  0  0  0  0  0  0
  148.8845  135.5952  155.1776 C   0  0  0  0  0  0  0  0  0  0  0  0
  148.3525  134.2794  154.5863 C   0  0  0  0  0  0  0  0  0  0  0  0
  147.0920  133.4222  150.2405 H   0  0  0  0  0  0  0  0  0  0  0  0
  145.4471  133.3058  150.8744 H   0  0  0  0  0  0  0  0  0  0  0  0
  146.3071  131.8418  150.3830 H   0  0  0  0  0  0  0  0  0  0  0  0
  148.7346  132.0215  151.4934 H   0  0  0  0  0  0  0  0  0  0  0  0
  149.8498  131.3611  153.3765 H   0  0  0  0  0  0  0  0  0  0  0  0
  148.6049  130.9000  155.4640 H   0  0  0  0  0  0  0  0  0  0  0  0
  147.6787  130.3070  154.1058 H   0  0  0  0  0  0  0  0  0  0  0  0
  147.2180  131.8194  154.8793 H   0  0  0  0  0  0  0  0  0  0  0  0
  150.0763  133.8291  153.3883 H   0  0  0  0  0  0  0  0  0  0  0  0
  149.9042  132.5749  156.1656 H   0  0  0  0  0  0  0  0  0  0  0  0
  151.3007  132.5283  155.1187 H   0  0  0  0  0  0  0  0  0  0  0  0
  151.5472  134.2740  156.8329 H   0  0  0  0  0  0  0  0  0  0  0  0
  151.5578  134.9724  155.2309 H   0  0  0  0  0  0  0  0  0  0  0  0
  150.1018  137.1467  160.2934 H   0  0  0  0  0  0  0  0  0  0  0  0
  151.5919  139.9759  154.7042 H   0  0  0  0  0  0  0  0  0  0  0  0
  152.7934  141.1066  157.1590 H   0  0  0  0  0  0  0  0  0  0  0  0
  150.4196  141.0110  159.1018 H   0  0  0  0  0  0  0  0  0  0  0  0
  152.1534  141.2681  159.4968 H   0  0  0  0  0  0  0  0  0  0  0  0
  149.1012  143.2571  158.5633 H   0  0  0  0  0  0  0  0  0  0  0  0
  150.0559  143.5951  159.9838 H   0  0  0  0  0  0  0  0  0  0  0  0
  149.2493  145.2410  158.1017 H   0  0  0  0  0  0  0  0  0  0  0  0
  153.3884  143.1872  158.0522 H   0  0  0  0  0  0  0  0  0  0  0  0
  152.4706  144.6529  157.8510 H   0  0  0  0  0  0  0  0  0  0  0  0
  153.6799  143.9319  159.9679 H   0  0  0  0  0  0  0  0  0  0  0  0
  151.4473  142.7881  156.0499 H   0  0  0  0  0  0  0  0  0  0  0  0
  149.9238  142.0834  156.6903 H   0  0  0  0  0  0  0  0  0  0  0  0
  148.0449  136.2030  155.5179 H   0  0  0  0  0  0  0  0  0  0  0  0
  149.4039  136.1651  154.4057 H   0  0  0  0  0  0  0  0  0  0  0  0
  147.7180  134.5200  153.7341 H   0  0  0  0  0  0  0  0  0  0  0  0
  147.7140  133.7840  155.3190 H   0  0  0  0  0  0  0  0  0  0  0  0
  1  2  1  0  0  0  0
  1 30  1  0  0  0  0
  1 31  1  0  0  0  0
  1 32  1  0  0  0  0
  2  3  2  0  0  0  0
  2  4  1  0  0  0  0
  4  5  1  0  0  0  0
  4 33  1  0  0  0  0
  5  6  1  0  0  0  0
  5  7  1  0  0  0  0
  5 34  1  0  0  0  0
  6 35  1  0  0  0  0
  6 36  1  0  0  0  0
  6 37  1  0  0  0  0
  7 29  1  0  0  0  0
  7  8  1  0  0  0  0
  7 38  1  0  0  0  0
  8  9  1  0  0  0  0
  8 39  1  0  0  0  0
  8 40  1  0  0  0  0
  9 10  1  0  0  0  0
  9 41  1  0  0  0  0
  9 42  1  0  0  0  0
 10 11  1  0  0  0  0
 10 28  1  0  0  0  0
 11 16  1  0  0  0  0
 11 12  2  0  0  0  0
 12 13  1  0  0  0  0
 13 14  2  0  0  0  0
 13 43  1  0  0  0  0
 14 15  1  0  0  0  0
 15 19  1  0  0  0  0
 15 16  2  0  0  0  0
 16 17  1  0  0  0  0
 17 18  2  0  0  0  0
 18 19  1  0  0  0  0
 18 44  1  0  0  0  0
 19 20  1  0  0  0  0
 20 27  1  0  0  0  0
 20 21  1  0  0  0  0
 20 45  1  0  0  0  0
 21 22  1  0  0  0  0
 21 46  1  0  0  0  0
 21 47  1  0  0  0  0
 22 23  1  0  0  0  0
 22 25  1  0  0  0  0
 22 27  1  0  0  0  0
 23 24  1  0  0  0  0
 23 48  1  0  0  0  0
 23 49  1  0  0  0  0
 24 50  1  0  0  0  0
 25 26  1  0  0  0  0
 25 51  1  0  0  0  0
 25 52  1  0  0  0  0
 26 53  1  0  0  0  0
 27 54  1  0  0  0  0
 27 55  1  0  0  0  0
 28 29  1  0  0  0  0
 28 56  1  0  0  0  0
 28 57  1  0  0  0  0
 29 58  1  0  0  0  0
 29 59  1  0  0  0  0
M  END
> <s_m_source_file>
AV-unprocessed.smi

> <i_m_source_file_index>
211

> <i_lp_mmshare_version>
43012

> <i_f3d_flags>
0

> <s_epik_input>
W0NIM11DKD1PKVtOSF1bQ0BIXShbQ0gzXSlbQ0hdMVtDSDJdW0NIMl1OKFtDSDJdW0NIMl0xKWMobltjSF1uMiljKGMyMyluW2NIXW4zW0NIXShbQ0gyXTQpW0NIMl1DNChbQ0gyXVtPSF0pW0NIMl1bT0hd

> <s_epik_cmdline>
J2VwaWtfcHl0aG9uJywgJy1waCcsICc3LjAnLCAnLXRuJywgJzgnLCAnLW1hJywgJzIwMCcsICctbWV0YWxfYmluZGluZycsICctaW1hZScsICc8aW5maWxlLm1hZT4nLCAnLW9tYWUnLCAnPG91dGZpbGUubWFlPic=

> <r_lp_tautomer_probability>
1

> <r_epik_Ionization_Penalty>
0.00335435

> <r_epik_Ionization_Penalty_Charging>
0

> <r_epik_Ionization_Penalty_Neutral>
0.00335435

> <r_epik_State_Penalty>
0.00231338

> <r_epik_Charging_Adjusted_Penalty>
0.00231338

> <i_epik_Tot_Q>
0

> <i_epik_Tot_abs_Q>
0

> <r_epik_Metal_State_Penalty>
-0

> <b_epik_Metal_Only>
0

> <s_lp_Force_Field>
OPLS_2005

> <r_lp_Energy>
41.9303

> <b_lp_Chiralities_Consistent>
1

> <s_lp_Variant>
AV-unprocessed.smi:211-1

> <Gold.Version>
5.8.1

> <Gold.Id.Protein>
6NUR|6NUR_protein|mol2

> <Gold.PLP.Fitness>
50.1773

> <Gold.PLP.PLP>
-42.9650

> <Gold.PLP.part.hbond>
-3.6747

> <Gold.PLP.part.metal>
0.0000

> <Gold.PLP.part.buried>
-7.0806

> <Gold.PLP.part.nonpolar>
-33.2543

> <Gold.PLP.part.repulsive>
0.2116

> <Gold.PLP.ligand.clash>
0.0000

> <Gold.PLP.ligand.torsion>
1.1847

> <Gold.PLP.Chemscore.Hbond>
2.8543

> <Gold.PLP.Chemscore.CHOScore>
0.0000

> <Gold.PLP.Chemscore.Metal>
0.0000

> <Gold.Chemscore.Hbonds>
donor molecule, donor type, donor heavy atom, donor atom, acceptor molecule, acceptor atom, score
      L1  H     4    33       P1 10747  0.91
      L1  H    24    50       P1  8029  1.00
      P1  H  6896  6907       L1    12  0.80

> <Gold.PLP.Chemscore.Internal.Correction>
1.0190

> <Gold.Rescore>
     Score         DG    S(hbond)    S(metal)    S(lipo)     H(rot)  DE(clash)    DE(int)     intcor
      9.61     -14.70       2.54        0.00      92.00       3.92       0.07       5.01       ----

> <Gold.Chemscore.Fitness>
9.6110

> <Gold.Chemscore.DG>
-14.6969

> <Gold.Chemscore.ZeroCoef>
-5.4800

> <Gold.Chemscore.Hbond>
2.5380

> <Gold.Chemscore.Metal>
0.0000

> <Gold.Chemscore.Lipo>
91.9970

> <Gold.Chemscore.Internal_Hbond>
0.0000

> <Gold.Chemscore.DEClash>
0.0728

> <Gold.Chemscore.DEInternal>
5.0131

> <Gold.Chemscore.Rot>
3.9155

> <Gold.Chemscore.Internal.Correction>
   9.000000E+99

> <Gold.Chemscore.Hbonds>
donor molecule, donor type, donor heavy atom, donor atom, acceptor molecule, acceptor atom, score
      L1  H     4    33       P1 10747  0.89
      L1  H    24    50       P1  8029  0.45
      P1  H  6896  6907       L1    12  0.17

> <Gold.Chemscore.Hbond.Weighted>
-8.4769

> <Gold.Chemscore.Metal.Weighted>
-0.0000

> <Gold.Chemscore.Lipo.Weighted>
-10.7637

> <Gold.Chemscore.Internal_Hbond.Weighted>
0.0000

> <Gold.Chemscore.DEClash.Weighted>
0.0728

> <Gold.Chemscore.DEInternal.Weighted>
5.0131

> <Gold.Chemscore.Rot.Weighted>
10.0236

> <Gold.Chemscore.Internal.Correction.Weighted>
   9.000000E+99

> <Gold.Protein.RotatedTorsions>
[ 6907 6896 6895 6894 ] final  -59.49 input  -60.11 | X-H torsion
[ 7974 7965 7964 7962 ] final  162.94 input  175.53 | X-H torsion
[ 8008 7997 7996 7995 ] final -127.01 input   59.86 | X-H torsion
[ 10167 10162 10161 10158 ] final   41.48 input  -65.29 | X-H torsion
[ 10718 10713 10712 10709 ] final  -74.48 input   66.30 | X-H torsion
[ 10763 10752 10751 10750 ] final  -53.52 input  -60.55 | X-H torsion
[ 11005 11000 10999 10996 ] final  170.88 input  -57.11 | X-H torsion

> <Gold.Protein.ActiveResidues>
 VAL166  LYS551  ARG553  GLY616  TRP617  ASP618  TYR619  PRO620  LYS621  CYS622 
 ASP623  PHE694  ASN695  SER759  ASP760  ASP761  ALA762  ILE779  LEU786  VAL792 
 PHE793  MET794  SER795  GLU796  ALA797  LYS798  CYS799  TRP800  GLU811  SER814 

> <Gold.Protein.RotatedAtoms>
  150.7926  134.6962  159.6523 H   0  0  0  0  0  0  0  0  0  0  0  0  # atno 6907 bound_to 6896
  152.4034  134.6245  160.0069 H   0  0  0  0  0  0  0  0  0  0  0  0  # atno 6908 bound_to 6896
  151.6509  133.3284  159.3188 H   0  0  0  0  0  0  0  0  0  0  0  0  # atno 6909 bound_to 6896
  144.7613  139.8112  143.6331 H   0  0  0  0  0  0  0  0  0  0  0  0  # atno 7974 bound_to 7965
  155.2392  140.0428  157.2972 H   0  0  0  0  0  0  0  0  0  0  0  0  # atno 8008 bound_to 7997
  154.5839  140.2408  155.7984 H   0  0  0  0  0  0  0  0  0  0  0  0  # atno 8009 bound_to 7997
  156.2213  140.2969  155.9966 H   0  0  0  0  0  0  0  0  0  0  0  0  # atno 8010 bound_to 7997
  140.3639  144.2192  150.6136 H   0  0  0  0  0  0  0  0  0  0  0  0  # atno 10167 bound_to 10162
  156.0241  130.4418  150.2899 H   0  0  0  0  0  0  0  0  0  0  0  0  # atno 10718 bound_to 10713
  154.1602  135.6476  153.4984 H   0  0  0  0  0  0  0  0  0  0  0  0  # atno 10763 bound_to 10752
  153.0113  135.5359  154.6718 H   0  0  0  0  0  0  0  0  0  0  0  0  # atno 10764 bound_to 10752
  154.6030  135.2945  155.0487 H   0  0  0  0  0  0  0  0  0  0  0  0  # atno 10765 bound_to 10752
  140.3130  134.7501  157.4006 H   0  0  0  0  0  0  0  0  0  0  0  0  # atno 11005 bound_to 11000
  146.1678  139.4816  142.9947 LP  0  0  0  0  0  0  0  0  0  0  0  0  # atno 17320 bound_to 7965
  145.6611  141.0240  143.1708 LP  0  0  0  0  0  0  0  0  0  0  0  0  # atno 17321 bound_to 7965
  140.5099  143.2293  151.8550 LP  0  0  0  0  0  0  0  0  0  0  0  0  # atno 17342 bound_to 10162
  139.4811  144.4961  151.9121 LP  0  0  0  0  0  0  0  0  0  0  0  0  # atno 17343 bound_to 10162
  157.1003  131.0194  151.3088 LP  0  0  0  0  0  0  0  0  0  0  0  0  # atno 17370 bound_to 10713
  157.4785  130.7751  149.7391 LP  0  0  0  0  0  0  0  0  0  0  0  0  # atno 17371 bound_to 10713
  140.1008  134.5475  155.8355 LP  0  0  0  0  0  0  0  0  0  0  0  0  # atno 17394 bound_to 11000
  141.2104  133.6694  156.6505 LP  0  0  0  0  0  0  0  0  0  0  0  0  # atno 17395 bound_to 11000

$$$$
