AV-unprocessed.smi:3007|AV-procd|sdf|11447|dock3
  -GOLD-   2272016373D 1   1.00000     0.00000
 Structure written by MMmdl.
 39 40  0  0  0  0  0  0  0  0  1 V2000
  152.2173  144.1302  161.6707 C   0  0  0  0  0  0  0  0  0  0  0  0
  152.0546  144.7181  160.2672 C   0  0  0  0  0  0  0  0  0  0  0  0
  151.5225  145.8233  160.1610 O   0  0  0  0  0  0  0  0  0  0  0  0
  152.4989  144.0140  159.1986 N   0  0  0  0  0  0  0  0  0  0  0  0
  153.0630  142.6647  159.3164 C   0  0  0  0  0  0  0  0  0  0  0  0
  152.0534  141.6551  158.7414 C   0  0  0  0  0  0  0  0  0  0  0  0
  151.6740  142.0040  157.2859 C   0  0  0  0  0  0  0  0  0  0  0  0
  150.5794  141.1434  156.8510 N   0  0  0  0  0  0  0  0  0  0  0  0
  150.6465  140.2352  155.8642 C   0  0  0  0  0  0  0  0  0  0  0  0
  151.6619  140.0504  155.1920 O   0  0  0  0  0  0  0  0  0  0  0  0
  149.3641  139.4275  155.5975 C   0  0  1  0  0  0  0  0  0  0  0  0
  148.8610  138.6638  156.8400 C   0  0  0  0  0  0  0  0  0  0  0  0
  148.3278  140.2806  155.0253 N   0  0  0  0  0  0  0  0  0  0  0  0
  148.3548  141.6502  154.8544 C   0  0  0  0  0  0  0  0  0  0  0  0
  147.1554  142.0215  154.3182 C   0  0  0  0  0  0  0  0  0  0  0  0
  146.4431  140.7958  154.2030 C   0  0  0  0  0  0  0  0  0  0  0  0
  147.1419  139.7586  154.6339 N   0  0  0  0  0  0  0  0  0  0  0  0
  151.2860  143.4943  157.1420 C   0  0  0  0  0  0  0  0  0  0  0  0
  152.3372  144.4096  157.7944 C   0  0  0  0  0  0  0  0  0  0  0  0
  153.2676  143.9384  161.8918 H   0  0  0  0  0  0  0  0  0  0  0  0
  151.6581  143.1991  161.7664 H   0  0  0  0  0  0  0  0  0  0  0  0
  151.8406  144.8233  162.4237 H   0  0  0  0  0  0  0  0  0  0  0  0
  154.0017  142.6139  158.7626 H   0  0  0  0  0  0  0  0  0  0  0  0
  153.3113  142.3983  160.3445 H   0  0  0  0  0  0  0  0  0  0  0  0
  152.4663  140.6468  158.7898 H   0  0  0  0  0  0  0  0  0  0  0  0
  151.1591  141.6529  159.3670 H   0  0  0  0  0  0  0  0  0  0  0  0
  152.5499  141.8135  156.6627 H   0  0  0  0  0  0  0  0  0  0  0  0
  149.7067  141.2326  157.3505 H   0  0  0  0  0  0  0  0  0  0  0  0
  149.6166  138.6810  154.8426 H   0  0  0  0  0  0  0  0  0  0  0  0
  149.6177  137.9713  157.2100 H   0  0  0  0  0  0  0  0  0  0  0  0
  147.9726  138.0782  156.6021 H   0  0  0  0  0  0  0  0  0  0  0  0
  148.6023  139.3383  157.6573 H   0  0  0  0  0  0  0  0  0  0  0  0
  149.2167  142.2412  155.1274 H   0  0  0  0  0  0  0  0  0  0  0  0
  146.8340  143.0177  154.0523 H   0  0  0  0  0  0  0  0  0  0  0  0
  145.4445  140.6302  153.8265 H   0  0  0  0  0  0  0  0  0  0  0  0
  151.1716  143.7543  156.0892 H   0  0  0  0  0  0  0  0  0  0  0  0
  150.3172  143.6728  157.6110 H   0  0  0  0  0  0  0  0  0  0  0  0
  152.0545  145.4530  157.6636 H   0  0  0  0  0  0  0  0  0  0  0  0
  153.2928  144.3025  157.2791 H   0  0  0  0  0  0  0  0  0  0  0  0
  1  2  1  0  0  0  0
  1 20  1  0  0  0  0
  1 21  1  0  0  0  0
  1 22  1  0  0  0  0
  2  3  2  0  0  0  0
  2  4  1  0  0  0  0
  4 19  1  0  0  0  0
  4  5  1  0  0  0  0
  5  6  1  0  0  0  0
  5 23  1  0  0  0  0
  5 24  1  0  0  0  0
  6  7  1  0  0  0  0
  6 25  1  0  0  0  0
  6 26  1  0  0  0  0
  7  8  1  0  0  0  0
  7 18  1  0  0  0  0
  7 27  1  0  0  0  0
  8  9  1  0  0  0  0
  8 28  1  0  0  0  0
  9 10  2  0  0  0  0
  9 11  1  0  0  0  0
 11 12  1  0  0  0  0
 11 13  1  0  0  0  0
 11 29  1  0  0  0  0
 12 30  1  0  0  0  0
 12 31  1  0  0  0  0
 12 32  1  0  0  0  0
 13 17  1  0  0  0  0
 13 14  1  0  0  0  0
 14 15  2  0  0  0  0
 14 33  1  0  0  0  0
 15 16  1  0  0  0  0
 15 34  1  0  0  0  0
 16 17  2  0  0  0  0
 16 35  1  0  0  0  0
 18 19  1  0  0  0  0
 18 36  1  0  0  0  0
 18 37  1  0  0  0  0
 19 38  1  0  0  0  0
 19 39  1  0  0  0  0
M  END
> <s_m_source_file>
AV-unprocessed.smi

> <i_m_source_file_index>
3007

> <i_lp_mmshare_version>
43012

> <i_f3d_flags>
0

> <s_epik_input>
W0NIM11DKD1PKU4xW0NIMl1bQ0gyXVtDSF0oW0NIMl1bQ0gyXTEpW05IXUMoPU8pW0NASF0oW0NIM10pbjJbY0hdW2NIXVtjSF1uMg==

> <s_epik_cmdline>
J2VwaWtfcHl0aG9uJywgJy1waCcsICc3LjAnLCAnLXRuJywgJzgnLCAnLW1hJywgJzIwMCcsICctbWV0YWxfYmluZGluZycsICctaW1hZScsICc8aW5maWxlLm1hZT4nLCAnLW9tYWUnLCAnPG91dGZpbGUubWFlPic=

> <r_lp_tautomer_probability>
1

> <r_epik_Ionization_Penalty>
4.2887e-05

> <r_epik_Ionization_Penalty_Charging>
0

> <r_epik_Ionization_Penalty_Neutral>
4.2887e-05

> <r_epik_State_Penalty>
-0

> <r_epik_Charging_Adjusted_Penalty>
0

> <i_epik_Tot_Q>
0

> <i_epik_Tot_abs_Q>
0

> <r_epik_Metal_State_Penalty>
-0

> <b_epik_Metal_Only>
0

> <s_lp_Force_Field>
OPLS_2005

> <r_lp_Energy>
24.2796

> <b_lp_Chiralities_Consistent>
1

> <s_lp_Variant>
AV-unprocessed.smi:3007-2

> <Gold.Version>
5.8.1

> <Gold.Id.Protein>
6NUR|6NUR_protein|mol2

> <Gold.PLP.Fitness>
47.7006

> <Gold.PLP.PLP>
-39.7508

> <Gold.PLP.part.hbond>
-1.9214

> <Gold.PLP.part.metal>
0.0000

> <Gold.PLP.part.buried>
-3.8328

> <Gold.PLP.part.nonpolar>
-34.4006

> <Gold.PLP.part.repulsive>
0.4358

> <Gold.PLP.ligand.clash>
0.0000

> <Gold.PLP.ligand.torsion>
0.1460

> <Gold.PLP.Chemscore.Hbond>
0.9440

> <Gold.PLP.Chemscore.CHOScore>
1.7610

> <Gold.PLP.Chemscore.Metal>
0.0000

> <Gold.Chemscore.Hbonds>
donor molecule, donor type, donor heavy atom, donor atom, acceptor molecule, acceptor atom, score
      P1  H  7989  7998       L1    10  0.98
      L1  C    14    33       P1  8028  0.73
      L1  C    16    35       P1 10175  1.00

> <Gold.PLP.Chemscore.Internal.Correction>
0.1268

> <Gold.Rescore>
     Score         DG    S(hbond)    S(metal)    S(lipo)     H(rot)  DE(clash)    DE(int)     intcor
     13.96     -15.26       0.94        0.00      88.77       1.46       0.64       0.67       ----

> <Gold.Chemscore.Fitness>
13.9567

> <Gold.Chemscore.DG>
-15.2621

> <Gold.Chemscore.ZeroCoef>
-5.4800

> <Gold.Chemscore.Hbond>
0.9370

> <Gold.Chemscore.Metal>
0.0000

> <Gold.Chemscore.Lipo>
88.7677

> <Gold.Chemscore.Internal_Hbond>
0.0000

> <Gold.Chemscore.DEClash>
0.6401

> <Gold.Chemscore.DEInternal>
0.6653

> <Gold.Chemscore.Rot>
1.4583

> <Gold.Chemscore.Internal.Correction>
   9.000000E+99

> <Gold.Chemscore.Hbonds>
donor molecule, donor type, donor heavy atom, donor atom, acceptor molecule, acceptor atom, score
      P1  H  7989  7998       L1    10  0.85

> <Gold.Chemscore.Hbond.Weighted>
-3.1295

> <Gold.Chemscore.Metal.Weighted>
-0.0000

> <Gold.Chemscore.Lipo.Weighted>
-10.3858

> <Gold.Chemscore.Internal_Hbond.Weighted>
0.0000

> <Gold.Chemscore.DEClash.Weighted>
0.6401

> <Gold.Chemscore.DEInternal.Weighted>
0.6653

> <Gold.Chemscore.Rot.Weighted>
3.7332

> <Gold.Chemscore.Internal.Correction.Weighted>
   9.000000E+99

> <Gold.Protein.RotatedTorsions>
[ 6907 6896 6895 6894 ] final  177.65 input  -60.11 | X-H torsion
[ 7974 7965 7964 7962 ] final  -11.83 input  175.53 | X-H torsion
[ 8008 7997 7996 7995 ] final  -92.56 input   59.86 | X-H torsion
[ 10167 10162 10161 10158 ] final  -90.96 input  -65.29 | X-H torsion
[ 10718 10713 10712 10709 ] final -113.98 input   66.30 | X-H torsion
[ 10763 10752 10751 10750 ] final    1.32 input  -60.55 | X-H torsion
[ 11005 11000 10999 10996 ] final   45.27 input  -57.11 | X-H torsion

> <Gold.Protein.ActiveResidues>
 VAL166  LYS551  ARG553  GLY616  TRP617  ASP618  TYR619  PRO620  LYS621  CYS622 
 ASP623  PHE694  ASN695  SER759  ASP760  ASP761  ALA762  ILE779  LEU786  VAL792 
 PHE793  MET794  SER795  GLU796  ALA797  LYS798  CYS799  TRP800  GLU811  SER814 

> <Gold.Protein.RotatedAtoms>
  151.7005  133.3311  159.3265 H   0  0  0  0  0  0  0  0  0  0  0  0  # atno 6907 bound_to 6896
  150.7738  134.6620  159.6354 H   0  0  0  0  0  0  0  0  0  0  0  0  # atno 6908 bound_to 6896
  152.3772  134.6648  160.0207 H   0  0  0  0  0  0  0  0  0  0  0  0  # atno 6909 bound_to 6896
  146.2174  140.2968  142.8372 H   0  0  0  0  0  0  0  0  0  0  0  0  # atno 7974 bound_to 7965
  154.7246  140.0508  157.0671 H   0  0  0  0  0  0  0  0  0  0  0  0  # atno 8008 bound_to 7997
  155.0382  140.3165  155.4715 H   0  0  0  0  0  0  0  0  0  0  0  0  # atno 8009 bound_to 7997
  156.2825  140.2137  156.5505 H   0  0  0  0  0  0  0  0  0  0  0  0  # atno 8010 bound_to 7997
  140.3497  143.2898  151.9740 H   0  0  0  0  0  0  0  0  0  0  0  0  # atno 10167 bound_to 10162
  156.0801  130.6002  150.8714 H   0  0  0  0  0  0  0  0  0  0  0  0  # atno 10718 bound_to 10713
  153.3095  135.6962  153.7128 H   0  0  0  0  0  0  0  0  0  0  0  0  # atno 10763 bound_to 10752
  153.6011  135.3462  155.2946 H   0  0  0  0  0  0  0  0  0  0  0  0  # atno 10764 bound_to 10752
  154.8571  135.4341  154.2230 H   0  0  0  0  0  0  0  0  0  0  0  0  # atno 10765 bound_to 10752
  140.1475  134.4503  155.8405 H   0  0  0  0  0  0  0  0  0  0  0  0  # atno 11005 bound_to 11000
  144.9086  140.7730  143.5821 LP  0  0  0  0  0  0  0  0  0  0  0  0  # atno 17320 bound_to 7965
  145.2898  139.1888  143.4746 LP  0  0  0  0  0  0  0  0  0  0  0  0  # atno 17321 bound_to 7965
  139.4828  144.6086  151.7475 LP  0  0  0  0  0  0  0  0  0  0  0  0  # atno 17342 bound_to 10162
  140.5231  144.0848  150.6029 LP  0  0  0  0  0  0  0  0  0  0  0  0  # atno 17343 bound_to 10162
  157.5914  131.0944  150.9113 LP  0  0  0  0  0  0  0  0  0  0  0  0  # atno 17370 bound_to 10713
  156.9288  130.5342  149.5279 LP  0  0  0  0  0  0  0  0  0  0  0  0  # atno 17371 bound_to 10713
  141.2194  133.6858  156.7361 LP  0  0  0  0  0  0  0  0  0  0  0  0  # atno 17394 bound_to 11000
  140.2645  134.8441  157.3790 LP  0  0  0  0  0  0  0  0  0  0  0  0  # atno 17395 bound_to 11000

$$$$
