AV-unprocessed.smi:1965|AV-procd|sdf|7942|dock3
  -GOLD-   2272010113D 1   1.00000     0.00000
 Structure written by MMmdl.
 36 38  0  0  0  0  0  0  0  0  3 V2000
  144.0909  135.4179  152.0461 O   0  0  0  0  0  0  0  0  0  0  0  0
  143.8095  134.7508  153.0409 C   0  0  0  0  0  0  0  0  0  0  0  0
  142.9686  135.1800  154.0176 N   0  5  0  0  0  0  0  0  0  0  0  0
  142.0168  136.1060  153.7985 C   0  0  0  0  0  0  0  0  0  0  0  0
  140.7459  135.9588  154.1905 N   0  0  0  0  0  0  0  0  0  0  0  0
  139.9341  137.0459  153.8618 C   0  0  0  0  0  0  0  0  0  0  0  0
  140.6021  138.0429  153.2019 C   0  0  0  0  0  0  0  0  0  0  0  0
  142.2798  137.6425  152.9693 S   0  0  0  0  0  0  0  0  0  0  0  0
  144.3569  133.5291  153.1797 N   0  0  0  0  0  0  0  0  0  0  0  0
  145.3033  132.9047  152.2645 C   0  0  2  0  0  0  0  0  0  0  0  0
  144.7231  132.5784  150.8747 C   0  0  0  0  0  0  0  0  0  0  0  0
  145.3500  131.2264  150.4796 C   0  0  0  0  0  0  0  0  0  0  0  0
  146.2863  130.8959  151.5715 N   0  3  2  0  0  0  0  0  0  0  0  0
  146.6091  129.4671  151.7765 C   0  0  0  0  0  0  0  0  0  0  0  0
  147.6501  129.3369  152.9073 C   0  0  0  0  0  0  0  0  0  0  0  0
  147.1942  130.0570  154.1935 C   0  0  0  0  0  0  0  0  0  0  0  0
  146.7876  131.5141  153.8995 C   0  0  0  0  0  0  0  0  0  0  0  0
  145.7383  131.5346  152.7767 C   0  0  1  0  0  0  0  0  0  0  0  0
  138.8897  137.0249  154.1359 H   0  0  0  0  0  0  0  0  0  0  0  0
  140.2127  138.9815  152.8372 H   0  0  0  0  0  0  0  0  0  0  0  0
  144.0993  133.0004  154.0003 H   0  0  0  0  0  0  0  0  0  0  0  0
  146.1824  133.5425  152.1510 H   0  0  0  0  0  0  0  0  0  0  0  0
  143.6364  132.4849  150.9102 H   0  0  0  0  0  0  0  0  0  0  0  0
  144.9606  133.3639  150.1563 H   0  0  0  0  0  0  0  0  0  0  0  0
  144.5741  130.4630  150.4045 H   0  0  0  0  0  0  0  0  0  0  0  0
  145.8730  131.2736  149.5240 H   0  0  0  0  0  0  0  0  0  0  0  0
  145.7025  128.9135  152.0257 H   0  0  0  0  0  0  0  0  0  0  0  0
  147.0026  129.0443  150.8515 H   0  0  0  0  0  0  0  0  0  0  0  0
  147.8449  128.2848  153.1171 H   0  0  0  0  0  0  0  0  0  0  0  0
  148.5973  129.7642  152.5751 H   0  0  0  0  0  0  0  0  0  0  0  0
  146.3461  129.5243  154.6260 H   0  0  0  0  0  0  0  0  0  0  0  0
  147.9880  130.0317  154.9408 H   0  0  0  0  0  0  0  0  0  0  0  0
  146.3874  131.9823  154.7995 H   0  0  0  0  0  0  0  0  0  0  0  0
  147.6645  132.0933  153.6070 H   0  0  0  0  0  0  0  0  0  0  0  0
  144.8554  130.9747  153.0950 H   0  0  0  0  0  0  0  0  0  0  0  0
  147.1502  131.3761  151.3643 H   0  0  0  0  0  0  0  0  0  0  0  0
  1  2  2  0  0  0  0
  2  3  1  0  0  0  0
  2  9  1  0  0  0  0
  3  4  1  0  0  0  0
  4  8  1  0  0  0  0
  4  5  2  0  0  0  0
  5  6  1  0  0  0  0
  6  7  2  0  0  0  0
  6 19  1  0  0  0  0
  7  8  1  0  0  0  0
  7 20  1  0  0  0  0
  9 10  1  0  0  0  0
  9 21  1  0  0  0  0
 10 18  1  0  0  0  0
 10 11  1  0  0  0  0
 10 22  1  0  0  0  0
 11 12  1  0  0  0  0
 11 23  1  0  0  0  0
 11 24  1  0  0  0  0
 12 13  1  0  0  0  0
 12 25  1  0  0  0  0
 12 26  1  0  0  0  0
 13 18  1  0  0  0  0
 13 14  1  0  0  0  0
 13 36  1  0  0  0  0
 14 15  1  0  0  0  0
 14 27  1  0  0  0  0
 14 28  1  0  0  0  0
 15 16  1  0  0  0  0
 15 29  1  0  0  0  0
 15 30  1  0  0  0  0
 16 17  1  0  0  0  0
 16 31  1  0  0  0  0
 16 32  1  0  0  0  0
 17 18  1  0  0  0  0
 17 33  1  0  0  0  0
 17 34  1  0  0  0  0
 18 35  1  0  0  0  0
M  CHG  1   3  -1
M  CHG  1  13   1
M  END
> <s_m_source_file>
AV-unprocessed.smi

> <i_m_source_file_index>
1965

> <i_lp_mmshare_version>
43012

> <i_f3d_flags>
0

> <s_epik_input>
czFbY0hdW2NIXW5jMVtOSF1DKD1PKVtOSF1bQ0BIXShbQ0gyXVtDSDJdMilbQ0BASF0oTjIzKVtDSDJdW0NIMl1bQ0gyXVtDSDJdMw==

> <s_epik_cmdline>
J2VwaWtfcHl0aG9uJywgJy1waCcsICc3LjAnLCAnLXRuJywgJzgnLCAnLW1hJywgJzIwMCcsICctbWV0YWxfYmluZGluZycsICctaW1hZScsICc8aW5maWxlLm1hZT4nLCAnLW9tYWUnLCAnPG91dGZpbGUubWFlPic=

> <r_lp_tautomer_probability>
1

> <r_epik_Ionization_Penalty>
7.4116

> <r_epik_Ionization_Penalty_Charging>
6.13869

> <r_epik_Ionization_Penalty_Neutral>
1.27291

> <r_epik_State_Penalty>
6.13761

> <r_epik_Charging_Adjusted_Penalty>
12.2763

> <i_epik_Tot_Q>
0

> <i_epik_Tot_abs_Q>
2

> <r_epik_Metal_State_Penalty>
2.08142

> <b_epik_Metal_Only>
1

> <s_lp_Force_Field>
OPLS_2005

> <r_lp_Energy>
26.2692

> <b_lp_Chiralities_Consistent>
1

> <s_lp_Variant>
AV-unprocessed.smi:1965-11

> <Gold.Version>
5.8.1

> <Gold.Id.Protein>
6NUR|6NUR_protein|mol2

> <Gold.PLP.Fitness>
35.4455

> <Gold.PLP.PLP>
-28.0795

> <Gold.PLP.part.hbond>
-2.9492

> <Gold.PLP.part.metal>
0.0000

> <Gold.PLP.part.buried>
-5.0384

> <Gold.PLP.part.nonpolar>
-19.9841

> <Gold.PLP.part.repulsive>
0.3206

> <Gold.PLP.ligand.clash>
0.0000

> <Gold.PLP.ligand.torsion>
0.5675

> <Gold.PLP.Chemscore.Hbond>
1.8901

> <Gold.PLP.Chemscore.CHOScore>
0.9399

> <Gold.PLP.Chemscore.Metal>
0.0000

> <Gold.Chemscore.Hbonds>
donor molecule, donor type, donor heavy atom, donor atom, acceptor molecule, acceptor atom, score
      L1  H     9    21       P1 10957  0.84
      L1  H    13    36       P1 10747  0.41
      P1  H 11000 11005       L1     5  0.45
      L1  C     7    20       P1 10160  1.00

> <Gold.PLP.Chemscore.Internal.Correction>
0.0110

> <Gold.Rescore>
     Score         DG    S(hbond)    S(metal)    S(lipo)     H(rot)  DE(clash)    DE(int)     intcor
     17.24     -18.77       2.19        0.00      72.90       1.00       0.16       1.37       ----

> <Gold.Chemscore.Fitness>
17.2405

> <Gold.Chemscore.DG>
-18.7712

> <Gold.Chemscore.ZeroCoef>
-5.4800

> <Gold.Chemscore.Hbond>
2.1923

> <Gold.Chemscore.Metal>
0.0000

> <Gold.Chemscore.Lipo>
72.8976

> <Gold.Chemscore.Internal_Hbond>
0.0000

> <Gold.Chemscore.DEClash>
0.1643

> <Gold.Chemscore.DEInternal>
1.3665

> <Gold.Chemscore.Rot>
1.0000

> <Gold.Chemscore.Internal.Correction>
   9.000000E+99

> <Gold.Chemscore.Hbonds>
donor molecule, donor type, donor heavy atom, donor atom, acceptor molecule, acceptor atom, score
      L1  H     9    21       P1 10957  0.76
      L1  H    13    36       P1 10747  0.41
      P1  H 11000 11005       L1     5  0.41

> <Gold.Chemscore.Hbond.Weighted>
-7.3222

> <Gold.Chemscore.Metal.Weighted>
-0.0000

> <Gold.Chemscore.Lipo.Weighted>
-8.5290

> <Gold.Chemscore.Internal_Hbond.Weighted>
0.0000

> <Gold.Chemscore.DEClash.Weighted>
0.1643

> <Gold.Chemscore.DEInternal.Weighted>
1.3665

> <Gold.Chemscore.Rot.Weighted>
2.5600

> <Gold.Chemscore.Internal.Correction.Weighted>
   9.000000E+99

> <Gold.Protein.RotatedTorsions>
[ 6907 6896 6895 6894 ] final   46.08 input  -60.11 | X-H torsion
[ 7974 7965 7964 7962 ] final -100.33 input  175.53 | X-H torsion
[ 8008 7997 7996 7995 ] final   -8.28 input   59.86 | X-H torsion
[ 10167 10162 10161 10158 ] final  -31.43 input  -65.29 | X-H torsion
[ 10718 10713 10712 10709 ] final   30.73 input   66.30 | X-H torsion
[ 10763 10752 10751 10750 ] final  -53.70 input  -60.55 | X-H torsion
[ 11005 11000 10999 10996 ] final   46.59 input  -57.11 | X-H torsion

> <Gold.Protein.ActiveResidues>
 VAL166  LYS551  ARG553  GLY616  TRP617  ASP618  TYR619  PRO620  LYS621  CYS622 
 ASP623  PHE694  ASN695  SER759  ASP760  ASP761  ALA762  ILE779  LEU786  VAL792 
 PHE793  MET794  SER795  GLU796  ALA797  LYS798  CYS799  TRP800  GLU811  SER814 

> <Gold.Protein.RotatedAtoms>
  152.2522  134.8121  160.0443 H   0  0  0  0  0  0  0  0  0  0  0  0  # atno 6907 bound_to 6896
  151.8797  133.3487  159.3770 H   0  0  0  0  0  0  0  0  0  0  0  0  # atno 6908 bound_to 6896
  150.7088  134.4957  159.5581 H   0  0  0  0  0  0  0  0  0  0  0  0  # atno 6909 bound_to 6896
  145.2959  140.9365  143.2851 H   0  0  0  0  0  0  0  0  0  0  0  0  # atno 7974 bound_to 7965
  154.5757  140.2385  155.8126 H   0  0  0  0  0  0  0  0  0  0  0  0  # atno 8008 bound_to 7997
  156.2141  140.3017  155.9756 H   0  0  0  0  0  0  0  0  0  0  0  0  # atno 8009 bound_to 7997
  155.2632  140.0415  157.2990 H   0  0  0  0  0  0  0  0  0  0  0  0  # atno 8010 bound_to 7997
  140.7236  143.3771  151.1669 H   0  0  0  0  0  0  0  0  0  0  0  0  # atno 10167 bound_to 10162
  157.2633  130.7172  149.6465 H   0  0  0  0  0  0  0  0  0  0  0  0  # atno 10718 bound_to 10713
  154.1631  135.6471  153.4990 H   0  0  0  0  0  0  0  0  0  0  0  0  # atno 10763 bound_to 10752
  153.0105  135.5365  154.6691 H   0  0  0  0  0  0  0  0  0  0  0  0  # atno 10764 bound_to 10752
  154.6009  135.2943  155.0508 H   0  0  0  0  0  0  0  0  0  0  0  0  # atno 10765 bound_to 10752
  140.1355  134.4650  155.8489 H   0  0  0  0  0  0  0  0  0  0  0  0  # atno 11005 bound_to 11000
  144.9134  139.4501  143.6576 LP  0  0  0  0  0  0  0  0  0  0  0  0  # atno 17320 bound_to 7965
  146.3169  139.7954  142.8976 LP  0  0  0  0  0  0  0  0  0  0  0  0  # atno 17321 bound_to 7965
  139.7353  143.9008  152.3033 LP  0  0  0  0  0  0  0  0  0  0  0  0  # atno 17342 bound_to 10162
  139.8811  144.7017  150.8877 LP  0  0  0  0  0  0  0  0  0  0  0  0  # atno 17343 bound_to 10162
  155.9664  130.4390  150.5242 LP  0  0  0  0  0  0  0  0  0  0  0  0  # atno 17370 bound_to 10713
  157.3151  131.0671  151.1973 LP  0  0  0  0  0  0  0  0  0  0  0  0  # atno 17371 bound_to 10713
  141.2177  133.6812  156.7149 LP  0  0  0  0  0  0  0  0  0  0  0  0  # atno 17394 bound_to 11000
  140.2788  134.8333  157.3914 LP  0  0  0  0  0  0  0  0  0  0  0  0  # atno 17395 bound_to 11000

$$$$
