AV-unprocessed.smi:2881|AV-procd|sdf|11069|dock10
  -GOLD-   2272015543D 1   1.00000     0.00000
 Structure written by MMmdl.
 40 42  0  0  0  0  0  0  0  0  1 V2000
  153.1556  142.4584  161.1946 C   0  0  0  0  0  0  0  0  0  0  0  0
  152.7688  141.7860  159.9104 C   0  0  0  0  0  0  0  0  0  0  0  0
  152.9947  140.4329  159.5220 C   0  0  0  0  0  0  0  0  0  0  0  0
  152.4421  140.3417  158.2749 C   0  0  0  0  0  0  0  0  0  0  0  0
  152.3403  139.1936  157.3209 C   0  0  0  0  0  0  0  0  0  0  0  0
  151.8160  139.6346  155.9508 C   0  0  0  0  0  0  0  0  0  0  0  0
  152.5957  139.8518  155.0226 O   0  0  0  0  0  0  0  0  0  0  0  0
  150.4862  139.7738  155.8393 N   0  0  0  0  0  0  0  0  0  0  0  0
  149.7870  140.1923  154.6235 C   0  0  2  0  0  0  0  0  0  0  0  0
  148.9353  141.4753  154.8103 C   0  0  2  0  0  0  0  0  0  0  0  0
  148.0190  141.3648  156.0474 C   0  0  0  0  0  0  0  0  0  0  0  0
  146.9817  140.3180  155.6032 C   0  0  0  0  0  0  0  0  0  0  0  0
  147.4201  139.9861  154.1611 C   0  0  1  0  0  0  0  0  0  0  0  0
  147.9152  141.3462  153.6837 C   0  0  0  0  0  0  0  0  0  0  0  0
  148.7327  139.1650  154.1228 C   0  0  2  0  0  0  0  0  0  0  0  0
  148.6957  137.7897  154.8266 C   0  0  0  0  0  0  0  0  0  0  0  0
  149.8630  137.0551  154.5249 O   0  0  0  0  0  0  0  0  0  0  0  0
  151.9411  141.5912  157.9864 N   0  0  0  0  0  0  0  0  0  0  0  0
  152.1334  142.4804  158.9782 N   0  0  0  0  0  0  0  0  0  0  0  0
  151.4698  141.8472  157.1304 H   0  0  0  0  0  0  0  0  0  0  0  0
  153.7357  141.7892  161.8303 H   0  0  0  0  0  0  0  0  0  0  0  0
  152.2739  142.7680  161.7561 H   0  0  0  0  0  0  0  0  0  0  0  0
  153.7615  143.3453  161.0077 H   0  0  0  0  0  0  0  0  0  0  0  0
  153.4839  139.6468  160.0781 H   0  0  0  0  0  0  0  0  0  0  0  0
  151.6644  138.4381  157.7221 H   0  0  0  0  0  0  0  0  0  0  0  0
  153.3147  138.7147  157.2131 H   0  0  0  0  0  0  0  0  0  0  0  0
  149.9175  139.5851  156.6518 H   0  0  0  0  0  0  0  0  0  0  0  0
  150.5231  140.3508  153.8326 H   0  0  0  0  0  0  0  0  0  0  0  0
  149.5225  142.3941  154.7888 H   0  0  0  0  0  0  0  0  0  0  0  0
  148.5433  141.0780  156.9589 H   0  0  0  0  0  0  0  0  0  0  0  0
  147.5305  142.3198  156.2452 H   0  0  0  0  0  0  0  0  0  0  0  0
  146.9531  139.4485  156.2578 H   0  0  0  0  0  0  0  0  0  0  0  0
  145.9827  140.7557  155.6059 H   0  0  0  0  0  0  0  0  0  0  0  0
  146.6226  139.5586  153.5526 H   0  0  0  0  0  0  0  0  0  0  0  0
  147.1456  142.1201  153.7033 H   0  0  0  0  0  0  0  0  0  0  0  0
  148.3679  141.3214  152.6907 H   0  0  0  0  0  0  0  0  0  0  0  0
  148.9565  138.9664  153.0728 H   0  0  0  0  0  0  0  0  0  0  0  0
  148.6516  137.9248  155.9077 H   0  0  0  0  0  0  0  0  0  0  0  0
  147.8210  137.2042  154.5461 H   0  0  0  0  0  0  0  0  0  0  0  0
  149.7808  136.7046  153.6513 H   0  0  0  0  0  0  0  0  0  0  0  0
  1 21  1  0  0  0  0
  1 22  1  0  0  0  0
  1 23  1  0  0  0  0
  1  2  1  0  0  0  0
  2 19  2  0  0  0  0
  2  3  1  0  0  0  0
  3  4  2  0  0  0  0
  3 24  1  0  0  0  0
  4 18  1  0  0  0  0
  4  5  1  0  0  0  0
  5  6  1  0  0  0  0
  5 25  1  0  0  0  0
  5 26  1  0  0  0  0
  6  7  2  0  0  0  0
  6  8  1  0  0  0  0
  8  9  1  0  0  0  0
  8 27  1  0  0  0  0
  9 15  1  0  0  0  0
  9 10  1  0  0  0  0
  9 28  1  0  0  0  0
 10 14  1  0  0  0  0
 10 11  1  0  0  0  0
 10 29  1  0  0  0  0
 11 12  1  0  0  0  0
 11 30  1  0  0  0  0
 11 31  1  0  0  0  0
 12 13  1  0  0  0  0
 12 32  1  0  0  0  0
 12 33  1  0  0  0  0
 13 14  1  0  0  0  0
 13 15  1  0  0  0  0
 13 34  1  0  0  0  0
 14 35  1  0  0  0  0
 14 36  1  0  0  0  0
 15 16  1  0  0  0  0
 15 37  1  0  0  0  0
 16 17  1  0  0  0  0
 16 38  1  0  0  0  0
 16 39  1  0  0  0  0
 17 40  1  0  0  0  0
 18 19  1  0  0  0  0
 18 20  1  0  0  0  0
M  END
> <s_m_source_file>
AV-unprocessed.smi

> <i_m_source_file_index>
2881

> <i_lp_mmshare_version>
43012

> <i_f3d_flags>
0

> <s_epik_input>
W0NIM11jMVtjSF1jKG5bbkhdMSlbQ0gyXUMoPU8pW05IXVtDQEhdKFtDQEBIXTIzKVtDQEhdKFtDSDJdW09IXSlbQ0BASF0oW0NIMl0zKVtDSDJdW0NIMl0y

> <s_epik_cmdline>
J2VwaWtfcHl0aG9uJywgJy1waCcsICc3LjAnLCAnLXRuJywgJzgnLCAnLW1hJywgJzIwMCcsICctbWV0YWxfYmluZGluZycsICctaW1hZScsICc8aW5maWxlLm1hZT4nLCAnLW9tYWUnLCAnPG91dGZpbGUubWFlPic=

> <r_lp_tautomer_probability>
0.5

> <r_epik_Ionization_Penalty>
0.00013396

> <r_epik_Ionization_Penalty_Charging>
0

> <r_epik_Ionization_Penalty_Neutral>
0.00013396

> <r_epik_State_Penalty>
0.41068

> <r_epik_Charging_Adjusted_Penalty>
0.41068

> <i_epik_Tot_Q>
0

> <i_epik_Tot_abs_Q>
0

> <r_epik_Metal_State_Penalty>
0.41066

> <b_epik_Metal_Only>
0

> <s_lp_Force_Field>
OPLS_2005

> <r_lp_Energy>
50.1234

> <b_lp_Chiralities_Consistent>
1

> <s_lp_Variant>
AV-unprocessed.smi:2881-15

> <Gold.Version>
5.8.1

> <Gold.Id.Protein>
6NUR|6NUR_protein|mol2

> <Gold.PLP.Fitness>
38.8799

> <Gold.PLP.PLP>
-32.1740

> <Gold.PLP.part.hbond>
-2.9401

> <Gold.PLP.part.metal>
0.0000

> <Gold.PLP.part.buried>
-3.2773

> <Gold.PLP.part.nonpolar>
-26.5163

> <Gold.PLP.part.repulsive>
0.1625

> <Gold.PLP.ligand.clash>
0.0000

> <Gold.PLP.ligand.torsion>
0.4240

> <Gold.PLP.Chemscore.Hbond>
2.5139

> <Gold.PLP.Chemscore.CHOScore>
0.0000

> <Gold.PLP.Chemscore.Metal>
0.0000

> <Gold.Chemscore.Hbonds>
donor molecule, donor type, donor heavy atom, donor atom, acceptor molecule, acceptor atom, score
      L1  H    17    40       P1  7948  1.00
      P1  H  7989  7998       L1     7  0.55
      P1  H  7997  8008       L1     7  0.89

> <Gold.PLP.Chemscore.Internal.Correction>
0.0123

> <Gold.Rescore>
     Score         DG    S(hbond)    S(metal)    S(lipo)     H(rot)  DE(clash)    DE(int)     intcor
     15.16     -15.55       1.90        0.00      81.53       2.28       0.01       0.38       ----

> <Gold.Chemscore.Fitness>
15.1638

> <Gold.Chemscore.DG>
-15.5474

> <Gold.Chemscore.ZeroCoef>
-5.4800

> <Gold.Chemscore.Hbond>
1.9024

> <Gold.Chemscore.Metal>
0.0000

> <Gold.Chemscore.Lipo>
81.5259

> <Gold.Chemscore.Internal_Hbond>
0.0000

> <Gold.Chemscore.DEClash>
0.0074

> <Gold.Chemscore.DEInternal>
0.3763

> <Gold.Chemscore.Rot>
2.2755

> <Gold.Chemscore.Internal.Correction>
   9.000000E+99

> <Gold.Chemscore.Hbonds>
donor molecule, donor type, donor heavy atom, donor atom, acceptor molecule, acceptor atom, score
      L1  H    17    40       P1  7948  0.48
      P1  H  7989  7998       L1     7  0.42
      P1  H  7997  8008       L1     7  0.44

> <Gold.Chemscore.Hbond.Weighted>
-6.3541

> <Gold.Chemscore.Metal.Weighted>
-0.0000

> <Gold.Chemscore.Lipo.Weighted>
-9.5385

> <Gold.Chemscore.Internal_Hbond.Weighted>
0.0000

> <Gold.Chemscore.DEClash.Weighted>
0.0074

> <Gold.Chemscore.DEInternal.Weighted>
0.3763

> <Gold.Chemscore.Rot.Weighted>
5.8252

> <Gold.Chemscore.Internal.Correction.Weighted>
   9.000000E+99

> <Gold.Protein.RotatedTorsions>
[ 6907 6896 6895 6894 ] final   72.23 input  -60.11 | X-H torsion
[ 7974 7965 7964 7962 ] final  123.17 input  175.53 | X-H torsion
[ 8008 7997 7996 7995 ] final  -19.26 input   59.86 | X-H torsion
[ 10167 10162 10161 10158 ] final   69.32 input  -65.29 | X-H torsion
[ 10718 10713 10712 10709 ] final   32.20 input   66.30 | X-H torsion
[ 10763 10752 10751 10750 ] final  104.93 input  -60.55 | X-H torsion
[ 11005 11000 10999 10996 ] final  161.86 input  -57.11 | X-H torsion

> <Gold.Protein.ActiveResidues>
 VAL166  LYS551  ARG553  GLY616  TRP617  ASP618  TYR619  PRO620  LYS621  CYS622 
 ASP623  PHE694  ASN695  SER759  ASP760  ASP761  ALA762  ILE779  LEU786  VAL792 
 PHE793  MET794  SER795  GLU796  ALA797  LYS798  CYS799  TRP800  GLU811  SER814 

> <Gold.Protein.RotatedAtoms>
  152.4856  134.4602  159.9602 H   0  0  0  0  0  0  0  0  0  0  0  0  # atno 6907 bound_to 6896
  151.4598  133.3589  159.2815 H   0  0  0  0  0  0  0  0  0  0  0  0  # atno 6908 bound_to 6896
  150.8964  134.8397  159.7390 H   0  0  0  0  0  0  0  0  0  0  0  0  # atno 6909 bound_to 6896
  145.0990  139.3532  143.4821 H   0  0  0  0  0  0  0  0  0  0  0  0  # atno 7974 bound_to 7965
  154.4849  140.2094  155.9678 H   0  0  0  0  0  0  0  0  0  0  0  0  # atno 8008 bound_to 7997
  156.1221  140.3211  155.8193 H   0  0  0  0  0  0  0  0  0  0  0  0  # atno 8009 bound_to 7997
  155.4449  140.0513  157.2997 H   0  0  0  0  0  0  0  0  0  0  0  0  # atno 8010 bound_to 7997
  140.0691  144.5168  150.7240 H   0  0  0  0  0  0  0  0  0  0  0  0  # atno 10167 bound_to 10162
  157.2822  130.7260  149.6563 H   0  0  0  0  0  0  0  0  0  0  0  0  # atno 10718 bound_to 10713
  153.3725  135.3927  155.1799 H   0  0  0  0  0  0  0  0  0  0  0  0  # atno 10763 bound_to 10752
  154.8696  135.3706  154.4959 H   0  0  0  0  0  0  0  0  0  0  0  0  # atno 10764 bound_to 10752
  153.5428  135.7084  153.5689 H   0  0  0  0  0  0  0  0  0  0  0  0  # atno 10765 bound_to 10752
  140.2200  134.8203  157.3210 H   0  0  0  0  0  0  0  0  0  0  0  0  # atno 11005 bound_to 11000
  146.3530  140.0859  142.8615 LP  0  0  0  0  0  0  0  0  0  0  0  0  # atno 17320 bound_to 7965
  145.0977  140.9325  143.4731 LP  0  0  0  0  0  0  0  0  0  0  0  0  # atno 17321 bound_to 7965
  140.7134  143.2524  151.4510 LP  0  0  0  0  0  0  0  0  0  0  0  0  # atno 17342 bound_to 10162
  139.5847  144.1632  152.2013 LP  0  0  0  0  0  0  0  0  0  0  0  0  # atno 17343 bound_to 10162
  155.9664  130.4334  150.5007 LP  0  0  0  0  0  0  0  0  0  0  0  0  # atno 17370 bound_to 10713
  157.2953  131.0634  151.2106 LP  0  0  0  0  0  0  0  0  0  0  0  0  # atno 17371 bound_to 10713
  140.1860  134.4431  155.7743 LP  0  0  0  0  0  0  0  0  0  0  0  0  # atno 17394 bound_to 11000
  141.2223  133.7005  156.7948 LP  0  0  0  0  0  0  0  0  0  0  0  0  # atno 17395 bound_to 11000

$$$$
