AV-unprocessed.smi:1224|AV-procd|sdf|5130|dock3
  -GOLD-   22720 4193D 1   1.00000     0.00000
 Structure written by MMmdl.
 45 47  0  0  0  0  0  0  0  0  3 V2000
  152.4620  143.4490  161.0875 C   0  0  0  0  0  0  0  0  0  0  0  0
  152.1867  142.6701  159.8124 C   0  0  0  0  0  0  0  0  0  0  0  0
  151.2692  143.2058  158.8804 C   0  0  0  0  0  0  0  0  0  0  0  0
  151.0378  142.4706  157.7241 C   0  0  0  0  0  0  0  0  0  0  0  0
  150.2035  142.7202  156.6323 N   0  3  0  0  0  0  0  0  0  0  0  0
  150.3128  141.7023  155.7343 C   0  0  0  0  0  0  0  0  0  0  0  0
  151.2099  140.8090  156.2347 N   0  0  0  0  0  0  0  0  0  0  0  0
  151.6900  139.5389  155.6732 C   0  0  0  0  0  0  0  0  0  0  0  0
  150.5572  138.5268  155.4074 C   0  0  2  0  0  0  0  0  0  0  0  0
  151.1129  137.2351  155.2512 O   0  0  0  0  0  0  0  0  0  0  0  0
  149.7663  138.8788  154.1369 C   0  0  0  0  0  0  0  0  0  0  0  0
  148.5533  138.0427  154.0072 N   0  3  0  0  0  0  0  0  0  0  0  0
  147.3944  138.7169  153.3860 C   0  0  0  0  0  0  0  0  0  0  0  0
  147.1707  140.0891  153.9343 C   0  0  0  0  0  0  0  0  0  0  0  0
  147.1653  141.2779  153.2488 C   0  0  0  0  0  0  0  0  0  0  0  0
  146.9048  142.4048  154.0826 C   0  0  0  0  0  0  0  0  0  0  0  0
  146.7152  142.0614  155.3946 C   0  0  0  0  0  0  0  0  0  0  0  0
  146.8538  140.3410  155.6326 S   0  0  0  0  0  0  0  0  0  0  0  0
  151.6838  141.2438  157.4769 C   0  0  0  0  0  0  0  0  0  0  0  0
  152.5895  140.7006  158.3846 C   0  0  0  0  0  0  0  0  0  0  0  0
  152.8373  141.4327  159.5681 C   0  0  0  0  0  0  0  0  0  0  0  0
  153.8187  140.8649  160.5795 C   0  0  0  0  0  0  0  0  0  0  0  0
  151.9146  144.3919  161.1050 H   0  0  0  0  0  0  0  0  0  0  0  0
  153.5237  143.6800  161.1750 H   0  0  0  0  0  0  0  0  0  0  0  0
  152.1594  142.8714  161.9611 H   0  0  0  0  0  0  0  0  0  0  0  0
  150.7685  144.1461  159.0608 H   0  0  0  0  0  0  0  0  0  0  0  0
  149.7849  141.6202  154.7949 H   0  0  0  0  0  0  0  0  0  0  0  0
  152.2464  139.7533  154.7598 H   0  0  0  0  0  0  0  0  0  0  0  0
  152.4084  139.1237  156.3819 H   0  0  0  0  0  0  0  0  0  0  0  0
  149.8826  138.5068  156.2644 H   0  0  0  0  0  0  0  0  0  0  0  0
  151.8859  137.1730  155.7919 H   0  0  0  0  0  0  0  0  0  0  0  0
  149.4603  139.9254  154.1707 H   0  0  0  0  0  0  0  0  0  0  0  0
  150.4026  138.7616  153.2587 H   0  0  0  0  0  0  0  0  0  0  0  0
  148.7841  137.2293  153.4540 H   0  0  0  0  0  0  0  0  0  0  0  0
  147.5737  138.7805  152.3125 H   0  0  0  0  0  0  0  0  0  0  0  0
  146.5022  138.1031  153.5147 H   0  0  0  0  0  0  0  0  0  0  0  0
  147.3348  141.3777  152.1867 H   0  0  0  0  0  0  0  0  0  0  0  0
  146.8659  143.4128  153.6965 H   0  0  0  0  0  0  0  0  0  0  0  0
  146.5041  142.7108  156.2316 H   0  0  0  0  0  0  0  0  0  0  0  0
  153.0836  139.7584  158.1993 H   0  0  0  0  0  0  0  0  0  0  0  0
  154.2110  139.8998  160.2575 H   0  0  0  0  0  0  0  0  0  0  0  0
  153.3335  140.7210  161.5451 H   0  0  0  0  0  0  0  0  0  0  0  0
  154.6640  141.5403  160.7133 H   0  0  0  0  0  0  0  0  0  0  0  0
  148.2828  137.7361  154.9305 H   0  0  0  0  0  0  0  0  0  0  0  0
  149.6002  143.5236  156.5082 H   0  0  0  0  0  0  0  0  0  0  0  0
  1  2  1  0  0  0  0
  1 23  1  0  0  0  0
  1 24  1  0  0  0  0
  1 25  1  0  0  0  0
  2 21  1  0  0  0  0
  2  3  2  0  0  0  0
  3  4  1  0  0  0  0
  3 26  1  0  0  0  0
  4 19  2  0  0  0  0
  4  5  1  0  0  0  0
  5  6  2  0  0  0  0
  5 45  1  0  0  0  0
  6  7  1  0  0  0  0
  6 27  1  0  0  0  0
  7  8  1  0  0  0  0
  7 19  1  0  0  0  0
  8  9  1  0  0  0  0
  8 28  1  0  0  0  0
  8 29  1  0  0  0  0
  9 10  1  0  0  0  0
  9 11  1  0  0  0  0
  9 30  1  0  0  0  0
 10 31  1  0  0  0  0
 11 12  1  0  0  0  0
 11 32  1  0  0  0  0
 11 33  1  0  0  0  0
 12 13  1  0  0  0  0
 12 34  1  0  0  0  0
 12 44  1  0  0  0  0
 13 14  1  0  0  0  0
 13 35  1  0  0  0  0
 13 36  1  0  0  0  0
 14 18  1  0  0  0  0
 14 15  2  0  0  0  0
 15 16  1  0  0  0  0
 15 37  1  0  0  0  0
 16 17  2  0  0  0  0
 16 38  1  0  0  0  0
 17 18  1  0  0  0  0
 17 39  1  0  0  0  0
 19 20  1  0  0  0  0
 20 21  2  0  0  0  0
 20 40  1  0  0  0  0
 21 22  1  0  0  0  0
 22 41  1  0  0  0  0
 22 42  1  0  0  0  0
 22 43  1  0  0  0  0
M  CHG  1   5   1
M  CHG  1  12   1
M  END
> <s_m_source_file>
AV-unprocessed.smi

> <i_m_source_file_index>
1224

> <i_lp_mmshare_version>
43012

> <i_f3d_flags>
0

> <s_epik_input>
W0NIM11jKFtjSF0xKWMoW0NIM10pW2NIXWMoYzEyKW4oW2NIXW4yKVtDSDJdW0NASF0oW09IXSlbQ0gyXVtOSF1bQ0gyXWMzW2NIXVtjSF1bY0hdczM=

> <s_epik_cmdline>
J2VwaWtfcHl0aG9uJywgJy1waCcsICc3LjAnLCAnLXRuJywgJzgnLCAnLW1hJywgJzIwMCcsICctbWV0YWxfYmluZGluZycsICctaW1hZScsICc8aW5maWxlLm1hZT4nLCAnLW9tYWUnLCAnPG91dGZpbGUubWFlPic=

> <r_epik_Ionization_Penalty>
1.2222

> <r_epik_Ionization_Penalty_Charging>
1.2222

> <r_epik_Ionization_Penalty_Neutral>
3.40394e-06

> <r_epik_State_Penalty>
1.23781

> <r_epik_Charging_Adjusted_Penalty>
2.46001

> <i_epik_Tot_Q>
2

> <i_epik_Tot_abs_Q>
2

> <r_epik_Metal_State_Penalty>
5.24642

> <b_epik_Metal_Only>
0

> <s_lp_Force_Field>
OPLS_2005

> <r_lp_Energy>
16.8702

> <b_lp_Chiralities_Consistent>
1

> <s_lp_Variant>
AV-unprocessed.smi:1224-3

> <Gold.Version>
5.8.1

> <Gold.Id.Protein>
6NUR|6NUR_protein|mol2

> <Gold.PLP.Fitness>
57.7667

> <Gold.PLP.PLP>
-46.5441

> <Gold.PLP.part.hbond>
-2.0000

> <Gold.PLP.part.metal>
0.0000

> <Gold.PLP.part.buried>
-6.9038

> <Gold.PLP.part.nonpolar>
-38.1987

> <Gold.PLP.part.repulsive>
0.0530

> <Gold.PLP.ligand.clash>
0.0000

> <Gold.PLP.ligand.torsion>
0.4566

> <Gold.PLP.Chemscore.Hbond>
4.0000

> <Gold.PLP.Chemscore.CHOScore>
0.0000

> <Gold.PLP.Chemscore.Metal>
0.0000

> <Gold.Chemscore.Hbonds>
donor molecule, donor type, donor heavy atom, donor atom, acceptor molecule, acceptor atom, score
      L1  H     5    45       P1  8028  2.00
      L1  H    12    34       P1  7948  2.00

> <Gold.PLP.Chemscore.Internal.Correction>
0.1359

> <Gold.Rescore>
     Score         DG    S(hbond)    S(metal)    S(lipo)     H(rot)  DE(clash)    DE(int)     intcor
     19.93     -20.46       1.96        0.00     126.94       2.50       0.04       0.50       ----

> <Gold.Chemscore.Fitness>
19.9265

> <Gold.Chemscore.DG>
-20.4644

> <Gold.Chemscore.ZeroCoef>
-5.4800

> <Gold.Chemscore.Hbond>
1.9590

> <Gold.Chemscore.Metal>
0.0000

> <Gold.Chemscore.Lipo>
126.9418

> <Gold.Chemscore.Internal_Hbond>
0.0000

> <Gold.Chemscore.DEClash>
0.0376

> <Gold.Chemscore.DEInternal>
0.5003

> <Gold.Chemscore.Rot>
2.5042

> <Gold.Chemscore.Internal.Correction>
   9.000000E+99

> <Gold.Chemscore.Hbonds>
donor molecule, donor type, donor heavy atom, donor atom, acceptor molecule, acceptor atom, score
      L1  H     5    45       P1  8028  0.98
      L1  H    12    34       P1  7948  0.98

> <Gold.Chemscore.Hbond.Weighted>
-6.5431

> <Gold.Chemscore.Metal.Weighted>
-0.0000

> <Gold.Chemscore.Lipo.Weighted>
-14.8522

> <Gold.Chemscore.Internal_Hbond.Weighted>
0.0000

> <Gold.Chemscore.DEClash.Weighted>
0.0376

> <Gold.Chemscore.DEInternal.Weighted>
0.5003

> <Gold.Chemscore.Rot.Weighted>
6.4108

> <Gold.Chemscore.Internal.Correction.Weighted>
   9.000000E+99

> <Gold.Protein.RotatedTorsions>
[ 6907 6896 6895 6894 ] final -138.10 input  -60.11 | X-H torsion
[ 7974 7965 7964 7962 ] final   33.27 input  175.53 | X-H torsion
[ 8008 7997 7996 7995 ] final  102.93 input   59.86 | X-H torsion
[ 10167 10162 10161 10158 ] final   85.17 input  -65.29 | X-H torsion
[ 10718 10713 10712 10709 ] final  112.42 input   66.30 | X-H torsion
[ 10763 10752 10751 10750 ] final  164.63 input  -60.55 | X-H torsion
[ 11005 11000 10999 10996 ] final  121.83 input  -57.11 | X-H torsion

> <Gold.Protein.ActiveResidues>
 VAL166  LYS551  ARG553  GLY616  TRP617  ASP618  TYR619  PRO620  LYS621  CYS622 
 ASP623  PHE694  ASN695  SER759  ASP760  ASP761  ALA762  ILE779  LEU786  VAL792 
 PHE793  MET794  SER795  GLU796  ALA797  LYS798  CYS799  TRP800  GLU811  SER814 

> <Gold.Protein.RotatedAtoms>
  151.0308  133.5792  159.2660 H   0  0  0  0  0  0  0  0  0  0  0  0  # atno 6907 bound_to 6896
  151.2875  135.0731  159.9202 H   0  0  0  0  0  0  0  0  0  0  0  0  # atno 6908 bound_to 6896
  152.5344  134.0012  159.7949 H   0  0  0  0  0  0  0  0  0  0  0  0  # atno 6909 bound_to 6896
  146.1431  139.6418  142.9149 H   0  0  0  0  0  0  0  0  0  0  0  0  # atno 7974 bound_to 7965
  156.1438  140.3173  155.8538 H   0  0  0  0  0  0  0  0  0  0  0  0  # atno 8008 bound_to 7997
  155.4103  140.0505  157.3049 H   0  0  0  0  0  0  0  0  0  0  0  0  # atno 8009 bound_to 7997
  154.4999  140.2125  155.9381 H   0  0  0  0  0  0  0  0  0  0  0  0  # atno 8010 bound_to 7997
  139.9005  144.6332  150.8642 H   0  0  0  0  0  0  0  0  0  0  0  0  # atno 10167 bound_to 10162
  157.6393  131.0967  150.6892 H   0  0  0  0  0  0  0  0  0  0  0  0  # atno 10718 bound_to 10713
  154.3118  135.2757  155.2562 H   0  0  0  0  0  0  0  0  0  0  0  0  # atno 10763 bound_to 10752
  154.4954  135.5822  153.6494 H   0  0  0  0  0  0  0  0  0  0  0  0  # atno 10764 bound_to 10752
  152.9887  135.6145  154.3296 H   0  0  0  0  0  0  0  0  0  0  0  0  # atno 10765 bound_to 10752
  139.9242  134.9640  156.8017 H   0  0  0  0  0  0  0  0  0  0  0  0  # atno 11005 bound_to 11000
  145.5000  141.0437  143.2546 LP  0  0  0  0  0  0  0  0  0  0  0  0  # atno 17320 bound_to 7965
  144.7815  139.6515  143.7152 LP  0  0  0  0  0  0  0  0  0  0  0  0  # atno 17321 bound_to 7965
  140.7708  143.3440  151.2149 LP  0  0  0  0  0  0  0  0  0  0  0  0  # atno 17342 bound_to 10162
  139.7029  143.9503  152.2914 LP  0  0  0  0  0  0  0  0  0  0  0  0  # atno 17343 bound_to 10162
  156.7218  130.4683  149.5521 LP  0  0  0  0  0  0  0  0  0  0  0  0  # atno 17370 bound_to 10713
  156.1660  130.6405  151.0778 LP  0  0  0  0  0  0  0  0  0  0  0  0  # atno 17371 bound_to 10713
  140.6384  133.9841  155.7695 LP  0  0  0  0  0  0  0  0  0  0  0  0  # atno 17394 bound_to 11000
  141.0787  134.0095  157.3418 LP  0  0  0  0  0  0  0  0  0  0  0  0  # atno 17395 bound_to 11000

$$$$
