AV-unprocessed.smi:1601|AV-procd|sdf|6432|dock5
  -GOLD-   22720 7 73D 1   1.00000     0.00000
 Structure written by MMmdl.
 41 42  0  0  0  0  0  0  0  0  1 V2000
  149.9482  134.7524  156.1014 C   0  0  0  0  0  0  0  0  0  0  0  0
  149.3005  135.6697  155.0328 C   0  0  1  0  0  0  0  0  0  0  0  0
  147.7634  135.4226  155.0306 C   0  0  0  0  0  0  0  0  0  0  0  0
  147.1679  135.5045  153.6998 N   0  0  0  0  0  0  0  0  0  0  0  0
  145.9146  135.1332  153.3928 C   0  0  0  0  0  0  0  0  0  0  0  0
  145.1321  134.6679  154.2225 O   0  0  0  0  0  0  0  0  0  0  0  0
  145.4846  135.3329  151.9297 C   0  0  2  0  0  0  0  0  0  0  0  0
  144.2876  136.2939  151.7815 C   0  0  0  0  0  0  0  0  0  0  0  0
  145.2352  134.0484  151.2856 N   0  0  0  0  0  0  0  0  0  0  0  0
  144.1002  133.6422  150.6132 C   0  0  0  0  0  0  0  0  0  0  0  0
  144.3248  132.3753  150.1564 C   0  0  0  0  0  0  0  0  0  0  0  0
  145.6475  132.0880  150.5932 C   0  0  0  0  0  0  0  0  0  0  0  0
  146.1912  133.0903  151.2636 N   0  0  0  0  0  0  0  0  0  0  0  0
  149.6687  137.0954  155.1992 N   0  0  0  0  0  0  0  0  0  0  0  0
  151.0834  137.3459  154.8978 C   0  0  0  0  0  0  0  0  0  0  0  0
  151.4722  138.8288  155.0253 C   0  0  0  0  0  0  0  0  0  0  0  0
  150.6483  139.6134  154.1748 O   0  0  0  0  0  0  0  0  0  0  0  0
  149.2701  139.4655  154.4854 C   0  0  0  0  0  0  0  0  0  0  0  0
  148.8633  137.9874  154.3564 C   0  0  0  0  0  0  0  0  0  0  0  0
  149.6380  133.7131  155.9994 H   0  0  0  0  0  0  0  0  0  0  0  0
  149.6849  135.0743  157.1094 H   0  0  0  0  0  0  0  0  0  0  0  0
  151.0344  134.7312  156.0262 H   0  0  0  0  0  0  0  0  0  0  0  0
  149.6803  135.3424  154.0637 H   0  0  0  0  0  0  0  0  0  0  0  0
  147.5457  134.4355  155.4398 H   0  0  0  0  0  0  0  0  0  0  0  0
  147.2287  136.1376  155.6541 H   0  0  0  0  0  0  0  0  0  0  0  0
  147.7488  135.8745  152.9617 H   0  0  0  0  0  0  0  0  0  0  0  0
  146.3289  135.7925  151.4132 H   0  0  0  0  0  0  0  0  0  0  0  0
  144.5083  137.2671  152.2210 H   0  0  0  0  0  0  0  0  0  0  0  0
  143.3898  135.9081  152.2662 H   0  0  0  0  0  0  0  0  0  0  0  0
  144.0502  136.4585  150.7303 H   0  0  0  0  0  0  0  0  0  0  0  0
  143.2349  134.2816  150.5172 H   0  0  0  0  0  0  0  0  0  0  0  0
  143.6489  131.7496  149.5927 H   0  0  0  0  0  0  0  0  0  0  0  0
  146.2253  131.1883  150.4422 H   0  0  0  0  0  0  0  0  0  0  0  0
  151.7249  136.7899  155.5790 H   0  0  0  0  0  0  0  0  0  0  0  0
  151.3138  136.9984  153.8896 H   0  0  0  0  0  0  0  0  0  0  0  0
  151.3729  139.1679  156.0575 H   0  0  0  0  0  0  0  0  0  0  0  0
  152.5147  138.9720  154.7405 H   0  0  0  0  0  0  0  0  0  0  0  0
  149.0743  139.8333  155.4938 H   0  0  0  0  0  0  0  0  0  0  0  0
  148.6841  140.0797  153.8016 H   0  0  0  0  0  0  0  0  0  0  0  0
  148.9416  137.6804  153.3123 H   0  0  0  0  0  0  0  0  0  0  0  0
  147.8114  137.9286  154.6269 H   0  0  0  0  0  0  0  0  0  0  0  0
  1  2  1  0  0  0  0
  1 20  1  0  0  0  0
  1 21  1  0  0  0  0
  1 22  1  0  0  0  0
  2  3  1  0  0  0  0
  2 14  1  0  0  0  0
  2 23  1  0  0  0  0
  3  4  1  0  0  0  0
  3 24  1  0  0  0  0
  3 25  1  0  0  0  0
  4  5  1  0  0  0  0
  4 26  1  0  0  0  0
  5  6  2  0  0  0  0
  5  7  1  0  0  0  0
  7  8  1  0  0  0  0
  7  9  1  0  0  0  0
  7 27  1  0  0  0  0
  8 28  1  0  0  0  0
  8 29  1  0  0  0  0
  8 30  1  0  0  0  0
  9 13  1  0  0  0  0
  9 10  1  0  0  0  0
 10 11  2  0  0  0  0
 10 31  1  0  0  0  0
 11 12  1  0  0  0  0
 11 32  1  0  0  0  0
 12 13  2  0  0  0  0
 12 33  1  0  0  0  0
 14 19  1  0  0  0  0
 14 15  1  0  0  0  0
 15 16  1  0  0  0  0
 15 34  1  0  0  0  0
 15 35  1  0  0  0  0
 16 17  1  0  0  0  0
 16 36  1  0  0  0  0
 16 37  1  0  0  0  0
 17 18  1  0  0  0  0
 18 19  1  0  0  0  0
 18 38  1  0  0  0  0
 18 39  1  0  0  0  0
 19 40  1  0  0  0  0
 19 41  1  0  0  0  0
M  END
> <s_m_source_file>
AV-unprocessed.smi

> <i_m_source_file_index>
1601

> <i_lp_mmshare_version>
43012

> <i_f3d_flags>
0

> <s_epik_input>
W0NIMl0xW0NIMl1PW0NIMl1bQ0gyXU4xW0NASF0oW0NIM10pW0NIMl1bTkhdQyg9TylbQ0BIXShbQ0gzXSluMltjSF1bY0hdW2NIXW4y

> <s_epik_cmdline>
J2VwaWtfcHl0aG9uJywgJy1waCcsICc3LjAnLCAnLXRuJywgJzgnLCAnLW1hJywgJzIwMCcsICctbWV0YWxfYmluZGluZycsICctaW1hZScsICc8aW5maWxlLm1hZT4nLCAnLW9tYWUnLCAnPG91dGZpbGUubWFlPic=

> <r_lp_tautomer_probability>
1

> <r_epik_Ionization_Penalty>
0.203323

> <r_epik_Ionization_Penalty_Charging>
0

> <r_epik_Ionization_Penalty_Neutral>
0.203323

> <r_epik_State_Penalty>
0.193192

> <r_epik_Charging_Adjusted_Penalty>
0.193192

> <i_epik_Tot_Q>
0

> <i_epik_Tot_abs_Q>
0

> <r_epik_Metal_State_Penalty>
0.193187

> <b_epik_Metal_Only>
0

> <s_lp_Force_Field>
OPLS_2005

> <r_lp_Energy>
32.6682

> <b_lp_Chiralities_Consistent>
1

> <s_lp_Variant>
AV-unprocessed.smi:1601-2

> <Gold.Version>
5.8.1

> <Gold.Id.Protein>
6NUR|6NUR_protein|mol2

> <Gold.PLP.Fitness>
39.1103

> <Gold.PLP.PLP>
-28.3849

> <Gold.PLP.part.hbond>
-2.0000

> <Gold.PLP.part.metal>
0.0000

> <Gold.PLP.part.buried>
-2.9432

> <Gold.PLP.part.nonpolar>
-24.4394

> <Gold.PLP.part.repulsive>
0.5460

> <Gold.PLP.ligand.clash>
0.0000

> <Gold.PLP.ligand.torsion>
0.6942

> <Gold.PLP.Chemscore.Hbond>
2.0000

> <Gold.PLP.Chemscore.CHOScore>
1.9933

> <Gold.PLP.Chemscore.Metal>
0.0000

> <Gold.Chemscore.Hbonds>
donor molecule, donor type, donor heavy atom, donor atom, acceptor molecule, acceptor atom, score
      L1  H     4    26       P1  7948  1.00
      P1  H  7989  7998       L1    17  1.00
      L1  C    10    31       P1 10186  1.00
      L1  C    12    33       P1 10747  0.41

> <Gold.PLP.Chemscore.Internal.Correction>
0.1337

> <Gold.Rescore>
     Score         DG    S(hbond)    S(metal)    S(lipo)     H(rot)  DE(clash)    DE(int)     intcor
     14.96     -15.53       1.97        0.00      68.82       1.79       0.01       0.57       ----

> <Gold.Chemscore.Fitness>
14.9581

> <Gold.Chemscore.DG>
-15.5337

> <Gold.Chemscore.ZeroCoef>
-5.4800

> <Gold.Chemscore.Hbond>
1.9690

> <Gold.Chemscore.Metal>
0.0000

> <Gold.Chemscore.Lipo>
68.8238

> <Gold.Chemscore.Internal_Hbond>
0.0000

> <Gold.Chemscore.DEClash>
0.0060

> <Gold.Chemscore.DEInternal>
0.5697

> <Gold.Chemscore.Rot>
1.7872

> <Gold.Chemscore.Internal.Correction>
   9.000000E+99

> <Gold.Chemscore.Hbonds>
donor molecule, donor type, donor heavy atom, donor atom, acceptor molecule, acceptor atom, score
      L1  H     4    26       P1  7948  1.00
      P1  H  7989  7998       L1    17  0.65

> <Gold.Chemscore.Hbond.Weighted>
-6.5766

> <Gold.Chemscore.Metal.Weighted>
-0.0000

> <Gold.Chemscore.Lipo.Weighted>
-8.0524

> <Gold.Chemscore.Internal_Hbond.Weighted>
0.0000

> <Gold.Chemscore.DEClash.Weighted>
0.0060

> <Gold.Chemscore.DEInternal.Weighted>
0.5697

> <Gold.Chemscore.Rot.Weighted>
4.5752

> <Gold.Chemscore.Internal.Correction.Weighted>
   9.000000E+99

> <Gold.Protein.RotatedTorsions>
[ 6907 6896 6895 6894 ] final  -18.60 input  -60.11 | X-H torsion
[ 7974 7965 7964 7962 ] final   77.55 input  175.53 | X-H torsion
[ 8008 7997 7996 7995 ] final   95.30 input   59.86 | X-H torsion
[ 10167 10162 10161 10158 ] final   -8.14 input  -65.29 | X-H torsion
[ 10718 10713 10712 10709 ] final -133.05 input   66.30 | X-H torsion
[ 10763 10752 10751 10750 ] final -120.92 input  -60.55 | X-H torsion
[ 11005 11000 10999 10996 ] final   59.18 input  -57.11 | X-H torsion

> <Gold.Protein.ActiveResidues>
 VAL166  LYS551  ARG553  GLY616  TRP617  ASP618  TYR619  PRO620  LYS621  CYS622 
 ASP623  PHE694  ASN695  SER759  ASP760  ASP761  ALA762  ILE779  LEU786  VAL792 
 PHE793  MET794  SER795  GLU796  ALA797  LYS798  CYS799  TRP800  GLU811  SER814 

> <Gold.Protein.RotatedAtoms>
  151.2757  135.0698  159.9150 H   0  0  0  0  0  0  0  0  0  0  0  0  # atno 6907 bound_to 6896
  152.5343  134.0083  159.7937 H   0  0  0  0  0  0  0  0  0  0  0  0  # atno 6908 bound_to 6896
  151.0329  133.5724  159.2690 H   0  0  0  0  0  0  0  0  0  0  0  0  # atno 6909 bound_to 6896
  145.6886  139.2545  143.1773 H   0  0  0  0  0  0  0  0  0  0  0  0  # atno 7974 bound_to 7965
  156.0673  140.3288  155.7533 H   0  0  0  0  0  0  0  0  0  0  0  0  # atno 8008 bound_to 7997
  155.5361  140.0597  157.2897 H   0  0  0  0  0  0  0  0  0  0  0  0  # atno 8009 bound_to 7997
  154.4512  140.1919  156.0532 H   0  0  0  0  0  0  0  0  0  0  0  0  # atno 8010 bound_to 7997
  140.7050  143.6002  150.8806 H   0  0  0  0  0  0  0  0  0  0  0  0  # atno 10167 bound_to 10162
  156.2409  130.7095  151.0955 H   0  0  0  0  0  0  0  0  0  0  0  0  # atno 10718 bound_to 10713
  154.8656  135.4186  154.2536 H   0  0  0  0  0  0  0  0  0  0  0  0  # atno 10763 bound_to 10752
  153.3478  135.6997  153.6819 H   0  0  0  0  0  0  0  0  0  0  0  0  # atno 10764 bound_to 10752
  153.5771  135.3580  155.2833 H   0  0  0  0  0  0  0  0  0  0  0  0  # atno 10765 bound_to 10752
  140.0323  134.5994  155.9490 H   0  0  0  0  0  0  0  0  0  0  0  0  # atno 11005 bound_to 11000
  146.0902  140.7664  142.9599 LP  0  0  0  0  0  0  0  0  0  0  0  0  # atno 17320 bound_to 7965
  144.7004  140.3625  143.7161 LP  0  0  0  0  0  0  0  0  0  0  0  0  # atno 17321 bound_to 7965
  139.9726  143.6039  152.2968 LP  0  0  0  0  0  0  0  0  0  0  0  0  # atno 17342 bound_to 10162
  139.6632  144.7662  151.1923 LP  0  0  0  0  0  0  0  0  0  0  0  0  # atno 17343 bound_to 10162
  157.7174  131.0701  150.6271 LP  0  0  0  0  0  0  0  0  0  0  0  0  # atno 17370 bound_to 10713
  156.6344  130.4441  149.5775 LP  0  0  0  0  0  0  0  0  0  0  0  0  # atno 17371 bound_to 10713
  141.1838  133.6551  156.5130 LP  0  0  0  0  0  0  0  0  0  0  0  0  # atno 17394 bound_to 11000
  140.4205  134.7191  157.4887 LP  0  0  0  0  0  0  0  0  0  0  0  0  # atno 17395 bound_to 11000

$$$$
