AV-unprocessed.smi:513|AV-procd|sdf|2774|dock1
  -GOLD-   2262023243D 1   1.00000     0.00000
 Structure written by MMmdl.
 42 44  0  0  0  0  0  0  0  0  3 V2000
  152.7797  136.7436  162.6479 C   0  0  0  0  0  0  0  0  0  0  0  0
  153.6114  137.8804  162.4967 O   0  0  0  0  0  0  0  0  0  0  0  0
  153.6702  138.3332  161.1551 C   0  0  0  0  0  0  0  0  0  0  0  0
  152.4721  139.2513  160.8881 C   0  0  0  0  0  0  0  0  0  0  0  0
  152.3439  139.5594  159.4655 N   0  0  0  0  0  0  0  0  0  0  0  0
  152.3152  140.7817  158.8664 C   0  0  0  0  0  0  0  0  0  0  0  0
  152.4309  141.9727  159.5862 N   0  0  0  0  0  0  0  0  0  0  0  0
  152.0580  143.2779  159.0465 C   0  0  0  0  0  0  0  0  0  0  0  0
  151.1600  144.0536  160.0277 C   0  0  0  0  0  0  0  0  0  0  0  0
  151.8209  144.1929  161.3422 N   0  3  0  0  0  0  0  0  0  0  0  0
  152.2875  142.8998  161.8839 C   0  0  0  0  0  0  0  0  0  0  0  0
  153.1519  142.1628  160.8442 C   0  0  0  0  0  0  0  0  0  0  0  0
  152.1084  140.7506  157.5490 N   0  0  0  0  0  0  0  0  0  0  0  0
  152.0170  139.3941  157.2788 C   0  0  0  0  0  0  0  0  0  0  0  0
  152.1383  138.6573  158.4156 C   0  0  0  0  0  0  0  0  0  0  0  0
  152.0251  137.1817  158.4526 C   0  0  0  0  0  0  0  0  0  0  0  0
  152.1023  136.5646  159.5127 O   0  0  0  0  0  0  0  0  0  0  0  0
  151.8229  136.6466  157.2072 N   0  5  0  0  0  0  0  0  0  0  0  0
  151.7051  137.3541  156.0303 C   0  0  0  0  0  0  0  0  0  0  0  0
  151.5181  136.7928  154.9500 O   0  0  0  0  0  0  0  0  0  0  0  0
  151.7941  138.7213  156.0467 N   0  0  0  0  0  0  0  0  0  0  0  0
  151.6622  139.5007  154.8124 C   0  0  0  0  0  0  0  0  0  0  0  0
  152.7705  136.4324  163.6923 H   0  0  0  0  0  0  0  0  0  0  0  0
  153.1434  135.9067  162.0505 H   0  0  0  0  0  0  0  0  0  0  0  0
  151.7530  136.9647  162.3532 H   0  0  0  0  0  0  0  0  0  0  0  0
  154.6031  138.8703  160.9765 H   0  0  0  0  0  0  0  0  0  0  0  0
  153.6456  137.4783  160.4774 H   0  0  0  0  0  0  0  0  0  0  0  0
  151.5635  138.7858  161.2540 H   0  0  0  0  0  0  0  0  0  0  0  0
  152.5541  140.1725  161.4615 H   0  0  0  0  0  0  0  0  0  0  0  0
  152.9618  143.8471  158.8252 H   0  0  0  0  0  0  0  0  0  0  0  0
  151.5336  143.1468  158.0991 H   0  0  0  0  0  0  0  0  0  0  0  0
  150.9281  145.0435  159.6340 H   0  0  0  0  0  0  0  0  0  0  0  0
  150.2116  143.5308  160.1603 H   0  0  0  0  0  0  0  0  0  0  0  0
  152.6245  144.7938  161.2275 H   0  0  0  0  0  0  0  0  0  0  0  0
  152.8552  143.0762  162.7975 H   0  0  0  0  0  0  0  0  0  0  0  0
  151.4202  142.2975  162.1568 H   0  0  0  0  0  0  0  0  0  0  0  0
  153.5021  141.2078  161.2344 H   0  0  0  0  0  0  0  0  0  0  0  0
  154.0538  142.7419  160.6414 H   0  0  0  0  0  0  0  0  0  0  0  0
  152.4009  139.1820  154.0756 H   0  0  0  0  0  0  0  0  0  0  0  0
  151.8048  140.5690  154.9716 H   0  0  0  0  0  0  0  0  0  0  0  0
  150.6696  139.3633  154.3816 H   0  0  0  0  0  0  0  0  0  0  0  0
  151.1821  144.6215  161.9968 H   0  0  0  0  0  0  0  0  0  0  0  0
  1  2  1  0  0  0  0
  1 23  1  0  0  0  0
  1 24  1  0  0  0  0
  1 25  1  0  0  0  0
  2  3  1  0  0  0  0
  3  4  1  0  0  0  0
  3 26  1  0  0  0  0
  3 27  1  0  0  0  0
  4  5  1  0  0  0  0
  4 28  1  0  0  0  0
  4 29  1  0  0  0  0
  5 15  1  0  0  0  0
  5  6  1  0  0  0  0
  6  7  1  0  0  0  0
  6 13  2  0  0  0  0
  7 12  1  0  0  0  0
  7  8  1  0  0  0  0
  8  9  1  0  0  0  0
  8 30  1  0  0  0  0
  8 31  1  0  0  0  0
  9 10  1  0  0  0  0
  9 32  1  0  0  0  0
  9 33  1  0  0  0  0
 10 11  1  0  0  0  0
 10 34  1  0  0  0  0
 10 42  1  0  0  0  0
 11 12  1  0  0  0  0
 11 35  1  0  0  0  0
 11 36  1  0  0  0  0
 12 37  1  0  0  0  0
 12 38  1  0  0  0  0
 13 14  1  0  0  0  0
 14 21  1  0  0  0  0
 14 15  2  0  0  0  0
 15 16  1  0  0  0  0
 16 17  2  0  0  0  0
 16 18  1  0  0  0  0
 18 19  1  0  0  0  0
 19 20  2  0  0  0  0
 19 21  1  0  0  0  0
 21 22  1  0  0  0  0
 22 39  1  0  0  0  0
 22 40  1  0  0  0  0
 22 41  1  0  0  0  0
M  CHG  1  10   1
M  CHG  1  18  -1
M  END
> <s_m_source_file>
AV-unprocessed.smi

> <i_m_source_file_index>
513

> <i_lp_mmshare_version>
43012

> <i_f3d_flags>
0

> <s_epik_input>
W0NIM11uMWMoPU8pW25IXWMoPU8pYyhjMTIpbihbQ0gyXVtDSDJdT1tDSDNdKWMobjIpTjNbQ0gyXVtDSDJdW05IXVtDSDJdW0NIMl0z

> <s_epik_cmdline>
J2VwaWtfcHl0aG9uJywgJy1waCcsICc3LjAnLCAnLXRuJywgJzgnLCAnLW1hJywgJzIwMCcsICctbWV0YWxfYmluZGluZycsICctaW1hZScsICc8aW5maWxlLm1hZT4nLCAnLW9tYWUnLCAnPG91dGZpbGUubWFlPic=

> <r_epik_Ionization_Penalty>
5.91573

> <r_epik_Ionization_Penalty_Charging>
0.0691516

> <r_epik_Ionization_Penalty_Neutral>
5.84657

> <r_epik_State_Penalty>
5.85298

> <r_epik_Charging_Adjusted_Penalty>
5.92213

> <i_epik_Tot_Q>
0

> <i_epik_Tot_abs_Q>
2

> <r_epik_Metal_State_Penalty>
1.81849

> <b_epik_Metal_Only>
1

> <s_lp_Force_Field>
OPLS_2005

> <r_lp_Energy>
49.8146

> <b_lp_Chiralities_Consistent>
1

> <s_lp_Variant>
AV-unprocessed.smi:513-3

> <Gold.Version>
5.8.1

> <Gold.Id.Protein>
6NUR|6NUR_protein|mol2

> <Gold.PLP.Fitness>
42.1385

> <Gold.PLP.PLP>
-36.6698

> <Gold.PLP.part.hbond>
-2.0919

> <Gold.PLP.part.metal>
0.0000

> <Gold.PLP.part.buried>
-5.1422

> <Gold.PLP.part.nonpolar>
-29.2095

> <Gold.PLP.part.repulsive>
0.1508

> <Gold.PLP.ligand.clash>
0.3298

> <Gold.PLP.ligand.torsion>
0.3799

> <Gold.PLP.Chemscore.Hbond>
2.0000

> <Gold.PLP.Chemscore.CHOScore>
0.0000

> <Gold.PLP.Chemscore.Metal>
0.0000

> <Gold.Chemscore.Hbonds>
donor molecule, donor type, donor heavy atom, donor atom, acceptor molecule, acceptor atom, score
      P1  H  6896  6907       L1    17  1.00
      P1  H 10752 10764       L1    20  0.90

> <Gold.PLP.Chemscore.Internal.Correction>
0.5583

> <Gold.Rescore>
     Score         DG    S(hbond)    S(metal)    S(lipo)     H(rot)  DE(clash)    DE(int)     intcor
     13.87     -16.94       1.82        0.00      79.94       1.55       1.54       1.53       ----

> <Gold.Chemscore.Fitness>
13.8651

> <Gold.Chemscore.DG>
-16.9374

> <Gold.Chemscore.ZeroCoef>
-5.4800

> <Gold.Chemscore.Hbond>
1.8200

> <Gold.Chemscore.Metal>
0.0000

> <Gold.Chemscore.Lipo>
79.9416

> <Gold.Chemscore.Internal_Hbond>
0.0000

> <Gold.Chemscore.DEClash>
1.5375

> <Gold.Chemscore.DEInternal>
1.5349

> <Gold.Chemscore.Rot>
1.5526

> <Gold.Chemscore.Internal.Correction>
   9.000000E+99

> <Gold.Chemscore.Hbonds>
donor molecule, donor type, donor heavy atom, donor atom, acceptor molecule, acceptor atom, score
      P1  H  6896  6907       L1    17  0.93
      P1  H 10752 10764       L1    20  0.26

> <Gold.Chemscore.Hbond.Weighted>
-6.0788

> <Gold.Chemscore.Metal.Weighted>
-0.0000

> <Gold.Chemscore.Lipo.Weighted>
-9.3532

> <Gold.Chemscore.Internal_Hbond.Weighted>
0.0000

> <Gold.Chemscore.DEClash.Weighted>
1.5375

> <Gold.Chemscore.DEInternal.Weighted>
1.5349

> <Gold.Chemscore.Rot.Weighted>
3.9745

> <Gold.Chemscore.Internal.Correction.Weighted>
   9.000000E+99

> <Gold.Protein.RotatedTorsions>
[ 6907 6896 6895 6894 ] final   17.26 input  -60.11 | X-H torsion
[ 7974 7965 7964 7962 ] final -156.28 input  175.53 | X-H torsion
[ 8008 7997 7996 7995 ] final   60.44 input   59.86 | X-H torsion
[ 10167 10162 10161 10158 ] final  111.26 input  -65.29 | X-H torsion
[ 10718 10713 10712 10709 ] final  159.62 input   66.30 | X-H torsion
[ 10763 10752 10751 10750 ] final  -38.64 input  -60.55 | X-H torsion
[ 11005 11000 10999 10996 ] final  -82.07 input  -57.11 | X-H torsion

> <Gold.Protein.ActiveResidues>
 VAL166  LYS551  ARG553  GLY616  TRP617  ASP618  TYR619  PRO620  LYS621  CYS622 
 ASP623  PHE694  ASN695  SER759  ASP760  ASP761  ALA762  ILE779  LEU786  VAL792 
 PHE793  MET794  SER795  GLU796  ALA797  LYS798  CYS799  TRP800  GLU811  SER814 

> <Gold.Protein.RotatedAtoms>
  151.8468  135.0571  160.0454 H   0  0  0  0  0  0  0  0  0  0  0  0  # atno 6907 bound_to 6896
  152.2767  133.5427  159.5480 H   0  0  0  0  0  0  0  0  0  0  0  0  # atno 6908 bound_to 6896
  150.7173  134.0538  159.3850 H   0  0  0  0  0  0  0  0  0  0  0  0  # atno 6909 bound_to 6896
  144.7600  140.4131  143.5983 H   0  0  0  0  0  0  0  0  0  0  0  0  # atno 7974 bound_to 7965
  155.5824  140.3491  155.4544 H   0  0  0  0  0  0  0  0  0  0  0  0  # atno 8008 bound_to 7997
  156.0363  140.1286  157.0229 H   0  0  0  0  0  0  0  0  0  0  0  0  # atno 8009 bound_to 7997
  154.4373  140.1033  156.6158 H   0  0  0  0  0  0  0  0  0  0  0  0  # atno 8010 bound_to 7997
  139.6625  144.7128  151.1838 H   0  0  0  0  0  0  0  0  0  0  0  0  # atno 10167 bound_to 10162
  157.1617  131.0589  151.2229 H   0  0  0  0  0  0  0  0  0  0  0  0  # atno 10718 bound_to 10713
  153.9162  135.6787  153.4749 H   0  0  0  0  0  0  0  0  0  0  0  0  # atno 10763 bound_to 10752
  153.1052  135.4809  154.8936 H   0  0  0  0  0  0  0  0  0  0  0  0  # atno 10764 bound_to 10752
  154.7501  135.3182  154.8528 H   0  0  0  0  0  0  0  0  0  0  0  0  # atno 10765 bound_to 10752
  141.1664  133.7226  156.8516 H   0  0  0  0  0  0  0  0  0  0  0  0  # atno 11005 bound_to 11000
  145.6650  139.1588  143.2787 LP  0  0  0  0  0  0  0  0  0  0  0  0  # atno 17320 bound_to 7965
  146.1653  140.6727  142.9258 LP  0  0  0  0  0  0  0  0  0  0  0  0  # atno 17321 bound_to 7965
  140.7586  143.5972  150.8736 LP  0  0  0  0  0  0  0  0  0  0  0  0  # atno 17342 bound_to 10162
  139.9630  143.6142  152.2996 LP  0  0  0  0  0  0  0  0  0  0  0  0  # atno 17343 bound_to 10162
  157.4126  130.7393  149.6851 LP  0  0  0  0  0  0  0  0  0  0  0  0  # atno 17370 bound_to 10713
  155.9753  130.4091  150.3862 LP  0  0  0  0  0  0  0  0  0  0  0  0  # atno 17371 bound_to 10713
  140.1911  134.8964  157.3062 LP  0  0  0  0  0  0  0  0  0  0  0  0  # atno 17394 bound_to 11000
  140.2289  134.3933  155.7531 LP  0  0  0  0  0  0  0  0  0  0  0  0  # atno 17395 bound_to 11000

$$$$
