AV-unprocessed.smi:3352|AV-procd|sdf|12952|dock3
  -GOLD-   2272019393D 1   1.00000     0.00000
 Structure written by MMmdl.
 38 39  0  0  0  0  0  0  0  0  1 V2000
  152.9878  145.0436  157.3492 C   0  0  0  0  0  0  0  0  0  0  0  0
  151.7796  144.4013  158.0462 C   0  0  0  0  0  0  0  0  0  0  0  0
  151.1509  145.3245  159.0995 C   0  0  0  0  0  0  0  0  0  0  0  0
  152.1115  143.0564  158.6143 C   0  0  0  0  0  0  0  0  0  0  0  0
  153.0032  142.8729  159.5922 N   0  0  0  0  0  0  0  0  0  0  0  0
  153.1447  141.5284  159.9526 C   0  0  0  0  0  0  0  0  0  0  0  0
  154.1027  141.1396  161.0405 C   0  0  0  0  0  0  0  0  0  0  0  0
  153.8898  142.0223  162.2709 C   0  0  0  0  0  0  0  0  0  0  0  0
  153.0395  142.9123  162.2491 O   0  0  0  0  0  0  0  0  0  0  0  0
  154.6669  141.7640  163.3344 N   0  0  0  0  0  0  0  0  0  0  0  0
  154.6219  142.4795  164.6042 C   0  0  0  0  0  0  0  0  0  0  0  0
  155.6507  141.9247  165.6033 C   0  0  1  0  0  0  0  0  0  0  0  0
  155.2393  142.1010  167.0643 C   0  0  0  0  0  0  0  0  0  0  0  0
  156.0169  140.9937  167.7376 C   0  0  0  0  0  0  0  0  0  0  0  0
  155.9121  139.8739  166.7072 C   0  0  0  0  0  0  0  0  0  0  0  0
  155.8216  140.5179  165.4392 O   0  0  0  0  0  0  0  0  0  0  0  0
  152.3466  140.6859  159.2189 C   0  0  0  0  0  0  0  0  0  0  0  0
  151.3846  141.5519  158.0538 S   0  0  0  0  0  0  0  0  0  0  0  0
  153.3748  144.3972  156.5608 H   0  0  0  0  0  0  0  0  0  0  0  0
  153.7992  145.2351  158.0522 H   0  0  0  0  0  0  0  0  0  0  0  0
  152.7158  145.9951  156.8915 H   0  0  0  0  0  0  0  0  0  0  0  0
  151.0227  144.2429  157.2764 H   0  0  0  0  0  0  0  0  0  0  0  0
  150.2536  144.8761  159.5274 H   0  0  0  0  0  0  0  0  0  0  0  0
  150.8647  146.2811  158.6619 H   0  0  0  0  0  0  0  0  0  0  0  0
  151.8444  145.5274  159.9161 H   0  0  0  0  0  0  0  0  0  0  0  0
  153.9606  140.0949  161.3204 H   0  0  0  0  0  0  0  0  0  0  0  0
  155.1363  141.2278  160.7023 H   0  0  0  0  0  0  0  0  0  0  0  0
  155.3392  141.0145  163.2570 H   0  0  0  0  0  0  0  0  0  0  0  0
  154.8445  143.5264  164.3969 H   0  0  0  0  0  0  0  0  0  0  0  0
  153.6172  142.4567  165.0298 H   0  0  0  0  0  0  0  0  0  0  0  0
  156.6211  142.4000  165.4496 H   0  0  0  0  0  0  0  0  0  0  0  0
  155.4758  143.0906  167.4566 H   0  0  0  0  0  0  0  0  0  0  0  0
  154.1686  141.9308  167.1875 H   0  0  0  0  0  0  0  0  0  0  0  0
  157.0583  141.2919  167.8664 H   0  0  0  0  0  0  0  0  0  0  0  0
  155.6155  140.7160  168.7124 H   0  0  0  0  0  0  0  0  0  0  0  0
  156.7602  139.1903  166.7481 H   0  0  0  0  0  0  0  0  0  0  0  0
  155.0016  139.2945  166.8653 H   0  0  0  0  0  0  0  0  0  0  0  0
  152.2656  139.6116  159.2956 H   0  0  0  0  0  0  0  0  0  0  0  0
  1  2  1  0  0  0  0
  1 19  1  0  0  0  0
  1 20  1  0  0  0  0
  1 21  1  0  0  0  0
  2  3  1  0  0  0  0
  2  4  1  0  0  0  0
  2 22  1  0  0  0  0
  3 23  1  0  0  0  0
  3 24  1  0  0  0  0
  3 25  1  0  0  0  0
  4 18  1  0  0  0  0
  4  5  2  0  0  0  0
  5  6  1  0  0  0  0
  6  7  1  0  0  0  0
  6 17  2  0  0  0  0
  7  8  1  0  0  0  0
  7 26  1  0  0  0  0
  7 27  1  0  0  0  0
  8  9  2  0  0  0  0
  8 10  1  0  0  0  0
 10 11  1  0  0  0  0
 10 28  1  0  0  0  0
 11 12  1  0  0  0  0
 11 29  1  0  0  0  0
 11 30  1  0  0  0  0
 12 16  1  0  0  0  0
 12 13  1  0  0  0  0
 12 31  1  0  0  0  0
 13 14  1  0  0  0  0
 13 32  1  0  0  0  0
 13 33  1  0  0  0  0
 14 15  1  0  0  0  0
 14 34  1  0  0  0  0
 14 35  1  0  0  0  0
 15 16  1  0  0  0  0
 15 36  1  0  0  0  0
 15 37  1  0  0  0  0
 17 18  1  0  0  0  0
 17 38  1  0  0  0  0
M  END
> <s_m_source_file>
AV-unprocessed.smi

> <i_m_source_file_index>
3352

> <i_lp_mmshare_version>
43012

> <i_f3d_flags>
0

> <s_epik_input>
W0NIM11bQ0hdKFtDSDNdKWMxbmMoW2NIXXMxKVtDSDJdQyg9TylbTkhdW0NIMl1bQ0BASF0yW0NIMl1bQ0gyXVtDSDJdTzI=

> <s_epik_cmdline>
J2VwaWtfcHl0aG9uJywgJy1waCcsICc3LjAnLCAnLXRuJywgJzgnLCAnLW1hJywgJzIwMCcsICctbWV0YWxfYmluZGluZycsICctaW1hZScsICc8aW5maWxlLm1hZT4nLCAnLW9tYWUnLCAnPG91dGZpbGUubWFlPic=

> <r_lp_tautomer_probability>
1

> <r_epik_Ionization_Penalty>
4.66014e-05

> <r_epik_Ionization_Penalty_Charging>
0

> <r_epik_Ionization_Penalty_Neutral>
4.66014e-05

> <r_epik_State_Penalty>
-0

> <r_epik_Charging_Adjusted_Penalty>
0

> <i_epik_Tot_Q>
0

> <i_epik_Tot_abs_Q>
0

> <r_epik_Metal_State_Penalty>
-0

> <b_epik_Metal_Only>
0

> <s_lp_Force_Field>
OPLS_2005

> <r_lp_Energy>
9.02769

> <b_lp_Chiralities_Consistent>
1

> <s_lp_Variant>
AV-unprocessed.smi:3352-2

> <Gold.Version>
5.8.1

> <Gold.Id.Protein>
6NUR|6NUR_protein|mol2

> <Gold.PLP.Fitness>
41.7912

> <Gold.PLP.PLP>
-42.6510

> <Gold.PLP.part.hbond>
-1.0000

> <Gold.PLP.part.metal>
0.0000

> <Gold.PLP.part.buried>
-5.9626

> <Gold.PLP.part.nonpolar>
-34.7779

> <Gold.PLP.part.repulsive>
0.1309

> <Gold.PLP.ligand.clash>
0.0000

> <Gold.PLP.ligand.torsion>
0.4639

> <Gold.PLP.Chemscore.Hbond>
0.0000

> <Gold.PLP.Chemscore.CHOScore>
0.0000

> <Gold.PLP.Chemscore.Metal>
0.0000

> <Gold.PLP.Chemscore.Internal.Correction>
0.0680

> <Gold.Rescore>
     Score         DG    S(hbond)    S(metal)    S(lipo)     H(rot)  DE(clash)    DE(int)     intcor
     12.54     -14.78       0.00        0.00     113.41       1.55       0.09       2.14       ----

> <Gold.Chemscore.Fitness>
12.5417

> <Gold.Chemscore.DG>
-14.7765

> <Gold.Chemscore.ZeroCoef>
-5.4800

> <Gold.Chemscore.Hbond>
0.0000

> <Gold.Chemscore.Metal>
0.0000

> <Gold.Chemscore.Lipo>
113.4114

> <Gold.Chemscore.Internal_Hbond>
0.0000

> <Gold.Chemscore.DEClash>
0.0930

> <Gold.Chemscore.DEInternal>
2.1418

> <Gold.Chemscore.Rot>
1.5518

> <Gold.Chemscore.Internal.Correction>
   9.000000E+99

> <Gold.Chemscore.Hbond.Weighted>
-0.0000

> <Gold.Chemscore.Metal.Weighted>
-0.0000

> <Gold.Chemscore.Lipo.Weighted>
-13.2691

> <Gold.Chemscore.Internal_Hbond.Weighted>
0.0000

> <Gold.Chemscore.DEClash.Weighted>
0.0930

> <Gold.Chemscore.DEInternal.Weighted>
2.1418

> <Gold.Chemscore.Rot.Weighted>
3.9727

> <Gold.Chemscore.Internal.Correction.Weighted>
   9.000000E+99

> <Gold.Protein.RotatedTorsions>
[ 6907 6896 6895 6894 ] final  111.52 input  -60.11 | X-H torsion
[ 7974 7965 7964 7962 ] final  102.58 input  175.53 | X-H torsion
[ 8008 7997 7996 7995 ] final   36.52 input   59.86 | X-H torsion
[ 10167 10162 10161 10158 ] final  -33.47 input  -65.29 | X-H torsion
[ 10718 10713 10712 10709 ] final  113.59 input   66.30 | X-H torsion
[ 10763 10752 10751 10750 ] final   17.35 input  -60.55 | X-H torsion
[ 11005 11000 10999 10996 ] final    8.17 input  -57.11 | X-H torsion

> <Gold.Protein.ActiveResidues>
 VAL166  LYS551  ARG553  GLY616  TRP617  ASP618  TYR619  PRO620  LYS621  CYS622 
 ASP623  PHE694  ASN695  SER759  ASP760  ASP761  ALA762  ILE779  LEU786  VAL792 
 PHE793  MET794  SER795  GLU796  ALA797  LYS798  CYS799  TRP800  GLU811  SER814 

> <Gold.Protein.RotatedAtoms>
  152.4965  133.8646  159.7267 H   0  0  0  0  0  0  0  0  0  0  0  0  # atno 6907 bound_to 6896
  150.9148  133.6943  159.2852 H   0  0  0  0  0  0  0  0  0  0  0  0  # atno 6908 bound_to 6896
  151.4340  135.1017  159.9703 H   0  0  0  0  0  0  0  0  0  0  0  0  # atno 6909 bound_to 6896
  145.3572  139.2426  143.3526 H   0  0  0  0  0  0  0  0  0  0  0  0  # atno 7974 bound_to 7965
  155.1888  140.3306  155.4362 H   0  0  0  0  0  0  0  0  0  0  0  0  # atno 8008 bound_to 7997
  156.2450  140.1914  156.6932 H   0  0  0  0  0  0  0  0  0  0  0  0  # atno 8009 bound_to 7997
  154.6220  140.0594  156.9613 H   0  0  0  0  0  0  0  0  0  0  0  0  # atno 8010 bound_to 7997
  140.7204  143.3618  151.1948 H   0  0  0  0  0  0  0  0  0  0  0  0  # atno 10167 bound_to 10162
  157.6329  131.0986  150.7063 H   0  0  0  0  0  0  0  0  0  0  0  0  # atno 10718 bound_to 10713
  153.1347  135.6747  153.9121 H   0  0  0  0  0  0  0  0  0  0  0  0  # atno 10763 bound_to 10752
  153.8597  135.3083  155.3438 H   0  0  0  0  0  0  0  0  0  0  0  0  # atno 10764 bound_to 10752
  154.7738  135.4925  153.9784 H   0  0  0  0  0  0  0  0  0  0  0  0  # atno 10765 bound_to 10752
  140.5400  134.0383  155.7901 H   0  0  0  0  0  0  0  0  0  0  0  0  # atno 11005 bound_to 11000
  146.2943  140.4199  142.8728 LP  0  0  0  0  0  0  0  0  0  0  0  0  # atno 17320 bound_to 7965
  144.8673  140.7224  143.6069 LP  0  0  0  0  0  0  0  0  0  0  0  0  # atno 17321 bound_to 7965
  139.7172  143.9282  152.2971 LP  0  0  0  0  0  0  0  0  0  0  0  0  # atno 17342 bound_to 10162
  139.9026  144.6903  150.8648 LP  0  0  0  0  0  0  0  0  0  0  0  0  # atno 17343 bound_to 10162
  156.7399  130.4736  149.5480 LP  0  0  0  0  0  0  0  0  0  0  0  0  # atno 17370 bound_to 10713
  156.1547  130.6333  151.0641 LP  0  0  0  0  0  0  0  0  0  0  0  0  # atno 17371 bound_to 10713
  141.1232  133.9426  157.2687 LP  0  0  0  0  0  0  0  0  0  0  0  0  # atno 17394 bound_to 11000
  139.9509  135.0175  156.8990 LP  0  0  0  0  0  0  0  0  0  0  0  0  # atno 17395 bound_to 11000

$$$$
