AV-unprocessed.smi:2734|AV-procd|sdf|10538|dock2
  -GOLD-   2272014583D 1   1.00000     0.00000
 Structure written by MMmdl.
 40 42  0  0  0  0  0  0  0  0  1 V2000
  152.8426  143.2623  161.5470 C   0  0  0  0  0  0  0  0  0  0  0  0
  152.3378  142.8621  160.1718 C   0  0  0  0  0  0  0  0  0  0  0  0
  152.7602  141.6338  159.6154 C   0  0  0  0  0  0  0  0  0  0  0  0
  152.3178  141.2274  158.3375 C   0  0  0  0  0  0  0  0  0  0  0  0
  152.6055  140.0869  157.6075 N   0  0  0  0  0  0  0  0  0  0  0  0
  151.8994  140.2925  156.4995 C   0  0  0  0  0  0  0  0  0  0  0  0
  151.1876  141.4333  156.4246 N   0  0  0  0  0  0  0  0  0  0  0  0
  150.3552  141.8701  155.3183 C   0  0  0  0  0  0  0  0  0  0  0  0
  149.3239  140.8060  154.8934 C   0  0  1  0  0  0  0  0  0  0  0  0
  149.9631  139.9161  154.0011 O   0  0  0  0  0  0  0  0  0  0  0  0
  148.7380  140.0080  156.0733 C   0  0  0  0  0  0  0  0  0  0  0  0
  147.2599  139.0597  155.6021 S   0  0  0  0  0  0  0  0  0  0  0  0
  146.7596  138.4828  157.1953 C   0  0  0  0  0  0  0  0  0  0  0  0
  147.3916  138.6847  158.3463 N   0  0  0  0  0  0  0  0  0  0  0  0
  146.6033  138.0377  159.2787 N   0  0  0  0  0  0  0  0  0  0  0  0
  145.5669  137.4853  158.7182 N   0  0  0  0  0  0  0  0  0  0  0  0
  145.6514  137.7585  157.3934 N   0  0  0  0  0  0  0  0  0  0  0  0
  144.6435  137.2858  156.4653 C   0  0  0  0  0  0  0  0  0  0  0  0
  151.4313  142.0887  157.6273 C   0  0  0  0  0  0  0  0  0  0  0  0
  151.0022  143.3122  158.1713 C   0  0  0  0  0  0  0  0  0  0  0  0
  151.4568  143.7049  159.4474 C   0  0  0  0  0  0  0  0  0  0  0  0
  150.9941  145.0320  160.0219 C   0  0  0  0  0  0  0  0  0  0  0  0
  153.5006  142.5008  161.9670 H   0  0  0  0  0  0  0  0  0  0  0  0
  152.0087  143.4000  162.2357 H   0  0  0  0  0  0  0  0  0  0  0  0
  153.4038  144.1952  161.4903 H   0  0  0  0  0  0  0  0  0  0  0  0
  153.4329  140.9925  160.1657 H   0  0  0  0  0  0  0  0  0  0  0  0
  151.9018  139.5739  155.6929 H   0  0  0  0  0  0  0  0  0  0  0  0
  149.8477  142.7888  155.6163 H   0  0  0  0  0  0  0  0  0  0  0  0
  151.0021  142.1314  154.4796 H   0  0  0  0  0  0  0  0  0  0  0  0
  148.5119  141.2943  154.3532 H   0  0  0  0  0  0  0  0  0  0  0  0
  149.5030  139.9398  153.1756 H   0  0  0  0  0  0  0  0  0  0  0  0
  149.4899  139.3292  156.4781 H   0  0  0  0  0  0  0  0  0  0  0  0
  148.4482  140.6853  156.8764 H   0  0  0  0  0  0  0  0  0  0  0  0
  144.1779  138.1363  155.9668 H   0  0  0  0  0  0  0  0  0  0  0  0
  143.8739  136.7190  156.9907 H   0  0  0  0  0  0  0  0  0  0  0  0
  145.1077  136.6433  155.7169 H   0  0  0  0  0  0  0  0  0  0  0  0
  150.3343  143.9465  157.6075 H   0  0  0  0  0  0  0  0  0  0  0  0
  150.3174  145.5468  159.3393 H   0  0  0  0  0  0  0  0  0  0  0  0
  151.8465  145.6865  160.2044 H   0  0  0  0  0  0  0  0  0  0  0  0
  150.4661  144.8782  160.9633 H   0  0  0  0  0  0  0  0  0  0  0  0
  1  2  1  0  0  0  0
  1 23  1  0  0  0  0
  1 24  1  0  0  0  0
  1 25  1  0  0  0  0
  2 21  1  0  0  0  0
  2  3  2  0  0  0  0
  3  4  1  0  0  0  0
  3 26  1  0  0  0  0
  4 19  2  0  0  0  0
  4  5  1  0  0  0  0
  5  6  2  0  0  0  0
  6  7  1  0  0  0  0
  6 27  1  0  0  0  0
  7  8  1  0  0  0  0
  7 19  1  0  0  0  0
  8  9  1  0  0  0  0
  8 28  1  0  0  0  0
  8 29  1  0  0  0  0
  9 10  1  0  0  0  0
  9 11  1  0  0  0  0
  9 30  1  0  0  0  0
 10 31  1  0  0  0  0
 11 12  1  0  0  0  0
 11 32  1  0  0  0  0
 11 33  1  0  0  0  0
 12 13  1  0  0  0  0
 13 17  1  0  0  0  0
 13 14  2  0  0  0  0
 14 15  1  0  0  0  0
 15 16  2  0  0  0  0
 16 17  1  0  0  0  0
 17 18  1  0  0  0  0
 18 34  1  0  0  0  0
 18 35  1  0  0  0  0
 18 36  1  0  0  0  0
 19 20  1  0  0  0  0
 20 21  2  0  0  0  0
 20 37  1  0  0  0  0
 21 22  1  0  0  0  0
 22 38  1  0  0  0  0
 22 39  1  0  0  0  0
 22 40  1  0  0  0  0
M  END
> <s_m_source_file>
AV-unprocessed.smi

> <i_m_source_file_index>
2734

> <i_lp_mmshare_version>
43012

> <i_f3d_flags>
0

> <s_epik_input>
W0NIM11jKFtjSF0xKWMoW0NIM10pW2NIXWMoYzEyKW4oW2NIXW4yKVtDSDJdW0NASF0oW09IXSlbQ0gyXVNjM25ubm4zW0NIM10=

> <s_epik_cmdline>
J2VwaWtfcHl0aG9uJywgJy1waCcsICc3LjAnLCAnLXRuJywgJzgnLCAnLW1hJywgJzIwMCcsICctbWV0YWxfYmluZGluZycsICctaW1hZScsICc8aW5maWxlLm1hZT4nLCAnLW9tYWUnLCAnPG91dGZpbGUubWFlPic=

> <r_lp_tautomer_probability>
1

> <r_epik_Ionization_Penalty>
0.105517

> <r_epik_Ionization_Penalty_Charging>
0

> <r_epik_Ionization_Penalty_Neutral>
0.105517

> <r_epik_State_Penalty>
0.0953887

> <r_epik_Charging_Adjusted_Penalty>
0.0953887

> <i_epik_Tot_Q>
0

> <i_epik_Tot_abs_Q>
0

> <r_epik_Metal_State_Penalty>
0.0808533

> <b_epik_Metal_Only>
0

> <s_lp_Force_Field>
OPLS_2005

> <r_lp_Energy>
9.84292

> <b_lp_Chiralities_Consistent>
1

> <s_lp_Variant>
AV-unprocessed.smi:2734-2

> <Gold.Version>
5.8.1

> <Gold.Id.Protein>
6NUR|6NUR_protein|mol2

> <Gold.PLP.Fitness>
45.3160

> <Gold.PLP.PLP>
-35.8221

> <Gold.PLP.part.hbond>
-5.0000

> <Gold.PLP.part.metal>
0.0000

> <Gold.PLP.part.buried>
-3.8749

> <Gold.PLP.part.nonpolar>
-25.7820

> <Gold.PLP.part.repulsive>
0.0000

> <Gold.PLP.ligand.clash>
0.0000

> <Gold.PLP.ligand.torsion>
0.4234

> <Gold.PLP.Chemscore.Hbond>
3.4320

> <Gold.PLP.Chemscore.CHOScore>
0.0000

> <Gold.PLP.Chemscore.Metal>
0.0000

> <Gold.Chemscore.Hbonds>
donor molecule, donor type, donor heavy atom, donor atom, acceptor molecule, acceptor atom, score
      L1  H    10    31       P1  7957  0.94
      P1  H  6934  6947       L1    15  0.59
      P1  H  7989  7998       L1    10  0.88
      P1  H  7997  8008       L1     5  1.00

> <Gold.PLP.Chemscore.Internal.Correction>
0.0448

> <Gold.Rescore>
     Score         DG    S(hbond)    S(metal)    S(lipo)     H(rot)  DE(clash)    DE(int)     intcor
     13.63     -16.20       1.86        0.00     100.69       2.85       2.07       0.50       ----

> <Gold.Chemscore.Fitness>
13.6338

> <Gold.Chemscore.DG>
-16.1954

> <Gold.Chemscore.ZeroCoef>
-5.4800

> <Gold.Chemscore.Hbond>
1.8616

> <Gold.Chemscore.Metal>
0.0000

> <Gold.Chemscore.Lipo>
100.6941

> <Gold.Chemscore.Internal_Hbond>
0.0000

> <Gold.Chemscore.DEClash>
2.0651

> <Gold.Chemscore.DEInternal>
0.4965

> <Gold.Chemscore.Rot>
2.8452

> <Gold.Chemscore.Internal.Correction>
   9.000000E+99

> <Gold.Chemscore.Hbonds>
donor molecule, donor type, donor heavy atom, donor atom, acceptor molecule, acceptor atom, score
      L1  H    10    31       P1  7957  0.87
      P1  H  6934  6947       L1    15  0.12
      P1  H  7989  7998       L1    10  0.08
      P1  H  7997  8008       L1     5  0.24

> <Gold.Chemscore.Hbond.Weighted>
-6.2179

> <Gold.Chemscore.Metal.Weighted>
-0.0000

> <Gold.Chemscore.Lipo.Weighted>
-11.7812

> <Gold.Chemscore.Internal_Hbond.Weighted>
0.0000

> <Gold.Chemscore.DEClash.Weighted>
2.0651

> <Gold.Chemscore.DEInternal.Weighted>
0.4965

> <Gold.Chemscore.Rot.Weighted>
7.2837

> <Gold.Chemscore.Internal.Correction.Weighted>
   9.000000E+99

> <Gold.Protein.RotatedTorsions>
[ 6907 6896 6895 6894 ] final  -86.29 input  -60.11 | X-H torsion
[ 7974 7965 7964 7962 ] final  -99.89 input  175.53 | X-H torsion
[ 8008 7997 7996 7995 ] final  -74.34 input   59.86 | X-H torsion
[ 10167 10162 10161 10158 ] final -177.34 input  -65.29 | X-H torsion
[ 10718 10713 10712 10709 ] final   27.68 input   66.30 | X-H torsion
[ 10763 10752 10751 10750 ] final -151.26 input  -60.55 | X-H torsion
[ 11005 11000 10999 10996 ] final  -33.69 input  -57.11 | X-H torsion

> <Gold.Protein.ActiveResidues>
 VAL166  LYS551  ARG553  GLY616  TRP617  ASP618  TYR619  PRO620  LYS621  CYS622 
 ASP623  PHE694  ASN695  SER759  ASP760  ASP761  ALA762  ILE779  LEU786  VAL792 
 PHE793  MET794  SER795  GLU796  ALA797  LYS798  CYS799  TRP800  GLU811  SER814 

> <Gold.Protein.RotatedAtoms>
  150.6867  134.3073  159.4731 H   0  0  0  0  0  0  0  0  0  0  0  0  # atno 6907 bound_to 6896
  152.0963  134.9370  160.0580 H   0  0  0  0  0  0  0  0  0  0  0  0  # atno 6908 bound_to 6896
  152.0666  133.4052  159.4478 H   0  0  0  0  0  0  0  0  0  0  0  0  # atno 6909 bound_to 6896
  145.3017  140.9379  143.2820 H   0  0  0  0  0  0  0  0  0  0  0  0  # atno 7974 bound_to 7965
  154.5323  140.0763  156.8366 H   0  0  0  0  0  0  0  0  0  0  0  0  # atno 8008 bound_to 7997
  155.3350  140.3404  155.4221 H   0  0  0  0  0  0  0  0  0  0  0  0  # atno 8009 bound_to 7997
  156.1793  140.1647  156.8290 H   0  0  0  0  0  0  0  0  0  0  0  0  # atno 8010 bound_to 7997
  139.5485  144.2172  152.1033 H   0  0  0  0  0  0  0  0  0  0  0  0  # atno 10167 bound_to 10162
  157.2234  130.6990  149.6280 H   0  0  0  0  0  0  0  0  0  0  0  0  # atno 10718 bound_to 10713
  154.8069  135.3264  154.7408 H   0  0  0  0  0  0  0  0  0  0  0  0  # atno 10763 bound_to 10752
  153.8064  135.6899  153.4852 H   0  0  0  0  0  0  0  0  0  0  0  0  # atno 10764 bound_to 10752
  153.1820  135.4583  154.9985 H   0  0  0  0  0  0  0  0  0  0  0  0  # atno 10765 bound_to 10752
  140.9655  133.7139  156.1438 H   0  0  0  0  0  0  0  0  0  0  0  0  # atno 11005 bound_to 11000
  144.9088  139.4555  143.6597 LP  0  0  0  0  0  0  0  0  0  0  0  0  # atno 17320 bound_to 7965
  146.3150  139.7884  142.8991 LP  0  0  0  0  0  0  0  0  0  0  0  0  # atno 17321 bound_to 7965
  140.1663  144.4978  150.6604 LP  0  0  0  0  0  0  0  0  0  0  0  0  # atno 17342 bound_to 10162
  140.6740  143.2297  151.5553 LP  0  0  0  0  0  0  0  0  0  0  0  0  # atno 17343 bound_to 10162
  155.9680  130.4512  150.5727 LP  0  0  0  0  0  0  0  0  0  0  0  0  # atno 17370 bound_to 10713
  157.3552  131.0740  151.1681 LP  0  0  0  0  0  0  0  0  0  0  0  0  # atno 17371 bound_to 10713
  140.7405  134.4155  157.5555 LP  0  0  0  0  0  0  0  0  0  0  0  0  # atno 17394 bound_to 11000
  139.8893  134.8834  156.2429 LP  0  0  0  0  0  0  0  0  0  0  0  0  # atno 17395 bound_to 11000

$$$$
