AV-unprocessed.smi:704|AV-procd|sdf|3443|dock1
  -GOLD-   22720 0433D 1   1.00000     0.00000
 Structure written by MMmdl.
 38 39  0  0  0  0  0  0  0  0  1 V2000
  151.0595  138.4711  154.8353 C   0  0  0  0  0  0  0  0  0  0  0  0
  149.7627  138.3091  154.2712 O   0  0  0  0  0  0  0  0  0  0  0  0
  148.9613  139.4259  154.1289 C   0  0  0  0  0  0  0  0  0  0  0  0
  149.3835  140.5965  154.6699 N   0  0  0  0  0  0  0  0  0  0  0  0
  148.6051  141.6888  154.5268 C   0  0  0  0  0  0  0  0  0  0  0  0
  147.3785  141.6758  153.8380 C   0  0  0  0  0  0  0  0  0  0  0  0
  146.9375  140.4629  153.2775 C   0  0  0  0  0  0  0  0  0  0  0  0
  147.7363  139.3043  153.4323 C   0  0  0  0  0  0  0  0  0  0  0  0
  147.3917  138.0375  152.8869 N   0  0  0  0  0  0  0  0  0  0  0  0
  146.1720  137.4877  152.7664 C   0  0  0  0  0  0  0  0  0  0  0  0
  145.1188  138.0004  153.1453 O   0  0  0  0  0  0  0  0  0  0  0  0
  146.2417  136.2744  152.2017 N   0  0  0  0  0  0  0  0  0  0  0  0
  145.0971  135.3938  151.9619 C   0  0  1  0  0  0  0  0  0  0  0  0
  144.7204  135.3651  150.4683 C   0  0  0  0  0  0  0  0  0  0  0  0
  144.4152  133.9044  150.1138 C   0  0  0  0  0  0  0  0  0  0  0  0
  144.3743  133.1490  151.4451 C   0  0  0  0  0  0  0  0  0  0  0  0
  145.3099  133.9169  152.3909 C   0  0  1  0  0  0  0  0  0  0  0  0
  146.7606  133.4005  152.2728 C   0  0  0  0  0  0  0  0  0  0  0  0
  147.0797  132.7477  151.1524 N   0  0  0  0  0  0  0  0  0  0  0  0
  147.5768  133.5792  153.1754 O   0  0  0  0  0  0  0  0  0  0  0  0
  151.5569  137.5023  154.8805 H   0  0  0  0  0  0  0  0  0  0  0  0
  151.0062  138.8627  155.8522 H   0  0  0  0  0  0  0  0  0  0  0  0
  151.6794  139.1326  154.2284 H   0  0  0  0  0  0  0  0  0  0  0  0
  148.9746  142.6023  154.9687 H   0  0  0  0  0  0  0  0  0  0  0  0
  146.7915  142.5766  153.7374 H   0  0  0  0  0  0  0  0  0  0  0  0
  146.0081  140.4477  152.7295 H   0  0  0  0  0  0  0  0  0  0  0  0
  148.1722  137.4532  152.6243 H   0  0  0  0  0  0  0  0  0  0  0  0
  147.1493  135.9246  151.9310 H   0  0  0  0  0  0  0  0  0  0  0  0
  144.2374  135.7835  152.5109 H   0  0  0  0  0  0  0  0  0  0  0  0
  143.8549  136.0025  150.2833 H   0  0  0  0  0  0  0  0  0  0  0  0
  145.5301  135.7349  149.8375 H   0  0  0  0  0  0  0  0  0  0  0  0
  143.4825  133.8006  149.5587 H   0  0  0  0  0  0  0  0  0  0  0  0
  145.2119  133.5049  149.4850 H   0  0  0  0  0  0  0  0  0  0  0  0
  143.3604  133.1737  151.8465 H   0  0  0  0  0  0  0  0  0  0  0  0
  144.6448  132.0986  151.3273 H   0  0  0  0  0  0  0  0  0  0  0  0
  144.9840  133.7838  153.4240 H   0  0  0  0  0  0  0  0  0  0  0  0
  148.0165  132.3932  151.0241 H   0  0  0  0  0  0  0  0  0  0  0  0
  146.3824  132.6144  150.4344 H   0  0  0  0  0  0  0  0  0  0  0  0
  1  2  1  0  0  0  0
  1 21  1  0  0  0  0
  1 22  1  0  0  0  0
  1 23  1  0  0  0  0
  2  3  1  0  0  0  0
  3  8  1  0  0  0  0
  3  4  2  0  0  0  0
  4  5  1  0  0  0  0
  5  6  2  0  0  0  0
  5 24  1  0  0  0  0
  6  7  1  0  0  0  0
  6 25  1  0  0  0  0
  7  8  2  0  0  0  0
  7 26  1  0  0  0  0
  8  9  1  0  0  0  0
  9 10  1  0  0  0  0
  9 27  1  0  0  0  0
 10 11  2  0  0  0  0
 10 12  1  0  0  0  0
 12 13  1  0  0  0  0
 12 28  1  0  0  0  0
 13 17  1  0  0  0  0
 13 14  1  0  0  0  0
 13 29  1  0  0  0  0
 14 15  1  0  0  0  0
 14 30  1  0  0  0  0
 14 31  1  0  0  0  0
 15 16  1  0  0  0  0
 15 32  1  0  0  0  0
 15 33  1  0  0  0  0
 16 17  1  0  0  0  0
 16 34  1  0  0  0  0
 16 35  1  0  0  0  0
 17 18  1  0  0  0  0
 17 36  1  0  0  0  0
 18 19  1  0  0  0  0
 18 20  2  0  0  0  0
 19 37  1  0  0  0  0
 19 38  1  0  0  0  0
M  END
> <s_m_source_file>
AV-unprocessed.smi

> <i_m_source_file_index>
704

> <i_lp_mmshare_version>
43012

> <i_f3d_flags>
0

> <s_epik_input>
W0NIM11PYzFuW2NIXVtjSF1bY0hdYzFbTkhdQyg9TylbTkhdW0NAQEhdMltDSDJdW0NIMl1bQ0gyXVtDQEhdMkMoPU8pW05IMl0=

> <s_epik_cmdline>
J2VwaWtfcHl0aG9uJywgJy1waCcsICc3LjAnLCAnLXRuJywgJzgnLCAnLW1hJywgJzIwMCcsICctbWV0YWxfYmluZGluZycsICctaW1hZScsICc8aW5maWxlLm1hZT4nLCAnLW9tYWUnLCAnPG91dGZpbGUubWFlPic=

> <r_lp_tautomer_probability>
1

> <r_epik_Ionization_Penalty>
9.09123e-05

> <r_epik_Ionization_Penalty_Charging>
0

> <r_epik_Ionization_Penalty_Neutral>
9.09123e-05

> <r_epik_State_Penalty>
-0

> <r_epik_Charging_Adjusted_Penalty>
0

> <i_epik_Tot_Q>
0

> <i_epik_Tot_abs_Q>
0

> <r_epik_Metal_State_Penalty>
-0

> <b_epik_Metal_Only>
0

> <s_lp_Force_Field>
OPLS_2005

> <r_lp_Energy>
16.4561

> <b_lp_Chiralities_Consistent>
1

> <s_lp_Variant>
AV-unprocessed.smi:704-2

> <Gold.Version>
5.8.1

> <Gold.Id.Protein>
6NUR|6NUR_protein|mol2

> <Gold.PLP.Fitness>
41.5080

> <Gold.PLP.PLP>
-32.3650

> <Gold.PLP.part.hbond>
-3.2605

> <Gold.PLP.part.metal>
0.0000

> <Gold.PLP.part.buried>
-2.3090

> <Gold.PLP.part.nonpolar>
-27.7724

> <Gold.PLP.part.repulsive>
1.7209

> <Gold.PLP.ligand.clash>
0.0000

> <Gold.PLP.ligand.torsion>
1.1162

> <Gold.PLP.Chemscore.Hbond>
2.7760

> <Gold.PLP.Chemscore.CHOScore>
1.0000

> <Gold.PLP.Chemscore.Metal>
0.0000

> <Gold.Chemscore.Hbonds>
donor molecule, donor type, donor heavy atom, donor atom, acceptor molecule, acceptor atom, score
      L1  H     9    27       P1  7948  1.00
      L1  H    12    28       P1  7948  0.96
      L1  H    19    37       P1 10747  0.83
      L1  C     5    24       P1  8028  1.00

> <Gold.PLP.Chemscore.Internal.Correction>
0.0475

> <Gold.Rescore>
     Score         DG    S(hbond)    S(metal)    S(lipo)     H(rot)  DE(clash)    DE(int)     intcor
     15.74     -17.32       2.77        0.00      62.86       1.86       0.17       1.41       ----

> <Gold.Chemscore.Fitness>
15.7434

> <Gold.Chemscore.DG>
-17.3225

> <Gold.Chemscore.ZeroCoef>
-5.4800

> <Gold.Chemscore.Hbond>
2.7729

> <Gold.Chemscore.Metal>
0.0000

> <Gold.Chemscore.Lipo>
62.8623

> <Gold.Chemscore.Internal_Hbond>
0.0000

> <Gold.Chemscore.DEClash>
0.1701

> <Gold.Chemscore.DEInternal>
1.4090

> <Gold.Chemscore.Rot>
1.8648

> <Gold.Chemscore.Internal.Correction>
   9.000000E+99

> <Gold.Chemscore.Hbonds>
donor molecule, donor type, donor heavy atom, donor atom, acceptor molecule, acceptor atom, score
      L1  H     9    27       P1  7948  0.98
      L1  H    12    28       P1  7948  0.92
      L1  H    19    37       P1 10747  0.82

> <Gold.Chemscore.Hbond.Weighted>
-9.2615

> <Gold.Chemscore.Metal.Weighted>
-0.0000

> <Gold.Chemscore.Lipo.Weighted>
-7.3549

> <Gold.Chemscore.Internal_Hbond.Weighted>
0.0000

> <Gold.Chemscore.DEClash.Weighted>
0.1701

> <Gold.Chemscore.DEInternal.Weighted>
1.4090

> <Gold.Chemscore.Rot.Weighted>
4.7739

> <Gold.Chemscore.Internal.Correction.Weighted>
   9.000000E+99

> <Gold.Protein.RotatedTorsions>
[ 6907 6896 6895 6894 ] final  173.13 input  -60.11 | X-H torsion
[ 7974 7965 7964 7962 ] final    9.33 input  175.53 | X-H torsion
[ 8008 7997 7996 7995 ] final   66.57 input   59.86 | X-H torsion
[ 10167 10162 10161 10158 ] final   60.13 input  -65.29 | X-H torsion
[ 10718 10713 10712 10709 ] final -132.59 input   66.30 | X-H torsion
[ 10763 10752 10751 10750 ] final  167.09 input  -60.55 | X-H torsion
[ 11005 11000 10999 10996 ] final -106.49 input  -57.11 | X-H torsion

> <Gold.Protein.ActiveResidues>
 VAL166  LYS551  ARG553  GLY616  TRP617  ASP618  TYR619  PRO620  LYS621  CYS622 
 ASP623  PHE694  ASN695  SER759  ASP760  ASP761  ALA762  ILE779  LEU786  VAL792 
 PHE793  MET794  SER795  GLU796  ALA797  LYS798  CYS799  TRP800  GLU811  SER814 

> <Gold.Protein.RotatedAtoms>
  151.7732  133.3343  159.3449 H   0  0  0  0  0  0  0  0  0  0  0  0  # atno 6907 bound_to 6896
  150.7454  134.6000  159.6041 H   0  0  0  0  0  0  0  0  0  0  0  0  # atno 6908 bound_to 6896
  152.3327  134.7240  160.0336 H   0  0  0  0  0  0  0  0  0  0  0  0  # atno 6909 bound_to 6896
  146.2405  139.9799  142.8437 H   0  0  0  0  0  0  0  0  0  0  0  0  # atno 7974 bound_to 7965
  155.6794  140.3496  155.4849 H   0  0  0  0  0  0  0  0  0  0  0  0  # atno 8008 bound_to 7997
  155.9620  140.1139  157.0910 H   0  0  0  0  0  0  0  0  0  0  0  0  # atno 8009 bound_to 7997
  154.4145  140.1174  156.5177 H   0  0  0  0  0  0  0  0  0  0  0  0  # atno 8010 bound_to 7997
  140.1690  144.4296  150.6671 H   0  0  0  0  0  0  0  0  0  0  0  0  # atno 10167 bound_to 10162
  156.2361  130.7067  151.0909 H   0  0  0  0  0  0  0  0  0  0  0  0  # atno 10718 bound_to 10713
  154.3487  135.2753  155.2383 H   0  0  0  0  0  0  0  0  0  0  0  0  # atno 10763 bound_to 10752
  154.4622  135.5904  153.6267 H   0  0  0  0  0  0  0  0  0  0  0  0  # atno 10764 bound_to 10752
  152.9851  135.6068  154.3696 H   0  0  0  0  0  0  0  0  0  0  0  0  # atno 10765 bound_to 10752
  141.1002  133.8898  157.1862 H   0  0  0  0  0  0  0  0  0  0  0  0  # atno 11005 bound_to 11000
  145.1602  140.9668  143.4382 LP  0  0  0  0  0  0  0  0  0  0  0  0  # atno 17320 bound_to 7965
  145.0124  139.3498  143.6113 LP  0  0  0  0  0  0  0  0  0  0  0  0  # atno 17321 bound_to 7965
  140.6594  143.2247  151.5891 LP  0  0  0  0  0  0  0  0  0  0  0  0  # atno 17342 bound_to 10162
  139.5346  144.2816  152.1224 LP  0  0  0  0  0  0  0  0  0  0  0  0  # atno 17343 bound_to 10162
  157.7155  131.0712  150.6343 LP  0  0  0  0  0  0  0  0  0  0  0  0  # atno 17370 bound_to 10713
  156.6414  130.4459  149.5751 LP  0  0  0  0  0  0  0  0  0  0  0  0  # atno 17371 bound_to 10713
  139.9851  135.0085  156.9842 LP  0  0  0  0  0  0  0  0  0  0  0  0  # atno 17394 bound_to 11000
  140.5042  134.1067  155.7256 LP  0  0  0  0  0  0  0  0  0  0  0  0  # atno 17395 bound_to 11000

$$$$
