AV-unprocessed.smi:3237|AV-procd|sdf|12368|dock5
  -GOLD-   2272018233D 1   1.00000     0.00000
 Structure written by MMmdl.
 36 38  0  0  0  0  0  0  0  0  3 V2000
  146.1497  134.2904  162.5879 C   0  0  0  0  0  0  0  0  0  0  0  0
  147.0937  135.0595  161.7287 C   0  0  0  0  0  0  0  0  0  0  0  0
  147.8938  134.7053  160.6797 C   0  0  0  0  0  0  0  0  0  0  0  0
  148.5355  135.9259  160.3343 C   0  0  0  0  0  0  0  0  0  0  0  0
  149.4220  136.0978  159.3416 N   0  5  0  0  0  0  0  0  0  0  0  0
  149.3296  137.1723  158.5257 C   0  0  0  0  0  0  0  0  0  0  0  0
  149.7175  138.3165  158.7724 O   0  0  0  0  0  0  0  0  0  0  0  0
  148.7522  136.9034  157.3468 N   0  0  0  0  0  0  0  0  0  0  0  0
  148.5258  137.8664  156.2757 C   0  0  1  0  0  0  0  0  0  0  0  0
  149.7839  138.5726  155.7803 C   0  0  0  0  0  0  0  0  0  0  0  0
  149.3649  139.0625  154.3900 C   0  0  0  0  0  0  0  0  0  0  0  0
  148.3189  138.1280  153.9040 N   0  3  2  0  0  0  0  0  0  0  0  0
  147.1233  138.8099  153.3617 C   0  0  0  0  0  0  0  0  0  0  0  0
  146.3377  137.9675  152.3853 C   0  0  0  0  0  0  0  0  0  0  0  0
  147.2107  139.0964  151.8817 C   0  0  0  0  0  0  0  0  0  0  0  0
  148.0152  137.1891  155.0059 C   0  0  0  0  0  0  0  0  0  0  0  0
  148.1464  136.9350  161.0952 N   0  0  0  0  0  0  0  0  0  0  0  0
  147.2275  136.3861  161.9975 O   0  0  0  0  0  0  0  0  0  0  0  0
  145.6729  133.4913  162.0201 H   0  0  0  0  0  0  0  0  0  0  0  0
  145.3657  134.9363  162.9839 H   0  0  0  0  0  0  0  0  0  0  0  0
  146.6757  133.8405  163.4299 H   0  0  0  0  0  0  0  0  0  0  0  0
  148.0061  133.7288  160.2330 H   0  0  0  0  0  0  0  0  0  0  0  0
  148.4470  135.9542  157.1876 H   0  0  0  0  0  0  0  0  0  0  0  0
  147.7931  138.6094  156.5975 H   0  0  0  0  0  0  0  0  0  0  0  0
  150.1040  139.3836  156.4352 H   0  0  0  0  0  0  0  0  0  0  0  0
  150.6080  137.8626  155.6935 H   0  0  0  0  0  0  0  0  0  0  0  0
  148.9605  140.0732  154.4693 H   0  0  0  0  0  0  0  0  0  0  0  0
  150.2073  139.1002  153.6990 H   0  0  0  0  0  0  0  0  0  0  0  0
  146.6134  139.5006  154.0313 H   0  0  0  0  0  0  0  0  0  0  0  0
  146.6734  136.9491  152.1978 H   0  0  0  0  0  0  0  0  0  0  0  0
  145.2604  138.1159  152.3491 H   0  0  0  0  0  0  0  0  0  0  0  0
  146.7085  139.9884  151.5126 H   0  0  0  0  0  0  0  0  0  0  0  0
  148.1271  138.8288  151.3583 H   0  0  0  0  0  0  0  0  0  0  0  0
  148.5662  136.2661  154.8192 H   0  0  0  0  0  0  0  0  0  0  0  0
  146.9565  136.9326  155.0676 H   0  0  0  0  0  0  0  0  0  0  0  0
  148.7167  137.5812  153.1539 H   0  0  0  0  0  0  0  0  0  0  0  0
  1  2  1  0  0  0  0
  1 19  1  0  0  0  0
  1 20  1  0  0  0  0
  1 21  1  0  0  0  0
  2 18  1  0  0  0  0
  2  3  2  0  0  0  0
  3  4  1  0  0  0  0
  3 22  1  0  0  0  0
  4  5  1  0  0  0  0
  4 17  2  0  0  0  0
  5  6  1  0  0  0  0
  6  7  2  0  0  0  0
  6  8  1  0  0  0  0
  8  9  1  0  0  0  0
  8 23  1  0  0  0  0
  9 16  1  0  0  0  0
  9 10  1  0  0  0  0
  9 24  1  0  0  0  0
 10 11  1  0  0  0  0
 10 25  1  0  0  0  0
 10 26  1  0  0  0  0
 11 12  1  0  0  0  0
 11 27  1  0  0  0  0
 11 28  1  0  0  0  0
 12 13  1  0  0  0  0
 12 16  1  0  0  0  0
 12 36  1  0  0  0  0
 13 15  1  0  0  0  0
 13 14  1  0  0  0  0
 13 29  1  0  0  0  0
 14 15  1  0  0  0  0
 14 30  1  0  0  0  0
 14 31  1  0  0  0  0
 15 32  1  0  0  0  0
 15 33  1  0  0  0  0
 16 34  1  0  0  0  0
 16 35  1  0  0  0  0
 17 18  1  0  0  0  0
M  CHG  1   5  -1
M  CHG  1  12   1
M  END
> <s_m_source_file>
AV-unprocessed.smi

> <i_m_source_file_index>
3237

> <i_lp_mmshare_version>
43012

> <i_f3d_flags>
0

> <s_epik_input>
W0NIM11jMVtjSF1jKG5vMSlbTkhdQyg9TylbTkhdW0NAQEhdMltDSDJdW0NIMl1OKFtDSDJdMilbQ0hdM1tDSDJdW0NIMl0z

> <s_epik_cmdline>
J2VwaWtfcHl0aG9uJywgJy1waCcsICc3LjAnLCAnLXRuJywgJzgnLCAnLW1hJywgJzIwMCcsICctbWV0YWxfYmluZGluZycsICctaW1hZScsICc8aW5maWxlLm1hZT4nLCAnLW9tYWUnLCAnPG91dGZpbGUubWFlPic=

> <r_epik_Ionization_Penalty>
6.08472

> <r_epik_Ionization_Penalty_Charging>
6.08464

> <r_epik_Ionization_Penalty_Neutral>
8.41751e-05

> <r_epik_State_Penalty>
6.08438

> <r_epik_Charging_Adjusted_Penalty>
12.169

> <i_epik_Tot_Q>
0

> <i_epik_Tot_abs_Q>
2

> <r_epik_Metal_State_Penalty>
2.0369

> <b_epik_Metal_Only>
1

> <s_lp_Force_Field>
OPLS_2005

> <r_lp_Energy>
24.4971

> <b_lp_Chiralities_Consistent>
1

> <s_lp_Variant>
AV-unprocessed.smi:3237-6

> <Gold.Version>
5.8.1

> <Gold.Id.Protein>
6NUR|6NUR_protein|mol2

> <Gold.PLP.Fitness>
40.5148

> <Gold.PLP.PLP>
-26.4616

> <Gold.PLP.part.hbond>
-3.9807

> <Gold.PLP.part.metal>
0.0000

> <Gold.PLP.part.buried>
-3.2970

> <Gold.PLP.part.nonpolar>
-21.0263

> <Gold.PLP.part.repulsive>
0.0139

> <Gold.PLP.ligand.clash>
0.0000

> <Gold.PLP.ligand.torsion>
1.7439

> <Gold.PLP.Chemscore.Hbond>
5.4239

> <Gold.PLP.Chemscore.CHOScore>
0.0000

> <Gold.PLP.Chemscore.Metal>
0.0000

> <Gold.Chemscore.Hbonds>
donor molecule, donor type, donor heavy atom, donor atom, acceptor molecule, acceptor atom, score
      L1  H    12    36       P1  7948  2.00
      P1  H  6896  6909       L1     5  2.00
      P1  H  6931  6943       L1    17  1.00
      P1  H  6934  6947       L1    17  0.21

> <Gold.PLP.Chemscore.Internal.Correction>
1.2695

> <Gold.Rescore>
     Score         DG    S(hbond)    S(metal)    S(lipo)     H(rot)  DE(clash)    DE(int)     intcor
     15.75     -18.44       2.99        0.00      52.78       1.25       0.05       2.64       ----

> <Gold.Chemscore.Fitness>
15.7541

> <Gold.Chemscore.DG>
-18.4415

> <Gold.Chemscore.ZeroCoef>
-5.4800

> <Gold.Chemscore.Hbond>
2.9872

> <Gold.Chemscore.Metal>
0.0000

> <Gold.Chemscore.Lipo>
52.7795

> <Gold.Chemscore.Internal_Hbond>
0.0000

> <Gold.Chemscore.DEClash>
0.0456

> <Gold.Chemscore.DEInternal>
2.6418

> <Gold.Chemscore.Rot>
1.2464

> <Gold.Chemscore.Internal.Correction>
   9.000000E+99

> <Gold.Chemscore.Hbonds>
donor molecule, donor type, donor heavy atom, donor atom, acceptor molecule, acceptor atom, score
      L1  H    12    36       P1  7948  1.00
      P1  H  6896  6909       L1     5  0.50
      P1  H  6931  6943       L1    17  0.69
      P1  H  6934  6947       L1    17  0.04

> <Gold.Chemscore.Hbond.Weighted>
-9.9772

> <Gold.Chemscore.Metal.Weighted>
-0.0000

> <Gold.Chemscore.Lipo.Weighted>
-6.1752

> <Gold.Chemscore.Internal_Hbond.Weighted>
0.0000

> <Gold.Chemscore.DEClash.Weighted>
0.0456

> <Gold.Chemscore.DEInternal.Weighted>
2.6418

> <Gold.Chemscore.Rot.Weighted>
3.1909

> <Gold.Chemscore.Internal.Correction.Weighted>
   9.000000E+99

> <Gold.Protein.RotatedTorsions>
[ 6907 6896 6895 6894 ] final   68.58 input  -60.11 | X-H torsion
[ 7974 7965 7964 7962 ] final -129.90 input  175.53 | X-H torsion
[ 8008 7997 7996 7995 ] final  114.41 input   59.86 | X-H torsion
[ 10167 10162 10161 10158 ] final -178.66 input  -65.29 | X-H torsion
[ 10718 10713 10712 10709 ] final   83.84 input   66.30 | X-H torsion
[ 10763 10752 10751 10750 ] final  104.63 input  -60.55 | X-H torsion
[ 11005 11000 10999 10996 ] final   60.03 input  -57.11 | X-H torsion

> <Gold.Protein.ActiveResidues>
 VAL166  LYS551  ARG553  GLY616  TRP617  ASP618  TYR619  PRO620  LYS621  CYS622 
 ASP623  PHE694  ASN695  SER759  ASP760  ASP761  ALA762  ILE779  LEU786  VAL792 
 PHE793  MET794  SER795  GLU796  ALA797  LYS798  CYS799  TRP800  GLU811  SER814 

> <Gold.Protein.RotatedAtoms>
  152.4630  134.5141  159.9762 H   0  0  0  0  0  0  0  0  0  0  0  0  # atno 6907 bound_to 6896
  151.5186  133.3465  159.2905 H   0  0  0  0  0  0  0  0  0  0  0  0  # atno 6908 bound_to 6896
  150.8601  134.7979  159.7138 H   0  0  0  0  0  0  0  0  0  0  0  0  # atno 6909 bound_to 6896
  144.9527  140.7362  143.4777 H   0  0  0  0  0  0  0  0  0  0  0  0  # atno 7974 bound_to 7965
  156.2319  140.2959  156.0212 H   0  0  0  0  0  0  0  0  0  0  0  0  # atno 8008 bound_to 7997
  155.2199  140.0415  157.2964 H   0  0  0  0  0  0  0  0  0  0  0  0  # atno 8009 bound_to 7997
  154.6011  140.2427  155.7798 H   0  0  0  0  0  0  0  0  0  0  0  0  # atno 8010 bound_to 7997
  139.5422  144.2333  152.0917 H   0  0  0  0  0  0  0  0  0  0  0  0  # atno 10167 bound_to 10162
  157.6887  131.0108  150.2583 H   0  0  0  0  0  0  0  0  0  0  0  0  # atno 10718 bound_to 10713
  153.3685  135.3937  155.1771 H   0  0  0  0  0  0  0  0  0  0  0  0  # atno 10763 bound_to 10752
  154.8690  135.3697  154.5008 H   0  0  0  0  0  0  0  0  0  0  0  0  # atno 10764 bound_to 10752
  153.5474  135.7083  153.5668 H   0  0  0  0  0  0  0  0  0  0  0  0  # atno 10765 bound_to 10752
  140.0261  134.6081  155.9571 H   0  0  0  0  0  0  0  0  0  0  0  0  # atno 11005 bound_to 11000
  145.2819  139.1915  143.4786 LP  0  0  0  0  0  0  0  0  0  0  0  0  # atno 17320 bound_to 7965
  146.3326  140.2782  142.8609 LP  0  0  0  0  0  0  0  0  0  0  0  0  # atno 17321 bound_to 7965
  140.1813  144.4841  150.6527 LP  0  0  0  0  0  0  0  0  0  0  0  0  # atno 17342 bound_to 10162
  140.6656  143.2267  151.5751 LP  0  0  0  0  0  0  0  0  0  0  0  0  # atno 17343 bound_to 10162
  156.3167  130.3780  149.7612 LP  0  0  0  0  0  0  0  0  0  0  0  0  # atno 17370 bound_to 10713
  156.5195  130.8208  151.3198 LP  0  0  0  0  0  0  0  0  0  0  0  0  # atno 17371 bound_to 10713
  141.1803  133.6545  156.4995 LP  0  0  0  0  0  0  0  0  0  0  0  0  # atno 17394 bound_to 11000
  140.4304  134.7107  157.4939 LP  0  0  0  0  0  0  0  0  0  0  0  0  # atno 17395 bound_to 11000

$$$$
