AV-unprocessed.smi:2562|AV-procd|sdf|10047|dock7
  -GOLD-   2272014 93D 1   1.00000     0.00000
 Structure written by MMmdl.
 30 31  0  0  0  0  0  0  0  0  1 V2000
  152.2702  144.6435  159.3055 C   0  0  0  0  0  0  0  0  0  0  0  0
  151.9311  143.8478  160.5709 C   0  0  0  0  0  0  0  0  0  0  0  0
  152.6617  142.4987  160.6317 C   0  0  0  0  0  0  0  0  0  0  0  0
  152.5101  141.7036  159.3762 C   0  0  0  0  0  0  0  0  0  0  0  0
  153.0670  140.5009  159.2217 N   0  0  0  0  0  0  0  0  0  0  0  0
  152.7527  140.0163  158.0019 N   0  0  0  0  0  0  0  0  0  0  0  0
  152.0150  141.0019  157.4913 C   0  0  0  0  0  0  0  0  0  0  0  0
  151.4081  140.8771  156.1278 C   0  0  1  0  0  0  0  0  0  0  0  0
  151.7298  139.5215  155.4688 C   0  0  0  0  0  0  0  0  0  0  0  0
  151.0407  139.4078  154.1841 N   0  0  0  0  0  0  0  0  0  0  0  0
  149.6013  139.6174  154.3364 C   0  0  0  0  0  0  0  0  0  0  0  0
  149.3248  140.9625  155.0326 C   0  0  0  0  0  0  0  0  0  0  0  0
  149.9964  141.0005  156.2871 O   0  0  0  0  0  0  0  0  0  0  0  0
  151.8062  142.0771  158.3134 N   0  0  0  0  0  0  0  0  0  0  0  0
  153.6350  139.9958  159.8868 H   0  0  0  0  0  0  0  0  0  0  0  0
  151.7414  145.5968  159.2923 H   0  0  0  0  0  0  0  0  0  0  0  0
  151.9869  144.0942  158.4073 H   0  0  0  0  0  0  0  0  0  0  0  0
  153.3382  144.8545  159.2474 H   0  0  0  0  0  0  0  0  0  0  0  0
  152.1877  144.4424  161.4485 H   0  0  0  0  0  0  0  0  0  0  0  0
  150.8538  143.6835  160.6128 H   0  0  0  0  0  0  0  0  0  0  0  0
  153.7255  142.6584  160.8124 H   0  0  0  0  0  0  0  0  0  0  0  0
  152.2898  141.9087  161.4706 H   0  0  0  0  0  0  0  0  0  0  0  0
  151.7748  141.6959  155.5050 H   0  0  0  0  0  0  0  0  0  0  0  0
  152.8058  139.4175  155.3274 H   0  0  0  0  0  0  0  0  0  0  0  0
  151.4198  138.7088  156.1269 H   0  0  0  0  0  0  0  0  0  0  0  0
  151.2101  138.4889  153.7879 H   0  0  0  0  0  0  0  0  0  0  0  0
  149.1141  139.5929  153.3615 H   0  0  0  0  0  0  0  0  0  0  0  0
  149.1690  138.8066  154.9238 H   0  0  0  0  0  0  0  0  0  0  0  0
  149.6434  141.7989  154.4083 H   0  0  0  0  0  0  0  0  0  0  0  0
  148.2549  141.0825  155.2035 H   0  0  0  0  0  0  0  0  0  0  0  0
  1  2  1  0  0  0  0
  1 16  1  0  0  0  0
  1 17  1  0  0  0  0
  1 18  1  0  0  0  0
  2  3  1  0  0  0  0
  2 19  1  0  0  0  0
  2 20  1  0  0  0  0
  3 21  1  0  0  0  0
  3 22  1  0  0  0  0
  3  4  1  0  0  0  0
  4 14  2  0  0  0  0
  4  5  1  0  0  0  0
  5  6  1  0  0  0  0
  5 15  1  0  0  0  0
  6  7  2  0  0  0  0
  7 14  1  0  0  0  0
  7  8  1  0  0  0  0
  8 13  1  0  0  0  0
  8  9  1  0  0  0  0
  8 23  1  0  0  0  0
  9 10  1  0  0  0  0
  9 24  1  0  0  0  0
  9 25  1  0  0  0  0
 10 11  1  0  0  0  0
 10 26  1  0  0  0  0
 11 12  1  0  0  0  0
 11 27  1  0  0  0  0
 11 28  1  0  0  0  0
 12 13  1  0  0  0  0
 12 29  1  0  0  0  0
 12 30  1  0  0  0  0
M  END
> <s_m_source_file>
AV-unprocessed.smi

> <i_m_source_file_index>
2562

> <i_lp_mmshare_version>
43012

> <i_f3d_flags>
0

> <s_epik_input>
W0NIM11bQ0gyXVtDSDJdYzFuW25IXWMobjEpW0NAQEhdMltDSDJdW05IXVtDSDJdW0NIMl1PMg==

> <s_epik_cmdline>
J2VwaWtfcHl0aG9uJywgJy1waCcsICc3LjAnLCAnLXRuJywgJzgnLCAnLW1hJywgJzIwMCcsICctbWV0YWxfYmluZGluZycsICctaW1hZScsICc8aW5maWxlLm1hZT4nLCAnLW9tYWUnLCAnPG91dGZpbGUubWFlPic=

> <r_epik_Ionization_Penalty>
1.10136

> <r_epik_Ionization_Penalty_Charging>
0

> <r_epik_Ionization_Penalty_Neutral>
1.10136

> <r_epik_State_Penalty>
1.43987

> <r_epik_Charging_Adjusted_Penalty>
1.43987

> <i_epik_Tot_Q>
0

> <i_epik_Tot_abs_Q>
0

> <r_epik_Metal_State_Penalty>
1.55976

> <b_epik_Metal_Only>
0

> <s_lp_Force_Field>
OPLS_2005

> <r_lp_Energy>
12.0534

> <b_lp_Chiralities_Consistent>
1

> <s_lp_Variant>
AV-unprocessed.smi:2562-6

> <Gold.Version>
5.8.1

> <Gold.Id.Protein>
6NUR|6NUR_protein|mol2

> <Gold.PLP.Fitness>
35.2027

> <Gold.PLP.PLP>
-29.2733

> <Gold.PLP.part.hbond>
-2.0000

> <Gold.PLP.part.metal>
0.0000

> <Gold.PLP.part.buried>
-3.9516

> <Gold.PLP.part.nonpolar>
-22.5499

> <Gold.PLP.part.repulsive>
0.1386

> <Gold.PLP.ligand.clash>
0.0000

> <Gold.PLP.ligand.torsion>
0.0415

> <Gold.PLP.Chemscore.Hbond>
2.0000

> <Gold.PLP.Chemscore.CHOScore>
0.0000

> <Gold.PLP.Chemscore.Metal>
0.0000

> <Gold.Chemscore.Hbonds>
donor molecule, donor type, donor heavy atom, donor atom, acceptor molecule, acceptor atom, score
      P1  H  7989  7998       L1    10  0.90
      P1  H  7997  8008       L1     6  0.93

> <Gold.PLP.Chemscore.Internal.Correction>
0.0124

> <Gold.Rescore>
     Score         DG    S(hbond)    S(metal)    S(lipo)     H(rot)  DE(clash)    DE(int)     intcor
     11.09     -12.49       1.09        0.00      60.94       1.48       0.03       1.36       ----

> <Gold.Chemscore.Fitness>
11.0949

> <Gold.Chemscore.DG>
-12.4852

> <Gold.Chemscore.ZeroCoef>
-5.4800

> <Gold.Chemscore.Hbond>
1.0947

> <Gold.Chemscore.Metal>
0.0000

> <Gold.Chemscore.Lipo>
60.9373

> <Gold.Chemscore.Internal_Hbond>
0.0000

> <Gold.Chemscore.DEClash>
0.0272

> <Gold.Chemscore.DEInternal>
1.3631

> <Gold.Chemscore.Rot>
1.4769

> <Gold.Chemscore.Internal.Correction>
   9.000000E+99

> <Gold.Chemscore.Hbonds>
donor molecule, donor type, donor heavy atom, donor atom, acceptor molecule, acceptor atom, score
      P1  H  7989  7998       L1    10  0.09
      P1  H  7997  8008       L1     6  0.21

> <Gold.Chemscore.Hbond.Weighted>
-3.6563

> <Gold.Chemscore.Metal.Weighted>
-0.0000

> <Gold.Chemscore.Lipo.Weighted>
-7.1297

> <Gold.Chemscore.Internal_Hbond.Weighted>
0.0000

> <Gold.Chemscore.DEClash.Weighted>
0.0272

> <Gold.Chemscore.DEInternal.Weighted>
1.3631

> <Gold.Chemscore.Rot.Weighted>
3.7808

> <Gold.Chemscore.Internal.Correction.Weighted>
   9.000000E+99

> <Gold.Protein.RotatedTorsions>
[ 6907 6896 6895 6894 ] final  128.49 input  -60.11 | X-H torsion
[ 7974 7965 7964 7962 ] final  149.91 input  175.53 | X-H torsion
[ 8008 7997 7996 7995 ] final  -74.21 input   59.86 | X-H torsion
[ 10167 10162 10161 10158 ] final  127.30 input  -65.29 | X-H torsion
[ 10718 10713 10712 10709 ] final -122.86 input   66.30 | X-H torsion
[ 10763 10752 10751 10750 ] final  -20.06 input  -60.55 | X-H torsion
[ 11005 11000 10999 10996 ] final  138.82 input  -57.11 | X-H torsion

> <Gold.Protein.ActiveResidues>
 VAL166  LYS551  ARG553  GLY616  TRP617  ASP618  TYR619  PRO620  LYS621  CYS622 
 ASP623  PHE694  ASN695  SER759  ASP760  ASP761  ALA762  ILE779  LEU786  VAL792 
 PHE793  MET794  SER795  GLU796  ALA797  LYS798  CYS799  TRP800  GLU811  SER814 

> <Gold.Protein.RotatedAtoms>
  152.3714  133.6424  159.6089 H   0  0  0  0  0  0  0  0  0  0  0  0  # atno 6907 bound_to 6896
  150.7672  133.9263  159.3422 H   0  0  0  0  0  0  0  0  0  0  0  0  # atno 6908 bound_to 6896
  151.7085  135.0918  160.0315 H   0  0  0  0  0  0  0  0  0  0  0  0  # atno 6909 bound_to 6896
  144.8403  139.6341  143.6019 H   0  0  0  0  0  0  0  0  0  0  0  0  # atno 7974 bound_to 7965
  154.5311  140.0765  156.8347 H   0  0  0  0  0  0  0  0  0  0  0  0  # atno 8008 bound_to 7997
  155.3372  140.3405  155.4221 H   0  0  0  0  0  0  0  0  0  0  0  0  # atno 8009 bound_to 7997
  156.1782  140.1643  156.8310 H   0  0  0  0  0  0  0  0  0  0  0  0  # atno 8010 bound_to 7997
  139.5585  144.6866  151.4111 H   0  0  0  0  0  0  0  0  0  0  0  0  # atno 10167 bound_to 10162
  156.1453  130.6496  150.9833 H   0  0  0  0  0  0  0  0  0  0  0  0  # atno 10718 bound_to 10713
  153.6145  135.6995  153.5334 H   0  0  0  0  0  0  0  0  0  0  0  0  # atno 10763 bound_to 10752
  153.2988  135.4135  155.1234 H   0  0  0  0  0  0  0  0  0  0  0  0  # atno 10764 bound_to 10752
  154.8556  135.3644  154.5685 H   0  0  0  0  0  0  0  0  0  0  0  0  # atno 10765 bound_to 10752
  140.0211  134.9396  157.0476 H   0  0  0  0  0  0  0  0  0  0  0  0  # atno 11005 bound_to 11000
  146.2696  139.6603  142.9305 LP  0  0  0  0  0  0  0  0  0  0  0  0  # atno 17320 bound_to 7965
  145.4708  141.0436  143.2699 LP  0  0  0  0  0  0  0  0  0  0  0  0  # atno 17321 bound_to 7965
  140.6862  143.7968  150.7189 LP  0  0  0  0  0  0  0  0  0  0  0  0  # atno 17342 bound_to 10162
  140.1437  143.4419  152.2177 LP  0  0  0  0  0  0  0  0  0  0  0  0  # atno 17343 bound_to 10162
  157.6611  131.0880  150.7835 LP  0  0  0  0  0  0  0  0  0  0  0  0  # atno 17370 bound_to 10713
  156.7907  130.4889  149.5385 LP  0  0  0  0  0  0  0  0  0  0  0  0  # atno 17371 bound_to 10713
  140.4386  134.1705  155.7172 LP  0  0  0  0  0  0  0  0  0  0  0  0  # atno 17394 bound_to 11000
  141.1774  133.8485  157.1375 LP  0  0  0  0  0  0  0  0  0  0  0  0  # atno 17395 bound_to 11000

$$$$
