AV-unprocessed.smi:541|AV-procd|sdf|2872|dock3
  -GOLD-   2262023363D 1   1.00000     0.00000
 Structure written by MMmdl.
 42 44  0  0  0  0  0  0  0  0  2 V2000
  151.1237  138.1768  154.2358 C   0  0  0  0  0  0  0  0  0  0  0  0
  150.2442  139.2386  154.8997 C   0  0  0  0  0  0  0  0  0  0  0  0
  151.0238  140.3983  155.1369 O   0  0  0  0  0  0  0  0  0  0  0  0
  151.8789  140.2621  156.2591 C   0  0  0  0  0  0  0  0  0  0  0  0
  151.0584  140.4878  157.5371 C   0  0  0  0  0  0  0  0  0  0  0  0
  151.8760  140.3562  158.7405 N   0  0  0  0  0  0  0  0  0  0  0  0
  152.4069  141.3247  159.5480 C   0  0  0  0  0  0  0  0  0  0  0  0
  152.2274  142.7077  159.3743 N   0  0  0  0  0  0  0  0  0  0  0  0
  152.0164  143.5149  158.1715 C   0  0  0  0  0  0  0  0  0  0  0  0
  151.4621  144.8705  158.5963 C   0  0  0  0  0  0  0  0  0  0  0  0
  152.1357  145.0704  159.9349 C   0  0  0  0  0  0  0  0  0  0  0  0
  152.1493  143.6501  160.4918 C   0  0  0  0  0  0  0  0  0  0  0  0
  153.1386  140.8432  160.5572 N   0  0  0  0  0  0  0  0  0  0  0  0
  153.0538  139.4716  160.4003 C   0  0  0  0  0  0  0  0  0  0  0  0
  152.2935  139.1507  159.3216 C   0  0  0  0  0  0  0  0  0  0  0  0
  152.0087  137.7559  158.9088 C   0  0  0  0  0  0  0  0  0  0  0  0
  151.2958  137.5106  157.9379 O   0  0  0  0  0  0  0  0  0  0  0  0
  152.6164  136.8380  159.7257 N   0  5  0  0  0  0  0  0  0  0  0  0
  153.3991  137.1229  160.8233 C   0  0  0  0  0  0  0  0  0  0  0  0
  153.9114  136.2343  161.5053 O   0  0  0  0  0  0  0  0  0  0  0  0
  153.6227  138.4268  161.1783 N   0  0  0  0  0  0  0  0  0  0  0  0
  154.4450  138.7609  162.3447 C   0  0  0  0  0  0  0  0  0  0  0  0
  150.5544  137.2689  154.0357 H   0  0  0  0  0  0  0  0  0  0  0  0
  151.9646  137.9099  154.8763 H   0  0  0  0  0  0  0  0  0  0  0  0
  151.5244  138.5370  153.2880 H   0  0  0  0  0  0  0  0  0  0  0  0
  149.3994  139.4793  154.2526 H   0  0  0  0  0  0  0  0  0  0  0  0
  149.8436  138.8550  155.8392 H   0  0  0  0  0  0  0  0  0  0  0  0
  152.3332  139.2708  156.2639 H   0  0  0  0  0  0  0  0  0  0  0  0
  152.6924  140.9864  156.1993 H   0  0  0  0  0  0  0  0  0  0  0  0
  150.6017  141.4761  157.5213 H   0  0  0  0  0  0  0  0  0  0  0  0
  150.2081  139.8157  157.5858 H   0  0  0  0  0  0  0  0  0  0  0  0
  152.9763  143.6575  157.6744 H   0  0  0  0  0  0  0  0  0  0  0  0
  151.3353  143.0341  157.4723 H   0  0  0  0  0  0  0  0  0  0  0  0
  151.6804  145.6640  157.8812 H   0  0  0  0  0  0  0  0  0  0  0  0
  150.3802  144.8117  158.7251 H   0  0  0  0  0  0  0  0  0  0  0  0
  153.1566  145.4272  159.7908 H   0  0  0  0  0  0  0  0  0  0  0  0
  151.6128  145.7771  160.5798 H   0  0  0  0  0  0  0  0  0  0  0  0
  151.2277  143.4534  161.0414 H   0  0  0  0  0  0  0  0  0  0  0  0
  152.9810  143.5085  161.1830 H   0  0  0  0  0  0  0  0  0  0  0  0
  154.0269  138.3145  163.2481 H   0  0  0  0  0  0  0  0  0  0  0  0
  154.5158  139.8348  162.5164 H   0  0  0  0  0  0  0  0  0  0  0  0
  155.4603  138.3836  162.2159 H   0  0  0  0  0  0  0  0  0  0  0  0
  1  2  1  0  0  0  0
  1 23  1  0  0  0  0
  1 24  1  0  0  0  0
  1 25  1  0  0  0  0
  2  3  1  0  0  0  0
  2 26  1  0  0  0  0
  2 27  1  0  0  0  0
  3  4  1  0  0  0  0
  4  5  1  0  0  0  0
  4 28  1  0  0  0  0
  4 29  1  0  0  0  0
  5  6  1  0  0  0  0
  5 30  1  0  0  0  0
  5 31  1  0  0  0  0
  6 15  1  0  0  0  0
  6  7  1  0  0  0  0
  7  8  1  0  0  0  0
  7 13  2  0  0  0  0
  8 12  1  0  0  0  0
  8  9  1  0  0  0  0
  9 10  1  0  0  0  0
  9 32  1  0  0  0  0
  9 33  1  0  0  0  0
 10 11  1  0  0  0  0
 10 34  1  0  0  0  0
 10 35  1  0  0  0  0
 11 12  1  0  0  0  0
 11 36  1  0  0  0  0
 11 37  1  0  0  0  0
 12 38  1  0  0  0  0
 12 39  1  0  0  0  0
 13 14  1  0  0  0  0
 14 21  1  0  0  0  0
 14 15  2  0  0  0  0
 15 16  1  0  0  0  0
 16 17  2  0  0  0  0
 16 18  1  0  0  0  0
 18 19  1  0  0  0  0
 19 20  2  0  0  0  0
 19 21  1  0  0  0  0
 21 22  1  0  0  0  0
 22 40  1  0  0  0  0
 22 41  1  0  0  0  0
 22 42  1  0  0  0  0
M  CHG  1  18  -1
M  END
> <s_m_source_file>
AV-unprocessed.smi

> <i_m_source_file_index>
541

> <i_lp_mmshare_version>
43012

> <i_f3d_flags>
0

> <s_epik_input>
W0NIM11uMWMoPU8pW25IXWMoPU8pYyhjMTIpbihbQ0gyXVtDSDJdT1tDSDJdW0NIM10pYyhuMilOM1tDSDJdW0NIMl1bQ0gyXVtDSDJdMw==

> <s_epik_cmdline>
J2VwaWtfcHl0aG9uJywgJy1waCcsICc3LjAnLCAnLXRuJywgJzgnLCAnLW1hJywgJzIwMCcsICctbWV0YWxfYmluZGluZycsICctaW1hZScsICc8aW5maWxlLm1hZT4nLCAnLW9tYWUnLCAnPG91dGZpbGUubWFlPic=

> <r_lp_tautomer_probability>
1

> <r_epik_Ionization_Penalty>
6.1404

> <r_epik_Ionization_Penalty_Charging>
0.0734613

> <r_epik_Ionization_Penalty_Neutral>
6.06694

> <r_epik_State_Penalty>
6.06401

> <r_epik_Charging_Adjusted_Penalty>
6.13747

> <i_epik_Tot_Q>
-1

> <i_epik_Tot_abs_Q>
1

> <r_epik_Metal_State_Penalty>
2.01234

> <b_epik_Metal_Only>
1

> <s_lp_Force_Field>
OPLS_2005

> <r_lp_Energy>
49.972

> <b_lp_Chiralities_Consistent>
1

> <s_lp_Variant>
AV-unprocessed.smi:541-2

> <Gold.Version>
5.8.1

> <Gold.Id.Protein>
6NUR|6NUR_protein|mol2

> <Gold.PLP.Fitness>
52.1400

> <Gold.PLP.PLP>
-44.7430

> <Gold.PLP.part.hbond>
-2.0000

> <Gold.PLP.part.metal>
0.0000

> <Gold.PLP.part.buried>
-7.4833

> <Gold.PLP.part.nonpolar>
-35.8579

> <Gold.PLP.part.repulsive>
0.0405

> <Gold.PLP.ligand.clash>
0.0000

> <Gold.PLP.ligand.torsion>
0.8177

> <Gold.PLP.Chemscore.Hbond>
3.0000

> <Gold.PLP.Chemscore.CHOScore>
0.0000

> <Gold.PLP.Chemscore.Metal>
0.0000

> <Gold.Chemscore.Hbonds>
donor molecule, donor type, donor heavy atom, donor atom, acceptor molecule, acceptor atom, score
      P1  H  6896  6909       L1    18  2.00
      P1  H  7989  7998       L1     3  1.00

> <Gold.PLP.Chemscore.Internal.Correction>
0.0325

> <Gold.Rescore>
     Score         DG    S(hbond)    S(metal)    S(lipo)     H(rot)  DE(clash)    DE(int)     intcor
     16.45     -17.16       1.72        0.00      86.61       1.64       0.03       0.69       ----

> <Gold.Chemscore.Fitness>
16.4452

> <Gold.Chemscore.DG>
-17.1633

> <Gold.Chemscore.ZeroCoef>
-5.4800

> <Gold.Chemscore.Hbond>
1.7196

> <Gold.Chemscore.Metal>
0.0000

> <Gold.Chemscore.Lipo>
86.6072

> <Gold.Chemscore.Internal_Hbond>
0.0000

> <Gold.Chemscore.DEClash>
0.0270

> <Gold.Chemscore.DEInternal>
0.6910

> <Gold.Chemscore.Rot>
1.6380

> <Gold.Chemscore.Internal.Correction>
   9.000000E+99

> <Gold.Chemscore.Hbonds>
donor molecule, donor type, donor heavy atom, donor atom, acceptor molecule, acceptor atom, score
      P1  H  6896  6909       L1    18  0.39
      P1  H  7989  7998       L1     3  0.48

> <Gold.Chemscore.Hbond.Weighted>
-5.7436

> <Gold.Chemscore.Metal.Weighted>
-0.0000

> <Gold.Chemscore.Lipo.Weighted>
-10.1330

> <Gold.Chemscore.Internal_Hbond.Weighted>
0.0000

> <Gold.Chemscore.DEClash.Weighted>
0.0270

> <Gold.Chemscore.DEInternal.Weighted>
0.6910

> <Gold.Chemscore.Rot.Weighted>
4.1934

> <Gold.Chemscore.Internal.Correction.Weighted>
   9.000000E+99

> <Gold.Protein.RotatedTorsions>
[ 6907 6896 6895 6894 ] final  151.05 input  -60.11 | X-H torsion
[ 7974 7965 7964 7962 ] final   -3.62 input  175.53 | X-H torsion
[ 8008 7997 7996 7995 ] final   -1.11 input   59.86 | X-H torsion
[ 10167 10162 10161 10158 ] final    4.92 input  -65.29 | X-H torsion
[ 10718 10713 10712 10709 ] final   51.23 input   66.30 | X-H torsion
[ 10763 10752 10751 10750 ] final   91.33 input  -60.55 | X-H torsion
[ 11005 11000 10999 10996 ] final  109.39 input  -57.11 | X-H torsion

> <Gold.Protein.ActiveResidues>
 VAL166  LYS551  ARG553  GLY616  TRP617  ASP618  TYR619  PRO620  LYS621  CYS622 
 ASP623  PHE694  ASN695  SER759  ASP760  ASP761  ALA762  ILE779  LEU786  VAL792 
 PHE793  MET794  SER795  GLU796  ALA797  LYS798  CYS799  TRP800  GLU811  SER814 

> <Gold.Protein.RotatedAtoms>
  152.1059  133.4275  159.4608 H   0  0  0  0  0  0  0  0  0  0  0  0  # atno 6907 bound_to 6896
  150.6865  134.2705  159.4595 H   0  0  0  0  0  0  0  0  0  0  0  0  # atno 6908 bound_to 6896
  152.0569  134.9618  160.0625 H   0  0  0  0  0  0  0  0  0  0  0  0  # atno 6909 bound_to 6896
  146.2386  140.1749  142.8332 H   0  0  0  0  0  0  0  0  0  0  0  0  # atno 7974 bound_to 7965
  154.6505  140.2567  155.7219 H   0  0  0  0  0  0  0  0  0  0  0  0  # atno 8008 bound_to 7997
  156.2572  140.2869  156.0857 H   0  0  0  0  0  0  0  0  0  0  0  0  # atno 8009 bound_to 7997
  155.1459  140.0381  157.2800 H   0  0  0  0  0  0  0  0  0  0  0  0  # atno 8010 bound_to 7997
  140.6510  143.7546  150.7574 H   0  0  0  0  0  0  0  0  0  0  0  0  # atno 10167 bound_to 10162
  157.4961  130.8407  149.8260 H   0  0  0  0  0  0  0  0  0  0  0  0  # atno 10718 bound_to 10713
  153.2071  135.4401  155.0335 H   0  0  0  0  0  0  0  0  0  0  0  0  # atno 10763 bound_to 10752
  154.8179  135.3324  154.7125 H   0  0  0  0  0  0  0  0  0  0  0  0  # atno 10764 bound_to 10752
  153.7565  135.6994  153.4990 H   0  0  0  0  0  0  0  0  0  0  0  0  # atno 10765 bound_to 10752
  139.8861  134.9457  156.6118 H   0  0  0  0  0  0  0  0  0  0  0  0  # atno 11005 bound_to 11000
  144.9982  140.8608  143.5298 LP  0  0  0  0  0  0  0  0  0  0  0  0  # atno 17320 bound_to 7965
  145.1764  139.2376  143.5315 LP  0  0  0  0  0  0  0  0  0  0  0  0  # atno 17321 bound_to 7965
  140.1196  143.4624  152.2321 LP  0  0  0  0  0  0  0  0  0  0  0  0  # atno 17342 bound_to 10162
  139.5725  144.7470  151.3853 LP  0  0  0  0  0  0  0  0  0  0  0  0  # atno 17343 bound_to 10162
  156.0201  130.3798  150.1988 LP  0  0  0  0  0  0  0  0  0  0  0  0  # atno 17370 bound_to 10713
  157.0177  130.9970  151.3348 LP  0  0  0  0  0  0  0  0  0  0  0  0  # atno 17371 bound_to 10713
  140.7806  133.8663  155.8564 LP  0  0  0  0  0  0  0  0  0  0  0  0  # atno 17394 bound_to 11000
  140.9764  134.1464  157.4533 LP  0  0  0  0  0  0  0  0  0  0  0  0  # atno 17395 bound_to 11000

$$$$
