AV-unprocessed.smi:3116|AV-procd|sdf|11863|dock4
  -GOLD-   2272017243D 1   1.00000     0.00000
 Structure written by MMmdl.
 34 34  0  0  0  0  0  0  0  0  2 V2000
  149.0494  140.2517  157.0107 C   0  0  0  0  0  0  0  0  0  0  0  0
  149.0289  141.4276  156.0225 C   0  0  1  0  0  0  0  0  0  0  0  0
  149.9603  142.4845  156.4847 N   0  3  0  0  0  0  0  0  0  0  0  0
  150.0594  142.6644  157.9532 C   0  0  2  0  0  0  0  0  0  0  0  0
  148.6432  142.8704  158.5216 C   0  0  0  0  0  0  0  0  0  0  0  0
  151.0234  143.8328  158.2978 C   0  0  2  0  0  0  0  0  0  0  0  0
  152.0652  144.1045  157.1958 C   0  0  0  0  0  0  0  0  0  0  0  0
  151.6946  143.6272  159.5751 N   0  0  0  0  0  0  0  0  0  0  0  0
  152.5666  142.6183  159.9301 C   0  0  0  0  0  0  0  0  0  0  0  0
  152.9409  142.8384  161.2246 C   0  0  0  0  0  0  0  0  0  0  0  0
  152.2348  144.0196  161.5849 C   0  0  0  0  0  0  0  0  0  0  0  0
  151.4897  144.4887  160.5973 N   0  0  0  0  0  0  0  0  0  0  0  0
  149.3851  140.9352  154.6124 C   0  0  0  0  0  0  0  0  0  0  0  0
  148.4925  141.1617  153.6452 N   0  0  0  0  0  0  0  0  0  0  0  0
  150.4445  140.3479  154.3997 O   0  0  0  0  0  0  0  0  0  0  0  0
  148.3473  139.4713  156.7145 H   0  0  0  0  0  0  0  0  0  0  0  0
  148.7678  140.5784  158.0123 H   0  0  0  0  0  0  0  0  0  0  0  0
  150.0404  139.8000  157.0764 H   0  0  0  0  0  0  0  0  0  0  0  0
  148.0176  141.8366  156.0074 H   0  0  0  0  0  0  0  0  0  0  0  0
  150.8847  142.2727  156.1386 H   0  0  0  0  0  0  0  0  0  0  0  0
  150.4487  141.7485  158.4015 H   0  0  0  0  0  0  0  0  0  0  0  0
  148.6431  142.9041  159.6112 H   0  0  0  0  0  0  0  0  0  0  0  0
  147.9820  142.0535  158.2305 H   0  0  0  0  0  0  0  0  0  0  0  0
  148.2017  143.7998  158.1599 H   0  0  0  0  0  0  0  0  0  0  0  0
  150.4234  144.7378  158.4067 H   0  0  0  0  0  0  0  0  0  0  0  0
  151.5916  144.4198  156.2662 H   0  0  0  0  0  0  0  0  0  0  0  0
  152.6631  143.2180  156.9816 H   0  0  0  0  0  0  0  0  0  0  0  0
  152.7485  144.9011  157.4922 H   0  0  0  0  0  0  0  0  0  0  0  0
  152.8473  141.8363  159.2397 H   0  0  0  0  0  0  0  0  0  0  0  0
  153.6158  142.2453  161.8237 H   0  0  0  0  0  0  0  0  0  0  0  0
  152.2417  144.5466  162.5277 H   0  0  0  0  0  0  0  0  0  0  0  0
  148.6792  140.8609  152.6993 H   0  0  0  0  0  0  0  0  0  0  0  0
  147.6294  141.6389  153.8634 H   0  0  0  0  0  0  0  0  0  0  0  0
  149.6576  143.3561  156.0733 H   0  0  0  0  0  0  0  0  0  0  0  0
  1  2  1  0  0  0  0
  1 16  1  0  0  0  0
  1 17  1  0  0  0  0
  1 18  1  0  0  0  0
  2  3  1  0  0  0  0
  2 13  1  0  0  0  0
  2 19  1  0  0  0  0
  3  4  1  0  0  0  0
  3 20  1  0  0  0  0
  3 34  1  0  0  0  0
  4  5  1  0  0  0  0
  4  6  1  0  0  0  0
  4 21  1  0  0  0  0
  5 22  1  0  0  0  0
  5 23  1  0  0  0  0
  5 24  1  0  0  0  0
  6  7  1  0  0  0  0
  6  8  1  0  0  0  0
  6 25  1  0  0  0  0
  7 26  1  0  0  0  0
  7 27  1  0  0  0  0
  7 28  1  0  0  0  0
  8 12  1  0  0  0  0
  8  9  1  0  0  0  0
  9 10  2  0  0  0  0
  9 29  1  0  0  0  0
 10 11  1  0  0  0  0
 10 30  1  0  0  0  0
 11 12  2  0  0  0  0
 11 31  1  0  0  0  0
 13 14  1  0  0  0  0
 13 15  2  0  0  0  0
 14 32  1  0  0  0  0
 14 33  1  0  0  0  0
M  CHG  1   3   1
M  END
> <s_m_source_file>
AV-unprocessed.smi

> <i_m_source_file_index>
3116

> <i_lp_mmshare_version>
43012

> <i_f3d_flags>
0

> <s_epik_input>
W05IMl1DKD1PKVtDQEhdKFtDSDNdKVtOSF1bQ0BIXShbQ0gzXSlbQ0BIXShbQ0gzXSluMVtjSF1bY0hdW2NIXW4x

> <s_epik_cmdline>
J2VwaWtfcHl0aG9uJywgJy1waCcsICc3LjAnLCAnLXRuJywgJzgnLCAnLW1hJywgJzIwMCcsICctbWV0YWxfYmluZGluZycsICctaW1hZScsICc8aW5maWxlLm1hZT4nLCAnLW9tYWUnLCAnPG91dGZpbGUubWFlPic=

> <r_lp_tautomer_probability>
1

> <r_epik_Ionization_Penalty>
0.15658

> <r_epik_Ionization_Penalty_Charging>
0.156568

> <r_epik_Ionization_Penalty_Neutral>
1.19778e-05

> <r_epik_State_Penalty>
0.145866

> <r_epik_Charging_Adjusted_Penalty>
0.302434

> <i_epik_Tot_Q>
1

> <i_epik_Tot_abs_Q>
1

> <r_epik_Metal_State_Penalty>
0.146064

> <b_epik_Metal_Only>
0

> <s_lp_Force_Field>
OPLS_2005

> <r_lp_Energy>
10.4239

> <b_lp_Chiralities_Consistent>
1

> <s_lp_Variant>
AV-unprocessed.smi:3116-2

> <Gold.Version>
5.8.1

> <Gold.Id.Protein>
6NUR|6NUR_protein|mol2

> <Gold.PLP.Fitness>
42.9369

> <Gold.PLP.PLP>
-33.0720

> <Gold.PLP.part.hbond>
-3.0000

> <Gold.PLP.part.metal>
0.0000

> <Gold.PLP.part.buried>
-5.8331

> <Gold.PLP.part.nonpolar>
-24.7154

> <Gold.PLP.part.repulsive>
0.5019

> <Gold.PLP.ligand.clash>
0.0108

> <Gold.PLP.ligand.torsion>
1.1345

> <Gold.PLP.Chemscore.Hbond>
4.0000

> <Gold.PLP.Chemscore.CHOScore>
0.0000

> <Gold.PLP.Chemscore.Metal>
0.0000

> <Gold.Chemscore.Hbonds>
donor molecule, donor type, donor heavy atom, donor atom, acceptor molecule, acceptor atom, score
      L1  H     3    34       P1  8028  2.00
      L1  H    14    32       P1  7957  1.00
      P1  H  7989  7998       L1    15  1.00

> <Gold.PLP.Chemscore.Internal.Correction>
0.1448

> <Gold.Rescore>
     Score         DG    S(hbond)    S(metal)    S(lipo)     H(rot)  DE(clash)    DE(int)     intcor
     16.26     -17.70       2.97        0.00      73.26       2.45       0.43       1.01       ----

> <Gold.Chemscore.Fitness>
16.2615

> <Gold.Chemscore.DG>
-17.7017

> <Gold.Chemscore.ZeroCoef>
-5.4800

> <Gold.Chemscore.Hbond>
2.9679

> <Gold.Chemscore.Metal>
0.0000

> <Gold.Chemscore.Lipo>
73.2649

> <Gold.Chemscore.Internal_Hbond>
0.0000

> <Gold.Chemscore.DEClash>
0.4318

> <Gold.Chemscore.DEInternal>
1.0084

> <Gold.Chemscore.Rot>
2.4465

> <Gold.Chemscore.Internal.Correction>
   9.000000E+99

> <Gold.Chemscore.Hbonds>
donor molecule, donor type, donor heavy atom, donor atom, acceptor molecule, acceptor atom, score
      L1  H     3    34       P1  8028  0.99
      L1  H    14    32       P1  7957  0.98
      P1  H  7989  7998       L1    15  0.94

> <Gold.Chemscore.Hbond.Weighted>
-9.9128

> <Gold.Chemscore.Metal.Weighted>
-0.0000

> <Gold.Chemscore.Lipo.Weighted>
-8.5720

> <Gold.Chemscore.Internal_Hbond.Weighted>
0.0000

> <Gold.Chemscore.DEClash.Weighted>
0.4318

> <Gold.Chemscore.DEInternal.Weighted>
1.0084

> <Gold.Chemscore.Rot.Weighted>
6.2631

> <Gold.Chemscore.Internal.Correction.Weighted>
   9.000000E+99

> <Gold.Protein.RotatedTorsions>
[ 6907 6896 6895 6894 ] final   72.93 input  -60.11 | X-H torsion
[ 7974 7965 7964 7962 ] final  -66.57 input  175.53 | X-H torsion
[ 8008 7997 7996 7995 ] final  -20.58 input   59.86 | X-H torsion
[ 10167 10162 10161 10158 ] final  104.26 input  -65.29 | X-H torsion
[ 10718 10713 10712 10709 ] final  -34.07 input   66.30 | X-H torsion
[ 10763 10752 10751 10750 ] final   57.84 input  -60.55 | X-H torsion
[ 11005 11000 10999 10996 ] final   78.30 input  -57.11 | X-H torsion

> <Gold.Protein.ActiveResidues>
 VAL166  LYS551  ARG553  GLY616  TRP617  ASP618  TYR619  PRO620  LYS621  CYS622 
 ASP623  PHE694  ASN695  SER759  ASP760  ASP761  ALA762  ILE779  LEU786  VAL792 
 PHE793  MET794  SER795  GLU796  ALA797  LYS798  CYS799  TRP800  GLU811  SER814 

> <Gold.Protein.RotatedAtoms>
  152.4895  134.4497  159.9570 H   0  0  0  0  0  0  0  0  0  0  0  0  # atno 6907 bound_to 6896
  151.4487  133.3617  159.2800 H   0  0  0  0  0  0  0  0  0  0  0  0  # atno 6908 bound_to 6896
  150.9036  134.8474  159.7437 H   0  0  0  0  0  0  0  0  0  0  0  0  # atno 6909 bound_to 6896
  145.7401  140.8957  143.0534 H   0  0  0  0  0  0  0  0  0  0  0  0  # atno 7974 bound_to 7965
  154.4760  140.2058  155.9876 H   0  0  0  0  0  0  0  0  0  0  0  0  # atno 8008 bound_to 7997
  156.1090  140.3232  155.8016 H   0  0  0  0  0  0  0  0  0  0  0  0  # atno 8009 bound_to 7997
  155.4667  140.0528  157.2975 H   0  0  0  0  0  0  0  0  0  0  0  0  # atno 8010 bound_to 7997
  139.7192  144.7062  151.0900 H   0  0  0  0  0  0  0  0  0  0  0  0  # atno 10167 bound_to 10162
  156.3550  130.4314  149.7672 H   0  0  0  0  0  0  0  0  0  0  0  0  # atno 10718 bound_to 10713
  152.9858  135.5628  154.5455 H   0  0  0  0  0  0  0  0  0  0  0  0  # atno 10763 bound_to 10752
  154.4902  135.2792  155.1505 H   0  0  0  0  0  0  0  0  0  0  0  0  # atno 10764 bound_to 10752
  154.2977  135.6313  153.5465 H   0  0  0  0  0  0  0  0  0  0  0  0  # atno 10765 bound_to 10752
  139.9218  134.7752  156.1632 H   0  0  0  0  0  0  0  0  0  0  0  0  # atno 11005 bound_to 11000
  144.6872  139.9449  143.7476 LP  0  0  0  0  0  0  0  0  0  0  0  0  # atno 17320 bound_to 7965
  146.0455  139.3462  143.0671 LP  0  0  0  0  0  0  0  0  0  0  0  0  # atno 17321 bound_to 7965
  140.7750  143.5189  150.9561 LP  0  0  0  0  0  0  0  0  0  0  0  0  # atno 17342 bound_to 10162
  139.8875  143.6994  152.3149 LP  0  0  0  0  0  0  0  0  0  0  0  0  # atno 17343 bound_to 10162
  156.4858  130.8062  151.3074 LP  0  0  0  0  0  0  0  0  0  0  0  0  # atno 17370 bound_to 10713
  157.7466  130.9991  150.2878 LP  0  0  0  0  0  0  0  0  0  0  0  0  # atno 17371 bound_to 10713
  141.0745  133.6781  156.2208 LP  0  0  0  0  0  0  0  0  0  0  0  0  # atno 17394 bound_to 11000
  140.6451  134.5125  157.5573 LP  0  0  0  0  0  0  0  0  0  0  0  0  # atno 17395 bound_to 11000

$$$$
