AV-unprocessed.smi:2505|AV-procd|sdf|9853|dock2
  -GOLD-   2272013483D 1   1.00000     0.00000
 Structure written by MMmdl.
 48 52  0  0  0  0  0  0  0  0  1 V2000
  147.7647  133.8303  155.6258 O   0  0  0  0  0  0  0  0  0  0  0  0
  148.0652  134.3648  154.5610 C   0  0  0  0  0  0  0  0  0  0  0  0
  149.1015  135.2065  154.3882 N   0  0  0  0  0  0  0  0  0  0  0  0
  150.0861  135.6069  155.3297 C   0  0  0  0  0  0  0  0  0  0  0  0
  150.1401  135.1919  156.6832 C   0  0  0  0  0  0  0  0  0  0  0  0
  151.1051  135.6298  157.5207 N   0  0  0  0  0  0  0  0  0  0  0  0
  152.0006  136.4855  157.0206 C   0  0  0  0  0  0  0  0  0  0  0  0
  153.0917  136.9329  157.9431 C   0  0  0  0  0  0  0  0  0  0  0  0
  152.7673  137.5406  159.2927 C   0  0  0  0  0  0  0  0  0  0  0  0
  153.3327  138.4063  158.2013 C   0  0  0  0  0  0  0  0  0  0  0  0
  152.0508  136.9420  155.7663 N   0  0  0  0  0  0  0  0  0  0  0  0
  151.0894  136.5107  154.9223 C   0  0  0  0  0  0  0  0  0  0  0  0
  147.3633  134.1251  153.4405 N   0  0  0  0  0  0  0  0  0  0  0  0
  146.1886  133.2666  153.2784 C   0  0  2  0  0  0  0  0  0  0  0  0
  146.5247  131.9913  152.5040 C   0  0  1  0  0  0  0  0  0  0  0  0
  146.6011  130.5485  152.8569 C   0  0  0  0  0  0  0  0  0  0  0  0
  145.8036  129.9894  151.6488 C   0  0  0  0  0  0  0  0  0  0  0  0
  145.2148  131.1399  150.9953 O   0  0  0  0  0  0  0  0  0  0  0  0
  145.0904  132.0925  152.0318 C   0  0  2  0  0  0  0  0  0  0  0  0
  145.2786  133.6230  152.0373 C   0  0  0  0  0  0  0  0  0  0  0  0
  144.0187  134.4575  152.3067 C   0  0  0  0  0  0  0  0  0  0  0  0
  144.0373  135.6951  151.4020 C   0  0  0  0  0  0  0  0  0  0  0  0
  145.4387  135.7488  150.8063 C   0  0  0  0  0  0  0  0  0  0  0  0
  145.8964  134.2938  150.7971 C   0  0  0  0  0  0  0  0  0  0  0  0
  149.2507  135.5275  153.4427 H   0  0  0  0  0  0  0  0  0  0  0  0
  149.4149  134.5244  157.1210 H   0  0  0  0  0  0  0  0  0  0  0  0
  153.9600  136.2804  157.8746 H   0  0  0  0  0  0  0  0  0  0  0  0
  151.7186  137.6794  159.5487 H   0  0  0  0  0  0  0  0  0  0  0  0
  153.4209  137.2893  160.1253 H   0  0  0  0  0  0  0  0  0  0  0  0
  154.3649  138.7345  158.3029 H   0  0  0  0  0  0  0  0  0  0  0  0
  152.6599  139.1217  157.7321 H   0  0  0  0  0  0  0  0  0  0  0  0
  151.1272  136.8876  153.9108 H   0  0  0  0  0  0  0  0  0  0  0  0
  147.6833  134.5903  152.6032 H   0  0  0  0  0  0  0  0  0  0  0  0
  145.6399  133.0741  154.2050 H   0  0  0  0  0  0  0  0  0  0  0  0
  147.2420  132.2084  151.7065 H   0  0  0  0  0  0  0  0  0  0  0  0
  147.6244  130.1742  152.8926 H   0  0  0  0  0  0  0  0  0  0  0  0
  146.1086  130.3341  153.8063 H   0  0  0  0  0  0  0  0  0  0  0  0
  146.4470  129.4601  150.9455 H   0  0  0  0  0  0  0  0  0  0  0  0
  145.0265  129.3005  151.9822 H   0  0  0  0  0  0  0  0  0  0  0  0
  144.3529  131.7644  152.7735 H   0  0  0  0  0  0  0  0  0  0  0  0
  143.1139  133.8783  152.1187 H   0  0  0  0  0  0  0  0  0  0  0  0
  143.9692  134.7593  153.3523 H   0  0  0  0  0  0  0  0  0  0  0  0
  143.3065  135.5716  150.6018 H   0  0  0  0  0  0  0  0  0  0  0  0
  143.7836  136.6088  151.9405 H   0  0  0  0  0  0  0  0  0  0  0  0
  145.4586  136.2035  149.8156 H   0  0  0  0  0  0  0  0  0  0  0  0
  146.0906  136.3358  151.4542 H   0  0  0  0  0  0  0  0  0  0  0  0
  146.9843  134.2351  150.7621 H   0  0  0  0  0  0  0  0  0  0  0  0
  145.5290  133.8065  149.8931 H   0  0  0  0  0  0  0  0  0  0  0  0
  1  2  2  0  0  0  0
  2  3  1  0  0  0  0
  2 13  1  0  0  0  0
  3  4  1  0  0  0  0
  3 25  1  0  0  0  0
  4 12  1  0  0  0  0
  4  5  2  0  0  0  0
  5  6  1  0  0  0  0
  5 26  1  0  0  0  0
  6  7  2  0  0  0  0
  7  8  1  0  0  0  0
  7 11  1  0  0  0  0
  8 10  1  0  0  0  0
  8  9  1  0  0  0  0
  8 27  1  0  0  0  0
  9 10  1  0  0  0  0
  9 28  1  0  0  0  0
  9 29  1  0  0  0  0
 10 30  1  0  0  0  0
 10 31  1  0  0  0  0
 11 12  2  0  0  0  0
 12 32  1  0  0  0  0
 13 14  1  0  0  0  0
 13 33  1  0  0  0  0
 14 20  1  0  0  0  0
 14 15  1  0  0  0  0
 14 34  1  0  0  0  0
 15 19  1  0  0  0  0
 15 16  1  0  0  0  0
 15 35  1  0  0  0  0
 16 17  1  0  0  0  0
 16 36  1  0  0  0  0
 16 37  1  0  0  0  0
 17 18  1  0  0  0  0
 17 38  1  0  0  0  0
 17 39  1  0  0  0  0
 18 19  1  0  0  0  0
 19 20  1  0  0  0  0
 19 40  1  0  0  0  0
 20 24  1  0  0  0  0
 20 21  1  0  0  0  0
 21 22  1  0  0  0  0
 21 41  1  0  0  0  0
 21 42  1  0  0  0  0
 22 23  1  0  0  0  0
 22 43  1  0  0  0  0
 22 44  1  0  0  0  0
 23 24  1  0  0  0  0
 23 45  1  0  0  0  0
 23 46  1  0  0  0  0
 24 47  1  0  0  0  0
 24 48  1  0  0  0  0
M  END
> <s_m_source_file>
AV-unprocessed.smi

> <i_m_source_file_index>
2505

> <i_lp_mmshare_version>
43012

> <i_f3d_flags>
0

> <s_epik_input>
W0NIMl0xW0NIMl1bQ0hdMWMobltjSF0yKW5bY0hdYzJbTkhdQyg9TylbTkhdW0NAQEhdM1tDQEBIXShbQ0gyXVtDSDJdTzQpW0NASF00QzM1W0NIMl1bQ0gyXVtDSDJdW0NIMl01

> <s_epik_cmdline>
J2VwaWtfcHl0aG9uJywgJy1waCcsICc3LjAnLCAnLXRuJywgJzgnLCAnLW1hJywgJzIwMCcsICctbWV0YWxfYmluZGluZycsICctaW1hZScsICc8aW5maWxlLm1hZT4nLCAnLW9tYWUnLCAnPG91dGZpbGUubWFlPic=

> <r_lp_tautomer_probability>
1

> <r_epik_Ionization_Penalty>
2.6075e-05

> <r_epik_Ionization_Penalty_Charging>
0

> <r_epik_Ionization_Penalty_Neutral>
2.6075e-05

> <r_epik_State_Penalty>
-0

> <r_epik_Charging_Adjusted_Penalty>
0

> <i_epik_Tot_Q>
0

> <i_epik_Tot_abs_Q>
0

> <r_epik_Metal_State_Penalty>
-0

> <b_epik_Metal_Only>
0

> <s_lp_Force_Field>
OPLS_2005

> <r_lp_Energy>
84.8822

> <b_lp_Chiralities_Consistent>
1

> <s_lp_Variant>
AV-unprocessed.smi:2505-1

> <Gold.Version>
5.8.1

> <Gold.Id.Protein>
6NUR|6NUR_protein|mol2

> <Gold.PLP.Fitness>
41.7617

> <Gold.PLP.PLP>
-33.3948

> <Gold.PLP.part.hbond>
-3.9502

> <Gold.PLP.part.metal>
0.0000

> <Gold.PLP.part.buried>
-4.9591

> <Gold.PLP.part.nonpolar>
-24.8014

> <Gold.PLP.part.repulsive>
0.1746

> <Gold.PLP.ligand.clash>
0.0000

> <Gold.PLP.ligand.torsion>
0.2917

> <Gold.PLP.Chemscore.Hbond>
1.9790

> <Gold.PLP.Chemscore.CHOScore>
0.8709

> <Gold.PLP.Chemscore.Metal>
0.0000

> <Gold.Chemscore.Hbonds>
donor molecule, donor type, donor heavy atom, donor atom, acceptor molecule, acceptor atom, score
      L1  H     3    25       P1  7948  1.00
      L1  H    13    33       P1  7948  0.60
      P1  H  6896  6908       L1     6  0.11
      P1  H 10752 10765       L1    11  0.25
      L1  C    12    32       P1  7949  0.87

> <Gold.PLP.Chemscore.Internal.Correction>
0.4003

> <Gold.Rescore>
     Score         DG    S(hbond)    S(metal)    S(lipo)     H(rot)  DE(clash)    DE(int)     intcor
     18.23     -19.79       2.20        0.00      85.35       1.17       0.06       1.50       ----

> <Gold.Chemscore.Fitness>
18.2273

> <Gold.Chemscore.DG>
-19.7907

> <Gold.Chemscore.ZeroCoef>
-5.4800

> <Gold.Chemscore.Hbond>
2.1951

> <Gold.Chemscore.Metal>
0.0000

> <Gold.Chemscore.Lipo>
85.3466

> <Gold.Chemscore.Internal_Hbond>
0.0000

> <Gold.Chemscore.DEClash>
0.0650

> <Gold.Chemscore.DEInternal>
1.4985

> <Gold.Chemscore.Rot>
1.1744

> <Gold.Chemscore.Internal.Correction>
   9.000000E+99

> <Gold.Chemscore.Hbonds>
donor molecule, donor type, donor heavy atom, donor atom, acceptor molecule, acceptor atom, score
      L1  H     3    25       P1  7948  0.40
      L1  H    13    33       P1  7948  0.48
      P1  H  6896  6908       L1     6  0.08

> <Gold.Chemscore.Hbond.Weighted>
-7.3316

> <Gold.Chemscore.Metal.Weighted>
-0.0000

> <Gold.Chemscore.Lipo.Weighted>
-9.9856

> <Gold.Chemscore.Internal_Hbond.Weighted>
0.0000

> <Gold.Chemscore.DEClash.Weighted>
0.0650

> <Gold.Chemscore.DEInternal.Weighted>
1.4985

> <Gold.Chemscore.Rot.Weighted>
3.0064

> <Gold.Chemscore.Internal.Correction.Weighted>
   9.000000E+99

> <Gold.Protein.RotatedTorsions>
[ 6907 6896 6895 6894 ] final  178.38 input  -60.11 | X-H torsion
[ 7974 7965 7964 7962 ] final -130.51 input  175.53 | X-H torsion
[ 8008 7997 7996 7995 ] final   70.11 input   59.86 | X-H torsion
[ 10167 10162 10161 10158 ] final   86.15 input  -65.29 | X-H torsion
[ 10718 10713 10712 10709 ] final  -79.41 input   66.30 | X-H torsion
[ 10763 10752 10751 10750 ] final -151.67 input  -60.55 | X-H torsion
[ 11005 11000 10999 10996 ] final   -6.23 input  -57.11 | X-H torsion

> <Gold.Protein.ActiveResidues>
 VAL166  LYS551  ARG553  GLY616  TRP617  ASP618  TYR619  PRO620  LYS621  CYS622 
 ASP623  PHE694  ASN695  SER759  ASP760  ASP761  ALA762  ILE779  LEU786  VAL792 
 PHE793  MET794  SER795  GLU796  ALA797  LYS798  CYS799  TRP800  GLU811  SER814 

> <Gold.Protein.RotatedAtoms>
  151.6887  133.3311  159.3237 H   0  0  0  0  0  0  0  0  0  0  0  0  # atno 6907 bound_to 6896
  150.7789  134.6717  159.6405 H   0  0  0  0  0  0  0  0  0  0  0  0  # atno 6908 bound_to 6896
  152.3840  134.6549  160.0184 H   0  0  0  0  0  0  0  0  0  0  0  0  # atno 6909 bound_to 6896
  144.9468  140.7301  143.4812 H   0  0  0  0  0  0  0  0  0  0  0  0  # atno 7974 bound_to 7965
  155.7338  140.3491  155.5072 H   0  0  0  0  0  0  0  0  0  0  0  0  # atno 8008 bound_to 7997
  155.9158  140.1058  157.1266 H   0  0  0  0  0  0  0  0  0  0  0  0  # atno 8009 bound_to 7997
  154.4062  140.1259  156.4602 H   0  0  0  0  0  0  0  0  0  0  0  0  # atno 8010 bound_to 7997
  139.8905  144.6388  150.8744 H   0  0  0  0  0  0  0  0  0  0  0  0  # atno 10167 bound_to 10162
  156.0093  130.4545  150.3644 H   0  0  0  0  0  0  0  0  0  0  0  0  # atno 10718 bound_to 10713
  154.8043  135.3254  154.7471 H   0  0  0  0  0  0  0  0  0  0  0  0  # atno 10763 bound_to 10752
  153.8132  135.6894  153.4842 H   0  0  0  0  0  0  0  0  0  0  0  0  # atno 10764 bound_to 10752
  153.1779  135.4598  154.9933 H   0  0  0  0  0  0  0  0  0  0  0  0  # atno 10765 bound_to 10752
  140.6997  133.9000  155.8675 H   0  0  0  0  0  0  0  0  0  0  0  0  # atno 11005 bound_to 11000
  145.2905  139.1885  143.4743 LP  0  0  0  0  0  0  0  0  0  0  0  0  # atno 17320 bound_to 7965
  146.3306  140.2881  142.8614 LP  0  0  0  0  0  0  0  0  0  0  0  0  # atno 17321 bound_to 7965
  140.7727  143.3514  151.2007 LP  0  0  0  0  0  0  0  0  0  0  0  0  # atno 17342 bound_to 10162
  139.7114  143.9370  152.2949 LP  0  0  0  0  0  0  0  0  0  0  0  0  # atno 17343 bound_to 10162
  157.1732  131.0374  151.2785 LP  0  0  0  0  0  0  0  0  0  0  0  0  # atno 17370 bound_to 10713
  157.4211  130.7438  149.6914 LP  0  0  0  0  0  0  0  0  0  0  0  0  # atno 17371 bound_to 10713
  141.0173  134.0937  157.4158 LP  0  0  0  0  0  0  0  0  0  0  0  0  # atno 17394 bound_to 11000
  139.8900  135.0109  156.6711 LP  0  0  0  0  0  0  0  0  0  0  0  0  # atno 17395 bound_to 11000

$$$$
