AV-unprocessed.smi:2507|AV-procd|sdf|9864|dock3
  -GOLD-   2272013493D 1   1.00000     0.00000
 Structure written by MMmdl.
 44 45  0  0  0  0  0  0  0  0  1 V2000
  151.4488  145.6281  159.8492 C   0  0  0  0  0  0  0  0  0  0  0  0
  151.9110  145.0105  158.5249 C   0  0  0  0  0  0  0  0  0  0  0  0
  152.1577  143.5320  158.6497 C   0  0  0  0  0  0  0  0  0  0  0  0
  152.9886  143.0758  159.5772 N   0  0  0  0  0  0  0  0  0  0  0  0
  152.9821  141.7294  159.4295 N   0  0  0  0  0  0  0  0  0  0  0  0
  153.8027  140.9174  160.3020 C   0  0  0  0  0  0  0  0  0  0  0  0
  152.1460  141.3184  158.4116 C   0  0  0  0  0  0  0  0  0  0  0  0
  151.6029  142.4615  157.8966 C   0  0  0  0  0  0  0  0  0  0  0  0
  150.6733  142.6125  156.8358 N   0  0  0  0  0  0  0  0  0  0  0  0
  150.1928  141.6542  156.0268 C   0  0  0  0  0  0  0  0  0  0  0  0
  150.4903  140.4611  156.0875 O   0  0  0  0  0  0  0  0  0  0  0  0
  149.3373  142.1614  155.1282 N   0  0  0  0  0  0  0  0  0  0  0  0
  148.6441  141.3914  154.1019 C   0  0  0  0  0  0  0  0  0  0  0  0
  147.1945  141.0777  154.5106 C   0  0  0  0  0  0  0  0  0  0  0  0
  146.3828  142.3376  154.8504 C   0  0  1  0  0  0  0  0  0  0  0  0
  145.9085  143.0751  153.5828 C   0  0  0  0  0  0  0  0  0  0  0  0
  145.0374  144.2809  153.9529 C   0  0  0  0  0  0  0  0  0  0  0  0
  143.9040  143.8338  154.8816 C   0  0  0  0  0  0  0  0  0  0  0  0
  144.4714  143.0559  156.0794 C   0  0  0  0  0  0  0  0  0  0  0  0
  145.2444  141.9520  155.6184 O   0  0  0  0  0  0  0  0  0  0  0  0
  151.2720  146.6981  159.7383 H   0  0  0  0  0  0  0  0  0  0  0  0
  152.1981  145.4934  160.6298 H   0  0  0  0  0  0  0  0  0  0  0  0
  150.5204  145.1707  160.1924 H   0  0  0  0  0  0  0  0  0  0  0  0
  151.1617  145.2010  157.7565 H   0  0  0  0  0  0  0  0  0  0  0  0
  152.8188  145.5131  158.1886 H   0  0  0  0  0  0  0  0  0  0  0  0
  153.6639  139.8610  160.0703 H   0  0  0  0  0  0  0  0  0  0  0  0
  153.5226  141.0922  161.3413 H   0  0  0  0  0  0  0  0  0  0  0  0
  154.8532  141.1754  160.1656 H   0  0  0  0  0  0  0  0  0  0  0  0
  152.0194  140.2765  158.1581 H   0  0  0  0  0  0  0  0  0  0  0  0
  150.3411  143.5519  156.6742 H   0  0  0  0  0  0  0  0  0  0  0  0
  149.1522  143.1533  155.1548 H   0  0  0  0  0  0  0  0  0  0  0  0
  148.6705  141.9277  153.1518 H   0  0  0  0  0  0  0  0  0  0  0  0
  149.1954  140.4635  153.9489 H   0  0  0  0  0  0  0  0  0  0  0  0
  146.7036  140.5472  153.6937 H   0  0  0  0  0  0  0  0  0  0  0  0
  147.1869  140.3998  155.3651 H   0  0  0  0  0  0  0  0  0  0  0  0
  147.0069  143.0074  155.4447 H   0  0  0  0  0  0  0  0  0  0  0  0
  146.7649  143.4033  152.9927 H   0  0  0  0  0  0  0  0  0  0  0  0
  145.3367  142.3930  152.9519 H   0  0  0  0  0  0  0  0  0  0  0  0
  145.6470  145.0345  154.4530 H   0  0  0  0  0  0  0  0  0  0  0  0
  144.6327  144.7488  153.0548 H   0  0  0  0  0  0  0  0  0  0  0  0
  143.3348  144.6974  155.2267 H   0  0  0  0  0  0  0  0  0  0  0  0
  143.2086  143.1985  154.3317 H   0  0  0  0  0  0  0  0  0  0  0  0
  145.0824  143.7037  156.7098 H   0  0  0  0  0  0  0  0  0  0  0  0
  143.6590  142.6816  156.7020 H   0  0  0  0  0  0  0  0  0  0  0  0
  1  2  1  0  0  0  0
  1 21  1  0  0  0  0
  1 22  1  0  0  0  0
  1 23  1  0  0  0  0
  2  3  1  0  0  0  0
  2 24  1  0  0  0  0
  2 25  1  0  0  0  0
  3  8  1  0  0  0  0
  3  4  2  0  0  0  0
  4  5  1  0  0  0  0
  5  6  1  0  0  0  0
  5  7  1  0  0  0  0
  6 26  1  0  0  0  0
  6 27  1  0  0  0  0
  6 28  1  0  0  0  0
  7  8  2  0  0  0  0
  7 29  1  0  0  0  0
  8  9  1  0  0  0  0
  9 10  1  0  0  0  0
  9 30  1  0  0  0  0
 10 11  2  0  0  0  0
 10 12  1  0  0  0  0
 12 13  1  0  0  0  0
 12 31  1  0  0  0  0
 13 14  1  0  0  0  0
 13 32  1  0  0  0  0
 13 33  1  0  0  0  0
 14 15  1  0  0  0  0
 14 34  1  0  0  0  0
 14 35  1  0  0  0  0
 15 20  1  0  0  0  0
 15 16  1  0  0  0  0
 15 36  1  0  0  0  0
 16 17  1  0  0  0  0
 16 37  1  0  0  0  0
 16 38  1  0  0  0  0
 17 18  1  0  0  0  0
 17 39  1  0  0  0  0
 17 40  1  0  0  0  0
 18 19  1  0  0  0  0
 18 41  1  0  0  0  0
 18 42  1  0  0  0  0
 19 20  1  0  0  0  0
 19 43  1  0  0  0  0
 19 44  1  0  0  0  0
M  END
> <s_m_source_file>
AV-unprocessed.smi

> <i_m_source_file_index>
2507

> <i_lp_mmshare_version>
43012

> <i_f3d_flags>
0

> <s_epik_input>
W0NIM11bQ0gyXWMxbm4oW0NIM10pW2NIXWMxW05IXUMoPU8pW05IXVtDSDJdW0NIMl1bQ0BASF0yW0NIMl1bQ0gyXVtDSDJdW0NIMl1PMg==

> <s_epik_cmdline>
J2VwaWtfcHl0aG9uJywgJy1waCcsICc3LjAnLCAnLXRuJywgJzgnLCAnLW1hJywgJzIwMCcsICctbWV0YWxfYmluZGluZycsICctaW1hZScsICc8aW5maWxlLm1hZT4nLCAnLW9tYWUnLCAnPG91dGZpbGUubWFlPic=

> <r_lp_tautomer_probability>
1

> <r_epik_Ionization_Penalty>
0.00072031

> <r_epik_Ionization_Penalty_Charging>
0

> <r_epik_Ionization_Penalty_Neutral>
0.00072031

> <r_epik_State_Penalty>
-0

> <r_epik_Charging_Adjusted_Penalty>
0

> <i_epik_Tot_Q>
0

> <i_epik_Tot_abs_Q>
0

> <r_epik_Metal_State_Penalty>
-0

> <b_epik_Metal_Only>
0

> <s_lp_Force_Field>
OPLS_2005

> <r_lp_Energy>
7.2839

> <b_lp_Chiralities_Consistent>
1

> <s_lp_Variant>
AV-unprocessed.smi:2507-2

> <Gold.Version>
5.8.1

> <Gold.Id.Protein>
6NUR|6NUR_protein|mol2

> <Gold.PLP.Fitness>
50.7914

> <Gold.PLP.PLP>
-46.3817

> <Gold.PLP.part.hbond>
-2.0000

> <Gold.PLP.part.metal>
0.0000

> <Gold.PLP.part.buried>
-7.9565

> <Gold.PLP.part.nonpolar>
-36.8969

> <Gold.PLP.part.repulsive>
0.3835

> <Gold.PLP.ligand.clash>
0.0000

> <Gold.PLP.ligand.torsion>
0.3385

> <Gold.PLP.Chemscore.Hbond>
1.6721

> <Gold.PLP.Chemscore.CHOScore>
0.0000

> <Gold.PLP.Chemscore.Metal>
0.0000

> <Gold.Chemscore.Hbonds>
donor molecule, donor type, donor heavy atom, donor atom, acceptor molecule, acceptor atom, score
      L1  H     9    30       P1  8028  0.73
      L1  H    12    31       P1  8028  1.00

> <Gold.PLP.Chemscore.Internal.Correction>
0.0704

> <Gold.Rescore>
     Score         DG    S(hbond)    S(metal)    S(lipo)     H(rot)  DE(clash)    DE(int)     intcor
     18.57     -20.36       1.88        0.00     106.25       1.50       0.35       1.44       ----

> <Gold.Chemscore.Fitness>
18.5661

> <Gold.Chemscore.DG>
-20.3558

> <Gold.Chemscore.ZeroCoef>
-5.4800

> <Gold.Chemscore.Hbond>
1.8848

> <Gold.Chemscore.Metal>
0.0000

> <Gold.Chemscore.Lipo>
106.2490

> <Gold.Chemscore.Internal_Hbond>
0.0000

> <Gold.Chemscore.DEClash>
0.3533

> <Gold.Chemscore.DEInternal>
1.4364

> <Gold.Chemscore.Rot>
1.5042

> <Gold.Chemscore.Internal.Correction>
   9.000000E+99

> <Gold.Chemscore.Hbonds>
donor molecule, donor type, donor heavy atom, donor atom, acceptor molecule, acceptor atom, score
      L1  H     9    30       P1  8028  0.69
      L1  H    12    31       P1  8028  1.00

> <Gold.Chemscore.Hbond.Weighted>
-6.2953

> <Gold.Chemscore.Metal.Weighted>
-0.0000

> <Gold.Chemscore.Lipo.Weighted>
-12.4311

> <Gold.Chemscore.Internal_Hbond.Weighted>
0.0000

> <Gold.Chemscore.DEClash.Weighted>
0.3533

> <Gold.Chemscore.DEInternal.Weighted>
1.4364

> <Gold.Chemscore.Rot.Weighted>
3.8507

> <Gold.Chemscore.Internal.Correction.Weighted>
   9.000000E+99

> <Gold.Protein.RotatedTorsions>
[ 6907 6896 6895 6894 ] final   79.16 input  -60.11 | X-H torsion
[ 7974 7965 7964 7962 ] final  164.96 input  175.53 | X-H torsion
[ 8008 7997 7996 7995 ] final  129.60 input   59.86 | X-H torsion
[ 10167 10162 10161 10158 ] final  -93.33 input  -65.29 | X-H torsion
[ 10718 10713 10712 10709 ] final   27.02 input   66.30 | X-H torsion
[ 10763 10752 10751 10750 ] final   92.51 input  -60.55 | X-H torsion
[ 11005 11000 10999 10996 ] final  131.54 input  -57.11 | X-H torsion

> <Gold.Protein.ActiveResidues>
 VAL166  LYS551  ARG553  GLY616  TRP617  ASP618  TYR619  PRO620  LYS621  CYS622 
 ASP623  PHE694  ASN695  SER759  ASP760  ASP761  ALA762  ILE779  LEU786  VAL792 
 PHE793  MET794  SER795  GLU796  ALA797  LYS798  CYS799  TRP800  GLU811  SER814 

> <Gold.Protein.RotatedAtoms>
  152.5188  134.3554  159.9265 H   0  0  0  0  0  0  0  0  0  0  0  0  # atno 6907 bound_to 6896
  151.3505  133.3921  159.2687 H   0  0  0  0  0  0  0  0  0  0  0  0  # atno 6908 bound_to 6896
  150.9730  134.9118  159.7857 H   0  0  0  0  0  0  0  0  0  0  0  0  # atno 6909 bound_to 6896
  144.7523  139.8401  143.6362 H   0  0  0  0  0  0  0  0  0  0  0  0  # atno 7974 bound_to 7965
  156.2939  140.2616  156.2625 H   0  0  0  0  0  0  0  0  0  0  0  0  # atno 8008 bound_to 7997
  154.9774  140.0390  157.2281 H   0  0  0  0  0  0  0  0  0  0  0  0  # atno 8009 bound_to 7997
  154.7803  140.2794  155.6074 H   0  0  0  0  0  0  0  0  0  0  0  0  # atno 8010 bound_to 7997
  140.3258  143.3023  151.9997 H   0  0  0  0  0  0  0  0  0  0  0  0  # atno 10167 bound_to 10162
  157.2146  130.6950  149.6243 H   0  0  0  0  0  0  0  0  0  0  0  0  # atno 10718 bound_to 10713
  153.2199  135.4359  155.0477 H   0  0  0  0  0  0  0  0  0  0  0  0  # atno 10763 bound_to 10752
  154.8245  135.3354  154.6942 H   0  0  0  0  0  0  0  0  0  0  0  0  # atno 10764 bound_to 10752
  153.7375  135.7007  153.5031 H   0  0  0  0  0  0  0  0  0  0  0  0  # atno 10765 bound_to 10752
  139.9736  134.9570  156.9453 H   0  0  0  0  0  0  0  0  0  0  0  0  # atno 11005 bound_to 11000
  146.1489  139.4566  143.0061 LP  0  0  0  0  0  0  0  0  0  0  0  0  # atno 17320 bound_to 7965
  145.6901  141.0166  143.1560 LP  0  0  0  0  0  0  0  0  0  0  0  0  # atno 17321 bound_to 7965
  139.4865  144.6275  151.7136 LP  0  0  0  0  0  0  0  0  0  0  0  0  # atno 17342 bound_to 10162
  140.5442  144.0530  150.6100 LP  0  0  0  0  0  0  0  0  0  0  0  0  # atno 17343 bound_to 10162
  155.9687  130.4540  150.5833 LP  0  0  0  0  0  0  0  0  0  0  0  0  # atno 17370 bound_to 10713
  157.3638  131.0754  151.1614 LP  0  0  0  0  0  0  0  0  0  0  0  0  # atno 17371 bound_to 10713
  140.5241  134.0878  155.7299 LP  0  0  0  0  0  0  0  0  0  0  0  0  # atno 17394 bound_to 11000
  141.1415  133.9130  157.2315 LP  0  0  0  0  0  0  0  0  0  0  0  0  # atno 17395 bound_to 11000

$$$$
