AV-unprocessed.smi:224|AV-procd|sdf|1713|dock3
  -GOLD-   2262020183D 1   1.00000     0.00000
 Structure written by MMmdl.
 56 59  0  0  0  0  0  0  0  0  2 V2000
  145.4812  132.0224  149.1428 C   0  0  0  0  0  0  0  0  0  0  0  0
  145.9289  131.8003  150.5933 C   0  0  2  0  0  0  0  0  0  0  0  0
  146.3481  130.4558  150.7150 O   0  0  0  0  0  0  0  0  0  0  0  0
  144.7863  132.0766  151.5915 C   0  0  0  0  0  0  0  0  0  0  0  0
  144.3433  133.4958  151.5892 N   0  3  1  0  0  0  0  0  0  0  0  0
  143.5245  133.8751  152.7724 C   0  0  0  0  0  0  0  0  0  0  0  0
  142.9793  135.3070  152.6253 C   0  0  0  0  0  0  0  0  0  0  0  0
  144.0553  136.2562  152.3468 N   0  0  0  0  0  0  0  0  0  0  0  0
  144.6639  136.9008  153.3794 C   0  0  0  0  0  0  0  0  0  0  0  0
  144.3859  136.5300  154.6582 N   0  0  0  0  0  0  0  0  0  0  0  0
  144.9792  137.1404  155.6874 C   0  0  0  0  0  0  0  0  0  0  0  0
  145.8666  138.1352  155.6665 N   0  0  0  0  0  0  0  0  0  0  0  0
  146.1455  138.5225  154.3895 C   0  0  0  0  0  0  0  0  0  0  0  0
  145.5938  137.9661  153.1998 C   0  0  0  0  0  0  0  0  0  0  0  0
  146.1031  138.6334  152.0915 N   0  0  0  0  0  0  0  0  0  0  0  0
  146.9157  139.5215  152.5951 C   0  0  0  0  0  0  0  0  0  0  0  0
  147.0048  139.5221  153.9683 N   0  0  0  0  0  0  0  0  0  0  0  0
  147.8232  140.4055  154.7849 C   0  0  0  0  0  0  0  0  0  0  0  0
  149.3118  140.4268  154.3674 C   0  0  2  0  0  0  0  0  0  0  0  0
  149.4319  141.1002  153.1257 O   0  0  0  0  0  0  0  0  0  0  0  0
  149.9446  139.0448  154.2343 C   0  0  0  0  0  0  0  0  0  0  0  0
  151.3935  139.2966  154.6266 C   0  0  0  0  0  0  0  0  0  0  0  0
  151.2672  140.2122  155.7010 O   0  0  0  0  0  0  0  0  0  0  0  0
  150.2228  141.1301  155.3937 C   0  0  0  0  0  0  0  0  0  0  0  0
  144.8789  135.9054  151.1909 C   0  0  0  0  0  0  0  0  0  0  0  0
  145.4389  134.4690  151.2985 C   0  0  1  0  0  0  0  0  0  0  0  0
  146.6193  134.3770  152.2899 C   0  0  0  0  0  0  0  0  0  0  0  0
  145.1657  133.0538  148.9842 H   0  0  0  0  0  0  0  0  0  0  0  0
  144.6444  131.3742  148.8799 H   0  0  0  0  0  0  0  0  0  0  0  0
  146.2930  131.8165  148.4445 H   0  0  0  0  0  0  0  0  0  0  0  0
  146.7841  132.4465  150.7876 H   0  0  0  0  0  0  0  0  0  0  0  0
  147.2889  130.4185  150.6396 H   0  0  0  0  0  0  0  0  0  0  0  0
  143.9311  131.4349  151.3735 H   0  0  0  0  0  0  0  0  0  0  0  0
  145.1286  131.8007  152.5905 H   0  0  0  0  0  0  0  0  0  0  0  0
  142.6838  133.1931  152.8897 H   0  0  0  0  0  0  0  0  0  0  0  0
  144.1222  133.7856  153.6800 H   0  0  0  0  0  0  0  0  0  0  0  0
  142.2764  135.3437  151.7922 H   0  0  0  0  0  0  0  0  0  0  0  0
  142.4091  135.5985  153.5083 H   0  0  0  0  0  0  0  0  0  0  0  0
  144.7040  136.7803  156.6678 H   0  0  0  0  0  0  0  0  0  0  0  0
  147.4771  140.2056  151.9751 H   0  0  0  0  0  0  0  0  0  0  0  0
  147.4022  141.4103  154.7294 H   0  0  0  0  0  0  0  0  0  0  0  0
  147.7292  140.0935  155.8258 H   0  0  0  0  0  0  0  0  0  0  0  0
  149.3283  140.4674  152.4314 H   0  0  0  0  0  0  0  0  0  0  0  0
  149.5046  138.3575  154.9574 H   0  0  0  0  0  0  0  0  0  0  0  0
  149.8344  138.6009  153.2440 H   0  0  0  0  0  0  0  0  0  0  0  0
  151.9144  138.3883  154.9301 H   0  0  0  0  0  0  0  0  0  0  0  0
  151.9488  139.7594  153.8094 H   0  0  0  0  0  0  0  0  0  0  0  0
  150.6512  142.0535  154.9999 H   0  0  0  0  0  0  0  0  0  0  0  0
  149.6934  141.3841  156.3127 H   0  0  0  0  0  0  0  0  0  0  0  0
  144.2474  135.9812  150.3052 H   0  0  0  0  0  0  0  0  0  0  0  0
  145.6964  136.6063  151.0323 H   0  0  0  0  0  0  0  0  0  0  0  0
  145.8355  134.2160  150.3143 H   0  0  0  0  0  0  0  0  0  0  0  0
  147.3811  135.1195  152.0506 H   0  0  0  0  0  0  0  0  0  0  0  0
  147.1042  133.4018  152.2527 H   0  0  0  0  0  0  0  0  0  0  0  0
  146.3102  134.5518  153.3195 H   0  0  0  0  0  0  0  0  0  0  0  0
  143.7222  133.5759  150.7972 H   0  0  0  0  0  0  0  0  0  0  0  0
  1  2  1  0  0  0  0
  1 28  1  0  0  0  0
  1 29  1  0  0  0  0
  1 30  1  0  0  0  0
  2  3  1  0  0  0  0
  2  4  1  0  0  0  0
  2 31  1  0  0  0  0
  3 32  1  0  0  0  0
  4  5  1  0  0  0  0
  4 33  1  0  0  0  0
  4 34  1  0  0  0  0
  5 26  1  0  0  0  0
  5  6  1  0  0  0  0
  5 56  1  0  0  0  0
  6  7  1  0  0  0  0
  6 35  1  0  0  0  0
  6 36  1  0  0  0  0
  7  8  1  0  0  0  0
  7 37  1  0  0  0  0
  7 38  1  0  0  0  0
  8  9  1  0  0  0  0
  8 25  1  0  0  0  0
  9 14  1  0  0  0  0
  9 10  2  0  0  0  0
 10 11  1  0  0  0  0
 11 12  2  0  0  0  0
 11 39  1  0  0  0  0
 12 13  1  0  0  0  0
 13 17  1  0  0  0  0
 13 14  2  0  0  0  0
 14 15  1  0  0  0  0
 15 16  2  0  0  0  0
 16 17  1  0  0  0  0
 16 40  1  0  0  0  0
 17 18  1  0  0  0  0
 18 19  1  0  0  0  0
 18 41  1  0  0  0  0
 18 42  1  0  0  0  0
 19 24  1  0  0  0  0
 19 20  1  0  0  0  0
 19 21  1  0  0  0  0
 20 43  1  0  0  0  0
 21 22  1  0  0  0  0
 21 44  1  0  0  0  0
 21 45  1  0  0  0  0
 22 23  1  0  0  0  0
 22 46  1  0  0  0  0
 22 47  1  0  0  0  0
 23 24  1  0  0  0  0
 24 48  1  0  0  0  0
 24 49  1  0  0  0  0
 25 26  1  0  0  0  0
 25 50  1  0  0  0  0
 25 51  1  0  0  0  0
 26 27  1  0  0  0  0
 26 52  1  0  0  0  0
 27 53  1  0  0  0  0
 27 54  1  0  0  0  0
 27 55  1  0  0  0  0
M  CHG  1   5   1
M  END
> <s_m_source_file>
AV-unprocessed.smi

> <i_m_source_file_index>
224

> <i_lp_mmshare_version>
43012

> <i_f3d_flags>
0

> <s_epik_input>
W0NIM11bQ0BIXShbT0hdKVtDSDJdTjFbQ0gyXVtDSDJdTihbQ0gyXVtDQEhdMVtDSDNdKWMobltjSF1uMiljKGMyMyluW2NIXW4zW0NIMl1bQ0BAXTQoW09IXSlbQ0gyXVtDSDJdT1tDSDJdNA==

> <s_epik_cmdline>
J2VwaWtfcHl0aG9uJywgJy1waCcsICc3LjAnLCAnLXRuJywgJzgnLCAnLW1hJywgJzIwMCcsICctbWV0YWxfYmluZGluZycsICctaW1hZScsICc8aW5maWxlLm1hZT4nLCAnLW9tYWUnLCAnPG91dGZpbGUubWFlPic=

> <r_lp_tautomer_probability>
1

> <r_epik_Ionization_Penalty>
0.00516958

> <r_epik_Ionization_Penalty_Charging>
0.00509693

> <r_epik_Ionization_Penalty_Neutral>
7.26542e-05

> <r_epik_State_Penalty>
-0

> <r_epik_Charging_Adjusted_Penalty>
0.00509693

> <i_epik_Tot_Q>
1

> <i_epik_Tot_abs_Q>
1

> <r_epik_Metal_State_Penalty>
-0

> <b_epik_Metal_Only>
0

> <s_lp_Force_Field>
OPLS_2005

> <r_lp_Energy>
51.1284

> <b_lp_Chiralities_Consistent>
1

> <s_lp_Variant>
AV-unprocessed.smi:224-7

> <Gold.Version>
5.8.1

> <Gold.Id.Protein>
6NUR|6NUR_protein|mol2

> <Gold.PLP.Fitness>
50.0556

> <Gold.PLP.PLP>
-39.4004

> <Gold.PLP.part.hbond>
-3.3587

> <Gold.PLP.part.metal>
0.0000

> <Gold.PLP.part.buried>
-1.4438

> <Gold.PLP.part.nonpolar>
-35.8889

> <Gold.PLP.part.repulsive>
0.3993

> <Gold.PLP.ligand.clash>
0.0000

> <Gold.PLP.ligand.torsion>
0.7362

> <Gold.PLP.Chemscore.Hbond>
2.9150

> <Gold.PLP.Chemscore.CHOScore>
1.0000

> <Gold.PLP.Chemscore.Metal>
0.0000

> <Gold.Chemscore.Hbonds>
donor molecule, donor type, donor heavy atom, donor atom, acceptor molecule, acceptor atom, score
      L1  H     3    32       P1 10747  1.00
      L1  H    20    43       P1  7957  0.58
      P1  H  7989  7998       L1    20  0.01
      P1  H  8011  8017       L1    20  1.00
      L1  C    16    40       P1  7957  1.00

> <Gold.PLP.Chemscore.Internal.Correction>
0.3827

> <Gold.Rescore>
     Score         DG    S(hbond)    S(metal)    S(lipo)     H(rot)  DE(clash)    DE(int)     intcor
     13.19     -15.93       2.31        0.00      89.64       3.02       1.20       1.54       ----

> <Gold.Chemscore.Fitness>
13.1946

> <Gold.Chemscore.DG>
-15.9318

> <Gold.Chemscore.ZeroCoef>
-5.4800

> <Gold.Chemscore.Hbond>
2.3062

> <Gold.Chemscore.Metal>
0.0000

> <Gold.Chemscore.Lipo>
89.6441

> <Gold.Chemscore.Internal_Hbond>
0.0000

> <Gold.Chemscore.DEClash>
1.1994

> <Gold.Chemscore.DEInternal>
1.5379

> <Gold.Chemscore.Rot>
3.0231

> <Gold.Chemscore.Internal.Correction>
   9.000000E+99

> <Gold.Chemscore.Hbonds>
donor molecule, donor type, donor heavy atom, donor atom, acceptor molecule, acceptor atom, score
      L1  H     3    32       P1 10747  1.00
      L1  H    20    43       P1  7957  0.54
      P1  H  8011  8017       L1    20  0.34

> <Gold.Chemscore.Hbond.Weighted>
-7.7026

> <Gold.Chemscore.Metal.Weighted>
-0.0000

> <Gold.Chemscore.Lipo.Weighted>
-10.4884

> <Gold.Chemscore.Internal_Hbond.Weighted>
0.0000

> <Gold.Chemscore.DEClash.Weighted>
1.1994

> <Gold.Chemscore.DEInternal.Weighted>
1.5379

> <Gold.Chemscore.Rot.Weighted>
7.7391

> <Gold.Chemscore.Internal.Correction.Weighted>
   9.000000E+99

> <Gold.Protein.RotatedTorsions>
[ 6907 6896 6895 6894 ] final  -90.71 input  -60.11 | X-H torsion
[ 7974 7965 7964 7962 ] final  -81.04 input  175.53 | X-H torsion
[ 8008 7997 7996 7995 ] final -129.84 input   59.86 | X-H torsion
[ 10167 10162 10161 10158 ] final -110.37 input  -65.29 | X-H torsion
[ 10718 10713 10712 10709 ] final -153.79 input   66.30 | X-H torsion
[ 10763 10752 10751 10750 ] final -151.87 input  -60.55 | X-H torsion
[ 11005 11000 10999 10996 ] final  -71.07 input  -57.11 | X-H torsion

> <Gold.Protein.ActiveResidues>
 VAL166  LYS551  ARG553  GLY616  TRP617  ASP618  TYR619  PRO620  LYS621  CYS622 
 ASP623  PHE694  ASN695  SER759  ASP760  ASP761  ALA762  ILE779  LEU786  VAL792 
 PHE793  MET794  SER795  GLU796  ALA797  LYS798  CYS799  TRP800  GLU811  SER814 

> <Gold.Protein.RotatedAtoms>
  150.6884  134.2389  159.4464 H   0  0  0  0  0  0  0  0  0  0  0  0  # atno 6907 bound_to 6896
  152.0335  134.9751  160.0582 H   0  0  0  0  0  0  0  0  0  0  0  0  # atno 6908 bound_to 6896
  152.1281  133.4357  159.4744 H   0  0  0  0  0  0  0  0  0  0  0  0  # atno 6909 bound_to 6896
  145.5519  140.9495  143.1494 H   0  0  0  0  0  0  0  0  0  0  0  0  # atno 7974 bound_to 7965
  155.2858  140.0446  157.3019 H   0  0  0  0  0  0  0  0  0  0  0  0  # atno 8008 bound_to 7997
  154.5570  140.2334  155.8363 H   0  0  0  0  0  0  0  0  0  0  0  0  # atno 8009 bound_to 7997
  156.2015  140.3024  155.9545 H   0  0  0  0  0  0  0  0  0  0  0  0  # atno 8010 bound_to 7997
  140.1452  143.4246  152.1534 H   0  0  0  0  0  0  0  0  0  0  0  0  # atno 10167 bound_to 10162
  156.4906  130.8345  151.2568 H   0  0  0  0  0  0  0  0  0  0  0  0  # atno 10718 bound_to 10713
  154.8030  135.3249  154.7501 H   0  0  0  0  0  0  0  0  0  0  0  0  # atno 10763 bound_to 10752
  153.8165  135.6891  153.4837 H   0  0  0  0  0  0  0  0  0  0  0  0  # atno 10764 bound_to 10752
  153.1758  135.4605  154.9908 H   0  0  0  0  0  0  0  0  0  0  0  0  # atno 10765 bound_to 10752
  141.1585  133.6807  156.6849 H   0  0  0  0  0  0  0  0  0  0  0  0  # atno 11005 bound_to 11000
  144.7525  139.7157  143.7267 LP  0  0  0  0  0  0  0  0  0  0  0  0  # atno 17320 bound_to 7965
  146.1911  139.5152  142.9804 LP  0  0  0  0  0  0  0  0  0  0  0  0  # atno 17321 bound_to 7965
  139.5453  144.7292  151.4604 LP  0  0  0  0  0  0  0  0  0  0  0  0  # atno 17342 bound_to 10162
  140.6736  143.8238  150.7030 LP  0  0  0  0  0  0  0  0  0  0  0  0  # atno 17343 bound_to 10162
  157.7474  131.0015  150.2964 LP  0  0  0  0  0  0  0  0  0  0  0  0  # atno 17370 bound_to 10713
  156.3430  130.3818  149.7392 LP  0  0  0  0  0  0  0  0  0  0  0  0  # atno 17371 bound_to 10713
  140.3074  134.8114  157.4148 LP  0  0  0  0  0  0  0  0  0  0  0  0  # atno 17394 bound_to 11000
  140.1208  134.5222  155.8185 LP  0  0  0  0  0  0  0  0  0  0  0  0  # atno 17395 bound_to 11000

$$$$
