AV-unprocessed.smi:2338|AV-procd|sdf|9334|dock2
  -GOLD-   2272012553D 1   1.00000     0.00000
 Structure written by MMmdl.
 31 32  0  0  0  0  0  0  0  0  1 V2000
  150.6999  139.0284  154.3189 N   0  0  0  0  0  0  0  0  0  0  0  0
  151.7311  139.0074  155.1673 C   0  0  0  0  0  0  0  0  0  0  0  0
  152.7903  139.5827  154.9220 O   0  0  0  0  0  0  0  0  0  0  0  0
  151.5338  138.2422  156.4887 C   0  0  2  0  0  0  0  0  0  0  0  0
  150.9823  136.8346  156.1624 C   0  0  0  0  0  0  0  0  0  0  0  0
  150.7807  136.0889  157.3578 O   0  0  0  0  0  0  0  0  0  0  0  0
  149.8217  136.7073  158.2059 C   0  0  0  0  0  0  0  0  0  0  0  0
  150.3407  138.0894  158.6279 C   0  0  0  0  0  0  0  0  0  0  0  0
  150.6417  138.9024  157.4532 N   0  0  0  0  0  0  0  0  0  0  0  0
  150.9525  140.2267  157.8211 C   0  0  0  0  0  0  0  0  0  0  0  0
  150.1168  141.2128  157.4131 N   0  0  0  0  0  0  0  0  0  0  0  0
  150.4080  142.4872  157.7485 C   0  0  0  0  0  0  0  0  0  0  0  0
  151.5427  142.8536  158.5011 C   0  0  0  0  0  0  0  0  0  0  0  0
  151.8163  144.3109  158.8351 C   0  0  0  0  0  0  0  0  0  0  0  0
  150.7204  145.0548  158.6814 F   0  0  0  0  0  0  0  0  0  0  0  0
  152.2230  144.4022  160.1003 F   0  0  0  0  0  0  0  0  0  0  0  0
  152.7687  144.7988  158.0399 F   0  0  0  0  0  0  0  0  0  0  0  0
  152.4180  141.8279  158.9146 C   0  0  0  0  0  0  0  0  0  0  0  0
  152.1226  140.4939  158.5724 C   0  0  0  0  0  0  0  0  0  0  0  0
  153.1804  139.2263  159.0861 Cl  0  0  0  0  0  0  0  0  0  0  0  0
  150.7863  139.5145  153.4381 H   0  0  0  0  0  0  0  0  0  0  0  0
  149.8404  138.5555  154.5576 H   0  0  0  0  0  0  0  0  0  0  0  0
  152.5090  138.1154  156.9636 H   0  0  0  0  0  0  0  0  0  0  0  0
  150.0441  136.8953  155.6069 H   0  0  0  0  0  0  0  0  0  0  0  0
  151.6852  136.2865  155.5336 H   0  0  0  0  0  0  0  0  0  0  0  0
  148.8607  136.7886  157.6953 H   0  0  0  0  0  0  0  0  0  0  0  0
  149.6651  136.0795  159.0832 H   0  0  0  0  0  0  0  0  0  0  0  0
  149.5941  138.5827  159.2522 H   0  0  0  0  0  0  0  0  0  0  0  0
  151.2407  137.9779  159.2348 H   0  0  0  0  0  0  0  0  0  0  0  0
  149.7130  143.2371  157.4007 H   0  0  0  0  0  0  0  0  0  0  0  0
  153.3057  142.0546  159.4866 H   0  0  0  0  0  0  0  0  0  0  0  0
  1  2  1  0  0  0  0
  1 21  1  0  0  0  0
  1 22  1  0  0  0  0
  2  3  2  0  0  0  0
  2  4  1  0  0  0  0
  4  9  1  0  0  0  0
  4  5  1  0  0  0  0
  4 23  1  0  0  0  0
  5  6  1  0  0  0  0
  5 24  1  0  0  0  0
  5 25  1  0  0  0  0
  6  7  1  0  0  0  0
  7  8  1  0  0  0  0
  7 26  1  0  0  0  0
  7 27  1  0  0  0  0
  8  9  1  0  0  0  0
  8 28  1  0  0  0  0
  8 29  1  0  0  0  0
  9 10  1  0  0  0  0
 10 19  1  0  0  0  0
 10 11  2  0  0  0  0
 11 12  1  0  0  0  0
 12 13  2  0  0  0  0
 12 30  1  0  0  0  0
 13 14  1  0  0  0  0
 13 18  1  0  0  0  0
 14 15  1  0  0  0  0
 14 16  1  0  0  0  0
 14 17  1  0  0  0  0
 18 19  2  0  0  0  0
 18 31  1  0  0  0  0
 19 20  1  0  0  0  0
M  END
> <s_m_source_file>
AV-unprocessed.smi

> <i_m_source_file_index>
2338

> <i_lp_mmshare_version>
43012

> <i_f3d_flags>
0

> <s_epik_input>
W05IMl1DKD1PKVtDQEBIXTFbQ0gyXU9bQ0gyXVtDSDJdTjFjMm5bY0hdYyhDKEYpKEYpRilbY0hdYzJDbA==

> <s_epik_cmdline>
J2VwaWtfcHl0aG9uJywgJy1waCcsICc3LjAnLCAnLXRuJywgJzgnLCAnLW1hJywgJzIwMCcsICctbWV0YWxfYmluZGluZycsICctaW1hZScsICc8aW5maWxlLm1hZT4nLCAnLW9tYWUnLCAnPG91dGZpbGUubWFlPic=

> <r_lp_tautomer_probability>
1

> <r_epik_Ionization_Penalty>
1.71167e-07

> <r_epik_Ionization_Penalty_Charging>
0

> <r_epik_Ionization_Penalty_Neutral>
1.71167e-07

> <r_epik_State_Penalty>
-0

> <r_epik_Charging_Adjusted_Penalty>
0

> <i_epik_Tot_Q>
0

> <i_epik_Tot_abs_Q>
0

> <r_epik_Metal_State_Penalty>
-0

> <b_epik_Metal_Only>
0

> <s_lp_Force_Field>
OPLS_2005

> <r_lp_Energy>
18.5611

> <b_lp_Chiralities_Consistent>
1

> <s_lp_Variant>
AV-unprocessed.smi:2338-1

> <Gold.Version>
5.8.1

> <Gold.Id.Protein>
6NUR|6NUR_protein|mol2

> <Gold.PLP.Fitness>
42.6795

> <Gold.PLP.PLP>
-37.6813

> <Gold.PLP.part.hbond>
-2.0213

> <Gold.PLP.part.metal>
0.0000

> <Gold.PLP.part.buried>
-7.1171

> <Gold.PLP.part.nonpolar>
-29.8803

> <Gold.PLP.part.repulsive>
0.1603

> <Gold.PLP.ligand.clash>
0.0129

> <Gold.PLP.ligand.torsion>
1.0144

> <Gold.PLP.Chemscore.Hbond>
1.1341

> <Gold.PLP.Chemscore.CHOScore>
1.0000

> <Gold.PLP.Chemscore.Metal>
0.0000

> <Gold.Chemscore.Hbonds>
donor molecule, donor type, donor heavy atom, donor atom, acceptor molecule, acceptor atom, score
      P1  H  7989  7998       L1     3  0.13
      P1  H  7997  8008       L1     3  1.00
      L1  C    12    30       P1  8028  1.00

> <Gold.PLP.Chemscore.Internal.Correction>
0.6375

> <Gold.Rescore>
     Score         DG    S(hbond)    S(metal)    S(lipo)     H(rot)  DE(clash)    DE(int)     intcor
     10.99     -12.59       0.99        0.00      65.44       1.51       0.21       1.39       ----

> <Gold.Chemscore.Fitness>
10.9910

> <Gold.Chemscore.DG>
-12.5875

> <Gold.Chemscore.ZeroCoef>
-5.4800

> <Gold.Chemscore.Hbond>
0.9934

> <Gold.Chemscore.Metal>
0.0000

> <Gold.Chemscore.Lipo>
65.4436

> <Gold.Chemscore.Internal_Hbond>
0.0000

> <Gold.Chemscore.DEClash>
0.2062

> <Gold.Chemscore.DEInternal>
1.3903

> <Gold.Chemscore.Rot>
1.5107

> <Gold.Chemscore.Internal.Correction>
   9.000000E+99

> <Gold.Chemscore.Hbonds>
donor molecule, donor type, donor heavy atom, donor atom, acceptor molecule, acceptor atom, score
      P1  H  7997  8008       L1     3  0.94

> <Gold.Chemscore.Hbond.Weighted>
-3.3180

> <Gold.Chemscore.Metal.Weighted>
-0.0000

> <Gold.Chemscore.Lipo.Weighted>
-7.6569

> <Gold.Chemscore.Internal_Hbond.Weighted>
0.0000

> <Gold.Chemscore.DEClash.Weighted>
0.2062

> <Gold.Chemscore.DEInternal.Weighted>
1.3903

> <Gold.Chemscore.Rot.Weighted>
3.8674

> <Gold.Chemscore.Internal.Correction.Weighted>
   9.000000E+99

> <Gold.Protein.RotatedTorsions>
[ 6907 6896 6895 6894 ] final  167.13 input  -60.11 | X-H torsion
[ 7974 7965 7964 7962 ] final -154.35 input  175.53 | X-H torsion
[ 8008 7997 7996 7995 ] final  -19.69 input   59.86 | X-H torsion
[ 10167 10162 10161 10158 ] final -135.71 input  -65.29 | X-H torsion
[ 10718 10713 10712 10709 ] final -161.74 input   66.30 | X-H torsion
[ 10763 10752 10751 10750 ] final  -90.78 input  -60.55 | X-H torsion
[ 11005 11000 10999 10996 ] final  -77.79 input  -57.11 | X-H torsion

> <Gold.Protein.ActiveResidues>
 VAL166  LYS551  ARG553  GLY616  TRP617  ASP618  TYR619  PRO620  LYS621  CYS622 
 ASP623  PHE694  ASN695  SER759  ASP760  ASP761  ALA762  ILE779  LEU786  VAL792 
 PHE793  MET794  SER795  GLU796  ALA797  LYS798  CYS799  TRP800  GLU811  SER814 

> <Gold.Protein.RotatedAtoms>
  151.8681  133.3470  159.3725 H   0  0  0  0  0  0  0  0  0  0  0  0  # atno 6907 bound_to 6896
  150.7160  134.5140  159.5630 H   0  0  0  0  0  0  0  0  0  0  0  0  # atno 6908 bound_to 6896
  152.2667  134.7977  160.0472 H   0  0  0  0  0  0  0  0  0  0  0  0  # atno 6909 bound_to 6896
  144.7694  140.4400  143.5918 H   0  0  0  0  0  0  0  0  0  0  0  0  # atno 7974 bound_to 7965
  154.4819  140.2082  155.9743 H   0  0  0  0  0  0  0  0  0  0  0  0  # atno 8008 bound_to 7997
  156.1178  140.3218  155.8134 H   0  0  0  0  0  0  0  0  0  0  0  0  # atno 8009 bound_to 7997
  155.4521  140.0518  157.2991 H   0  0  0  0  0  0  0  0  0  0  0  0  # atno 8010 bound_to 7997
  139.8751  143.6908  152.2635 H   0  0  0  0  0  0  0  0  0  0  0  0  # atno 10167 bound_to 10162
  156.6005  130.8808  151.2912 H   0  0  0  0  0  0  0  0  0  0  0  0  # atno 10718 bound_to 10713
  154.6693  135.5292  153.8117 H   0  0  0  0  0  0  0  0  0  0  0  0  # atno 10763 bound_to 10752
  153.0491  135.6525  154.0750 H   0  0  0  0  0  0  0  0  0  0  0  0  # atno 10764 bound_to 10752
  154.0651  135.2958  155.3298 H   0  0  0  0  0  0  0  0  0  0  0  0  # atno 10765 bound_to 10752
  141.1662  133.7037  156.7874 H   0  0  0  0  0  0  0  0  0  0  0  0  # atno 11005 bound_to 11000
  145.6370  139.1544  143.2937 LP  0  0  0  0  0  0  0  0  0  0  0  0  # atno 17320 bound_to 7965
  146.1828  140.6470  142.9181 LP  0  0  0  0  0  0  0  0  0  0  0  0  # atno 17321 bound_to 7965
  139.7247  144.7595  151.0898 LP  0  0  0  0  0  0  0  0  0  0  0  0  # atno 17342 bound_to 10162
  140.7754  143.5163  150.9591 LP  0  0  0  0  0  0  0  0  0  0  0  0  # atno 17343 bound_to 10162
  157.7281  130.9652  150.1727 LP  0  0  0  0  0  0  0  0  0  0  0  0  # atno 17370 bound_to 10713
  156.2473  130.3697  149.8270 LP  0  0  0  0  0  0  0  0  0  0  0  0  # atno 17371 bound_to 10713
  140.2350  134.8657  157.3516 LP  0  0  0  0  0  0  0  0  0  0  0  0  # atno 17394 bound_to 11000
  140.1852  134.4439  155.7748 LP  0  0  0  0  0  0  0  0  0  0  0  0  # atno 17395 bound_to 11000

$$$$
