AV-unprocessed.smi:148|AV-procd|sdf|1224|dock1
  -GOLD-   2262018413D 1   1.00000     0.00000
 Structure written by MMmdl.
 63 67  0  0  0  0  0  0  0  0  1 V2000
  153.1723  139.5428  157.2456 O   0  0  0  0  0  0  0  0  0  0  0  0
  152.3421  139.7687  158.3651 C   0  0  0  0  0  0  0  0  0  0  0  0
  151.3943  140.9774  158.1491 C   0  0  2  0  0  0  0  0  0  0  0  0
  150.7807  140.9676  156.7245 C   0  0  0  0  0  0  0  0  0  0  0  0
  149.3874  141.3772  156.6849 N   0  0  0  0  0  0  0  0  0  0  0  0
  148.6385  141.8579  157.7362 C   0  0  0  0  0  0  0  0  0  0  0  0
  147.4015  142.1583  157.4478 N   0  0  0  0  0  0  0  0  0  0  0  0
  147.2898  141.8524  156.0981 C   0  0  0  0  0  0  0  0  0  0  0  0
  146.2313  141.9239  155.1561 C   0  0  0  0  0  0  0  0  0  0  0  0
  145.0048  142.3759  155.4963 N   0  0  0  0  0  0  0  0  0  0  0  0
  144.7095  143.6195  154.7811 C   0  0  0  0  0  0  0  0  0  0  0  0
  143.4804  144.3212  155.3662 C   0  0  0  0  0  0  0  0  0  0  0  0
  142.2856  143.3668  155.3515 C   0  0  0  0  0  0  0  0  0  0  0  0
  142.6382  142.0771  156.1037 C   0  0  0  0  0  0  0  0  0  0  0  0
  143.9115  141.3832  155.5467 C   0  0  2  0  0  0  0  0  0  0  0  0
  144.2528  140.1048  156.3914 C   0  0  1  0  0  0  0  0  0  0  0  0
  143.0716  139.1467  156.6391 C   0  0  0  0  0  0  0  0  0  0  0  0
  143.6802  137.8064  157.0673 C   0  0  0  0  0  0  0  0  0  0  0  0
  145.1532  137.8526  156.6468 C   0  0  0  0  0  0  0  0  0  0  0  0
  145.3224  139.1385  155.8308 C   0  0  1  0  0  0  0  0  0  0  0  0
  145.0874  138.8465  154.4658 O   0  0  0  0  0  0  0  0  0  0  0  0
  146.4829  141.5291  153.8799 N   0  0  0  0  0  0  0  0  0  0  0  0
  147.6977  141.0780  153.5513 C   0  0  0  0  0  0  0  0  0  0  0  0
  148.7786  140.9477  154.3250 N   0  0  0  0  0  0  0  0  0  0  0  0
  148.5261  141.3538  155.6025 C   0  0  0  0  0  0  0  0  0  0  0  0
  152.1017  142.3345  158.4206 C   0  0  1  0  0  0  0  0  0  0  0  0
  151.2801  143.5656  158.0735 C   0  0  0  0  0  0  0  0  0  0  0  0
  152.0011  144.6707  158.8370 C   0  0  0  0  0  0  0  0  0  0  0  0
  152.5419  144.0492  159.9963 O   0  0  0  0  0  0  0  0  0  0  0  0
  152.4189  142.6348  159.8903 C   0  0  0  0  0  0  0  0  0  0  0  0
  152.7754  138.8762  156.7058 H   0  0  0  0  0  0  0  0  0  0  0  0
  151.7737  138.8652  158.5872 H   0  0  0  0  0  0  0  0  0  0  0  0
  153.0149  139.9298  159.2059 H   0  0  0  0  0  0  0  0  0  0  0  0
  150.5666  140.8793  158.8531 H   0  0  0  0  0  0  0  0  0  0  0  0
  151.3284  141.6384  156.0627 H   0  0  0  0  0  0  0  0  0  0  0  0
  150.8601  139.9703  156.2897 H   0  0  0  0  0  0  0  0  0  0  0  0
  149.0435  141.9866  158.7293 H   0  0  0  0  0  0  0  0  0  0  0  0
  145.5674  144.2923  154.8297 H   0  0  0  0  0  0  0  0  0  0  0  0
  144.5360  143.4007  153.7264 H   0  0  0  0  0  0  0  0  0  0  0  0
  143.6882  144.6424  156.3878 H   0  0  0  0  0  0  0  0  0  0  0  0
  143.2527  145.2205  154.7936 H   0  0  0  0  0  0  0  0  0  0  0  0
  141.4173  143.8436  155.8069 H   0  0  0  0  0  0  0  0  0  0  0  0
  142.0118  143.1315  154.3222 H   0  0  0  0  0  0  0  0  0  0  0  0
  142.7807  142.3070  157.1608 H   0  0  0  0  0  0  0  0  0  0  0  0
  141.7761  141.4136  156.0449 H   0  0  0  0  0  0  0  0  0  0  0  0
  143.6920  141.0824  154.5218 H   0  0  0  0  0  0  0  0  0  0  0  0
  144.5908  140.4375  157.3747 H   0  0  0  0  0  0  0  0  0  0  0  0
  142.3755  139.5257  157.3880 H   0  0  0  0  0  0  0  0  0  0  0  0
  142.5122  139.0020  155.7137 H   0  0  0  0  0  0  0  0  0  0  0  0
  143.6015  137.6716  158.1467 H   0  0  0  0  0  0  0  0  0  0  0  0
  143.1552  136.9754  156.5954 H   0  0  0  0  0  0  0  0  0  0  0  0
  145.7751  137.9111  157.5410 H   0  0  0  0  0  0  0  0  0  0  0  0
  145.4624  136.9597  156.1012 H   0  0  0  0  0  0  0  0  0  0  0  0
  146.3392  139.5100  155.9374 H   0  0  0  0  0  0  0  0  0  0  0  0
  144.5838  139.5526  154.0906 H   0  0  0  0  0  0  0  0  0  0  0  0
  147.8202  140.7777  152.5212 H   0  0  0  0  0  0  0  0  0  0  0  0
  153.0323  142.3750  157.8518 H   0  0  0  0  0  0  0  0  0  0  0  0
  151.2346  143.7692  157.0033 H   0  0  0  0  0  0  0  0  0  0  0  0
  150.2596  143.4588  158.4447 H   0  0  0  0  0  0  0  0  0  0  0  0
  152.8238  145.0698  158.2425 H   0  0  0  0  0  0  0  0  0  0  0  0
  151.3391  145.4966  159.0983 H   0  0  0  0  0  0  0  0  0  0  0  0
  151.5992  142.3156  160.5358 H   0  0  0  0  0  0  0  0  0  0  0  0
  153.3303  142.1433  160.2310 H   0  0  0  0  0  0  0  0  0  0  0  0
  1  2  1  0  0  0  0
  1 31  1  0  0  0  0
  2  3  1  0  0  0  0
  2 32  1  0  0  0  0
  2 33  1  0  0  0  0
  3  4  1  0  0  0  0
  3 26  1  0  0  0  0
  3 34  1  0  0  0  0
  4  5  1  0  0  0  0
  4 35  1  0  0  0  0
  4 36  1  0  0  0  0
  5 25  1  0  0  0  0
  5  6  1  0  0  0  0
  6  7  2  0  0  0  0
  6 37  1  0  0  0  0
  7  8  1  0  0  0  0
  8 25  2  0  0  0  0
  8  9  1  0  0  0  0
  9 10  1  0  0  0  0
  9 22  2  0  0  0  0
 10 15  1  0  0  0  0
 10 11  1  0  0  0  0
 11 12  1  0  0  0  0
 11 38  1  0  0  0  0
 11 39  1  0  0  0  0
 12 13  1  0  0  0  0
 12 40  1  0  0  0  0
 12 41  1  0  0  0  0
 13 14  1  0  0  0  0
 13 42  1  0  0  0  0
 13 43  1  0  0  0  0
 14 15  1  0  0  0  0
 14 44  1  0  0  0  0
 14 45  1  0  0  0  0
 15 16  1  0  0  0  0
 15 46  1  0  0  0  0
 16 20  1  0  0  0  0
 16 17  1  0  0  0  0
 16 47  1  0  0  0  0
 17 18  1  0  0  0  0
 17 48  1  0  0  0  0
 17 49  1  0  0  0  0
 18 19  1  0  0  0  0
 18 50  1  0  0  0  0
 18 51  1  0  0  0  0
 19 20  1  0  0  0  0
 19 52  1  0  0  0  0
 19 53  1  0  0  0  0
 20 21  1  0  0  0  0
 20 54  1  0  0  0  0
 21 55  1  0  0  0  0
 22 23  1  0  0  0  0
 23 24  2  0  0  0  0
 23 56  1  0  0  0  0
 24 25  1  0  0  0  0
 26 30  1  0  0  0  0
 26 27  1  0  0  0  0
 26 57  1  0  0  0  0
 27 28  1  0  0  0  0
 27 58  1  0  0  0  0
 27 59  1  0  0  0  0
 28 29  1  0  0  0  0
 28 60  1  0  0  0  0
 28 61  1  0  0  0  0
 29 30  1  0  0  0  0
 30 62  1  0  0  0  0
 30 63  1  0  0  0  0
M  END
> <s_m_source_file>
AV-unprocessed.smi

> <i_m_source_file_index>
148

> <i_lp_mmshare_version>
43012

> <i_f3d_flags>
0

> <s_epik_input>
W0NIMl0xT1tDSDJdW0NIMl1bQ0BIXTFbQ0BIXShbQ0gyXVtPSF0pW0NIMl1uKFtjSF1uMiljKGMyMyluW2NIXW5jM040W0NIMl1bQ0gyXVtDSDJdW0NIMl1bQ0BIXTRbQ0BASF01W0NIMl1bQ0gyXVtDSDJdW0NASF01W09IXQ==

> <s_epik_cmdline>
J2VwaWtfcHl0aG9uJywgJy1waCcsICc3LjAnLCAnLXRuJywgJzgnLCAnLW1hJywgJzIwMCcsICctbWV0YWxfYmluZGluZycsICctaW1hZScsICc8aW5maWxlLm1hZT4nLCAnLW9tYWUnLCAnPG91dGZpbGUubWFlPic=

> <r_lp_tautomer_probability>
1

> <r_epik_Ionization_Penalty>
0.00556303

> <r_epik_Ionization_Penalty_Charging>
0

> <r_epik_Ionization_Penalty_Neutral>
0.00556303

> <r_epik_State_Penalty>
0.00401767

> <r_epik_Charging_Adjusted_Penalty>
0.00401767

> <i_epik_Tot_Q>
0

> <i_epik_Tot_abs_Q>
0

> <r_epik_Metal_State_Penalty>
-0

> <b_epik_Metal_Only>
0

> <s_lp_Force_Field>
OPLS_2005

> <r_lp_Energy>
70.7604

> <b_lp_Chiralities_Consistent>
1

> <s_lp_Variant>
AV-unprocessed.smi:148-23

> <Gold.Version>
5.8.1

> <Gold.Id.Protein>
6NUR|6NUR_protein|mol2

> <Gold.PLP.Fitness>
46.7018

> <Gold.PLP.PLP>
-39.3217

> <Gold.PLP.part.hbond>
-2.0000

> <Gold.PLP.part.metal>
0.0000

> <Gold.PLP.part.buried>
-6.7811

> <Gold.PLP.part.nonpolar>
-31.1762

> <Gold.PLP.part.repulsive>
0.6637

> <Gold.PLP.ligand.clash>
0.0000

> <Gold.PLP.ligand.torsion>
1.0717

> <Gold.PLP.Chemscore.Hbond>
1.9280

> <Gold.PLP.Chemscore.CHOScore>
1.0000

> <Gold.PLP.Chemscore.Metal>
0.0000

> <Gold.Chemscore.Hbonds>
donor molecule, donor type, donor heavy atom, donor atom, acceptor molecule, acceptor atom, score
      L1  H    21    55       P1 10175  0.93
      P1  H  7997  8008       L1     1  0.89
      L1  C    23    56       P1  7957  1.00

> <Gold.PLP.Chemscore.Internal.Correction>
0.7397

> <Gold.Rescore>
     Score         DG    S(hbond)    S(metal)    S(lipo)     H(rot)  DE(clash)    DE(int)     intcor
     11.81     -13.45       1.93        0.00      85.76       3.32       0.21       1.44       ----

> <Gold.Chemscore.Fitness>
11.8056

> <Gold.Chemscore.DG>
-13.4536

> <Gold.Chemscore.ZeroCoef>
-5.4800

> <Gold.Chemscore.Hbond>
1.9281

> <Gold.Chemscore.Metal>
0.0000

> <Gold.Chemscore.Lipo>
85.7574

> <Gold.Chemscore.Internal_Hbond>
0.0000

> <Gold.Chemscore.DEClash>
0.2087

> <Gold.Chemscore.DEInternal>
1.4393

> <Gold.Chemscore.Rot>
3.3203

> <Gold.Chemscore.Internal.Correction>
   9.000000E+99

> <Gold.Chemscore.Hbonds>
donor molecule, donor type, donor heavy atom, donor atom, acceptor molecule, acceptor atom, score
      L1  H    21    55       P1 10175  0.85
      P1  H  7997  8008       L1     1  0.60

> <Gold.Chemscore.Hbond.Weighted>
-6.4400

> <Gold.Chemscore.Metal.Weighted>
-0.0000

> <Gold.Chemscore.Lipo.Weighted>
-10.0336

> <Gold.Chemscore.Internal_Hbond.Weighted>
0.0000

> <Gold.Chemscore.DEClash.Weighted>
0.2087

> <Gold.Chemscore.DEInternal.Weighted>
1.4393

> <Gold.Chemscore.Rot.Weighted>
8.5000

> <Gold.Chemscore.Internal.Correction.Weighted>
   9.000000E+99

> <Gold.Protein.RotatedTorsions>
[ 6907 6896 6895 6894 ] final   31.25 input  -60.11 | X-H torsion
[ 7974 7965 7964 7962 ] final   73.15 input  175.53 | X-H torsion
[ 8008 7997 7996 7995 ] final  -52.58 input   59.86 | X-H torsion
[ 10167 10162 10161 10158 ] final  -81.64 input  -65.29 | X-H torsion
[ 10718 10713 10712 10709 ] final  148.29 input   66.30 | X-H torsion
[ 10763 10752 10751 10750 ] final   14.11 input  -60.55 | X-H torsion
[ 11005 11000 10999 10996 ] final   90.84 input  -57.11 | X-H torsion

> <Gold.Protein.ActiveResidues>
 VAL166  LYS551  ARG553  GLY616  TRP617  ASP618  TYR619  PRO620  LYS621  CYS622 
 ASP623  PHE694  ASN695  SER759  ASP760  ASP761  ALA762  ILE779  LEU786  VAL792 
 PHE793  MET794  SER795  GLU796  ALA797  LYS798  CYS799  TRP800  GLU811  SER814 

> <Gold.Protein.RotatedAtoms>
  152.0576  134.9614  160.0574 H   0  0  0  0  0  0  0  0  0  0  0  0  # atno 6907 bound_to 6896
  152.0990  133.4235  159.4587 H   0  0  0  0  0  0  0  0  0  0  0  0  # atno 6908 bound_to 6896
  150.6839  134.2702  159.4628 H   0  0  0  0  0  0  0  0  0  0  0  0  # atno 6909 bound_to 6896
  145.7444  139.2734  143.1467 H   0  0  0  0  0  0  0  0  0  0  0  0  # atno 7974 bound_to 7965
  154.4110  140.1220  156.5014 H   0  0  0  0  0  0  0  0  0  0  0  0  # atno 8008 bound_to 7997
  155.6891  140.3495  155.4867 H   0  0  0  0  0  0  0  0  0  0  0  0  # atno 8009 bound_to 7997
  155.9485  140.1100  157.0987 H   0  0  0  0  0  0  0  0  0  0  0  0  # atno 8010 bound_to 7997
  140.4393  143.2520  151.8649 H   0  0  0  0  0  0  0  0  0  0  0  0  # atno 10167 bound_to 10162
  157.3104  131.0887  151.1321 H   0  0  0  0  0  0  0  0  0  0  0  0  # atno 10718 bound_to 10713
  153.1654  135.6803  153.8683 H   0  0  0  0  0  0  0  0  0  0  0  0  # atno 10763 bound_to 10752
  153.8065  135.3149  155.3397 H   0  0  0  0  0  0  0  0  0  0  0  0  # atno 10764 bound_to 10752
  154.7961  135.4806  154.0256 H   0  0  0  0  0  0  0  0  0  0  0  0  # atno 10765 bound_to 10752
  139.8849  134.8638  156.3342 H   0  0  0  0  0  0  0  0  0  0  0  0  # atno 11005 bound_to 11000
  146.0417  140.8158  142.9825 LP  0  0  0  0  0  0  0  0  0  0  0  0  # atno 17320 bound_to 7965
  144.6863  140.2920  143.7276 LP  0  0  0  0  0  0  0  0  0  0  0  0  # atno 17321 bound_to 7965
  139.4788  144.5247  151.8752 LP  0  0  0  0  0  0  0  0  0  0  0  0  # atno 17342 bound_to 10162
  140.4337  144.2081  150.5888 LP  0  0  0  0  0  0  0  0  0  0  0  0  # atno 17343 bound_to 10162
  157.2645  130.6675  149.5990 LP  0  0  0  0  0  0  0  0  0  0  0  0  # atno 17370 bound_to 10713
  155.9677  130.4498  150.5673 LP  0  0  0  0  0  0  0  0  0  0  0  0  # atno 17371 bound_to 10713
  140.9702  133.7332  156.0524 LP  0  0  0  0  0  0  0  0  0  0  0  0  # atno 17394 bound_to 11000
  140.7880  134.3650  157.5471 LP  0  0  0  0  0  0  0  0  0  0  0  0  # atno 17395 bound_to 11000

$$$$
