AV-unprocessed.smi:1198|AV-procd|sdf|5013|dock6
  -GOLD-   22720 4 33D 1   1.00000     0.00000
 Structure written by MMmdl.
 40 41  0  0  0  0  0  0  0  0  2 V2000
  151.0214  141.8007  158.0049 C   0  0  0  0  0  0  0  0  0  0  0  0
  151.2714  141.5654  156.6232 O   0  0  0  0  0  0  0  0  0  0  0  0
  150.8802  140.3570  156.0838 C   0  0  0  0  0  0  0  0  0  0  0  0
  150.5585  139.2996  156.9576 C   0  0  0  0  0  0  0  0  0  0  0  0
  150.1614  138.0647  156.4107 C   0  0  0  0  0  0  0  0  0  0  0  0
  150.1053  137.9180  155.0099 C   0  0  0  0  0  0  0  0  0  0  0  0
  149.6851  136.6651  154.4860 N   0  0  0  0  0  0  0  0  0  0  0  0
  149.6497  135.4709  155.1022 C   0  0  0  0  0  0  0  0  0  0  0  0
  149.9408  135.2690  156.2808 O   0  0  0  0  0  0  0  0  0  0  0  0
  149.2261  134.5067  154.2720 N   0  0  0  0  0  0  0  0  0  0  0  0
  149.0977  133.0932  154.6148 C   0  0  0  0  0  0  0  0  0  0  0  0
  148.5150  132.2590  153.4571 C   0  0  1  0  0  0  0  0  0  0  0  0
  147.6241  131.1064  153.9207 C   0  0  0  0  0  0  0  0  0  0  0  0
  146.7291  130.7969  152.7135 C   0  0  0  0  0  0  0  0  0  0  0  0
  146.8096  131.9698  151.8125 N   0  3  1  0  0  0  0  0  0  0  0  0
  145.5098  132.4279  151.2795 C   0  0  0  0  0  0  0  0  0  0  0  0
  147.5829  133.0166  152.5087 C   0  0  0  0  0  0  0  0  0  0  0  0
  150.4345  139.0447  154.2169 C   0  0  0  0  0  0  0  0  0  0  0  0
  150.8153  140.2313  154.7354 N   0  0  0  0  0  0  0  0  0  0  0  0
  151.3851  142.7920  158.2745 H   0  0  0  0  0  0  0  0  0  0  0  0
  151.5412  141.0761  158.6334 H   0  0  0  0  0  0  0  0  0  0  0  0
  149.9541  141.7683  158.2285 H   0  0  0  0  0  0  0  0  0  0  0  0
  150.6153  139.4340  158.0278 H   0  0  0  0  0  0  0  0  0  0  0  0
  149.9076  137.2411  157.0621 H   0  0  0  0  0  0  0  0  0  0  0  0
  149.3342  136.6888  153.5396 H   0  0  0  0  0  0  0  0  0  0  0  0
  149.0026  134.7646  153.3216 H   0  0  0  0  0  0  0  0  0  0  0  0
  150.0936  132.7240  154.8609 H   0  0  0  0  0  0  0  0  0  0  0  0
  148.4981  132.9699  155.5186 H   0  0  0  0  0  0  0  0  0  0  0  0
  149.3356  131.8401  152.8718 H   0  0  0  0  0  0  0  0  0  0  0  0
  148.1970  130.2395  154.2510 H   0  0  0  0  0  0  0  0  0  0  0  0
  147.0025  131.4290  154.7573 H   0  0  0  0  0  0  0  0  0  0  0  0
  147.0880  129.9195  152.1747 H   0  0  0  0  0  0  0  0  0  0  0  0
  145.7067  130.5921  153.0350 H   0  0  0  0  0  0  0  0  0  0  0  0
  144.8433  132.7426  152.0838 H   0  0  0  0  0  0  0  0  0  0  0  0
  145.0228  131.6263  150.7234 H   0  0  0  0  0  0  0  0  0  0  0  0
  145.6522  133.2706  150.6024 H   0  0  0  0  0  0  0  0  0  0  0  0
  146.9056  133.6523  153.0817 H   0  0  0  0  0  0  0  0  0  0  0  0
  148.1221  133.6477  151.8015 H   0  0  0  0  0  0  0  0  0  0  0  0
  150.3792  139.0243  153.1401 H   0  0  0  0  0  0  0  0  0  0  0  0
  147.3723  131.6806  151.0252 H   0  0  0  0  0  0  0  0  0  0  0  0
  1  2  1  0  0  0  0
  1 20  1  0  0  0  0
  1 21  1  0  0  0  0
  1 22  1  0  0  0  0
  2  3  1  0  0  0  0
  3 19  1  0  0  0  0
  3  4  2  0  0  0  0
  4  5  1  0  0  0  0
  4 23  1  0  0  0  0
  5  6  2  0  0  0  0
  5 24  1  0  0  0  0
  6  7  1  0  0  0  0
  6 18  1  0  0  0  0
  7  8  1  0  0  0  0
  7 25  1  0  0  0  0
  8  9  2  0  0  0  0
  8 10  1  0  0  0  0
 10 11  1  0  0  0  0
 10 26  1  0  0  0  0
 11 12  1  0  0  0  0
 11 27  1  0  0  0  0
 11 28  1  0  0  0  0
 12 17  1  0  0  0  0
 12 13  1  0  0  0  0
 12 29  1  0  0  0  0
 13 14  1  0  0  0  0
 13 30  1  0  0  0  0
 13 31  1  0  0  0  0
 14 15  1  0  0  0  0
 14 32  1  0  0  0  0
 14 33  1  0  0  0  0
 15 16  1  0  0  0  0
 15 17  1  0  0  0  0
 15 40  1  0  0  0  0
 16 34  1  0  0  0  0
 16 35  1  0  0  0  0
 16 36  1  0  0  0  0
 17 37  1  0  0  0  0
 17 38  1  0  0  0  0
 18 19  2  0  0  0  0
 18 39  1  0  0  0  0
M  CHG  1  15   1
M  END
> <s_m_source_file>
AV-unprocessed.smi

> <i_m_source_file_index>
1198

> <i_lp_mmshare_version>
43012

> <i_f3d_flags>
0

> <s_epik_input>
W0NIM11PYzFbY0hdW2NIXWMoW2NIXW4xKVtOSF1DKD1PKVtOSF1bQ0gyXVtDQEBIXTJbQ0gyXVtDSDJdTihbQ0gzXSlbQ0gyXTI=

> <s_epik_cmdline>
J2VwaWtfcHl0aG9uJywgJy1waCcsICc3LjAnLCAnLXRuJywgJzgnLCAnLW1hJywgJzIwMCcsICctbWV0YWxfYmluZGluZycsICctaW1hZScsICc8aW5maWxlLm1hZT4nLCAnLW9tYWUnLCAnPG91dGZpbGUubWFlPic=

> <r_lp_tautomer_probability>
1

> <r_epik_Ionization_Penalty>
0.00131396

> <r_epik_Ionization_Penalty_Charging>
0.0012301

> <r_epik_Ionization_Penalty_Neutral>
8.38549e-05

> <r_epik_State_Penalty>
0.00081314

> <r_epik_Charging_Adjusted_Penalty>
0.00204324

> <i_epik_Tot_Q>
1

> <i_epik_Tot_abs_Q>
1

> <r_epik_Metal_State_Penalty>
-0

> <b_epik_Metal_Only>
0

> <s_lp_Force_Field>
OPLS_2005

> <r_lp_Energy>
29.2509

> <b_lp_Chiralities_Consistent>
1

> <s_lp_Variant>
AV-unprocessed.smi:1198-4

> <Gold.Version>
5.8.1

> <Gold.Id.Protein>
6NUR|6NUR_protein|mol2

> <Gold.PLP.Fitness>
43.3506

> <Gold.PLP.PLP>
-30.3778

> <Gold.PLP.part.hbond>
-4.0000

> <Gold.PLP.part.metal>
0.0000

> <Gold.PLP.part.buried>
-3.7088

> <Gold.PLP.part.nonpolar>
-22.7000

> <Gold.PLP.part.repulsive>
0.1982

> <Gold.PLP.ligand.clash>
0.0000

> <Gold.PLP.ligand.torsion>
0.6973

> <Gold.PLP.Chemscore.Hbond>
3.7856

> <Gold.PLP.Chemscore.CHOScore>
1.0000

> <Gold.PLP.Chemscore.Metal>
0.0000

> <Gold.Chemscore.Hbonds>
donor molecule, donor type, donor heavy atom, donor atom, acceptor molecule, acceptor atom, score
      L1  H     7    25       P1  7948  1.00
      L1  H    10    26       P1  7948  0.83
      L1  H    15    40       P1 10747  1.00
      P1  H  7989  7998       L1    19  1.00
      L1  C    18    39       P1  7957  1.00

> <Gold.PLP.Chemscore.Internal.Correction>
0.0106

> <Gold.Rescore>
     Score         DG    S(hbond)    S(metal)    S(lipo)     H(rot)  DE(clash)    DE(int)     intcor
     16.55     -18.47       2.89        0.00      61.51       1.51       0.01       1.91       ----

> <Gold.Chemscore.Fitness>
16.5464

> <Gold.Chemscore.DG>
-18.4670

> <Gold.Chemscore.ZeroCoef>
-5.4800

> <Gold.Chemscore.Hbond>
2.8949

> <Gold.Chemscore.Metal>
0.0000

> <Gold.Chemscore.Lipo>
61.5061

> <Gold.Chemscore.Internal_Hbond>
0.0000

> <Gold.Chemscore.DEClash>
0.0135

> <Gold.Chemscore.DEInternal>
1.9071

> <Gold.Chemscore.Rot>
1.5149

> <Gold.Chemscore.Internal.Correction>
   9.000000E+99

> <Gold.Chemscore.Hbonds>
donor molecule, donor type, donor heavy atom, donor atom, acceptor molecule, acceptor atom, score
      L1  H     7    25       P1  7948  0.92
      L1  H    10    26       P1  7948  0.13
      L1  H    15    40       P1 10747  0.95
      P1  H  7989  7998       L1    19  0.34

> <Gold.Chemscore.Hbond.Weighted>
-9.6689

> <Gold.Chemscore.Metal.Weighted>
-0.0000

> <Gold.Chemscore.Lipo.Weighted>
-7.1962

> <Gold.Chemscore.Internal_Hbond.Weighted>
0.0000

> <Gold.Chemscore.DEClash.Weighted>
0.0135

> <Gold.Chemscore.DEInternal.Weighted>
1.9071

> <Gold.Chemscore.Rot.Weighted>
3.8781

> <Gold.Chemscore.Internal.Correction.Weighted>
   9.000000E+99

> <Gold.Protein.RotatedTorsions>
[ 6907 6896 6895 6894 ] final   62.85 input  -60.11 | X-H torsion
[ 7974 7965 7964 7962 ] final  145.26 input  175.53 | X-H torsion
[ 8008 7997 7996 7995 ] final   53.73 input   59.86 | X-H torsion
[ 10167 10162 10161 10158 ] final -148.07 input  -65.29 | X-H torsion
[ 10718 10713 10712 10709 ] final  169.51 input   66.30 | X-H torsion
[ 10763 10752 10751 10750 ] final  -62.76 input  -60.55 | X-H torsion
[ 11005 11000 10999 10996 ] final  -32.48 input  -57.11 | X-H torsion

> <Gold.Protein.ActiveResidues>
 VAL166  LYS551  ARG553  GLY616  TRP617  ASP618  TYR619  PRO620  LYS621  CYS622 
 ASP623  PHE694  ASN695  SER759  ASP760  ASP761  ALA762  ILE779  LEU786  VAL792 
 PHE793  MET794  SER795  GLU796  ALA797  LYS798  CYS799  TRP800  GLU811  SER814 

> <Gold.Protein.RotatedAtoms>
  152.4206  134.5962  159.9987 H   0  0  0  0  0  0  0  0  0  0  0  0  # atno 6907 bound_to 6896
  151.6113  133.3341  159.3076 H   0  0  0  0  0  0  0  0  0  0  0  0  # atno 6908 bound_to 6896
  150.8094  134.7277  159.6740 H   0  0  0  0  0  0  0  0  0  0  0  0  # atno 6909 bound_to 6896
  144.8767  139.5761  143.5862 H   0  0  0  0  0  0  0  0  0  0  0  0  # atno 7974 bound_to 7965
  155.4730  140.3466  155.4328 H   0  0  0  0  0  0  0  0  0  0  0  0  # atno 8008 bound_to 7997
  156.1088  140.1455  156.9396 H   0  0  0  0  0  0  0  0  0  0  0  0  # atno 8009 bound_to 7997
  154.4742  140.0890  156.7200 H   0  0  0  0  0  0  0  0  0  0  0  0  # atno 8010 bound_to 7997
  139.7565  143.8440  152.2598 H   0  0  0  0  0  0  0  0  0  0  0  0  # atno 10167 bound_to 10162
  157.0215  131.0233  151.2773 H   0  0  0  0  0  0  0  0  0  0  0  0  # atno 10718 bound_to 10713
  154.3048  135.6227  153.5440 H   0  0  0  0  0  0  0  0  0  0  0  0  # atno 10763 bound_to 10752
  152.9836  135.5687  154.5244 H   0  0  0  0  0  0  0  0  0  0  0  0  # atno 10764 bound_to 10752
  154.4881  135.2866  155.1494 H   0  0  0  0  0  0  0  0  0  0  0  0  # atno 10765 bound_to 10752
  140.9556  133.7195  156.1287 H   0  0  0  0  0  0  0  0  0  0  0  0  # atno 11005 bound_to 11000
  146.2967  139.7301  142.9121 LP  0  0  0  0  0  0  0  0  0  0  0  0  # atno 17320 bound_to 7965
  145.4029  141.0387  143.3060 LP  0  0  0  0  0  0  0  0  0  0  0  0  # atno 17321 bound_to 7965
  139.8434  144.7199  150.9303 LP  0  0  0  0  0  0  0  0  0  0  0  0  # atno 17342 bound_to 10162
  140.7803  143.3963  151.1224 LP  0  0  0  0  0  0  0  0  0  0  0  0  # atno 17343 bound_to 10162
  157.5246  130.8019  149.7847 LP  0  0  0  0  0  0  0  0  0  0  0  0  # atno 17370 bound_to 10713
  156.0100  130.3837  150.2296 LP  0  0  0  0  0  0  0  0  0  0  0  0  # atno 17371 bound_to 10713
  140.7541  134.4012  157.5536 LP  0  0  0  0  0  0  0  0  0  0  0  0  # atno 17394 bound_to 11000
  139.8861  134.8919  156.2604 LP  0  0  0  0  0  0  0  0  0  0  0  0  # atno 17395 bound_to 11000

$$$$
