AV-unprocessed.smi:1451|AV-procd|sdf|5899|dock5
  -GOLD-   22720 5583D 1   1.00000     0.00000
 Structure written by MMmdl.
 47 48  0  0  0  0  0  0  0  0  2 V2000
  141.6232  137.8274  155.9752 C   0  0  0  0  0  0  0  0  0  0  0  0
  142.4931  137.9040  154.7123 C   0  0  2  0  0  0  0  0  0  0  0  0
  142.3518  136.6354  153.8547 C   0  0  0  0  0  0  0  0  0  0  0  0
  143.2495  136.7301  152.6148 C   0  0  0  0  0  0  0  0  0  0  0  0
  144.7083  137.0065  153.0119 C   0  0  0  0  0  0  0  0  0  0  0  0
  144.8162  138.2379  153.8369 N   0  3  2  0  0  0  0  0  0  0  0  0
  146.2285  138.5978  154.1206 C   0  0  0  0  0  0  0  0  0  0  0  0
  146.3897  140.0733  154.5365 C   0  0  0  0  0  0  0  0  0  0  0  0
  147.7953  140.4519  154.6186 N   0  0  0  0  0  0  0  0  0  0  0  0
  148.4460  140.7476  155.7540 C   0  0  0  0  0  0  0  0  0  0  0  0
  147.9136  140.7053  156.8640 O   0  0  0  0  0  0  0  0  0  0  0  0
  149.9237  141.1371  155.6047 C   0  0  0  0  0  0  0  0  0  0  0  0
  150.6297  141.2371  156.8933 N   0  0  0  0  0  0  0  0  0  0  0  0
  151.0110  142.5245  157.3203 C   0  0  0  0  0  0  0  0  0  0  0  0
  151.6749  142.7484  158.4705 C   0  0  0  0  0  0  0  0  0  0  0  0
  152.0268  144.1553  158.9283 C   0  0  0  0  0  0  0  0  0  0  0  0
  152.6227  144.1384  160.1208 F   0  0  0  0  0  0  0  0  0  0  0  0
  152.8597  144.7208  158.0554 F   0  0  0  0  0  0  0  0  0  0  0  0
  150.9367  144.9185  159.0156 F   0  0  0  0  0  0  0  0  0  0  0  0
  151.9591  141.5857  159.2886 C   0  0  0  0  0  0  0  0  0  0  0  0
  151.5959  140.3482  158.8983 C   0  0  0  0  0  0  0  0  0  0  0  0
  150.8960  140.1184  157.6324 C   0  0  0  0  0  0  0  0  0  0  0  0
  150.5697  138.9913  157.2582 O   0  0  0  0  0  0  0  0  0  0  0  0
  143.9751  138.1502  155.0611 C   0  0  0  0  0  0  0  0  0  0  0  0
  141.9256  136.9990  156.6168 H   0  0  0  0  0  0  0  0  0  0  0  0
  140.5725  137.6842  155.7202 H   0  0  0  0  0  0  0  0  0  0  0  0
  141.6969  138.7453  156.5593 H   0  0  0  0  0  0  0  0  0  0  0  0
  142.1401  138.7519  154.1229 H   0  0  0  0  0  0  0  0  0  0  0  0
  142.6270  135.7569  154.4404 H   0  0  0  0  0  0  0  0  0  0  0  0
  141.3137  136.4959  153.5513 H   0  0  0  0  0  0  0  0  0  0  0  0
  143.1887  135.8054  152.0399 H   0  0  0  0  0  0  0  0  0  0  0  0
  142.8901  137.5256  151.9606 H   0  0  0  0  0  0  0  0  0  0  0  0
  145.1163  136.1592  153.5654 H   0  0  0  0  0  0  0  0  0  0  0  0
  145.3081  137.1132  152.1070 H   0  0  0  0  0  0  0  0  0  0  0  0
  146.6349  137.9321  154.8840 H   0  0  0  0  0  0  0  0  0  0  0  0
  146.8226  138.4295  153.2213 H   0  0  0  0  0  0  0  0  0  0  0  0
  145.8671  140.7281  153.8371 H   0  0  0  0  0  0  0  0  0  0  0  0
  145.9503  140.2526  155.5168 H   0  0  0  0  0  0  0  0  0  0  0  0
  148.3089  140.5014  153.7504 H   0  0  0  0  0  0  0  0  0  0  0  0
  150.4037  140.4030  154.9561 H   0  0  0  0  0  0  0  0  0  0  0  0
  149.9991  142.0846  155.0672 H   0  0  0  0  0  0  0  0  0  0  0  0
  150.7322  143.3235  156.6486 H   0  0  0  0  0  0  0  0  0  0  0  0
  152.4767  141.7070  160.2287 H   0  0  0  0  0  0  0  0  0  0  0  0
  151.8267  139.5043  159.5321 H   0  0  0  0  0  0  0  0  0  0  0  0
  144.0527  139.0733  155.6344 H   0  0  0  0  0  0  0  0  0  0  0  0
  144.3501  137.3504  155.7018 H   0  0  0  0  0  0  0  0  0  0  0  0
  144.4396  138.9858  153.2719 H   0  0  0  0  0  0  0  0  0  0  0  0
  1  2  1  0  0  0  0
  1 25  1  0  0  0  0
  1 26  1  0  0  0  0
  1 27  1  0  0  0  0
  2 24  1  0  0  0  0
  2  3  1  0  0  0  0
  2 28  1  0  0  0  0
  3  4  1  0  0  0  0
  3 29  1  0  0  0  0
  3 30  1  0  0  0  0
  4  5  1  0  0  0  0
  4 31  1  0  0  0  0
  4 32  1  0  0  0  0
  5  6  1  0  0  0  0
  5 33  1  0  0  0  0
  5 34  1  0  0  0  0
  6  7  1  0  0  0  0
  6 24  1  0  0  0  0
  6 47  1  0  0  0  0
  7  8  1  0  0  0  0
  7 35  1  0  0  0  0
  7 36  1  0  0  0  0
  8  9  1  0  0  0  0
  8 37  1  0  0  0  0
  8 38  1  0  0  0  0
  9 10  1  0  0  0  0
  9 39  1  0  0  0  0
 10 11  2  0  0  0  0
 10 12  1  0  0  0  0
 12 13  1  0  0  0  0
 12 40  1  0  0  0  0
 12 41  1  0  0  0  0
 13 22  1  0  0  0  0
 13 14  1  0  0  0  0
 14 15  2  0  0  0  0
 14 42  1  0  0  0  0
 15 16  1  0  0  0  0
 15 20  1  0  0  0  0
 16 17  1  0  0  0  0
 16 18  1  0  0  0  0
 16 19  1  0  0  0  0
 20 21  2  0  0  0  0
 20 43  1  0  0  0  0
 21 22  1  0  0  0  0
 21 44  1  0  0  0  0
 22 23  2  0  0  0  0
 24 45  1  0  0  0  0
 24 46  1  0  0  0  0
M  CHG  1   6   1
M  END
> <s_m_source_file>
AV-unprocessed.smi

> <i_m_source_file_index>
1451

> <i_lp_mmshare_version>
43012

> <i_f3d_flags>
0

> <s_epik_input>
W0NIM11bQ0BASF0xW0NIMl1bQ0gyXVtDSDJdTihbQ0gyXTEpW0NIMl1bQ0gyXVtOSF1DKD1PKVtDSDJdbjJbY0hdYyhDKEYpKEYpRilbY0hdW2NIXWMyPU8=

> <s_epik_cmdline>
J2VwaWtfcHl0aG9uJywgJy1waCcsICc3LjAnLCAnLXRuJywgJzgnLCAnLW1hJywgJzIwMCcsICctbWV0YWxfYmluZGluZycsICctaW1hZScsICc8aW5maWxlLm1hZT4nLCAnLW9tYWUnLCAnPG91dGZpbGUubWFlPic=

> <r_lp_tautomer_probability>
1

> <r_epik_Ionization_Penalty>
0.00192452

> <r_epik_Ionization_Penalty_Charging>
0.00192444

> <r_epik_Ionization_Penalty_Neutral>
8.16761e-08

> <r_epik_State_Penalty>
0.00131115

> <r_epik_Charging_Adjusted_Penalty>
0.00323559

> <i_epik_Tot_Q>
1

> <i_epik_Tot_abs_Q>
1

> <r_epik_Metal_State_Penalty>
-0

> <b_epik_Metal_Only>
0

> <s_lp_Force_Field>
OPLS_2005

> <r_lp_Energy>
28.0939

> <b_lp_Chiralities_Consistent>
1

> <s_lp_Variant>
AV-unprocessed.smi:1451-1

> <Gold.Version>
5.8.1

> <Gold.Id.Protein>
6NUR|6NUR_protein|mol2

> <Gold.PLP.Fitness>
48.9214

> <Gold.PLP.PLP>
-40.5399

> <Gold.PLP.part.hbond>
-1.0000

> <Gold.PLP.part.metal>
0.0000

> <Gold.PLP.part.buried>
-6.4658

> <Gold.PLP.part.nonpolar>
-34.2394

> <Gold.PLP.part.repulsive>
0.0868

> <Gold.PLP.ligand.clash>
0.0000

> <Gold.PLP.ligand.torsion>
0.3600

> <Gold.PLP.Chemscore.Hbond>
2.0000

> <Gold.PLP.Chemscore.CHOScore>
1.0000

> <Gold.PLP.Chemscore.Metal>
0.0000

> <Gold.Chemscore.Hbonds>
donor molecule, donor type, donor heavy atom, donor atom, acceptor molecule, acceptor atom, score
      L1  H     6    47       P1 10175  2.00
      L1  C    14    42       P1  8028  1.00

> <Gold.PLP.Chemscore.Internal.Correction>
0.1014

> <Gold.Rescore>
     Score         DG    S(hbond)    S(metal)    S(lipo)     H(rot)  DE(clash)    DE(int)     intcor
     12.01     -12.38       1.00        0.00      75.87       2.08       0.00       0.37       ----

> <Gold.Chemscore.Fitness>
12.0128

> <Gold.Chemscore.DG>
-12.3801

> <Gold.Chemscore.ZeroCoef>
-5.4800

> <Gold.Chemscore.Hbond>
0.9995

> <Gold.Chemscore.Metal>
0.0000

> <Gold.Chemscore.Lipo>
75.8691

> <Gold.Chemscore.Internal_Hbond>
0.0000

> <Gold.Chemscore.DEClash>
0.0007

> <Gold.Chemscore.DEInternal>
0.3666

> <Gold.Chemscore.Rot>
2.0762

> <Gold.Chemscore.Internal.Correction>
   9.000000E+99

> <Gold.Chemscore.Hbonds>
donor molecule, donor type, donor heavy atom, donor atom, acceptor molecule, acceptor atom, score
      L1  H     6    47       P1 10175  1.00

> <Gold.Chemscore.Hbond.Weighted>
-3.3384

> <Gold.Chemscore.Metal.Weighted>
-0.0000

> <Gold.Chemscore.Lipo.Weighted>
-8.8767

> <Gold.Chemscore.Internal_Hbond.Weighted>
0.0000

> <Gold.Chemscore.DEClash.Weighted>
0.0007

> <Gold.Chemscore.DEInternal.Weighted>
0.3666

> <Gold.Chemscore.Rot.Weighted>
5.3150

> <Gold.Chemscore.Internal.Correction.Weighted>
   9.000000E+99

> <Gold.Protein.RotatedTorsions>
[ 6907 6896 6895 6894 ] final -107.87 input  -60.11 | X-H torsion
[ 7974 7965 7964 7962 ] final  -67.56 input  175.53 | X-H torsion
[ 8008 7997 7996 7995 ] final   47.74 input   59.86 | X-H torsion
[ 10167 10162 10161 10158 ] final -124.46 input  -65.29 | X-H torsion
[ 10718 10713 10712 10709 ] final -168.72 input   66.30 | X-H torsion
[ 10763 10752 10751 10750 ] final -176.52 input  -60.55 | X-H torsion
[ 11005 11000 10999 10996 ] final   -1.07 input  -57.11 | X-H torsion

> <Gold.Protein.ActiveResidues>
 VAL166  LYS551  ARG553  GLY616  TRP617  ASP618  TYR619  PRO620  LYS621  CYS622 
 ASP623  PHE694  ASN695  SER759  ASP760  ASP761  ALA762  ILE779  LEU786  VAL792 
 PHE793  MET794  SER795  GLU796  ALA797  LYS798  CYS799  TRP800  GLU811  SER814 

> <Gold.Protein.RotatedAtoms>
  150.7469  133.9761  159.3561 H   0  0  0  0  0  0  0  0  0  0  0  0  # atno 6907 bound_to 6896
  151.7699  135.0787  160.0367 H   0  0  0  0  0  0  0  0  0  0  0  0  # atno 6908 bound_to 6896
  152.3346  133.5960  159.5869 H   0  0  0  0  0  0  0  0  0  0  0  0  # atno 6909 bound_to 6896
  145.7276  140.9011  143.0597 H   0  0  0  0  0  0  0  0  0  0  0  0  # atno 7974 bound_to 7965
  155.3741  140.3425  155.4244 H   0  0  0  0  0  0  0  0  0  0  0  0  # atno 8008 bound_to 7997
  156.1646  140.1612  156.8587 H   0  0  0  0  0  0  0  0  0  0  0  0  # atno 8009 bound_to 7997
  154.5173  140.0775  156.8087 H   0  0  0  0  0  0  0  0  0  0  0  0  # atno 8010 bound_to 7997
  139.9925  143.5626  152.2336 H   0  0  0  0  0  0  0  0  0  0  0  0  # atno 10167 bound_to 10162
  156.7011  130.9197  151.3080 H   0  0  0  0  0  0  0  0  0  0  0  0  # atno 10718 bound_to 10713
  154.5714  135.2828  155.0823 H   0  0  0  0  0  0  0  0  0  0  0  0  # atno 10763 bound_to 10752
  154.2194  135.6394  153.5144 H   0  0  0  0  0  0  0  0  0  0  0  0  # atno 10764 bound_to 10752
  153.0059  135.5511  154.6339 H   0  0  0  0  0  0  0  0  0  0  0  0  # atno 10765 bound_to 10752
  140.6433  133.9470  155.8338 H   0  0  0  0  0  0  0  0  0  0  0  0  # atno 11005 bound_to 11000
  144.6901  139.9287  143.7471 LP  0  0  0  0  0  0  0  0  0  0  0  0  # atno 17320 bound_to 7965
  146.0568  139.3564  143.0606 LP  0  0  0  0  0  0  0  0  0  0  0  0  # atno 17321 bound_to 7965
  139.6330  144.7646  151.2497 LP  0  0  0  0  0  0  0  0  0  0  0  0  # atno 17342 bound_to 10162
  140.7449  143.6447  150.8302 LP  0  0  0  0  0  0  0  0  0  0  0  0  # atno 17343 bound_to 10162
  157.6973  130.9295  150.0680 LP  0  0  0  0  0  0  0  0  0  0  0  0  # atno 17370 bound_to 10713
  156.1728  130.3647  149.9141 LP  0  0  0  0  0  0  0  0  0  0  0  0  # atno 17371 bound_to 10713
  141.0591  134.0373  157.3683 LP  0  0  0  0  0  0  0  0  0  0  0  0  # atno 17394 bound_to 11000
  139.9072  135.0182  156.7538 LP  0  0  0  0  0  0  0  0  0  0  0  0  # atno 17395 bound_to 11000

$$$$
