AV-unprocessed.smi:244|AV-procd|sdf|1864|dock2
  -GOLD-   2262020503D 1   1.00000     0.00000
 Structure written by MMmdl.
 57 61  0  0  0  0  0  0  0  0  2 V2000
  147.0360  129.0871  152.4390 C   0  0  0  0  0  0  0  0  0  0  0  0
  146.6091  130.3607  151.8207 N   0  3  1  0  0  0  0  0  0  0  0  0
  145.2835  130.2505  151.1621 C   0  0  0  0  0  0  0  0  0  0  0  0
  144.9175  131.5553  150.4368 C   0  0  0  0  0  0  0  0  0  0  0  0
  144.9532  132.7381  151.4118 C   0  0  2  0  0  0  0  0  0  0  0  0
  144.6649  133.9432  150.7118 O   0  0  0  0  0  0  0  0  0  0  0  0
  144.6205  135.0638  151.5891 C   0  0  0  0  0  0  0  0  0  0  0  0
  145.9892  135.2351  152.2668 C   0  0  0  0  0  0  0  0  0  0  0  0
  146.3762  134.0044  152.9539 N   0  0  0  0  0  0  0  0  0  0  0  0
  147.5021  134.1351  153.6930 C   0  0  0  0  0  0  0  0  0  0  0  0
  148.5884  133.3618  153.4295 N   0  0  0  0  0  0  0  0  0  0  0  0
  149.6905  133.4840  154.1764 C   0  0  0  0  0  0  0  0  0  0  0  0
  149.9086  134.2918  155.2168 N   0  0  0  0  0  0  0  0  0  0  0  0
  148.8162  135.0631  155.4856 C   0  0  0  0  0  0  0  0  0  0  0  0
  147.5818  135.0453  154.7794 C   0  0  0  0  0  0  0  0  0  0  0  0
  146.6936  135.9521  155.3425 N   0  0  0  0  0  0  0  0  0  0  0  0
  147.3675  136.4810  156.3274 C   0  0  0  0  0  0  0  0  0  0  0  0
  148.6538  136.0123  156.4795 N   0  0  0  0  0  0  0  0  0  0  0  0
  149.6192  136.4282  157.4859 C   0  0  0  0  0  0  0  0  0  0  0  0
  150.9256  137.0201  156.9000 C   0  0  0  0  0  0  0  0  0  0  0  0
  151.6345  135.9659  156.2722 O   0  0  0  0  0  0  0  0  0  0  0  0
  150.6629  138.1226  155.8507 C   0  0  0  0  0  0  0  0  0  0  0  0
  151.9540  138.8506  155.4363 C   0  0  0  0  0  0  0  0  0  0  0  0
  152.6180  139.3658  156.5838 O   0  0  0  0  0  0  0  0  0  0  0  0
  153.0335  138.3448  157.4824 C   0  0  0  0  0  0  0  0  0  0  0  0
  151.8060  137.5942  158.0280 C   0  0  0  0  0  0  0  0  0  0  0  0
  146.3483  132.8380  152.0665 C   0  0  1  0  0  0  0  0  0  0  0  0
  146.6752  131.4988  152.7724 C   0  0  0  0  0  0  0  0  0  0  0  0
  146.3650  128.8016  153.2503 H   0  0  0  0  0  0  0  0  0  0  0  0
  148.0448  129.1743  152.8439 H   0  0  0  0  0  0  0  0  0  0  0  0
  147.0431  128.2838  151.7018 H   0  0  0  0  0  0  0  0  0  0  0  0
  145.2982  129.4278  150.4461 H   0  0  0  0  0  0  0  0  0  0  0  0
  144.5239  130.0094  151.9077 H   0  0  0  0  0  0  0  0  0  0  0  0
  145.6149  131.7297  149.6162 H   0  0  0  0  0  0  0  0  0  0  0  0
  143.9265  131.4677  149.9903 H   0  0  0  0  0  0  0  0  0  0  0  0
  144.1916  132.5825  152.1788 H   0  0  0  0  0  0  0  0  0  0  0  0
  144.3706  135.9559  151.0146 H   0  0  0  0  0  0  0  0  0  0  0  0
  143.8319  134.9312  152.3316 H   0  0  0  0  0  0  0  0  0  0  0  0
  146.7352  135.4922  151.5133 H   0  0  0  0  0  0  0  0  0  0  0  0
  145.9506  136.0615  152.9780 H   0  0  0  0  0  0  0  0  0  0  0  0
  150.5153  132.8428  153.9020 H   0  0  0  0  0  0  0  0  0  0  0  0
  146.9452  137.2391  156.9709 H   0  0  0  0  0  0  0  0  0  0  0  0
  149.1338  137.1626  158.1298 H   0  0  0  0  0  0  0  0  0  0  0  0
  149.8431  135.5710  158.1226 H   0  0  0  0  0  0  0  0  0  0  0  0
  151.4517  135.1625  156.7351 H   0  0  0  0  0  0  0  0  0  0  0  0
  150.1793  137.7101  154.9647 H   0  0  0  0  0  0  0  0  0  0  0  0
  149.9698  138.8552  156.2661 H   0  0  0  0  0  0  0  0  0  0  0  0
  152.6202  138.1859  154.8845 H   0  0  0  0  0  0  0  0  0  0  0  0
  151.7149  139.6792  154.7695 H   0  0  0  0  0  0  0  0  0  0  0  0
  153.7242  137.6632  156.9839 H   0  0  0  0  0  0  0  0  0  0  0  0
  153.5833  138.8043  158.3038 H   0  0  0  0  0  0  0  0  0  0  0  0
  151.2167  138.2901  158.6266 H   0  0  0  0  0  0  0  0  0  0  0  0
  152.1231  136.8020  158.7074 H   0  0  0  0  0  0  0  0  0  0  0  0
  147.0898  133.0026  151.2826 H   0  0  0  0  0  0  0  0  0  0  0  0
  145.9849  131.3254  153.5997 H   0  0  0  0  0  0  0  0  0  0  0  0
  147.6804  131.5271  153.1946 H   0  0  0  0  0  0  0  0  0  0  0  0
  147.2764  130.5606  151.0891 H   0  0  0  0  0  0  0  0  0  0  0  0
  1  2  1  0  0  0  0
  1 29  1  0  0  0  0
  1 30  1  0  0  0  0
  1 31  1  0  0  0  0
  2 28  1  0  0  0  0
  2  3  1  0  0  0  0
  2 57  1  0  0  0  0
  3  4  1  0  0  0  0
  3 32  1  0  0  0  0
  3 33  1  0  0  0  0
  4  5  1  0  0  0  0
  4 34  1  0  0  0  0
  4 35  1  0  0  0  0
  5 27  1  0  0  0  0
  5  6  1  0  0  0  0
  5 36  1  0  0  0  0
  6  7  1  0  0  0  0
  7  8  1  0  0  0  0
  7 37  1  0  0  0  0
  7 38  1  0  0  0  0
  8  9  1  0  0  0  0
  8 39  1  0  0  0  0
  8 40  1  0  0  0  0
  9 10  1  0  0  0  0
  9 27  1  0  0  0  0
 10 15  1  0  0  0  0
 10 11  2  0  0  0  0
 11 12  1  0  0  0  0
 12 13  2  0  0  0  0
 12 41  1  0  0  0  0
 13 14  1  0  0  0  0
 14 18  1  0  0  0  0
 14 15  2  0  0  0  0
 15 16  1  0  0  0  0
 16 17  2  0  0  0  0
 17 18  1  0  0  0  0
 17 42  1  0  0  0  0
 18 19  1  0  0  0  0
 19 20  1  0  0  0  0
 19 43  1  0  0  0  0
 19 44  1  0  0  0  0
 20 26  1  0  0  0  0
 20 21  1  0  0  0  0
 20 22  1  0  0  0  0
 21 45  1  0  0  0  0
 22 23  1  0  0  0  0
 22 46  1  0  0  0  0
 22 47  1  0  0  0  0
 23 24  1  0  0  0  0
 23 48  1  0  0  0  0
 23 49  1  0  0  0  0
 24 25  1  0  0  0  0
 25 26  1  0  0  0  0
 25 50  1  0  0  0  0
 25 51  1  0  0  0  0
 26 52  1  0  0  0  0
 26 53  1  0  0  0  0
 27 28  1  0  0  0  0
 27 54  1  0  0  0  0
 28 55  1  0  0  0  0
 28 56  1  0  0  0  0
M  CHG  1   2   1
M  END
> <s_m_source_file>
AV-unprocessed.smi

> <i_m_source_file_index>
244

> <i_lp_mmshare_version>
43012

> <i_f3d_flags>
0

> <s_epik_input>
W0NIMl0xW0NIMl1OKFtDSDNdKVtDSDJdW0NAQEhdKFtDQEhdMTIpTihbQ0gyXVtDSDJdTzIpYyhuW2NIXW4zKWMoYzM0KW5bY0hdbjRbQ0gyXUM1KFtPSF0pW0NIMl1bQ0gyXU9bQ0gyXVtDSDJdNQ==

> <s_epik_cmdline>
J2VwaWtfcHl0aG9uJywgJy1waCcsICc3LjAnLCAnLXRuJywgJzgnLCAnLW1hJywgJzIwMCcsICctbWV0YWxfYmluZGluZycsICctaW1hZScsICc8aW5maWxlLm1hZT4nLCAnLW9tYWUnLCAnPG91dGZpbGUubWFlPic=

> <r_lp_tautomer_probability>
1

> <r_epik_Ionization_Penalty>
0.0136215

> <r_epik_Ionization_Penalty_Charging>
0.0131385

> <r_epik_Ionization_Penalty_Neutral>
0.000483022

> <r_epik_State_Penalty>
0.0104001

> <r_epik_Charging_Adjusted_Penalty>
0.0235387

> <i_epik_Tot_Q>
1

> <i_epik_Tot_abs_Q>
1

> <r_epik_Metal_State_Penalty>
0.0104469

> <b_epik_Metal_Only>
0

> <s_lp_Force_Field>
OPLS_2005

> <r_lp_Energy>
41.0301

> <b_lp_Chiralities_Consistent>
1

> <s_lp_Variant>
AV-unprocessed.smi:244-1

> <Gold.Version>
5.8.1

> <Gold.Id.Protein>
6NUR|6NUR_protein|mol2

> <Gold.PLP.Fitness>
40.0989

> <Gold.PLP.PLP>
-31.3333

> <Gold.PLP.part.hbond>
-3.0000

> <Gold.PLP.part.metal>
0.0000

> <Gold.PLP.part.buried>
-5.3127

> <Gold.PLP.part.nonpolar>
-22.9390

> <Gold.PLP.part.repulsive>
0.5819

> <Gold.PLP.ligand.clash>
0.0015

> <Gold.PLP.ligand.torsion>
0.1853

> <Gold.PLP.Chemscore.Hbond>
3.0000

> <Gold.PLP.Chemscore.CHOScore>
0.0000

> <Gold.PLP.Chemscore.Metal>
0.0000

> <Gold.Chemscore.Hbonds>
donor molecule, donor type, donor heavy atom, donor atom, acceptor molecule, acceptor atom, score
      L1  H     2    57       P1 10747  1.00
      P1  H  7997  8010       L1    24  0.65
      P1  H 10752 10764       L1    21  0.94

> <Gold.PLP.Chemscore.Internal.Correction>
0.1378

> <Gold.Rescore>
     Score         DG    S(hbond)    S(metal)    S(lipo)     H(rot)  DE(clash)    DE(int)     intcor
     15.68     -19.67       2.74        0.00      88.70       2.09       1.34       2.65       ----

> <Gold.Chemscore.Fitness>
15.6800

> <Gold.Chemscore.DG>
-19.6669

> <Gold.Chemscore.ZeroCoef>
-5.4800

> <Gold.Chemscore.Hbond>
2.7431

> <Gold.Chemscore.Metal>
0.0000

> <Gold.Chemscore.Lipo>
88.7024

> <Gold.Chemscore.Internal_Hbond>
0.0000

> <Gold.Chemscore.DEClash>
1.3354

> <Gold.Chemscore.DEInternal>
2.6515

> <Gold.Chemscore.Rot>
2.0911

> <Gold.Chemscore.Internal.Correction>
   9.000000E+99

> <Gold.Chemscore.Hbonds>
donor molecule, donor type, donor heavy atom, donor atom, acceptor molecule, acceptor atom, score
      L1  H     2    57       P1 10747  0.99
      P1  H  7997  8010       L1    24  0.06
      P1  H 10752 10764       L1    21  0.58

> <Gold.Chemscore.Hbond.Weighted>
-9.1619

> <Gold.Chemscore.Metal.Weighted>
-0.0000

> <Gold.Chemscore.Lipo.Weighted>
-10.3782

> <Gold.Chemscore.Internal_Hbond.Weighted>
0.0000

> <Gold.Chemscore.DEClash.Weighted>
1.3354

> <Gold.Chemscore.DEInternal.Weighted>
2.6515

> <Gold.Chemscore.Rot.Weighted>
5.3531

> <Gold.Chemscore.Internal.Correction.Weighted>
   9.000000E+99

> <Gold.Protein.RotatedTorsions>
[ 6907 6896 6895 6894 ] final  171.09 input  -60.11 | X-H torsion
[ 7974 7965 7964 7962 ] final  108.40 input  175.53 | X-H torsion
[ 8008 7997 7996 7995 ] final   69.24 input   59.86 | X-H torsion
[ 10167 10162 10161 10158 ] final  -84.97 input  -65.29 | X-H torsion
[ 10718 10713 10712 10709 ] final -163.88 input   66.30 | X-H torsion
[ 10763 10752 10751 10750 ] final  -49.26 input  -60.55 | X-H torsion
[ 11005 11000 10999 10996 ] final   89.77 input  -57.11 | X-H torsion

> <Gold.Protein.ActiveResidues>
 VAL166  LYS551  ARG553  GLY616  TRP617  ASP618  TYR619  PRO620  LYS621  CYS622 
 ASP623  PHE694  ASN695  SER759  ASP760  ASP761  ALA762  ILE779  LEU786  VAL792 
 PHE793  MET794  SER795  GLU796  ALA797  LYS798  CYS799  TRP800  GLU811  SER814 

> <Gold.Protein.RotatedAtoms>
  151.8058  133.3375  159.3540 H   0  0  0  0  0  0  0  0  0  0  0  0  # atno 6907 bound_to 6896
  150.7343  134.5710  159.5900 H   0  0  0  0  0  0  0  0  0  0  0  0  # atno 6908 bound_to 6896
  152.3110  134.7498  160.0387 H   0  0  0  0  0  0  0  0  0  0  0  0  # atno 6909 bound_to 6896
  145.2812  139.2632  143.3915 H   0  0  0  0  0  0  0  0  0  0  0  0  # atno 7974 bound_to 7965
  155.7206  140.3493  155.5014 H   0  0  0  0  0  0  0  0  0  0  0  0  # atno 8008 bound_to 7997
  155.9273  140.1078  157.1182 H   0  0  0  0  0  0  0  0  0  0  0  0  # atno 8009 bound_to 7997
  154.4079  140.1238  156.4743 H   0  0  0  0  0  0  0  0  0  0  0  0  # atno 8010 bound_to 7997
  140.4081  143.2634  151.9053 H   0  0  0  0  0  0  0  0  0  0  0  0  # atno 10167 bound_to 10162
  156.6310  130.8930  151.2977 H   0  0  0  0  0  0  0  0  0  0  0  0  # atno 10718 bound_to 10713
  154.0912  135.6577  153.4853 H   0  0  0  0  0  0  0  0  0  0  0  0  # atno 10763 bound_to 10752
  153.0321  135.5203  154.7378 H   0  0  0  0  0  0  0  0  0  0  0  0  # atno 10764 bound_to 10752
  154.6503  135.3000  154.9964 H   0  0  0  0  0  0  0  0  0  0  0  0  # atno 10765 bound_to 10752
  139.8869  134.8572  156.3189 H   0  0  0  0  0  0  0  0  0  0  0  0  # atno 11005 bound_to 11000
  146.3216  140.3279  142.8638 LP  0  0  0  0  0  0  0  0  0  0  0  0  # atno 17320 bound_to 7965
  144.9252  140.7913  143.5723 LP  0  0  0  0  0  0  0  0  0  0  0  0  # atno 17321 bound_to 7965
  139.4783  144.5565  151.8306 LP  0  0  0  0  0  0  0  0  0  0  0  0  # atno 17342 bound_to 10162
  140.4667  144.1645  150.5912 LP  0  0  0  0  0  0  0  0  0  0  0  0  # atno 17343 bound_to 10162
  157.7200  130.9546  150.1400 LP  0  0  0  0  0  0  0  0  0  0  0  0  # atno 17370 bound_to 10713
  156.2234  130.3676  149.8529 LP  0  0  0  0  0  0  0  0  0  0  0  0  # atno 17371 bound_to 10713
  140.9800  133.7273  156.0658 LP  0  0  0  0  0  0  0  0  0  0  0  0  # atno 17394 bound_to 11000
  140.7762  134.3777  157.5497 LP  0  0  0  0  0  0  0  0  0  0  0  0  # atno 17395 bound_to 11000

$$$$
