AV-unprocessed.smi:2888|AV-procd|sdf|11107|dock1
  -GOLD-   2272015573D 1   1.00000     0.00000
 Structure written by MMmdl.
 34 36  0  0  0  0  0  0  0  0  2 V2000
  151.8024  138.5068  155.3323 C   0  0  0  0  0  0  0  0  0  0  0  0
  150.8880  139.7110  155.2562 C   0  0  0  0  0  0  0  0  0  0  0  0
  149.7869  139.7482  154.3836 C   0  0  0  0  0  0  0  0  0  0  0  0
  149.0053  140.9193  154.4019 C   0  0  0  0  0  0  0  0  0  0  0  0
  147.7940  141.0915  153.5100 C   0  0  0  0  0  0  0  0  0  0  0  0
  149.3299  141.9409  155.2340 N   0  3  0  0  0  0  0  0  0  0  0  0
  150.3995  141.8380  156.0381 C   0  0  0  0  0  0  0  0  0  0  0  0
  150.6884  142.9133  156.8586 N   0  0  0  0  0  0  0  0  0  0  0  0
  151.8117  142.9581  157.7866 C   0  0  1  0  0  0  0  0  0  0  0  0
  151.9399  144.3064  158.5076 C   0  0  0  0  0  0  0  0  0  0  0  0
  151.8871  143.8841  159.9810 C   0  0  2  0  0  0  0  0  0  0  0  0
  153.1438  143.1159  160.4112 C   0  0  0  0  0  0  0  0  0  0  0  0
  152.9387  141.7687  159.7189 C   0  0  0  0  0  0  0  0  0  0  0  0
  151.6184  141.9952  158.9696 C   0  0  1  0  0  0  0  0  0  0  0  0
  150.9472  142.8272  159.9021 O   0  0  0  0  0  0  0  0  0  0  0  0
  151.1806  140.7482  156.0661 N   0  0  0  0  0  0  0  0  0  0  0  0
  151.4422  137.6975  154.6964 H   0  0  0  0  0  0  0  0  0  0  0  0
  151.8582  138.1351  156.3560 H   0  0  0  0  0  0  0  0  0  0  0  0
  152.8084  138.7736  155.0073 H   0  0  0  0  0  0  0  0  0  0  0  0
  149.5519  138.9197  153.7307 H   0  0  0  0  0  0  0  0  0  0  0  0
  147.5672  140.1703  152.9724 H   0  0  0  0  0  0  0  0  0  0  0  0
  147.9736  141.8784  152.7770 H   0  0  0  0  0  0  0  0  0  0  0  0
  146.9193  141.3635  154.1013 H   0  0  0  0  0  0  0  0  0  0  0  0
  150.1682  143.7654  156.7082 H   0  0  0  0  0  0  0  0  0  0  0  0
  152.7258  142.7063  157.2468 H   0  0  0  0  0  0  0  0  0  0  0  0
  152.8633  144.8299  158.2580 H   0  0  0  0  0  0  0  0  0  0  0  0
  151.1040  144.9690  158.2772 H   0  0  0  0  0  0  0  0  0  0  0  0
  151.6041  144.6876  160.6615 H   0  0  0  0  0  0  0  0  0  0  0  0
  154.0613  143.6175  160.1019 H   0  0  0  0  0  0  0  0  0  0  0  0
  153.1714  142.9892  161.4942 H   0  0  0  0  0  0  0  0  0  0  0  0
  153.7593  141.5054  159.0506 H   0  0  0  0  0  0  0  0  0  0  0  0
  152.8313  140.9730  160.4572 H   0  0  0  0  0  0  0  0  0  0  0  0
  151.0943  141.0711  158.7224 H   0  0  0  0  0  0  0  0  0  0  0  0
  148.7557  142.7842  155.2361 H   0  0  0  0  0  0  0  0  0  0  0  0
  1  2  1  0  0  0  0
  1 17  1  0  0  0  0
  1 18  1  0  0  0  0
  1 19  1  0  0  0  0
  2 16  1  0  0  0  0
  2  3  2  0  0  0  0
  3  4  1  0  0  0  0
  3 20  1  0  0  0  0
  4  5  1  0  0  0  0
  4  6  2  0  0  0  0
  5 21  1  0  0  0  0
  5 22  1  0  0  0  0
  5 23  1  0  0  0  0
  6  7  1  0  0  0  0
  6 34  1  0  0  0  0
  7  8  1  0  0  0  0
  7 16  2  0  0  0  0
  8  9  1  0  0  0  0
  8 24  1  0  0  0  0
  9 14  1  0  0  0  0
  9 10  1  0  0  0  0
  9 25  1  0  0  0  0
 10 11  1  0  0  0  0
 10 26  1  0  0  0  0
 10 27  1  0  0  0  0
 11 15  1  0  0  0  0
 11 12  1  0  0  0  0
 11 28  1  0  0  0  0
 12 13  1  0  0  0  0
 12 29  1  0  0  0  0
 12 30  1  0  0  0  0
 13 14  1  0  0  0  0
 13 31  1  0  0  0  0
 13 32  1  0  0  0  0
 14 15  1  0  0  0  0
 14 33  1  0  0  0  0
M  CHG  1   6   1
M  END
> <s_m_source_file>
AV-unprocessed.smi

> <i_m_source_file_index>
2888

> <i_lp_mmshare_version>
43012

> <i_f3d_flags>
0

> <s_epik_input>
W0NIM11jMVtjSF1jKFtDSDNdKW5jKG4xKVtOSF1bQ0BIXShbQ0gyXVtDQEBIXTIzKVtDQEBIXShPMylbQ0gyXVtDSDJdMg==

> <s_epik_cmdline>
J2VwaWtfcHl0aG9uJywgJy1waCcsICc3LjAnLCAnLXRuJywgJzgnLCAnLW1hJywgJzIwMCcsICctbWV0YWxfYmluZGluZycsICctaW1hZScsICc8aW5maWxlLm1hZT4nLCAnLW9tYWUnLCAnPG91dGZpbGUubWFlPic=

> <r_lp_tautomer_probability>
0.505494

> <r_epik_Ionization_Penalty>
2.49163

> <r_epik_Ionization_Penalty_Charging>
2.49163

> <r_epik_Ionization_Penalty_Neutral>
3.7631e-06

> <r_epik_State_Penalty>
2.656

> <r_epik_Charging_Adjusted_Penalty>
5.14762

> <i_epik_Tot_Q>
1

> <i_epik_Tot_abs_Q>
1

> <r_epik_Metal_State_Penalty>
2.66479

> <b_epik_Metal_Only>
0

> <s_lp_Force_Field>
OPLS_2005

> <r_lp_Energy>
35.8908

> <b_lp_Chiralities_Consistent>
1

> <s_lp_Variant>
AV-unprocessed.smi:2888-8

> <Gold.Version>
5.8.1

> <Gold.Id.Protein>
6NUR|6NUR_protein|mol2

> <Gold.PLP.Fitness>
50.3709

> <Gold.PLP.PLP>
-39.5092

> <Gold.PLP.part.hbond>
-3.0000

> <Gold.PLP.part.metal>
0.0000

> <Gold.PLP.part.buried>
-3.8023

> <Gold.PLP.part.nonpolar>
-32.4036

> <Gold.PLP.part.repulsive>
0.2588

> <Gold.PLP.ligand.clash>
0.0000

> <Gold.PLP.ligand.torsion>
0.0508

> <Gold.PLP.Chemscore.Hbond>
3.6480

> <Gold.PLP.Chemscore.CHOScore>
0.0000

> <Gold.PLP.Chemscore.Metal>
0.0000

> <Gold.Chemscore.Hbonds>
donor molecule, donor type, donor heavy atom, donor atom, acceptor molecule, acceptor atom, score
      L1  H     6    34       P1  8028  1.66
      L1  H     8    24       P1  8028  1.95

> <Gold.PLP.Chemscore.Internal.Correction>
0.0193

> <Gold.Rescore>
     Score         DG    S(hbond)    S(metal)    S(lipo)     H(rot)  DE(clash)    DE(int)     intcor
     20.89     -21.09       1.78        0.00     104.59       1.00       0.17       0.04       ----

> <Gold.Chemscore.Fitness>
20.8873

> <Gold.Chemscore.DG>
-21.0942

> <Gold.Chemscore.ZeroCoef>
-5.4800

> <Gold.Chemscore.Hbond>
1.7776

> <Gold.Chemscore.Metal>
0.0000

> <Gold.Chemscore.Lipo>
104.5913

> <Gold.Chemscore.Internal_Hbond>
0.0000

> <Gold.Chemscore.DEClash>
0.1714

> <Gold.Chemscore.DEInternal>
0.0356

> <Gold.Chemscore.Rot>
1.0000

> <Gold.Chemscore.Internal.Correction>
   9.000000E+99

> <Gold.Chemscore.Hbonds>
donor molecule, donor type, donor heavy atom, donor atom, acceptor molecule, acceptor atom, score
      L1  H     6    34       P1  8028  0.80
      L1  H     8    24       P1  8028  0.93

> <Gold.Chemscore.Hbond.Weighted>
-5.9370

> <Gold.Chemscore.Metal.Weighted>
-0.0000

> <Gold.Chemscore.Lipo.Weighted>
-12.2372

> <Gold.Chemscore.Internal_Hbond.Weighted>
0.0000

> <Gold.Chemscore.DEClash.Weighted>
0.1714

> <Gold.Chemscore.DEInternal.Weighted>
0.0356

> <Gold.Chemscore.Rot.Weighted>
2.5600

> <Gold.Chemscore.Internal.Correction.Weighted>
   9.000000E+99

> <Gold.Protein.RotatedTorsions>
[ 6907 6896 6895 6894 ] final   71.26 input  -60.11 | X-H torsion
[ 7974 7965 7964 7962 ] final -102.02 input  175.53 | X-H torsion
[ 8008 7997 7996 7995 ] final  -92.45 input   59.86 | X-H torsion
[ 10167 10162 10161 10158 ] final  131.36 input  -65.29 | X-H torsion
[ 10718 10713 10712 10709 ] final  -31.30 input   66.30 | X-H torsion
[ 10763 10752 10751 10750 ] final   53.23 input  -60.55 | X-H torsion
[ 11005 11000 10999 10996 ] final -171.00 input  -57.11 | X-H torsion

> <Gold.Protein.ActiveResidues>
 VAL166  LYS551  ARG553  GLY616  TRP617  ASP618  TYR619  PRO620  LYS621  CYS622 
 ASP623  PHE694  ASN695  SER759  ASP760  ASP761  ALA762  ILE779  LEU786  VAL792 
 PHE793  MET794  SER795  GLU796  ALA797  LYS798  CYS799  TRP800  GLU811  SER814 

> <Gold.Protein.RotatedAtoms>
  152.4799  134.4746  159.9646 H   0  0  0  0  0  0  0  0  0  0  0  0  # atno 6907 bound_to 6896
  151.4754  133.3553  159.2838 H   0  0  0  0  0  0  0  0  0  0  0  0  # atno 6908 bound_to 6896
  150.8864  134.8289  159.7323 H   0  0  0  0  0  0  0  0  0  0  0  0  # atno 6909 bound_to 6896
  145.2742  140.9307  143.2969 H   0  0  0  0  0  0  0  0  0  0  0  0  # atno 7974 bound_to 7965
  154.7233  140.0509  157.0659 H   0  0  0  0  0  0  0  0  0  0  0  0  # atno 8008 bound_to 7997
  155.0399  140.3167  155.4709 H   0  0  0  0  0  0  0  0  0  0  0  0  # atno 8009 bound_to 7997
  156.2822  140.2135  156.5522 H   0  0  0  0  0  0  0  0  0  0  0  0  # atno 8010 bound_to 7997
  139.5387  144.6709  151.4696 H   0  0  0  0  0  0  0  0  0  0  0  0  # atno 10167 bound_to 10162
  156.3890  130.4369  149.7409 H   0  0  0  0  0  0  0  0  0  0  0  0  # atno 10718 bound_to 10713
  152.9794  135.5786  154.4707 H   0  0  0  0  0  0  0  0  0  0  0  0  # atno 10763 bound_to 10752
  154.4270  135.2773  155.1939 H   0  0  0  0  0  0  0  0  0  0  0  0  # atno 10764 bound_to 10752
  154.3664  135.6177  153.5771 H   0  0  0  0  0  0  0  0  0  0  0  0  # atno 10765 bound_to 10752
  140.5131  134.5782  157.5025 H   0  0  0  0  0  0  0  0  0  0  0  0  # atno 11005 bound_to 11000
  144.9309  139.4300  143.6495 LP  0  0  0  0  0  0  0  0  0  0  0  0  # atno 17320 bound_to 7965
  146.3237  139.8219  142.8925 LP  0  0  0  0  0  0  0  0  0  0  0  0  # atno 17321 bound_to 7965
  140.6607  143.8504  150.6885 LP  0  0  0  0  0  0  0  0  0  0  0  0  # atno 17342 bound_to 10162
  140.1898  143.4046  152.1872 LP  0  0  0  0  0  0  0  0  0  0  0  0  # atno 17343 bound_to 10162
  156.4470  130.7888  151.2910 LP  0  0  0  0  0  0  0  0  0  0  0  0  # atno 17370 bound_to 10713
  157.7498  131.0107  150.3317 LP  0  0  0  0  0  0  0  0  0  0  0  0  # atno 17371 bound_to 10713
  139.9647  134.7392  156.0162 LP  0  0  0  0  0  0  0  0  0  0  0  0  # atno 17394 bound_to 11000
  141.1375  133.6572  156.3634 LP  0  0  0  0  0  0  0  0  0  0  0  0  # atno 17395 bound_to 11000

$$$$
