AV-unprocessed.smi:3354|AV-procd|sdf|12956|dock8
  -GOLD-   2272019393D 1   1.00000     0.00000
 Structure written by MMmdl.
 38 40  0  0  0  0  0  0  0  0  1 V2000
  149.0639  141.2754  154.4190 C   0  0  0  0  0  0  0  0  0  0  0  0
  149.7509  141.5027  155.7515 C   0  0  1  0  0  0  0  0  0  0  0  0
  149.3119  140.7466  156.9842 C   0  0  0  0  0  0  0  0  0  0  0  0
  150.6726  140.4721  156.3744 C   0  0  1  0  0  0  0  0  0  0  0  0
  150.9296  139.2394  155.6885 N   0  0  0  0  0  0  0  0  0  0  0  0
  150.0963  138.0596  155.8764 C   0  0  0  0  0  0  0  0  0  0  0  0
  150.9221  136.8820  155.3283 C   0  0  1  0  0  0  0  0  0  0  0  0
  150.1048  136.0114  154.4851 N   0  0  0  0  0  0  0  0  0  0  0  0
  149.8508  134.7150  154.7139 C   0  0  0  0  0  0  0  0  0  0  0  0
  150.2830  134.0961  155.6859 O   0  0  0  0  0  0  0  0  0  0  0  0
  149.0548  134.2029  153.7591 N   0  0  0  0  0  0  0  0  0  0  0  0
  148.5798  132.8703  153.6223 C   0  0  0  0  0  0  0  0  0  0  0  0
  149.2311  131.7323  154.1573 C   0  0  0  0  0  0  0  0  0  0  0  0
  148.6695  130.4602  153.9346 C   0  0  0  0  0  0  0  0  0  0  0  0
  147.4834  130.3709  153.1806 C   0  0  0  0  0  0  0  0  0  0  0  0
  146.8593  131.4451  152.6533 N   0  0  0  0  0  0  0  0  0  0  0  0
  147.4039  132.6612  152.8704 C   0  0  0  0  0  0  0  0  0  0  0  0
  152.0719  137.5229  154.5393 C   0  0  0  0  0  0  0  0  0  0  0  0
  152.0339  138.9758  154.9812 C   0  0  0  0  0  0  0  0  0  0  0  0
  152.9314  139.7745  154.7169 O   0  0  0  0  0  0  0  0  0  0  0  0
  148.7028  140.2507  154.3298 H   0  0  0  0  0  0  0  0  0  0  0  0
  149.7595  141.4715  153.6029 H   0  0  0  0  0  0  0  0  0  0  0  0
  148.2124  141.9485  154.3195 H   0  0  0  0  0  0  0  0  0  0  0  0
  150.0450  142.5389  155.9074 H   0  0  0  0  0  0  0  0  0  0  0  0
  149.2868  141.2966  157.9226 H   0  0  0  0  0  0  0  0  0  0  0  0
  148.5180  140.0131  156.8611 H   0  0  0  0  0  0  0  0  0  0  0  0
  151.5170  140.8716  156.9340 H   0  0  0  0  0  0  0  0  0  0  0  0
  149.8465  137.9123  156.9281 H   0  0  0  0  0  0  0  0  0  0  0  0
  149.1650  138.1911  155.3234 H   0  0  0  0  0  0  0  0  0  0  0  0
  151.3496  136.3339  156.1700 H   0  0  0  0  0  0  0  0  0  0  0  0
  149.6990  136.4327  153.6622 H   0  0  0  0  0  0  0  0  0  0  0  0
  148.7085  134.8571  153.0726 H   0  0  0  0  0  0  0  0  0  0  0  0
  150.1510  131.8054  154.7163 H   0  0  0  0  0  0  0  0  0  0  0  0
  149.1410  129.5720  154.3290 H   0  0  0  0  0  0  0  0  0  0  0  0
  147.0275  129.4105  152.9904 H   0  0  0  0  0  0  0  0  0  0  0  0
  146.8795  133.4971  152.4306 H   0  0  0  0  0  0  0  0  0  0  0  0
  153.0335  137.0627  154.7689 H   0  0  0  0  0  0  0  0  0  0  0  0
  151.9124  137.4764  153.4611 H   0  0  0  0  0  0  0  0  0  0  0  0
  1  2  1  0  0  0  0
  1 21  1  0  0  0  0
  1 22  1  0  0  0  0
  1 23  1  0  0  0  0
  2  4  1  0  0  0  0
  2  3  1  0  0  0  0
  2 24  1  0  0  0  0
  3  4  1  0  0  0  0
  3 25  1  0  0  0  0
  3 26  1  0  0  0  0
  4  5  1  0  0  0  0
  4 27  1  0  0  0  0
  5 19  1  0  0  0  0
  5  6  1  0  0  0  0
  6  7  1  0  0  0  0
  6 28  1  0  0  0  0
  6 29  1  0  0  0  0
  7  8  1  0  0  0  0
  7 18  1  0  0  0  0
  7 30  1  0  0  0  0
  8  9  1  0  0  0  0
  8 31  1  0  0  0  0
  9 10  2  0  0  0  0
  9 11  1  0  0  0  0
 11 12  1  0  0  0  0
 11 32  1  0  0  0  0
 12 17  1  0  0  0  0
 12 13  2  0  0  0  0
 13 14  1  0  0  0  0
 13 33  1  0  0  0  0
 14 15  2  0  0  0  0
 14 34  1  0  0  0  0
 15 16  1  0  0  0  0
 15 35  1  0  0  0  0
 16 17  2  0  0  0  0
 17 36  1  0  0  0  0
 18 19  1  0  0  0  0
 18 37  1  0  0  0  0
 18 38  1  0  0  0  0
 19 20  2  0  0  0  0
M  END
> <s_m_source_file>
AV-unprocessed.smi

> <i_m_source_file_index>
3354

> <i_lp_mmshare_version>
43012

> <i_f3d_flags>
0

> <s_epik_input>
W0NIM11bQ0BASF0xW0NIMl1bQ0BIXTFOMltDSDJdW0NASF0oW0NIMl1DMj1PKVtOSF1DKD1PKVtOSF1jM1tjSF1bY0hdW2NIXW5bY0hdMw==

> <s_epik_cmdline>
J2VwaWtfcHl0aG9uJywgJy1waCcsICc3LjAnLCAnLXRuJywgJzgnLCAnLW1hJywgJzIwMCcsICctbWV0YWxfYmluZGluZycsICctaW1hZScsICc8aW5maWxlLm1hZT4nLCAnLW9tYWUnLCAnPG91dGZpbGUubWFlPic=

> <r_epik_Ionization_Penalty>
0.00456191

> <r_epik_Ionization_Penalty_Charging>
0

> <r_epik_Ionization_Penalty_Neutral>
0.00456191

> <r_epik_State_Penalty>
0.00327094

> <r_epik_Charging_Adjusted_Penalty>
0.00327094

> <i_epik_Tot_Q>
0

> <i_epik_Tot_abs_Q>
0

> <r_epik_Metal_State_Penalty>
-0

> <b_epik_Metal_Only>
0

> <s_lp_Force_Field>
OPLS_2005

> <r_lp_Energy>
43.9825

> <b_lp_Chiralities_Consistent>
1

> <s_lp_Variant>
AV-unprocessed.smi:3354-2

> <Gold.Version>
5.8.1

> <Gold.Id.Protein>
6NUR|6NUR_protein|mol2

> <Gold.PLP.Fitness>
42.5975

> <Gold.PLP.PLP>
-33.9519

> <Gold.PLP.part.hbond>
-4.5560

> <Gold.PLP.part.metal>
0.0000

> <Gold.PLP.part.buried>
0.2334

> <Gold.PLP.part.nonpolar>
-30.3874

> <Gold.PLP.part.repulsive>
0.2686

> <Gold.PLP.ligand.clash>
0.0000

> <Gold.PLP.ligand.torsion>
0.6171

> <Gold.PLP.Chemscore.Hbond>
3.2256

> <Gold.PLP.Chemscore.CHOScore>
0.0000

> <Gold.PLP.Chemscore.Metal>
0.0000

> <Gold.Chemscore.Hbonds>
donor molecule, donor type, donor heavy atom, donor atom, acceptor molecule, acceptor atom, score
      L1  H     8    31       P1  7948  0.98
      L1  H    11    32       P1  7948  1.00
      P1  H  7989  7998       L1    20  0.22
      P1  H  7997  8009       L1    20  1.00

> <Gold.PLP.Chemscore.Internal.Correction>
0.2030

> <Gold.Rescore>
     Score         DG    S(hbond)    S(metal)    S(lipo)     H(rot)  DE(clash)    DE(int)     intcor
     16.35     -17.89       2.45        0.00      63.18       1.24       0.05       1.50       ----

> <Gold.Chemscore.Fitness>
16.3512

> <Gold.Chemscore.DG>
-17.8949

> <Gold.Chemscore.ZeroCoef>
-5.4800

> <Gold.Chemscore.Hbond>
2.4511

> <Gold.Chemscore.Metal>
0.0000

> <Gold.Chemscore.Lipo>
63.1832

> <Gold.Chemscore.Internal_Hbond>
0.0000

> <Gold.Chemscore.DEClash>
0.0477

> <Gold.Chemscore.DEInternal>
1.4960

> <Gold.Chemscore.Rot>
1.2361

> <Gold.Chemscore.Internal.Correction>
   9.000000E+99

> <Gold.Chemscore.Hbonds>
donor molecule, donor type, donor heavy atom, donor atom, acceptor molecule, acceptor atom, score
      L1  H     8    31       P1  7948  0.42
      L1  H    11    32       P1  7948  0.33
      P1  H  7989  7998       L1    20  0.01
      P1  H  7997  8009       L1    20  0.98

> <Gold.Chemscore.Hbond.Weighted>
-8.1868

> <Gold.Chemscore.Metal.Weighted>
-0.0000

> <Gold.Chemscore.Lipo.Weighted>
-7.3924

> <Gold.Chemscore.Internal_Hbond.Weighted>
0.0000

> <Gold.Chemscore.DEClash.Weighted>
0.0477

> <Gold.Chemscore.DEInternal.Weighted>
1.4960

> <Gold.Chemscore.Rot.Weighted>
3.1643

> <Gold.Chemscore.Internal.Correction.Weighted>
   9.000000E+99

> <Gold.Protein.RotatedTorsions>
[ 6907 6896 6895 6894 ] final  -47.35 input  -60.11 | X-H torsion
[ 7974 7965 7964 7962 ] final  -71.25 input  175.53 | X-H torsion
[ 8008 7997 7996 7995 ] final -139.27 input   59.86 | X-H torsion
[ 10167 10162 10161 10158 ] final   57.55 input  -65.29 | X-H torsion
[ 10718 10713 10712 10709 ] final    9.72 input   66.30 | X-H torsion
[ 10763 10752 10751 10750 ] final  -38.88 input  -60.55 | X-H torsion
[ 11005 11000 10999 10996 ] final -101.49 input  -57.11 | X-H torsion

> <Gold.Protein.ActiveResidues>
 VAL166  LYS551  ARG553  GLY616  TRP617  ASP618  TYR619  PRO620  LYS621  CYS622 
 ASP623  PHE694  ASN695  SER759  ASP760  ASP761  ALA762  ILE779  LEU786  VAL792 
 PHE793  MET794  SER795  GLU796  ALA797  LYS798  CYS799  TRP800  GLU811  SER814 

> <Gold.Protein.RotatedAtoms>
  150.9017  134.8429  159.7364 H   0  0  0  0  0  0  0  0  0  0  0  0  # atno 6907 bound_to 6896
  152.4896  134.4492  159.9579 H   0  0  0  0  0  0  0  0  0  0  0  0  # atno 6908 bound_to 6896
  151.4544  133.3570  159.2835 H   0  0  0  0  0  0  0  0  0  0  0  0  # atno 6909 bound_to 6896
  145.6805  140.9189  143.0835 H   0  0  0  0  0  0  0  0  0  0  0  0  # atno 7974 bound_to 7965
  155.4421  140.0532  157.3009 H   0  0  0  0  0  0  0  0  0  0  0  0  # atno 8008 bound_to 7997
  154.4814  140.2083  155.9713 H   0  0  0  0  0  0  0  0  0  0  0  0  # atno 8009 bound_to 7997
  156.1210  140.3188  155.8214 H   0  0  0  0  0  0  0  0  0  0  0  0  # atno 8010 bound_to 7997
  140.1968  144.4029  150.6546 H   0  0  0  0  0  0  0  0  0  0  0  0  # atno 10167 bound_to 10162
  156.9704  130.5967  149.5668 H   0  0  0  0  0  0  0  0  0  0  0  0  # atno 10718 bound_to 10713
  153.9201  135.6783  153.4748 H   0  0  0  0  0  0  0  0  0  0  0  0  # atno 10763 bound_to 10752
  153.1033  135.4817  154.8903 H   0  0  0  0  0  0  0  0  0  0  0  0  # atno 10764 bound_to 10752
  154.7482  135.3178  154.8562 H   0  0  0  0  0  0  0  0  0  0  0  0  # atno 10765 bound_to 10752
  141.1229  133.8482  157.1238 H   0  0  0  0  0  0  0  0  0  0  0  0  # atno 11005 bound_to 11000
  144.7028  139.8690  143.7439 LP  0  0  0  0  0  0  0  0  0  0  0  0  # atno 17320 bound_to 7965
  146.0968  139.3961  143.0371 LP  0  0  0  0  0  0  0  0  0  0  0  0  # atno 17321 bound_to 7965
  140.6418  143.2205  151.6273 LP  0  0  0  0  0  0  0  0  0  0  0  0  # atno 17342 bound_to 10162
  139.5233  144.3136  152.0971 LP  0  0  0  0  0  0  0  0  0  0  0  0  # atno 17343 bound_to 10162
  156.0285  130.5378  150.8471 LP  0  0  0  0  0  0  0  0  0  0  0  0  # atno 17370 bound_to 10713
  157.5596  131.0945  150.9578 LP  0  0  0  0  0  0  0  0  0  0  0  0  # atno 17371 bound_to 10713
  140.0201  134.9950  157.0573 LP  0  0  0  0  0  0  0  0  0  0  0  0  # atno 17394 bound_to 11000
  140.4454  134.1637  155.7177 LP  0  0  0  0  0  0  0  0  0  0  0  0  # atno 17395 bound_to 11000

$$$$
