AV-unprocessed.smi:3321|AV-procd|sdf|12769|dock2
  -GOLD-   2272019113D 1   1.00000     0.00000
 Structure written by MMmdl.
 41 42  0  0  0  0  0  0  0  0  2 V2000
  148.2748  141.6129  155.1014 C   0  0  0  0  0  0  0  0  0  0  0  0
  149.4628  141.2805  156.0188 C   0  0  2  0  0  0  0  0  0  0  0  0
  150.0848  142.5388  156.4946 N   0  3  0  0  0  0  0  0  0  0  0  0
  150.4725  142.5427  157.9217 C   0  0  0  0  0  0  0  0  0  0  0  0
  151.6859  143.4525  158.1607 C   0  0  0  0  0  0  0  0  0  0  0  0
  152.1504  143.3811  159.5327 N   0  0  0  0  0  0  0  0  0  0  0  0
  152.8812  142.3821  160.1413 C   0  0  0  0  0  0  0  0  0  0  0  0
  153.0772  142.7563  161.4397 C   0  0  0  0  0  0  0  0  0  0  0  0
  152.4162  144.0129  161.5335 C   0  0  0  0  0  0  0  0  0  0  0  0
  151.8606  144.3828  160.3907 N   0  0  0  0  0  0  0  0  0  0  0  0
  150.4775  140.3891  155.2711 C   0  0  0  0  0  0  0  0  0  0  0  0
  150.3521  140.2703  154.0507 O   0  0  0  0  0  0  0  0  0  0  0  0
  151.4680  139.7631  155.9553 N   0  0  0  0  0  0  0  0  0  0  0  0
  152.4835  138.8652  155.3884 C   0  0  0  0  0  0  0  0  0  0  0  0
  152.1410  137.4222  155.7998 C   0  0  0  0  0  0  0  0  0  0  0  0
  152.0595  137.2988  157.3342 C   0  0  0  0  0  0  0  0  0  0  0  0
  151.1641  138.3907  157.9525 C   0  0  0  0  0  0  0  0  0  0  0  0
  151.5451  139.7857  157.4222 C   0  0  0  0  0  0  0  0  0  0  0  0
  147.7802  140.7107  154.7394 H   0  0  0  0  0  0  0  0  0  0  0  0
  148.5918  142.1870  154.2295 H   0  0  0  0  0  0  0  0  0  0  0  0
  147.5265  142.2030  155.6311 H   0  0  0  0  0  0  0  0  0  0  0  0
  149.0907  140.7725  156.9076 H   0  0  0  0  0  0  0  0  0  0  0  0
  150.9019  142.7230  155.9298 H   0  0  0  0  0  0  0  0  0  0  0  0
  149.6285  142.8847  158.5224 H   0  0  0  0  0  0  0  0  0  0  0  0
  150.7026  141.5255  158.2411 H   0  0  0  0  0  0  0  0  0  0  0  0
  152.5096  143.1739  157.5016 H   0  0  0  0  0  0  0  0  0  0  0  0
  151.4338  144.4895  157.9342 H   0  0  0  0  0  0  0  0  0  0  0  0
  153.1989  141.4989  159.6067 H   0  0  0  0  0  0  0  0  0  0  0  0
  153.6106  142.2149  162.2069 H   0  0  0  0  0  0  0  0  0  0  0  0
  152.3243  144.6620  162.3920 H   0  0  0  0  0  0  0  0  0  0  0  0
  152.5920  138.9408  154.3086 H   0  0  0  0  0  0  0  0  0  0  0  0
  153.4628  139.1369  155.7855 H   0  0  0  0  0  0  0  0  0  0  0  0
  151.1878  137.1312  155.3561 H   0  0  0  0  0  0  0  0  0  0  0  0
  152.8889  136.7311  155.4099 H   0  0  0  0  0  0  0  0  0  0  0  0
  151.6971  136.3096  157.6147 H   0  0  0  0  0  0  0  0  0  0  0  0
  153.0638  137.3878  157.7503 H   0  0  0  0  0  0  0  0  0  0  0  0
  150.1199  138.1844  157.7137 H   0  0  0  0  0  0  0  0  0  0  0  0
  151.2432  138.3672  159.0397 H   0  0  0  0  0  0  0  0  0  0  0  0
  152.5596  140.0417  157.7311 H   0  0  0  0  0  0  0  0  0  0  0  0
  150.9014  140.5423  157.8727 H   0  0  0  0  0  0  0  0  0  0  0  0
  149.4207  143.2869  156.3565 H   0  0  0  0  0  0  0  0  0  0  0  0
  1  2  1  0  0  0  0
  1 19  1  0  0  0  0
  1 20  1  0  0  0  0
  1 21  1  0  0  0  0
  2  3  1  0  0  0  0
  2 11  1  0  0  0  0
  2 22  1  0  0  0  0
  3  4  1  0  0  0  0
  3 23  1  0  0  0  0
  3 41  1  0  0  0  0
  4  5  1  0  0  0  0
  4 24  1  0  0  0  0
  4 25  1  0  0  0  0
  5  6  1  0  0  0  0
  5 26  1  0  0  0  0
  5 27  1  0  0  0  0
  6 10  1  0  0  0  0
  6  7  1  0  0  0  0
  7  8  2  0  0  0  0
  7 28  1  0  0  0  0
  8  9  1  0  0  0  0
  8 29  1  0  0  0  0
  9 10  2  0  0  0  0
  9 30  1  0  0  0  0
 11 12  2  0  0  0  0
 11 13  1  0  0  0  0
 13 18  1  0  0  0  0
 13 14  1  0  0  0  0
 14 15  1  0  0  0  0
 14 31  1  0  0  0  0
 14 32  1  0  0  0  0
 15 16  1  0  0  0  0
 15 33  1  0  0  0  0
 15 34  1  0  0  0  0
 16 17  1  0  0  0  0
 16 35  1  0  0  0  0
 16 36  1  0  0  0  0
 17 18  1  0  0  0  0
 17 37  1  0  0  0  0
 17 38  1  0  0  0  0
 18 39  1  0  0  0  0
 18 40  1  0  0  0  0
M  CHG  1   3   1
M  END
> <s_m_source_file>
AV-unprocessed.smi

> <i_m_source_file_index>
3321

> <i_lp_mmshare_version>
43012

> <i_f3d_flags>
0

> <s_epik_input>
W0NIMl0xW0NIMl1bQ0gyXVtDSDJdW0NIMl1OMUMoPU8pW0NASF0oW0NIM10pW05IXVtDSDJdW0NIMl1uMltjSF1bY0hdW2NIXW4y

> <s_epik_cmdline>
J2VwaWtfcHl0aG9uJywgJy1waCcsICc3LjAnLCAnLXRuJywgJzgnLCAnLW1hJywgJzIwMCcsICctbWV0YWxfYmluZGluZycsICctaW1hZScsICc8aW5maWxlLm1hZT4nLCAnLW9tYWUnLCAnPG91dGZpbGUubWFlPic=

> <r_lp_tautomer_probability>
1

> <r_epik_Ionization_Penalty>
0.202061

> <r_epik_Ionization_Penalty_Charging>
0.202058

> <r_epik_Ionization_Penalty_Neutral>
2.46932e-06

> <r_epik_State_Penalty>
0.191938

> <r_epik_Charging_Adjusted_Penalty>
0.393996

> <i_epik_Tot_Q>
1

> <i_epik_Tot_abs_Q>
1

> <r_epik_Metal_State_Penalty>
0.192188

> <b_epik_Metal_Only>
0

> <s_lp_Force_Field>
OPLS_2005

> <r_lp_Energy>
26.3396

> <b_lp_Chiralities_Consistent>
1

> <s_lp_Variant>
AV-unprocessed.smi:3321-1

> <Gold.Version>
5.8.1

> <Gold.Id.Protein>
6NUR|6NUR_protein|mol2

> <Gold.PLP.Fitness>
45.6612

> <Gold.PLP.PLP>
-39.0196

> <Gold.PLP.part.hbond>
-1.7434

> <Gold.PLP.part.metal>
0.0000

> <Gold.PLP.part.buried>
-4.4010

> <Gold.PLP.part.nonpolar>
-33.3390

> <Gold.PLP.part.repulsive>
0.8104

> <Gold.PLP.ligand.clash>
0.0000

> <Gold.PLP.ligand.torsion>
1.2430

> <Gold.PLP.Chemscore.Hbond>
2.9913

> <Gold.PLP.Chemscore.CHOScore>
0.0000

> <Gold.PLP.Chemscore.Metal>
0.0000

> <Gold.Chemscore.Hbonds>
donor molecule, donor type, donor heavy atom, donor atom, acceptor molecule, acceptor atom, score
      L1  H     3    41       P1  8028  2.00
      P1  H  7989  7998       L1    12  0.90

> <Gold.PLP.Chemscore.Internal.Correction>
0.1538

> <Gold.Rescore>
     Score         DG    S(hbond)    S(metal)    S(lipo)     H(rot)  DE(clash)    DE(int)     intcor
     16.43     -17.86       1.97        0.00      88.77       1.79       0.07       1.36       ----

> <Gold.Chemscore.Fitness>
16.4259

> <Gold.Chemscore.DG>
-17.8585

> <Gold.Chemscore.ZeroCoef>
-5.4800

> <Gold.Chemscore.Hbond>
1.9705

> <Gold.Chemscore.Metal>
0.0000

> <Gold.Chemscore.Lipo>
88.7721

> <Gold.Chemscore.Internal_Hbond>
0.0000

> <Gold.Chemscore.DEClash>
0.0725

> <Gold.Chemscore.DEInternal>
1.3601

> <Gold.Chemscore.Rot>
1.7928

> <Gold.Chemscore.Internal.Correction>
   9.000000E+99

> <Gold.Chemscore.Hbonds>
donor molecule, donor type, donor heavy atom, donor atom, acceptor molecule, acceptor atom, score
      L1  H     3    41       P1  8028  0.97
      P1  H  7989  7998       L1    12  0.41

> <Gold.Chemscore.Hbond.Weighted>
-6.5816

> <Gold.Chemscore.Metal.Weighted>
-0.0000

> <Gold.Chemscore.Lipo.Weighted>
-10.3863

> <Gold.Chemscore.Internal_Hbond.Weighted>
0.0000

> <Gold.Chemscore.DEClash.Weighted>
0.0725

> <Gold.Chemscore.DEInternal.Weighted>
1.3601

> <Gold.Chemscore.Rot.Weighted>
4.5895

> <Gold.Chemscore.Internal.Correction.Weighted>
   9.000000E+99

> <Gold.Protein.RotatedTorsions>
[ 6907 6896 6895 6894 ] final  104.65 input  -60.11 | X-H torsion
[ 7974 7965 7964 7962 ] final  140.38 input  175.53 | X-H torsion
[ 8008 7997 7996 7995 ] final -103.11 input   59.86 | X-H torsion
[ 10167 10162 10161 10158 ] final  -27.42 input  -65.29 | X-H torsion
[ 10718 10713 10712 10709 ] final  -57.73 input   66.30 | X-H torsion
[ 10763 10752 10751 10750 ] final -148.72 input  -60.55 | X-H torsion
[ 11005 11000 10999 10996 ] final  121.11 input  -57.11 | X-H torsion

> <Gold.Protein.ActiveResidues>
 VAL166  LYS551  ARG553  GLY616  TRP617  ASP618  TYR619  PRO620  LYS621  CYS622 
 ASP623  PHE694  ASN695  SER759  ASP760  ASP761  ALA762  ILE779  LEU786  VAL792 
 PHE793  MET794  SER795  GLU796  ALA797  LYS798  CYS799  TRP800  GLU811  SER814 

> <Gold.Protein.RotatedAtoms>
  152.5257  133.9645  159.7732 H   0  0  0  0  0  0  0  0  0  0  0  0  # atno 6907 bound_to 6896
  150.9929  133.6123  159.2713 H   0  0  0  0  0  0  0  0  0  0  0  0  # atno 6908 bound_to 6896
  151.3260  135.0836  159.9375 H   0  0  0  0  0  0  0  0  0  0  0  0  # atno 6909 bound_to 6896
  144.9192  139.5190  143.5671 H   0  0  0  0  0  0  0  0  0  0  0  0  # atno 7974 bound_to 7965
  154.8662  140.0424  157.1696 H   0  0  0  0  0  0  0  0  0  0  0  0  # atno 8008 bound_to 7997
  154.8787  140.2969  155.5417 H   0  0  0  0  0  0  0  0  0  0  0  0  # atno 8009 bound_to 7997
  156.2999  140.2415  156.3787 H   0  0  0  0  0  0  0  0  0  0  0  0  # atno 8010 bound_to 7997
  140.7277  143.4095  151.1130 H   0  0  0  0  0  0  0  0  0  0  0  0  # atno 10167 bound_to 10162
  156.1189  130.4168  150.0480 H   0  0  0  0  0  0  0  0  0  0  0  0  # atno 10718 bound_to 10713
  154.8217  135.3327  154.7017 H   0  0  0  0  0  0  0  0  0  0  0  0  # atno 10763 bound_to 10752
  153.7649  135.6930  153.4922 H   0  0  0  0  0  0  0  0  0  0  0  0  # atno 10764 bound_to 10752
  153.2084  135.4491  155.0300 H   0  0  0  0  0  0  0  0  0  0  0  0  # atno 10765 bound_to 10752
  139.9212  134.9637  156.7908 H   0  0  0  0  0  0  0  0  0  0  0  0  # atno 11005 bound_to 11000
  146.3196  139.8058  142.8956 LP  0  0  0  0  0  0  0  0  0  0  0  0  # atno 17320 bound_to 7965
  145.3325  141.0269  143.3438 LP  0  0  0  0  0  0  0  0  0  0  0  0  # atno 17321 bound_to 7965
  139.7726  143.8472  152.3123 LP  0  0  0  0  0  0  0  0  0  0  0  0  # atno 17342 bound_to 10162
  139.8396  144.7216  150.9348 LP  0  0  0  0  0  0  0  0  0  0  0  0  # atno 17343 bound_to 10162
  156.8424  130.9430  151.3631 LP  0  0  0  0  0  0  0  0  0  0  0  0  # atno 17370 bound_to 10713
  157.6372  130.8776  149.9381 LP  0  0  0  0  0  0  0  0  0  0  0  0  # atno 17371 bound_to 10713
  140.6468  133.9767  155.7735 LP  0  0  0  0  0  0  0  0  0  0  0  0  # atno 17394 bound_to 11000
  141.0734  134.0171  157.3493 LP  0  0  0  0  0  0  0  0  0  0  0  0  # atno 17395 bound_to 11000

$$$$
