AV-unprocessed.smi:2710|AV-procd|sdf|10471|dock7
  -GOLD-   2272014513D 1   1.00000     0.00000
 Structure written by MMmdl.
 53 54  0  0  0  0  0  0  0  0  2 V2000
  146.4175  128.8001  151.8732 C   0  0  0  0  0  0  0  0  0  0  0  0
  147.3680  129.1275  153.0366 C   0  0  0  0  0  0  0  0  0  0  0  0
  147.8251  130.5479  153.0505 N   0  3  1  0  0  0  0  0  0  0  0  0
  146.6765  131.4993  153.0739 C   0  0  0  0  0  0  0  0  0  0  0  0
  147.1318  132.9612  152.9628 C   0  0  0  0  0  0  0  0  0  0  0  0
  148.1102  133.3146  154.0862 C   0  0  2  0  0  0  0  0  0  0  0  0
  148.5696  134.6918  153.9298 N   0  0  0  0  0  0  0  0  0  0  0  0
  148.7151  135.5757  154.9275 C   0  0  0  0  0  0  0  0  0  0  0  0
  148.4956  135.3052  156.1073 O   0  0  0  0  0  0  0  0  0  0  0  0
  149.1389  136.7637  154.4643 N   0  0  0  0  0  0  0  0  0  0  0  0
  149.3981  137.9597  155.1870 C   0  0  0  0  0  0  0  0  0  0  0  0
  149.8731  139.1713  154.6298 C   0  0  0  0  0  0  0  0  0  0  0  0
  150.1092  140.2580  155.3952 N   0  0  0  0  0  0  0  0  0  0  0  0
  149.8513  140.1688  156.7064 C   0  0  0  0  0  0  0  0  0  0  0  0
  150.2643  141.3617  157.5863 C   0  0  0  0  0  0  0  0  0  0  0  0
  149.0359  141.9897  158.2863 C   0  0  0  0  0  0  0  0  0  0  0  0
  150.8938  142.4894  156.7347 C   0  0  0  0  0  0  0  0  0  0  0  0
  151.2760  140.8905  158.6469 C   0  0  0  0  0  0  0  0  0  0  0  0
  149.4484  139.0573  157.3360 N   0  0  0  0  0  0  0  0  0  0  0  0
  149.2087  137.9632  156.5834 C   0  0  0  0  0  0  0  0  0  0  0  0
  149.2858  132.3265  154.0436 C   0  0  0  0  0  0  0  0  0  0  0  0
  148.8147  130.8582  154.1342 C   0  0  2  0  0  0  0  0  0  0  0  0
  150.0554  129.9412  154.1114 C   0  0  0  0  0  0  0  0  0  0  0  0
  146.2491  127.7246  151.8121 H   0  0  0  0  0  0  0  0  0  0  0  0
  146.8352  129.1207  150.9184 H   0  0  0  0  0  0  0  0  0  0  0  0
  145.4387  129.2636  151.9915 H   0  0  0  0  0  0  0  0  0  0  0  0
  146.9031  128.8760  153.9910 H   0  0  0  0  0  0  0  0  0  0  0  0
  148.2163  128.4576  152.9190 H   0  0  0  0  0  0  0  0  0  0  0  0
  145.9970  131.3046  152.2461 H   0  0  0  0  0  0  0  0  0  0  0  0
  146.1040  131.3550  153.9916 H   0  0  0  0  0  0  0  0  0  0  0  0
  147.6006  133.1243  151.9909 H   0  0  0  0  0  0  0  0  0  0  0  0
  146.2632  133.6199  153.0025 H   0  0  0  0  0  0  0  0  0  0  0  0
  147.5924  133.2197  155.0429 H   0  0  0  0  0  0  0  0  0  0  0  0
  148.7779  134.9996  152.9911 H   0  0  0  0  0  0  0  0  0  0  0  0
  149.3265  136.8115  153.4733 H   0  0  0  0  0  0  0  0  0  0  0  0
  150.0936  139.2901  153.5810 H   0  0  0  0  0  0  0  0  0  0  0  0
  149.3175  142.8651  158.8726 H   0  0  0  0  0  0  0  0  0  0  0  0
  148.5563  141.2925  158.9743 H   0  0  0  0  0  0  0  0  0  0  0  0
  148.2857  142.3084  157.5616 H   0  0  0  0  0  0  0  0  0  0  0  0
  150.2091  142.8295  155.9569 H   0  0  0  0  0  0  0  0  0  0  0  0
  151.8151  142.1682  156.2472 H   0  0  0  0  0  0  0  0  0  0  0  0
  151.1488  143.3547  157.3475 H   0  0  0  0  0  0  0  0  0  0  0  0
  151.5914  141.7128  159.2901 H   0  0  0  0  0  0  0  0  0  0  0  0
  152.1708  140.4739  158.1826 H   0  0  0  0  0  0  0  0  0  0  0  0
  150.8480  140.1178  159.2865 H   0  0  0  0  0  0  0  0  0  0  0  0
  148.8677  137.0809  157.1049 H   0  0  0  0  0  0  0  0  0  0  0  0
  149.8549  132.4717  153.1237 H   0  0  0  0  0  0  0  0  0  0  0  0
  149.9720  132.5407  154.8642 H   0  0  0  0  0  0  0  0  0  0  0  0
  148.3139  130.7210  155.0941 H   0  0  0  0  0  0  0  0  0  0  0  0
  150.8163  130.2998  154.8055 H   0  0  0  0  0  0  0  0  0  0  0  0
  150.5077  129.9050  153.1198 H   0  0  0  0  0  0  0  0  0  0  0  0
  149.8254  128.9227  154.4221 H   0  0  0  0  0  0  0  0  0  0  0  0
  148.3087  130.6977  152.1764 H   0  0  0  0  0  0  0  0  0  0  0  0
  1  2  1  0  0  0  0
  1 24  1  0  0  0  0
  1 25  1  0  0  0  0
  1 26  1  0  0  0  0
  2  3  1  0  0  0  0
  2 27  1  0  0  0  0
  2 28  1  0  0  0  0
  3 22  1  0  0  0  0
  3  4  1  0  0  0  0
  3 53  1  0  0  0  0
  4  5  1  0  0  0  0
  4 29  1  0  0  0  0
  4 30  1  0  0  0  0
  5  6  1  0  0  0  0
  5 31  1  0  0  0  0
  5 32  1  0  0  0  0
  6  7  1  0  0  0  0
  6 21  1  0  0  0  0
  6 33  1  0  0  0  0
  7  8  1  0  0  0  0
  7 34  1  0  0  0  0
  8  9  2  0  0  0  0
  8 10  1  0  0  0  0
 10 11  1  0  0  0  0
 10 35  1  0  0  0  0
 11 20  1  0  0  0  0
 11 12  2  0  0  0  0
 12 13  1  0  0  0  0
 12 36  1  0  0  0  0
 13 14  2  0  0  0  0
 14 15  1  0  0  0  0
 14 19  1  0  0  0  0
 15 16  1  0  0  0  0
 15 17  1  0  0  0  0
 15 18  1  0  0  0  0
 16 37  1  0  0  0  0
 16 38  1  0  0  0  0
 16 39  1  0  0  0  0
 17 40  1  0  0  0  0
 17 41  1  0  0  0  0
 17 42  1  0  0  0  0
 18 43  1  0  0  0  0
 18 44  1  0  0  0  0
 18 45  1  0  0  0  0
 19 20  2  0  0  0  0
 20 46  1  0  0  0  0
 21 22  1  0  0  0  0
 21 47  1  0  0  0  0
 21 48  1  0  0  0  0
 22 23  1  0  0  0  0
 22 49  1  0  0  0  0
 23 50  1  0  0  0  0
 23 51  1  0  0  0  0
 23 52  1  0  0  0  0
M  CHG  1   3   1
M  END
> <s_m_source_file>
AV-unprocessed.smi

> <i_m_source_file_index>
2710

> <i_lp_mmshare_version>
43012

> <i_f3d_flags>
0

> <s_epik_input>
W0NIM11bQ0gyXU4xW0NIMl1bQ0gyXVtDQEhdKFtDSDJdW0NASF0xW0NIM10pW05IXUMoPU8pW05IXWMyW2NIXW5jKEMoW0NIM10pKFtDSDNdKVtDSDNdKW5bY0hdMg==

> <s_epik_cmdline>
J2VwaWtfcHl0aG9uJywgJy1waCcsICc3LjAnLCAnLXRuJywgJzgnLCAnLW1hJywgJzIwMCcsICctbWV0YWxfYmluZGluZycsICctaW1hZScsICc8aW5maWxlLm1hZT4nLCAnLW9tYWUnLCAnPG91dGZpbGUubWFlPic=

> <r_lp_tautomer_probability>
1

> <r_epik_Ionization_Penalty>
0.00396003

> <r_epik_Ionization_Penalty_Charging>
0.0039379

> <r_epik_Ionization_Penalty_Neutral>
2.21316e-05

> <r_epik_State_Penalty>
0.00281651

> <r_epik_Charging_Adjusted_Penalty>
0.00675441

> <i_epik_Tot_Q>
1

> <i_epik_Tot_abs_Q>
1

> <r_epik_Metal_State_Penalty>
-0

> <b_epik_Metal_Only>
0

> <s_lp_Force_Field>
OPLS_2005

> <r_lp_Energy>
20.1014

> <b_lp_Chiralities_Consistent>
1

> <s_lp_Variant>
AV-unprocessed.smi:2710-8

> <Gold.Version>
5.8.1

> <Gold.Id.Protein>
6NUR|6NUR_protein|mol2

> <Gold.PLP.Fitness>
43.6889

> <Gold.PLP.PLP>
-32.3612

> <Gold.PLP.part.hbond>
-3.0000

> <Gold.PLP.part.metal>
0.0000

> <Gold.PLP.part.buried>
-3.8422

> <Gold.PLP.part.nonpolar>
-25.5207

> <Gold.PLP.part.repulsive>
0.0923

> <Gold.PLP.ligand.clash>
0.0000

> <Gold.PLP.ligand.torsion>
0.3838

> <Gold.PLP.Chemscore.Hbond>
2.9763

> <Gold.PLP.Chemscore.CHOScore>
1.0000

> <Gold.PLP.Chemscore.Metal>
0.0000

> <Gold.Chemscore.Hbonds>
donor molecule, donor type, donor heavy atom, donor atom, acceptor molecule, acceptor atom, score
      L1  H     3    53       P1 10747  1.00
      L1  H     7    34       P1  7948  1.00
      L1  H    10    35       P1  7948  0.98
      L1  C    12    36       P1  7957  0.89

> <Gold.PLP.Chemscore.Internal.Correction>
0.1667

> <Gold.Rescore>
     Score         DG    S(hbond)    S(metal)    S(lipo)     H(rot)  DE(clash)    DE(int)     intcor
     18.18     -20.04       2.51        0.00      81.33       1.31       0.12       1.73       ----

> <Gold.Chemscore.Fitness>
18.1820

> <Gold.Chemscore.DG>
-20.0403

> <Gold.Chemscore.ZeroCoef>
-5.4800

> <Gold.Chemscore.Hbond>
2.5130

> <Gold.Chemscore.Metal>
0.0000

> <Gold.Chemscore.Lipo>
81.3306

> <Gold.Chemscore.Internal_Hbond>
0.0000

> <Gold.Chemscore.DEClash>
0.1247

> <Gold.Chemscore.DEInternal>
1.7336

> <Gold.Chemscore.Rot>
1.3081

> <Gold.Chemscore.Internal.Correction>
   9.000000E+99

> <Gold.Chemscore.Hbonds>
donor molecule, donor type, donor heavy atom, donor atom, acceptor molecule, acceptor atom, score
      L1  H     3    53       P1 10747  0.93
      L1  H     7    34       P1  7948  0.29
      L1  H    10    35       P1  7948  0.88

> <Gold.Chemscore.Hbond.Weighted>
-8.3934

> <Gold.Chemscore.Metal.Weighted>
-0.0000

> <Gold.Chemscore.Lipo.Weighted>
-9.5157

> <Gold.Chemscore.Internal_Hbond.Weighted>
0.0000

> <Gold.Chemscore.DEClash.Weighted>
0.1247

> <Gold.Chemscore.DEInternal.Weighted>
1.7336

> <Gold.Chemscore.Rot.Weighted>
3.3488

> <Gold.Chemscore.Internal.Correction.Weighted>
   9.000000E+99

> <Gold.Protein.RotatedTorsions>
[ 6907 6896 6895 6894 ] final  -56.03 input  -60.11 | X-H torsion
[ 7974 7965 7964 7962 ] final -170.19 input  175.53 | X-H torsion
[ 8008 7997 7996 7995 ] final  -45.26 input   59.86 | X-H torsion
[ 10167 10162 10161 10158 ] final   90.89 input  -65.29 | X-H torsion
[ 10718 10713 10712 10709 ] final -150.15 input   66.30 | X-H torsion
[ 10763 10752 10751 10750 ] final -105.55 input  -60.55 | X-H torsion
[ 11005 11000 10999 10996 ] final   38.38 input  -57.11 | X-H torsion

> <Gold.Protein.ActiveResidues>
 VAL166  LYS551  ARG553  GLY616  TRP617  ASP618  TYR619  PRO620  LYS621  CYS622 
 ASP623  PHE694  ASN695  SER759  ASP760  ASP761  ALA762  ILE779  LEU786  VAL792 
 PHE793  MET794  SER795  GLU796  ALA797  LYS798  CYS799  TRP800  GLU811  SER814 

> <Gold.Protein.RotatedAtoms>
  150.8202  134.7405  159.6765 H   0  0  0  0  0  0  0  0  0  0  0  0  # atno 6907 bound_to 6896
  152.4318  134.5760  159.9944 H   0  0  0  0  0  0  0  0  0  0  0  0  # atno 6908 bound_to 6896
  151.5946  133.3325  159.3070 H   0  0  0  0  0  0  0  0  0  0  0  0  # atno 6909 bound_to 6896
  144.7174  140.2108  143.6327 H   0  0  0  0  0  0  0  0  0  0  0  0  # atno 7974 bound_to 7965
  154.4000  140.1401  156.3819 H   0  0  0  0  0  0  0  0  0  0  0  0  # atno 8008 bound_to 7997
  155.7996  140.3476  155.5374 H   0  0  0  0  0  0  0  0  0  0  0  0  # atno 8009 bound_to 7997
  155.8497  140.0939  157.1673 H   0  0  0  0  0  0  0  0  0  0  0  0  # atno 8010 bound_to 7997
  139.8428  144.6632  150.9262 H   0  0  0  0  0  0  0  0  0  0  0  0  # atno 10167 bound_to 10162
  156.4424  130.8128  151.2358 H   0  0  0  0  0  0  0  0  0  0  0  0  # atno 10718 bound_to 10713
  154.7954  135.4745  154.0148 H   0  0  0  0  0  0  0  0  0  0  0  0  # atno 10763 bound_to 10752
  153.1695  135.6822  153.8635 H   0  0  0  0  0  0  0  0  0  0  0  0  # atno 10764 bound_to 10752
  153.8222  135.3202  155.3389 H   0  0  0  0  0  0  0  0  0  0  0  0  # atno 10765 bound_to 10752
  140.2132  134.3730  155.8039 H   0  0  0  0  0  0  0  0  0  0  0  0  # atno 11005 bound_to 11000
  145.8592  139.2214  143.1726 LP  0  0  0  0  0  0  0  0  0  0  0  0  # atno 17320 bound_to 7965
  146.0189  140.8366  142.9933 LP  0  0  0  0  0  0  0  0  0  0  0  0  # atno 17321 bound_to 7965
  140.7796  143.3897  151.1332 LP  0  0  0  0  0  0  0  0  0  0  0  0  # atno 17342 bound_to 10162
  139.7542  143.8733  152.3084 LP  0  0  0  0  0  0  0  0  0  0  0  0  # atno 17343 bound_to 10162
  157.7506  131.0164  150.3543 LP  0  0  0  0  0  0  0  0  0  0  0  0  # atno 17370 bound_to 10713
  156.3903  130.3897  149.7034 LP  0  0  0  0  0  0  0  0  0  0  0  0  # atno 17371 bound_to 10713
  141.2225  133.7154  156.8453 LP  0  0  0  0  0  0  0  0  0  0  0  0  # atno 17394 bound_to 11000
  140.1928  134.8953  157.3080 LP  0  0  0  0  0  0  0  0  0  0  0  0  # atno 17395 bound_to 11000

$$$$
