AV-unprocessed.smi:2252|AV-procd|sdf|9114|dock9
  -GOLD-   2272012323D 1   1.00000     0.00000
 Structure written by MMmdl.
 44 46  0  0  0  0  0  0  0  0  1 V2000
  151.2246  144.7054  159.4488 C   0  0  0  0  0  0  0  0  0  0  0  0
  151.7063  143.6219  160.2844 N   0  0  0  0  0  0  0  0  0  0  0  0
  151.9448  143.6879  161.6508 C   0  0  0  0  0  0  0  0  0  0  0  0
  152.3792  142.4422  162.0353 C   0  0  0  0  0  0  0  0  0  0  0  0
  152.4146  141.6029  160.9269 N   0  0  0  0  0  0  0  0  0  0  0  0
  152.0114  142.3632  159.9133 C   0  0  0  0  0  0  0  0  0  0  0  0
  151.8696  141.8689  158.5079 C   0  0  0  0  0  0  0  0  0  0  0  0
  151.2937  140.4449  158.4431 C   0  0  0  0  0  0  0  0  0  0  0  0
  150.7416  140.1540  157.1262 N   0  0  0  0  0  0  0  0  0  0  0  0
  151.4572  139.7423  156.0678 C   0  0  0  0  0  0  0  0  0  0  0  0
  152.6770  139.5749  156.1041 O   0  0  0  0  0  0  0  0  0  0  0  0
  150.6708  139.4437  154.7785 C   0  0  1  0  0  0  0  0  0  0  0  0
  150.6793  137.9248  154.4973 C   0  0  0  0  0  0  0  0  0  0  0  0
  149.7527  136.9919  155.2515 C   0  0  0  0  0  0  0  0  0  0  0  0
  151.2337  136.9488  155.5136 C   0  0  0  0  0  0  0  0  0  0  0  0
  149.2809  139.9626  154.8235 N   0  0  0  0  0  0  0  0  0  0  0  0
  149.1503  141.4156  154.7214 C   0  0  0  0  0  0  0  0  0  0  0  0
  147.6635  141.6335  154.4376 C   0  0  0  0  0  0  0  0  0  0  0  0
  147.1915  140.3270  153.8072 C   0  0  0  0  0  0  0  0  0  0  0  0
  148.4443  139.4541  153.7405 C   0  0  0  0  0  0  0  0  0  0  0  0
  150.9413  145.5591  160.0652 H   0  0  0  0  0  0  0  0  0  0  0  0
  150.3531  144.3787  158.8807 H   0  0  0  0  0  0  0  0  0  0  0  0
  152.0092  145.0135  158.7574 H   0  0  0  0  0  0  0  0  0  0  0  0
  151.7866  144.5905  162.2225 H   0  0  0  0  0  0  0  0  0  0  0  0
  152.6639  142.0881  163.0152 H   0  0  0  0  0  0  0  0  0  0  0  0
  151.2470  142.5628  157.9424 H   0  0  0  0  0  0  0  0  0  0  0  0
  152.8515  141.8911  158.0334 H   0  0  0  0  0  0  0  0  0  0  0  0
  152.0768  139.7161  158.6539 H   0  0  0  0  0  0  0  0  0  0  0  0
  150.5266  140.3055  159.2067 H   0  0  0  0  0  0  0  0  0  0  0  0
  149.7437  140.2594  157.0141 H   0  0  0  0  0  0  0  0  0  0  0  0
  151.1964  139.9455  153.9631 H   0  0  0  0  0  0  0  0  0  0  0  0
  150.8336  137.6711  153.4496 H   0  0  0  0  0  0  0  0  0  0  0  0
  149.1206  137.4171  156.0288 H   0  0  0  0  0  0  0  0  0  0  0  0
  149.3153  136.1649  154.6964 H   0  0  0  0  0  0  0  0  0  0  0  0
  151.7882  136.0933  155.1338 H   0  0  0  0  0  0  0  0  0  0  0  0
  151.5890  137.3500  156.4607 H   0  0  0  0  0  0  0  0  0  0  0  0
  149.4693  141.9321  155.6275 H   0  0  0  0  0  0  0  0  0  0  0  0
  149.7480  141.7873  153.8868 H   0  0  0  0  0  0  0  0  0  0  0  0
  147.1195  141.8195  155.3646 H   0  0  0  0  0  0  0  0  0  0  0  0
  147.5038  142.4898  153.7817 H   0  0  0  0  0  0  0  0  0  0  0  0
  146.4354  139.8593  154.4392 H   0  0  0  0  0  0  0  0  0  0  0  0
  146.7532  140.4775  152.8201 H   0  0  0  0  0  0  0  0  0  0  0  0
  148.9434  139.5908  152.7791 H   0  0  0  0  0  0  0  0  0  0  0  0
  148.2115  138.3952  153.8569 H   0  0  0  0  0  0  0  0  0  0  0  0
  1  2  1  0  0  0  0
  1 21  1  0  0  0  0
  1 22  1  0  0  0  0
  1 23  1  0  0  0  0
  2  6  1  0  0  0  0
  2  3  1  0  0  0  0
  3  4  2  0  0  0  0
  3 24  1  0  0  0  0
  4  5  1  0  0  0  0
  4 25  1  0  0  0  0
  5  6  2  0  0  0  0
  6  7  1  0  0  0  0
  7  8  1  0  0  0  0
  7 26  1  0  0  0  0
  7 27  1  0  0  0  0
  8  9  1  0  0  0  0
  8 28  1  0  0  0  0
  8 29  1  0  0  0  0
  9 10  1  0  0  0  0
  9 30  1  0  0  0  0
 10 11  2  0  0  0  0
 10 12  1  0  0  0  0
 12 13  1  0  0  0  0
 12 16  1  0  0  0  0
 12 31  1  0  0  0  0
 13 15  1  0  0  0  0
 13 14  1  0  0  0  0
 13 32  1  0  0  0  0
 14 15  1  0  0  0  0
 14 33  1  0  0  0  0
 14 34  1  0  0  0  0
 15 35  1  0  0  0  0
 15 36  1  0  0  0  0
 16 20  1  0  0  0  0
 16 17  1  0  0  0  0
 17 18  1  0  0  0  0
 17 37  1  0  0  0  0
 17 38  1  0  0  0  0
 18 19  1  0  0  0  0
 18 39  1  0  0  0  0
 18 40  1  0  0  0  0
 19 20  1  0  0  0  0
 19 41  1  0  0  0  0
 19 42  1  0  0  0  0
 20 43  1  0  0  0  0
 20 44  1  0  0  0  0
M  END
> <s_m_source_file>
AV-unprocessed.smi

> <i_m_source_file_index>
2252

> <i_lp_mmshare_version>
43012

> <i_f3d_flags>
0

> <s_epik_input>
W0NIM11uMVtjSF1bY0hdbmMxW0NIMl1bQ0gyXVtOSF1DKD1PKVtDQEhdKFtDSF0yW0NIMl1bQ0gyXTIpTjNbQ0gyXVtDSDJdW0NIMl1bQ0gyXTM=

> <s_epik_cmdline>
J2VwaWtfcHl0aG9uJywgJy1waCcsICc3LjAnLCAnLXRuJywgJzgnLCAnLW1hJywgJzIwMCcsICctbWV0YWxfYmluZGluZycsICctaW1hZScsICc8aW5maWxlLm1hZT4nLCAnLW9tYWUnLCAnPG91dGZpbGUubWFlPic=

> <r_epik_Ionization_Penalty>
3.7689

> <r_epik_Ionization_Penalty_Charging>
1.29411

> <r_epik_Ionization_Penalty_Neutral>
2.4748

> <r_epik_State_Penalty>
3.85943

> <r_epik_Charging_Adjusted_Penalty>
5.15353

> <i_epik_Tot_Q>
0

> <i_epik_Tot_abs_Q>
0

> <r_epik_Metal_State_Penalty>
2.88358

> <b_epik_Metal_Only>
1

> <s_lp_Force_Field>
OPLS_2005

> <r_lp_Energy>
29.995

> <b_lp_Chiralities_Consistent>
1

> <s_lp_Variant>
AV-unprocessed.smi:2252-12

> <Gold.Version>
5.8.1

> <Gold.Id.Protein>
6NUR|6NUR_protein|mol2

> <Gold.PLP.Fitness>
46.1808

> <Gold.PLP.PLP>
-45.5974

> <Gold.PLP.part.hbond>
-1.0000

> <Gold.PLP.part.metal>
0.0000

> <Gold.PLP.part.buried>
-4.3646

> <Gold.PLP.part.nonpolar>
-39.8194

> <Gold.PLP.part.repulsive>
0.1399

> <Gold.PLP.ligand.clash>
0.0000

> <Gold.PLP.ligand.torsion>
1.7958

> <Gold.PLP.Chemscore.Hbond>
1.0000

> <Gold.PLP.Chemscore.CHOScore>
0.0000

> <Gold.PLP.Chemscore.Metal>
0.0000

> <Gold.Chemscore.Hbonds>
donor molecule, donor type, donor heavy atom, donor atom, acceptor molecule, acceptor atom, score
      P1  H  7997  8010       L1    11  1.00

> <Gold.PLP.Chemscore.Internal.Correction>
1.1750

> <Gold.Rescore>
     Score         DG    S(hbond)    S(metal)    S(lipo)     H(rot)  DE(clash)    DE(int)     intcor
     13.92     -15.77       1.00        0.00     100.14       1.86       0.08       1.78       ----

> <Gold.Chemscore.Fitness>
13.9153

> <Gold.Chemscore.DG>
-15.7684

> <Gold.Chemscore.ZeroCoef>
-5.4800

> <Gold.Chemscore.Hbond>
0.9997

> <Gold.Chemscore.Metal>
0.0000

> <Gold.Chemscore.Lipo>
100.1359

> <Gold.Chemscore.Internal_Hbond>
0.0000

> <Gold.Chemscore.DEClash>
0.0760

> <Gold.Chemscore.DEInternal>
1.7771

> <Gold.Chemscore.Rot>
1.8619

> <Gold.Chemscore.Internal.Correction>
   9.000000E+99

> <Gold.Chemscore.Hbonds>
donor molecule, donor type, donor heavy atom, donor atom, acceptor molecule, acceptor atom, score
      P1  H  7997  8010       L1    11  1.00

> <Gold.Chemscore.Hbond.Weighted>
-3.3391

> <Gold.Chemscore.Metal.Weighted>
-0.0000

> <Gold.Chemscore.Lipo.Weighted>
-11.7159

> <Gold.Chemscore.Internal_Hbond.Weighted>
0.0000

> <Gold.Chemscore.DEClash.Weighted>
0.0760

> <Gold.Chemscore.DEInternal.Weighted>
1.7771

> <Gold.Chemscore.Rot.Weighted>
4.7665

> <Gold.Chemscore.Internal.Correction.Weighted>
   9.000000E+99

> <Gold.Protein.RotatedTorsions>
[ 6907 6896 6895 6894 ] final -135.24 input  -60.11 | X-H torsion
[ 7974 7965 7964 7962 ] final   74.06 input  175.53 | X-H torsion
[ 8008 7997 7996 7995 ] final   85.45 input   59.86 | X-H torsion
[ 10167 10162 10161 10158 ] final  -22.74 input  -65.29 | X-H torsion
[ 10718 10713 10712 10709 ] final   75.12 input   66.30 | X-H torsion
[ 10763 10752 10751 10750 ] final  -37.27 input  -60.55 | X-H torsion
[ 11005 11000 10999 10996 ] final   46.72 input  -57.11 | X-H torsion

> <Gold.Protein.ActiveResidues>
 VAL166  LYS551  ARG553  GLY616  TRP617  ASP618  TYR619  PRO620  LYS621  CYS622 
 ASP623  PHE694  ASN695  SER759  ASP760  ASP761  ALA762  ILE779  LEU786  VAL792 
 PHE793  MET794  SER795  GLU796  ALA797  LYS798  CYS799  TRP800  GLU811  SER814 

> <Gold.Protein.RotatedAtoms>
  150.9954  133.6108  159.2702 H   0  0  0  0  0  0  0  0  0  0  0  0  # atno 6907 bound_to 6896
  151.3313  135.0841  159.9349 H   0  0  0  0  0  0  0  0  0  0  0  0  # atno 6908 bound_to 6896
  152.5258  133.9583  159.7759 H   0  0  0  0  0  0  0  0  0  0  0  0  # atno 6909 bound_to 6896
  145.7330  139.2691  143.1530 H   0  0  0  0  0  0  0  0  0  0  0  0  # atno 7974 bound_to 7965
  155.9501  140.3401  155.6400 H   0  0  0  0  0  0  0  0  0  0  0  0  # atno 8008 bound_to 7997
  155.6931  140.0751  157.2459 H   0  0  0  0  0  0  0  0  0  0  0  0  # atno 8009 bound_to 7997
  154.4120  140.1653  156.2095 H   0  0  0  0  0  0  0  0  0  0  0  0  # atno 8010 bound_to 7997
  140.7286  143.4507  151.0521 H   0  0  0  0  0  0  0  0  0  0  0  0  # atno 10167 bound_to 10162
  157.6621  130.9711  150.1308 H   0  0  0  0  0  0  0  0  0  0  0  0  # atno 10718 bound_to 10713
  153.8936  135.6809  153.4759 H   0  0  0  0  0  0  0  0  0  0  0  0  # atno 10763 bound_to 10752
  153.1168  135.4758  154.9126 H   0  0  0  0  0  0  0  0  0  0  0  0  # atno 10764 bound_to 10752
  154.7610  135.3211  154.8331 H   0  0  0  0  0  0  0  0  0  0  0  0  # atno 10765 bound_to 10752
  140.1343  134.4665  155.8497 H   0  0  0  0  0  0  0  0  0  0  0  0  # atno 11005 bound_to 11000
  146.0519  140.8060  142.9777 LP  0  0  0  0  0  0  0  0  0  0  0  0  # atno 17320 bound_to 7965
  144.6888  140.3066  143.7255 LP  0  0  0  0  0  0  0  0  0  0  0  0  # atno 17321 bound_to 7965
  139.8183  143.7856  152.3175 LP  0  0  0  0  0  0  0  0  0  0  0  0  # atno 17342 bound_to 10162
  139.7929  144.7403  150.9930 LP  0  0  0  0  0  0  0  0  0  0  0  0  # atno 17343 bound_to 10162
  156.2155  130.3670  149.8618 LP  0  0  0  0  0  0  0  0  0  0  0  0  # atno 17370 bound_to 10713
  156.6485  130.8734  151.3527 LP  0  0  0  0  0  0  0  0  0  0  0  0  # atno 17371 bound_to 10713
  141.2175  133.6808  156.7128 LP  0  0  0  0  0  0  0  0  0  0  0  0  # atno 17394 bound_to 11000
  140.2802  134.8323  157.3926 LP  0  0  0  0  0  0  0  0  0  0  0  0  # atno 17395 bound_to 11000

$$$$
