AV-unprocessed.smi:248|AV-procd|sdf|1897|dock4
  -GOLD-   2262020563D 1   1.00000     0.00000
 Structure written by MMmdl.
 62 65  0  0  0  0  0  0  0  0  1 V2000
  153.1897  142.9877  159.3206 C   0  0  0  0  0  0  0  0  0  0  0  0
  152.9666  141.6108  159.9643 C   0  0  0  0  0  0  0  0  0  0  0  0
  154.0487  141.3338  161.0225 C   0  0  0  0  0  0  0  0  0  0  0  0
  152.8687  140.5161  158.8755 C   0  0  0  0  0  0  0  0  0  0  0  0
  151.7649  140.7362  157.9267 N   0  0  0  0  0  0  0  0  0  0  0  0
  150.6828  141.5922  158.4329 C   0  0  0  0  0  0  0  0  0  0  0  0
  149.8585  142.2356  157.3139 C   0  0  0  0  0  0  0  0  0  0  0  0
  149.4736  141.2157  156.3491 N   0  0  0  0  0  0  0  0  0  0  0  0
  148.5128  141.6338  155.4925 C   0  0  0  0  0  0  0  0  0  0  0  0
  148.6471  141.4089  154.1589 N   0  0  0  0  0  0  0  0  0  0  0  0
  147.6920  141.8126  153.3159 C   0  0  0  0  0  0  0  0  0  0  0  0
  146.5450  142.4382  153.5908 N   0  0  0  0  0  0  0  0  0  0  0  0
  146.4078  142.6579  154.9307 C   0  0  0  0  0  0  0  0  0  0  0  0
  147.3420  142.2990  155.9409 C   0  0  0  0  0  0  0  0  0  0  0  0
  146.8748  142.6937  157.1873 N   0  0  0  0  0  0  0  0  0  0  0  0
  145.7238  143.2519  156.9286 C   0  0  0  0  0  0  0  0  0  0  0  0
  145.3523  143.2523  155.6016 N   0  0  0  0  0  0  0  0  0  0  0  0
  144.1300  143.8062  155.0332 C   0  0  0  0  0  0  0  0  0  0  0  0
  144.1048  145.3522  154.8063 C   0  0  0  0  0  0  0  0  0  0  0  0
  145.1680  145.5893  153.6917 C   0  0  0  0  0  0  0  0  0  0  0  0
  144.7510  145.3191  152.3718 O   0  0  0  0  0  0  0  0  0  0  0  0
  142.6874  145.8160  154.3695 C   0  0  0  0  0  0  0  0  0  0  0  0
  142.4743  147.3392  154.4470 C   0  0  0  0  0  0  0  0  0  0  0  0
  142.7837  147.8068  155.7534 O   0  0  0  0  0  0  0  0  0  0  0  0
  144.1453  147.5998  156.1052 C   0  0  0  0  0  0  0  0  0  0  0  0
  144.4642  146.0926  156.1243 C   0  0  0  0  0  0  0  0  0  0  0  0
  150.5811  140.4805  155.7222 C   0  0  2  0  0  0  0  0  0  0  0  0
  150.0725  139.1716  155.0755 C   0  0  0  0  0  0  0  0  0  0  0  0
  151.7650  140.1988  156.6796 C   0  0  0  0  0  0  0  0  0  0  0  0
  152.6936  139.5023  156.2664 O   0  0  0  0  0  0  0  0  0  0  0  0
  154.1418  143.0267  158.7901 H   0  0  0  0  0  0  0  0  0  0  0  0
  153.1946  143.7779  160.0718 H   0  0  0  0  0  0  0  0  0  0  0  0
  152.4005  143.2214  158.6053 H   0  0  0  0  0  0  0  0  0  0  0  0
  152.0078  141.6522  160.4826 H   0  0  0  0  0  0  0  0  0  0  0  0
  155.0308  141.2192  160.5627 H   0  0  0  0  0  0  0  0  0  0  0  0
  153.8349  140.4277  161.5891 H   0  0  0  0  0  0  0  0  0  0  0  0
  154.1121  142.1510  161.7416 H   0  0  0  0  0  0  0  0  0  0  0  0
  153.8091  140.4713  158.3249 H   0  0  0  0  0  0  0  0  0  0  0  0
  152.7854  139.5365  159.3491 H   0  0  0  0  0  0  0  0  0  0  0  0
  150.0307  140.9736  159.0508 H   0  0  0  0  0  0  0  0  0  0  0  0
  151.0732  142.3766  159.0821 H   0  0  0  0  0  0  0  0  0  0  0  0
  148.9776  142.7228  157.7356 H   0  0  0  0  0  0  0  0  0  0  0  0
  150.4486  143.0094  156.8190 H   0  0  0  0  0  0  0  0  0  0  0  0
  147.8712  141.6015  152.2718 H   0  0  0  0  0  0  0  0  0  0  0  0
  145.1046  143.6736  157.7071 H   0  0  0  0  0  0  0  0  0  0  0  0
  143.9478  143.2908  154.0891 H   0  0  0  0  0  0  0  0  0  0  0  0
  143.3078  143.5151  155.6886 H   0  0  0  0  0  0  0  0  0  0  0  0
  145.5073  146.6255  153.7142 H   0  0  0  0  0  0  0  0  0  0  0  0
  146.0496  144.9756  153.8807 H   0  0  0  0  0  0  0  0  0  0  0  0
  143.9234  144.8638  152.4048 H   0  0  0  0  0  0  0  0  0  0  0  0
  142.4589  145.4530  153.3671 H   0  0  0  0  0  0  0  0  0  0  0  0
  141.9355  145.3817  155.0257 H   0  0  0  0  0  0  0  0  0  0  0  0
  143.0555  147.8783  153.7003 H   0  0  0  0  0  0  0  0  0  0  0  0
  141.4292  147.5709  154.2404 H   0  0  0  0  0  0  0  0  0  0  0  0
  144.8004  148.1541  155.4350 H   0  0  0  0  0  0  0  0  0  0  0  0
  144.3080  148.0180  157.0985 H   0  0  0  0  0  0  0  0  0  0  0  0
  143.8896  145.6784  156.9504 H   0  0  0  0  0  0  0  0  0  0  0  0
  145.5127  145.9330  156.3778 H   0  0  0  0  0  0  0  0  0  0  0  0
  150.9917  141.1078  154.9292 H   0  0  0  0  0  0  0  0  0  0  0  0
  150.8831  138.6042  154.6170 H   0  0  0  0  0  0  0  0  0  0  0  0
  149.3487  139.3643  154.2835 H   0  0  0  0  0  0  0  0  0  0  0  0
  149.5941  138.5271  155.8141 H   0  0  0  0  0  0  0  0  0  0  0  0
  1  2  1  0  0  0  0
  1 31  1  0  0  0  0
  1 32  1  0  0  0  0
  1 33  1  0  0  0  0
  2  3  1  0  0  0  0
  2  4  1  0  0  0  0
  2 34  1  0  0  0  0
  3 35  1  0  0  0  0
  3 36  1  0  0  0  0
  3 37  1  0  0  0  0
  4  5  1  0  0  0  0
  4 38  1  0  0  0  0
  4 39  1  0  0  0  0
  5 29  1  0  0  0  0
  5  6  1  0  0  0  0
  6  7  1  0  0  0  0
  6 40  1  0  0  0  0
  6 41  1  0  0  0  0
  7  8  1  0  0  0  0
  7 42  1  0  0  0  0
  7 43  1  0  0  0  0
  8  9  1  0  0  0  0
  8 27  1  0  0  0  0
  9 14  1  0  0  0  0
  9 10  2  0  0  0  0
 10 11  1  0  0  0  0
 11 12  2  0  0  0  0
 11 44  1  0  0  0  0
 12 13  1  0  0  0  0
 13 17  1  0  0  0  0
 13 14  2  0  0  0  0
 14 15  1  0  0  0  0
 15 16  2  0  0  0  0
 16 17  1  0  0  0  0
 16 45  1  0  0  0  0
 17 18  1  0  0  0  0
 18 19  1  0  0  0  0
 18 46  1  0  0  0  0
 18 47  1  0  0  0  0
 19 26  1  0  0  0  0
 19 20  1  0  0  0  0
 19 22  1  0  0  0  0
 20 21  1  0  0  0  0
 20 48  1  0  0  0  0
 20 49  1  0  0  0  0
 21 50  1  0  0  0  0
 22 23  1  0  0  0  0
 22 51  1  0  0  0  0
 22 52  1  0  0  0  0
 23 24  1  0  0  0  0
 23 53  1  0  0  0  0
 23 54  1  0  0  0  0
 24 25  1  0  0  0  0
 25 26  1  0  0  0  0
 25 55  1  0  0  0  0
 25 56  1  0  0  0  0
 26 57  1  0  0  0  0
 26 58  1  0  0  0  0
 27 28  1  0  0  0  0
 27 29  1  0  0  0  0
 27 59  1  0  0  0  0
 28 60  1  0  0  0  0
 28 61  1  0  0  0  0
 28 62  1  0  0  0  0
 29 30  2  0  0  0  0
M  END
> <s_m_source_file>
AV-unprocessed.smi

> <i_m_source_file_index>
248

> <i_lp_mmshare_version>
43012

> <i_f3d_flags>
0

> <s_epik_input>
W0NIM11bQ0hdKFtDSDNdKVtDSDJdTjFbQ0gyXVtDSDJdTihbQ0BASF0oW0NIM10pQzE9TyljKG5bY0hdbjIpYyhjMjMpbltjSF1uM1tDSDJdQzQoW0NIMl1bT0hdKVtDSDJdW0NIMl1PW0NIMl1bQ0gyXTQ=

> <s_epik_cmdline>
J2VwaWtfcHl0aG9uJywgJy1waCcsICc3LjAnLCAnLXRuJywgJzgnLCAnLW1hJywgJzIwMCcsICctbWV0YWxfYmluZGluZycsICctaW1hZScsICc8aW5maWxlLm1hZT4nLCAnLW9tYWUnLCAnPG91dGZpbGUubWFlPic=

> <r_lp_tautomer_probability>
1

> <r_epik_Ionization_Penalty>
0.000593973

> <r_epik_Ionization_Penalty_Charging>
0

> <r_epik_Ionization_Penalty_Neutral>
0.000593973

> <r_epik_State_Penalty>
0.000283267

> <r_epik_Charging_Adjusted_Penalty>
0.000283267

> <i_epik_Tot_Q>
0

> <i_epik_Tot_abs_Q>
0

> <r_epik_Metal_State_Penalty>
-0

> <b_epik_Metal_Only>
0

> <s_lp_Force_Field>
OPLS_2005

> <r_lp_Energy>
47.3368

> <b_lp_Chiralities_Consistent>
1

> <s_lp_Variant>
AV-unprocessed.smi:248-2

> <Gold.Version>
5.8.1

> <Gold.Id.Protein>
6NUR|6NUR_protein|mol2

> <Gold.PLP.Fitness>
56.1789

> <Gold.PLP.PLP>
-48.9673

> <Gold.PLP.part.hbond>
-3.0000

> <Gold.PLP.part.metal>
0.0000

> <Gold.PLP.part.buried>
-7.3975

> <Gold.PLP.part.nonpolar>
-40.1048

> <Gold.PLP.part.repulsive>
0.5776

> <Gold.PLP.ligand.clash>
0.0081

> <Gold.PLP.ligand.torsion>
1.0813

> <Gold.PLP.Chemscore.Hbond>
2.0000

> <Gold.PLP.Chemscore.CHOScore>
1.0000

> <Gold.PLP.Chemscore.Metal>
0.0000

> <Gold.Chemscore.Hbonds>
donor molecule, donor type, donor heavy atom, donor atom, acceptor molecule, acceptor atom, score
      P1  H  7997  8009       L1    30  1.00
      L1  C    11    44       P1  7957  0.93

> <Gold.PLP.Chemscore.Internal.Correction>
0.3823

> <Gold.Rescore>
     Score         DG    S(hbond)    S(metal)    S(lipo)     H(rot)  DE(clash)    DE(int)     intcor
     11.90     -17.43       1.95        0.00     106.60       2.75       3.51       2.01       ----

> <Gold.Chemscore.Fitness>
11.9005

> <Gold.Chemscore.DG>
-17.4279

> <Gold.Chemscore.ZeroCoef>
-5.4800

> <Gold.Chemscore.Hbond>
1.9525

> <Gold.Chemscore.Metal>
0.0000

> <Gold.Chemscore.Lipo>
106.6018

> <Gold.Chemscore.Internal_Hbond>
0.0000

> <Gold.Chemscore.DEClash>
3.5127

> <Gold.Chemscore.DEInternal>
2.0147

> <Gold.Chemscore.Rot>
2.7523

> <Gold.Chemscore.Internal.Correction>
   9.000000E+99

> <Gold.Chemscore.Hbonds>
donor molecule, donor type, donor heavy atom, donor atom, acceptor molecule, acceptor atom, score
      P1  H  7997  8009       L1    30  0.97

> <Gold.Chemscore.Hbond.Weighted>
-6.5214

> <Gold.Chemscore.Metal.Weighted>
-0.0000

> <Gold.Chemscore.Lipo.Weighted>
-12.4724

> <Gold.Chemscore.Internal_Hbond.Weighted>
0.0000

> <Gold.Chemscore.DEClash.Weighted>
3.5127

> <Gold.Chemscore.DEInternal.Weighted>
2.0147

> <Gold.Chemscore.Rot.Weighted>
7.0459

> <Gold.Chemscore.Internal.Correction.Weighted>
   9.000000E+99

> <Gold.Protein.RotatedTorsions>
[ 6907 6896 6895 6894 ] final  125.29 input  -60.11 | X-H torsion
[ 7974 7965 7964 7962 ] final  -89.10 input  175.53 | X-H torsion
[ 8008 7997 7996 7995 ] final -146.51 input   59.86 | X-H torsion
[ 10167 10162 10161 10158 ] final  -81.73 input  -65.29 | X-H torsion
[ 10718 10713 10712 10709 ] final  -53.71 input   66.30 | X-H torsion
[ 10763 10752 10751 10750 ] final -148.77 input  -60.55 | X-H torsion
[ 11005 11000 10999 10996 ] final -133.90 input  -57.11 | X-H torsion

> <Gold.Protein.ActiveResidues>
 VAL166  LYS551  ARG553  GLY616  TRP617  ASP618  TYR619  PRO620  LYS621  CYS622 
 ASP623  PHE694  ASN695  SER759  ASP760  ASP761  ALA762  ILE779  LEU786  VAL792 
 PHE793  MET794  SER795  GLU796  ALA797  LYS798  CYS799  TRP800  GLU811  SER814 

> <Gold.Protein.RotatedAtoms>
  152.4005  133.6810  159.6312 H   0  0  0  0  0  0  0  0  0  0  0  0  # atno 6907 bound_to 6896
  150.7897  133.8799  159.3292 H   0  0  0  0  0  0  0  0  0  0  0  0  # atno 6908 bound_to 6896
  151.6566  135.0996  160.0222 H   0  0  0  0  0  0  0  0  0  0  0  0  # atno 6909 bound_to 6896
  145.4443  140.9559  143.2057 H   0  0  0  0  0  0  0  0  0  0  0  0  # atno 7974 bound_to 7965
  155.5606  140.0625  157.2829 H   0  0  0  0  0  0  0  0  0  0  0  0  # atno 8008 bound_to 7997
  154.4391  140.1886  156.0824 H   0  0  0  0  0  0  0  0  0  0  0  0  # atno 8009 bound_to 7997
  156.0449  140.3291  155.7289 H   0  0  0  0  0  0  0  0  0  0  0  0  # atno 8010 bound_to 7997
  140.4385  143.2523  151.8659 H   0  0  0  0  0  0  0  0  0  0  0  0  # atno 10167 bound_to 10162
  156.1512  130.4151  149.9942 H   0  0  0  0  0  0  0  0  0  0  0  0  # atno 10718 bound_to 10713
  154.8215  135.3326  154.7025 H   0  0  0  0  0  0  0  0  0  0  0  0  # atno 10763 bound_to 10752
  153.7657  135.6929  153.4921 H   0  0  0  0  0  0  0  0  0  0  0  0  # atno 10764 bound_to 10752
  153.2079  135.4492  155.0294 H   0  0  0  0  0  0  0  0  0  0  0  0  # atno 10765 bound_to 10752
  140.9039  134.1655  157.4440 H   0  0  0  0  0  0  0  0  0  0  0  0  # atno 11005 bound_to 11000
  144.8101  139.5977  143.7033 LP  0  0  0  0  0  0  0  0  0  0  0  0  # atno 17320 bound_to 7965
  146.2539  139.6259  142.9408 LP  0  0  0  0  0  0  0  0  0  0  0  0  # atno 17321 bound_to 7965
  139.4788  144.5255  151.8741 LP  0  0  0  0  0  0  0  0  0  0  0  0  # atno 17342 bound_to 10162
  140.4346  144.2070  150.5889 LP  0  0  0  0  0  0  0  0  0  0  0  0  # atno 17343 bound_to 10162
  156.7800  130.9217  151.3646 LP  0  0  0  0  0  0  0  0  0  0  0  0  # atno 17370 bound_to 10713
  157.6658  130.9006  149.9929 LP  0  0  0  0  0  0  0  0  0  0  0  0  # atno 17371 bound_to 10713
  139.8746  134.9909  156.5523 LP  0  0  0  0  0  0  0  0  0  0  0  0  # atno 17394 bound_to 11000
  140.8196  133.8364  155.8883 LP  0  0  0  0  0  0  0  0  0  0  0  0  # atno 17395 bound_to 11000

$$$$
