AV-unprocessed.smi:1864|AV-procd|sdf|7552|dock4
  -GOLD-   22720 9263D 1   1.00000     0.00000
 Structure written by MMmdl.
 34 35  0  0  0  0  0  0  0  0  1 V2000
  146.4158  142.5849  153.7994 C   0  0  0  0  0  0  0  0  0  0  0  0
  147.5184  141.7928  154.4139 C   0  0  0  0  0  0  0  0  0  0  0  0
  147.4145  141.3177  155.6488 N   0  0  0  0  0  0  0  0  0  0  0  0
  148.6291  140.6429  155.8386 O   0  0  0  0  0  0  0  0  0  0  0  0
  149.3289  140.8113  154.6909 C   0  0  0  0  0  0  0  0  0  0  0  0
  150.6648  140.1601  154.5582 C   0  0  0  0  0  0  0  0  0  0  0  0
  151.1635  139.5731  155.8882 C   0  0  0  0  0  0  0  0  0  0  0  0
  151.3422  140.6070  156.9012 N   0  0  0  0  0  0  0  0  0  0  0  0
  152.3088  140.6157  157.8372 C   0  0  0  0  0  0  0  0  0  0  0  0
  153.1532  139.7248  157.9346 O   0  0  0  0  0  0  0  0  0  0  0  0
  152.3073  141.7778  158.7661 C   0  0  0  0  0  0  0  0  0  0  0  0
  152.6210  141.6128  160.0132 N   0  0  0  0  0  0  0  0  0  0  0  0
  152.6439  142.6635  160.9078 N   0  0  0  0  0  0  0  0  0  0  0  0
  153.2742  142.3625  162.1918 C   0  0  0  0  0  0  0  0  0  0  0  0
  152.1067  143.8871  160.6746 C   0  0  0  0  0  0  0  0  0  0  0  0
  152.1450  144.8164  161.4809 O   0  0  0  0  0  0  0  0  0  0  0  0
  151.3927  144.0741  159.3328 C   0  0  0  0  0  0  0  0  0  0  0  0
  151.9647  143.1554  158.2345 C   0  0  0  0  0  0  0  0  0  0  0  0
  148.6778  141.5054  153.7605 N   0  0  0  0  0  0  0  0  0  0  0  0
  146.2225  143.4824  154.3872 H   0  0  0  0  0  0  0  0  0  0  0  0
  145.5020  141.9917  153.7587 H   0  0  0  0  0  0  0  0  0  0  0  0
  146.6762  142.8869  152.7845 H   0  0  0  0  0  0  0  0  0  0  0  0
  150.5962  139.3756  153.8035 H   0  0  0  0  0  0  0  0  0  0  0  0
  151.3717  140.8986  154.1782 H   0  0  0  0  0  0  0  0  0  0  0  0
  150.4747  138.8083  156.2514 H   0  0  0  0  0  0  0  0  0  0  0  0
  152.1241  139.0794  155.7379 H   0  0  0  0  0  0  0  0  0  0  0  0
  150.6886  141.3770  156.8899 H   0  0  0  0  0  0  0  0  0  0  0  0
  154.1128  143.0358  162.3758 H   0  0  0  0  0  0  0  0  0  0  0  0
  153.6578  141.3414  162.2304 H   0  0  0  0  0  0  0  0  0  0  0  0
  152.5585  142.4758  163.0075 H   0  0  0  0  0  0  0  0  0  0  0  0
  150.3377  143.8462  159.4894 H   0  0  0  0  0  0  0  0  0  0  0  0
  151.4462  145.1176  159.0206 H   0  0  0  0  0  0  0  0  0  0  0  0
  152.8588  143.6055  157.8016 H   0  0  0  0  0  0  0  0  0  0  0  0
  151.2338  143.0863  157.4279 H   0  0  0  0  0  0  0  0  0  0  0  0
  1  2  1  0  0  0  0
  1 20  1  0  0  0  0
  1 21  1  0  0  0  0
  1 22  1  0  0  0  0
  2 19  1  0  0  0  0
  2  3  2  0  0  0  0
  3  4  1  0  0  0  0
  4  5  1  0  0  0  0
  5  6  1  0  0  0  0
  5 19  2  0  0  0  0
  6  7  1  0  0  0  0
  6 23  1  0  0  0  0
  6 24  1  0  0  0  0
  7  8  1  0  0  0  0
  7 25  1  0  0  0  0
  7 26  1  0  0  0  0
  8  9  1  0  0  0  0
  8 27  1  0  0  0  0
  9 10  2  0  0  0  0
  9 11  1  0  0  0  0
 11 18  1  0  0  0  0
 11 12  2  0  0  0  0
 12 13  1  0  0  0  0
 13 14  1  0  0  0  0
 13 15  1  0  0  0  0
 14 28  1  0  0  0  0
 14 29  1  0  0  0  0
 14 30  1  0  0  0  0
 15 16  2  0  0  0  0
 15 17  1  0  0  0  0
 17 18  1  0  0  0  0
 17 31  1  0  0  0  0
 17 32  1  0  0  0  0
 18 33  1  0  0  0  0
 18 34  1  0  0  0  0
M  END
> <s_m_source_file>
AV-unprocessed.smi

> <i_m_source_file_index>
1864

> <i_lp_mmshare_version>
43012

> <i_f3d_flags>
0

> <s_epik_input>
W0NIM11jMW5vYyhuMSlbQ0gyXVtDSDJdW05IXUMoPU8pQzI9Tk4oW0NIM10pQyg9TylbQ0gyXVtDSDJdMg==

> <s_epik_cmdline>
J2VwaWtfcHl0aG9uJywgJy1waCcsICc3LjAnLCAnLXRuJywgJzgnLCAnLW1hJywgJzIwMCcsICctbWV0YWxfYmluZGluZycsICctaW1hZScsICc8aW5maWxlLm1hZT4nLCAnLW9tYWUnLCAnPG91dGZpbGUubWFlPic=

> <r_lp_tautomer_probability>
1

> <r_epik_Ionization_Penalty>
0.00011851

> <r_epik_Ionization_Penalty_Charging>
0

> <r_epik_Ionization_Penalty_Neutral>
0.00011851

> <r_epik_State_Penalty>
-0

> <r_epik_Charging_Adjusted_Penalty>
0

> <i_epik_Tot_Q>
0

> <i_epik_Tot_abs_Q>
0

> <r_epik_Metal_State_Penalty>
0.091363

> <b_epik_Metal_Only>
0

> <s_epik_Chemistry_Notes>
This compound has an imine and may undergo hydrolysis.

> <s_lp_Force_Field>
OPLS_2005

> <r_lp_Energy>
12.468

> <b_lp_Chiralities_Consistent>
1

> <s_lp_Variant>
AV-unprocessed.smi:1864-1

> <Gold.Version>
5.8.1

> <Gold.Id.Protein>
6NUR|6NUR_protein|mol2

> <Gold.PLP.Fitness>
39.3662

> <Gold.PLP.PLP>
-36.1206

> <Gold.PLP.part.hbond>
-2.0000

> <Gold.PLP.part.metal>
0.0000

> <Gold.PLP.part.buried>
-1.0004

> <Gold.PLP.part.nonpolar>
-33.4371

> <Gold.PLP.part.repulsive>
1.7440

> <Gold.PLP.ligand.clash>
0.0000

> <Gold.PLP.ligand.torsion>
0.7962

> <Gold.PLP.Chemscore.Hbond>
1.6080

> <Gold.PLP.Chemscore.CHOScore>
0.0000

> <Gold.PLP.Chemscore.Metal>
0.0000

> <Gold.Chemscore.Hbonds>
donor molecule, donor type, donor heavy atom, donor atom, acceptor molecule, acceptor atom, score
      P1  H  7997  8009       L1    10  1.00
      P1  H  8011  8017       L1    19  0.70

> <Gold.PLP.Chemscore.Internal.Correction>
0.0138

> <Gold.Rescore>
     Score         DG    S(hbond)    S(metal)    S(lipo)     H(rot)  DE(clash)    DE(int)     intcor
     10.59     -12.95       1.39        0.00      63.66       1.80       1.66       0.70       ----

> <Gold.Chemscore.Fitness>
10.5929

> <Gold.Chemscore.DG>
-12.9525

> <Gold.Chemscore.ZeroCoef>
-5.4800

> <Gold.Chemscore.Hbond>
1.3895

> <Gold.Chemscore.Metal>
0.0000

> <Gold.Chemscore.Lipo>
63.6591

> <Gold.Chemscore.Internal_Hbond>
0.0000

> <Gold.Chemscore.DEClash>
1.6596

> <Gold.Chemscore.DEInternal>
0.7000

> <Gold.Chemscore.Rot>
1.8034

> <Gold.Chemscore.Internal.Correction>
   9.000000E+99

> <Gold.Chemscore.Hbonds>
donor molecule, donor type, donor heavy atom, donor atom, acceptor molecule, acceptor atom, score
      P1  H  7997  8009       L1    10  0.89
      P1  H  8011  8017       L1    19  0.63

> <Gold.Chemscore.Hbond.Weighted>
-4.6411

> <Gold.Chemscore.Metal.Weighted>
-0.0000

> <Gold.Chemscore.Lipo.Weighted>
-7.4481

> <Gold.Chemscore.Internal_Hbond.Weighted>
0.0000

> <Gold.Chemscore.DEClash.Weighted>
1.6596

> <Gold.Chemscore.DEInternal.Weighted>
0.7000

> <Gold.Chemscore.Rot.Weighted>
4.6167

> <Gold.Chemscore.Internal.Correction.Weighted>
   9.000000E+99

> <Gold.Protein.RotatedTorsions>
[ 6907 6896 6895 6894 ] final   61.58 input  -60.11 | X-H torsion
[ 7974 7965 7964 7962 ] final  124.16 input  175.53 | X-H torsion
[ 8008 7997 7996 7995 ] final  147.42 input   59.86 | X-H torsion
[ 10167 10162 10161 10158 ] final -160.13 input  -65.29 | X-H torsion
[ 10718 10713 10712 10709 ] final   82.97 input   66.30 | X-H torsion
[ 10763 10752 10751 10750 ] final   -4.60 input  -60.55 | X-H torsion
[ 11005 11000 10999 10996 ] final   89.75 input  -57.11 | X-H torsion

> <Gold.Protein.ActiveResidues>
 VAL166  LYS551  ARG553  GLY616  TRP617  ASP618  TYR619  PRO620  LYS621  CYS622 
 ASP623  PHE694  ASN695  SER759  ASP760  ASP761  ALA762  ILE779  LEU786  VAL792 
 PHE793  MET794  SER795  GLU796  ALA797  LYS798  CYS799  TRP800  GLU811  SER814 

> <Gold.Protein.RotatedAtoms>
  152.4101  134.6139  160.0032 H   0  0  0  0  0  0  0  0  0  0  0  0  # atno 6907 bound_to 6896
  151.6319  133.3326  159.3119 H   0  0  0  0  0  0  0  0  0  0  0  0  # atno 6908 bound_to 6896
  150.7992  134.7115  159.6651 H   0  0  0  0  0  0  0  0  0  0  0  0  # atno 6909 bound_to 6896
  145.0875  139.3611  143.4877 H   0  0  0  0  0  0  0  0  0  0  0  0  # atno 7974 bound_to 7965
  156.2825  140.2156  156.5534 H   0  0  0  0  0  0  0  0  0  0  0  0  # atno 8008 bound_to 7997
  154.7272  140.0498  157.0716 H   0  0  0  0  0  0  0  0  0  0  0  0  # atno 8009 bound_to 7997
  155.0401  140.3144  155.4731 H   0  0  0  0  0  0  0  0  0  0  0  0  # atno 8010 bound_to 7997
  139.6563  143.9993  152.2196 H   0  0  0  0  0  0  0  0  0  0  0  0  # atno 10167 bound_to 10162
  157.6869  131.0070  150.2453 H   0  0  0  0  0  0  0  0  0  0  0  0  # atno 10718 bound_to 10713
  153.3870  135.7000  153.6522 H   0  0  0  0  0  0  0  0  0  0  0  0  # atno 10763 bound_to 10752
  153.5110  135.3632  155.2587 H   0  0  0  0  0  0  0  0  0  0  0  0  # atno 10764 bound_to 10752
  154.8698  135.4135  154.3180 H   0  0  0  0  0  0  0  0  0  0  0  0  # atno 10765 bound_to 10752
  139.8869  134.8571  156.3186 H   0  0  0  0  0  0  0  0  0  0  0  0  # atno 11005 bound_to 11000
  146.3531  140.0694  142.8624 LP  0  0  0  0  0  0  0  0  0  0  0  0  # atno 17320 bound_to 7965
  145.1105  140.9402  143.4659 LP  0  0  0  0  0  0  0  0  0  0  0  0  # atno 17321 bound_to 7965
  139.9721  144.6487  150.7980 LP  0  0  0  0  0  0  0  0  0  0  0  0  # atno 17342 bound_to 10162
  140.7560  143.3058  151.2966 LP  0  0  0  0  0  0  0  0  0  0  0  0  # atno 17343 bound_to 10162
  156.3060  130.3765  149.7706 LP  0  0  0  0  0  0  0  0  0  0  0  0  # atno 17370 bound_to 10713
  156.5321  130.8262  151.3240 LP  0  0  0  0  0  0  0  0  0  0  0  0  # atno 17371 bound_to 10713
  140.9802  133.7272  156.0660 LP  0  0  0  0  0  0  0  0  0  0  0  0  # atno 17394 bound_to 11000
  140.7759  134.3780  157.5498 LP  0  0  0  0  0  0  0  0  0  0  0  0  # atno 17395 bound_to 11000

$$$$
