AV-unprocessed.smi:2061|AV-procd|sdf|8371|dock9
  -GOLD-   2272011 43D 1   1.00000     0.00000
 Structure written by MMmdl.
 46 47  0  0  0  0  0  0  0  0  2 V2000
  145.0557  131.7016  149.9415 C   0  0  0  0  0  0  0  0  0  0  0  0
  145.1890  133.0678  150.5216 C   0  0  0  0  0  0  0  0  0  0  0  0
  146.2567  133.7774  150.9941 C   0  0  0  0  0  0  0  0  0  0  0  0
  145.6673  135.0123  151.3939 C   0  0  0  0  0  0  0  0  0  0  0  0
  146.3440  136.1218  151.9634 N   0  0  0  0  0  0  0  0  0  0  0  0
  145.8342  137.1203  152.7041 C   0  0  0  0  0  0  0  0  0  0  0  0
  144.6491  137.2481  153.0114 O   0  0  0  0  0  0  0  0  0  0  0  0
  146.7903  137.9847  153.0761 N   0  0  0  0  0  0  0  0  0  0  0  0
  146.5914  139.1551  153.9288 C   0  0  0  0  0  0  0  0  0  0  0  0
  147.6332  140.2847  153.6875 C   0  0  1  0  0  0  0  0  0  0  0  0
  146.9748  141.6777  153.8479 C   0  0  0  0  0  0  0  0  0  0  0  0
  148.8415  140.1394  154.5706 N   0  3  1  0  0  0  0  0  0  0  0  0
  149.8478  139.1634  154.0668 C   0  0  0  0  0  0  0  0  0  0  0  0
  151.0349  139.0154  155.0356 C   0  0  1  0  0  0  0  0  0  0  0  0
  152.1211  138.0926  154.4720 C   0  0  0  0  0  0  0  0  0  0  0  0
  151.6266  140.2861  155.2695 O   0  0  0  0  0  0  0  0  0  0  0  0
  150.7325  141.2549  155.8060 C   0  0  2  0  0  0  0  0  0  0  0  0
  150.3523  140.9617  157.2692 C   0  0  0  0  0  0  0  0  0  0  0  0
  149.5176  141.4327  154.8747 C   0  0  0  0  0  0  0  0  0  0  0  0
  144.3637  135.0444  151.1868 N   0  0  0  0  0  0  0  0  0  0  0  0
  144.0485  133.8018  150.6251 O   0  0  0  0  0  0  0  0  0  0  0  0
  145.9902  131.1472  150.0310 H   0  0  0  0  0  0  0  0  0  0  0  0
  144.7939  131.7548  148.8846 H   0  0  0  0  0  0  0  0  0  0  0  0
  144.2777  131.1371  150.4557 H   0  0  0  0  0  0  0  0  0  0  0  0
  147.2843  133.4500  151.0385 H   0  0  0  0  0  0  0  0  0  0  0  0
  147.3398  136.1463  151.8005 H   0  0  0  0  0  0  0  0  0  0  0  0
  147.7357  137.8020  152.7717 H   0  0  0  0  0  0  0  0  0  0  0  0
  145.5778  139.5475  153.8304 H   0  0  0  0  0  0  0  0  0  0  0  0
  146.6726  138.7606  154.9399 H   0  0  0  0  0  0  0  0  0  0  0  0
  147.9735  140.1999  152.6541 H   0  0  0  0  0  0  0  0  0  0  0  0
  146.0725  141.7771  153.2468 H   0  0  0  0  0  0  0  0  0  0  0  0
  147.6188  142.4874  153.5095 H   0  0  0  0  0  0  0  0  0  0  0  0
  146.7005  141.8696  154.8858 H   0  0  0  0  0  0  0  0  0  0  0  0
  149.4120  138.1725  153.9585 H   0  0  0  0  0  0  0  0  0  0  0  0
  150.1960  139.4767  153.0811 H   0  0  0  0  0  0  0  0  0  0  0  0
  150.6881  138.5882  155.9766 H   0  0  0  0  0  0  0  0  0  0  0  0
  151.7283  137.0940  154.2784 H   0  0  0  0  0  0  0  0  0  0  0  0
  152.9493  137.9925  155.1741 H   0  0  0  0  0  0  0  0  0  0  0  0
  152.5235  138.4816  153.5360 H   0  0  0  0  0  0  0  0  0  0  0  0
  151.2834  142.1959  155.8110 H   0  0  0  0  0  0  0  0  0  0  0  0
  149.7933  141.7946  157.6967 H   0  0  0  0  0  0  0  0  0  0  0  0
  151.2434  140.8169  157.8806 H   0  0  0  0  0  0  0  0  0  0  0  0
  149.7297  140.0727  157.3674 H   0  0  0  0  0  0  0  0  0  0  0  0
  149.8397  141.8906  153.9380 H   0  0  0  0  0  0  0  0  0  0  0  0
  148.8421  142.1365  155.3562 H   0  0  0  0  0  0  0  0  0  0  0  0
  148.5090  139.7754  155.4523 H   0  0  0  0  0  0  0  0  0  0  0  0
  1  2  1  0  0  0  0
  1 22  1  0  0  0  0
  1 23  1  0  0  0  0
  1 24  1  0  0  0  0
  2 21  1  0  0  0  0
  2  3  2  0  0  0  0
  3  4  1  0  0  0  0
  3 25  1  0  0  0  0
  4  5  1  0  0  0  0
  4 20  2  0  0  0  0
  5  6  1  0  0  0  0
  5 26  1  0  0  0  0
  6  7  2  0  0  0  0
  6  8  1  0  0  0  0
  8  9  1  0  0  0  0
  8 27  1  0  0  0  0
  9 10  1  0  0  0  0
  9 28  1  0  0  0  0
  9 29  1  0  0  0  0
 10 11  1  0  0  0  0
 10 12  1  0  0  0  0
 10 30  1  0  0  0  0
 11 31  1  0  0  0  0
 11 32  1  0  0  0  0
 11 33  1  0  0  0  0
 12 19  1  0  0  0  0
 12 13  1  0  0  0  0
 12 46  1  0  0  0  0
 13 14  1  0  0  0  0
 13 34  1  0  0  0  0
 13 35  1  0  0  0  0
 14 15  1  0  0  0  0
 14 16  1  0  0  0  0
 14 36  1  0  0  0  0
 15 37  1  0  0  0  0
 15 38  1  0  0  0  0
 15 39  1  0  0  0  0
 16 17  1  0  0  0  0
 17 18  1  0  0  0  0
 17 19  1  0  0  0  0
 17 40  1  0  0  0  0
 18 41  1  0  0  0  0
 18 42  1  0  0  0  0
 18 43  1  0  0  0  0
 19 44  1  0  0  0  0
 19 45  1  0  0  0  0
 20 21  1  0  0  0  0
M  CHG  1  12   1
M  END
> <s_m_source_file>
AV-unprocessed.smi

> <i_m_source_file_index>
2061

> <i_lp_mmshare_version>
43012

> <i_f3d_flags>
0

> <s_epik_input>
W0NIM11jMVtjSF1jKG5vMSlbTkhdQyg9TylbTkhdW0NIMl1bQ0BIXShbQ0gzXSlOMltDSDJdW0NAQEhdKFtDSDNdKU9bQ0BASF0oW0NIM10pW0NIMl0y

> <s_epik_cmdline>
J2VwaWtfcHl0aG9uJywgJy1waCcsICc3LjAnLCAnLXRuJywgJzgnLCAnLW1hJywgJzIwMCcsICctbWV0YWxfYmluZGluZycsICctaW1hZScsICc8aW5maWxlLm1hZT4nLCAnLW9tYWUnLCAnPG91dGZpbGUubWFlPic=

> <r_epik_Ionization_Penalty>
0.707076

> <r_epik_Ionization_Penalty_Charging>
0.707039

> <r_epik_Ionization_Penalty_Neutral>
3.6548e-05

> <r_epik_State_Penalty>
0.730276

> <r_epik_Charging_Adjusted_Penalty>
1.43732

> <i_epik_Tot_Q>
1

> <i_epik_Tot_abs_Q>
1

> <r_epik_Metal_State_Penalty>
0.743132

> <b_epik_Metal_Only>
0

> <s_lp_Force_Field>
OPLS_2005

> <r_lp_Energy>
23.7206

> <b_lp_Chiralities_Consistent>
1

> <s_lp_Variant>
AV-unprocessed.smi:2061-12

> <Gold.Version>
5.8.1

> <Gold.Id.Protein>
6NUR|6NUR_protein|mol2

> <Gold.PLP.Fitness>
41.6774

> <Gold.PLP.PLP>
-37.3212

> <Gold.PLP.part.hbond>
-3.0000

> <Gold.PLP.part.metal>
0.0000

> <Gold.PLP.part.buried>
-5.2095

> <Gold.PLP.part.nonpolar>
-30.7268

> <Gold.PLP.part.repulsive>
0.7971

> <Gold.PLP.ligand.clash>
0.0000

> <Gold.PLP.ligand.torsion>
1.3442

> <Gold.PLP.Chemscore.Hbond>
2.3342

> <Gold.PLP.Chemscore.CHOScore>
0.0000

> <Gold.PLP.Chemscore.Metal>
0.0000

> <Gold.Chemscore.Hbonds>
donor molecule, donor type, donor heavy atom, donor atom, acceptor molecule, acceptor atom, score
      L1  H     5    26       P1  7948  1.00
      L1  H     8    27       P1  7948  0.54
      P1  H  7989  7998       L1    16  0.77

> <Gold.PLP.Chemscore.Internal.Correction>
0.0420

> <Gold.Rescore>
     Score         DG    S(hbond)    S(metal)    S(lipo)     H(rot)  DE(clash)    DE(int)     intcor
     14.81     -17.51       1.79        0.00      86.42       1.58       0.08       2.62       ----

> <Gold.Chemscore.Fitness>
14.8054

> <Gold.Chemscore.DG>
-17.5108

> <Gold.Chemscore.ZeroCoef>
-5.4800

> <Gold.Chemscore.Hbond>
1.7884

> <Gold.Chemscore.Metal>
0.0000

> <Gold.Chemscore.Lipo>
86.4184

> <Gold.Chemscore.Internal_Hbond>
0.0000

> <Gold.Chemscore.DEClash>
0.0837

> <Gold.Chemscore.DEInternal>
2.6217

> <Gold.Chemscore.Rot>
1.5834

> <Gold.Chemscore.Internal.Correction>
   9.000000E+99

> <Gold.Chemscore.Hbonds>
donor molecule, donor type, donor heavy atom, donor atom, acceptor molecule, acceptor atom, score
      L1  H     5    26       P1  7948  0.98
      L1  H     8    27       P1  7948  0.54
      P1  H  7989  7998       L1    16  0.03

> <Gold.Chemscore.Hbond.Weighted>
-5.9733

> <Gold.Chemscore.Metal.Weighted>
-0.0000

> <Gold.Chemscore.Lipo.Weighted>
-10.1109

> <Gold.Chemscore.Internal_Hbond.Weighted>
0.0000

> <Gold.Chemscore.DEClash.Weighted>
0.0837

> <Gold.Chemscore.DEInternal.Weighted>
2.6217

> <Gold.Chemscore.Rot.Weighted>
4.0535

> <Gold.Chemscore.Internal.Correction.Weighted>
   9.000000E+99

> <Gold.Protein.RotatedTorsions>
[ 6907 6896 6895 6894 ] final  -47.36 input  -60.11 | X-H torsion
[ 7974 7965 7964 7962 ] final  -99.69 input  175.53 | X-H torsion
[ 8008 7997 7996 7995 ] final   62.37 input   59.86 | X-H torsion
[ 10167 10162 10161 10158 ] final  140.04 input  -65.29 | X-H torsion
[ 10718 10713 10712 10709 ] final   42.26 input   66.30 | X-H torsion
[ 10763 10752 10751 10750 ] final  176.84 input  -60.55 | X-H torsion
[ 11005 11000 10999 10996 ] final  131.06 input  -57.11 | X-H torsion

> <Gold.Protein.ActiveResidues>
 VAL166  LYS551  ARG553  GLY616  TRP617  ASP618  TYR619  PRO620  LYS621  CYS622 
 ASP623  PHE694  ASN695  SER759  ASP760  ASP761  ALA762  ILE779  LEU786  VAL792 
 PHE793  MET794  SER795  GLU796  ALA797  LYS798  CYS799  TRP800  GLU811  SER814 

> <Gold.Protein.RotatedAtoms>
  150.9016  134.8428  159.7363 H   0  0  0  0  0  0  0  0  0  0  0  0  # atno 6907 bound_to 6896
  152.4895  134.4495  159.9579 H   0  0  0  0  0  0  0  0  0  0  0  0  # atno 6908 bound_to 6896
  151.4546  133.3569  159.2835 H   0  0  0  0  0  0  0  0  0  0  0  0  # atno 6909 bound_to 6896
  145.3042  140.9385  143.2806 H   0  0  0  0  0  0  0  0  0  0  0  0  # atno 7974 bound_to 7965
  155.6133  140.3495  155.4629 H   0  0  0  0  0  0  0  0  0  0  0  0  # atno 8008 bound_to 7997
  156.0137  140.1238  157.0452 H   0  0  0  0  0  0  0  0  0  0  0  0  # atno 8009 bound_to 7997
  154.4290  140.1076  156.5851 H   0  0  0  0  0  0  0  0  0  0  0  0  # atno 8010 bound_to 7997
  139.5060  144.6258  151.5940 H   0  0  0  0  0  0  0  0  0  0  0  0  # atno 10167 bound_to 10162
  157.4028  130.7870  149.7363 H   0  0  0  0  0  0  0  0  0  0  0  0  # atno 10718 bound_to 10713
  154.4866  135.2777  155.1530 H   0  0  0  0  0  0  0  0  0  0  0  0  # atno 10763 bound_to 10752
  154.3218  135.6208  153.5515 H   0  0  0  0  0  0  0  0  0  0  0  0  # atno 10764 bound_to 10752
  152.9882  135.5744  154.5278 H   0  0  0  0  0  0  0  0  0  0  0  0  # atno 10765 bound_to 10752
  139.9708  134.9578  156.9384 H   0  0  0  0  0  0  0  0  0  0  0  0  # atno 11005 bound_to 11000
  144.9068  139.4579  143.6606 LP  0  0  0  0  0  0  0  0  0  0  0  0  # atno 17320 bound_to 7965
  146.3141  139.7854  142.8997 LP  0  0  0  0  0  0  0  0  0  0  0  0  # atno 17321 bound_to 7965
  140.5975  143.9670  150.6364 LP  0  0  0  0  0  0  0  0  0  0  0  0  # atno 17342 bound_to 10162
  140.2870  143.3350  152.1098 LP  0  0  0  0  0  0  0  0  0  0  0  0  # atno 17343 bound_to 10162
  155.9828  130.4006  150.3397 LP  0  0  0  0  0  0  0  0  0  0  0  0  # atno 17370 bound_to 10713
  157.1527  131.0325  151.2877 LP  0  0  0  0  0  0  0  0  0  0  0  0  # atno 17371 bound_to 10713
  140.5297  134.0825  155.7313 LP  0  0  0  0  0  0  0  0  0  0  0  0  # atno 17394 bound_to 11000
  141.1388  133.9175  157.2374 LP  0  0  0  0  0  0  0  0  0  0  0  0  # atno 17395 bound_to 11000

$$$$
