AV-unprocessed.smi:1550|AV-procd|sdf|6226|dock6
  -GOLD-   22720 6403D 1   1.00000     0.00000
 Structure written by MMmdl.
 43 44  0  0  0  0  0  0  0  0  1 V2000
  150.2902  138.5416  154.1123 C   0  0  0  0  0  0  0  0  0  0  0  0
  150.7018  138.3212  155.5753 C   0  0  2  0  0  0  0  0  0  0  0  0
  149.5768  137.7759  156.2593 O   0  0  0  0  0  0  0  0  0  0  0  0
  149.7164  136.4276  156.6939 C   0  0  0  0  0  0  0  0  0  0  0  0
  149.2295  135.4986  155.5747 C   0  0  1  0  0  0  0  0  0  0  0  0
  149.6646  134.0386  155.8091 C   0  0  0  0  0  0  0  0  0  0  0  0
  149.0845  133.1223  154.7254 C   0  0  0  0  0  0  0  0  0  0  0  0
  147.5669  133.3175  154.6423 C   0  0  0  0  0  0  0  0  0  0  0  0
  147.2283  134.8078  154.4802 C   0  0  0  0  0  0  0  0  0  0  0  0
  147.8045  135.5534  155.5481 O   0  0  0  0  0  0  0  0  0  0  0  0
  151.1387  139.6386  156.2365 C   0  0  0  0  0  0  0  0  0  0  0  0
  151.1250  140.6802  155.5805 O   0  0  0  0  0  0  0  0  0  0  0  0
  151.5161  139.5422  157.5265 N   0  0  0  0  0  0  0  0  0  0  0  0
  151.9000  140.5604  158.4141 C   0  0  0  0  0  0  0  0  0  0  0  0
  151.6192  141.8787  158.2439 C   0  0  0  0  0  0  0  0  0  0  0  0
  152.0301  142.8855  159.2080 C   0  0  0  0  0  0  0  0  0  0  0  0
  151.6563  144.3498  159.0369 C   0  0  0  0  0  0  0  0  0  0  0  0
  152.2866  144.8925  157.9943 F   0  0  0  0  0  0  0  0  0  0  0  0
  150.3445  144.4622  158.8336 F   0  0  0  0  0  0  0  0  0  0  0  0
  151.9684  145.0521  160.1263 F   0  0  0  0  0  0  0  0  0  0  0  0
  152.6810  142.4408  160.2989 C   0  0  0  0  0  0  0  0  0  0  0  0
  152.9738  141.0872  160.4811 N   0  0  0  0  0  0  0  0  0  0  0  0
  152.6228  140.1105  159.6150 C   0  0  0  0  0  0  0  0  0  0  0  0
  152.9077  138.9371  159.8522 O   0  0  0  0  0  0  0  0  0  0  0  0
  153.4727  140.8352  161.3221 H   0  0  0  0  0  0  0  0  0  0  0  0
  151.1065  138.9721  153.5312 H   0  0  0  0  0  0  0  0  0  0  0  0
  149.4321  139.2102  154.0327 H   0  0  0  0  0  0  0  0  0  0  0  0
  150.0145  137.5972  153.6425 H   0  0  0  0  0  0  0  0  0  0  0  0
  151.5219  137.6006  155.5970 H   0  0  0  0  0  0  0  0  0  0  0  0
  150.7688  136.2329  156.9061 H   0  0  0  0  0  0  0  0  0  0  0  0
  149.1566  136.2314  157.6091 H   0  0  0  0  0  0  0  0  0  0  0  0
  149.6308  135.8492  154.6220 H   0  0  0  0  0  0  0  0  0  0  0  0
  150.7523  133.9631  155.8164 H   0  0  0  0  0  0  0  0  0  0  0  0
  149.3211  133.7055  156.7895 H   0  0  0  0  0  0  0  0  0  0  0  0
  149.5388  133.3582  153.7622 H   0  0  0  0  0  0  0  0  0  0  0  0
  149.3230  132.0803  154.9392 H   0  0  0  0  0  0  0  0  0  0  0  0
  147.1561  132.7432  153.8117 H   0  0  0  0  0  0  0  0  0  0  0  0
  147.0981  132.9356  155.5501 H   0  0  0  0  0  0  0  0  0  0  0  0
  147.5860  135.1882  153.5222 H   0  0  0  0  0  0  0  0  0  0  0  0
  146.1478  134.9502  154.4955 H   0  0  0  0  0  0  0  0  0  0  0  0
  151.5626  138.6091  157.9101 H   0  0  0  0  0  0  0  0  0  0  0  0
  151.0600  142.2180  157.3868 H   0  0  0  0  0  0  0  0  0  0  0  0
  153.0167  143.0735  161.1072 H   0  0  0  0  0  0  0  0  0  0  0  0
  1  2  1  0  0  0  0
  1 26  1  0  0  0  0
  1 27  1  0  0  0  0
  1 28  1  0  0  0  0
  2  3  1  0  0  0  0
  2 11  1  0  0  0  0
  2 29  1  0  0  0  0
  3  4  1  0  0  0  0
  4  5  1  0  0  0  0
  4 30  1  0  0  0  0
  4 31  1  0  0  0  0
  5 10  1  0  0  0  0
  5  6  1  0  0  0  0
  5 32  1  0  0  0  0
  6  7  1  0  0  0  0
  6 33  1  0  0  0  0
  6 34  1  0  0  0  0
  7  8  1  0  0  0  0
  7 35  1  0  0  0  0
  7 36  1  0  0  0  0
  8  9  1  0  0  0  0
  8 37  1  0  0  0  0
  8 38  1  0  0  0  0
  9 10  1  0  0  0  0
  9 39  1  0  0  0  0
  9 40  1  0  0  0  0
 11 12  2  0  0  0  0
 11 13  1  0  0  0  0
 13 14  1  0  0  0  0
 13 41  1  0  0  0  0
 14 23  1  0  0  0  0
 14 15  2  0  0  0  0
 15 16  1  0  0  0  0
 15 42  1  0  0  0  0
 16 17  1  0  0  0  0
 16 21  2  0  0  0  0
 17 18  1  0  0  0  0
 17 19  1  0  0  0  0
 17 20  1  0  0  0  0
 21 22  1  0  0  0  0
 21 43  1  0  0  0  0
 22 25  1  0  0  0  0
 22 23  1  0  0  0  0
 23 24  2  0  0  0  0
M  END
> <s_m_source_file>
AV-unprocessed.smi

> <i_m_source_file_index>
1550

> <i_lp_mmshare_version>
43012

> <i_f3d_flags>
0

> <s_epik_input>
TzFbQ0gyXVtDSDJdW0NIMl1bQ0gyXVtDQEhdMVtDSDJdT1tDQEBIXShbQ0gzXSlDKD1PKVtOSF1jMltjSF1jKEMoRikoRilGKVtjSF1bbkhdYzI9Tw==

> <s_epik_cmdline>
J2VwaWtfcHl0aG9uJywgJy1waCcsICc3LjAnLCAnLXRuJywgJzgnLCAnLW1hJywgJzIwMCcsICctbWV0YWxfYmluZGluZycsICctaW1hZScsICc8aW5maWxlLm1hZT4nLCAnLW9tYWUnLCAnPG91dGZpbGUubWFlPic=

> <r_lp_tautomer_probability>
0.999

> <r_epik_Ionization_Penalty>
0.00891333

> <r_epik_Ionization_Penalty_Charging>
0.00891323

> <r_epik_Ionization_Penalty_Neutral>
1.00146e-07

> <r_epik_State_Penalty>
0.00674197

> <r_epik_Charging_Adjusted_Penalty>
0.0156552

> <i_epik_Tot_Q>
0

> <i_epik_Tot_abs_Q>
0

> <r_epik_Metal_State_Penalty>
0.321024

> <b_epik_Metal_Only>
0

> <s_lp_Force_Field>
OPLS_2005

> <r_lp_Energy>
25.8894

> <b_lp_Chiralities_Consistent>
1

> <s_lp_Variant>
AV-unprocessed.smi:1550-3

> <Gold.Version>
5.8.1

> <Gold.Id.Protein>
6NUR|6NUR_protein|mol2

> <Gold.PLP.Fitness>
45.1209

> <Gold.PLP.PLP>
-46.3160

> <Gold.PLP.part.hbond>
-1.0000

> <Gold.PLP.part.metal>
0.0000

> <Gold.PLP.part.buried>
-6.7257

> <Gold.PLP.part.nonpolar>
-38.0930

> <Gold.PLP.part.repulsive>
0.2650

> <Gold.PLP.ligand.clash>
1.3613

> <Gold.PLP.ligand.torsion>
1.2193

> <Gold.PLP.Chemscore.Hbond>
0.8320

> <Gold.PLP.Chemscore.CHOScore>
0.0000

> <Gold.PLP.Chemscore.Metal>
0.0000

> <Gold.Chemscore.Hbonds>
donor molecule, donor type, donor heavy atom, donor atom, acceptor molecule, acceptor atom, score
      P1  H  7989  7998       L1    12  0.58

> <Gold.PLP.Chemscore.Internal.Correction>
0.1088

> <Gold.Rescore>
     Score         DG    S(hbond)    S(metal)    S(lipo)     H(rot)  DE(clash)    DE(int)     intcor
     12.06     -14.33       0.93        0.00      89.58       1.86       0.05       2.22       ----

> <Gold.Chemscore.Fitness>
12.0591

> <Gold.Chemscore.DG>
-14.3259

> <Gold.Chemscore.ZeroCoef>
-5.4800

> <Gold.Chemscore.Hbond>
0.9337

> <Gold.Chemscore.Metal>
0.0000

> <Gold.Chemscore.Lipo>
89.5840

> <Gold.Chemscore.Internal_Hbond>
0.0000

> <Gold.Chemscore.DEClash>
0.0451

> <Gold.Chemscore.DEInternal>
2.2217

> <Gold.Chemscore.Rot>
1.8571

> <Gold.Chemscore.Internal.Correction>
   9.000000E+99

> <Gold.Chemscore.Hbonds>
donor molecule, donor type, donor heavy atom, donor atom, acceptor molecule, acceptor atom, score
      P1  H  7989  7998       L1    12  0.58

> <Gold.Chemscore.Hbond.Weighted>
-3.1186

> <Gold.Chemscore.Metal.Weighted>
-0.0000

> <Gold.Chemscore.Lipo.Weighted>
-10.4813

> <Gold.Chemscore.Internal_Hbond.Weighted>
0.0000

> <Gold.Chemscore.DEClash.Weighted>
0.0451

> <Gold.Chemscore.DEInternal.Weighted>
2.2217

> <Gold.Chemscore.Rot.Weighted>
4.7541

> <Gold.Chemscore.Internal.Correction.Weighted>
   9.000000E+99

> <Gold.Protein.RotatedTorsions>
[ 6907 6896 6895 6894 ] final  -79.42 input  -60.11 | X-H torsion
[ 7974 7965 7964 7962 ] final   87.32 input  175.53 | X-H torsion
[ 8008 7997 7996 7995 ] final  -64.15 input   59.86 | X-H torsion
[ 10167 10162 10161 10158 ] final  -94.14 input  -65.29 | X-H torsion
[ 10718 10713 10712 10709 ] final -113.99 input   66.30 | X-H torsion
[ 10763 10752 10751 10750 ] final -153.49 input  -60.55 | X-H torsion
[ 11005 11000 10999 10996 ] final    2.66 input  -57.11 | X-H torsion

> <Gold.Protein.ActiveResidues>
 VAL166  LYS551  ARG553  GLY616  TRP617  ASP618  TYR619  PRO620  LYS621  CYS622 
 ASP623  PHE694  ASN695  SER759  ASP760  ASP761  ALA762  ILE779  LEU786  VAL792 
 PHE793  MET794  SER795  GLU796  ALA797  LYS798  CYS799  TRP800  GLU811  SER814 

> <Gold.Protein.RotatedAtoms>
  150.6950  134.4124  159.5167 H   0  0  0  0  0  0  0  0  0  0  0  0  # atno 6907 bound_to 6896
  152.1881  134.8693  160.0529 H   0  0  0  0  0  0  0  0  0  0  0  0  # atno 6908 bound_to 6896
  151.9659  133.3675  159.4090 H   0  0  0  0  0  0  0  0  0  0  0  0  # atno 6909 bound_to 6896
  145.5605  139.2303  143.2462 H   0  0  0  0  0  0  0  0  0  0  0  0  # atno 7974 bound_to 7965
  154.4595  140.0960  156.6852 H   0  0  0  0  0  0  0  0  0  0  0  0  # atno 8008 bound_to 7997
  155.5037  140.3474  155.4357 H   0  0  0  0  0  0  0  0  0  0  0  0  # atno 8009 bound_to 7997
  156.0843  140.1381  156.9662 H   0  0  0  0  0  0  0  0  0  0  0  0  # atno 8010 bound_to 7997
  140.3175  143.3068  152.0082 H   0  0  0  0  0  0  0  0  0  0  0  0  # atno 10167 bound_to 10162
  156.0801  130.6002  150.8715 H   0  0  0  0  0  0  0  0  0  0  0  0  # atno 10718 bound_to 10713
  154.7924  135.3211  154.7747 H   0  0  0  0  0  0  0  0  0  0  0  0  # atno 10763 bound_to 10752
  153.8433  135.6869  153.4805 H   0  0  0  0  0  0  0  0  0  0  0  0  # atno 10764 bound_to 10752
  153.1600  135.4665  154.9699 H   0  0  0  0  0  0  0  0  0  0  0  0  # atno 10765 bound_to 10752
  140.6018  133.9829  155.8135 H   0  0  0  0  0  0  0  0  0  0  0  0  # atno 11005 bound_to 11000
  146.1854  140.6430  142.9170 LP  0  0  0  0  0  0  0  0  0  0  0  0  # atno 17320 bound_to 7965
  144.7485  140.5130  143.6818 LP  0  0  0  0  0  0  0  0  0  0  0  0  # atno 17321 bound_to 7965
  139.4881  144.6337  151.7019 LP  0  0  0  0  0  0  0  0  0  0  0  0  # atno 17342 bound_to 10162
  140.5513  144.0420  150.6128 LP  0  0  0  0  0  0  0  0  0  0  0  0  # atno 17343 bound_to 10162
  157.5914  131.0944  150.9112 LP  0  0  0  0  0  0  0  0  0  0  0  0  # atno 17370 bound_to 10713
  156.9287  130.5341  149.5279 LP  0  0  0  0  0  0  0  0  0  0  0  0  # atno 17371 bound_to 10713
  141.0867  133.9979  157.3302 LP  0  0  0  0  0  0  0  0  0  0  0  0  # atno 17394 bound_to 11000
  139.9229  135.0201  156.8130 LP  0  0  0  0  0  0  0  0  0  0  0  0  # atno 17395 bound_to 11000

$$$$
