AV-unprocessed.smi:1329|AV-procd|sdf|5484|dock2
  -GOLD-   22720 5 53D 1   1.00000     0.00000
 Structure written by MMmdl.
 42 43  0  0  0  0  0  0  0  0  1 V2000
  155.4613  140.8818  157.2518 C   0  0  0  0  0  0  0  0  0  0  0  0
  154.7088  139.8849  158.0911 C   0  0  0  0  0  0  0  0  0  0  0  0
  153.5735  139.4752  157.6284 N   0  0  0  0  0  0  0  0  0  0  0  0
  152.8010  138.5642  158.3212 N   0  0  0  0  0  0  0  0  0  0  0  0
  151.5348  138.2299  157.6572 C   0  0  0  0  0  0  0  0  0  0  0  0
  150.3588  139.0722  158.2002 C   0  0  1  0  0  0  0  0  0  0  0  0
  149.4824  138.1987  158.8851 O   0  0  0  0  0  0  0  0  0  0  0  0
  150.8265  140.1320  159.2116 C   0  0  0  0  0  0  0  0  0  0  0  0
  151.7973  140.9601  158.5925 O   0  0  0  0  0  0  0  0  0  0  0  0
  152.5176  141.7547  159.5186 C   0  0  0  0  0  0  0  0  0  0  0  0
  151.9985  143.1777  159.5381 C   0  0  0  0  0  0  0  0  0  0  0  0
  152.2447  144.0089  160.6510 C   0  0  0  0  0  0  0  0  0  0  0  0
  151.7662  145.3338  160.6632 C   0  0  0  0  0  0  0  0  0  0  0  0
  151.0412  145.8315  159.5630 C   0  0  0  0  0  0  0  0  0  0  0  0
  150.7955  145.0046  158.4498 C   0  0  0  0  0  0  0  0  0  0  0  0
  151.2743  143.6799  158.4368 C   0  0  0  0  0  0  0  0  0  0  0  0
  153.1390  138.0137  159.5224 C   0  0  0  0  0  0  0  0  0  0  0  0
  152.4162  137.2063  160.1082 O   0  0  0  0  0  0  0  0  0  0  0  0
  154.4271  138.4804  160.0401 C   0  0  0  0  0  0  0  0  0  0  0  0
  154.8178  137.9318  161.2987 C   0  0  0  0  0  0  0  0  0  0  0  0
  155.1150  137.4904  162.3266 N   0  0  0  0  0  0  0  0  0  0  0  0
  155.1939  139.3768  159.3704 C   0  0  0  0  0  0  0  0  0  0  0  0
  156.5361  139.8968  159.8667 C   0  0  0  0  0  0  0  0  0  0  0  0
  156.4271  140.4794  156.9457 H   0  0  0  0  0  0  0  0  0  0  0  0
  155.6390  141.8015  157.8094 H   0  0  0  0  0  0  0  0  0  0  0  0
  154.9135  141.1476  156.3464 H   0  0  0  0  0  0  0  0  0  0  0  0
  151.6188  138.3412  156.5740 H   0  0  0  0  0  0  0  0  0  0  0  0
  151.3349  137.1679  157.8104 H   0  0  0  0  0  0  0  0  0  0  0  0
  149.8306  139.5630  157.3818 H   0  0  0  0  0  0  0  0  0  0  0  0
  150.0006  137.5659  159.3583 H   0  0  0  0  0  0  0  0  0  0  0  0
  149.9867  140.7156  159.5937 H   0  0  0  0  0  0  0  0  0  0  0  0
  151.2970  139.6453  160.0673 H   0  0  0  0  0  0  0  0  0  0  0  0
  152.4310  141.3309  160.5205 H   0  0  0  0  0  0  0  0  0  0  0  0
  153.5788  141.7594  159.2635 H   0  0  0  0  0  0  0  0  0  0  0  0
  152.8030  143.6343  161.4966 H   0  0  0  0  0  0  0  0  0  0  0  0
  151.9564  145.9686  161.5160 H   0  0  0  0  0  0  0  0  0  0  0  0
  150.6749  146.8475  159.5722 H   0  0  0  0  0  0  0  0  0  0  0  0
  150.2412  145.3865  157.6050 H   0  0  0  0  0  0  0  0  0  0  0  0
  151.0867  143.0508  157.5789 H   0  0  0  0  0  0  0  0  0  0  0  0
  156.8347  139.4374  160.8085 H   0  0  0  0  0  0  0  0  0  0  0  0
  156.4914  140.9744  160.0268 H   0  0  0  0  0  0  0  0  0  0  0  0
  157.3216  139.6891  159.1396 H   0  0  0  0  0  0  0  0  0  0  0  0
  1  2  1  0  0  0  0
  1 24  1  0  0  0  0
  1 25  1  0  0  0  0
  1 26  1  0  0  0  0
  2 22  1  0  0  0  0
  2  3  2  0  0  0  0
  3  4  1  0  0  0  0
  4  5  1  0  0  0  0
  4 17  1  0  0  0  0
  5  6  1  0  0  0  0
  5 27  1  0  0  0  0
  5 28  1  0  0  0  0
  6  7  1  0  0  0  0
  6  8  1  0  0  0  0
  6 29  1  0  0  0  0
  7 30  1  0  0  0  0
  8  9  1  0  0  0  0
  8 31  1  0  0  0  0
  8 32  1  0  0  0  0
  9 10  1  0  0  0  0
 10 11  1  0  0  0  0
 10 33  1  0  0  0  0
 10 34  1  0  0  0  0
 11 16  1  0  0  0  0
 11 12  2  0  0  0  0
 12 13  1  0  0  0  0
 12 35  1  0  0  0  0
 13 14  2  0  0  0  0
 13 36  1  0  0  0  0
 14 15  1  0  0  0  0
 14 37  1  0  0  0  0
 15 16  2  0  0  0  0
 15 38  1  0  0  0  0
 16 39  1  0  0  0  0
 17 18  2  0  0  0  0
 17 19  1  0  0  0  0
 19 20  1  0  0  0  0
 19 22  2  0  0  0  0
 20 21  3  0  0  0  0
 22 23  1  0  0  0  0
 23 40  1  0  0  0  0
 23 41  1  0  0  0  0
 23 42  1  0  0  0  0
M  END
> <s_m_source_file>
AV-unprocessed.smi

> <i_m_source_file_index>
1329

> <i_lp_mmshare_version>
43012

> <i_f3d_flags>
0

> <s_epik_input>
TiNDYyhjMVtDSDNdKWMoPU8pbihuYzFbQ0gzXSlbQ0gyXVtDQEhdKFtPSF0pW0NIMl1PW0NIMl1jMltjSF1bY0hdW2NIXVtjSF1bY0hdMg==

> <s_epik_cmdline>
J2VwaWtfcHl0aG9uJywgJy1waCcsICc3LjAnLCAnLXRuJywgJzgnLCAnLW1hJywgJzIwMCcsICctbWV0YWxfYmluZGluZycsICctaW1hZScsICc8aW5maWxlLm1hZT4nLCAnLW9tYWUnLCAnPG91dGZpbGUubWFlPic=

> <r_lp_tautomer_probability>
1

> <r_epik_Ionization_Penalty>
6.13319e-08

> <r_epik_Ionization_Penalty_Charging>
2.19172e-10

> <r_epik_Ionization_Penalty_Neutral>
6.11128e-08

> <r_epik_State_Penalty>
-0

> <r_epik_Charging_Adjusted_Penalty>
2.19172e-10

> <i_epik_Tot_Q>
0

> <i_epik_Tot_abs_Q>
0

> <r_epik_Metal_State_Penalty>
-0

> <b_epik_Metal_Only>
0

> <s_lp_Force_Field>
OPLS_2005

> <r_lp_Energy>
31.6334

> <b_lp_Chiralities_Consistent>
1

> <s_lp_Variant>
AV-unprocessed.smi:1329-2

> <Gold.Version>
5.8.1

> <Gold.Id.Protein>
6NUR|6NUR_protein|mol2

> <Gold.PLP.Fitness>
49.4137

> <Gold.PLP.PLP>
-46.6408

> <Gold.PLP.part.hbond>
-2.2404

> <Gold.PLP.part.metal>
0.0000

> <Gold.PLP.part.buried>
-4.3902

> <Gold.PLP.part.nonpolar>
-39.6727

> <Gold.PLP.part.repulsive>
0.0261

> <Gold.PLP.ligand.clash>
0.0000

> <Gold.PLP.ligand.torsion>
1.7122

> <Gold.PLP.Chemscore.Hbond>
2.0000

> <Gold.PLP.Chemscore.CHOScore>
0.0000

> <Gold.PLP.Chemscore.Metal>
0.0000

> <Gold.Chemscore.Hbonds>
donor molecule, donor type, donor heavy atom, donor atom, acceptor molecule, acceptor atom, score
      P1  H  6896  6909       L1    18  0.68

> <Gold.PLP.Chemscore.Internal.Correction>
0.1972

> <Gold.Rescore>
     Score         DG    S(hbond)    S(metal)    S(lipo)     H(rot)  DE(clash)    DE(int)     intcor
     16.89     -20.24       1.94        0.00     124.92       2.48       0.21       3.13       ----

> <Gold.Chemscore.Fitness>
16.8945

> <Gold.Chemscore.DG>
-20.2391

> <Gold.Chemscore.ZeroCoef>
-5.4800

> <Gold.Chemscore.Hbond>
1.9421

> <Gold.Chemscore.Metal>
0.0000

> <Gold.Chemscore.Lipo>
124.9166

> <Gold.Chemscore.Internal_Hbond>
0.0000

> <Gold.Chemscore.DEClash>
0.2112

> <Gold.Chemscore.DEInternal>
3.1335

> <Gold.Chemscore.Rot>
2.4777

> <Gold.Chemscore.Internal.Correction>
   9.000000E+99

> <Gold.Chemscore.Hbonds>
donor molecule, donor type, donor heavy atom, donor atom, acceptor molecule, acceptor atom, score
      P1  H  6896  6909       L1    18  0.69

> <Gold.Chemscore.Hbond.Weighted>
-6.4867

> <Gold.Chemscore.Metal.Weighted>
-0.0000

> <Gold.Chemscore.Lipo.Weighted>
-14.6152

> <Gold.Chemscore.Internal_Hbond.Weighted>
0.0000

> <Gold.Chemscore.DEClash.Weighted>
0.2112

> <Gold.Chemscore.DEInternal.Weighted>
3.1335

> <Gold.Chemscore.Rot.Weighted>
6.3428

> <Gold.Chemscore.Internal.Correction.Weighted>
   9.000000E+99

> <Gold.Protein.RotatedTorsions>
[ 6907 6896 6895 6894 ] final  137.80 input  -60.11 | X-H torsion
[ 7974 7965 7964 7962 ] final   58.13 input  175.53 | X-H torsion
[ 8008 7997 7996 7995 ] final  108.44 input   59.86 | X-H torsion
[ 10167 10162 10161 10158 ] final  156.59 input  -65.29 | X-H torsion
[ 10718 10713 10712 10709 ] final  149.90 input   66.30 | X-H torsion
[ 10763 10752 10751 10750 ] final  -18.13 input  -60.55 | X-H torsion
[ 11005 11000 10999 10996 ] final  -22.36 input  -57.11 | X-H torsion

> <Gold.Protein.ActiveResidues>
 VAL166  LYS551  ARG553  GLY616  TRP617  ASP618  TYR619  PRO620  LYS621  CYS622 
 ASP623  PHE694  ASN695  SER759  ASP760  ASP761  ALA762  ILE779  LEU786  VAL792 
 PHE793  MET794  SER795  GLU796  ALA797  LYS798  CYS799  TRP800  GLU811  SER814 

> <Gold.Protein.RotatedAtoms>
  152.2739  133.5408  159.5455 H   0  0  0  0  0  0  0  0  0  0  0  0  # atno 6907 bound_to 6896
  150.7170  134.0659  159.3856 H   0  0  0  0  0  0  0  0  0  0  0  0  # atno 6908 bound_to 6896
  151.8572  135.0537  160.0516 H   0  0  0  0  0  0  0  0  0  0  0  0  # atno 6909 bound_to 6896
  145.9215  139.3734  143.0475 H   0  0  0  0  0  0  0  0  0  0  0  0  # atno 7974 bound_to 7965
  156.1903  140.3076  155.9319 H   0  0  0  0  0  0  0  0  0  0  0  0  # atno 8008 bound_to 7997
  155.3189  140.0455  157.3055 H   0  0  0  0  0  0  0  0  0  0  0  0  # atno 8009 bound_to 7997
  154.5444  140.2272  155.8597 H   0  0  0  0  0  0  0  0  0  0  0  0  # atno 8010 bound_to 7997
  139.4821  144.4995  151.8190 H   0  0  0  0  0  0  0  0  0  0  0  0  # atno 10167 bound_to 10162
  157.2902  131.0852  151.1467 H   0  0  0  0  0  0  0  0  0  0  0  0  # atno 10718 bound_to 10713
  153.5845  135.7004  153.5449 H   0  0  0  0  0  0  0  0  0  0  0  0  # atno 10763 bound_to 10752
  153.3231  135.4068  155.1433 H   0  0  0  0  0  0  0  0  0  0  0  0  # atno 10764 bound_to 10752
  154.8611  135.3700  154.5374 H   0  0  0  0  0  0  0  0  0  0  0  0  # atno 10765 bound_to 10752
  140.8650  133.7761  156.0118 H   0  0  0  0  0  0  0  0  0  0  0  0  # atno 11005 bound_to 11000
  145.8543  140.9511  143.0733 LP  0  0  0  0  0  0  0  0  0  0  0  0  # atno 17320 bound_to 7965
  144.6753  140.0448  143.7480 LP  0  0  0  0  0  0  0  0  0  0  0  0  # atno 17321 bound_to 7965
  140.4486  144.1886  150.5896 LP  0  0  0  0  0  0  0  0  0  0  0  0  # atno 17342 bound_to 10162
  140.4608  143.2449  151.9222 LP  0  0  0  0  0  0  0  0  0  0  0  0  # atno 17343 bound_to 10162
  157.2867  130.6776  149.6093 LP  0  0  0  0  0  0  0  0  0  0  0  0  # atno 17370 bound_to 10713
  155.9667  130.4433  150.5417 LP  0  0  0  0  0  0  0  0  0  0  0  0  # atno 17371 bound_to 10713
  140.8640  134.2807  157.5222 LP  0  0  0  0  0  0  0  0  0  0  0  0  # atno 17394 bound_to 11000
  139.8709  134.9533  156.4140 LP  0  0  0  0  0  0  0  0  0  0  0  0  # atno 17395 bound_to 11000

$$$$
