AV-unprocessed.smi:40|AV-procd|sdf|381|dock3
  -GOLD-   2262016233D 1   1.00000     0.00000
 Structure written by MMmdl.
 47 48  0  0  0  0  0  0  0  0  1 V2000
  151.6708  145.5699  159.8947 C   0  0  0  0  0  0  0  0  0  0  0  0
  151.5807  144.6267  158.6879 C   0  0  0  0  0  0  0  0  0  0  0  0
  152.5970  143.4737  158.7231 C   0  0  0  0  0  0  0  0  0  0  0  0
  152.4058  142.5139  159.9110 C   0  0  0  0  0  0  0  0  0  0  0  0
  152.8935  141.0893  159.6148 C   0  0  0  0  0  0  0  0  0  0  0  0
  152.1650  140.5629  158.5183 O   0  0  0  0  0  0  0  0  0  0  0  0
  151.9176  139.2434  158.4331 C   0  0  0  0  0  0  0  0  0  0  0  0
  152.3142  138.4147  159.2523 O   0  0  0  0  0  0  0  0  0  0  0  0
  151.0953  138.9277  157.2762 N   0  0  0  0  0  0  0  0  0  0  0  0
  150.6391  137.7220  156.8556 C   0  0  0  0  0  0  0  0  0  0  0  0
  150.4232  136.7127  157.6852 N   0  0  0  0  0  0  0  0  0  0  0  0
  149.9446  135.4910  157.2966 C   0  0  0  0  0  0  0  0  0  0  0  0
  149.7632  134.5945  158.1197 O   0  0  0  0  0  0  0  0  0  0  0  0
  149.6632  135.3099  155.9225 N   0  0  0  0  0  0  0  0  0  0  0  0
  149.1268  133.9672  155.4696 C   0  0  2  0  0  0  0  0  0  0  0  0
  148.9634  133.9754  154.0793 O   0  0  0  0  0  0  0  0  0  0  0  0
  147.5809  133.8959  153.7466 C   0  0  1  0  0  0  0  0  0  0  0  0
  147.4099  133.2566  152.3639 C   0  0  0  0  0  0  0  0  0  0  0  0
  146.9964  133.0768  154.8950 C   0  0  2  0  0  0  0  0  0  0  0  0
  145.5920  133.2100  155.0090 O   0  0  0  0  0  0  0  0  0  0  0  0
  147.7600  133.6123  156.1017 C   0  0  2  0  0  0  0  0  0  0  0  0
  147.1051  134.7209  156.7011 O   0  0  0  0  0  0  0  0  0  0  0  0
  149.8583  136.3619  155.0388 C   0  0  0  0  0  0  0  0  0  0  0  0
  150.3314  137.5579  155.4508 C   0  0  0  0  0  0  0  0  0  0  0  0
  150.5097  138.5633  154.5763 F   0  0  0  0  0  0  0  0  0  0  0  0
  149.9060  133.2374  155.6955 H   0  0  0  0  0  0  0  0  0  0  0  0
  147.1572  134.9013  153.7509 H   0  0  0  0  0  0  0  0  0  0  0  0
  147.2442  132.0234  154.7559 H   0  0  0  0  0  0  0  0  0  0  0  0
  147.8982  132.8438  156.8629 H   0  0  0  0  0  0  0  0  0  0  0  0
  150.9739  146.4013  159.7870 H   0  0  0  0  0  0  0  0  0  0  0  0
  152.6726  145.9883  159.9940 H   0  0  0  0  0  0  0  0  0  0  0  0
  151.4254  145.0570  160.8245 H   0  0  0  0  0  0  0  0  0  0  0  0
  150.5695  144.2259  158.6077 H   0  0  0  0  0  0  0  0  0  0  0  0
  151.7459  145.2091  157.7810 H   0  0  0  0  0  0  0  0  0  0  0  0
  152.5035  142.9122  157.7929 H   0  0  0  0  0  0  0  0  0  0  0  0
  153.6110  143.8757  158.7309 H   0  0  0  0  0  0  0  0  0  0  0  0
  152.9512  142.8915  160.7757 H   0  0  0  0  0  0  0  0  0  0  0  0
  151.3546  142.4844  160.1998 H   0  0  0  0  0  0  0  0  0  0  0  0
  153.9613  141.0901  159.3911 H   0  0  0  0  0  0  0  0  0  0  0  0
  152.7417  140.4562  160.4899 H   0  0  0  0  0  0  0  0  0  0  0  0
  150.8594  139.7280  156.7077 H   0  0  0  0  0  0  0  0  0  0  0  0
  146.3553  133.1632  152.1037 H   0  0  0  0  0  0  0  0  0  0  0  0
  147.8529  132.2608  152.3308 H   0  0  0  0  0  0  0  0  0  0  0  0
  147.8907  133.8611  151.5946 H   0  0  0  0  0  0  0  0  0  0  0  0
  145.1856  132.6855  154.3357 H   0  0  0  0  0  0  0  0  0  0  0  0
  146.2147  134.4714  156.8953 H   0  0  0  0  0  0  0  0  0  0  0  0
  149.6282  136.2472  153.9908 H   0  0  0  0  0  0  0  0  0  0  0  0
  1  2  1  0  0  0  0
  1 30  1  0  0  0  0
  1 31  1  0  0  0  0
  1 32  1  0  0  0  0
  2  3  1  0  0  0  0
  2 33  1  0  0  0  0
  2 34  1  0  0  0  0
  3  4  1  0  0  0  0
  3 35  1  0  0  0  0
  3 36  1  0  0  0  0
  4  5  1  0  0  0  0
  4 37  1  0  0  0  0
  4 38  1  0  0  0  0
  5  6  1  0  0  0  0
  5 39  1  0  0  0  0
  5 40  1  0  0  0  0
  6  7  1  0  0  0  0
  7  8  2  0  0  0  0
  7  9  1  0  0  0  0
  9 10  1  0  0  0  0
  9 41  1  0  0  0  0
 10 24  1  0  0  0  0
 10 11  2  0  0  0  0
 11 12  1  0  0  0  0
 12 13  2  0  0  0  0
 12 14  1  0  0  0  0
 14 15  1  0  0  0  0
 14 23  1  0  0  0  0
 15 26  1  0  0  0  0
 15 21  1  0  0  0  0
 15 16  1  0  0  0  0
 16 17  1  0  0  0  0
 17 27  1  0  0  0  0
 17 18  1  0  0  0  0
 17 19  1  0  0  0  0
 18 42  1  0  0  0  0
 18 43  1  0  0  0  0
 18 44  1  0  0  0  0
 19 28  1  0  0  0  0
 19 20  1  0  0  0  0
 19 21  1  0  0  0  0
 20 45  1  0  0  0  0
 21 29  1  0  0  0  0
 21 22  1  0  0  0  0
 22 46  1  0  0  0  0
 23 24  2  0  0  0  0
 23 47  1  0  0  0  0
 24 25  1  0  0  0  0
M  END
> <s_m_source_file>
AV-unprocessed.smi

> <i_m_source_file_index>
40

> <i_lp_mmshare_version>
43012

> <i_f3d_flags>
0

> <s_epik_input>
W0NIM11bQ0gyXVtDSDJdW0NIMl1bQ0gyXU9DKD1PKVtOSF1jMW5jKD1PKW4oW2NIXWMxRilbQ0BASF0yT1tDQEhdKFtDSDNdKVtDQEBIXShbT0hdKVtDQEhdMltPSF0=

> <s_epik_cmdline>
J2VwaWtfcHl0aG9uJywgJy1waCcsICc3LjAnLCAnLXRuJywgJzgnLCAnLW1hJywgJzIwMCcsICctbWV0YWxfYmluZGluZycsICctaW1hZScsICc8aW5maWxlLm1hZT4nLCAnLW9tYWUnLCAnPG91dGZpbGUubWFlPic=

> <r_lp_tautomer_probability>
1

> <r_epik_Ionization_Penalty>
2.29506e-06

> <r_epik_Ionization_Penalty_Charging>
8.26867e-09

> <r_epik_Ionization_Penalty_Neutral>
2.2868e-06

> <r_epik_State_Penalty>
-0

> <r_epik_Charging_Adjusted_Penalty>
8.26867e-09

> <i_epik_Tot_Q>
0

> <i_epik_Tot_abs_Q>
0

> <r_epik_Metal_State_Penalty>
-0

> <b_epik_Metal_Only>
0

> <s_epik_Chemistry_Notes>
This compound has an ester and may undergo hydrolysis at high or low pH. This compound contains an acetal/aminal-like group ( X-CH(R)-Y where X, Y are N, S, or O) that may be acid/base labile, releasing an aldehyde.

> <s_lp_Force_Field>
OPLS_2005

> <r_lp_Energy>
41.7027

> <b_lp_Chiralities_Consistent>
1

> <s_lp_Variant>
AV-unprocessed.smi:40-15

> <Gold.Version>
5.8.1

> <Gold.Id.Protein>
6NUR|6NUR_protein|mol2

> <Gold.PLP.Fitness>
41.9252

> <Gold.PLP.PLP>
-36.8201

> <Gold.PLP.part.hbond>
-1.0000

> <Gold.PLP.part.metal>
0.0000

> <Gold.PLP.part.buried>
-4.3108

> <Gold.PLP.part.nonpolar>
-31.6192

> <Gold.PLP.part.repulsive>
0.2077

> <Gold.PLP.ligand.clash>
0.0000

> <Gold.PLP.ligand.torsion>
0.5393

> <Gold.PLP.Chemscore.Hbond>
0.9920

> <Gold.PLP.Chemscore.CHOScore>
1.0000

> <Gold.PLP.Chemscore.Metal>
0.0000

> <Gold.Chemscore.Hbonds>
donor molecule, donor type, donor heavy atom, donor atom, acceptor molecule, acceptor atom, score
      P1  H  6896  6907       L1    13  1.00
      L1  C    23    47       P1  7948  1.00

> <Gold.PLP.Chemscore.Internal.Correction>
0.2077

> <Gold.Rescore>
     Score         DG    S(hbond)    S(metal)    S(lipo)     H(rot)  DE(clash)    DE(int)     intcor
      7.05      -8.85       0.95        0.00      82.71       3.70       0.00       1.80       ----

> <Gold.Chemscore.Fitness>
7.0498

> <Gold.Chemscore.DG>
-8.8546

> <Gold.Chemscore.ZeroCoef>
-5.4800

> <Gold.Chemscore.Hbond>
0.9458

> <Gold.Chemscore.Metal>
0.0000

> <Gold.Chemscore.Lipo>
82.7076

> <Gold.Chemscore.Internal_Hbond>
0.0000

> <Gold.Chemscore.DEClash>
0.0000

> <Gold.Chemscore.DEInternal>
1.8049

> <Gold.Chemscore.Rot>
3.6957

> <Gold.Chemscore.Internal.Correction>
   9.000000E+99

> <Gold.Chemscore.Hbonds>
donor molecule, donor type, donor heavy atom, donor atom, acceptor molecule, acceptor atom, score
      P1  H  6896  6907       L1    13  0.95

> <Gold.Chemscore.Hbond.Weighted>
-3.1588

> <Gold.Chemscore.Metal.Weighted>
-0.0000

> <Gold.Chemscore.Lipo.Weighted>
-9.6768

> <Gold.Chemscore.Internal_Hbond.Weighted>
0.0000

> <Gold.Chemscore.DEClash.Weighted>
0.0000

> <Gold.Chemscore.DEInternal.Weighted>
1.8049

> <Gold.Chemscore.Rot.Weighted>
9.4610

> <Gold.Chemscore.Internal.Correction.Weighted>
   9.000000E+99

> <Gold.Protein.RotatedTorsions>
[ 6907 6896 6895 6894 ] final -105.52 input  -60.11 | X-H torsion
[ 7974 7965 7964 7962 ] final -157.73 input  175.53 | X-H torsion
[ 8008 7997 7996 7995 ] final   70.71 input   59.86 | X-H torsion
[ 10167 10162 10161 10158 ] final   17.21 input  -65.29 | X-H torsion
[ 10718 10713 10712 10709 ] final   48.01 input   66.30 | X-H torsion
[ 10763 10752 10751 10750 ] final   82.48 input  -60.55 | X-H torsion
[ 11005 11000 10999 10996 ] final -130.48 input  -57.11 | X-H torsion

> <Gold.Protein.ActiveResidues>
 VAL166  LYS551  ARG553  GLY616  TRP617  ASP618  TYR619  PRO620  LYS621  CYS622 
 ASP623  PHE694  ASN695  SER759  ASP760  ASP761  ALA762  ILE779  LEU786  VAL792 
 PHE793  MET794  SER795  GLU796  ALA797  LYS798  CYS799  TRP800  GLU811  SER814 

> <Gold.Protein.RotatedAtoms>
  150.7341  134.0114  159.3670 H   0  0  0  0  0  0  0  0  0  0  0  0  # atno 6907 bound_to 6896
  151.8074  135.0689  160.0418 H   0  0  0  0  0  0  0  0  0  0  0  0  # atno 6908 bound_to 6896
  152.3097  133.5703  159.5709 H   0  0  0  0  0  0  0  0  0  0  0  0  # atno 6909 bound_to 6896
  144.7536  140.3928  143.6029 H   0  0  0  0  0  0  0  0  0  0  0  0  # atno 7974 bound_to 7965
  155.7430  140.3490  155.5113 H   0  0  0  0  0  0  0  0  0  0  0  0  # atno 8008 bound_to 7997
  155.9077  140.1045  157.1324 H   0  0  0  0  0  0  0  0  0  0  0  0  # atno 8009 bound_to 7997
  154.4052  140.1274  156.4504 H   0  0  0  0  0  0  0  0  0  0  0  0  # atno 8010 bound_to 7997
  140.5742  143.9103  150.6737 H   0  0  0  0  0  0  0  0  0  0  0  0  # atno 10167 bound_to 10162
  157.4643  130.8215  149.7919 H   0  0  0  0  0  0  0  0  0  0  0  0  # atno 10718 bound_to 10713
  153.1207  135.4726  154.9190 H   0  0  0  0  0  0  0  0  0  0  0  0  # atno 10763 bound_to 10752
  154.7572  135.3121  154.8449 H   0  0  0  0  0  0  0  0  0  0  0  0  # atno 10764 bound_to 10752
  153.9014  135.6874  153.4809 H   0  0  0  0  0  0  0  0  0  0  0  0  # atno 10765 bound_to 10752
  140.9342  134.1279  157.4208 H   0  0  0  0  0  0  0  0  0  0  0  0  # atno 11005 bound_to 11000
  145.6858  139.1628  143.2675 LP  0  0  0  0  0  0  0  0  0  0  0  0  # atno 17320 bound_to 7965
  146.1518  140.6915  142.9319 LP  0  0  0  0  0  0  0  0  0  0  0  0  # atno 17321 bound_to 7965
  140.2586  143.3540  152.1342 LP  0  0  0  0  0  0  0  0  0  0  0  0  # atno 17342 bound_to 10162
  139.5134  144.6931  151.5704 LP  0  0  0  0  0  0  0  0  0  0  0  0  # atno 17343 bound_to 10162
  156.0043  130.3864  150.2489 LP  0  0  0  0  0  0  0  0  0  0  0  0  # atno 17370 bound_to 10713
  157.0668  131.0105  151.3204 LP  0  0  0  0  0  0  0  0  0  0  0  0  # atno 17371 bound_to 10713
  139.8804  135.0015  156.6073 LP  0  0  0  0  0  0  0  0  0  0  0  0  # atno 17394 bound_to 11000
  140.7821  133.8651  155.8576 LP  0  0  0  0  0  0  0  0  0  0  0  0  # atno 17395 bound_to 11000

$$$$
