AV-unprocessed.smi:993|AV-procd|sdf|4338|dock6
  -GOLD-   22720 2233D 1   1.00000     0.00000
 Structure written by MMmdl.
 30 31  0  0  0  0  0  0  0  0  3 V2000
  149.6269  141.5672  154.9217 C   0  0  0  0  0  0  0  0  0  0  0  0
  150.5147  141.3284  156.1305 C   0  0  0  0  0  0  0  0  0  0  0  0
  150.7136  142.4330  156.9721 N   0  0  0  0  0  0  0  0  0  0  0  0
  151.4679  142.3238  158.0231 C   0  0  0  0  0  0  0  0  0  0  0  0
  151.6848  143.4053  158.8779 N   0  0  0  0  0  0  0  0  0  0  0  0
  152.3870  143.3200  160.1526 C   0  0  0  0  0  0  0  0  0  0  0  0
  152.1380  144.6463  160.8708 C   0  0  0  0  0  0  0  0  0  0  0  0
  151.9559  145.6295  159.7224 C   0  0  0  0  0  0  0  0  0  0  0  0
  151.2684  144.7859  158.6481 C   0  0  0  0  0  0  0  0  0  0  0  0
  152.1046  141.1412  158.3650 N   0  5  0  0  0  0  0  0  0  0  0  0
  151.9453  140.0234  157.5998 C   0  0  0  0  0  0  0  0  0  0  0  0
  152.4857  138.9565  157.8901 O   0  0  0  0  0  0  0  0  0  0  0  0
  151.0986  140.1258  156.3974 C   0  0  0  0  0  0  0  0  0  0  0  0
  150.9270  138.8961  155.5002 C   0  0  0  0  0  0  0  0  0  0  0  0
  152.2108  138.3889  154.8310 C   0  0  0  0  0  0  0  0  0  0  0  0
  152.1325  137.2855  154.2475 O   0  0  0  0  0  0  0  0  0  0  0  0
  153.2447  139.0895  154.9063 O   0  5  0  0  0  0  0  0  0  0  0  0
  150.2002  141.4612  154.0008 H   0  0  0  0  0  0  0  0  0  0  0  0
  149.1992  142.5702  154.9378 H   0  0  0  0  0  0  0  0  0  0  0  0
  148.8030  140.8538  154.9035 H   0  0  0  0  0  0  0  0  0  0  0  0
  152.0411  142.4749  160.7491 H   0  0  0  0  0  0  0  0  0  0  0  0
  153.4511  143.1838  159.9565 H   0  0  0  0  0  0  0  0  0  0  0  0
  151.2159  144.5842  161.4504 H   0  0  0  0  0  0  0  0  0  0  0  0
  152.9467  144.9217  161.5480 H   0  0  0  0  0  0  0  0  0  0  0  0
  151.3809  146.5130  160.0007 H   0  0  0  0  0  0  0  0  0  0  0  0
  152.9318  145.9588  159.3635 H   0  0  0  0  0  0  0  0  0  0  0  0
  151.5349  145.1281  157.6475 H   0  0  0  0  0  0  0  0  0  0  0  0
  150.1840  144.8456  158.7490 H   0  0  0  0  0  0  0  0  0  0  0  0
  150.5169  138.0814  156.0969 H   0  0  0  0  0  0  0  0  0  0  0  0
  150.1804  139.0803  154.7273 H   0  0  0  0  0  0  0  0  0  0  0  0
  1  2  1  0  0  0  0
  1 18  1  0  0  0  0
  1 19  1  0  0  0  0
  1 20  1  0  0  0  0
  2 13  2  0  0  0  0
  2  3  1  0  0  0  0
  3  4  2  0  0  0  0
  4  5  1  0  0  0  0
  4 10  1  0  0  0  0
  5  9  1  0  0  0  0
  5  6  1  0  0  0  0
  6  7  1  0  0  0  0
  6 21  1  0  0  0  0
  6 22  1  0  0  0  0
  7  8  1  0  0  0  0
  7 23  1  0  0  0  0
  7 24  1  0  0  0  0
  8  9  1  0  0  0  0
  8 25  1  0  0  0  0
  8 26  1  0  0  0  0
  9 27  1  0  0  0  0
  9 28  1  0  0  0  0
 10 11  1  0  0  0  0
 11 12  2  0  0  0  0
 11 13  1  0  0  0  0
 13 14  1  0  0  0  0
 14 15  1  0  0  0  0
 14 29  1  0  0  0  0
 14 30  1  0  0  0  0
 15 16  2  0  0  0  0
 15 17  1  0  0  0  0
M  CHG  1  10  -1
M  CHG  1  17  -1
M  END
> <s_m_source_file>
AV-unprocessed.smi

> <i_m_source_file_index>
993

> <i_lp_mmshare_version>
43012

> <i_f3d_flags>
0

> <s_epik_input>
W0NIMl0xW0NIMl1bQ0gyXVtDSDJdTjFjKG5jMltDSDNdKVtuSF1jKD1PKWMyW0NIMl1DKD1PKVtPSF0=

> <s_epik_cmdline>
J2VwaWtfcHl0aG9uJywgJy1waCcsICc3LjAnLCAnLXRuJywgJzgnLCAnLW1hJywgJzIwMCcsICctbWV0YWxfYmluZGluZycsICctaW1hZScsICc8aW5maWxlLm1hZT4nLCAnLW9tYWUnLCAnPG91dGZpbGUubWFlPic=

> <r_lp_tautomer_probability>
0.878553

> <r_epik_Ionization_Penalty>
9.99622

> <r_epik_Ionization_Penalty_Charging>
0.001774

> <r_epik_Ionization_Penalty_Neutral>
9.99445

> <r_epik_State_Penalty>
6.17728

> <r_epik_Charging_Adjusted_Penalty>
6.17906

> <i_epik_Tot_Q>
-2

> <i_epik_Tot_abs_Q>
2

> <r_epik_Metal_State_Penalty>
2.31379

> <b_epik_Metal_Only>
1

> <s_lp_Force_Field>
OPLS_2005

> <r_lp_Energy>
32.9743

> <b_lp_Chiralities_Consistent>
1

> <s_lp_Variant>
AV-unprocessed.smi:993-4

> <Gold.Version>
5.8.1

> <Gold.Id.Protein>
6NUR|6NUR_protein|mol2

> <Gold.PLP.Fitness>
50.2456

> <Gold.PLP.PLP>
-39.1250

> <Gold.PLP.part.hbond>
-2.5654

> <Gold.PLP.part.metal>
0.0000

> <Gold.PLP.part.buried>
-6.5076

> <Gold.PLP.part.nonpolar>
-32.2255

> <Gold.PLP.part.repulsive>
0.4616

> <Gold.PLP.ligand.clash>
0.0000

> <Gold.PLP.ligand.torsion>
0.1279

> <Gold.PLP.Chemscore.Hbond>
3.7920

> <Gold.PLP.Chemscore.CHOScore>
0.0000

> <Gold.PLP.Chemscore.Metal>
0.0000

> <Gold.Chemscore.Hbonds>
donor molecule, donor type, donor heavy atom, donor atom, acceptor molecule, acceptor atom, score
      P1  H  7997  8010       L1    17  2.00
      P1  H 10752 10764       L1    16  1.79

> <Gold.PLP.Chemscore.Internal.Correction>
0.0005

> <Gold.Rescore>
     Score         DG    S(hbond)    S(metal)    S(lipo)     H(rot)  DE(clash)    DE(int)     intcor
     16.37     -16.62       1.88        0.00      74.23       1.49       0.08       0.17       ----

> <Gold.Chemscore.Fitness>
16.3653

> <Gold.Chemscore.DG>
-16.6158

> <Gold.Chemscore.ZeroCoef>
-5.4800

> <Gold.Chemscore.Hbond>
1.8780

> <Gold.Chemscore.Metal>
0.0000

> <Gold.Chemscore.Lipo>
74.2341

> <Gold.Chemscore.Internal_Hbond>
0.0000

> <Gold.Chemscore.DEClash>
0.0850

> <Gold.Chemscore.DEInternal>
0.1655

> <Gold.Chemscore.Rot>
1.4931

> <Gold.Chemscore.Internal.Correction>
   9.000000E+99

> <Gold.Chemscore.Hbonds>
donor molecule, donor type, donor heavy atom, donor atom, acceptor molecule, acceptor atom, score
      P1  H  7997  8010       L1    17  0.96
      P1  H 10752 10764       L1    16  0.88

> <Gold.Chemscore.Hbond.Weighted>
-6.2727

> <Gold.Chemscore.Metal.Weighted>
-0.0000

> <Gold.Chemscore.Lipo.Weighted>
-8.6854

> <Gold.Chemscore.Internal_Hbond.Weighted>
0.0000

> <Gold.Chemscore.DEClash.Weighted>
0.0850

> <Gold.Chemscore.DEInternal.Weighted>
0.1655

> <Gold.Chemscore.Rot.Weighted>
3.8222

> <Gold.Chemscore.Internal.Correction.Weighted>
   9.000000E+99

> <Gold.Protein.RotatedTorsions>
[ 6907 6896 6895 6894 ] final -155.27 input  -60.11 | X-H torsion
[ 7974 7965 7964 7962 ] final  143.56 input  175.53 | X-H torsion
[ 8008 7997 7996 7995 ] final   91.13 input   59.86 | X-H torsion
[ 10167 10162 10161 10158 ] final -176.36 input  -65.29 | X-H torsion
[ 10718 10713 10712 10709 ] final   73.89 input   66.30 | X-H torsion
[ 10763 10752 10751 10750 ] final  -82.72 input  -60.55 | X-H torsion
[ 11005 11000 10999 10996 ] final   83.37 input  -57.11 | X-H torsion

> <Gold.Protein.ActiveResidues>
 VAL166  LYS551  ARG553  GLY616  TRP617  ASP618  TYR619  PRO620  LYS621  CYS622 
 ASP623  PHE694  ASN695  SER759  ASP760  ASP761  ALA762  ILE779  LEU786  VAL792 
 PHE793  MET794  SER795  GLU796  ALA797  LYS798  CYS799  TRP800  GLU811  SER814 

> <Gold.Protein.RotatedAtoms>
  151.2700  133.4260  159.2620 H   0  0  0  0  0  0  0  0  0  0  0  0  # atno 6907 bound_to 6896
  151.0453  134.9636  159.8193 H   0  0  0  0  0  0  0  0  0  0  0  0  # atno 6908 bound_to 6896
  152.5373  134.2657  159.9005 H   0  0  0  0  0  0  0  0  0  0  0  0  # atno 6909 bound_to 6896
  144.8911  139.5558  143.5798 H   0  0  0  0  0  0  0  0  0  0  0  0  # atno 7974 bound_to 7965
  156.0202  140.3341  155.7030 H   0  0  0  0  0  0  0  0  0  0  0  0  # atno 8008 bound_to 7997
  155.6034  140.0658  157.2744 H   0  0  0  0  0  0  0  0  0  0  0  0  # atno 8009 bound_to 7997
  154.4313  140.1806  156.1184 H   0  0  0  0  0  0  0  0  0  0  0  0  # atno 8010 bound_to 7997
  139.5534  144.2052  152.1116 H   0  0  0  0  0  0  0  0  0  0  0  0  # atno 10167 bound_to 10162
  157.6568  130.9651  150.1133 H   0  0  0  0  0  0  0  0  0  0  0  0  # atno 10718 bound_to 10713
  154.5791  135.5581  153.7168 H   0  0  0  0  0  0  0  0  0  0  0  0  # atno 10763 bound_to 10752
  153.0075  135.6316  154.2007 H   0  0  0  0  0  0  0  0  0  0  0  0  # atno 10764 bound_to 10752
  154.1948  135.2880  155.2990 H   0  0  0  0  0  0  0  0  0  0  0  0  # atno 10765 bound_to 10752
  139.9033  134.8140  156.2300 H   0  0  0  0  0  0  0  0  0  0  0  0  # atno 11005 bound_to 11000
  146.3054  139.7562  142.9060 LP  0  0  0  0  0  0  0  0  0  0  0  0  # atno 17320 bound_to 7965
  145.3782  141.0354  143.3192 LP  0  0  0  0  0  0  0  0  0  0  0  0  # atno 17321 bound_to 7965
  140.1551  144.5078  150.6664 LP  0  0  0  0  0  0  0  0  0  0  0  0  # atno 17342 bound_to 10162
  140.6801  143.2323  151.5406 LP  0  0  0  0  0  0  0  0  0  0  0  0  # atno 17343 bound_to 10162
  156.2024  130.3661  149.8772 LP  0  0  0  0  0  0  0  0  0  0  0  0  # atno 17370 bound_to 10713
  156.6672  130.8806  151.3556 LP  0  0  0  0  0  0  0  0  0  0  0  0  # atno 17371 bound_to 10713
  141.0351  133.6967  156.1499 LP  0  0  0  0  0  0  0  0  0  0  0  0  # atno 17394 bound_to 11000
  140.7039  134.4535  157.5585 LP  0  0  0  0  0  0  0  0  0  0  0  0  # atno 17395 bound_to 11000

$$$$
