AV-unprocessed.smi:1622|AV-procd|sdf|6497|dock4
  -GOLD-   22720 7163D 1   1.00000     0.00000
 Structure written by MMmdl.
 41 42  0  0  0  0  0  0  0  0  2 V2000
  147.0490  138.4798  153.6607 C   0  0  0  0  0  0  0  0  0  0  0  0
  145.7455  137.6818  153.8265 C   0  0  0  0  0  0  0  0  0  0  0  0
  145.1988  137.0472  152.5189 C   0  0  2  0  0  0  0  0  0  0  0  0
  143.6996  136.6592  152.6181 C   0  0  0  0  0  0  0  0  0  0  0  0
  142.8192  137.8247  152.6672 N   0  0  0  0  0  0  0  0  0  0  0  0
  141.5296  137.8111  153.0359 C   0  0  0  0  0  0  0  0  0  0  0  0
  140.9310  136.7904  153.3749 O   0  0  0  0  0  0  0  0  0  0  0  0
  140.9944  139.0438  152.9857 N   0  0  0  0  0  0  0  0  0  0  0  0
  139.6767  139.4430  153.3343 C   0  0  0  0  0  0  0  0  0  0  0  0
  139.3069  140.7197  153.5055 N   0  0  0  0  0  0  0  0  0  0  0  0
  137.9635  140.8300  153.8349 N   0  0  0  0  0  0  0  0  0  0  0  0
  137.3585  139.6380  153.9041 C   0  0  0  0  0  0  0  0  0  0  0  0
  135.9140  139.4856  154.2382 C   0  0  0  0  0  0  0  0  0  0  0  0
  138.3992  138.2610  153.5623 S   0  0  0  0  0  0  0  0  0  0  0  0
  146.0366  135.8904  152.0814 N   0  3  0  0  0  0  0  0  0  0  0  0
  146.1853  134.7997  153.0684 C   0  0  0  0  0  0  0  0  0  0  0  0
  146.6878  133.5910  152.2787 C   0  0  0  0  0  0  0  0  0  0  0  0
  146.2324  133.8323  150.8376 C   0  0  0  0  0  0  0  0  0  0  0  0
  145.5976  135.2265  150.8335 C   0  0  0  0  0  0  0  0  0  0  0  0
  147.3727  138.8865  154.6189 H   0  0  0  0  0  0  0  0  0  0  0  0
  146.9231  139.3183  152.9759 H   0  0  0  0  0  0  0  0  0  0  0  0
  147.8594  137.8590  153.2819 H   0  0  0  0  0  0  0  0  0  0  0  0
  145.9034  136.9063  154.5757 H   0  0  0  0  0  0  0  0  0  0  0  0
  144.9904  138.3318  154.2686 H   0  0  0  0  0  0  0  0  0  0  0  0
  145.2794  137.8081  151.7406 H   0  0  0  0  0  0  0  0  0  0  0  0
  143.3939  136.0939  151.7382 H   0  0  0  0  0  0  0  0  0  0  0  0
  143.5351  135.9972  153.4696 H   0  0  0  0  0  0  0  0  0  0  0  0
  143.2247  138.7103  152.4008 H   0  0  0  0  0  0  0  0  0  0  0  0
  141.6012  139.7863  152.6708 H   0  0  0  0  0  0  0  0  0  0  0  0
  135.5555  140.3548  154.7907 H   0  0  0  0  0  0  0  0  0  0  0  0
  135.7623  138.5973  154.8516 H   0  0  0  0  0  0  0  0  0  0  0  0
  135.3296  139.3853  153.3238 H   0  0  0  0  0  0  0  0  0  0  0  0
  146.8708  135.0642  153.8742 H   0  0  0  0  0  0  0  0  0  0  0  0
  145.2129  134.5718  153.5083 H   0  0  0  0  0  0  0  0  0  0  0  0
  147.7772  133.5475  152.3167 H   0  0  0  0  0  0  0  0  0  0  0  0
  146.3069  132.6531  152.6841 H   0  0  0  0  0  0  0  0  0  0  0  0
  147.0889  133.7964  150.1632 H   0  0  0  0  0  0  0  0  0  0  0  0
  145.5212  133.0756  150.5048 H   0  0  0  0  0  0  0  0  0  0  0  0
  144.5106  135.1292  150.8352 H   0  0  0  0  0  0  0  0  0  0  0  0
  145.8832  135.7961  149.9487 H   0  0  0  0  0  0  0  0  0  0  0  0
  146.9669  136.2426  151.9057 H   0  0  0  0  0  0  0  0  0  0  0  0
  1  2  1  0  0  0  0
  1 20  1  0  0  0  0
  1 21  1  0  0  0  0
  1 22  1  0  0  0  0
  2  3  1  0  0  0  0
  2 23  1  0  0  0  0
  2 24  1  0  0  0  0
  3  4  1  0  0  0  0
  3 15  1  0  0  0  0
  3 25  1  0  0  0  0
  4  5  1  0  0  0  0
  4 26  1  0  0  0  0
  4 27  1  0  0  0  0
  5  6  1  0  0  0  0
  5 28  1  0  0  0  0
  6  7  2  0  0  0  0
  6  8  1  0  0  0  0
  8  9  1  0  0  0  0
  8 29  1  0  0  0  0
  9 14  1  0  0  0  0
  9 10  2  0  0  0  0
 10 11  1  0  0  0  0
 11 12  2  0  0  0  0
 12 13  1  0  0  0  0
 12 14  1  0  0  0  0
 13 30  1  0  0  0  0
 13 31  1  0  0  0  0
 13 32  1  0  0  0  0
 15 19  1  0  0  0  0
 15 16  1  0  0  0  0
 15 41  1  0  0  0  0
 16 17  1  0  0  0  0
 16 33  1  0  0  0  0
 16 34  1  0  0  0  0
 17 18  1  0  0  0  0
 17 35  1  0  0  0  0
 17 36  1  0  0  0  0
 18 19  1  0  0  0  0
 18 37  1  0  0  0  0
 18 38  1  0  0  0  0
 19 39  1  0  0  0  0
 19 40  1  0  0  0  0
M  CHG  1  15   1
M  END
> <s_m_source_file>
AV-unprocessed.smi

> <i_m_source_file_index>
1622

> <i_lp_mmshare_version>
43012

> <i_f3d_flags>
0

> <s_epik_input>
W0NIMl0xW0NIMl1bQ0gyXVtDSDJdTjFbQ0BIXShbQ0gyXVtDSDNdKVtDSDJdW05IXUMoPU8pW05IXWMybm5jKHMyKVtDSDNd

> <s_epik_cmdline>
J2VwaWtfcHl0aG9uJywgJy1waCcsICc3LjAnLCAnLXRuJywgJzgnLCAnLW1hJywgJzIwMCcsICctbWV0YWxfYmluZGluZycsICctaW1hZScsICc8aW5maWxlLm1hZT4nLCAnLW9tYWUnLCAnPG91dGZpbGUubWFlPic=

> <r_lp_tautomer_probability>
1

> <r_epik_Ionization_Penalty>
0.00164835

> <r_epik_Ionization_Penalty_Charging>
0.00115997

> <r_epik_Ionization_Penalty_Neutral>
0.00048838

> <r_epik_State_Penalty>
-0

> <r_epik_Charging_Adjusted_Penalty>
0.00115997

> <i_epik_Tot_Q>
1

> <i_epik_Tot_abs_Q>
1

> <r_epik_Metal_State_Penalty>
0.216651

> <b_epik_Metal_Only>
0

> <s_lp_Force_Field>
OPLS_2005

> <r_lp_Energy>
32.351

> <b_lp_Chiralities_Consistent>
1

> <s_lp_Variant>
AV-unprocessed.smi:1622-1

> <Gold.Version>
5.8.1

> <Gold.Id.Protein>
6NUR|6NUR_protein|mol2

> <Gold.PLP.Fitness>
39.1284

> <Gold.PLP.PLP>
-27.8187

> <Gold.PLP.part.hbond>
-4.3378

> <Gold.PLP.part.metal>
0.0000

> <Gold.PLP.part.buried>
-4.4771

> <Gold.PLP.part.nonpolar>
-19.9205

> <Gold.PLP.part.repulsive>
0.6077

> <Gold.PLP.ligand.clash>
0.0000

> <Gold.PLP.ligand.torsion>
0.3841

> <Gold.PLP.Chemscore.Hbond>
4.0000

> <Gold.PLP.Chemscore.CHOScore>
0.0000

> <Gold.PLP.Chemscore.Metal>
0.0000

> <Gold.Chemscore.Hbonds>
donor molecule, donor type, donor heavy atom, donor atom, acceptor molecule, acceptor atom, score
      L1  H     5    28       P1 10175  1.00
      L1  H     8    29       P1 10175  0.61
      L1  H    15    41       P1  7948  2.00

> <Gold.PLP.Chemscore.Internal.Correction>
0.0778

> <Gold.Rescore>
     Score         DG    S(hbond)    S(metal)    S(lipo)     H(rot)  DE(clash)    DE(int)     intcor
     14.53     -16.27       2.79        0.00      51.45       1.77       0.05       1.68       ----

> <Gold.Chemscore.Fitness>
14.5332

> <Gold.Chemscore.DG>
-16.2650

> <Gold.Chemscore.ZeroCoef>
-5.4800

> <Gold.Chemscore.Hbond>
2.7865

> <Gold.Chemscore.Metal>
0.0000

> <Gold.Chemscore.Lipo>
51.4452

> <Gold.Chemscore.Internal_Hbond>
0.0000

> <Gold.Chemscore.DEClash>
0.0474

> <Gold.Chemscore.DEInternal>
1.6844

> <Gold.Chemscore.Rot>
1.7738

> <Gold.Chemscore.Internal.Correction>
   9.000000E+99

> <Gold.Chemscore.Hbonds>
donor molecule, donor type, donor heavy atom, donor atom, acceptor molecule, acceptor atom, score
      L1  H     5    28       P1 10175  1.00
      L1  H     8    29       P1 10175  0.07
      L1  H    15    41       P1  7948  0.98

> <Gold.Chemscore.Hbond.Weighted>
-9.3070

> <Gold.Chemscore.Metal.Weighted>
-0.0000

> <Gold.Chemscore.Lipo.Weighted>
-6.0191

> <Gold.Chemscore.Internal_Hbond.Weighted>
0.0000

> <Gold.Chemscore.DEClash.Weighted>
0.0474

> <Gold.Chemscore.DEInternal.Weighted>
1.6844

> <Gold.Chemscore.Rot.Weighted>
4.5411

> <Gold.Chemscore.Internal.Correction.Weighted>
   9.000000E+99

> <Gold.Protein.RotatedTorsions>
[ 6907 6896 6895 6894 ] final -102.31 input  -60.11 | X-H torsion
[ 7974 7965 7964 7962 ] final  -99.85 input  175.53 | X-H torsion
[ 8008 7997 7996 7995 ] final -150.70 input   59.86 | X-H torsion
[ 10167 10162 10161 10158 ] final -123.50 input  -65.29 | X-H torsion
[ 10718 10713 10712 10709 ] final  -18.83 input   66.30 | X-H torsion
[ 10763 10752 10751 10750 ] final -118.31 input  -60.55 | X-H torsion
[ 11005 11000 10999 10996 ] final  -41.54 input  -57.11 | X-H torsion

> <Gold.Protein.ActiveResidues>
 VAL166  LYS551  ARG553  GLY616  TRP617  ASP618  TYR619  PRO620  LYS621  CYS622 
 ASP623  PHE694  ASN695  SER759  ASP760  ASP761  ALA762  ILE779  LEU786  VAL792 
 PHE793  MET794  SER795  GLU796  ALA797  LYS798  CYS799  TRP800  GLU811  SER814 

> <Gold.Protein.RotatedAtoms>
  150.7190  134.0601  159.3828 H   0  0  0  0  0  0  0  0  0  0  0  0  # atno 6907 bound_to 6896
  151.8581  135.0532  160.0475 H   0  0  0  0  0  0  0  0  0  0  0  0  # atno 6908 bound_to 6896
  152.2738  133.5371  159.5492 H   0  0  0  0  0  0  0  0  0  0  0  0  # atno 6909 bound_to 6896
  145.3022  140.9380  143.2817 H   0  0  0  0  0  0  0  0  0  0  0  0  # atno 7974 bound_to 7965
  155.6277  140.0688  157.2658 H   0  0  0  0  0  0  0  0  0  0  0  0  # atno 8008 bound_to 7997
  154.4213  140.1773  156.1488 H   0  0  0  0  0  0  0  0  0  0  0  0  # atno 8009 bound_to 7997
  155.9958  140.3341  155.6800 H   0  0  0  0  0  0  0  0  0  0  0  0  # atno 8010 bound_to 7997
  140.0028  143.5522  152.2296 H   0  0  0  0  0  0  0  0  0  0  0  0  # atno 10167 bound_to 10162
  156.5540  130.4709  149.6438 H   0  0  0  0  0  0  0  0  0  0  0  0  # atno 10718 bound_to 10713
  154.8583  135.4278  154.2119 H   0  0  0  0  0  0  0  0  0  0  0  0  # atno 10763 bound_to 10752
  153.3142  135.6978  153.7094 H   0  0  0  0  0  0  0  0  0  0  0  0  # atno 10764 bound_to 10752
  153.6174  135.3508  155.2973 H   0  0  0  0  0  0  0  0  0  0  0  0  # atno 10765 bound_to 10752
  141.0253  133.6844  156.2472 H   0  0  0  0  0  0  0  0  0  0  0  0  # atno 11005 bound_to 11000
  144.9084  139.4560  143.6599 LP  0  0  0  0  0  0  0  0  0  0  0  0  # atno 17320 bound_to 7965
  146.3148  139.7878  142.8992 LP  0  0  0  0  0  0  0  0  0  0  0  0  # atno 17321 bound_to 7965
  139.6259  144.7637  151.2639 LP  0  0  0  0  0  0  0  0  0  0  0  0  # atno 17342 bound_to 10162
  140.7412  143.6564  150.8202 LP  0  0  0  0  0  0  0  0  0  0  0  0  # atno 17343 bound_to 10162
  156.2858  130.7097  151.1933 LP  0  0  0  0  0  0  0  0  0  0  0  0  # atno 17370 bound_to 10713
  157.7382  131.0544  150.5310 LP  0  0  0  0  0  0  0  0  0  0  0  0  # atno 17371 bound_to 10713
  140.6502  134.5075  157.5577 LP  0  0  0  0  0  0  0  0  0  0  0  0  # atno 17394 bound_to 11000
  139.9172  134.8222  156.1327 LP  0  0  0  0  0  0  0  0  0  0  0  0  # atno 17395 bound_to 11000

$$$$
