AV-unprocessed.smi:1502|AV-procd|sdf|6067|dock1
  -GOLD-   22720 6183D 1   1.00000     0.00000
 Structure written by MMmdl.
 40 41  0  0  0  0  0  0  0  0  1 V2000
  151.2763  140.8045  155.5056 O   0  0  0  0  0  0  0  0  0  0  0  0
  150.2285  141.4479  155.5535 C   0  0  0  0  0  0  0  0  0  0  0  0
  149.1882  141.2656  154.4337 C   0  0  0  0  0  0  0  0  0  0  0  0
  147.8346  141.7470  154.7579 N   0  0  0  0  0  0  0  0  0  0  0  0
  147.3617  142.7207  153.8954 N   0  0  0  0  0  0  0  0  0  0  0  0
  146.1933  143.2276  154.0900 C   0  0  0  0  0  0  0  0  0  0  0  0
  145.3464  142.8124  155.1862 C   0  0  0  0  0  0  0  0  0  0  0  0
  143.7881  143.5294  155.3974 Cl  0  0  0  0  0  0  0  0  0  0  0  0
  145.8176  141.8550  156.0241 C   0  0  0  0  0  0  0  0  0  0  0  0
  144.8627  141.3080  157.3592 Cl  0  0  0  0  0  0  0  0  0  0  0  0
  147.1454  141.2551  155.8337 C   0  0  0  0  0  0  0  0  0  0  0  0
  147.6122  140.3913  156.5768 O   0  0  0  0  0  0  0  0  0  0  0  0
  149.9472  142.3108  156.5454 N   0  0  0  0  0  0  0  0  0  0  0  0
  150.7942  142.6041  157.6989 C   0  0  0  0  0  0  0  0  0  0  0  0
  152.0007  143.4594  157.2469 C   0  0  0  0  0  0  0  0  0  0  0  0
  152.1571  144.8007  157.9887 C   0  0  0  0  0  0  0  0  0  0  0  0
  151.9831  144.7935  159.5221 C   0  0  0  0  0  0  0  0  0  0  0  0
  152.8173  143.7618  160.3015 C   0  0  0  0  0  0  0  0  0  0  0  0
  152.1213  142.4074  160.5601 C   0  0  0  0  0  0  0  0  0  0  0  0
  152.3090  141.3527  159.4553 C   0  0  0  0  0  0  0  0  0  0  0  0
  151.2025  141.2796  158.3828 C   0  0  0  0  0  0  0  0  0  0  0  0
  149.5609  141.7821  153.5473 H   0  0  0  0  0  0  0  0  0  0  0  0
  149.1566  140.2104  154.1564 H   0  0  0  0  0  0  0  0  0  0  0  0
  145.7804  143.9976  153.4381 H   0  0  0  0  0  0  0  0  0  0  0  0
  149.0638  142.7976  156.5014 H   0  0  0  0  0  0  0  0  0  0  0  0
  150.1877  143.1782  158.3981 H   0  0  0  0  0  0  0  0  0  0  0  0
  152.9271  142.8932  157.3304 H   0  0  0  0  0  0  0  0  0  0  0  0
  151.9282  143.6824  156.1811 H   0  0  0  0  0  0  0  0  0  0  0  0
  153.1374  145.2120  157.7460 H   0  0  0  0  0  0  0  0  0  0  0  0
  151.4360  145.5075  157.5765 H   0  0  0  0  0  0  0  0  0  0  0  0
  152.2710  145.7857  159.8717 H   0  0  0  0  0  0  0  0  0  0  0  0
  150.9318  144.7065  159.7954 H   0  0  0  0  0  0  0  0  0  0  0  0
  153.7973  143.6250  159.8435 H   0  0  0  0  0  0  0  0  0  0  0  0
  153.0200  144.1994  161.2800 H   0  0  0  0  0  0  0  0  0  0  0  0
  152.5680  141.9954  161.4658 H   0  0  0  0  0  0  0  0  0  0  0  0
  151.0658  142.5409  160.8000 H   0  0  0  0  0  0  0  0  0  0  0  0
  153.2899  141.4665  158.9946 H   0  0  0  0  0  0  0  0  0  0  0  0
  152.3463  140.3725  159.9321 H   0  0  0  0  0  0  0  0  0  0  0  0
  150.3137  140.8361  158.8336 H   0  0  0  0  0  0  0  0  0  0  0  0
  151.5285  140.5694  157.6216 H   0  0  0  0  0  0  0  0  0  0  0  0
  1  2  2  0  0  0  0
  2  3  1  0  0  0  0
  2 13  1  0  0  0  0
  3  4  1  0  0  0  0
  3 22  1  0  0  0  0
  3 23  1  0  0  0  0
  4 11  1  0  0  0  0
  4  5  1  0  0  0  0
  5  6  2  0  0  0  0
  6  7  1  0  0  0  0
  6 24  1  0  0  0  0
  7  8  1  0  0  0  0
  7  9  2  0  0  0  0
  9 10  1  0  0  0  0
  9 11  1  0  0  0  0
 11 12  2  0  0  0  0
 13 14  1  0  0  0  0
 13 25  1  0  0  0  0
 14 21  1  0  0  0  0
 14 15  1  0  0  0  0
 14 26  1  0  0  0  0
 15 16  1  0  0  0  0
 15 27  1  0  0  0  0
 15 28  1  0  0  0  0
 16 17  1  0  0  0  0
 16 29  1  0  0  0  0
 16 30  1  0  0  0  0
 17 18  1  0  0  0  0
 17 31  1  0  0  0  0
 17 32  1  0  0  0  0
 18 19  1  0  0  0  0
 18 33  1  0  0  0  0
 18 34  1  0  0  0  0
 19 20  1  0  0  0  0
 19 35  1  0  0  0  0
 19 36  1  0  0  0  0
 20 21  1  0  0  0  0
 20 37  1  0  0  0  0
 20 38  1  0  0  0  0
 21 39  1  0  0  0  0
 21 40  1  0  0  0  0
M  END
> <s_m_source_file>
AV-unprocessed.smi

> <i_m_source_file_index>
1502

> <i_lp_mmshare_version>
43012

> <i_f3d_flags>
0

> <s_epik_input>
Tz1jMWMoQ2wpYyhDbClbY0hdbm4xW0NIMl1DKD1PKVtOSF1bQ0hdMltDSDJdW0NIMl1bQ0gyXVtDSDJdW0NIMl1bQ0gyXVtDSDJdMg==

> <s_epik_cmdline>
J2VwaWtfcHl0aG9uJywgJy1waCcsICc3LjAnLCAnLXRuJywgJzgnLCAnLW1hJywgJzIwMCcsICctbWV0YWxfYmluZGluZycsICctaW1hZScsICc8aW5maWxlLm1hZT4nLCAnLW9tYWUnLCAnPG91dGZpbGUubWFlPic=

> <r_lp_tautomer_probability>
1

> <r_epik_Ionization_Penalty>
2.0245e-08

> <r_epik_Ionization_Penalty_Charging>
3.01779e-11

> <r_epik_Ionization_Penalty_Neutral>
2.02148e-08

> <r_epik_State_Penalty>
-0

> <r_epik_Charging_Adjusted_Penalty>
3.01779e-11

> <i_epik_Tot_Q>
0

> <i_epik_Tot_abs_Q>
0

> <r_epik_Metal_State_Penalty>
-0

> <b_epik_Metal_Only>
0

> <s_lp_Force_Field>
OPLS_2005

> <r_lp_Energy>
35.729

> <b_lp_Chiralities_Consistent>
1

> <s_lp_Variant>
AV-unprocessed.smi:1502-1

> <Gold.Version>
5.8.1

> <Gold.Id.Protein>
6NUR|6NUR_protein|mol2

> <Gold.PLP.Fitness>
43.3825

> <Gold.PLP.PLP>
-40.4443

> <Gold.PLP.part.hbond>
-2.9485

> <Gold.PLP.part.metal>
0.0000

> <Gold.PLP.part.buried>
-3.0960

> <Gold.PLP.part.nonpolar>
-33.7406

> <Gold.PLP.part.repulsive>
0.9715

> <Gold.PLP.ligand.clash>
0.0000

> <Gold.PLP.ligand.torsion>
0.3463

> <Gold.PLP.Chemscore.Hbond>
1.2027

> <Gold.PLP.Chemscore.CHOScore>
0.0000

> <Gold.PLP.Chemscore.Metal>
0.0000

> <Gold.Chemscore.Hbonds>
donor molecule, donor type, donor heavy atom, donor atom, acceptor molecule, acceptor atom, score
      L1  H    13    25       P1  8028  0.36
      P1  H  7989  7998       L1     1  0.74
      P1  H  8022  8030       L1     5  0.06

> <Gold.PLP.Chemscore.Internal.Correction>
0.0227

> <Gold.Rescore>
     Score         DG    S(hbond)    S(metal)    S(lipo)     H(rot)  DE(clash)    DE(int)     intcor
     13.16     -17.38       0.85        0.00     109.91       1.49       1.86       2.35       ----

> <Gold.Chemscore.Fitness>
13.1608

> <Gold.Chemscore.DG>
-17.3766

> <Gold.Chemscore.ZeroCoef>
-5.4800

> <Gold.Chemscore.Hbond>
0.8511

> <Gold.Chemscore.Metal>
0.0000

> <Gold.Chemscore.Lipo>
109.9095

> <Gold.Chemscore.Internal_Hbond>
0.0000

> <Gold.Chemscore.DEClash>
1.8617

> <Gold.Chemscore.DEInternal>
2.3540

> <Gold.Chemscore.Rot>
1.4866

> <Gold.Chemscore.Internal.Correction>
   9.000000E+99

> <Gold.Chemscore.Hbonds>
donor molecule, donor type, donor heavy atom, donor atom, acceptor molecule, acceptor atom, score
      L1  H    13    25       P1  8028  0.37
      P1  H  7989  7998       L1     1  0.18
      P1  H  8022  8030       L1     5  0.02

> <Gold.Chemscore.Hbond.Weighted>
-2.8428

> <Gold.Chemscore.Metal.Weighted>
-0.0000

> <Gold.Chemscore.Lipo.Weighted>
-12.8594

> <Gold.Chemscore.Internal_Hbond.Weighted>
0.0000

> <Gold.Chemscore.DEClash.Weighted>
1.8617

> <Gold.Chemscore.DEInternal.Weighted>
2.3540

> <Gold.Chemscore.Rot.Weighted>
3.8057

> <Gold.Chemscore.Internal.Correction.Weighted>
   9.000000E+99

> <Gold.Protein.RotatedTorsions>
[ 6907 6896 6895 6894 ] final  139.05 input  -60.11 | X-H torsion
[ 7974 7965 7964 7962 ] final  170.94 input  175.53 | X-H torsion
[ 8008 7997 7996 7995 ] final  125.04 input   59.86 | X-H torsion
[ 10167 10162 10161 10158 ] final  -44.85 input  -65.29 | X-H torsion
[ 10718 10713 10712 10709 ] final -174.60 input   66.30 | X-H torsion
[ 10763 10752 10751 10750 ] final -117.83 input  -60.55 | X-H torsion
[ 11005 11000 10999 10996 ] final  136.83 input  -57.11 | X-H torsion

> <Gold.Protein.ActiveResidues>
 VAL166  LYS551  ARG553  GLY616  TRP617  ASP618  TYR619  PRO620  LYS621  CYS622 
 ASP623  PHE694  ASN695  SER759  ASP760  ASP761  ALA762  ILE779  LEU786  VAL792 
 PHE793  MET794  SER795  GLU796  ALA797  LYS798  CYS799  TRP800  GLU811  SER814 

> <Gold.Protein.RotatedAtoms>
  152.2594  133.5284  159.5372 H   0  0  0  0  0  0  0  0  0  0  0  0  # atno 6907 bound_to 6896
  150.7120  134.0850  159.3920 H   0  0  0  0  0  0  0  0  0  0  0  0  # atno 6908 bound_to 6896
  151.8768  135.0469  160.0535 H   0  0  0  0  0  0  0  0  0  0  0  0  # atno 6909 bound_to 6896
  144.7309  139.9276  143.6423 H   0  0  0  0  0  0  0  0  0  0  0  0  # atno 7974 bound_to 7965
  156.2821  140.2725  156.1885 H   0  0  0  0  0  0  0  0  0  0  0  0  # atno 8008 bound_to 7997
  155.0483  140.0386  157.2552 H   0  0  0  0  0  0  0  0  0  0  0  0  # atno 8009 bound_to 7997
  154.7216  140.2689  155.6541 H   0  0  0  0  0  0  0  0  0  0  0  0  # atno 8010 bound_to 7997
  140.6881  143.2909  151.3555 H   0  0  0  0  0  0  0  0  0  0  0  0  # atno 10167 bound_to 10162
  156.7874  130.9505  151.3120 H   0  0  0  0  0  0  0  0  0  0  0  0  # atno 10718 bound_to 10713
  154.8568  135.4295  154.2042 H   0  0  0  0  0  0  0  0  0  0  0  0  # atno 10763 bound_to 10752
  153.3082  135.6974  153.7146 H   0  0  0  0  0  0  0  0  0  0  0  0  # atno 10764 bound_to 10752
  153.6249  135.3495  155.2997 H   0  0  0  0  0  0  0  0  0  0  0  0  # atno 10765 bound_to 10752
  140.0072  134.9454  157.0201 H   0  0  0  0  0  0  0  0  0  0  0  0  # atno 11005 bound_to 11000
  146.0882  139.3871  143.0422 LP  0  0  0  0  0  0  0  0  0  0  0  0  # atno 17320 bound_to 7965
  145.7748  140.9881  143.1130 LP  0  0  0  0  0  0  0  0  0  0  0  0  # atno 17321 bound_to 7965
  139.6257  144.0819  152.2432 LP  0  0  0  0  0  0  0  0  0  0  0  0  # atno 17342 bound_to 10162
  140.0277  144.6104  150.7513 LP  0  0  0  0  0  0  0  0  0  0  0  0  # atno 17343 bound_to 10162
  157.6617  130.8972  149.9844 LP  0  0  0  0  0  0  0  0  0  0  0  0  # atno 17370 bound_to 10713
  156.1180  130.3647  149.9935 LP  0  0  0  0  0  0  0  0  0  0  0  0  # atno 17371 bound_to 10713
  140.4619  134.1475  155.7192 LP  0  0  0  0  0  0  0  0  0  0  0  0  # atno 17394 bound_to 11000
  141.1686  133.8654  157.1641 LP  0  0  0  0  0  0  0  0  0  0  0  0  # atno 17395 bound_to 11000

$$$$
