AV-unprocessed.smi:1582|AV-procd|sdf|6362|dock7
  -GOLD-   22720 6583D 1   1.00000     0.00000
 Structure written by MMmdl.
 41 42  0  0  0  0  0  0  0  0  2 V2000
  144.8372  137.6861  152.8230 O   0  0  0  0  0  0  0  0  0  0  0  0
  145.9427  137.3472  152.4018 C   0  0  0  0  0  0  0  0  0  0  0  0
  146.9685  138.1964  152.2494 N   0  0  0  0  0  0  0  0  0  0  0  0
  146.9461  139.6144  152.5959 C   0  0  0  0  0  0  0  0  0  0  0  0
  147.7806  139.9457  153.8512 C   0  0  1  0  0  0  0  0  0  0  0  0
  149.0465  139.3362  153.6961 O   0  0  0  0  0  0  0  0  0  0  0  0
  147.9851  141.4609  154.0684 C   0  0  0  0  0  0  0  0  0  0  0  0
  148.6042  141.7689  155.3835 N   0  3  0  0  0  0  0  0  0  0  0  0
  147.9683  141.0139  156.4947 C   0  0  0  0  0  0  0  0  0  0  0  0
  148.5249  141.4549  157.8590 C   0  0  0  0  0  0  0  0  0  0  0  0
  150.0513  141.3093  157.9045 C   0  0  0  0  0  0  0  0  0  0  0  0
  150.6841  142.0682  156.7310 C   0  0  0  0  0  0  0  0  0  0  0  0
  150.0841  141.6106  155.3906 C   0  0  0  0  0  0  0  0  0  0  0  0
  146.2829  136.1008  152.0364 N   0  0  0  0  0  0  0  0  0  0  0  0
  145.4687  134.9415  152.0809 C   0  0  0  0  0  0  0  0  0  0  0  0
  145.1901  133.9937  151.0524 C   0  0  0  0  0  0  0  0  0  0  0  0
  144.3762  133.0414  151.4858 N   0  0  0  0  0  0  0  0  0  0  0  0
  144.1334  133.3702  152.7746 N   0  0  0  0  0  0  0  0  0  0  0  0
  144.7786  134.5186  153.1775 C   0  0  0  0  0  0  0  0  0  0  0  0
  143.5318  132.8068  153.3589 H   0  0  0  0  0  0  0  0  0  0  0  0
  147.8409  137.8275  151.8998 H   0  0  0  0  0  0  0  0  0  0  0  0
  147.2983  140.1967  151.7424 H   0  0  0  0  0  0  0  0  0  0  0  0
  145.9054  139.9001  152.7537 H   0  0  0  0  0  0  0  0  0  0  0  0
  147.3029  139.4951  154.7201 H   0  0  0  0  0  0  0  0  0  0  0  0
  149.3017  139.3913  152.7876 H   0  0  0  0  0  0  0  0  0  0  0  0
  148.6150  141.8410  153.2627 H   0  0  0  0  0  0  0  0  0  0  0  0
  147.0400  142.0000  153.9914 H   0  0  0  0  0  0  0  0  0  0  0  0
  146.8900  141.1775  156.4820 H   0  0  0  0  0  0  0  0  0  0  0  0
  148.1293  139.9444  156.3481 H   0  0  0  0  0  0  0  0  0  0  0  0
  148.2499  142.4934  158.0480 H   0  0  0  0  0  0  0  0  0  0  0  0
  148.0707  140.8647  158.6555 H   0  0  0  0  0  0  0  0  0  0  0  0
  150.4387  141.6865  158.8514 H   0  0  0  0  0  0  0  0  0  0  0  0
  150.3240  140.2542  157.8526 H   0  0  0  0  0  0  0  0  0  0  0  0
  150.5233  143.1398  156.8575 H   0  0  0  0  0  0  0  0  0  0  0  0
  151.7639  141.9159  156.7280 H   0  0  0  0  0  0  0  0  0  0  0  0
  150.3410  140.5668  155.2035 H   0  0  0  0  0  0  0  0  0  0  0  0
  150.5349  142.1926  154.5877 H   0  0  0  0  0  0  0  0  0  0  0  0
  147.2280  135.9622  151.7099 H   0  0  0  0  0  0  0  0  0  0  0  0
  145.5371  133.9566  150.0306 H   0  0  0  0  0  0  0  0  0  0  0  0
  144.6905  134.9196  154.1765 H   0  0  0  0  0  0  0  0  0  0  0  0
  148.4116  142.7448  155.5617 H   0  0  0  0  0  0  0  0  0  0  0  0
  1  2  2  0  0  0  0
  2  3  1  0  0  0  0
  2 14  1  0  0  0  0
  3  4  1  0  0  0  0
  3 21  1  0  0  0  0
  4  5  1  0  0  0  0
  4 22  1  0  0  0  0
  4 23  1  0  0  0  0
  5  6  1  0  0  0  0
  5  7  1  0  0  0  0
  5 24  1  0  0  0  0
  6 25  1  0  0  0  0
  7  8  1  0  0  0  0
  7 26  1  0  0  0  0
  7 27  1  0  0  0  0
  8 13  1  0  0  0  0
  8  9  1  0  0  0  0
  8 41  1  0  0  0  0
  9 10  1  0  0  0  0
  9 28  1  0  0  0  0
  9 29  1  0  0  0  0
 10 11  1  0  0  0  0
 10 30  1  0  0  0  0
 10 31  1  0  0  0  0
 11 12  1  0  0  0  0
 11 32  1  0  0  0  0
 11 33  1  0  0  0  0
 12 13  1  0  0  0  0
 12 34  1  0  0  0  0
 12 35  1  0  0  0  0
 13 36  1  0  0  0  0
 13 37  1  0  0  0  0
 14 15  1  0  0  0  0
 14 38  1  0  0  0  0
 15 19  2  0  0  0  0
 15 16  1  0  0  0  0
 16 17  2  0  0  0  0
 16 39  1  0  0  0  0
 17 18  1  0  0  0  0
 18 20  1  0  0  0  0
 18 19  1  0  0  0  0
 19 40  1  0  0  0  0
M  CHG  1   8   1
M  END
> <s_m_source_file>
AV-unprocessed.smi

> <i_m_source_file_index>
1582

> <i_lp_mmshare_version>
43012

> <i_f3d_flags>
0

> <s_epik_input>
W2NIXTFbbkhdbltjSF1jMVtOSF1DKD1PKVtOSF1bQ0gyXVtDQEhdKFtPSF0pW0NIMl1OMltDSDJdW0NIMl1bQ0gyXVtDSDJdW0NIMl0y

> <s_epik_cmdline>
J2VwaWtfcHl0aG9uJywgJy1waCcsICc3LjAnLCAnLXRuJywgJzgnLCAnLW1hJywgJzIwMCcsICctbWV0YWxfYmluZGluZycsICctaW1hZScsICc8aW5maWxlLm1hZT4nLCAnLW9tYWUnLCAnPG91dGZpbGUubWFlPic=

> <r_lp_tautomer_probability>
0.5

> <r_epik_Ionization_Penalty>
0.00519658

> <r_epik_Ionization_Penalty_Charging>
0.00515354

> <r_epik_Ionization_Penalty_Neutral>
4.30332e-05

> <r_epik_State_Penalty>
0.00375424

> <r_epik_Charging_Adjusted_Penalty>
0.00890779

> <i_epik_Tot_Q>
1

> <i_epik_Tot_abs_Q>
1

> <r_epik_Metal_State_Penalty>
-0

> <b_epik_Metal_Only>
0

> <s_lp_Force_Field>
OPLS_2005

> <r_lp_Energy>
21.3928

> <b_lp_Chiralities_Consistent>
1

> <s_lp_Variant>
AV-unprocessed.smi:1582-2

> <Gold.Version>
5.8.1

> <Gold.Id.Protein>
6NUR|6NUR_protein|mol2

> <Gold.PLP.Fitness>
46.7103

> <Gold.PLP.PLP>
-27.6665

> <Gold.PLP.part.hbond>
-5.0000

> <Gold.PLP.part.metal>
0.0000

> <Gold.PLP.part.buried>
-5.1204

> <Gold.PLP.part.nonpolar>
-19.8626

> <Gold.PLP.part.repulsive>
1.5020

> <Gold.PLP.ligand.clash>
0.0000

> <Gold.PLP.ligand.torsion>
0.7902

> <Gold.PLP.Chemscore.Hbond>
5.8480

> <Gold.PLP.Chemscore.CHOScore>
1.0000

> <Gold.PLP.Chemscore.Metal>
0.0000

> <Gold.Chemscore.Hbonds>
donor molecule, donor type, donor heavy atom, donor atom, acceptor molecule, acceptor atom, score
      L1  H     3    21       P1  7948  0.90
      L1  H     6    25       P1  7957  1.00
      L1  H     8    41       P1  8028  2.00
      L1  H    14    38       P1  7948  1.00
      L1  H    18    20       P1 10957  1.00
      L1  C    16    39       P1  7921  0.80

> <Gold.PLP.Chemscore.Internal.Correction>
0.0803

> <Gold.Rescore>
     Score         DG    S(hbond)    S(metal)    S(lipo)     H(rot)  DE(clash)    DE(int)     intcor
     20.46     -21.82       4.86        0.00      57.39       2.59       0.57       0.79       ----

> <Gold.Chemscore.Fitness>
20.4636

> <Gold.Chemscore.DG>
-21.8196

> <Gold.Chemscore.ZeroCoef>
-5.4800

> <Gold.Chemscore.Hbond>
4.8650

> <Gold.Chemscore.Metal>
0.0000

> <Gold.Chemscore.Lipo>
57.3914

> <Gold.Chemscore.Internal_Hbond>
0.0000

> <Gold.Chemscore.DEClash>
0.5692

> <Gold.Chemscore.DEInternal>
0.7868

> <Gold.Chemscore.Rot>
2.5876

> <Gold.Chemscore.Internal.Correction>
   9.000000E+99

> <Gold.Chemscore.Hbonds>
donor molecule, donor type, donor heavy atom, donor atom, acceptor molecule, acceptor atom, score
      L1  H     3    21       P1  7948  0.88
      L1  H     6    25       P1  7957  1.00
      L1  H     8    41       P1  8028  0.92
      L1  H    14    38       P1  7948  0.97
      L1  H    18    20       P1 10957  0.60

> <Gold.Chemscore.Hbond.Weighted>
-16.2490

> <Gold.Chemscore.Metal.Weighted>
-0.0000

> <Gold.Chemscore.Lipo.Weighted>
-6.7148

> <Gold.Chemscore.Internal_Hbond.Weighted>
0.0000

> <Gold.Chemscore.DEClash.Weighted>
0.5692

> <Gold.Chemscore.DEInternal.Weighted>
0.7868

> <Gold.Chemscore.Rot.Weighted>
6.6242

> <Gold.Chemscore.Internal.Correction.Weighted>
   9.000000E+99

> <Gold.Protein.RotatedTorsions>
[ 6907 6896 6895 6894 ] final   76.04 input  -60.11 | X-H torsion
[ 7974 7965 7964 7962 ] final   36.20 input  175.53 | X-H torsion
[ 8008 7997 7996 7995 ] final  -86.88 input   59.86 | X-H torsion
[ 10167 10162 10161 10158 ] final -117.27 input  -65.29 | X-H torsion
[ 10718 10713 10712 10709 ] final   64.16 input   66.30 | X-H torsion
[ 10763 10752 10751 10750 ] final   60.93 input  -60.55 | X-H torsion
[ 11005 11000 10999 10996 ] final   33.70 input  -57.11 | X-H torsion

> <Gold.Protein.ActiveResidues>
 VAL166  LYS551  ARG553  GLY616  TRP617  ASP618  TYR619  PRO620  LYS621  CYS622 
 ASP623  PHE694  ASN695  SER759  ASP760  ASP761  ALA762  ILE779  LEU786  VAL792 
 PHE793  MET794  SER795  GLU796  ALA797  LYS798  CYS799  TRP800  GLU811  SER814 

> <Gold.Protein.RotatedAtoms>
  152.5055  134.4029  159.9422 H   0  0  0  0  0  0  0  0  0  0  0  0  # atno 6907 bound_to 6896
  151.3993  133.3756  159.2738 H   0  0  0  0  0  0  0  0  0  0  0  0  # atno 6908 bound_to 6896
  150.9373  134.8806  159.7649 H   0  0  0  0  0  0  0  0  0  0  0  0  # atno 6909 bound_to 6896
  146.1229  139.6048  142.9278 H   0  0  0  0  0  0  0  0  0  0  0  0  # atno 7974 bound_to 7965
  154.6569  140.0573  157.0019 H   0  0  0  0  0  0  0  0  0  0  0  0  # atno 8008 bound_to 7997
  155.1286  140.3254  155.4461 H   0  0  0  0  0  0  0  0  0  0  0  0  # atno 8009 bound_to 7997
  156.2601  140.1985  156.6406 H   0  0  0  0  0  0  0  0  0  0  0  0  # atno 8010 bound_to 7997
  140.0701  143.4885  152.1984 H   0  0  0  0  0  0  0  0  0  0  0  0  # atno 10167 bound_to 10162
  157.6020  130.9145  149.9809 H   0  0  0  0  0  0  0  0  0  0  0  0  # atno 10718 bound_to 10713
  152.9935  135.5519  154.5953 H   0  0  0  0  0  0  0  0  0  0  0  0  # atno 10763 bound_to 10752
  154.5306  135.2813  155.1186 H   0  0  0  0  0  0  0  0  0  0  0  0  # atno 10764 bound_to 10752
  154.2503  135.6400  153.5290 H   0  0  0  0  0  0  0  0  0  0  0  0  # atno 10765 bound_to 10752
  140.2604  134.3199  155.7859 H   0  0  0  0  0  0  0  0  0  0  0  0  # atno 11005 bound_to 11000
  145.5428  141.0419  143.2321 LP  0  0  0  0  0  0  0  0  0  0  0  0  # atno 17320 bound_to 7965
  144.7614  139.6948  143.7233 LP  0  0  0  0  0  0  0  0  0  0  0  0  # atno 17321 bound_to 7965
  139.5841  144.7523  151.3565 LP  0  0  0  0  0  0  0  0  0  0  0  0  # atno 17342 bound_to 10162
  140.7129  143.7342  150.7601 LP  0  0  0  0  0  0  0  0  0  0  0  0  # atno 17343 bound_to 10162
  156.1096  130.3650  150.0072 LP  0  0  0  0  0  0  0  0  0  0  0  0  # atno 17370 bound_to 10713
  156.8173  130.9346  151.3642 LP  0  0  0  0  0  0  0  0  0  0  0  0  # atno 17371 bound_to 10713
  141.2191  133.7406  156.9178 LP  0  0  0  0  0  0  0  0  0  0  0  0  # atno 17394 bound_to 11000
  140.1470  134.9255  157.2543 LP  0  0  0  0  0  0  0  0  0  0  0  0  # atno 17395 bound_to 11000

$$$$
