AV-unprocessed.smi:314|AV-procd|sdf|2313|dock10
  -GOLD-   2262022213D 1   1.00000     0.00000
 Structure written by MMmdl.
 48 49  0  0  0  0  0  0  0  0  1 V2000
  145.7267  130.8156  151.8074 C   0  0  0  0  0  0  0  0  0  0  0  0
  144.8250  131.6662  151.1078 O   0  0  0  0  0  0  0  0  0  0  0  0
  144.9338  133.0293  151.2923 C   0  0  0  0  0  0  0  0  0  0  0  0
  144.0313  133.8754  150.6185 C   0  0  0  0  0  0  0  0  0  0  0  0
  144.1353  135.2678  150.8004 C   0  0  0  0  0  0  0  0  0  0  0  0
  145.1413  135.7733  151.6594 C   0  0  0  0  0  0  0  0  0  0  0  0
  145.3659  137.1520  151.9301 N   0  0  0  0  0  0  0  0  0  0  0  0
  146.1572  137.7238  152.8545 C   0  0  0  0  0  0  0  0  0  0  0  0
  146.8623  137.1252  153.6659 O   0  0  0  0  0  0  0  0  0  0  0  0
  146.0938  139.0607  152.7810 N   0  0  0  0  0  0  0  0  0  0  0  0
  146.8176  139.9841  153.6476 C   0  0  0  0  0  0  0  0  0  0  0  0
  148.2499  139.4900  153.9405 C   0  0  0  0  0  0  0  0  0  0  0  0
  149.1937  140.5929  154.4512 C   0  0  0  0  0  0  0  0  0  0  0  0
  149.1696  141.6982  153.9072 O   0  0  0  0  0  0  0  0  0  0  0  0
  150.0267  140.3173  155.4835 N   0  0  0  0  0  0  0  0  0  0  0  0
  150.0798  139.0644  156.2422 C   0  0  0  0  0  0  0  0  0  0  0  0
  149.6160  139.3532  157.6840 C   0  0  1  0  0  0  0  0  0  0  0  0
  149.6877  138.1109  158.5782 C   0  0  0  0  0  0  0  0  0  0  0  0
  150.4565  140.3576  158.2513 O   0  0  0  0  0  0  0  0  0  0  0  0
  150.4620  141.5841  157.5216 C   0  0  1  0  0  0  0  0  0  0  0  0
  151.3842  142.5683  158.2492 C   0  0  0  0  0  0  0  0  0  0  0  0
  150.9253  141.3109  156.0766 C   0  0  0  0  0  0  0  0  0  0  0  0
  145.9976  134.8408  152.2811 C   0  0  0  0  0  0  0  0  0  0  0  0
  145.9039  133.5053  152.1108 N   0  0  0  0  0  0  0  0  0  0  0  0
  145.5093  129.7771  151.5586 H   0  0  0  0  0  0  0  0  0  0  0  0
  145.6220  130.9256  152.8876 H   0  0  0  0  0  0  0  0  0  0  0  0
  146.7621  131.0132  151.5260 H   0  0  0  0  0  0  0  0  0  0  0  0
  143.2722  133.4636  149.9699 H   0  0  0  0  0  0  0  0  0  0  0  0
  143.4466  135.9060  150.2712 H   0  0  0  0  0  0  0  0  0  0  0  0
  144.8759  137.7901  151.3204 H   0  0  0  0  0  0  0  0  0  0  0  0
  145.4908  139.4712  152.0832 H   0  0  0  0  0  0  0  0  0  0  0  0
  146.8470  140.9508  153.1433 H   0  0  0  0  0  0  0  0  0  0  0  0
  146.2618  140.1318  154.5754 H   0  0  0  0  0  0  0  0  0  0  0  0
  148.2112  138.6938  154.6849 H   0  0  0  0  0  0  0  0  0  0  0  0
  148.6749  139.0641  153.0309 H   0  0  0  0  0  0  0  0  0  0  0  0
  149.4780  138.2653  155.8126 H   0  0  0  0  0  0  0  0  0  0  0  0
  151.1054  138.6917  156.2440 H   0  0  0  0  0  0  0  0  0  0  0  0
  148.5865  139.7158  157.6729 H   0  0  0  0  0  0  0  0  0  0  0  0
  149.0492  137.3140  158.1963 H   0  0  0  0  0  0  0  0  0  0  0  0
  149.3600  138.3420  159.5920 H   0  0  0  0  0  0  0  0  0  0  0  0
  150.7058  137.7250  158.6379 H   0  0  0  0  0  0  0  0  0  0  0  0
  149.4507  141.9951  157.5114 H   0  0  0  0  0  0  0  0  0  0  0  0
  151.4137  143.5305  157.7375 H   0  0  0  0  0  0  0  0  0  0  0  0
  152.4038  142.1860  158.3038 H   0  0  0  0  0  0  0  0  0  0  0  0
  151.0397  142.7440  159.2684 H   0  0  0  0  0  0  0  0  0  0  0  0
  151.9453  140.9236  156.0702 H   0  0  0  0  0  0  0  0  0  0  0  0
  150.9547  142.2446  155.5133 H   0  0  0  0  0  0  0  0  0  0  0  0
  146.7851  135.1754  152.9405 H   0  0  0  0  0  0  0  0  0  0  0  0
  1  2  1  0  0  0  0
  1 25  1  0  0  0  0
  1 26  1  0  0  0  0
  1 27  1  0  0  0  0
  2  3  1  0  0  0  0
  3 24  1  0  0  0  0
  3  4  2  0  0  0  0
  4  5  1  0  0  0  0
  4 28  1  0  0  0  0
  5  6  2  0  0  0  0
  5 29  1  0  0  0  0
  6  7  1  0  0  0  0
  6 23  1  0  0  0  0
  7  8  1  0  0  0  0
  7 30  1  0  0  0  0
  8  9  2  0  0  0  0
  8 10  1  0  0  0  0
 10 11  1  0  0  0  0
 10 31  1  0  0  0  0
 11 12  1  0  0  0  0
 11 32  1  0  0  0  0
 11 33  1  0  0  0  0
 12 13  1  0  0  0  0
 12 34  1  0  0  0  0
 12 35  1  0  0  0  0
 13 14  2  0  0  0  0
 13 15  1  0  0  0  0
 15 22  1  0  0  0  0
 15 16  1  0  0  0  0
 16 17  1  0  0  0  0
 16 36  1  0  0  0  0
 16 37  1  0  0  0  0
 17 18  1  0  0  0  0
 17 19  1  0  0  0  0
 17 38  1  0  0  0  0
 18 39  1  0  0  0  0
 18 40  1  0  0  0  0
 18 41  1  0  0  0  0
 19 20  1  0  0  0  0
 20 21  1  0  0  0  0
 20 22  1  0  0  0  0
 20 42  1  0  0  0  0
 21 43  1  0  0  0  0
 21 44  1  0  0  0  0
 21 45  1  0  0  0  0
 22 46  1  0  0  0  0
 22 47  1  0  0  0  0
 23 24  2  0  0  0  0
 23 48  1  0  0  0  0
M  END
> <s_m_source_file>
AV-unprocessed.smi

> <i_m_source_file_index>
314

> <i_lp_mmshare_version>
43012

> <i_f3d_flags>
0

> <s_epik_input>
W0NIM11PYzFbY0hdW2NIXWMoW2NIXW4xKVtOSF1DKD1PKVtOSF1bQ0gyXVtDSDJdQyg9TylOMltDSDJdW0NAQEhdKFtDSDNdKU9bQ0BASF0oW0NIM10pW0NIMl0y

> <s_epik_cmdline>
J2VwaWtfcHl0aG9uJywgJy1waCcsICc3LjAnLCAnLXRuJywgJzgnLCAnLW1hJywgJzIwMCcsICctbWV0YWxfYmluZGluZycsICctaW1hZScsICc8aW5maWxlLm1hZT4nLCAnLW9tYWUnLCAnPG91dGZpbGUubWFlPic=

> <r_lp_tautomer_probability>
1

> <r_epik_Ionization_Penalty>
8.55977e-05

> <r_epik_Ionization_Penalty_Charging>
0

> <r_epik_Ionization_Penalty_Neutral>
8.55977e-05

> <r_epik_State_Penalty>
-0

> <r_epik_Charging_Adjusted_Penalty>
0

> <i_epik_Tot_Q>
0

> <i_epik_Tot_abs_Q>
0

> <r_epik_Metal_State_Penalty>
-0

> <b_epik_Metal_Only>
0

> <s_lp_Force_Field>
OPLS_2005

> <r_lp_Energy>
24.2957

> <b_lp_Chiralities_Consistent>
1

> <s_lp_Variant>
AV-unprocessed.smi:314-1

> <Gold.Version>
5.8.1

> <Gold.Id.Protein>
6NUR|6NUR_protein|mol2

> <Gold.PLP.Fitness>
43.8952

> <Gold.PLP.PLP>
-35.6772

> <Gold.PLP.part.hbond>
-3.9502

> <Gold.PLP.part.metal>
0.0000

> <Gold.PLP.part.buried>
-4.7589

> <Gold.PLP.part.nonpolar>
-29.3793

> <Gold.PLP.part.repulsive>
2.7061

> <Gold.PLP.ligand.clash>
0.0000

> <Gold.PLP.ligand.torsion>
0.4808

> <Gold.PLP.Chemscore.Hbond>
2.2160

> <Gold.PLP.Chemscore.CHOScore>
0.8368

> <Gold.PLP.Chemscore.Metal>
0.0000

> <Gold.Chemscore.Hbonds>
donor molecule, donor type, donor heavy atom, donor atom, acceptor molecule, acceptor atom, score
      L1  H     7    30       P1 10171  1.00
      L1  H    10    31       P1 10175  0.45
      P1  H  8011  8017       L1    14  0.61
      L1  C    23    48       P1  7948  0.58

> <Gold.PLP.Chemscore.Internal.Correction>
0.0210

> <Gold.Rescore>
     Score         DG    S(hbond)    S(metal)    S(lipo)     H(rot)  DE(clash)    DE(int)     intcor
     12.76     -16.42       2.20        0.00      70.09       1.81       0.37       3.29       ----

> <Gold.Chemscore.Fitness>
12.7616

> <Gold.Chemscore.DG>
-16.4176

> <Gold.Chemscore.ZeroCoef>
-5.4800

> <Gold.Chemscore.Hbond>
2.2043

> <Gold.Chemscore.Metal>
0.0000

> <Gold.Chemscore.Lipo>
70.0880

> <Gold.Chemscore.Internal_Hbond>
0.0000

> <Gold.Chemscore.DEClash>
0.3692

> <Gold.Chemscore.DEInternal>
3.2867

> <Gold.Chemscore.Rot>
1.8067

> <Gold.Chemscore.Internal.Correction>
   9.000000E+99

> <Gold.Chemscore.Hbonds>
donor molecule, donor type, donor heavy atom, donor atom, acceptor molecule, acceptor atom, score
      L1  H     7    30       P1 10171  0.97
      L1  H    10    31       P1 10175  0.41
      P1  H  8011  8017       L1    14  0.60

> <Gold.Chemscore.Hbond.Weighted>
-7.3624

> <Gold.Chemscore.Metal.Weighted>
-0.0000

> <Gold.Chemscore.Lipo.Weighted>
-8.2003

> <Gold.Chemscore.Internal_Hbond.Weighted>
0.0000

> <Gold.Chemscore.DEClash.Weighted>
0.3692

> <Gold.Chemscore.DEInternal.Weighted>
3.2867

> <Gold.Chemscore.Rot.Weighted>
4.6252

> <Gold.Chemscore.Internal.Correction.Weighted>
   9.000000E+99

> <Gold.Protein.RotatedTorsions>
[ 6907 6896 6895 6894 ] final  160.64 input  -60.11 | X-H torsion
[ 7974 7965 7964 7962 ] final  -88.29 input  175.53 | X-H torsion
[ 8008 7997 7996 7995 ] final  -54.49 input   59.86 | X-H torsion
[ 10167 10162 10161 10158 ] final -103.49 input  -65.29 | X-H torsion
[ 10718 10713 10712 10709 ] final   41.96 input   66.30 | X-H torsion
[ 10763 10752 10751 10750 ] final -155.83 input  -60.55 | X-H torsion
[ 11005 11000 10999 10996 ] final -157.28 input  -57.11 | X-H torsion

> <Gold.Protein.ActiveResidues>
 VAL166  LYS551  ARG553  GLY616  TRP617  ASP618  TYR619  PRO620  LYS621  CYS622 
 ASP623  PHE694  ASN695  SER759  ASP760  ASP761  ALA762  ILE779  LEU786  VAL792 
 PHE793  MET794  SER795  GLU796  ALA797  LYS798  CYS799  TRP800  GLU811  SER814 

> <Gold.Protein.RotatedAtoms>
  151.9676  133.3715  159.4058 H   0  0  0  0  0  0  0  0  0  0  0  0  # atno 6907 bound_to 6896
  150.6954  134.4174  159.5198 H   0  0  0  0  0  0  0  0  0  0  0  0  # atno 6908 bound_to 6896
  152.1873  134.8703  160.0571 H   0  0  0  0  0  0  0  0  0  0  0  0  # atno 6909 bound_to 6896
  145.4551  140.9561  143.2000 H   0  0  0  0  0  0  0  0  0  0  0  0  # atno 7974 bound_to 7965
  154.4164  140.1175  156.5324 H   0  0  0  0  0  0  0  0  0  0  0  0  # atno 8008 bound_to 7997
  155.6592  140.3496  155.4757 H   0  0  0  0  0  0  0  0  0  0  0  0  # atno 8009 bound_to 7997
  155.9728  140.1145  157.0787 H   0  0  0  0  0  0  0  0  0  0  0  0  # atno 8010 bound_to 7997
  140.2194  143.3687  152.0982 H   0  0  0  0  0  0  0  0  0  0  0  0  # atno 10167 bound_to 10162
  157.3995  130.7852  149.7336 H   0  0  0  0  0  0  0  0  0  0  0  0  # atno 10718 bound_to 10713
  154.7758  135.3159  154.8095 H   0  0  0  0  0  0  0  0  0  0  0  0  # atno 10763 bound_to 10752
  153.8819  135.6834  153.4770 H   0  0  0  0  0  0  0  0  0  0  0  0  # atno 10764 bound_to 10752
  153.1381  135.4751  154.9390 H   0  0  0  0  0  0  0  0  0  0  0  0  # atno 10765 bound_to 10752
  140.6663  134.4295  157.5233 H   0  0  0  0  0  0  0  0  0  0  0  0  # atno 11005 bound_to 11000
  144.8037  139.6092  143.7060 LP  0  0  0  0  0  0  0  0  0  0  0  0  # atno 17320 bound_to 7965
  146.2482  139.6144  142.9445 LP  0  0  0  0  0  0  0  0  0  0  0  0  # atno 17321 bound_to 7965
  139.5150  144.6956  151.5640 LP  0  0  0  0  0  0  0  0  0  0  0  0  # atno 17342 bound_to 10162
  140.6266  143.9157  150.6570 LP  0  0  0  0  0  0  0  0  0  0  0  0  # atno 17343 bound_to 10162
  155.9819  130.4014  150.3444 LP  0  0  0  0  0  0  0  0  0  0  0  0  # atno 17370 bound_to 10713
  157.1570  131.0335  151.2858 LP  0  0  0  0  0  0  0  0  0  0  0  0  # atno 17371 bound_to 10713
  139.8996  134.8587  156.1953 LP  0  0  0  0  0  0  0  0  0  0  0  0  # atno 17394 bound_to 11000
  141.0426  133.6929  156.1626 LP  0  0  0  0  0  0  0  0  0  0  0  0  # atno 17395 bound_to 11000

$$$$
