AV-unprocessed.smi:2510|AV-procd|sdf|9875|dock3
  -GOLD-   2272013503D 1   1.00000     0.00000
 Structure written by MMmdl.
 48 49  0  0  0  0  0  0  0  0  1 V2000
  142.7392  135.1477  152.8032 C   0  0  0  0  0  0  0  0  0  0  0  0
  143.9470  135.7967  153.5006 C   0  0  0  0  0  0  0  0  0  0  0  0
  145.3520  135.3248  153.0533 C   0  0  0  0  0  0  0  0  0  0  0  0
  145.5951  135.9109  151.6327 C   0  0  0  0  0  0  0  0  0  0  0  0
  144.6716  135.3968  150.5119 C   0  0  0  0  0  0  0  0  0  0  0  0
  146.5209  135.5189  154.0648 C   0  0  2  0  0  0  0  0  0  0  0  0
  147.3927  136.6507  153.7643 N   0  0  0  0  0  0  0  0  0  0  0  0
  147.1617  137.9165  154.1407 C   0  0  0  0  0  0  0  0  0  0  0  0
  146.1622  138.2553  154.7767 O   0  0  0  0  0  0  0  0  0  0  0  0
  148.2333  138.9348  153.7303 C   0  0  0  0  0  0  0  0  0  0  0  0
  147.8221  140.3532  154.0317 C   0  0  0  0  0  0  0  0  0  0  0  0
  146.6616  141.0453  153.5744 C   0  0  0  0  0  0  0  0  0  0  0  0
  146.7680  142.2884  154.1310 C   0  0  0  0  0  0  0  0  0  0  0  0
  145.8828  143.4849  154.0492 C   0  0  0  0  0  0  0  0  0  0  0  0
  147.9355  142.2851  154.8588 N   0  0  0  0  0  0  0  0  0  0  0  0
  148.5908  141.1110  154.8021 N   0  0  0  0  0  0  0  0  0  0  0  0
  147.1116  134.1721  153.6277 C   0  0  1  0  0  0  0  0  0  0  0  0
  147.8596  133.3310  154.6552 C   0  0  0  0  0  0  0  0  0  0  0  0
  145.6656  133.8132  153.2486 C   0  0  2  0  0  0  0  0  0  0  0  0
  145.5372  133.0466  152.0610 O   0  0  0  0  0  0  0  0  0  0  0  0
  145.9305  131.6943  152.2150 C   0  0  0  0  0  0  0  0  0  0  0  0
  148.2927  143.0661  155.3905 H   0  0  0  0  0  0  0  0  0  0  0  0
  141.8152  135.6296  153.1233 H   0  0  0  0  0  0  0  0  0  0  0  0
  142.6479  134.0913  153.0560 H   0  0  0  0  0  0  0  0  0  0  0  0
  142.7913  135.2383  151.7190 H   0  0  0  0  0  0  0  0  0  0  0  0
  143.8646  136.8726  153.3441 H   0  0  0  0  0  0  0  0  0  0  0  0
  143.8235  135.6449  154.5737 H   0  0  0  0  0  0  0  0  0  0  0  0
  145.5021  136.9972  151.6619 H   0  0  0  0  0  0  0  0  0  0  0  0
  146.6222  135.7250  151.3187 H   0  0  0  0  0  0  0  0  0  0  0  0
  144.9826  135.8061  149.5506 H   0  0  0  0  0  0  0  0  0  0  0  0
  143.6369  135.7025  150.6650 H   0  0  0  0  0  0  0  0  0  0  0  0
  144.6901  134.3122  150.4209 H   0  0  0  0  0  0  0  0  0  0  0  0
  146.2124  135.4753  155.1102 H   0  0  0  0  0  0  0  0  0  0  0  0
  148.2349  136.4535  153.2433 H   0  0  0  0  0  0  0  0  0  0  0  0
  149.1651  138.6892  154.2417 H   0  0  0  0  0  0  0  0  0  0  0  0
  148.4288  138.8257  152.6631 H   0  0  0  0  0  0  0  0  0  0  0  0
  145.8701  140.6803  152.9366 H   0  0  0  0  0  0  0  0  0  0  0  0
  145.0362  143.2986  153.3880 H   0  0  0  0  0  0  0  0  0  0  0  0
  146.4292  144.3452  153.6625 H   0  0  0  0  0  0  0  0  0  0  0  0
  145.4914  143.7445  155.0329 H   0  0  0  0  0  0  0  0  0  0  0  0
  147.7106  134.2954  152.7235 H   0  0  0  0  0  0  0  0  0  0  0  0
  147.2457  133.1370  155.5350 H   0  0  0  0  0  0  0  0  0  0  0  0
  148.7646  133.8365  154.9917 H   0  0  0  0  0  0  0  0  0  0  0  0
  148.1601  132.3685  154.2431 H   0  0  0  0  0  0  0  0  0  0  0  0
  145.1136  133.3776  154.0834 H   0  0  0  0  0  0  0  0  0  0  0  0
  145.7464  131.1550  151.2859 H   0  0  0  0  0  0  0  0  0  0  0  0
  145.3630  131.2031  153.0063 H   0  0  0  0  0  0  0  0  0  0  0  0
  146.9933  131.6120  152.4400 H   0  0  0  0  0  0  0  0  0  0  0  0
  1  2  1  0  0  0  0
  1 23  1  0  0  0  0
  1 24  1  0  0  0  0
  1 25  1  0  0  0  0
  2  3  1  0  0  0  0
  2 26  1  0  0  0  0
  2 27  1  0  0  0  0
  3 19  1  0  0  0  0
  3  4  1  0  0  0  0
  3  6  1  0  0  0  0
  4  5  1  0  0  0  0
  4 28  1  0  0  0  0
  4 29  1  0  0  0  0
  5 30  1  0  0  0  0
  5 31  1  0  0  0  0
  5 32  1  0  0  0  0
  6  7  1  0  0  0  0
  6 17  1  0  0  0  0
  6 33  1  0  0  0  0
  7  8  1  0  0  0  0
  7 34  1  0  0  0  0
  8  9  2  0  0  0  0
  8 10  1  0  0  0  0
 10 11  1  0  0  0  0
 10 35  1  0  0  0  0
 10 36  1  0  0  0  0
 11 16  2  0  0  0  0
 11 12  1  0  0  0  0
 12 13  2  0  0  0  0
 12 37  1  0  0  0  0
 13 14  1  0  0  0  0
 13 15  1  0  0  0  0
 14 38  1  0  0  0  0
 14 39  1  0  0  0  0
 14 40  1  0  0  0  0
 15 22  1  0  0  0  0
 15 16  1  0  0  0  0
 17 18  1  0  0  0  0
 17 19  1  0  0  0  0
 17 41  1  0  0  0  0
 18 42  1  0  0  0  0
 18 43  1  0  0  0  0
 18 44  1  0  0  0  0
 19 20  1  0  0  0  0
 19 45  1  0  0  0  0
 20 21  1  0  0  0  0
 21 46  1  0  0  0  0
 21 47  1  0  0  0  0
 21 48  1  0  0  0  0
M  END
> <s_m_source_file>
AV-unprocessed.smi

> <i_m_source_file_index>
2510

> <i_lp_mmshare_version>
43012

> <i_f3d_flags>
0

> <s_epik_input>
W0NIM11PW0NAQEhdMVtDQEhdKFtDSDNdKVtDQEBIXShDMShbQ0gyXVtDSDNdKVtDSDJdW0NIM10pW05IXUMoPU8pW0NIMl1jMltjSF1jKFtDSDNdKVtuSF1uMg==

> <s_epik_cmdline>
J2VwaWtfcHl0aG9uJywgJy1waCcsICc3LjAnLCAnLXRuJywgJzgnLCAnLW1hJywgJzIwMCcsICctbWV0YWxfYmluZGluZycsICctaW1hZScsICc8aW5maWxlLm1hZT4nLCAnLW9tYWUnLCAnPG91dGZpbGUubWFlPic=

> <r_lp_tautomer_probability>
0.5

> <r_epik_Ionization_Penalty>
9.73156e-05

> <r_epik_Ionization_Penalty_Charging>
0

> <r_epik_Ionization_Penalty_Neutral>
9.73156e-05

> <r_epik_State_Penalty>
0.41068

> <r_epik_Charging_Adjusted_Penalty>
0.41068

> <i_epik_Tot_Q>
0

> <i_epik_Tot_abs_Q>
0

> <r_epik_Metal_State_Penalty>
0.410699

> <b_epik_Metal_Only>
0

> <s_lp_Force_Field>
OPLS_2005

> <r_lp_Energy>
28.5674

> <b_lp_Chiralities_Consistent>
1

> <s_lp_Variant>
AV-unprocessed.smi:2510-6

> <Gold.Version>
5.8.1

> <Gold.Id.Protein>
6NUR|6NUR_protein|mol2

> <Gold.PLP.Fitness>
34.6007

> <Gold.PLP.PLP>
-29.1569

> <Gold.PLP.part.hbond>
-1.9109

> <Gold.PLP.part.metal>
0.0000

> <Gold.PLP.part.buried>
-4.5940

> <Gold.PLP.part.nonpolar>
-23.7173

> <Gold.PLP.part.repulsive>
0.4505

> <Gold.PLP.ligand.clash>
0.0000

> <Gold.PLP.ligand.torsion>
0.5552

> <Gold.PLP.Chemscore.Hbond>
1.9920

> <Gold.PLP.Chemscore.CHOScore>
0.0000

> <Gold.PLP.Chemscore.Metal>
0.0000

> <Gold.Chemscore.Hbonds>
donor molecule, donor type, donor heavy atom, donor atom, acceptor molecule, acceptor atom, score
      L1  H     7    34       P1  7948  1.00
      L1  H    15    22       P1  8028  1.00

> <Gold.PLP.Chemscore.Internal.Correction>
0.5782

> <Gold.Rescore>
     Score         DG    S(hbond)    S(metal)    S(lipo)     H(rot)  DE(clash)    DE(int)     intcor
     13.92     -15.88       1.94        0.00      73.09       1.81       0.20       1.77       ----

> <Gold.Chemscore.Fitness>
13.9170

> <Gold.Chemscore.DG>
-15.8841

> <Gold.Chemscore.ZeroCoef>
-5.4800

> <Gold.Chemscore.Hbond>
1.9421

> <Gold.Chemscore.Metal>
0.0000

> <Gold.Chemscore.Lipo>
73.0921

> <Gold.Chemscore.Internal_Hbond>
0.0000

> <Gold.Chemscore.DEClash>
0.1977

> <Gold.Chemscore.DEInternal>
1.7694

> <Gold.Chemscore.Rot>
1.8102

> <Gold.Chemscore.Internal.Correction>
   9.000000E+99

> <Gold.Chemscore.Hbonds>
donor molecule, donor type, donor heavy atom, donor atom, acceptor molecule, acceptor atom, score
      L1  H     7    34       P1  7948  0.91
      L1  H    15    22       P1  8028  0.96

> <Gold.Chemscore.Hbond.Weighted>
-6.4865

> <Gold.Chemscore.Metal.Weighted>
-0.0000

> <Gold.Chemscore.Lipo.Weighted>
-8.5518

> <Gold.Chemscore.Internal_Hbond.Weighted>
0.0000

> <Gold.Chemscore.DEClash.Weighted>
0.1977

> <Gold.Chemscore.DEInternal.Weighted>
1.7694

> <Gold.Chemscore.Rot.Weighted>
4.6341

> <Gold.Chemscore.Internal.Correction.Weighted>
   9.000000E+99

> <Gold.Protein.RotatedTorsions>
[ 6907 6896 6895 6894 ] final -156.73 input  -60.11 | X-H torsion
[ 7974 7965 7964 7962 ] final   72.93 input  175.53 | X-H torsion
[ 8008 7997 7996 7995 ] final  -11.11 input   59.86 | X-H torsion
[ 10167 10162 10161 10158 ] final  -95.02 input  -65.29 | X-H torsion
[ 10718 10713 10712 10709 ] final -175.36 input   66.30 | X-H torsion
[ 10763 10752 10751 10750 ] final   99.31 input  -60.55 | X-H torsion
[ 11005 11000 10999 10996 ] final  -16.09 input  -57.11 | X-H torsion

> <Gold.Protein.ActiveResidues>
 VAL166  LYS551  ARG553  GLY616  TRP617  ASP618  TYR619  PRO620  LYS621  CYS622 
 ASP623  PHE694  ASN695  SER759  ASP760  ASP761  ALA762  ILE779  LEU786  VAL792 
 PHE793  MET794  SER795  GLU796  ALA797  LYS798  CYS799  TRP800  GLU811  SER814 

> <Gold.Protein.RotatedAtoms>
  151.2920  133.4161  159.2633 H   0  0  0  0  0  0  0  0  0  0  0  0  # atno 6907 bound_to 6896
  151.0269  134.9511  159.8100 H   0  0  0  0  0  0  0  0  0  0  0  0  # atno 6908 bound_to 6896
  152.5337  134.2882  159.9086 H   0  0  0  0  0  0  0  0  0  0  0  0  # atno 6909 bound_to 6896
  145.7472  139.2745  143.1452 H   0  0  0  0  0  0  0  0  0  0  0  0  # atno 7974 bound_to 7965
  154.5494  140.2311  155.8509 H   0  0  0  0  0  0  0  0  0  0  0  0  # atno 8008 bound_to 7997
  156.1933  140.3071  155.9337 H   0  0  0  0  0  0  0  0  0  0  0  0  # atno 8009 bound_to 7997
  155.3100  140.0435  157.3025 H   0  0  0  0  0  0  0  0  0  0  0  0  # atno 8010 bound_to 7997
  140.3085  143.3119  152.0173 H   0  0  0  0  0  0  0  0  0  0  0  0  # atno 10167 bound_to 10162
  156.7988  130.9544  151.3119 H   0  0  0  0  0  0  0  0  0  0  0  0  # atno 10718 bound_to 10713
  153.2998  135.4118  155.1242 H   0  0  0  0  0  0  0  0  0  0  0  0  # atno 10763 bound_to 10752
  154.8546  135.3538  154.5867 H   0  0  0  0  0  0  0  0  0  0  0  0  # atno 10764 bound_to 10752
  153.6292  135.7061  153.5340 H   0  0  0  0  0  0  0  0  0  0  0  0  # atno 10765 bound_to 10752
  140.8033  133.8197  155.9491 H   0  0  0  0  0  0  0  0  0  0  0  0  # atno 11005 bound_to 11000
  146.0391  140.8183  142.9838 LP  0  0  0  0  0  0  0  0  0  0  0  0  # atno 17320 bound_to 7965
  144.6857  140.2883  143.7282 LP  0  0  0  0  0  0  0  0  0  0  0  0  # atno 17321 bound_to 7965
  139.4899  144.6402  151.6892 LP  0  0  0  0  0  0  0  0  0  0  0  0  # atno 17342 bound_to 10162
  140.5589  144.0302  150.6160 LP  0  0  0  0  0  0  0  0  0  0  0  0  # atno 17343 bound_to 10162
  157.6564  130.8928  149.9738 LP  0  0  0  0  0  0  0  0  0  0  0  0  # atno 17370 bound_to 10713
  156.1114  130.3650  150.0043 LP  0  0  0  0  0  0  0  0  0  0  0  0  # atno 17371 bound_to 10713
  140.9273  134.2066  157.4887 LP  0  0  0  0  0  0  0  0  0  0  0  0  # atno 17394 bound_to 11000
  139.8720  134.9818  156.5130 LP  0  0  0  0  0  0  0  0  0  0  0  0  # atno 17395 bound_to 11000

$$$$
