AV-unprocessed.smi:898|AV-procd|sdf|4085|dock3
  -GOLD-   22720 1573D 1   1.00000     0.00000
 Structure written by MMmdl.
 33 35  0  0  0  0  0  0  0  0  2 V2000
  151.6029  141.0926  157.9122 O   0  0  0  0  0  0  0  0  0  0  0  0
  152.6565  140.6368  158.3626 C   0  0  0  0  0  0  0  0  0  0  0  0
  153.1570  139.4010  158.1348 N   0  5  0  0  0  0  0  0  0  0  0  0
  153.1160  138.4712  159.1033 C   0  0  0  0  0  0  0  0  0  0  0  0
  152.8266  137.1864  158.8537 N   0  0  0  0  0  0  0  0  0  0  0  0
  152.8396  136.3941  159.9924 N   0  0  0  0  0  0  0  0  0  0  0  0
  153.1472  137.0921  161.0880 C   0  0  0  0  0  0  0  0  0  0  0  0
  153.2217  136.4655  162.4400 C   0  0  0  0  0  0  0  0  0  0  0  0
  152.2022  136.8013  163.5041 C   0  0  0  0  0  0  0  0  0  0  0  0
  153.6287  137.2623  163.6604 C   0  0  0  0  0  0  0  0  0  0  0  0
  153.4572  138.7971  160.8022 S   0  0  0  0  0  0  0  0  0  0  0  0
  153.4257  141.3901  159.1620 N   0  0  0  0  0  0  0  0  0  0  0  0
  153.1447  142.7577  159.5917 C   0  0  2  0  0  0  0  0  0  0  0  0
  152.0136  142.7683  160.6416 C   0  0  0  0  0  0  0  0  0  0  0  0
  151.7110  144.1799  161.1694 C   0  0  0  0  0  0  0  0  0  0  0  0
  151.2517  145.1336  160.0578 C   0  0  0  0  0  0  0  0  0  0  0  0
  152.5437  145.3518  158.8046 S   0  0  0  0  0  0  0  0  0  0  0  0
  152.7875  143.6092  158.3612 C   0  0  0  0  0  0  0  0  0  0  0  0
  153.5633  135.4349  162.3677 H   0  0  0  0  0  0  0  0  0  0  0  0
  151.4538  137.5545  163.2654 H   0  0  0  0  0  0  0  0  0  0  0  0
  151.8612  135.9910  164.1453 H   0  0  0  0  0  0  0  0  0  0  0  0
  154.2410  136.7589  164.4055 H   0  0  0  0  0  0  0  0  0  0  0  0
  153.8227  138.3264  163.5401 H   0  0  0  0  0  0  0  0  0  0  0  0
  154.2789  140.9729  159.5040 H   0  0  0  0  0  0  0  0  0  0  0  0
  154.0488  143.1757  160.0386 H   0  0  0  0  0  0  0  0  0  0  0  0
  151.1078  142.3345  160.2158 H   0  0  0  0  0  0  0  0  0  0  0  0
  152.2874  142.1319  161.4839 H   0  0  0  0  0  0  0  0  0  0  0  0
  150.9355  144.1184  161.9332 H   0  0  0  0  0  0  0  0  0  0  0  0
  152.5944  144.5866  161.6630 H   0  0  0  0  0  0  0  0  0  0  0  0
  150.3506  144.7517  159.5769 H   0  0  0  0  0  0  0  0  0  0  0  0
  151.0028  146.1090  160.4762 H   0  0  0  0  0  0  0  0  0  0  0  0
  153.5826  143.5546  157.6169 H   0  0  0  0  0  0  0  0  0  0  0  0
  151.8794  143.2354  157.8867 H   0  0  0  0  0  0  0  0  0  0  0  0
  1  2  2  0  0  0  0
  2  3  1  0  0  0  0
  2 12  1  0  0  0  0
  3  4  1  0  0  0  0
  4 11  1  0  0  0  0
  4  5  2  0  0  0  0
  5  6  1  0  0  0  0
  6  7  2  0  0  0  0
  7  8  1  0  0  0  0
  7 11  1  0  0  0  0
  8 10  1  0  0  0  0
  8  9  1  0  0  0  0
  8 19  1  0  0  0  0
  9 10  1  0  0  0  0
  9 20  1  0  0  0  0
  9 21  1  0  0  0  0
 10 22  1  0  0  0  0
 10 23  1  0  0  0  0
 12 13  1  0  0  0  0
 12 24  1  0  0  0  0
 13 18  1  0  0  0  0
 13 14  1  0  0  0  0
 13 25  1  0  0  0  0
 14 15  1  0  0  0  0
 14 26  1  0  0  0  0
 14 27  1  0  0  0  0
 15 16  1  0  0  0  0
 15 28  1  0  0  0  0
 15 29  1  0  0  0  0
 16 17  1  0  0  0  0
 16 30  1  0  0  0  0
 16 31  1  0  0  0  0
 17 18  1  0  0  0  0
 18 32  1  0  0  0  0
 18 33  1  0  0  0  0
M  CHG  1   3  -1
M  END
> <s_m_source_file>
AV-unprocessed.smi

> <i_m_source_file_index>
898

> <i_lp_mmshare_version>
43012

> <i_f3d_flags>
0

> <s_epik_input>
W0NIMl0xU1tDSDJdW0NIMl1bQ0gyXVtDQEhdMVtOSF1DKD1PKVtOSF1jMm5uYyhzMilbQ0hdM1tDSDJdW0NIMl0z

> <s_epik_cmdline>
J2VwaWtfcHl0aG9uJywgJy1waCcsICc3LjAnLCAnLXRuJywgJzgnLCAnLW1hJywgJzIwMCcsICctbWV0YWxfYmluZGluZycsICctaW1hZScsICc8aW5maWxlLm1hZT4nLCAnLW9tYWUnLCAnPG91dGZpbGUubWFlPic=

> <r_lp_tautomer_probability>
1

> <r_epik_Ionization_Penalty>
4.71411

> <r_epik_Ionization_Penalty_Charging>
4.5615

> <r_epik_Ionization_Penalty_Neutral>
0.152604

> <r_epik_State_Penalty>
4.56123

> <r_epik_Charging_Adjusted_Penalty>
9.12273

> <i_epik_Tot_Q>
-1

> <i_epik_Tot_abs_Q>
1

> <r_epik_Metal_State_Penalty>
0.850765

> <b_epik_Metal_Only>
1

> <s_lp_Force_Field>
OPLS_2005

> <r_lp_Energy>
0.497958

> <b_lp_Chiralities_Consistent>
1

> <s_lp_Variant>
AV-unprocessed.smi:898-3

> <Gold.Version>
5.8.1

> <Gold.Id.Protein>
6NUR|6NUR_protein|mol2

> <Gold.PLP.Fitness>
46.9892

> <Gold.PLP.PLP>
-40.1768

> <Gold.PLP.part.hbond>
-2.0000

> <Gold.PLP.part.metal>
0.0000

> <Gold.PLP.part.buried>
-3.7863

> <Gold.PLP.part.nonpolar>
-34.5498

> <Gold.PLP.part.repulsive>
0.0880

> <Gold.PLP.ligand.clash>
0.0000

> <Gold.PLP.ligand.torsion>
1.2128

> <Gold.PLP.Chemscore.Hbond>
3.0000

> <Gold.PLP.Chemscore.CHOScore>
0.0000

> <Gold.PLP.Chemscore.Metal>
0.0000

> <Gold.Chemscore.Hbonds>
donor molecule, donor type, donor heavy atom, donor atom, acceptor molecule, acceptor atom, score
      P1  H  6896  6907       L1     6  1.00
      P1  H  7997  8008       L1     3  1.50

> <Gold.PLP.Chemscore.Internal.Correction>
0.2380

> <Gold.Rescore>
     Score         DG    S(hbond)    S(metal)    S(lipo)     H(rot)  DE(clash)    DE(int)     intcor
     18.06     -20.75       1.68        0.00     108.68       1.19       0.16       2.53       ----

> <Gold.Chemscore.Fitness>
18.0617

> <Gold.Chemscore.DG>
-20.7469

> <Gold.Chemscore.ZeroCoef>
-5.4800

> <Gold.Chemscore.Hbond>
1.6769

> <Gold.Chemscore.Metal>
0.0000

> <Gold.Chemscore.Lipo>
108.6786

> <Gold.Chemscore.Internal_Hbond>
0.0000

> <Gold.Chemscore.DEClash>
0.1585

> <Gold.Chemscore.DEInternal>
2.5266

> <Gold.Chemscore.Rot>
1.1911

> <Gold.Chemscore.Internal.Correction>
   9.000000E+99

> <Gold.Chemscore.Hbonds>
donor molecule, donor type, donor heavy atom, donor atom, acceptor molecule, acceptor atom, score
      P1  H  6896  6907       L1     6  0.94
      P1  H  7997  8008       L1     3  0.09

> <Gold.Chemscore.Hbond.Weighted>
-5.6007

> <Gold.Chemscore.Metal.Weighted>
-0.0000

> <Gold.Chemscore.Lipo.Weighted>
-12.7154

> <Gold.Chemscore.Internal_Hbond.Weighted>
0.0000

> <Gold.Chemscore.DEClash.Weighted>
0.1585

> <Gold.Chemscore.DEInternal.Weighted>
2.5266

> <Gold.Chemscore.Rot.Weighted>
3.0492

> <Gold.Chemscore.Internal.Correction.Weighted>
   9.000000E+99

> <Gold.Protein.RotatedTorsions>
[ 6907 6896 6895 6894 ] final   20.22 input  -60.11 | X-H torsion
[ 7974 7965 7964 7962 ] final   43.67 input  175.53 | X-H torsion
[ 8008 7997 7996 7995 ] final  -97.81 input   59.86 | X-H torsion
[ 10167 10162 10161 10158 ] final  -73.53 input  -65.29 | X-H torsion
[ 10718 10713 10712 10709 ] final  -30.65 input   66.30 | X-H torsion
[ 10763 10752 10751 10750 ] final   23.04 input  -60.55 | X-H torsion
[ 11005 11000 10999 10996 ] final  -64.32 input  -57.11 | X-H torsion

> <Gold.Protein.ActiveResidues>
 VAL166  LYS551  ARG553  GLY616  TRP617  ASP618  TYR619  PRO620  LYS621  CYS622 
 ASP623  PHE694  ASN695  SER759  ASP760  ASP761  ALA762  ILE779  LEU786  VAL792 
 PHE793  MET794  SER795  GLU796  ALA797  LYS798  CYS799  TRP800  GLU811  SER814 

> <Gold.Protein.RotatedAtoms>
  151.8929  135.0409  160.0499 H   0  0  0  0  0  0  0  0  0  0  0  0  # atno 6907 bound_to 6896
  152.2421  133.5139  159.5284 H   0  0  0  0  0  0  0  0  0  0  0  0  # atno 6908 bound_to 6896
  150.7057  134.0991  159.4002 H   0  0  0  0  0  0  0  0  0  0  0  0  # atno 6909 bound_to 6896
  146.0635  139.5160  142.9643 H   0  0  0  0  0  0  0  0  0  0  0  0  # atno 7974 bound_to 7965
  154.7927  140.0460  157.1213 H   0  0  0  0  0  0  0  0  0  0  0  0  # atno 8008 bound_to 7997
  154.9571  140.3072  155.5028 H   0  0  0  0  0  0  0  0  0  0  0  0  # atno 8009 bound_to 7997
  156.2952  140.2277  156.4654 H   0  0  0  0  0  0  0  0  0  0  0  0  # atno 8010 bound_to 7997
  140.5103  143.2346  151.7605 H   0  0  0  0  0  0  0  0  0  0  0  0  # atno 10167 bound_to 10162
  156.3972  130.4383  149.7350 H   0  0  0  0  0  0  0  0  0  0  0  0  # atno 10718 bound_to 10713
  153.0868  135.6635  153.9932 H   0  0  0  0  0  0  0  0  0  0  0  0  # atno 10763 bound_to 10752
  153.9540  135.2981  155.3438 H   0  0  0  0  0  0  0  0  0  0  0  0  # atno 10764 bound_to 10752
  154.7277  135.5136  153.8986 H   0  0  0  0  0  0  0  0  0  0  0  0  # atno 10765 bound_to 10752
  141.1421  133.6664  156.5815 H   0  0  0  0  0  0  0  0  0  0  0  0  # atno 11005 bound_to 11000
  145.6519  141.0261  143.1756 LP  0  0  0  0  0  0  0  0  0  0  0  0  # atno 17320 bound_to 7965
  144.7188  139.8100  143.7389 LP  0  0  0  0  0  0  0  0  0  0  0  0  # atno 17321 bound_to 7965
  139.4894  144.4400  151.9775 LP  0  0  0  0  0  0  0  0  0  0  0  0  # atno 17342 bound_to 10162
  140.3492  144.3109  150.5952 LP  0  0  0  0  0  0  0  0  0  0  0  0  # atno 17343 bound_to 10162
  156.4380  130.7847  151.2868 LP  0  0  0  0  0  0  0  0  0  0  0  0  # atno 17370 bound_to 10713
  157.7502  131.0133  150.3421 LP  0  0  0  0  0  0  0  0  0  0  0  0  # atno 17371 bound_to 10713
  140.3834  134.7503  157.4676 LP  0  0  0  0  0  0  0  0  0  0  0  0  # atno 17394 bound_to 11000
  140.0620  134.5982  155.8738 LP  0  0  0  0  0  0  0  0  0  0  0  0  # atno 17395 bound_to 11000

$$$$
