AV-unprocessed.smi:1976|AV-procd|sdf|7983|dock5
  -GOLD-   2272010163D 1   1.00000     0.00000
 Structure written by MMmdl.
 45 47  0  0  0  0  0  0  0  0  2 V2000
  148.6837  141.6952  156.5929 O   0  0  0  0  0  0  0  0  0  0  0  0
  149.3603  141.3933  155.6088 C   0  0  0  0  0  0  0  0  0  0  0  0
  150.8873  141.2642  155.7067 C   0  0  0  0  0  0  0  0  0  0  0  0
  151.4094  141.4865  157.0656 N   0  0  0  0  0  0  0  0  0  0  0  0
  151.0599  142.6965  157.6966 C   0  0  0  0  0  0  0  0  0  0  0  0
  151.4608  143.0167  158.9418 C   0  0  0  0  0  0  0  0  0  0  0  0
  151.1177  144.3577  159.5720 C   0  0  0  0  0  0  0  0  0  0  0  0
  151.7043  144.4931  160.7617 F   0  0  0  0  0  0  0  0  0  0  0  0
  151.5075  145.3692  158.7950 F   0  0  0  0  0  0  0  0  0  0  0  0
  149.8001  144.4527  159.7457 F   0  0  0  0  0  0  0  0  0  0  0  0
  152.3143  142.0550  159.6117 C   0  0  0  0  0  0  0  0  0  0  0  0
  152.6697  140.8992  159.0171 C   0  0  0  0  0  0  0  0  0  0  0  0
  152.2106  140.5578  157.6687 C   0  0  0  0  0  0  0  0  0  0  0  0
  152.5269  139.5047  157.1145 O   0  0  0  0  0  0  0  0  0  0  0  0
  148.8260  141.1421  154.4048 N   0  0  0  0  0  0  0  0  0  0  0  0
  147.4014  141.2121  154.0993 C   0  0  2  0  0  0  0  0  0  0  0  0
  146.8155  142.6367  154.1558 C   0  0  0  0  0  0  0  0  0  0  0  0
  145.4092  142.4759  154.7663 C   0  0  0  0  0  0  0  0  0  0  0  0
  145.2185  141.0217  154.9285 N   0  3  2  0  0  0  0  0  0  0  0  0
  144.2483  140.5782  155.9533 C   0  0  0  0  0  0  0  0  0  0  0  0
  144.1365  139.0406  155.9176 C   0  0  0  0  0  0  0  0  0  0  0  0
  145.5168  138.3619  156.0378 C   0  0  0  0  0  0  0  0  0  0  0  0
  146.5081  138.9292  155.0029 C   0  0  0  0  0  0  0  0  0  0  0  0
  146.5625  140.4604  155.1317 C   0  0  1  0  0  0  0  0  0  0  0  0
  151.1687  140.2736  155.3473 H   0  0  0  0  0  0  0  0  0  0  0  0
  151.3528  141.9623  155.0081 H   0  0  0  0  0  0  0  0  0  0  0  0
  150.4500  143.3564  157.0966 H   0  0  0  0  0  0  0  0  0  0  0  0
  152.6729  142.2631  160.6090 H   0  0  0  0  0  0  0  0  0  0  0  0
  153.3067  140.2060  159.5466 H   0  0  0  0  0  0  0  0  0  0  0  0
  149.4490  140.8949  153.6492 H   0  0  0  0  0  0  0  0  0  0  0  0
  147.2154  140.7857  153.1111 H   0  0  0  0  0  0  0  0  0  0  0  0
  147.4188  143.2899  154.7882 H   0  0  0  0  0  0  0  0  0  0  0  0
  146.7791  143.0852  153.1623 H   0  0  0  0  0  0  0  0  0  0  0  0
  145.3649  142.9707  155.7379 H   0  0  0  0  0  0  0  0  0  0  0  0
  144.6295  142.9007  154.1338 H   0  0  0  0  0  0  0  0  0  0  0  0
  144.5688  140.9159  156.9401 H   0  0  0  0  0  0  0  0  0  0  0  0
  143.2758  141.0310  155.7566 H   0  0  0  0  0  0  0  0  0  0  0  0
  143.4790  138.6952  156.7161 H   0  0  0  0  0  0  0  0  0  0  0  0
  143.6678  138.7356  154.9810 H   0  0  0  0  0  0  0  0  0  0  0  0
  145.9115  138.5209  157.0422 H   0  0  0  0  0  0  0  0  0  0  0  0
  145.4176  137.2831  155.9125 H   0  0  0  0  0  0  0  0  0  0  0  0
  147.4987  138.5002  155.1575 H   0  0  0  0  0  0  0  0  0  0  0  0
  146.1961  138.6459  153.9966 H   0  0  0  0  0  0  0  0  0  0  0  0
  146.9025  140.7290  156.1349 H   0  0  0  0  0  0  0  0  0  0  0  0
  144.8958  140.6730  154.0372 H   0  0  0  0  0  0  0  0  0  0  0  0
  1  2  2  0  0  0  0
  2  3  1  0  0  0  0
  2 15  1  0  0  0  0
  3  4  1  0  0  0  0
  3 25  1  0  0  0  0
  3 26  1  0  0  0  0
  4 13  1  0  0  0  0
  4  5  1  0  0  0  0
  5  6  2  0  0  0  0
  5 27  1  0  0  0  0
  6  7  1  0  0  0  0
  6 11  1  0  0  0  0
  7  8  1  0  0  0  0
  7  9  1  0  0  0  0
  7 10  1  0  0  0  0
 11 12  2  0  0  0  0
 11 28  1  0  0  0  0
 12 13  1  0  0  0  0
 12 29  1  0  0  0  0
 13 14  2  0  0  0  0
 15 16  1  0  0  0  0
 15 30  1  0  0  0  0
 16 24  1  0  0  0  0
 16 17  1  0  0  0  0
 16 31  1  0  0  0  0
 17 18  1  0  0  0  0
 17 32  1  0  0  0  0
 17 33  1  0  0  0  0
 18 19  1  0  0  0  0
 18 34  1  0  0  0  0
 18 35  1  0  0  0  0
 19 24  1  0  0  0  0
 19 20  1  0  0  0  0
 19 45  1  0  0  0  0
 20 21  1  0  0  0  0
 20 36  1  0  0  0  0
 20 37  1  0  0  0  0
 21 22  1  0  0  0  0
 21 38  1  0  0  0  0
 21 39  1  0  0  0  0
 22 23  1  0  0  0  0
 22 40  1  0  0  0  0
 22 41  1  0  0  0  0
 23 24  1  0  0  0  0
 23 42  1  0  0  0  0
 23 43  1  0  0  0  0
 24 44  1  0  0  0  0
M  CHG  1  19   1
M  END
> <s_m_source_file>
AV-unprocessed.smi

> <i_m_source_file_index>
1976

> <i_lp_mmshare_version>
43012

> <i_f3d_flags>
0

> <s_epik_input>
W0NIMl0xW0NIMl1bQ0gyXVtDSDJdW0NASF0oTjEyKVtDQEBIXShbQ0gyXVtDSDJdMilbTkhdQyg9TylbQ0gyXW4zW2NIXWMoQyhGKShGKUYpW2NIXVtjSF1jMz1P

> <s_epik_cmdline>
J2VwaWtfcHl0aG9uJywgJy1waCcsICc3LjAnLCAnLXRuJywgJzgnLCAnLW1hJywgJzIwMCcsICctbWV0YWxfYmluZGluZycsICctaW1hZScsICc8aW5maWxlLm1hZT4nLCAnLW9tYWUnLCAnPG91dGZpbGUubWFlPic=

> <r_lp_tautomer_probability>
1

> <r_epik_Ionization_Penalty>
0.00171506

> <r_epik_Ionization_Penalty_Charging>
0.00171498

> <r_epik_Ionization_Penalty_Neutral>
7.81737e-08

> <r_epik_State_Penalty>
0.00115937

> <r_epik_Charging_Adjusted_Penalty>
0.00287436

> <i_epik_Tot_Q>
1

> <i_epik_Tot_abs_Q>
1

> <r_epik_Metal_State_Penalty>
-0

> <b_epik_Metal_Only>
0

> <s_lp_Force_Field>
OPLS_2005

> <r_lp_Energy>
45.9566

> <b_lp_Chiralities_Consistent>
1

> <s_lp_Variant>
AV-unprocessed.smi:1976-1

> <Gold.Version>
5.8.1

> <Gold.Id.Protein>
6NUR|6NUR_protein|mol2

> <Gold.PLP.Fitness>
52.7742

> <Gold.PLP.PLP>
-41.5005

> <Gold.PLP.part.hbond>
-2.0000

> <Gold.PLP.part.metal>
0.0000

> <Gold.PLP.part.buried>
-5.6962

> <Gold.PLP.part.nonpolar>
-33.7175

> <Gold.PLP.part.repulsive>
0.3114

> <Gold.PLP.ligand.clash>
0.0000

> <Gold.PLP.ligand.torsion>
0.1670

> <Gold.PLP.Chemscore.Hbond>
2.8500

> <Gold.PLP.Chemscore.CHOScore>
1.0000

> <Gold.PLP.Chemscore.Metal>
0.0000

> <Gold.Chemscore.Hbonds>
donor molecule, donor type, donor heavy atom, donor atom, acceptor molecule, acceptor atom, score
      L1  H    19    45       P1 10175  2.00
      P1  H  7997  8009       L1    14  0.85
      L1  C     5    27       P1  8028  1.00

> <Gold.PLP.Chemscore.Internal.Correction>
0.0577

> <Gold.Rescore>
     Score         DG    S(hbond)    S(metal)    S(lipo)     H(rot)  DE(clash)    DE(int)     intcor
     13.21     -16.35       1.83        0.00      75.37       1.58       0.07       3.07       ----

> <Gold.Chemscore.Fitness>
13.2134

> <Gold.Chemscore.DG>
-16.3504

> <Gold.Chemscore.ZeroCoef>
-5.4800

> <Gold.Chemscore.Hbond>
1.8277

> <Gold.Chemscore.Metal>
0.0000

> <Gold.Chemscore.Lipo>
75.3703

> <Gold.Chemscore.Internal_Hbond>
0.0000

> <Gold.Chemscore.DEClash>
0.0674

> <Gold.Chemscore.DEInternal>
3.0697

> <Gold.Chemscore.Rot>
1.5830

> <Gold.Chemscore.Internal.Correction>
   9.000000E+99

> <Gold.Chemscore.Hbonds>
donor molecule, donor type, donor heavy atom, donor atom, acceptor molecule, acceptor atom, score
      L1  H    19    45       P1 10175  0.95
      P1  H  7997  8009       L1    14  0.14

> <Gold.Chemscore.Hbond.Weighted>
-6.1045

> <Gold.Chemscore.Metal.Weighted>
-0.0000

> <Gold.Chemscore.Lipo.Weighted>
-8.8183

> <Gold.Chemscore.Internal_Hbond.Weighted>
0.0000

> <Gold.Chemscore.DEClash.Weighted>
0.0674

> <Gold.Chemscore.DEInternal.Weighted>
3.0697

> <Gold.Chemscore.Rot.Weighted>
4.0524

> <Gold.Chemscore.Internal.Correction.Weighted>
   9.000000E+99

> <Gold.Protein.RotatedTorsions>
[ 6907 6896 6895 6894 ] final   28.04 input  -60.11 | X-H torsion
[ 7974 7965 7964 7962 ] final  -87.84 input  175.53 | X-H torsion
[ 8008 7997 7996 7995 ] final -166.60 input   59.86 | X-H torsion
[ 10167 10162 10161 10158 ] final   78.55 input  -65.29 | X-H torsion
[ 10718 10713 10712 10709 ] final  127.63 input   66.30 | X-H torsion
[ 10763 10752 10751 10750 ] final   43.77 input  -60.55 | X-H torsion
[ 11005 11000 10999 10996 ] final    5.48 input  -57.11 | X-H torsion

> <Gold.Protein.ActiveResidues>
 VAL166  LYS551  ARG553  GLY616  TRP617  ASP618  TYR619  PRO620  LYS621  CYS622 
 ASP623  PHE694  ASN695  SER759  ASP760  ASP761  ALA762  ILE779  LEU786  VAL792 
 PHE793  MET794  SER795  GLU796  ALA797  LYS798  CYS799  TRP800  GLU811  SER814 

> <Gold.Protein.RotatedAtoms>
  152.0112  134.9875  160.0567 H   0  0  0  0  0  0  0  0  0  0  0  0  # atno 6907 bound_to 6896
  152.1427  133.4469  159.4783 H   0  0  0  0  0  0  0  0  0  0  0  0  # atno 6908 bound_to 6896
  150.6867  134.2204  159.4437 H   0  0  0  0  0  0  0  0  0  0  0  0  # atno 6909 bound_to 6896
  145.4611  140.9561  143.1969 H   0  0  0  0  0  0  0  0  0  0  0  0  # atno 7974 bound_to 7965
  155.8661  140.0986  157.1581 H   0  0  0  0  0  0  0  0  0  0  0  0  # atno 8008 bound_to 7997
  154.3994  140.1356  156.4084 H   0  0  0  0  0  0  0  0  0  0  0  0  # atno 8009 bound_to 7997
  155.7802  140.3458  155.5296 H   0  0  0  0  0  0  0  0  0  0  0  0  # atno 8010 bound_to 7997
  139.9697  144.5903  150.7996 H   0  0  0  0  0  0  0  0  0  0  0  0  # atno 10167 bound_to 10162
  157.5316  131.1098  150.9000 H   0  0  0  0  0  0  0  0  0  0  0  0  # atno 10718 bound_to 10713
  152.9854  135.6091  154.3166 H   0  0  0  0  0  0  0  0  0  0  0  0  # atno 10763 bound_to 10752
  154.2878  135.2775  155.2670 H   0  0  0  0  0  0  0  0  0  0  0  0  # atno 10764 bound_to 10752
  154.4979  135.5874  153.6565 H   0  0  0  0  0  0  0  0  0  0  0  0  # atno 10765 bound_to 10752
  140.5702  134.0109  155.8006 H   0  0  0  0  0  0  0  0  0  0  0  0  # atno 11005 bound_to 11000
  144.8002  139.6156  143.7075 LP  0  0  0  0  0  0  0  0  0  0  0  0  # atno 17320 bound_to 7965
  146.2450  139.6080  142.9466 LP  0  0  0  0  0  0  0  0  0  0  0  0  # atno 17321 bound_to 7965
  140.7526  143.2993  151.3122 LP  0  0  0  0  0  0  0  0  0  0  0  0  # atno 17342 bound_to 10162
  139.6490  144.0397  152.2612 LP  0  0  0  0  0  0  0  0  0  0  0  0  # atno 17343 bound_to 10162
  156.9580  130.5444  149.5285 LP  0  0  0  0  0  0  0  0  0  0  0  0  # atno 17370 bound_to 10713
  156.0427  130.5507  150.8808 LP  0  0  0  0  0  0  0  0  0  0  0  0  # atno 17371 bound_to 10713
  141.1060  133.9692  157.2995 LP  0  0  0  0  0  0  0  0  0  0  0  0  # atno 17394 bound_to 11000
  139.9365  135.0196  156.8573 LP  0  0  0  0  0  0  0  0  0  0  0  0  # atno 17395 bound_to 11000

$$$$
