AV-unprocessed.smi:3284|AV-procd|sdf|12574|dock6
  -GOLD-   2272018493D 1   1.00000     0.00000
 Structure written by MMmdl.
 44 45  0  0  0  0  0  0  0  0  2 V2000
  153.9422  140.7483  160.1396 C   0  0  0  0  0  0  0  0  0  0  0  0
  153.1383  142.0207  160.3508 C   0  0  0  0  0  0  0  0  0  0  0  0
  153.0998  142.5913  161.5700 C   0  0  0  0  0  0  0  0  0  0  0  0
  152.3979  143.8929  161.8796 C   0  0  0  0  0  0  0  0  0  0  0  0
  152.1912  144.7196  160.6086 C   0  0  0  0  0  0  0  0  0  0  0  0
  151.5570  143.8786  159.4889 C   0  0  1  0  0  0  0  0  0  0  0  0
  151.2872  144.7762  158.2658 C   0  0  0  0  0  0  0  0  0  0  0  0
  152.4106  142.6225  159.1308 C   0  0  2  0  0  0  0  0  0  0  0  0
  151.5348  141.5831  158.3817 C   0  0  0  0  0  0  0  0  0  0  0  0
  151.1111  142.0432  157.0433 N   0  3  0  0  0  0  0  0  0  0  0  0
  149.9721  141.2929  156.4808 C   0  0  0  0  0  0  0  0  0  0  0  0
  149.8102  141.5790  154.9828 C   0  0  0  0  0  0  0  0  0  0  0  0
  148.8393  140.6471  154.3275 C   0  0  0  0  0  0  0  0  0  0  0  0
  149.0741  139.3512  154.1481 N   0  0  0  0  0  0  0  0  0  0  0  0
  147.9249  138.8635  153.5353 C   0  0  0  0  0  0  0  0  0  0  0  0
  147.0252  139.8890  153.3726 C   0  0  0  0  0  0  0  0  0  0  0  0
  147.6232  141.0295  153.8921 N   0  0  0  0  0  0  0  0  0  0  0  0
  147.0322  142.3525  153.9428 C   0  0  0  0  0  0  0  0  0  0  0  0
  154.6127  140.8557  159.2867 H   0  0  0  0  0  0  0  0  0  0  0  0
  153.2848  139.8957  159.9712 H   0  0  0  0  0  0  0  0  0  0  0  0
  154.5544  140.5173  161.0123 H   0  0  0  0  0  0  0  0  0  0  0  0
  153.6057  142.1221  162.4014 H   0  0  0  0  0  0  0  0  0  0  0  0
  151.4443  143.6716  162.3597 H   0  0  0  0  0  0  0  0  0  0  0  0
  152.9942  144.4600  162.5947 H   0  0  0  0  0  0  0  0  0  0  0  0
  151.5676  145.5843  160.8386 H   0  0  0  0  0  0  0  0  0  0  0  0
  153.1511  145.1132  160.2706 H   0  0  0  0  0  0  0  0  0  0  0  0
  150.5920  143.5337  159.8648 H   0  0  0  0  0  0  0  0  0  0  0  0
  152.2181  145.1439  157.8330 H   0  0  0  0  0  0  0  0  0  0  0  0
  150.6913  145.6457  158.5448 H   0  0  0  0  0  0  0  0  0  0  0  0
  150.7394  144.2580  157.4804 H   0  0  0  0  0  0  0  0  0  0  0  0
  153.2020  142.9531  158.4563 H   0  0  0  0  0  0  0  0  0  0  0  0
  152.0795  140.6421  158.2916 H   0  0  0  0  0  0  0  0  0  0  0  0
  150.6274  141.3577  158.9396 H   0  0  0  0  0  0  0  0  0  0  0  0
  150.8610  143.0199  157.1024 H   0  0  0  0  0  0  0  0  0  0  0  0
  150.1330  140.2257  156.6395 H   0  0  0  0  0  0  0  0  0  0  0  0
  149.0610  141.5657  157.0147 H   0  0  0  0  0  0  0  0  0  0  0  0
  149.4941  142.6102  154.8237 H   0  0  0  0  0  0  0  0  0  0  0  0
  150.7735  141.4767  154.4814 H   0  0  0  0  0  0  0  0  0  0  0  0
  147.8344  137.8223  153.2627 H   0  0  0  0  0  0  0  0  0  0  0  0
  146.0339  139.8990  152.9435 H   0  0  0  0  0  0  0  0  0  0  0  0
  145.9977  142.3157  153.5998 H   0  0  0  0  0  0  0  0  0  0  0  0
  147.5924  143.0312  153.2996 H   0  0  0  0  0  0  0  0  0  0  0  0
  147.0500  142.7277  154.9660 H   0  0  0  0  0  0  0  0  0  0  0  0
  151.8955  141.9481  156.4139 H   0  0  0  0  0  0  0  0  0  0  0  0
  1  2  1  0  0  0  0
  1 19  1  0  0  0  0
  1 20  1  0  0  0  0
  1 21  1  0  0  0  0
  2  8  1  0  0  0  0
  2  3  2  0  0  0  0
  3  4  1  0  0  0  0
  3 22  1  0  0  0  0
  4  5  1  0  0  0  0
  4 23  1  0  0  0  0
  4 24  1  0  0  0  0
  5  6  1  0  0  0  0
  5 25  1  0  0  0  0
  5 26  1  0  0  0  0
  6  7  1  0  0  0  0
  6  8  1  0  0  0  0
  6 27  1  0  0  0  0
  7 28  1  0  0  0  0
  7 29  1  0  0  0  0
  7 30  1  0  0  0  0
  8  9  1  0  0  0  0
  8 31  1  0  0  0  0
  9 10  1  0  0  0  0
  9 32  1  0  0  0  0
  9 33  1  0  0  0  0
 10 11  1  0  0  0  0
 10 34  1  0  0  0  0
 10 44  1  0  0  0  0
 11 12  1  0  0  0  0
 11 35  1  0  0  0  0
 11 36  1  0  0  0  0
 12 13  1  0  0  0  0
 12 37  1  0  0  0  0
 12 38  1  0  0  0  0
 13 17  1  0  0  0  0
 13 14  2  0  0  0  0
 14 15  1  0  0  0  0
 15 16  2  0  0  0  0
 15 39  1  0  0  0  0
 16 17  1  0  0  0  0
 16 40  1  0  0  0  0
 17 18  1  0  0  0  0
 18 41  1  0  0  0  0
 18 42  1  0  0  0  0
 18 43  1  0  0  0  0
M  CHG  1  10   1
M  END
> <s_m_source_file>
AV-unprocessed.smi

> <i_m_source_file_index>
3284

> <i_lp_mmshare_version>
43012

> <i_f3d_flags>
0

> <s_epik_input>
W0NIM11DMT1bQ0hdW0NIMl1bQ0gyXVtDQEBIXShbQ0gzXSlbQ0BIXTFbQ0gyXVtOSF1bQ0gyXVtDSDJdYzJuW2NIXVtjSF1uMltDSDNd

> <s_epik_cmdline>
J2VwaWtfcHl0aG9uJywgJy1waCcsICc3LjAnLCAnLXRuJywgJzgnLCAnLW1hJywgJzIwMCcsICctbWV0YWxfYmluZGluZycsICctaW1hZScsICc8aW5maWxlLm1hZT4nLCAnLW9tYWUnLCAnPG91dGZpbGUubWFlPic=

> <r_lp_tautomer_probability>
1

> <r_epik_Ionization_Penalty>
0.150779

> <r_epik_Ionization_Penalty_Charging>
0.150779

> <r_epik_Ionization_Penalty_Neutral>
1.39452e-13

> <r_epik_State_Penalty>
0.349447

> <r_epik_Charging_Adjusted_Penalty>
0.500226

> <i_epik_Tot_Q>
1

> <i_epik_Tot_abs_Q>
1

> <r_epik_Metal_State_Penalty>
0.000470967

> <b_epik_Metal_Only>
0

> <s_lp_Force_Field>
OPLS_2005

> <r_lp_Energy>
12.7203

> <b_lp_Chiralities_Consistent>
1

> <s_lp_Variant>
AV-unprocessed.smi:3284-3

> <Gold.Version>
5.8.1

> <Gold.Id.Protein>
6NUR|6NUR_protein|mol2

> <Gold.PLP.Fitness>
53.1308

> <Gold.PLP.PLP>
-47.6893

> <Gold.PLP.part.hbond>
0.0000

> <Gold.PLP.part.metal>
0.0000

> <Gold.PLP.part.buried>
-4.8147

> <Gold.PLP.part.nonpolar>
-42.3437

> <Gold.PLP.part.repulsive>
0.5950

> <Gold.PLP.ligand.clash>
0.0281

> <Gold.PLP.ligand.torsion>
0.3079

> <Gold.PLP.Chemscore.Hbond>
0.0000

> <Gold.PLP.Chemscore.CHOScore>
2.0000

> <Gold.PLP.Chemscore.Metal>
0.0000

> <Gold.Chemscore.Hbonds>
donor molecule, donor type, donor heavy atom, donor atom, acceptor molecule, acceptor atom, score
      L1  C    15    39       P1  7948  1.00
      L1  C    16    40       P1 10175  1.00

> <Gold.PLP.Chemscore.Internal.Correction>
0.0856

> <Gold.Rescore>
     Score         DG    S(hbond)    S(metal)    S(lipo)     H(rot)  DE(clash)    DE(int)     intcor
     15.23     -16.67       0.00        0.00     130.84       1.61       0.00       1.43       ----

> <Gold.Chemscore.Fitness>
15.2335

> <Gold.Chemscore.DG>
-16.6650

> <Gold.Chemscore.ZeroCoef>
-5.4800

> <Gold.Chemscore.Hbond>
0.0000

> <Gold.Chemscore.Metal>
0.0000

> <Gold.Chemscore.Lipo>
130.8377

> <Gold.Chemscore.Internal_Hbond>
0.0000

> <Gold.Chemscore.DEClash>
0.0038

> <Gold.Chemscore.DEInternal>
1.4277

> <Gold.Chemscore.Rot>
1.6105

> <Gold.Chemscore.Internal.Correction>
   9.000000E+99

> <Gold.Chemscore.Hbond.Weighted>
-0.0000

> <Gold.Chemscore.Metal.Weighted>
-0.0000

> <Gold.Chemscore.Lipo.Weighted>
-15.3080

> <Gold.Chemscore.Internal_Hbond.Weighted>
0.0000

> <Gold.Chemscore.DEClash.Weighted>
0.0038

> <Gold.Chemscore.DEInternal.Weighted>
1.4277

> <Gold.Chemscore.Rot.Weighted>
4.1230

> <Gold.Chemscore.Internal.Correction.Weighted>
   9.000000E+99

> <Gold.Protein.RotatedTorsions>
[ 6907 6896 6895 6894 ] final  -23.18 input  -60.11 | X-H torsion
[ 7974 7965 7964 7962 ] final  -97.84 input  175.53 | X-H torsion
[ 8008 7997 7996 7995 ] final -126.78 input   59.86 | X-H torsion
[ 10167 10162 10161 10158 ] final -144.83 input  -65.29 | X-H torsion
[ 10718 10713 10712 10709 ] final  -57.10 input   66.30 | X-H torsion
[ 10763 10752 10751 10750 ] final  131.53 input  -60.55 | X-H torsion
[ 11005 11000 10999 10996 ] final -131.61 input  -57.11 | X-H torsion

> <Gold.Protein.ActiveResidues>
 VAL166  LYS551  ARG553  GLY616  TRP617  ASP618  TYR619  PRO620  LYS621  CYS622 
 ASP623  PHE694  ASN695  SER759  ASP760  ASP761  ALA762  ILE779  LEU786  VAL792 
 PHE793  MET794  SER795  GLU796  ALA797  LYS798  CYS799  TRP800  GLU811  SER814 

> <Gold.Protein.RotatedAtoms>
  151.2078  135.0469  159.8898 H   0  0  0  0  0  0  0  0  0  0  0  0  # atno 6907 bound_to 6896
  152.5427  134.0779  159.8233 H   0  0  0  0  0  0  0  0  0  0  0  0  # atno 6908 bound_to 6896
  151.0928  133.5255  159.2646 H   0  0  0  0  0  0  0  0  0  0  0  0  # atno 6909 bound_to 6896
  145.3285  140.9436  143.2675 H   0  0  0  0  0  0  0  0  0  0  0  0  # atno 7974 bound_to 7965
  155.2354  140.0426  157.2968 H   0  0  0  0  0  0  0  0  0  0  0  0  # atno 8008 bound_to 7997
  154.5862  140.2414  155.7954 H   0  0  0  0  0  0  0  0  0  0  0  0  # atno 8009 bound_to 7997
  156.2228  140.2964  156.0001 H   0  0  0  0  0  0  0  0  0  0  0  0  # atno 8010 bound_to 7997
  139.7862  143.8030  152.2645 H   0  0  0  0  0  0  0  0  0  0  0  0  # atno 10167 bound_to 10162
  156.1237  130.4164  150.0395 H   0  0  0  0  0  0  0  0  0  0  0  0  # atno 10718 bound_to 10713
  153.7758  135.3175  155.3358 H   0  0  0  0  0  0  0  0  0  0  0  0  # atno 10763 bound_to 10752
  154.8180  135.4623  154.0699 H   0  0  0  0  0  0  0  0  0  0  0  0  # atno 10764 bound_to 10752
  153.1973  135.6917  153.8361 H   0  0  0  0  0  0  0  0  0  0  0  0  # atno 10765 bound_to 10752
  140.9243  134.1403  157.4288 H   0  0  0  0  0  0  0  0  0  0  0  0  # atno 11005 bound_to 11000
  144.8883  139.4809  143.6690 LP  0  0  0  0  0  0  0  0  0  0  0  0  # atno 17320 bound_to 7965
  146.3055  139.7565  142.9059 LP  0  0  0  0  0  0  0  0  0  0  0  0  # atno 17321 bound_to 7965
  139.8108  144.7337  150.9700 LP  0  0  0  0  0  0  0  0  0  0  0  0  # atno 17342 bound_to 10162
  140.7819  143.4253  151.0778 LP  0  0  0  0  0  0  0  0  0  0  0  0  # atno 17343 bound_to 10162
  156.8326  130.9398  151.3636 LP  0  0  0  0  0  0  0  0  0  0  0  0  # atno 17370 bound_to 10713
  157.6419  130.8813  149.9465 LP  0  0  0  0  0  0  0  0  0  0  0  0  # atno 17371 bound_to 10713
  139.8782  134.9983  156.5891 LP  0  0  0  0  0  0  0  0  0  0  0  0  # atno 17394 bound_to 11000
  140.7946  133.8554  155.8675 LP  0  0  0  0  0  0  0  0  0  0  0  0  # atno 17395 bound_to 11000

$$$$
