AV-unprocessed.smi:3018|AV-procd|sdf|11483|dock8
  -GOLD-   2272016423D 1   1.00000     0.00000
 Structure written by MMmdl.
 44 45  0  0  0  0  0  0  0  0  2 V2000
  152.4644  138.7159  155.5585 C   0  0  0  0  0  0  0  0  0  0  0  0
  152.7904  138.9132  157.0442 C   0  0  0  0  0  0  0  0  0  0  0  0
  151.5475  139.2540  157.8864 C   0  0  2  0  0  0  0  0  0  0  0  0
  151.9898  139.9268  159.0646 O   0  0  0  0  0  0  0  0  0  0  0  0
  151.7008  141.3199  159.1560 C   0  0  0  0  0  0  0  0  0  0  0  0
  151.8524  141.9957  157.7778 C   0  0  0  0  0  0  0  0  0  0  0  0
  151.6824  143.5204  157.8824 C   0  0  0  0  0  0  0  0  0  0  0  0
  152.6606  144.1239  158.9031 C   0  0  0  0  0  0  0  0  0  0  0  0
  152.5179  143.4491  160.2765 C   0  0  0  0  0  0  0  0  0  0  0  0
  152.6904  141.9258  160.1661 C   0  0  0  0  0  0  0  0  0  0  0  0
  150.7803  137.9796  158.2701 C   0  0  0  0  0  0  0  0  0  0  0  0
  151.3633  137.0537  158.8346 O   0  0  0  0  0  0  0  0  0  0  0  0
  149.4743  137.9554  157.9601 N   0  0  0  0  0  0  0  0  0  0  0  0
  148.5671  136.8324  158.1864 C   0  0  0  0  0  0  0  0  0  0  0  0
  148.6953  136.2571  159.6119 C   0  0  0  0  0  0  0  0  0  0  0  0
  147.4169  136.3675  160.4024 C   0  0  0  0  0  0  0  0  0  0  0  0
  146.7600  135.3952  160.9164 N   0  0  0  0  0  0  0  0  0  0  0  0
  145.7345  136.0127  161.5249 N   0  0  0  0  0  0  0  0  0  0  0  0
  145.7871  137.3372  161.3653 C   0  0  0  0  0  0  0  0  0  0  0  0
  144.9553  138.1115  161.8334 O   0  0  0  0  0  0  0  0  0  0  0  0
  146.8806  137.5964  160.6268 N   0  5  0  0  0  0  0  0  0  0  0  0
  145.0429  135.4762  162.0274 H   0  0  0  0  0  0  0  0  0  0  0  0
  153.3624  138.4608  154.9953 H   0  0  0  0  0  0  0  0  0  0  0  0
  152.0448  139.6227  155.1223 H   0  0  0  0  0  0  0  0  0  0  0  0
  151.7429  137.9109  155.4172 H   0  0  0  0  0  0  0  0  0  0  0  0
  153.2521  137.9999  157.4234 H   0  0  0  0  0  0  0  0  0  0  0  0
  153.5396  139.6996  157.1475 H   0  0  0  0  0  0  0  0  0  0  0  0
  150.8994  139.9048  157.2976 H   0  0  0  0  0  0  0  0  0  0  0  0
  150.6914  141.4884  159.5331 H   0  0  0  0  0  0  0  0  0  0  0  0
  152.8349  141.7662  157.3634 H   0  0  0  0  0  0  0  0  0  0  0  0
  151.1210  141.6011  157.0732 H   0  0  0  0  0  0  0  0  0  0  0  0
  151.8358  143.9798  156.9054 H   0  0  0  0  0  0  0  0  0  0  0  0
  150.6581  143.7537  158.1761 H   0  0  0  0  0  0  0  0  0  0  0  0
  153.6832  144.0049  158.5424 H   0  0  0  0  0  0  0  0  0  0  0  0
  152.4881  145.1966  158.9955 H   0  0  0  0  0  0  0  0  0  0  0  0
  153.2538  143.8574  160.9696 H   0  0  0  0  0  0  0  0  0  0  0  0
  151.5375  143.6765  160.6970 H   0  0  0  0  0  0  0  0  0  0  0  0
  152.5484  141.4652  161.1442 H   0  0  0  0  0  0  0  0  0  0  0  0
  153.7128  141.6966  159.8624 H   0  0  0  0  0  0  0  0  0  0  0  0
  149.0851  138.7661  157.5017 H   0  0  0  0  0  0  0  0  0  0  0  0
  147.5315  137.1002  157.9677 H   0  0  0  0  0  0  0  0  0  0  0  0
  148.8320  136.0573  157.4673 H   0  0  0  0  0  0  0  0  0  0  0  0
  148.9900  135.2087  159.5477 H   0  0  0  0  0  0  0  0  0  0  0  0
  149.5043  136.7595  160.1437 H   0  0  0  0  0  0  0  0  0  0  0  0
  1  2  1  0  0  0  0
  1 23  1  0  0  0  0
  1 24  1  0  0  0  0
  1 25  1  0  0  0  0
  2  3  1  0  0  0  0
  2 26  1  0  0  0  0
  2 27  1  0  0  0  0
  3  4  1  0  0  0  0
  3 11  1  0  0  0  0
  3 28  1  0  0  0  0
  4  5  1  0  0  0  0
  5 10  1  0  0  0  0
  5  6  1  0  0  0  0
  5 29  1  0  0  0  0
  6  7  1  0  0  0  0
  6 30  1  0  0  0  0
  6 31  1  0  0  0  0
  7  8  1  0  0  0  0
  7 32  1  0  0  0  0
  7 33  1  0  0  0  0
  8  9  1  0  0  0  0
  8 34  1  0  0  0  0
  8 35  1  0  0  0  0
  9 10  1  0  0  0  0
  9 36  1  0  0  0  0
  9 37  1  0  0  0  0
 10 38  1  0  0  0  0
 10 39  1  0  0  0  0
 11 12  2  0  0  0  0
 11 13  1  0  0  0  0
 13 14  1  0  0  0  0
 13 40  1  0  0  0  0
 14 15  1  0  0  0  0
 14 41  1  0  0  0  0
 14 42  1  0  0  0  0
 15 16  1  0  0  0  0
 15 43  1  0  0  0  0
 15 44  1  0  0  0  0
 16 21  1  0  0  0  0
 16 17  2  0  0  0  0
 17 18  1  0  0  0  0
 18 22  1  0  0  0  0
 18 19  1  0  0  0  0
 19 20  2  0  0  0  0
 19 21  1  0  0  0  0
M  CHG  1  21  -1
M  END
> <s_m_source_file>
AV-unprocessed.smi

> <i_m_source_file_index>
3018

> <i_lp_mmshare_version>
43012

> <i_f3d_flags>
0

> <s_epik_input>
W0NIMl0xW0NIMl1bQ0gyXVtDSDJdW0NIMl1bQ0hdMU9bQ0BASF0oW0NIMl1bQ0gzXSlDKD1PKVtOSF1bQ0gyXVtDSDJdYzJuW25IXWMoPU8pW25IXTI=

> <s_epik_cmdline>
J2VwaWtfcHl0aG9uJywgJy1waCcsICc3LjAnLCAnLXRuJywgJzgnLCAnLW1hJywgJzIwMCcsICctbWV0YWxfYmluZGluZycsICctaW1hZScsICc8aW5maWxlLm1hZT4nLCAnLW9tYWUnLCAnPG91dGZpbGUubWFlPic=

> <r_lp_tautomer_probability>
1

> <r_epik_Ionization_Penalty>
13.7173

> <r_epik_Ionization_Penalty_Charging>
13.7173

> <r_epik_Ionization_Penalty_Neutral>
5.37575e-06

> <r_epik_State_Penalty>
4.05785

> <r_epik_Charging_Adjusted_Penalty>
17.7751

> <i_epik_Tot_Q>
-1

> <i_epik_Tot_abs_Q>
1

> <r_epik_Metal_State_Penalty>
0.460256

> <b_epik_Metal_Only>
1

> <s_lp_Force_Field>
OPLS_2005

> <r_lp_Energy>
25.0633

> <b_lp_Chiralities_Consistent>
1

> <s_lp_Variant>
AV-unprocessed.smi:3018-5

> <Gold.Version>
5.8.1

> <Gold.Id.Protein>
6NUR|6NUR_protein|mol2

> <Gold.PLP.Fitness>
44.7658

> <Gold.PLP.PLP>
-37.2533

> <Gold.PLP.part.hbond>
-3.3051

> <Gold.PLP.part.metal>
0.0000

> <Gold.PLP.part.buried>
-3.4610

> <Gold.PLP.part.nonpolar>
-30.8803

> <Gold.PLP.part.repulsive>
0.2221

> <Gold.PLP.ligand.clash>
0.0000

> <Gold.PLP.ligand.torsion>
1.6621

> <Gold.PLP.Chemscore.Hbond>
3.5945

> <Gold.PLP.Chemscore.CHOScore>
0.0000

> <Gold.PLP.Chemscore.Metal>
0.0000

> <Gold.Chemscore.Hbonds>
donor molecule, donor type, donor heavy atom, donor atom, acceptor molecule, acceptor atom, score
      P1  H  6896  6909       L1    12  0.60
      P1  H  6934  6947       L1    21  1.79

> <Gold.PLP.Chemscore.Internal.Correction>
0.0533

> <Gold.Rescore>
     Score         DG    S(hbond)    S(metal)    S(lipo)     H(rot)  DE(clash)    DE(int)     intcor
     12.48     -14.79       1.92        0.00      89.87       2.98       0.01       2.30       ----

> <Gold.Chemscore.Fitness>
12.4813

> <Gold.Chemscore.DG>
-14.7949

> <Gold.Chemscore.ZeroCoef>
-5.4800

> <Gold.Chemscore.Hbond>
1.9225

> <Gold.Chemscore.Metal>
0.0000

> <Gold.Chemscore.Lipo>
89.8745

> <Gold.Chemscore.Internal_Hbond>
0.0000

> <Gold.Chemscore.DEClash>
0.0147

> <Gold.Chemscore.DEInternal>
2.2989

> <Gold.Chemscore.Rot>
2.9772

> <Gold.Chemscore.Internal.Correction>
   9.000000E+99

> <Gold.Chemscore.Hbonds>
donor molecule, donor type, donor heavy atom, donor atom, acceptor molecule, acceptor atom, score
      P1  H  6896  6909       L1    12  0.57
      P1  H  6934  6947       L1    21  0.38

> <Gold.Chemscore.Hbond.Weighted>
-6.4212

> <Gold.Chemscore.Metal.Weighted>
-0.0000

> <Gold.Chemscore.Lipo.Weighted>
-10.5153

> <Gold.Chemscore.Internal_Hbond.Weighted>
0.0000

> <Gold.Chemscore.DEClash.Weighted>
0.0147

> <Gold.Chemscore.DEInternal.Weighted>
2.2989

> <Gold.Chemscore.Rot.Weighted>
7.6216

> <Gold.Chemscore.Internal.Correction.Weighted>
   9.000000E+99

> <Gold.Protein.RotatedTorsions>
[ 6907 6896 6895 6894 ] final  107.02 input  -60.11 | X-H torsion
[ 7974 7965 7964 7962 ] final  -39.95 input  175.53 | X-H torsion
[ 8008 7997 7996 7995 ] final  115.16 input   59.86 | X-H torsion
[ 10167 10162 10161 10158 ] final  -87.43 input  -65.29 | X-H torsion
[ 10718 10713 10712 10709 ] final -173.43 input   66.30 | X-H torsion
[ 10763 10752 10751 10750 ] final -123.98 input  -60.55 | X-H torsion
[ 11005 11000 10999 10996 ] final -111.48 input  -57.11 | X-H torsion

> <Gold.Protein.ActiveResidues>
 VAL166  LYS551  ARG553  GLY616  TRP617  ASP618  TYR619  PRO620  LYS621  CYS622 
 ASP623  PHE694  ASN695  SER759  ASP760  ASP761  ALA762  ILE779  LEU786  VAL792 
 PHE793  MET794  SER795  GLU796  ALA797  LYS798  CYS799  TRP800  GLU811  SER814 

> <Gold.Protein.RotatedAtoms>
  152.5171  133.9296  159.7573 H   0  0  0  0  0  0  0  0  0  0  0  0  # atno 6907 bound_to 6896
  150.9649  133.6397  159.2755 H   0  0  0  0  0  0  0  0  0  0  0  0  # atno 6908 bound_to 6896
  151.3628  135.0913  159.9493 H   0  0  0  0  0  0  0  0  0  0  0  0  # atno 6909 bound_to 6896
  146.0350  140.6683  142.9114 H   0  0  0  0  0  0  0  0  0  0  0  0  # atno 7974 bound_to 7965
  156.2365  140.2944  156.0326 H   0  0  0  0  0  0  0  0  0  0  0  0  # atno 8008 bound_to 7997
  155.2077  140.0411  157.2945 H   0  0  0  0  0  0  0  0  0  0  0  0  # atno 8009 bound_to 7997
  154.6088  140.2446  155.7703 H   0  0  0  0  0  0  0  0  0  0  0  0  # atno 8010 bound_to 7997
  140.3845  143.2733  151.9342 H   0  0  0  0  0  0  0  0  0  0  0  0  # atno 10167 bound_to 10162
  156.7703  130.9446  151.3120 H   0  0  0  0  0  0  0  0  0  0  0  0  # atno 10718 bound_to 10713
  154.8716  135.4079  154.3031 H   0  0  0  0  0  0  0  0  0  0  0  0  # atno 10763 bound_to 10752
  153.3887  135.7014  153.6516 H   0  0  0  0  0  0  0  0  0  0  0  0  # atno 10764 bound_to 10752
  153.5308  135.3668  155.2646 H   0  0  0  0  0  0  0  0  0  0  0  0  # atno 10765 bound_to 10752
  141.0731  133.9346  157.2444 H   0  0  0  0  0  0  0  0  0  0  0  0  # atno 11005 bound_to 11000
  144.7047  140.3804  143.7127 LP  0  0  0  0  0  0  0  0  0  0  0  0  # atno 17320 bound_to 7965
  145.6979  139.1654  143.2609 LP  0  0  0  0  0  0  0  0  0  0  0  0  # atno 17321 bound_to 7965
  139.4793  144.5787  151.7969 LP  0  0  0  0  0  0  0  0  0  0  0  0  # atno 17342 bound_to 10162
  140.4903  144.1319  150.5949 LP  0  0  0  0  0  0  0  0  0  0  0  0  # atno 17343 bound_to 10162
  157.6694  130.9037  150.0006 LP  0  0  0  0  0  0  0  0  0  0  0  0  # atno 17370 bound_to 10713
  156.1282  130.3644  149.9774 LP  0  0  0  0  0  0  0  0  0  0  0  0  # atno 17371 bound_to 10713
  139.9544  135.0169  156.9086 LP  0  0  0  0  0  0  0  0  0  0  0  0  # atno 17394 bound_to 11000
  140.5630  134.0516  155.7405 LP  0  0  0  0  0  0  0  0  0  0  0  0  # atno 17395 bound_to 11000

$$$$
