AV-unprocessed.smi:2092|AV-procd|sdf|8543|dock10
  -GOLD-   2272011263D 1   1.00000     0.00000
 Structure written by MMmdl.
 44 45  0  0  0  0  0  0  0  0  1 V2000
  146.2555  134.7764  157.9736 C   0  0  0  0  0  0  0  0  0  0  0  0
  147.6843  134.9326  158.5155 C   0  0  1  0  0  0  0  0  0  0  0  0
  147.6946  134.4317  159.8501 O   0  0  0  0  0  0  0  0  0  0  0  0
  146.6574  134.9146  160.6988 C   0  0  0  0  0  0  0  0  0  0  0  0
  146.8744  134.3822  162.1201 C   0  0  0  0  0  0  0  0  0  0  0  0
  147.4204  133.1684  162.0560 F   0  0  0  0  0  0  0  0  0  0  0  0
  147.6980  135.1863  162.7917 F   0  0  0  0  0  0  0  0  0  0  0  0
  145.7106  134.2944  162.7633 F   0  0  0  0  0  0  0  0  0  0  0  0
  148.7006  134.1739  157.6463 C   0  0  0  0  0  0  0  0  0  0  0  0
  149.3825  133.2718  158.1331 O   0  0  0  0  0  0  0  0  0  0  0  0
  148.7946  134.5647  156.3663 N   0  0  0  0  0  0  0  0  0  0  0  0
  149.6699  133.9766  155.3565 C   0  0  0  0  0  0  0  0  0  0  0  0
  148.9810  132.9408  154.4813 C   0  0  0  0  0  0  0  0  0  0  0  0
  149.2254  131.5579  154.6234 C   0  0  0  0  0  0  0  0  0  0  0  0
  148.5421  130.6668  153.7752 C   0  0  0  0  0  0  0  0  0  0  0  0
  147.6692  131.0680  152.8277 N   0  0  0  0  0  0  0  0  0  0  0  0
  147.4390  132.3947  152.6701 C   0  0  0  0  0  0  0  0  0  0  0  0
  146.5334  132.8039  151.6684 N   0  0  0  0  0  0  0  0  0  0  0  0
  145.8846  131.7229  150.9312 C   0  0  0  0  0  0  0  0  0  0  0  0
  145.1738  132.2775  149.6847 C   0  0  0  0  0  0  0  0  0  0  0  0
  144.2678  133.3083  150.0646 O   0  0  0  0  0  0  0  0  0  0  0  0
  144.9382  134.4011  150.6844 C   0  0  0  0  0  0  0  0  0  0  0  0
  145.6378  133.9195  151.9668 C   0  0  0  0  0  0  0  0  0  0  0  0
  148.0783  133.3608  153.4829 C   0  0  0  0  0  0  0  0  0  0  0  0
  146.1825  135.1193  156.9409 H   0  0  0  0  0  0  0  0  0  0  0  0
  145.5520  135.3624  158.5654 H   0  0  0  0  0  0  0  0  0  0  0  0
  145.9251  133.7375  158.0065 H   0  0  0  0  0  0  0  0  0  0  0  0
  147.9301  135.9964  158.5263 H   0  0  0  0  0  0  0  0  0  0  0  0
  146.6463  136.0050  160.7173 H   0  0  0  0  0  0  0  0  0  0  0  0
  145.6864  134.5837  160.3274 H   0  0  0  0  0  0  0  0  0  0  0  0
  148.1961  135.3178  156.0594 H   0  0  0  0  0  0  0  0  0  0  0  0
  150.0448  134.7848  154.7276 H   0  0  0  0  0  0  0  0  0  0  0  0
  150.5439  133.5041  155.8072 H   0  0  0  0  0  0  0  0  0  0  0  0
  149.9185  131.1777  155.3594 H   0  0  0  0  0  0  0  0  0  0  0  0
  148.7021  129.6021  153.8584 H   0  0  0  0  0  0  0  0  0  0  0  0
  146.5980  130.9594  150.6239 H   0  0  0  0  0  0  0  0  0  0  0  0
  145.1617  131.2360  151.5872 H   0  0  0  0  0  0  0  0  0  0  0  0
  145.8977  132.6615  148.9640 H   0  0  0  0  0  0  0  0  0  0  0  0
  144.6187  131.4835  149.1855 H   0  0  0  0  0  0  0  0  0  0  0  0
  145.6566  134.8415  149.9910 H   0  0  0  0  0  0  0  0  0  0  0  0
  144.2095  135.1759  150.9227 H   0  0  0  0  0  0  0  0  0  0  0  0
  144.8946  133.6019  152.6995 H   0  0  0  0  0  0  0  0  0  0  0  0
  146.1986  134.7455  152.4061 H   0  0  0  0  0  0  0  0  0  0  0  0
  147.8719  134.4137  153.3588 H   0  0  0  0  0  0  0  0  0  0  0  0
  1  2  1  0  0  0  0
  1 25  1  0  0  0  0
  1 26  1  0  0  0  0
  1 27  1  0  0  0  0
  2  3  1  0  0  0  0
  2  9  1  0  0  0  0
  2 28  1  0  0  0  0
  3  4  1  0  0  0  0
  4  5  1  0  0  0  0
  4 29  1  0  0  0  0
  4 30  1  0  0  0  0
  5  6  1  0  0  0  0
  5  7  1  0  0  0  0
  5  8  1  0  0  0  0
  9 10  2  0  0  0  0
  9 11  1  0  0  0  0
 11 12  1  0  0  0  0
 11 31  1  0  0  0  0
 12 13  1  0  0  0  0
 12 32  1  0  0  0  0
 12 33  1  0  0  0  0
 13 24  1  0  0  0  0
 13 14  2  0  0  0  0
 14 15  1  0  0  0  0
 14 34  1  0  0  0  0
 15 16  2  0  0  0  0
 15 35  1  0  0  0  0
 16 17  1  0  0  0  0
 17 18  1  0  0  0  0
 17 24  2  0  0  0  0
 18 23  1  0  0  0  0
 18 19  1  0  0  0  0
 19 20  1  0  0  0  0
 19 36  1  0  0  0  0
 19 37  1  0  0  0  0
 20 21  1  0  0  0  0
 20 38  1  0  0  0  0
 20 39  1  0  0  0  0
 21 22  1  0  0  0  0
 22 23  1  0  0  0  0
 22 40  1  0  0  0  0
 22 41  1  0  0  0  0
 23 42  1  0  0  0  0
 23 43  1  0  0  0  0
 24 44  1  0  0  0  0
M  END
> <s_m_source_file>
AV-unprocessed.smi

> <i_m_source_file_index>
2092

> <i_lp_mmshare_version>
43012

> <i_f3d_flags>
0

> <s_epik_input>
RkMoRikoRilbQ0gyXU9bQ0BASF0oW0NIM10pQyg9TylbTkhdW0NIMl1jMVtjSF1bY0hdbmMoW2NIXTEpTjJbQ0gyXVtDSDJdT1tDSDJdW0NIMl0y

> <s_epik_cmdline>
J2VwaWtfcHl0aG9uJywgJy1waCcsICc3LjAnLCAnLXRuJywgJzgnLCAnLW1hJywgJzIwMCcsICctbWV0YWxfYmluZGluZycsICctaW1hZScsICc8aW5maWxlLm1hZT4nLCAnLW9tYWUnLCAnPG91dGZpbGUubWFlPic=

> <r_lp_tautomer_probability>
1

> <r_epik_Ionization_Penalty>
0.00451782

> <r_epik_Ionization_Penalty_Charging>
0

> <r_epik_Ionization_Penalty_Neutral>
0.00451782

> <r_epik_State_Penalty>
0.00326147

> <r_epik_Charging_Adjusted_Penalty>
0.00326147

> <i_epik_Tot_Q>
0

> <i_epik_Tot_abs_Q>
0

> <r_epik_Metal_State_Penalty>
-0

> <b_epik_Metal_Only>
0

> <s_lp_Force_Field>
OPLS_2005

> <r_lp_Energy>
17.1262

> <b_lp_Chiralities_Consistent>
1

> <s_lp_Variant>
AV-unprocessed.smi:2092-2

> <Gold.Version>
5.8.1

> <Gold.Id.Protein>
6NUR|6NUR_protein|mol2

> <Gold.PLP.Fitness>
42.3436

> <Gold.PLP.PLP>
-41.2219

> <Gold.PLP.part.hbond>
-1.0000

> <Gold.PLP.part.metal>
0.0000

> <Gold.PLP.part.buried>
-6.2419

> <Gold.PLP.part.nonpolar>
-35.7489

> <Gold.PLP.part.repulsive>
1.1854

> <Gold.PLP.ligand.clash>
0.0000

> <Gold.PLP.ligand.torsion>
1.1667

> <Gold.PLP.Chemscore.Hbond>
1.0000

> <Gold.PLP.Chemscore.CHOScore>
0.0000

> <Gold.PLP.Chemscore.Metal>
0.0000

> <Gold.Chemscore.Hbonds>
donor molecule, donor type, donor heavy atom, donor atom, acceptor molecule, acceptor atom, score
      P1  H  6896  6907       L1    10  1.00

> <Gold.PLP.Chemscore.Internal.Correction>
0.4550

> <Gold.Rescore>
     Score         DG    S(hbond)    S(metal)    S(lipo)     H(rot)  DE(clash)    DE(int)     intcor
      9.54     -10.76       1.00        0.00      71.03       2.49       0.00       1.22       ----

> <Gold.Chemscore.Fitness>
9.5393

> <Gold.Chemscore.DG>
-10.7562

> <Gold.Chemscore.ZeroCoef>
-5.4800

> <Gold.Chemscore.Hbond>
1.0000

> <Gold.Chemscore.Metal>
0.0000

> <Gold.Chemscore.Lipo>
71.0288

> <Gold.Chemscore.Internal_Hbond>
0.0000

> <Gold.Chemscore.DEClash>
0.0014

> <Gold.Chemscore.DEInternal>
1.2155

> <Gold.Chemscore.Rot>
2.4899

> <Gold.Chemscore.Internal.Correction>
   9.000000E+99

> <Gold.Chemscore.Hbonds>
donor molecule, donor type, donor heavy atom, donor atom, acceptor molecule, acceptor atom, score
      P1  H  6896  6907       L1    10  0.91

> <Gold.Chemscore.Hbond.Weighted>
-3.3400

> <Gold.Chemscore.Metal.Weighted>
-0.0000

> <Gold.Chemscore.Lipo.Weighted>
-8.3104

> <Gold.Chemscore.Internal_Hbond.Weighted>
0.0000

> <Gold.Chemscore.DEClash.Weighted>
0.0014

> <Gold.Chemscore.DEInternal.Weighted>
1.2155

> <Gold.Chemscore.Rot.Weighted>
6.3741

> <Gold.Chemscore.Internal.Correction.Weighted>
   9.000000E+99

> <Gold.Protein.RotatedTorsions>
[ 6907 6896 6895 6894 ] final -114.50 input  -60.11 | X-H torsion
[ 7974 7965 7964 7962 ] final  133.59 input  175.53 | X-H torsion
[ 8008 7997 7996 7995 ] final -122.00 input   59.86 | X-H torsion
[ 10167 10162 10161 10158 ] final  -22.02 input  -65.29 | X-H torsion
[ 10718 10713 10712 10709 ] final -122.93 input   66.30 | X-H torsion
[ 10763 10752 10751 10750 ] final   19.18 input  -60.55 | X-H torsion
[ 11005 11000 10999 10996 ] final  -72.35 input  -57.11 | X-H torsion

> <Gold.Protein.ActiveResidues>
 VAL166  LYS551  ARG553  GLY616  TRP617  ASP618  TYR619  PRO620  LYS621  CYS622 
 ASP623  PHE694  ASN695  SER759  ASP760  ASP761  ALA762  ILE779  LEU786  VAL792 
 PHE793  MET794  SER795  GLU796  ALA797  LYS798  CYS799  TRP800  GLU811  SER814 

> <Gold.Protein.RotatedAtoms>
  150.7907  133.8792  159.3280 H   0  0  0  0  0  0  0  0  0  0  0  0  # atno 6907 bound_to 6896
  151.6631  135.0985  160.0193 H   0  0  0  0  0  0  0  0  0  0  0  0  # atno 6908 bound_to 6896
  152.3980  133.6737  159.6328 H   0  0  0  0  0  0  0  0  0  0  0  0  # atno 6909 bound_to 6896
  144.9850  139.4465  143.5367 H   0  0  0  0  0  0  0  0  0  0  0  0  # atno 7974 bound_to 7965
  155.1572  140.0405  157.2834 H   0  0  0  0  0  0  0  0  0  0  0  0  # atno 8008 bound_to 7997
  154.6362  140.2536  155.7348 H   0  0  0  0  0  0  0  0  0  0  0  0  # atno 8009 bound_to 7997
  156.2510  140.2865  156.0736 H   0  0  0  0  0  0  0  0  0  0  0  0  # atno 8010 bound_to 7997
  140.7284  143.4573  151.0430 H   0  0  0  0  0  0  0  0  0  0  0  0  # atno 10167 bound_to 10162
  156.1459  130.6500  150.9842 H   0  0  0  0  0  0  0  0  0  0  0  0  # atno 10718 bound_to 10713
  153.1184  135.6713  153.9378 H   0  0  0  0  0  0  0  0  0  0  0  0  # atno 10763 bound_to 10752
  153.8901  135.3048  155.3448 H   0  0  0  0  0  0  0  0  0  0  0  0  # atno 10764 bound_to 10752
  154.7598  135.4993  153.9521 H   0  0  0  0  0  0  0  0  0  0  0  0  # atno 10765 bound_to 10752
  141.1607  133.6844  156.7045 H   0  0  0  0  0  0  0  0  0  0  0  0  # atno 11005 bound_to 11000
  146.3417  139.9146  142.8775 LP  0  0  0  0  0  0  0  0  0  0  0  0  # atno 17320 bound_to 7965
  145.2367  140.9994  143.3959 LP  0  0  0  0  0  0  0  0  0  0  0  0  # atno 17321 bound_to 7965
  139.8254  143.7762  152.3178 LP  0  0  0  0  0  0  0  0  0  0  0  0  # atno 17342 bound_to 10162
  139.7860  144.7428  151.0022 LP  0  0  0  0  0  0  0  0  0  0  0  0  # atno 17343 bound_to 10162
  157.6616  131.0879  150.7824 LP  0  0  0  0  0  0  0  0  0  0  0  0  # atno 17370 bound_to 10713
  156.7896  130.4886  149.5387 LP  0  0  0  0  0  0  0  0  0  0  0  0  # atno 17371 bound_to 10713
  140.2934  134.8222  157.4036 LP  0  0  0  0  0  0  0  0  0  0  0  0  # atno 17394 bound_to 11000
  140.1326  134.5075  155.8093 LP  0  0  0  0  0  0  0  0  0  0  0  0  # atno 17395 bound_to 11000

$$$$
