AV-unprocessed.smi:2284|AV-procd|sdf|9201|dock9
  -GOLD-   2272012413D 1   1.00000     0.00000
 Structure written by MMmdl.
 44 45  0  0  0  0  0  0  0  0  1 V2000
  151.3896  144.9548  158.9089 C   0  0  0  0  0  0  0  0  0  0  0  0
  152.0686  143.6436  159.2470 C   0  0  0  0  0  0  0  0  0  0  0  0
  152.7625  143.4942  160.4633 C   0  0  0  0  0  0  0  0  0  0  0  0
  153.3923  142.2739  160.7671 C   0  0  0  0  0  0  0  0  0  0  0  0
  153.3326  141.1967  159.8588 C   0  0  0  0  0  0  0  0  0  0  0  0
  154.0176  139.8871  160.2021 C   0  0  0  0  0  0  0  0  0  0  0  0
  152.6402  141.3335  158.6335 C   0  0  0  0  0  0  0  0  0  0  0  0
  152.6230  140.2420  157.7901 O   0  0  0  0  0  0  0  0  0  0  0  0
  151.8625  140.3190  156.5907 C   0  0  0  0  0  0  0  0  0  0  0  0
  151.9158  138.9713  155.8516 C   0  0  2  0  0  0  0  0  0  0  0  0
  153.2757  138.6364  155.6609 O   0  0  0  0  0  0  0  0  0  0  0  0
  151.1682  138.9939  154.4992 C   0  0  0  0  0  0  0  0  0  0  0  0
  149.7132  139.1421  154.6695 N   0  0  0  0  0  0  0  0  0  0  0  0
  149.0109  137.9870  155.0500 C   0  0  0  0  0  0  0  0  0  0  0  0
  147.7310  137.9998  155.2325 N   0  0  0  0  0  0  0  0  0  0  0  0
  147.0130  139.1859  155.0549 C   0  0  0  0  0  0  0  0  0  0  0  0
  145.5177  139.0910  155.3010 C   0  0  0  0  0  0  0  0  0  0  0  0
  147.6344  140.3407  154.6901 C   0  0  0  0  0  0  0  0  0  0  0  0
  146.9058  141.6641  154.4915 C   0  0  0  0  0  0  0  0  0  0  0  0
  149.0909  140.3413  154.4779 C   0  0  0  0  0  0  0  0  0  0  0  0
  149.7189  141.3509  154.1537 O   0  0  0  0  0  0  0  0  0  0  0  0
  152.0087  142.5685  158.3374 C   0  0  0  0  0  0  0  0  0  0  0  0
  151.3775  145.6292  159.7658 H   0  0  0  0  0  0  0  0  0  0  0  0
  150.3585  144.7805  158.6004 H   0  0  0  0  0  0  0  0  0  0  0  0
  151.9141  145.4504  158.0916 H   0  0  0  0  0  0  0  0  0  0  0  0
  152.8156  144.3125  161.1665 H   0  0  0  0  0  0  0  0  0  0  0  0
  153.9229  142.1691  161.7020 H   0  0  0  0  0  0  0  0  0  0  0  0
  153.2919  139.0734  160.2198 H   0  0  0  0  0  0  0  0  0  0  0  0
  154.5008  139.9317  161.1785 H   0  0  0  0  0  0  0  0  0  0  0  0
  154.7789  139.6525  159.4574 H   0  0  0  0  0  0  0  0  0  0  0  0
  150.8284  140.6015  156.7963 H   0  0  0  0  0  0  0  0  0  0  0  0
  152.2942  141.0863  155.9459 H   0  0  0  0  0  0  0  0  0  0  0  0
  151.4858  138.2160  156.5106 H   0  0  0  0  0  0  0  0  0  0  0  0
  153.5568  138.9808  154.8271 H   0  0  0  0  0  0  0  0  0  0  0  0
  151.5312  139.8328  153.9021 H   0  0  0  0  0  0  0  0  0  0  0  0
  151.4258  138.1136  153.9061 H   0  0  0  0  0  0  0  0  0  0  0  0
  149.6181  137.0900  155.1833 H   0  0  0  0  0  0  0  0  0  0  0  0
  144.9652  139.3438  154.3958 H   0  0  0  0  0  0  0  0  0  0  0  0
  145.2168  139.7742  156.0957 H   0  0  0  0  0  0  0  0  0  0  0  0
  145.2270  138.0830  155.5994 H   0  0  0  0  0  0  0  0  0  0  0  0
  147.2720  142.4041  155.2037 H   0  0  0  0  0  0  0  0  0  0  0  0
  145.8282  141.5851  154.6246 H   0  0  0  0  0  0  0  0  0  0  0  0
  147.0830  142.0456  153.4854 H   0  0  0  0  0  0  0  0  0  0  0  0
  151.4698  142.7162  157.4141 H   0  0  0  0  0  0  0  0  0  0  0  0
  1  2  1  0  0  0  0
  1 23  1  0  0  0  0
  1 24  1  0  0  0  0
  1 25  1  0  0  0  0
  2 22  1  0  0  0  0
  2  3  2  0  0  0  0
  3  4  1  0  0  0  0
  3 26  1  0  0  0  0
  4  5  2  0  0  0  0
  4 27  1  0  0  0  0
  5  6  1  0  0  0  0
  5  7  1  0  0  0  0
  6 28  1  0  0  0  0
  6 29  1  0  0  0  0
  6 30  1  0  0  0  0
  7  8  1  0  0  0  0
  7 22  2  0  0  0  0
  8  9  1  0  0  0  0
  9 10  1  0  0  0  0
  9 31  1  0  0  0  0
  9 32  1  0  0  0  0
 10 11  1  0  0  0  0
 10 12  1  0  0  0  0
 10 33  1  0  0  0  0
 11 34  1  0  0  0  0
 12 13  1  0  0  0  0
 12 35  1  0  0  0  0
 12 36  1  0  0  0  0
 13 20  1  0  0  0  0
 13 14  1  0  0  0  0
 14 15  2  0  0  0  0
 14 37  1  0  0  0  0
 15 16  1  0  0  0  0
 16 17  1  0  0  0  0
 16 18  2  0  0  0  0
 17 38  1  0  0  0  0
 17 39  1  0  0  0  0
 17 40  1  0  0  0  0
 18 19  1  0  0  0  0
 18 20  1  0  0  0  0
 19 41  1  0  0  0  0
 19 42  1  0  0  0  0
 19 43  1  0  0  0  0
 20 21  2  0  0  0  0
 22 44  1  0  0  0  0
M  END
> <s_m_source_file>
AV-unprocessed.smi

> <i_m_source_file_index>
2284

> <i_lp_mmshare_version>
43012

> <i_f3d_flags>
0

> <s_epik_input>
W0NIM11jMVtjSF1bY0hdYyhbQ0gzXSljKFtjSF0xKU9bQ0gyXVtDQEhdKFtPSF0pW0NIMl1uMltjSF1uYyhbQ0gzXSljKFtDSDNdKWMyPU8=

> <s_epik_cmdline>
J2VwaWtfcHl0aG9uJywgJy1waCcsICc3LjAnLCAnLXRuJywgJzgnLCAnLW1hJywgJzIwMCcsICctbWV0YWxfYmluZGluZycsICctaW1hZScsICc8aW5maWxlLm1hZT4nLCAnLW9tYWUnLCAnPG91dGZpbGUubWFlPic=

> <r_lp_tautomer_probability>
1

> <r_epik_Ionization_Penalty>
3.7476e-05

> <r_epik_Ionization_Penalty_Charging>
8.44705e-08

> <r_epik_Ionization_Penalty_Neutral>
3.73915e-05

> <r_epik_State_Penalty>
-0

> <r_epik_Charging_Adjusted_Penalty>
8.44705e-08

> <i_epik_Tot_Q>
0

> <i_epik_Tot_abs_Q>
0

> <r_epik_Metal_State_Penalty>
-0

> <b_epik_Metal_Only>
0

> <s_lp_Force_Field>
OPLS_2005

> <r_lp_Energy>
24.4024

> <b_lp_Chiralities_Consistent>
1

> <s_lp_Variant>
AV-unprocessed.smi:2284-1

> <Gold.Version>
5.8.1

> <Gold.Id.Protein>
6NUR|6NUR_protein|mol2

> <Gold.PLP.Fitness>
49.5271

> <Gold.PLP.PLP>
-44.5633

> <Gold.PLP.part.hbond>
-4.0000

> <Gold.PLP.part.metal>
0.0000

> <Gold.PLP.part.buried>
-2.9188

> <Gold.PLP.part.nonpolar>
-36.1203

> <Gold.PLP.part.repulsive>
0.2658

> <Gold.PLP.ligand.clash>
0.0000

> <Gold.PLP.ligand.torsion>
0.3094

> <Gold.PLP.Chemscore.Hbond>
1.8497

> <Gold.PLP.Chemscore.CHOScore>
0.0000

> <Gold.PLP.Chemscore.Metal>
0.0000

> <Gold.Chemscore.Hbonds>
donor molecule, donor type, donor heavy atom, donor atom, acceptor molecule, acceptor atom, score
      P1  H  7989  7998       L1    21  0.32
      P1  H  7997  8010       L1     8  0.75
      P1  H  8011  8017       L1    21  0.55

> <Gold.PLP.Chemscore.Internal.Correction>
0.0333

> <Gold.Rescore>
     Score         DG    S(hbond)    S(metal)    S(lipo)     H(rot)  DE(clash)    DE(int)     intcor
     16.57     -17.37       1.12        0.00     120.40       2.32       0.46       0.35       ----

> <Gold.Chemscore.Fitness>
16.5663

> <Gold.Chemscore.DG>
-17.3680

> <Gold.Chemscore.ZeroCoef>
-5.4800

> <Gold.Chemscore.Hbond>
1.1228

> <Gold.Chemscore.Metal>
0.0000

> <Gold.Chemscore.Lipo>
120.3954

> <Gold.Chemscore.Internal_Hbond>
0.0000

> <Gold.Chemscore.DEClash>
0.4558

> <Gold.Chemscore.DEInternal>
0.3459

> <Gold.Chemscore.Rot>
2.3236

> <Gold.Chemscore.Internal.Correction>
   9.000000E+99

> <Gold.Chemscore.Hbonds>
donor molecule, donor type, donor heavy atom, donor atom, acceptor molecule, acceptor atom, score
      P1  H  7989  7998       L1    21  0.26
      P1  H  7997  8010       L1     8  0.09
      P1  H  8011  8017       L1    21  0.55

> <Gold.Chemscore.Hbond.Weighted>
-3.7501

> <Gold.Chemscore.Metal.Weighted>
-0.0000

> <Gold.Chemscore.Lipo.Weighted>
-14.0863

> <Gold.Chemscore.Internal_Hbond.Weighted>
0.0000

> <Gold.Chemscore.DEClash.Weighted>
0.4558

> <Gold.Chemscore.DEInternal.Weighted>
0.3459

> <Gold.Chemscore.Rot.Weighted>
5.9484

> <Gold.Chemscore.Internal.Correction.Weighted>
   9.000000E+99

> <Gold.Protein.RotatedTorsions>
[ 6907 6896 6895 6894 ] final   56.77 input  -60.11 | X-H torsion
[ 7974 7965 7964 7962 ] final -145.61 input  175.53 | X-H torsion
[ 8008 7997 7996 7995 ] final   41.86 input   59.86 | X-H torsion
[ 10167 10162 10161 10158 ] final -168.83 input  -65.29 | X-H torsion
[ 10718 10713 10712 10709 ] final   52.59 input   66.30 | X-H torsion
[ 10763 10752 10751 10750 ] final -150.93 input  -60.55 | X-H torsion
[ 11005 11000 10999 10996 ] final   43.02 input  -57.11 | X-H torsion

> <Gold.Protein.ActiveResidues>
 VAL166  LYS551  ARG553  GLY616  TRP617  ASP618  TYR619  PRO620  LYS621  CYS622 
 ASP623  PHE694  ASN695  SER759  ASP760  ASP761  ALA762  ILE779  LEU786  VAL792 
 PHE793  MET794  SER795  GLU796  ALA797  LYS798  CYS799  TRP800  GLU811  SER814 

> <Gold.Protein.RotatedAtoms>
  152.3668  134.6792  160.0189 H   0  0  0  0  0  0  0  0  0  0  0  0  # atno 6907 bound_to 6896
  151.7098  133.3306  159.3296 H   0  0  0  0  0  0  0  0  0  0  0  0  # atno 6908 bound_to 6896
  150.7644  134.6477  159.6315 H   0  0  0  0  0  0  0  0  0  0  0  0  # atno 6909 bound_to 6896
  144.8215  140.5561  143.5575 H   0  0  0  0  0  0  0  0  0  0  0  0  # atno 7974 bound_to 7965
  155.2766  140.3369  155.4261 H   0  0  0  0  0  0  0  0  0  0  0  0  # atno 8008 bound_to 7997
  156.2109  140.1769  156.7738 H   0  0  0  0  0  0  0  0  0  0  0  0  # atno 8009 bound_to 7997
  154.5685  140.0674  156.8912 H   0  0  0  0  0  0  0  0  0  0  0  0  # atno 8010 bound_to 7997
  139.5960  144.1110  152.1690 H   0  0  0  0  0  0  0  0  0  0  0  0  # atno 10167 bound_to 10162
  157.5089  130.8487  149.8409 H   0  0  0  0  0  0  0  0  0  0  0  0  # atno 10718 bound_to 10713
  154.8089  135.3272  154.7358 H   0  0  0  0  0  0  0  0  0  0  0  0  # atno 10763 bound_to 10752
  153.8011  135.6903  153.4860 H   0  0  0  0  0  0  0  0  0  0  0  0  # atno 10764 bound_to 10752
  153.1854  135.4571  155.0027 H   0  0  0  0  0  0  0  0  0  0  0  0  # atno 10765 bound_to 10752
  140.1684  134.4253  155.8272 H   0  0  0  0  0  0  0  0  0  0  0  0  # atno 11005 bound_to 11000
  145.5094  139.1480  143.3613 LP  0  0  0  0  0  0  0  0  0  0  0  0  # atno 17320 bound_to 7965
  146.2521  140.5234  142.8889 LP  0  0  0  0  0  0  0  0  0  0  0  0  # atno 17321 bound_to 7965
  140.0696  144.5790  150.7202 LP  0  0  0  0  0  0  0  0  0  0  0  0  # atno 17342 bound_to 10162
  140.7212  143.2591  151.4271 LP  0  0  0  0  0  0  0  0  0  0  0  0  # atno 17343 bound_to 10162
  156.0276  130.3774  150.1779 LP  0  0  0  0  0  0  0  0  0  0  0  0  # atno 17370 bound_to 10713
  156.9968  130.9910  151.3401 LP  0  0  0  0  0  0  0  0  0  0  0  0  # atno 17371 bound_to 10713
  141.2215  133.6945  156.7720 LP  0  0  0  0  0  0  0  0  0  0  0  0  # atno 17394 bound_to 11000
  140.2406  134.8616  157.3569 LP  0  0  0  0  0  0  0  0  0  0  0  0  # atno 17395 bound_to 11000

$$$$
