AV-unprocessed.smi:1612|AV-procd|sdf|6477|dock7
  -GOLD-   22720 7143D 1   1.00000     0.00000
 Structure written by MMmdl.
 37 38  0  0  0  0  0  0  0  0  1 V2000
  147.4992  141.6160  153.4841 C   0  0  0  0  0  0  0  0  0  0  0  0
  148.7354  141.0461  154.2145 C   0  0  1  0  0  0  0  0  0  0  0  0
  149.2852  141.9831  155.2007 N   0  0  0  0  0  0  0  0  0  0  0  0
  150.2343  141.7495  156.1231 C   0  0  0  0  0  0  0  0  0  0  0  0
  150.8417  140.6843  156.2288 O   0  0  0  0  0  0  0  0  0  0  0  0
  150.4307  142.8324  156.8960 N   0  0  0  0  0  0  0  0  0  0  0  0
  151.3430  142.9891  157.9738 C   0  0  0  0  0  0  0  0  0  0  0  0
  151.3178  144.2563  158.5994 C   0  0  0  0  0  0  0  0  0  0  0  0
  152.1848  144.5133  159.6790 C   0  0  0  0  0  0  0  0  0  0  0  0
  153.0566  143.4957  160.1056 C   0  0  0  0  0  0  0  0  0  0  0  0
  153.0186  142.2632  159.4283 C   0  0  0  0  0  0  0  0  0  0  0  0
  152.1881  142.0146  158.3938 N   0  0  0  0  0  0  0  0  0  0  0  0
  148.5261  139.6391  154.8123 C   0  0  0  0  0  0  0  0  0  0  0  0
  147.4557  139.3774  155.3628 O   0  0  0  0  0  0  0  0  0  0  0  0
  149.5234  138.7306  154.7320 N   0  0  0  0  0  0  0  0  0  0  0  0
  150.8317  138.9291  154.1070 C   0  0  0  0  0  0  0  0  0  0  0  0
  151.6622  137.7011  154.4809 C   0  0  0  0  0  0  0  0  0  0  0  0
  150.6275  136.6143  154.7336 C   0  0  0  0  0  0  0  0  0  0  0  0
  149.4135  137.3744  155.2676 C   0  0  0  0  0  0  0  0  0  0  0  0
  147.1978  140.9608  152.6663 H   0  0  0  0  0  0  0  0  0  0  0  0
  147.7157  142.5939  153.0529 H   0  0  0  0  0  0  0  0  0  0  0  0
  146.6362  141.7268  154.1407 H   0  0  0  0  0  0  0  0  0  0  0  0
  149.5024  140.9543  153.4458 H   0  0  0  0  0  0  0  0  0  0  0  0
  148.8709  142.9036  155.1999 H   0  0  0  0  0  0  0  0  0  0  0  0
  149.8589  143.6386  156.6923 H   0  0  0  0  0  0  0  0  0  0  0  0
  150.6412  145.0268  158.2590 H   0  0  0  0  0  0  0  0  0  0  0  0
  152.1802  145.4749  160.1706 H   0  0  0  0  0  0  0  0  0  0  0  0
  153.7364  143.6550  160.9297 H   0  0  0  0  0  0  0  0  0  0  0  0
  153.6714  141.4556  159.7248 H   0  0  0  0  0  0  0  0  0  0  0  0
  150.7047  138.9844  153.0250 H   0  0  0  0  0  0  0  0  0  0  0  0
  151.3216  139.8436  154.4415 H   0  0  0  0  0  0  0  0  0  0  0  0
  152.3839  137.4278  153.7106 H   0  0  0  0  0  0  0  0  0  0  0  0
  152.2140  137.8993  155.4007 H   0  0  0  0  0  0  0  0  0  0  0  0
  150.3705  136.1294  153.7909 H   0  0  0  0  0  0  0  0  0  0  0  0
  150.9797  135.8442  155.4203 H   0  0  0  0  0  0  0  0  0  0  0  0
  149.4397  137.4216  156.3573 H   0  0  0  0  0  0  0  0  0  0  0  0
  148.4821  136.8887  154.9719 H   0  0  0  0  0  0  0  0  0  0  0  0
  1  2  1  0  0  0  0
  1 20  1  0  0  0  0
  1 21  1  0  0  0  0
  1 22  1  0  0  0  0
  2  3  1  0  0  0  0
  2 13  1  0  0  0  0
  2 23  1  0  0  0  0
  3  4  1  0  0  0  0
  3 24  1  0  0  0  0
  4  5  2  0  0  0  0
  4  6  1  0  0  0  0
  6  7  1  0  0  0  0
  6 25  1  0  0  0  0
  7 12  1  0  0  0  0
  7  8  2  0  0  0  0
  8  9  1  0  0  0  0
  8 26  1  0  0  0  0
  9 10  2  0  0  0  0
  9 27  1  0  0  0  0
 10 11  1  0  0  0  0
 10 28  1  0  0  0  0
 11 12  2  0  0  0  0
 11 29  1  0  0  0  0
 13 14  2  0  0  0  0
 13 15  1  0  0  0  0
 15 19  1  0  0  0  0
 15 16  1  0  0  0  0
 16 17  1  0  0  0  0
 16 30  1  0  0  0  0
 16 31  1  0  0  0  0
 17 18  1  0  0  0  0
 17 32  1  0  0  0  0
 17 33  1  0  0  0  0
 18 19  1  0  0  0  0
 18 34  1  0  0  0  0
 18 35  1  0  0  0  0
 19 36  1  0  0  0  0
 19 37  1  0  0  0  0
M  END
> <s_m_source_file>
AV-unprocessed.smi

> <i_m_source_file_index>
1612

> <i_lp_mmshare_version>
43012

> <i_f3d_flags>
0

> <s_epik_input>
W0NIMl0xW0NIMl1bQ0gyXVtDSDJdTjFDKD1PKVtDQEhdKFtDSDNdKVtOSF1DKD1PKVtOSF1jMltjSF1bY0hdW2NIXVtjSF1uMg==

> <s_epik_cmdline>
J2VwaWtfcHl0aG9uJywgJy1waCcsICc3LjAnLCAnLXRuJywgJzgnLCAnLW1hJywgJzIwMCcsICctbWV0YWxfYmluZGluZycsICctaW1hZScsICc8aW5maWxlLm1hZT4nLCAnLW9tYWUnLCAnPG91dGZpbGUubWFlPic=

> <r_lp_tautomer_probability>
1

> <r_epik_Ionization_Penalty>
3.95281e-05

> <r_epik_Ionization_Penalty_Charging>
0

> <r_epik_Ionization_Penalty_Neutral>
3.95281e-05

> <r_epik_State_Penalty>
-0

> <r_epik_Charging_Adjusted_Penalty>
0

> <i_epik_Tot_Q>
0

> <i_epik_Tot_abs_Q>
0

> <r_epik_Metal_State_Penalty>
-0

> <b_epik_Metal_Only>
0

> <s_lp_Force_Field>
OPLS_2005

> <r_lp_Energy>
35.1648

> <b_lp_Chiralities_Consistent>
1

> <s_lp_Variant>
AV-unprocessed.smi:1612-2

> <Gold.Version>
5.8.1

> <Gold.Id.Protein>
6NUR|6NUR_protein|mol2

> <Gold.PLP.Fitness>
43.4537

> <Gold.PLP.PLP>
-38.9676

> <Gold.PLP.part.hbond>
-2.0000

> <Gold.PLP.part.metal>
0.0000

> <Gold.PLP.part.buried>
-5.3952

> <Gold.PLP.part.nonpolar>
-31.8786

> <Gold.PLP.part.repulsive>
0.2532

> <Gold.PLP.ligand.clash>
0.0000

> <Gold.PLP.ligand.torsion>
0.8284

> <Gold.PLP.Chemscore.Hbond>
2.0000

> <Gold.PLP.Chemscore.CHOScore>
0.0000

> <Gold.PLP.Chemscore.Metal>
0.0000

> <Gold.Chemscore.Hbonds>
donor molecule, donor type, donor heavy atom, donor atom, acceptor molecule, acceptor atom, score
      L1  H     3    24       P1  8028  1.00
      L1  H     6    25       P1  8028  1.00

> <Gold.PLP.Chemscore.Internal.Correction>
0.1430

> <Gold.Rescore>
     Score         DG    S(hbond)    S(metal)    S(lipo)     H(rot)  DE(clash)    DE(int)     intcor
     14.81     -19.25       1.92        0.00      91.45       1.30       0.47       3.96       ----

> <Gold.Chemscore.Fitness>
14.8134

> <Gold.Chemscore.DG>
-19.2510

> <Gold.Chemscore.ZeroCoef>
-5.4800

> <Gold.Chemscore.Hbond>
1.9173

> <Gold.Chemscore.Metal>
0.0000

> <Gold.Chemscore.Lipo>
91.4479

> <Gold.Chemscore.Internal_Hbond>
0.0000

> <Gold.Chemscore.DEClash>
0.4737

> <Gold.Chemscore.DEInternal>
3.9638

> <Gold.Chemscore.Rot>
1.3016

> <Gold.Chemscore.Internal.Correction>
   9.000000E+99

> <Gold.Chemscore.Hbonds>
donor molecule, donor type, donor heavy atom, donor atom, acceptor molecule, acceptor atom, score
      L1  H     3    24       P1  8028  0.97
      L1  H     6    25       P1  8028  0.98

> <Gold.Chemscore.Hbond.Weighted>
-6.4037

> <Gold.Chemscore.Metal.Weighted>
-0.0000

> <Gold.Chemscore.Lipo.Weighted>
-10.6994

> <Gold.Chemscore.Internal_Hbond.Weighted>
0.0000

> <Gold.Chemscore.DEClash.Weighted>
0.4737

> <Gold.Chemscore.DEInternal.Weighted>
3.9638

> <Gold.Chemscore.Rot.Weighted>
3.3322

> <Gold.Chemscore.Internal.Correction.Weighted>
   9.000000E+99

> <Gold.Protein.RotatedTorsions>
[ 6907 6896 6895 6894 ] final   97.24 input  -60.11 | X-H torsion
[ 7974 7965 7964 7962 ] final -132.79 input  175.53 | X-H torsion
[ 8008 7997 7996 7995 ] final -153.49 input   59.86 | X-H torsion
[ 10167 10162 10161 10158 ] final -131.13 input  -65.29 | X-H torsion
[ 10718 10713 10712 10709 ] final  -54.07 input   66.30 | X-H torsion
[ 10763 10752 10751 10750 ] final  114.58 input  -60.55 | X-H torsion
[ 11005 11000 10999 10996 ] final -164.06 input  -57.11 | X-H torsion

> <Gold.Protein.ActiveResidues>
 VAL166  LYS551  ARG553  GLY616  TRP617  ASP618  TYR619  PRO620  LYS621  CYS622 
 ASP623  PHE694  ASN695  SER759  ASP760  ASP761  ALA762  ILE779  LEU786  VAL792 
 PHE793  MET794  SER795  GLU796  ALA797  LYS798  CYS799  TRP800  GLU811  SER814 

> <Gold.Protein.RotatedAtoms>
  152.5426  134.0763  159.8215 H   0  0  0  0  0  0  0  0  0  0  0  0  # atno 6907 bound_to 6896
  151.0871  133.5337  159.2624 H   0  0  0  0  0  0  0  0  0  0  0  0  # atno 6908 bound_to 6896
  151.2143  135.0502  159.8978 H   0  0  0  0  0  0  0  0  0  0  0  0  # atno 6909 bound_to 6896
  144.9253  140.7063  143.4940 H   0  0  0  0  0  0  0  0  0  0  0  0  # atno 7974 bound_to 7965
  155.6717  140.0734  157.2517 H   0  0  0  0  0  0  0  0  0  0  0  0  # atno 8008 bound_to 7997
  154.4122  140.1698  156.1938 H   0  0  0  0  0  0  0  0  0  0  0  0  # atno 8009 bound_to 7997
  155.9611  140.3370  155.6494 H   0  0  0  0  0  0  0  0  0  0  0  0  # atno 8010 bound_to 7997
  139.9221  143.6370  152.2551 H   0  0  0  0  0  0  0  0  0  0  0  0  # atno 10167 bound_to 10162
  156.1481  130.4152  149.9990 H   0  0  0  0  0  0  0  0  0  0  0  0  # atno 10718 bound_to 10713
  153.5094  135.3621  155.2579 H   0  0  0  0  0  0  0  0  0  0  0  0  # atno 10763 bound_to 10752
  154.8743  135.4019  154.3386 H   0  0  0  0  0  0  0  0  0  0  0  0  # atno 10764 bound_to 10752
  153.4037  135.7075  153.6475 H   0  0  0  0  0  0  0  0  0  0  0  0  # atno 10765 bound_to 10752
  140.5911  134.5043  157.5193 H   0  0  0  0  0  0  0  0  0  0  0  0  # atno 11005 bound_to 11000
  145.3230  139.1782  143.4577 LP  0  0  0  0  0  0  0  0  0  0  0  0  # atno 17320 bound_to 7965
  146.3223  140.3250  142.8636 LP  0  0  0  0  0  0  0  0  0  0  0  0  # atno 17321 bound_to 7965
  139.6853  144.7652  151.1535 LP  0  0  0  0  0  0  0  0  0  0  0  0  # atno 17342 bound_to 10162
  140.7659  143.5666  150.9041 LP  0  0  0  0  0  0  0  0  0  0  0  0  # atno 17343 bound_to 10162
  156.7856  130.9237  151.3646 LP  0  0  0  0  0  0  0  0  0  0  0  0  # atno 17370 bound_to 10713
  157.6634  130.8986  149.9879 LP  0  0  0  0  0  0  0  0  0  0  0  0  # atno 17371 bound_to 10713
  139.9274  134.8030  156.1030 LP  0  0  0  0  0  0  0  0  0  0  0  0  # atno 17394 bound_to 11000
  141.0934  133.6705  156.2591 LP  0  0  0  0  0  0  0  0  0  0  0  0  # atno 17395 bound_to 11000

$$$$
