AV-unprocessed.smi:2946|AV-procd|sdf|11280|dock2
  -GOLD-   2272016173D 1   1.00000     0.00000
 Structure written by MMmdl.
 35 36  0  0  0  0  0  0  0  0  1 V2000
  150.5091  144.2693  158.8659 C   0  0  0  0  0  0  0  0  0  0  0  0
  151.2919  143.0551  158.7572 N   0  0  0  0  0  0  0  0  0  0  0  0
  151.1655  142.1181  157.7280 C   0  0  0  0  0  0  0  0  0  0  0  0
  150.1970  142.3458  156.7572 N   0  0  0  0  0  0  0  0  0  0  0  0
  149.9258  141.4821  155.6197 C   0  0  0  0  0  0  0  0  0  0  0  0
  148.7094  141.9806  154.8306 C   0  0  2  0  0  0  0  0  0  0  0  0
  147.3720  141.6841  155.5066 C   0  0  0  0  0  0  0  0  0  0  0  0
  146.3905  141.6040  154.3462 C   0  0  0  0  0  0  0  0  0  0  0  0
  147.2829  141.5269  153.1043 C   0  0  0  0  0  0  0  0  0  0  0  0
  148.5875  141.2755  153.6055 O   0  0  0  0  0  0  0  0  0  0  0  0
  151.9563  141.0098  157.6900 C   0  0  0  0  0  0  0  0  0  0  0  0
  151.8360  139.9963  156.6893 C   0  0  0  0  0  0  0  0  0  0  0  0
  151.7468  139.1852  155.8675 N   0  0  0  0  0  0  0  0  0  0  0  0
  152.9736  140.7485  158.7057 C   0  0  0  0  0  0  0  0  0  0  0  0
  153.7139  139.7619  158.6991 O   0  0  0  0  0  0  0  0  0  0  0  0
  153.0569  141.7219  159.7220 N   0  0  0  0  0  0  0  0  0  0  0  0
  154.0540  141.4929  160.7488 C   0  0  0  0  0  0  0  0  0  0  0  0
  152.2481  142.8763  159.7873 C   0  0  0  0  0  0  0  0  0  0  0  0
  152.3648  143.7014  160.6985 O   0  0  0  0  0  0  0  0  0  0  0  0
  149.8127  144.3548  158.0347 H   0  0  0  0  0  0  0  0  0  0  0  0
  151.2044  145.1110  158.8450 H   0  0  0  0  0  0  0  0  0  0  0  0
  149.9578  144.2211  159.8070 H   0  0  0  0  0  0  0  0  0  0  0  0
  150.0670  143.3208  156.5287 H   0  0  0  0  0  0  0  0  0  0  0  0
  150.7920  141.4293  154.9600 H   0  0  0  0  0  0  0  0  0  0  0  0
  149.7427  140.4741  155.9926 H   0  0  0  0  0  0  0  0  0  0  0  0
  148.7923  143.0501  154.6263 H   0  0  0  0  0  0  0  0  0  0  0  0
  147.4116  140.7201  156.0159 H   0  0  0  0  0  0  0  0  0  0  0  0
  147.0987  142.4407  156.2424 H   0  0  0  0  0  0  0  0  0  0  0  0
  145.7555  140.7221  154.4389 H   0  0  0  0  0  0  0  0  0  0  0  0
  145.7431  142.4807  154.3036 H   0  0  0  0  0  0  0  0  0  0  0  0
  146.9699  140.7475  152.4093 H   0  0  0  0  0  0  0  0  0  0  0  0
  147.2819  142.4790  152.5713 H   0  0  0  0  0  0  0  0  0  0  0  0
  154.0187  142.2596  161.5218 H   0  0  0  0  0  0  0  0  0  0  0  0
  155.0290  141.5027  160.2585 H   0  0  0  0  0  0  0  0  0  0  0  0
  153.8431  140.5194  161.1955 H   0  0  0  0  0  0  0  0  0  0  0  0
  1  2  1  0  0  0  0
  1 20  1  0  0  0  0
  1 21  1  0  0  0  0
  1 22  1  0  0  0  0
  2 18  1  0  0  0  0
  2  3  1  0  0  0  0
  3  4  1  0  0  0  0
  3 11  2  0  0  0  0
  4  5  1  0  0  0  0
  4 23  1  0  0  0  0
  5  6  1  0  0  0  0
  5 24  1  0  0  0  0
  5 25  1  0  0  0  0
  6 10  1  0  0  0  0
  6  7  1  0  0  0  0
  6 26  1  0  0  0  0
  7  8  1  0  0  0  0
  7 27  1  0  0  0  0
  7 28  1  0  0  0  0
  8  9  1  0  0  0  0
  8 29  1  0  0  0  0
  8 30  1  0  0  0  0
  9 10  1  0  0  0  0
  9 31  1  0  0  0  0
  9 32  1  0  0  0  0
 11 12  1  0  0  0  0
 11 14  1  0  0  0  0
 12 13  3  0  0  0  0
 14 15  2  0  0  0  0
 14 16  1  0  0  0  0
 16 17  1  0  0  0  0
 16 18  1  0  0  0  0
 17 33  1  0  0  0  0
 17 34  1  0  0  0  0
 17 35  1  0  0  0  0
 18 19  2  0  0  0  0
M  END
> <s_m_source_file>
AV-unprocessed.smi

> <i_m_source_file_index>
2946

> <i_lp_mmshare_version>
43012

> <i_f3d_flags>
0

> <s_epik_input>
Tz1jMW4oW0NIM10pYyg9TyljKEMjTiljKG4xW0NIM10pW05IXVtDSDJdW0NAQEhdMltDSDJdW0NIMl1bQ0gyXU8y

> <s_epik_cmdline>
J2VwaWtfcHl0aG9uJywgJy1waCcsICc3LjAnLCAnLXRuJywgJzgnLCAnLW1hJywgJzIwMCcsICctbWV0YWxfYmluZGluZycsICctaW1hZScsICc8aW5maWxlLm1hZT4nLCAnLW9tYWUnLCAnPG91dGZpbGUubWFlPic=

> <r_epik_Ionization_Penalty>
0.000541801

> <r_epik_Ionization_Penalty_Charging>
8.97317e-10

> <r_epik_Ionization_Penalty_Neutral>
0.000541801

> <r_epik_State_Penalty>
0.000338907

> <r_epik_Charging_Adjusted_Penalty>
0.000338908

> <i_epik_Tot_Q>
0

> <i_epik_Tot_abs_Q>
0

> <r_epik_Metal_State_Penalty>
-0

> <b_epik_Metal_Only>
0

> <s_lp_Force_Field>
OPLS_2005

> <r_lp_Energy>
38.3393

> <b_lp_Chiralities_Consistent>
1

> <s_lp_Variant>
AV-unprocessed.smi:2946-1

> <Gold.Version>
5.8.1

> <Gold.Id.Protein>
6NUR|6NUR_protein|mol2

> <Gold.PLP.Fitness>
41.4901

> <Gold.PLP.PLP>
-33.4511

> <Gold.PLP.part.hbond>
-3.0000

> <Gold.PLP.part.metal>
0.0000

> <Gold.PLP.part.buried>
-3.5341

> <Gold.PLP.part.nonpolar>
-28.2963

> <Gold.PLP.part.repulsive>
1.6274

> <Gold.PLP.ligand.clash>
11.1084

> <Gold.PLP.ligand.torsion>
0.0973

> <Gold.PLP.Chemscore.Hbond>
2.7417

> <Gold.PLP.Chemscore.CHOScore>
0.0000

> <Gold.PLP.Chemscore.Metal>
0.0000

> <Gold.Chemscore.Hbonds>
donor molecule, donor type, donor heavy atom, donor atom, acceptor molecule, acceptor atom, score
      L1  H     4    23       P1  8028  0.96
      P1  H  7997  8009       L1    15  1.00
      P1  H  8011  8017       L1    10  0.72

> <Gold.PLP.Chemscore.Internal.Correction>
11.1170

> <Gold.Rescore>
     Score         DG    S(hbond)    S(metal)    S(lipo)     H(rot)  DE(clash)    DE(int)     intcor
     11.17     -14.50       1.74        0.00      55.86       1.29       0.48       2.84       ----

> <Gold.Chemscore.Fitness>
11.1697

> <Gold.Chemscore.DG>
-14.4968

> <Gold.Chemscore.ZeroCoef>
-5.4800

> <Gold.Chemscore.Hbond>
1.7351

> <Gold.Chemscore.Metal>
0.0000

> <Gold.Chemscore.Lipo>
55.8595

> <Gold.Chemscore.Internal_Hbond>
0.0000

> <Gold.Chemscore.DEClash>
0.4844

> <Gold.Chemscore.DEInternal>
2.8427

> <Gold.Chemscore.Rot>
1.2946

> <Gold.Chemscore.Internal.Correction>
   9.000000E+99

> <Gold.Chemscore.Hbonds>
donor molecule, donor type, donor heavy atom, donor atom, acceptor molecule, acceptor atom, score
      L1  H     4    23       P1  8028  0.87
      P1  H  7997  8009       L1    15  0.34
      P1  H  8011  8017       L1    10  0.08

> <Gold.Chemscore.Hbond.Weighted>
-5.7953

> <Gold.Chemscore.Metal.Weighted>
-0.0000

> <Gold.Chemscore.Lipo.Weighted>
-6.5356

> <Gold.Chemscore.Internal_Hbond.Weighted>
0.0000

> <Gold.Chemscore.DEClash.Weighted>
0.4844

> <Gold.Chemscore.DEInternal.Weighted>
2.8427

> <Gold.Chemscore.Rot.Weighted>
3.3141

> <Gold.Chemscore.Internal.Correction.Weighted>
   9.000000E+99

> <Gold.Protein.RotatedTorsions>
[ 6907 6896 6895 6894 ] final  -50.46 input  -60.11 | X-H torsion
[ 7974 7965 7964 7962 ] final   90.26 input  175.53 | X-H torsion
[ 8008 7997 7996 7995 ] final  145.73 input   59.86 | X-H torsion
[ 10167 10162 10161 10158 ] final -158.23 input  -65.29 | X-H torsion
[ 10718 10713 10712 10709 ] final  -65.14 input   66.30 | X-H torsion
[ 10763 10752 10751 10750 ] final   48.33 input  -60.55 | X-H torsion
[ 11005 11000 10999 10996 ] final -143.11 input  -57.11 | X-H torsion

> <Gold.Protein.ActiveResidues>
 VAL166  LYS551  ARG553  GLY616  TRP617  ASP618  TYR619  PRO620  LYS621  CYS622 
 ASP623  PHE694  ASN695  SER759  ASP760  ASP761  ALA762  ILE779  LEU786  VAL792 
 PHE793  MET794  SER795  GLU796  ALA797  LYS798  CYS799  TRP800  GLU811  SER814 

> <Gold.Protein.RotatedAtoms>
  150.8705  134.8077  159.7150 H   0  0  0  0  0  0  0  0  0  0  0  0  # atno 6907 bound_to 6896
  152.4711  134.4954  159.9718 H   0  0  0  0  0  0  0  0  0  0  0  0  # atno 6908 bound_to 6896
  151.5044  133.3459  159.2910 H   0  0  0  0  0  0  0  0  0  0  0  0  # atno 6909 bound_to 6896
  145.5213  139.2279  143.2670 H   0  0  0  0  0  0  0  0  0  0  0  0  # atno 7974 bound_to 7965
  156.2875  140.2201  156.5262 H   0  0  0  0  0  0  0  0  0  0  0  0  # atno 8008 bound_to 7997
  154.7487  140.0482  157.0896 H   0  0  0  0  0  0  0  0  0  0  0  0  # atno 8009 bound_to 7997
  155.0138  140.3116  155.4822 H   0  0  0  0  0  0  0  0  0  0  0  0  # atno 8010 bound_to 7997
  139.6708  143.9748  152.2282 H   0  0  0  0  0  0  0  0  0  0  0  0  # atno 10167 bound_to 10162
  156.0687  130.4243  150.1521 H   0  0  0  0  0  0  0  0  0  0  0  0  # atno 10718 bound_to 10713
  152.9793  135.5948  154.3908 H   0  0  0  0  0  0  0  0  0  0  0  0  # atno 10763 bound_to 10752
  154.3563  135.2767  155.2346 H   0  0  0  0  0  0  0  0  0  0  0  0  # atno 10764 bound_to 10752
  154.4363  135.6024  153.6155 H   0  0  0  0  0  0  0  0  0  0  0  0  # atno 10765 bound_to 10752
  140.8157  134.2691  157.4922 H   0  0  0  0  0  0  0  0  0  0  0  0  # atno 11005 bound_to 11000
  146.2104  140.6025  142.9062 LP  0  0  0  0  0  0  0  0  0  0  0  0  # atno 17320 bound_to 7965
  144.7674  140.5562  143.6693 LP  0  0  0  0  0  0  0  0  0  0  0  0  # atno 17321 bound_to 7965
  139.9512  144.6619  150.8170 LP  0  0  0  0  0  0  0  0  0  0  0  0  # atno 17342 bound_to 10162
  140.7617  143.3181  151.2686 LP  0  0  0  0  0  0  0  0  0  0  0  0  # atno 17343 bound_to 10162
  156.9576  130.9794  151.3486 LP  0  0  0  0  0  0  0  0  0  0  0  0  # atno 17370 bound_to 10713
  157.5745  130.8333  149.8437 LP  0  0  0  0  0  0  0  0  0  0  0  0  # atno 17371 bound_to 10713
  139.8711  134.9508  156.4066 LP  0  0  0  0  0  0  0  0  0  0  0  0  # atno 17394 bound_to 11000
  140.9151  133.7684  155.9838 LP  0  0  0  0  0  0  0  0  0  0  0  0  # atno 17395 bound_to 11000

$$$$
