AV-unprocessed.smi:1222|AV-procd|sdf|5124|dock6
  -GOLD-   22720 4183D 1   1.00000     0.00000
 Structure written by MMmdl.
 36 38  0  0  0  0  0  0  0  0  3 V2000
  150.2999  142.0294  156.7795 O   0  0  0  0  0  0  0  0  0  0  0  0
  151.3419  141.5546  157.2369 C   0  0  0  0  0  0  0  0  0  0  0  0
  152.0200  142.0049  158.3162 N   0  5  0  0  0  0  0  0  0  0  0  0
  151.7687  143.2312  158.8025 C   0  0  0  0  0  0  0  0  0  0  0  0
  150.9141  144.0850  158.2267 N   0  0  0  0  0  0  0  0  0  0  0  0
  150.8050  145.3013  158.9031 C   0  0  0  0  0  0  0  0  0  0  0  0
  151.5854  145.3708  160.0266 C   0  0  0  0  0  0  0  0  0  0  0  0
  152.4899  143.9035  160.2673 S   0  0  0  0  0  0  0  0  0  0  0  0
  151.9109  140.4890  156.6545 N   0  0  0  0  0  0  0  0  0  0  0  0
  151.4233  139.7714  155.4795 C   0  0  2  0  0  0  0  0  0  0  0  0
  149.9025  139.5694  155.5825 C   0  0  0  0  0  0  0  0  0  0  0  0
  149.3751  138.7125  154.4166 C   0  0  0  0  0  0  0  0  0  0  0  0
  150.0839  137.4108  154.3124 N   0  3  2  0  0  0  0  0  0  0  0  0
  149.6813  136.4376  155.3545 C   0  0  0  0  0  0  0  0  0  0  0  0
  150.7120  135.3626  155.6101 C   0  0  0  0  0  0  0  0  0  0  0  0
  149.4601  135.0396  154.8255 C   0  0  0  0  0  0  0  0  0  0  0  0
  151.5558  137.5816  154.2048 C   0  0  0  0  0  0  0  0  0  0  0  0
  152.1297  138.4108  155.3685 C   0  0  0  0  0  0  0  0  0  0  0  0
  150.1446  146.0622  158.5146 H   0  0  0  0  0  0  0  0  0  0  0  0
  151.6836  146.1894  160.7232 H   0  0  0  0  0  0  0  0  0  0  0  0
  152.7627  140.1452  157.0736 H   0  0  0  0  0  0  0  0  0  0  0  0
  151.6321  140.3344  154.5682 H   0  0  0  0  0  0  0  0  0  0  0  0
  149.6515  139.0960  156.5326 H   0  0  0  0  0  0  0  0  0  0  0  0
  149.3993  140.5370  155.5825 H   0  0  0  0  0  0  0  0  0  0  0  0
  148.3023  138.5462  154.5216 H   0  0  0  0  0  0  0  0  0  0  0  0
  149.5110  139.2533  153.4790 H   0  0  0  0  0  0  0  0  0  0  0  0
  149.0710  136.8169  156.1721 H   0  0  0  0  0  0  0  0  0  0  0  0
  151.6511  135.4072  155.0614 H   0  0  0  0  0  0  0  0  0  0  0  0
  150.7828  134.9645  156.6203 H   0  0  0  0  0  0  0  0  0  0  0  0
  148.7055  134.4309  155.3191 H   0  0  0  0  0  0  0  0  0  0  0  0
  149.5685  134.8684  153.7559 H   0  0  0  0  0  0  0  0  0  0  0  0
  152.0418  136.6066  154.1561 H   0  0  0  0  0  0  0  0  0  0  0  0
  151.7753  138.0817  153.2606 H   0  0  0  0  0  0  0  0  0  0  0  0
  153.1998  138.5598  155.2191 H   0  0  0  0  0  0  0  0  0  0  0  0
  152.0269  137.8585  156.3033 H   0  0  0  0  0  0  0  0  0  0  0  0
  149.7860  137.0007  153.4388 H   0  0  0  0  0  0  0  0  0  0  0  0
  1  2  2  0  0  0  0
  2  3  1  0  0  0  0
  2  9  1  0  0  0  0
  3  4  1  0  0  0  0
  4  8  1  0  0  0  0
  4  5  2  0  0  0  0
  5  6  1  0  0  0  0
  6  7  2  0  0  0  0
  6 19  1  0  0  0  0
  7  8  1  0  0  0  0
  7 20  1  0  0  0  0
  9 10  1  0  0  0  0
  9 21  1  0  0  0  0
 10 18  1  0  0  0  0
 10 11  1  0  0  0  0
 10 22  1  0  0  0  0
 11 12  1  0  0  0  0
 11 23  1  0  0  0  0
 11 24  1  0  0  0  0
 12 13  1  0  0  0  0
 12 25  1  0  0  0  0
 12 26  1  0  0  0  0
 13 14  1  0  0  0  0
 13 17  1  0  0  0  0
 13 36  1  0  0  0  0
 14 16  1  0  0  0  0
 14 15  1  0  0  0  0
 14 27  1  0  0  0  0
 15 16  1  0  0  0  0
 15 28  1  0  0  0  0
 15 29  1  0  0  0  0
 16 30  1  0  0  0  0
 16 31  1  0  0  0  0
 17 18  1  0  0  0  0
 17 32  1  0  0  0  0
 17 33  1  0  0  0  0
 18 34  1  0  0  0  0
 18 35  1  0  0  0  0
M  CHG  1   3  -1
M  CHG  1  13   1
M  END
> <s_m_source_file>
AV-unprocessed.smi

> <i_m_source_file_index>
1222

> <i_lp_mmshare_version>
43012

> <i_f3d_flags>
0

> <s_epik_input>
czFbY0hdW2NIXW5jMVtOSF1DKD1PKVtOSF1bQ0hdMltDSDJdW0NIMl1OKFtDSDJdW0NIMl0yKVtDSF0zW0NIMl1bQ0gyXTM=

> <s_epik_cmdline>
J2VwaWtfcHl0aG9uJywgJy1waCcsICc3LjAnLCAnLXRuJywgJzgnLCAnLW1hJywgJzIwMCcsICctbWV0YWxfYmluZGluZycsICctaW1hZScsICc8aW5maWxlLm1hZT4nLCAnLW9tYWUnLCAnPG91dGZpbGUubWFlPic=

> <r_lp_tautomer_probability>
0.999

> <r_epik_Ionization_Penalty>
6.4609

> <r_epik_Ionization_Penalty_Charging>
5.58663

> <r_epik_Ionization_Penalty_Neutral>
0.874262

> <r_epik_State_Penalty>
5.57752

> <r_epik_Charging_Adjusted_Penalty>
11.1642

> <i_epik_Tot_Q>
0

> <i_epik_Tot_abs_Q>
2

> <r_epik_Metal_State_Penalty>
1.58738

> <b_epik_Metal_Only>
1

> <s_lp_Force_Field>
OPLS_2005

> <r_lp_Energy>
18.4685

> <b_lp_Chiralities_Consistent>
1

> <s_lp_Variant>
AV-unprocessed.smi:1222-5

> <Gold.Version>
5.8.1

> <Gold.Id.Protein>
6NUR|6NUR_protein|mol2

> <Gold.PLP.Fitness>
41.4634

> <Gold.PLP.PLP>
-33.5039

> <Gold.PLP.part.hbond>
-1.0000

> <Gold.PLP.part.metal>
0.0000

> <Gold.PLP.part.buried>
-3.4648

> <Gold.PLP.part.nonpolar>
-29.7308

> <Gold.PLP.part.repulsive>
0.4587

> <Gold.PLP.ligand.clash>
0.0000

> <Gold.PLP.ligand.torsion>
1.1337

> <Gold.PLP.Chemscore.Hbond>
2.0000

> <Gold.PLP.Chemscore.CHOScore>
0.9856

> <Gold.PLP.Chemscore.Metal>
0.0000

> <Gold.Chemscore.Hbonds>
donor molecule, donor type, donor heavy atom, donor atom, acceptor molecule, acceptor atom, score
      L1  H    13    36       P1  7948  2.00
      L1  C     6    19       P1  8029  0.97

> <Gold.PLP.Chemscore.Internal.Correction>
1.2701

> <Gold.Rescore>
     Score         DG    S(hbond)    S(metal)    S(lipo)     H(rot)  DE(clash)    DE(int)     intcor
     10.85     -14.92       0.97        0.00      80.34       1.25       0.06       4.02       ----

> <Gold.Chemscore.Fitness>
10.8523

> <Gold.Chemscore.DG>
-14.9232

> <Gold.Chemscore.ZeroCoef>
-5.4800

> <Gold.Chemscore.Hbond>
0.9687

> <Gold.Chemscore.Metal>
0.0000

> <Gold.Chemscore.Lipo>
80.3439

> <Gold.Chemscore.Internal_Hbond>
0.0000

> <Gold.Chemscore.DEClash>
0.0555

> <Gold.Chemscore.DEInternal>
4.0153

> <Gold.Chemscore.Rot>
1.2470

> <Gold.Chemscore.Internal.Correction>
   9.000000E+99

> <Gold.Chemscore.Hbonds>
donor molecule, donor type, donor heavy atom, donor atom, acceptor molecule, acceptor atom, score
      L1  H    13    36       P1  7948  0.50

> <Gold.Chemscore.Hbond.Weighted>
-3.2353

> <Gold.Chemscore.Metal.Weighted>
-0.0000

> <Gold.Chemscore.Lipo.Weighted>
-9.4002

> <Gold.Chemscore.Internal_Hbond.Weighted>
0.0000

> <Gold.Chemscore.DEClash.Weighted>
0.0555

> <Gold.Chemscore.DEInternal.Weighted>
4.0153

> <Gold.Chemscore.Rot.Weighted>
3.1924

> <Gold.Chemscore.Internal.Correction.Weighted>
   9.000000E+99

> <Gold.Protein.RotatedTorsions>
[ 6907 6896 6895 6894 ] final -123.65 input  -60.11 | X-H torsion
[ 7974 7965 7964 7962 ] final  -74.99 input  175.53 | X-H torsion
[ 8008 7997 7996 7995 ] final -122.30 input   59.86 | X-H torsion
[ 10167 10162 10161 10158 ] final -129.93 input  -65.29 | X-H torsion
[ 10718 10713 10712 10709 ] final -103.70 input   66.30 | X-H torsion
[ 10763 10752 10751 10750 ] final  130.60 input  -60.55 | X-H torsion
[ 11005 11000 10999 10996 ] final -149.42 input  -57.11 | X-H torsion

> <Gold.Protein.ActiveResidues>
 VAL166  LYS551  ARG553  GLY616  TRP617  ASP618  TYR619  PRO620  LYS621  CYS622 
 ASP623  PHE694  ASN695  SER759  ASP760  ASP761  ALA762  ILE779  LEU786  VAL792 
 PHE793  MET794  SER795  GLU796  ALA797  LYS798  CYS799  TRP800  GLU811  SER814 

> <Gold.Protein.RotatedAtoms>
  150.8691  133.7531  159.2966 H   0  0  0  0  0  0  0  0  0  0  0  0  # atno 6907 bound_to 6896
  151.5148  135.1064  159.9873 H   0  0  0  0  0  0  0  0  0  0  0  0  # atno 6908 bound_to 6896
  152.4682  133.7926  159.6966 H   0  0  0  0  0  0  0  0  0  0  0  0  # atno 6909 bound_to 6896
  145.6318  140.9335  143.1083 H   0  0  0  0  0  0  0  0  0  0  0  0  # atno 7974 bound_to 7965
  155.1620  140.0406  157.2844 H   0  0  0  0  0  0  0  0  0  0  0  0  # atno 8008 bound_to 7997
  154.6330  140.2528  155.7385 H   0  0  0  0  0  0  0  0  0  0  0  0  # atno 8009 bound_to 7997
  156.2494  140.2871  156.0689 H   0  0  0  0  0  0  0  0  0  0  0  0  # atno 8010 bound_to 7997
  139.9346  143.6233  152.2520 H   0  0  0  0  0  0  0  0  0  0  0  0  # atno 10167 bound_to 10162
  156.0275  130.5480  150.7290 H   0  0  0  0  0  0  0  0  0  0  0  0  # atno 10718 bound_to 10713
  153.7606  135.3196  155.3336 H   0  0  0  0  0  0  0  0  0  0  0  0  # atno 10763 bound_to 10752
  154.8231  135.4589  154.0841 H   0  0  0  0  0  0  0  0  0  0  0  0  # atno 10764 bound_to 10752
  153.2071  135.6930  153.8243 H   0  0  0  0  0  0  0  0  0  0  0  0  # atno 10765 bound_to 10752
  140.7510  134.3407  157.5126 H   0  0  0  0  0  0  0  0  0  0  0  0  # atno 11005 bound_to 11000
  144.7190  139.8094  143.7388 LP  0  0  0  0  0  0  0  0  0  0  0  0  # atno 17320 bound_to 7965
  146.1350  139.4394  143.0144 LP  0  0  0  0  0  0  0  0  0  0  0  0  # atno 17321 bound_to 7965
  139.6754  144.7659  151.1706 LP  0  0  0  0  0  0  0  0  0  0  0  0  # atno 17342 bound_to 10162
  140.7628  143.5803  150.8902 LP  0  0  0  0  0  0  0  0  0  0  0  0  # atno 17343 bound_to 10162
  157.4887  131.0909  151.0452 LP  0  0  0  0  0  0  0  0  0  0  0  0  # atno 17370 bound_to 10713
  157.0865  130.5924  149.5431 LP  0  0  0  0  0  0  0  0  0  0  0  0  # atno 17371 bound_to 10713
  139.8788  134.9142  156.3101 LP  0  0  0  0  0  0  0  0  0  0  0  0  # atno 17394 bound_to 11000
  140.9751  133.7302  156.0590 LP  0  0  0  0  0  0  0  0  0  0  0  0  # atno 17395 bound_to 11000

$$$$
