AV-unprocessed.smi:12|AV-procd|sdf|62|dock4
  -GOLD-   2262015183D 1   1.00000     0.00000
 Structure written by MMmdl.
 41 44  0  0  0  0  0  0  0  0  1 V2000
  144.6997  144.0880  156.4341 C   0  0  0  0  0  0  0  0  0  0  0  0
  145.1756  142.7516  155.8933 C   0  0  0  0  0  0  0  0  0  0  0  0
  146.2368  142.6584  155.0574 C   0  0  0  0  0  0  0  0  0  0  0  0
  146.6276  141.4296  154.6040 N   0  0  0  0  0  0  0  0  0  0  0  0
  145.9167  140.2794  155.0014 C   0  0  0  0  0  0  0  0  0  0  0  0
  144.8933  140.2836  155.7979 N   0  0  0  0  0  0  0  0  0  0  0  0
  144.4514  141.5218  156.3023 C   0  0  0  0  0  0  0  0  0  0  0  0
  143.4858  141.5775  157.0625 O   0  0  0  0  0  0  0  0  0  0  0  0
  146.4793  139.1925  154.4080 O   0  0  0  0  0  0  0  0  0  0  0  0
  147.5464  139.5974  153.5322 C   0  0  2  0  0  0  0  0  0  0  0  0
  148.8994  139.0636  153.9826 C   0  0  2  0  0  0  0  0  0  0  0  0
  148.8189  137.7300  154.4440 O   0  0  0  0  0  0  0  0  0  0  0  0
  149.3358  140.0875  155.0301 C   0  0  1  0  0  0  0  0  0  0  0  0
  150.8446  140.1167  155.3052 C   0  0  0  0  0  0  0  0  0  0  0  0
  151.1237  141.0761  156.3120 O   0  0  0  0  0  0  0  0  0  0  0  0
  151.9234  140.7567  157.3478 C   0  0  0  0  0  0  0  0  0  0  0  0
  152.4945  139.6700  157.4590 O   0  0  0  0  0  0  0  0  0  0  0  0
  152.0447  141.8575  158.3472 C   0  0  0  0  0  0  0  0  0  0  0  0
  152.5973  141.5804  159.6197 C   0  0  0  0  0  0  0  0  0  0  0  0
  152.7244  142.5990  160.5839 C   0  0  0  0  0  0  0  0  0  0  0  0
  152.2998  143.9072  160.2879 C   0  0  0  0  0  0  0  0  0  0  0  0
  151.7482  144.1959  159.0262 C   0  0  0  0  0  0  0  0  0  0  0  0
  151.6205  143.1787  158.0601 C   0  0  0  0  0  0  0  0  0  0  0  0
  148.9384  141.3078  154.4109 O   0  0  0  0  0  0  0  0  0  0  0  0
  147.7432  141.1199  153.7063 C   0  0  2  0  0  0  0  0  0  0  0  0
  145.3111  144.9089  156.0584 H   0  0  0  0  0  0  0  0  0  0  0  0
  144.7531  144.0981  157.5232 H   0  0  0  0  0  0  0  0  0  0  0  0
  143.6671  144.2737  156.1373 H   0  0  0  0  0  0  0  0  0  0  0  0
  146.7814  143.5386  154.7481 H   0  0  0  0  0  0  0  0  0  0  0  0
  147.3127  139.3487  152.4964 H   0  0  0  0  0  0  0  0  0  0  0  0
  149.5912  139.0962  153.1394 H   0  0  0  0  0  0  0  0  0  0  0  0
  148.8772  137.1504  153.6996 H   0  0  0  0  0  0  0  0  0  0  0  0
  148.7766  139.9621  155.9592 H   0  0  0  0  0  0  0  0  0  0  0  0
  151.1942  139.1302  155.6130 H   0  0  0  0  0  0  0  0  0  0  0  0
  151.3817  140.3859  154.3947 H   0  0  0  0  0  0  0  0  0  0  0  0
  152.9304  140.5835  159.8701 H   0  0  0  0  0  0  0  0  0  0  0  0
  153.1484  142.3757  161.5518 H   0  0  0  0  0  0  0  0  0  0  0  0
  152.3972  144.6879  161.0279 H   0  0  0  0  0  0  0  0  0  0  0  0
  151.4219  145.1998  158.7980 H   0  0  0  0  0  0  0  0  0  0  0  0
  151.1925  143.4354  157.1019 H   0  0  0  0  0  0  0  0  0  0  0  0
  147.6105  141.7406  152.8198 H   0  0  0  0  0  0  0  0  0  0  0  0
  1  2  1  0  0  0  0
  1 26  1  0  0  0  0
  1 27  1  0  0  0  0
  1 28  1  0  0  0  0
  2  7  1  0  0  0  0
  2  3  2  0  0  0  0
  3  4  1  0  0  0  0
  3 29  1  0  0  0  0
  4 25  1  0  0  0  0
  4  5  1  0  0  0  0
  5  6  2  0  0  0  0
  5  9  1  0  0  0  0
  6  7  1  0  0  0  0
  7  8  2  0  0  0  0
  9 10  1  0  0  0  0
 10 25  1  0  0  0  0
 10 11  1  0  0  0  0
 10 30  1  0  0  0  0
 11 12  1  0  0  0  0
 11 13  1  0  0  0  0
 11 31  1  0  0  0  0
 12 32  1  0  0  0  0
 13 14  1  0  0  0  0
 13 24  1  0  0  0  0
 13 33  1  0  0  0  0
 14 15  1  0  0  0  0
 14 34  1  0  0  0  0
 14 35  1  0  0  0  0
 15 16  1  0  0  0  0
 16 17  2  0  0  0  0
 16 18  1  0  0  0  0
 18 23  1  0  0  0  0
 18 19  2  0  0  0  0
 19 20  1  0  0  0  0
 19 36  1  0  0  0  0
 20 21  2  0  0  0  0
 20 37  1  0  0  0  0
 21 22  1  0  0  0  0
 21 38  1  0  0  0  0
 22 23  2  0  0  0  0
 22 39  1  0  0  0  0
 23 40  1  0  0  0  0
 24 25  1  0  0  0  0
 25 41  1  0  0  0  0
M  END
> <s_m_source_file>
AV-unprocessed.smi

> <i_m_source_file_index>
12

> <i_lp_mmshare_version>
43012

> <i_f3d_flags>
0

> <s_epik_input>
W0NIM11jKFtjSF0xKWMoPU8pbmMobjEyKU9bQ0BIXTNbQ0BASF0yT1tDQEBIXShbQ0BASF0zW09IXSlbQ0gyXU9DKD1PKWM0W2NIXVtjSF1bY0hdW2NIXVtjSF00

> <s_epik_cmdline>
J2VwaWtfcHl0aG9uJywgJy1waCcsICc3LjAnLCAnLXRuJywgJzgnLCAnLW1hJywgJzIwMCcsICctbWV0YWxfYmluZGluZycsICctaW1hZScsICc8aW5maWxlLm1hZT4nLCAnLW9tYWUnLCAnPG91dGZpbGUubWFlPic=

> <r_lp_tautomer_probability>
0.933681

> <r_epik_Ionization_Penalty>
0.00399549

> <r_epik_Ionization_Penalty_Charging>
3.09373e-09

> <r_epik_Ionization_Penalty_Neutral>
0.00399549

> <r_epik_State_Penalty>
0.00284953

> <r_epik_Charging_Adjusted_Penalty>
0.00284953

> <i_epik_Tot_Q>
0

> <i_epik_Tot_abs_Q>
0

> <r_epik_Metal_State_Penalty>
-0

> <b_epik_Metal_Only>
0

> <s_epik_Chemistry_Notes>
This compound has an ester and may undergo hydrolysis at high or low pH. This compound contains an acetal/aminal-like group ( X-CH(R)-Y where X, Y are N, S, or O) that may be acid/base labile, releasing an aldehyde.

> <s_lp_Force_Field>
OPLS_2005

> <r_lp_Energy>
46.3609

> <b_lp_Chiralities_Consistent>
1

> <s_lp_Variant>
AV-unprocessed.smi:12-2

> <Gold.Version>
5.8.1

> <Gold.Id.Protein>
6NUR|6NUR_protein|mol2

> <Gold.PLP.Fitness>
48.4438

> <Gold.PLP.PLP>
-42.6912

> <Gold.PLP.part.hbond>
-2.8204

> <Gold.PLP.part.metal>
0.0000

> <Gold.PLP.part.buried>
-0.9524

> <Gold.PLP.part.nonpolar>
-38.3746

> <Gold.PLP.part.repulsive>
0.4745

> <Gold.PLP.ligand.clash>
0.0000

> <Gold.PLP.ligand.torsion>
0.4517

> <Gold.PLP.Chemscore.Hbond>
1.9227

> <Gold.PLP.Chemscore.CHOScore>
0.2901

> <Gold.PLP.Chemscore.Metal>
0.0000

> <Gold.Chemscore.Hbonds>
donor molecule, donor type, donor heavy atom, donor atom, acceptor molecule, acceptor atom, score
      L1  H    12    32       P1  7948  0.98
      P1  H  7997  8010       L1    17  0.86
      L1  C     3    29       P1  8028  0.29

> <Gold.PLP.Chemscore.Internal.Correction>
0.0176

> <Gold.Rescore>
     Score         DG    S(hbond)    S(metal)    S(lipo)     H(rot)  DE(clash)    DE(int)     intcor
     15.51     -17.51       1.63        0.00     104.00       2.18       1.58       0.42       ----

> <Gold.Chemscore.Fitness>
15.5081

> <Gold.Chemscore.DG>
-17.5088

> <Gold.Chemscore.ZeroCoef>
-5.4800

> <Gold.Chemscore.Hbond>
1.6294

> <Gold.Chemscore.Metal>
0.0000

> <Gold.Chemscore.Lipo>
103.9959

> <Gold.Chemscore.Internal_Hbond>
0.0000

> <Gold.Chemscore.DEClash>
1.5780

> <Gold.Chemscore.DEInternal>
0.4227

> <Gold.Chemscore.Rot>
2.1800

> <Gold.Chemscore.Internal.Correction>
   9.000000E+99

> <Gold.Chemscore.Hbonds>
donor molecule, donor type, donor heavy atom, donor atom, acceptor molecule, acceptor atom, score
      L1  H    12    32       P1  7948  0.91
      P1  H  7997  8010       L1    17  0.33

> <Gold.Chemscore.Hbond.Weighted>
-5.4421

> <Gold.Chemscore.Metal.Weighted>
-0.0000

> <Gold.Chemscore.Lipo.Weighted>
-12.1675

> <Gold.Chemscore.Internal_Hbond.Weighted>
0.0000

> <Gold.Chemscore.DEClash.Weighted>
1.5780

> <Gold.Chemscore.DEInternal.Weighted>
0.4227

> <Gold.Chemscore.Rot.Weighted>
5.5807

> <Gold.Chemscore.Internal.Correction.Weighted>
   9.000000E+99

> <Gold.Protein.RotatedTorsions>
[ 6907 6896 6895 6894 ] final  -59.68 input  -60.11 | X-H torsion
[ 7974 7965 7964 7962 ] final  125.80 input  175.53 | X-H torsion
[ 8008 7997 7996 7995 ] final   54.75 input   59.86 | X-H torsion
[ 10167 10162 10161 10158 ] final  -75.59 input  -65.29 | X-H torsion
[ 10718 10713 10712 10709 ] final  170.01 input   66.30 | X-H torsion
[ 10763 10752 10751 10750 ] final -149.75 input  -60.55 | X-H torsion
[ 11005 11000 10999 10996 ] final -123.49 input  -57.11 | X-H torsion

> <Gold.Protein.ActiveResidues>
 VAL166  LYS551  ARG553  GLY616  TRP617  ASP618  TYR619  PRO620  LYS621  CYS622 
 ASP623  PHE694  ASN695  SER759  ASP760  ASP761  ALA762  ILE779  LEU786  VAL792 
 PHE793  MET794  SER795  GLU796  ALA797  LYS798  CYS799  TRP800  GLU811  SER814 

> <Gold.Protein.RotatedAtoms>
  150.7912  134.6937  159.6510 H   0  0  0  0  0  0  0  0  0  0  0  0  # atno 6907 bound_to 6896
  152.4018  134.6270  160.0075 H   0  0  0  0  0  0  0  0  0  0  0  0  # atno 6908 bound_to 6896
  151.6540  133.3283  159.3194 H   0  0  0  0  0  0  0  0  0  0  0  0  # atno 6909 bound_to 6896
  145.0689  139.3745  143.4967 H   0  0  0  0  0  0  0  0  0  0  0  0  # atno 7974 bound_to 7965
  155.4898  140.3471  155.4353 H   0  0  0  0  0  0  0  0  0  0  0  0  # atno 8008 bound_to 7997
  156.0984  140.1429  156.9528 H   0  0  0  0  0  0  0  0  0  0  0  0  # atno 8009 bound_to 7997
  154.4678  140.0911  156.7044 H   0  0  0  0  0  0  0  0  0  0  0  0  # atno 8010 bound_to 7997
  140.4930  143.2376  151.7876 H   0  0  0  0  0  0  0  0  0  0  0  0  # atno 10167 bound_to 10162
  157.0143  131.0213  151.2794 H   0  0  0  0  0  0  0  0  0  0  0  0  # atno 10718 bound_to 10713
  154.8159  135.3301  154.7176 H   0  0  0  0  0  0  0  0  0  0  0  0  # atno 10763 bound_to 10752
  153.7817  135.6918  153.4891 H   0  0  0  0  0  0  0  0  0  0  0  0  # atno 10764 bound_to 10752
  153.1976  135.4528  155.0174 H   0  0  0  0  0  0  0  0  0  0  0  0  # atno 10765 bound_to 10752
  140.9915  134.0532  157.3649 H   0  0  0  0  0  0  0  0  0  0  0  0  # atno 11005 bound_to 11000
  146.3528  140.0425  142.8642 LP  0  0  0  0  0  0  0  0  0  0  0  0  # atno 17320 bound_to 7965
  145.1316  140.9521  143.4541 LP  0  0  0  0  0  0  0  0  0  0  0  0  # atno 17321 bound_to 7965
  139.4855  144.4624  151.9525 LP  0  0  0  0  0  0  0  0  0  0  0  0  # atno 17342 bound_to 10162
  140.3711  144.2854  150.5920 LP  0  0  0  0  0  0  0  0  0  0  0  0  # atno 17343 bound_to 10162
  157.5297  130.8050  149.7902 LP  0  0  0  0  0  0  0  0  0  0  0  0  # atno 17370 bound_to 10713
  156.0125  130.3827  150.2219 LP  0  0  0  0  0  0  0  0  0  0  0  0  # atno 17371 bound_to 10713
  139.8994  135.0158  156.7195 LP  0  0  0  0  0  0  0  0  0  0  0  0  # atno 17394 bound_to 11000
  140.7033  133.9287  155.8038 LP  0  0  0  0  0  0  0  0  0  0  0  0  # atno 17395 bound_to 11000

$$$$
