AV-unprocessed.smi:1595|AV-procd|sdf|6415|dock8
  -GOLD-   22720 7 53D 1   1.00000     0.00000
 Structure written by MMmdl.
 29 30  0  0  0  0  0  0  0  0  1 V2000
  147.9533  140.4818  155.7478 O   0  0  0  0  0  0  0  0  0  0  0  0
  148.5868  140.7571  154.7276 C   0  0  0  0  0  0  0  0  0  0  0  0
  149.9995  141.3529  154.8147 C   0  0  0  0  0  0  0  0  0  0  0  0
  150.6082  141.2239  156.1496 N   0  0  0  0  0  0  0  0  0  0  0  0
  150.9772  142.4155  156.8045 C   0  0  0  0  0  0  0  0  0  0  0  0
  151.5533  142.4345  158.0220 C   0  0  0  0  0  0  0  0  0  0  0  0
  151.8966  143.7357  158.7305 C   0  0  0  0  0  0  0  0  0  0  0  0
  152.7236  144.4756  157.9917 F   0  0  0  0  0  0  0  0  0  0  0  0
  150.7871  144.4422  158.9424 F   0  0  0  0  0  0  0  0  0  0  0  0
  152.4774  143.5091  159.9095 F   0  0  0  0  0  0  0  0  0  0  0  0
  151.7524  141.1490  158.6614 C   0  0  0  0  0  0  0  0  0  0  0  0
  151.4024  140.0002  158.0504 C   0  0  0  0  0  0  0  0  0  0  0  0
  150.8008  139.9946  156.7150 C   0  0  0  0  0  0  0  0  0  0  0  0
  150.4874  138.9508  156.1418 O   0  0  0  0  0  0  0  0  0  0  0  0
  148.1175  140.5475  153.4892 N   0  0  0  0  0  0  0  0  0  0  0  0
  146.8404  139.9977  153.1675 C   0  0  0  0  0  0  0  0  0  0  0  0
  146.5757  138.5598  153.5594 C   0  0  0  0  0  0  0  0  0  0  0  0
  146.7884  138.9129  152.1132 C   0  0  0  0  0  0  0  0  0  0  0  0
  150.6204  140.8634  154.0630 H   0  0  0  0  0  0  0  0  0  0  0  0
  149.9675  142.4024  154.5163 H   0  0  0  0  0  0  0  0  0  0  0  0
  150.7650  143.3170  156.2480 H   0  0  0  0  0  0  0  0  0  0  0  0
  152.1957  141.1064  159.6453 H   0  0  0  0  0  0  0  0  0  0  0  0
  151.5691  139.0600  158.5555 H   0  0  0  0  0  0  0  0  0  0  0  0
  148.7103  140.8001  152.7117 H   0  0  0  0  0  0  0  0  0  0  0  0
  145.9829  140.6682  153.2039 H   0  0  0  0  0  0  0  0  0  0  0  0
  147.3703  138.0142  154.0648 H   0  0  0  0  0  0  0  0  0  0  0  0
  145.5651  138.3034  153.8707 H   0  0  0  0  0  0  0  0  0  0  0  0
  145.9200  138.8920  151.4581 H   0  0  0  0  0  0  0  0  0  0  0  0
  147.7253  138.6047  151.6532 H   0  0  0  0  0  0  0  0  0  0  0  0
  1  2  2  0  0  0  0
  2  3  1  0  0  0  0
  2 15  1  0  0  0  0
  3  4  1  0  0  0  0
  3 19  1  0  0  0  0
  3 20  1  0  0  0  0
  4 13  1  0  0  0  0
  4  5  1  0  0  0  0
  5  6  2  0  0  0  0
  5 21  1  0  0  0  0
  6  7  1  0  0  0  0
  6 11  1  0  0  0  0
  7  8  1  0  0  0  0
  7  9  1  0  0  0  0
  7 10  1  0  0  0  0
 11 12  2  0  0  0  0
 11 22  1  0  0  0  0
 12 13  1  0  0  0  0
 12 23  1  0  0  0  0
 13 14  2  0  0  0  0
 15 16  1  0  0  0  0
 15 24  1  0  0  0  0
 16 18  1  0  0  0  0
 16 17  1  0  0  0  0
 16 25  1  0  0  0  0
 17 18  1  0  0  0  0
 17 26  1  0  0  0  0
 17 27  1  0  0  0  0
 18 28  1  0  0  0  0
 18 29  1  0  0  0  0
M  END
> <s_m_source_file>
AV-unprocessed.smi

> <i_m_source_file_index>
1595

> <i_lp_mmshare_version>
43012

> <i_f3d_flags>
0

> <s_epik_input>
W0NIMl0xW0NIMl1bQ0hdMVtOSF1DKD1PKVtDSDJdbjJbY0hdYyhDKEYpKEYpRilbY0hdW2NIXWMyPU8=

> <s_epik_cmdline>
J2VwaWtfcHl0aG9uJywgJy1waCcsICc3LjAnLCAnLXRuJywgJzgnLCAnLW1hJywgJzIwMCcsICctbWV0YWxfYmluZGluZycsICctaW1hZScsICc8aW5maWxlLm1hZT4nLCAnLW9tYWUnLCAnPG91dGZpbGUubWFlPic=

> <r_lp_tautomer_probability>
1

> <r_epik_Ionization_Penalty>
3.87815e-08

> <r_epik_Ionization_Penalty_Charging>
1.81112e-08

> <r_epik_Ionization_Penalty_Neutral>
2.06703e-08

> <r_epik_State_Penalty>
-0

> <r_epik_Charging_Adjusted_Penalty>
1.81112e-08

> <i_epik_Tot_Q>
0

> <i_epik_Tot_abs_Q>
0

> <r_epik_Metal_State_Penalty>
-0

> <b_epik_Metal_Only>
0

> <s_lp_Force_Field>
OPLS_2005

> <r_lp_Energy>
27.3116

> <b_lp_Chiralities_Consistent>
1

> <s_lp_Variant>
AV-unprocessed.smi:1595-1

> <Gold.Version>
5.8.1

> <Gold.Id.Protein>
6NUR|6NUR_protein|mol2

> <Gold.PLP.Fitness>
42.9440

> <Gold.PLP.PLP>
-37.9961

> <Gold.PLP.part.hbond>
-1.0000

> <Gold.PLP.part.metal>
0.0000

> <Gold.PLP.part.buried>
-1.8246

> <Gold.PLP.part.nonpolar>
-35.9630

> <Gold.PLP.part.repulsive>
0.1538

> <Gold.PLP.ligand.clash>
0.0000

> <Gold.PLP.ligand.torsion>
0.3336

> <Gold.PLP.Chemscore.Hbond>
0.8480

> <Gold.PLP.Chemscore.CHOScore>
1.0000

> <Gold.PLP.Chemscore.Metal>
0.0000

> <Gold.Chemscore.Hbonds>
donor molecule, donor type, donor heavy atom, donor atom, acceptor molecule, acceptor atom, score
      L1  H    15    24       P1  7957  0.85
      L1  C     5    21       P1  8028  1.00

> <Gold.PLP.Chemscore.Internal.Correction>
0.0710

> <Gold.Rescore>
     Score         DG    S(hbond)    S(metal)    S(lipo)     H(rot)  DE(clash)    DE(int)     intcor
     11.31     -12.60       0.98        0.00      68.39       1.62       0.90       0.39       ----

> <Gold.Chemscore.Fitness>
11.3110

> <Gold.Chemscore.DG>
-12.5966

> <Gold.Chemscore.ZeroCoef>
-5.4800

> <Gold.Chemscore.Hbond>
0.9761

> <Gold.Chemscore.Metal>
0.0000

> <Gold.Chemscore.Lipo>
68.3899

> <Gold.Chemscore.Internal_Hbond>
0.0000

> <Gold.Chemscore.DEClash>
0.8986

> <Gold.Chemscore.DEInternal>
0.3870

> <Gold.Chemscore.Rot>
1.6192

> <Gold.Chemscore.Internal.Correction>
   9.000000E+99

> <Gold.Chemscore.Hbonds>
donor molecule, donor type, donor heavy atom, donor atom, acceptor molecule, acceptor atom, score
      L1  H    15    24       P1  7957  0.82

> <Gold.Chemscore.Hbond.Weighted>
-3.2602

> <Gold.Chemscore.Metal.Weighted>
-0.0000

> <Gold.Chemscore.Lipo.Weighted>
-8.0016

> <Gold.Chemscore.Internal_Hbond.Weighted>
0.0000

> <Gold.Chemscore.DEClash.Weighted>
0.8986

> <Gold.Chemscore.DEInternal.Weighted>
0.3870

> <Gold.Chemscore.Rot.Weighted>
4.1452

> <Gold.Chemscore.Internal.Correction.Weighted>
   9.000000E+99

> <Gold.Protein.RotatedTorsions>
[ 6907 6896 6895 6894 ] final   84.05 input  -60.11 | X-H torsion
[ 7974 7965 7964 7962 ] final   29.30 input  175.53 | X-H torsion
[ 8008 7997 7996 7995 ] final -133.44 input   59.86 | X-H torsion
[ 10167 10162 10161 10158 ] final  -21.97 input  -65.29 | X-H torsion
[ 10718 10713 10712 10709 ] final -159.86 input   66.30 | X-H torsion
[ 10763 10752 10751 10750 ] final  116.89 input  -60.55 | X-H torsion
[ 11005 11000 10999 10996 ] final  -59.71 input  -57.11 | X-H torsion

> <Gold.Protein.ActiveResidues>
 VAL166  LYS551  ARG553  GLY616  TRP617  ASP618  TYR619  PRO620  LYS621  CYS622 
 ASP623  PHE694  ASN695  SER759  ASP760  ASP761  ALA762  ILE779  LEU786  VAL792 
 PHE793  MET794  SER795  GLU796  ALA797  LYS798  CYS799  TRP800  GLU811  SER814 

> <Gold.Protein.RotatedAtoms>
  152.5343  134.2800  159.9003 H   0  0  0  0  0  0  0  0  0  0  0  0  # atno 6907 bound_to 6896
  151.2755  133.4228  159.2631 H   0  0  0  0  0  0  0  0  0  0  0  0  # atno 6908 bound_to 6896
  151.0330  134.9568  159.8178 H   0  0  0  0  0  0  0  0  0  0  0  0  # atno 6909 bound_to 6896
  146.1679  139.6940  142.8988 H   0  0  0  0  0  0  0  0  0  0  0  0  # atno 7974 bound_to 7965
  155.3456  140.0474  157.3045 H   0  0  0  0  0  0  0  0  0  0  0  0  # atno 8008 bound_to 7997
  154.5254  140.2239  155.8864 H   0  0  0  0  0  0  0  0  0  0  0  0  # atno 8009 bound_to 7997
  156.1734  140.3090  155.9021 H   0  0  0  0  0  0  0  0  0  0  0  0  # atno 8010 bound_to 7997
  140.7284  143.4578  151.0422 H   0  0  0  0  0  0  0  0  0  0  0  0  # atno 10167 bound_to 10162
  156.5740  130.8701  151.2846 H   0  0  0  0  0  0  0  0  0  0  0  0  # atno 10718 bound_to 10713
  153.5440  135.3553  155.2731 H   0  0  0  0  0  0  0  0  0  0  0  0  # atno 10763 bound_to 10752
  154.8714  135.4098  154.3011 H   0  0  0  0  0  0  0  0  0  0  0  0  # atno 10764 bound_to 10752
  153.3724  135.7065  153.6696 H   0  0  0  0  0  0  0  0  0  0  0  0  # atno 10765 bound_to 10752
  141.1259  133.6618  156.5113 H   0  0  0  0  0  0  0  0  0  0  0  0  # atno 11005 bound_to 11000
  145.4418  141.0423  143.2853 LP  0  0  0  0  0  0  0  0  0  0  0  0  # atno 17320 bound_to 7965
  144.8120  139.5946  143.7025 LP  0  0  0  0  0  0  0  0  0  0  0  0  # atno 17321 bound_to 7965
  139.8260  143.7755  152.3178 LP  0  0  0  0  0  0  0  0  0  0  0  0  # atno 17342 bound_to 10162
  139.7854  144.7429  151.0029 LP  0  0  0  0  0  0  0  0  0  0  0  0  # atno 17343 bound_to 10162
  157.7342  130.9742  150.2015 LP  0  0  0  0  0  0  0  0  0  0  0  0  # atno 17370 bound_to 10713
  156.2689  130.3719  149.8052 LP  0  0  0  0  0  0  0  0  0  0  0  0  # atno 17371 bound_to 10713
  140.4366  134.7053  157.4970 LP  0  0  0  0  0  0  0  0  0  0  0  0  # atno 17394 bound_to 11000
  140.0257  134.6480  155.9176 LP  0  0  0  0  0  0  0  0  0  0  0  0  # atno 17395 bound_to 11000

$$$$
