AV-unprocessed.smi:2489|AV-procd|sdf|9801|dock5
  -GOLD-   2272013433D 1   1.00000     0.00000
 Structure written by MMmdl.
 33 34  0  0  0  0  0  0  0  0  1 V2000
  151.2440  145.1376  159.8026 C   0  0  0  0  0  0  0  0  0  0  0  0
  150.6171  143.8685  159.6823 O   0  0  0  0  0  0  0  0  0  0  0  0
  151.4212  142.7869  159.4059 C   0  0  0  0  0  0  0  0  0  0  0  0
  152.5495  142.3889  160.2443 C   0  0  0  0  0  0  0  0  0  0  0  0
  153.2644  141.3144  159.8792 C   0  0  0  0  0  0  0  0  0  0  0  0
  152.9660  140.5784  158.7419 N   0  0  0  0  0  0  0  0  0  0  0  0
  151.8961  140.9048  157.8895 C   0  0  0  0  0  0  0  0  0  0  0  0
  151.5652  140.2562  156.8108 N   0  0  0  0  0  0  0  0  0  0  0  0
  152.2514  139.1268  156.3719 C   0  0  0  0  0  0  0  0  0  0  0  0
  153.2340  138.5672  156.8670 O   0  0  0  0  0  0  0  0  0  0  0  0
  151.6343  138.5519  155.0898 C   0  0  2  0  0  0  0  0  0  0  0  0
  150.1432  138.8975  154.9291 C   0  0  0  0  0  0  0  0  0  0  0  0
  149.4439  137.5682  155.1321 C   0  0  0  0  0  0  0  0  0  0  0  0
  150.4912  136.5823  154.6280 C   0  0  2  0  0  0  0  0  0  0  0  0
  150.2942  135.1481  155.1302 C   0  0  0  0  0  0  0  0  0  0  0  0
  151.7020  137.1256  155.1311 O   0  0  0  0  0  0  0  0  0  0  0  0
  151.1267  142.0736  158.2936 C   0  0  0  0  0  0  0  0  0  0  0  0
  150.4879  145.8908  160.0238 H   0  0  0  0  0  0  0  0  0  0  0  0
  151.7367  145.4309  158.8744 H   0  0  0  0  0  0  0  0  0  0  0  0
  151.9681  145.1511  160.6184 H   0  0  0  0  0  0  0  0  0  0  0  0
  152.8264  142.9261  161.1387 H   0  0  0  0  0  0  0  0  0  0  0  0
  154.1139  140.9511  160.4383 H   0  0  0  0  0  0  0  0  0  0  0  0
  152.1953  138.9024  154.2218 H   0  0  0  0  0  0  0  0  0  0  0  0
  149.7843  139.6555  155.6271 H   0  0  0  0  0  0  0  0  0  0  0  0
  149.9585  139.2679  153.9199 H   0  0  0  0  0  0  0  0  0  0  0  0
  149.2507  137.4096  156.1940 H   0  0  0  0  0  0  0  0  0  0  0  0
  148.4969  137.4973  154.5968 H   0  0  0  0  0  0  0  0  0  0  0  0
  150.5258  136.6002  153.5372 H   0  0  0  0  0  0  0  0  0  0  0  0
  149.3499  134.7357  154.7741 H   0  0  0  0  0  0  0  0  0  0  0  0
  150.2884  135.1081  156.2198 H   0  0  0  0  0  0  0  0  0  0  0  0
  151.0962  134.4993  154.7775 H   0  0  0  0  0  0  0  0  0  0  0  0
  150.2837  142.4050  157.7039 H   0  0  0  0  0  0  0  0  0  0  0  0
  153.5631  139.7865  158.5490 H   0  0  0  0  0  0  0  0  0  0  0  0
  1  2  1  0  0  0  0
  1 18  1  0  0  0  0
  1 19  1  0  0  0  0
  1 20  1  0  0  0  0
  2  3  1  0  0  0  0
  3 17  2  0  0  0  0
  3  4  1  0  0  0  0
  4  5  2  0  0  0  0
  4 21  1  0  0  0  0
  5  6  1  0  0  0  0
  5 22  1  0  0  0  0
  6  7  1  0  0  0  0
  6 33  1  0  0  0  0
  7  8  2  0  0  0  0
  7 17  1  0  0  0  0
  8  9  1  0  0  0  0
  9 10  2  0  0  0  0
  9 11  1  0  0  0  0
 11 16  1  0  0  0  0
 11 12  1  0  0  0  0
 11 23  1  0  0  0  0
 12 13  1  0  0  0  0
 12 24  1  0  0  0  0
 12 25  1  0  0  0  0
 13 14  1  0  0  0  0
 13 26  1  0  0  0  0
 13 27  1  0  0  0  0
 14 15  1  0  0  0  0
 14 16  1  0  0  0  0
 14 28  1  0  0  0  0
 15 29  1  0  0  0  0
 15 30  1  0  0  0  0
 15 31  1  0  0  0  0
 17 32  1  0  0  0  0
M  END
> <s_m_source_file>
AV-unprocessed.smi

> <i_m_source_file_index>
2489

> <i_lp_mmshare_version>
43012

> <i_f3d_flags>
0

> <s_epik_input>
W0NIM11PYzFbY0hdW2NIXW5jKFtjSF0xKVtOSF1DKD1PKVtDQEBIXTJbQ0gyXVtDSDJdW0NASF0oTzIpW0NIM10=

> <s_epik_cmdline>
J2VwaWtfcHl0aG9uJywgJy1waCcsICc3LjAnLCAnLXRuJywgJzgnLCAnLW1hJywgJzIwMCcsICctbWV0YWxfYmluZGluZycsICctaW1hZScsICc8aW5maWxlLm1hZT4nLCAnLW9tYWUnLCAnPG91dGZpbGUubWFlPic=

> <r_epik_Ionization_Penalty>
0.410206

> <r_epik_Ionization_Penalty_Charging>
0.410206

> <r_epik_Ionization_Penalty_Neutral>
6.57528e-13

> <r_epik_State_Penalty>
1.30987

> <r_epik_Charging_Adjusted_Penalty>
1.72007

> <i_epik_Tot_Q>
0

> <i_epik_Tot_abs_Q>
0

> <r_epik_Metal_State_Penalty>
1.32171

> <b_epik_Metal_Only>
0

> <s_lp_Force_Field>
OPLS_2005

> <r_lp_Energy>
35.4329

> <b_lp_Chiralities_Consistent>
1

> <s_lp_Variant>
AV-unprocessed.smi:2489-7

> <Gold.Version>
5.8.1

> <Gold.Id.Protein>
6NUR|6NUR_protein|mol2

> <Gold.PLP.Fitness>
35.3869

> <Gold.PLP.PLP>
-30.7689

> <Gold.PLP.part.hbond>
-2.0000

> <Gold.PLP.part.metal>
0.0000

> <Gold.PLP.part.buried>
-3.9206

> <Gold.PLP.part.nonpolar>
-25.7415

> <Gold.PLP.part.repulsive>
0.5632

> <Gold.PLP.ligand.clash>
0.0000

> <Gold.PLP.ligand.torsion>
0.6949

> <Gold.PLP.Chemscore.Hbond>
2.0000

> <Gold.PLP.Chemscore.CHOScore>
0.0000

> <Gold.PLP.Chemscore.Metal>
0.0000

> <Gold.Chemscore.Hbonds>
donor molecule, donor type, donor heavy atom, donor atom, acceptor molecule, acceptor atom, score
      P1  H  7997  8009       L1    10  0.90
      P1  H 10752 10765       L1    16  0.94

> <Gold.PLP.Chemscore.Internal.Correction>
0.0079

> <Gold.Rescore>
     Score         DG    S(hbond)    S(metal)    S(lipo)     H(rot)  DE(clash)    DE(int)     intcor
     12.28     -14.27       1.09        0.00      70.85       1.23       0.00       1.99       ----

> <Gold.Chemscore.Fitness>
12.2785

> <Gold.Chemscore.DG>
-14.2720

> <Gold.Chemscore.ZeroCoef>
-5.4800

> <Gold.Chemscore.Hbond>
1.0904

> <Gold.Chemscore.Metal>
0.0000

> <Gold.Chemscore.Lipo>
70.8507

> <Gold.Chemscore.Internal_Hbond>
0.0000

> <Gold.Chemscore.DEClash>
0.0000

> <Gold.Chemscore.DEInternal>
1.9935

> <Gold.Chemscore.Rot>
1.2264

> <Gold.Chemscore.Internal.Correction>
   9.000000E+99

> <Gold.Chemscore.Hbonds>
donor molecule, donor type, donor heavy atom, donor atom, acceptor molecule, acceptor atom, score
      P1  H  7997  8009       L1    10  0.17
      P1  H 10752 10765       L1    16  0.25

> <Gold.Chemscore.Hbond.Weighted>
-3.6420

> <Gold.Chemscore.Metal.Weighted>
-0.0000

> <Gold.Chemscore.Lipo.Weighted>
-8.2895

> <Gold.Chemscore.Internal_Hbond.Weighted>
0.0000

> <Gold.Chemscore.DEClash.Weighted>
0.0000

> <Gold.Chemscore.DEInternal.Weighted>
1.9935

> <Gold.Chemscore.Rot.Weighted>
3.1396

> <Gold.Chemscore.Internal.Correction.Weighted>
   9.000000E+99

> <Gold.Protein.RotatedTorsions>
[ 6907 6896 6895 6894 ] final -115.56 input  -60.11 | X-H torsion
[ 7974 7965 7964 7962 ] final   32.66 input  175.53 | X-H torsion
[ 8008 7997 7996 7995 ] final  171.10 input   59.86 | X-H torsion
[ 10167 10162 10161 10158 ] final -165.54 input  -65.29 | X-H torsion
[ 10718 10713 10712 10709 ] final  -26.44 input   66.30 | X-H torsion
[ 10763 10752 10751 10750 ] final -168.22 input  -60.55 | X-H torsion
[ 11005 11000 10999 10996 ] final    5.58 input  -57.11 | X-H torsion

> <Gold.Protein.ActiveResidues>
 VAL166  LYS551  ARG553  GLY616  TRP617  ASP618  TYR619  PRO620  LYS621  CYS622 
 ASP623  PHE694  ASN695  SER759  ASP760  ASP761  ALA762  ILE779  LEU786  VAL792 
 PHE793  MET794  SER795  GLU796  ALA797  LYS798  CYS799  TRP800  GLU811  SER814 

> <Gold.Protein.RotatedAtoms>
  150.7988  133.8640  159.3239 H   0  0  0  0  0  0  0  0  0  0  0  0  # atno 6907 bound_to 6896
  151.6458  135.1005  160.0160 H   0  0  0  0  0  0  0  0  0  0  0  0  # atno 6908 bound_to 6896
  152.4072  133.6868  159.6402 H   0  0  0  0  0  0  0  0  0  0  0  0  # atno 6909 bound_to 6896
  146.1472  139.6498  142.9123 H   0  0  0  0  0  0  0  0  0  0  0  0  # atno 7974 bound_to 7965
  156.1303  140.1520  156.9075 H   0  0  0  0  0  0  0  0  0  0  0  0  # atno 8008 bound_to 7997
  154.4904  140.0853  156.7621 H   0  0  0  0  0  0  0  0  0  0  0  0  # atno 8009 bound_to 7997
  155.4268  140.3425  155.4278 H   0  0  0  0  0  0  0  0  0  0  0  0  # atno 8010 bound_to 7997
  139.6175  144.0690  152.1902 H   0  0  0  0  0  0  0  0  0  0  0  0  # atno 10167 bound_to 10162
  156.4512  130.4484  149.6988 H   0  0  0  0  0  0  0  0  0  0  0  0  # atno 10718 bound_to 10713
  154.6651  135.2931  154.9815 H   0  0  0  0  0  0  0  0  0  0  0  0  # atno 10763 bound_to 10752
  154.0862  135.6597  153.4849 H   0  0  0  0  0  0  0  0  0  0  0  0  # atno 10764 bound_to 10752
  153.0453  135.5209  154.7621 H   0  0  0  0  0  0  0  0  0  0  0  0  # atno 10765 bound_to 10752
  140.5691  134.0119  155.8001 H   0  0  0  0  0  0  0  0  0  0  0  0  # atno 11005 bound_to 11000
  145.4909  141.0438  143.2593 LP  0  0  0  0  0  0  0  0  0  0  0  0  # atno 17320 bound_to 7965
  144.7860  139.6425  143.7134 LP  0  0  0  0  0  0  0  0  0  0  0  0  # atno 17321 bound_to 7965
  140.0324  144.6071  150.7477 LP  0  0  0  0  0  0  0  0  0  0  0  0  # atno 17342 bound_to 10162
  140.7360  143.2748  151.3775 LP  0  0  0  0  0  0  0  0  0  0  0  0  # atno 17343 bound_to 10162
  156.3814  130.7581  151.2574 LP  0  0  0  0  0  0  0  0  0  0  0  0  # atno 17370 bound_to 10713
  157.7502  131.0294  150.4093 LP  0  0  0  0  0  0  0  0  0  0  0  0  # atno 17371 bound_to 10713
  141.1067  133.9682  157.2984 LP  0  0  0  0  0  0  0  0  0  0  0  0  # atno 17394 bound_to 11000
  139.9370  135.0195  156.8588 LP  0  0  0  0  0  0  0  0  0  0  0  0  # atno 17395 bound_to 11000

$$$$
