AV-unprocessed.smi:3099|AV-procd|sdf|11802|dock5
  -GOLD-   2272017173D 1   1.00000     0.00000
 Structure written by MMmdl.
 33 34  0  0  0  0  0  0  0  0  2 V2000
  146.7803  141.9636  153.9146 C   0  0  0  0  0  0  0  0  0  0  0  0
  147.5823  140.7436  153.7984 N   0  0  0  0  0  0  0  0  0  0  0  0
  147.1528  139.6720  153.1203 C   0  0  0  0  0  0  0  0  0  0  0  0
  148.1122  138.7485  153.2093 N   0  3  0  0  0  0  0  0  0  0  0  0
  149.1588  139.2298  153.9465 C   0  0  0  0  0  0  0  0  0  0  0  0
  148.8299  140.5085  154.3302 C   0  0  0  0  0  0  0  0  0  0  0  0
  149.5665  141.5274  155.1458 C   0  0  0  0  0  0  0  0  0  0  0  0
  150.7304  140.9213  155.9504 C   0  0  0  0  0  0  0  0  0  0  0  0
  151.0302  141.7128  157.1378 N   0  0  0  0  0  0  0  0  0  0  0  0
  152.0036  141.4385  158.0196 C   0  0  0  0  0  0  0  0  0  0  0  0
  152.7576  140.4709  157.9104 O   0  0  0  0  0  0  0  0  0  0  0  0
  152.1412  142.4075  159.1976 C   0  0  0  0  0  0  0  0  0  0  0  0
  153.4144  142.1969  160.0003 C   0  0  0  0  0  0  0  0  0  0  0  0
  153.6913  140.8752  160.6825 C   0  0  0  0  0  0  0  0  0  0  0  0
  153.3762  142.0974  161.5085 C   0  0  0  0  0  0  0  0  0  0  0  0
  145.8175  141.8308  153.4192 H   0  0  0  0  0  0  0  0  0  0  0  0
  147.3172  142.7891  153.4466 H   0  0  0  0  0  0  0  0  0  0  0  0
  146.6155  142.1849  154.9694 H   0  0  0  0  0  0  0  0  0  0  0  0
  146.2158  139.5703  152.6022 H   0  0  0  0  0  0  0  0  0  0  0  0
  150.0423  138.6390  154.1407 H   0  0  0  0  0  0  0  0  0  0  0  0
  149.9428  142.3037  154.4787 H   0  0  0  0  0  0  0  0  0  0  0  0
  148.8560  142.0075  155.8199 H   0  0  0  0  0  0  0  0  0  0  0  0
  150.5052  139.8931  156.2394 H   0  0  0  0  0  0  0  0  0  0  0  0
  151.6304  140.8843  155.3363 H   0  0  0  0  0  0  0  0  0  0  0  0
  150.4590  142.5296  157.3010 H   0  0  0  0  0  0  0  0  0  0  0  0
  152.1221  143.4316  158.8240 H   0  0  0  0  0  0  0  0  0  0  0  0
  151.2799  142.2934  159.8581 H   0  0  0  0  0  0  0  0  0  0  0  0
  154.2835  142.7005  159.5801 H   0  0  0  0  0  0  0  0  0  0  0  0
  152.9283  140.1020  160.6183 H   0  0  0  0  0  0  0  0  0  0  0  0
  154.7187  140.5171  160.6836 H   0  0  0  0  0  0  0  0  0  0  0  0
  154.1940  142.5552  162.0614 H   0  0  0  0  0  0  0  0  0  0  0  0
  152.4049  142.1345  161.9982 H   0  0  0  0  0  0  0  0  0  0  0  0
  148.0682  137.8272  152.7919 H   0  0  0  0  0  0  0  0  0  0  0  0
  1  2  1  0  0  0  0
  1 16  1  0  0  0  0
  1 17  1  0  0  0  0
  1 18  1  0  0  0  0
  2  6  1  0  0  0  0
  2  3  1  0  0  0  0
  3  4  2  0  0  0  0
  3 19  1  0  0  0  0
  4  5  1  0  0  0  0
  4 33  1  0  0  0  0
  5  6  2  0  0  0  0
  5 20  1  0  0  0  0
  6  7  1  0  0  0  0
  7  8  1  0  0  0  0
  7 21  1  0  0  0  0
  7 22  1  0  0  0  0
  8  9  1  0  0  0  0
  8 23  1  0  0  0  0
  8 24  1  0  0  0  0
  9 10  1  0  0  0  0
  9 25  1  0  0  0  0
 10 11  2  0  0  0  0
 10 12  1  0  0  0  0
 12 13  1  0  0  0  0
 12 26  1  0  0  0  0
 12 27  1  0  0  0  0
 13 15  1  0  0  0  0
 13 14  1  0  0  0  0
 13 28  1  0  0  0  0
 14 15  1  0  0  0  0
 14 29  1  0  0  0  0
 14 30  1  0  0  0  0
 15 31  1  0  0  0  0
 15 32  1  0  0  0  0
M  CHG  1   4   1
M  END
> <s_m_source_file>
AV-unprocessed.smi

> <i_m_source_file_index>
3099

> <i_lp_mmshare_version>
43012

> <i_f3d_flags>
0

> <s_epik_input>
W0NIM11uMVtjSF1uW2NIXWMxW0NIMl1bQ0gyXVtOSF1DKD1PKVtDSDJdW0NIXTJbQ0gyXVtDSDJdMg==

> <s_epik_cmdline>
J2VwaWtfcHl0aG9uJywgJy1waCcsICc3LjAnLCAnLXRuJywgJzgnLCAnLW1hJywgJzIwMCcsICctbWV0YWxfYmluZGluZycsICctaW1hZScsICc8aW5maWxlLm1hZT4nLCAnLW9tYWUnLCAnPG91dGZpbGUubWFlPic=

> <r_lp_tautomer_probability>
1

> <r_epik_Ionization_Penalty>
0.156092

> <r_epik_Ionization_Penalty_Charging>
0

> <r_epik_Ionization_Penalty_Neutral>
0.156092

> <r_epik_State_Penalty>
0.145389

> <r_epik_Charging_Adjusted_Penalty>
0.145389

> <i_epik_Tot_Q>
1

> <i_epik_Tot_abs_Q>
1

> <r_epik_Metal_State_Penalty>
0.466304

> <b_epik_Metal_Only>
0

> <s_lp_Force_Field>
OPLS_2005

> <r_lp_Energy>
10.1208

> <b_lp_Chiralities_Consistent>
1

> <s_lp_Variant>
AV-unprocessed.smi:3099-1

> <Gold.Version>
5.8.1

> <Gold.Id.Protein>
6NUR|6NUR_protein|mol2

> <Gold.PLP.Fitness>
45.3418

> <Gold.PLP.PLP>
-36.0187

> <Gold.PLP.part.hbond>
-3.0000

> <Gold.PLP.part.metal>
0.0000

> <Gold.PLP.part.buried>
-0.6040

> <Gold.PLP.part.nonpolar>
-32.5232

> <Gold.PLP.part.repulsive>
0.1043

> <Gold.PLP.ligand.clash>
0.0000

> <Gold.PLP.ligand.torsion>
0.8128

> <Gold.PLP.Chemscore.Hbond>
2.8640

> <Gold.PLP.Chemscore.CHOScore>
0.6059

> <Gold.PLP.Chemscore.Metal>
0.0000

> <Gold.Chemscore.Hbonds>
donor molecule, donor type, donor heavy atom, donor atom, acceptor molecule, acceptor atom, score
      L1  H     4    33       P1  7948  1.98
      P1  H  7997  8008       L1    11  0.83
      L1  C     3    19       P1 10175  0.61

> <Gold.PLP.Chemscore.Internal.Correction>
0.5388

> <Gold.Rescore>
     Score         DG    S(hbond)    S(metal)    S(lipo)     H(rot)  DE(clash)    DE(int)     intcor
     12.82     -15.44       1.80        0.00      77.41       1.99       0.85       1.78       ----

> <Gold.Chemscore.Fitness>
12.8201

> <Gold.Chemscore.DG>
-15.4440

> <Gold.Chemscore.ZeroCoef>
-5.4800

> <Gold.Chemscore.Hbond>
1.7970

> <Gold.Chemscore.Metal>
0.0000

> <Gold.Chemscore.Lipo>
77.4149

> <Gold.Chemscore.Internal_Hbond>
0.0000

> <Gold.Chemscore.DEClash>
0.8466

> <Gold.Chemscore.DEInternal>
1.7773

> <Gold.Chemscore.Rot>
1.9905

> <Gold.Chemscore.Internal.Correction>
   9.000000E+99

> <Gold.Chemscore.Hbonds>
donor molecule, donor type, donor heavy atom, donor atom, acceptor molecule, acceptor atom, score
      L1  H     4    33       P1  7948  0.88
      P1  H  7997  8008       L1    11  0.77

> <Gold.Chemscore.Hbond.Weighted>
-6.0021

> <Gold.Chemscore.Metal.Weighted>
-0.0000

> <Gold.Chemscore.Lipo.Weighted>
-9.0575

> <Gold.Chemscore.Internal_Hbond.Weighted>
0.0000

> <Gold.Chemscore.DEClash.Weighted>
0.8466

> <Gold.Chemscore.DEInternal.Weighted>
1.7773

> <Gold.Chemscore.Rot.Weighted>
5.0957

> <Gold.Chemscore.Internal.Correction.Weighted>
   9.000000E+99

> <Gold.Protein.RotatedTorsions>
[ 6907 6896 6895 6894 ] final  103.47 input  -60.11 | X-H torsion
[ 7974 7965 7964 7962 ] final -143.88 input  175.53 | X-H torsion
[ 8008 7997 7996 7995 ] final  -72.45 input   59.86 | X-H torsion
[ 10167 10162 10161 10158 ] final   62.33 input  -65.29 | X-H torsion
[ 10718 10713 10712 10709 ] final   77.44 input   66.30 | X-H torsion
[ 10763 10752 10751 10750 ] final   15.39 input  -60.55 | X-H torsion
[ 11005 11000 10999 10996 ] final   56.03 input  -57.11 | X-H torsion

> <Gold.Protein.ActiveResidues>
 VAL166  LYS551  ARG553  GLY616  TRP617  ASP618  TYR619  PRO620  LYS621  CYS622 
 ASP623  PHE694  ASN695  SER759  ASP760  ASP761  ALA762  ILE779  LEU786  VAL792 
 PHE793  MET794  SER795  GLU796  ALA797  LYS798  CYS799  TRP800  GLU811  SER814 

> <Gold.Protein.RotatedAtoms>
  152.5294  133.9821  159.7810 H   0  0  0  0  0  0  0  0  0  0  0  0  # atno 6907 bound_to 6896
  151.0072  133.5991  159.2694 H   0  0  0  0  0  0  0  0  0  0  0  0  # atno 6908 bound_to 6896
  151.3079  135.0793  159.9315 H   0  0  0  0  0  0  0  0  0  0  0  0  # atno 6909 bound_to 6896
  144.8337  140.5780  143.5498 H   0  0  0  0  0  0  0  0  0  0  0  0  # atno 7974 bound_to 7965
  154.5167  140.0797  156.8095 H   0  0  0  0  0  0  0  0  0  0  0  0  # atno 8008 bound_to 7997
  155.3664  140.3420  155.4224 H   0  0  0  0  0  0  0  0  0  0  0  0  # atno 8009 bound_to 7997
  156.1636  140.1596  156.8557 H   0  0  0  0  0  0  0  0  0  0  0  0  # atno 8010 bound_to 7997
  140.1451  144.4516  150.6789 H   0  0  0  0  0  0  0  0  0  0  0  0  # atno 10167 bound_to 10162
  157.6710  130.9822  150.1642 H   0  0  0  0  0  0  0  0  0  0  0  0  # atno 10718 bound_to 10713
  153.1530  135.6782  153.8854 H   0  0  0  0  0  0  0  0  0  0  0  0  # atno 10763 bound_to 10752
  153.8274  135.3122  155.3417 H   0  0  0  0  0  0  0  0  0  0  0  0  # atno 10764 bound_to 10752
  154.7876  135.4853  154.0068 H   0  0  0  0  0  0  0  0  0  0  0  0  # atno 10765 bound_to 10752
  140.0561  134.5668  155.9206 H   0  0  0  0  0  0  0  0  0  0  0  0  # atno 11005 bound_to 11000
  145.4840  139.1493  143.3746 LP  0  0  0  0  0  0  0  0  0  0  0  0  # atno 17320 bound_to 7965
  146.2638  140.4976  142.8842 LP  0  0  0  0  0  0  0  0  0  0  0  0  # atno 17321 bound_to 7965
  140.6737  143.2296  151.5562 LP  0  0  0  0  0  0  0  0  0  0  0  0  # atno 17342 bound_to 10162
  139.5453  144.2538  152.1430 LP  0  0  0  0  0  0  0  0  0  0  0  0  # atno 17343 bound_to 10162
  156.2411  130.3691  149.8336 LP  0  0  0  0  0  0  0  0  0  0  0  0  # atno 17370 bound_to 10713
  156.6135  130.8597  151.3459 LP  0  0  0  0  0  0  0  0  0  0  0  0  # atno 17371 bound_to 10713
  141.1952  133.6586  156.5633 LP  0  0  0  0  0  0  0  0  0  0  0  0  # atno 17394 bound_to 11000
  140.3842  134.7496  157.4681 LP  0  0  0  0  0  0  0  0  0  0  0  0  # atno 17395 bound_to 11000

$$$$
