AV-unprocessed.smi:1682|AV-procd|sdf|6745|dock7
  -GOLD-   22720 7503D 1   1.00000     0.00000
 Structure written by MMmdl.
 39 40  0  0  0  0  0  0  0  0  2 V2000
  142.0486  135.9137  153.2340 O   0  0  0  0  0  0  0  0  0  0  0  0
  142.3570  137.0942  153.0740 C   0  0  0  0  0  0  0  0  0  0  0  0
  143.5710  137.4805  152.6502 N   0  0  0  0  0  0  0  0  0  0  0  0
  144.6472  136.5634  152.3037 C   0  0  0  0  0  0  0  0  0  0  0  0
  144.4826  136.0462  150.8680 C   0  0  0  0  0  0  0  0  0  0  0  0
  144.7249  134.5522  150.7682 C   0  0  0  0  0  0  0  0  0  0  0  0
  145.9650  133.9680  151.1070 C   0  0  0  0  0  0  0  0  0  0  0  0
  146.1272  132.5725  150.9791 C   0  0  0  0  0  0  0  0  0  0  0  0
  145.0479  131.7916  150.5163 C   0  0  0  0  0  0  0  0  0  0  0  0
  143.8316  132.4269  150.1928 C   0  0  0  0  0  0  0  0  0  0  0  0
  143.7153  133.7663  150.3285 N   0  3  0  0  0  0  0  0  0  0  0  0
  141.3248  138.1984  153.3561 C   0  0  2  0  0  0  0  0  0  0  0  0
  141.1954  138.5061  154.8603 C   0  0  0  0  0  0  0  0  0  0  0  0
  139.7816  138.0615  155.1976 C   0  0  0  0  0  0  0  0  0  0  0  0
  139.3525  138.0296  156.3495 O   0  0  0  0  0  0  0  0  0  0  0  0
  139.1108  137.7064  154.0957 N   0  0  0  0  0  0  0  0  0  0  0  0
  137.7379  137.2061  154.0404 C   0  0  0  0  0  0  0  0  0  0  0  0
  136.7209  138.2084  154.6161 C   0  0  0  0  0  0  0  0  0  0  0  0
  136.8606  138.2545  155.9402 F   0  0  0  0  0  0  0  0  0  0  0  0
  136.9178  139.4331  154.1288 F   0  0  0  0  0  0  0  0  0  0  0  0
  135.4775  137.8191  154.3340 F   0  0  0  0  0  0  0  0  0  0  0  0
  139.9000  137.8426  152.8812 C   0  0  0  0  0  0  0  0  0  0  0  0
  143.7495  138.4688  152.5435 H   0  0  0  0  0  0  0  0  0  0  0  0
  145.6057  137.0732  152.4146 H   0  0  0  0  0  0  0  0  0  0  0  0
  144.6437  135.7259  153.0033 H   0  0  0  0  0  0  0  0  0  0  0  0
  143.4782  136.2690  150.5044 H   0  0  0  0  0  0  0  0  0  0  0  0
  145.1736  136.5628  150.2004 H   0  0  0  0  0  0  0  0  0  0  0  0
  146.7844  134.5790  151.4574 H   0  0  0  0  0  0  0  0  0  0  0  0
  147.0687  132.1070  151.2314 H   0  0  0  0  0  0  0  0  0  0  0  0
  145.1518  130.7217  150.4101 H   0  0  0  0  0  0  0  0  0  0  0  0
  142.9556  131.9088  149.8309 H   0  0  0  0  0  0  0  0  0  0  0  0
  141.6556  139.0989  152.8356 H   0  0  0  0  0  0  0  0  0  0  0  0
  141.9228  137.9817  155.4822 H   0  0  0  0  0  0  0  0  0  0  0  0
  141.2952  139.5745  155.0539 H   0  0  0  0  0  0  0  0  0  0  0  0
  137.4819  136.9824  153.0039 H   0  0  0  0  0  0  0  0  0  0  0  0
  137.6737  136.2587  154.5781 H   0  0  0  0  0  0  0  0  0  0  0  0
  139.4858  138.6450  152.2692 H   0  0  0  0  0  0  0  0  0  0  0  0
  139.8630  136.9262  152.2896 H   0  0  0  0  0  0  0  0  0  0  0  0
  142.8265  134.2046  150.0856 H   0  0  0  0  0  0  0  0  0  0  0  0
  1  2  2  0  0  0  0
  2  3  1  0  0  0  0
  2 12  1  0  0  0  0
  3  4  1  0  0  0  0
  3 23  1  0  0  0  0
  4  5  1  0  0  0  0
  4 24  1  0  0  0  0
  4 25  1  0  0  0  0
  5  6  1  0  0  0  0
  5 26  1  0  0  0  0
  5 27  1  0  0  0  0
  6 11  1  0  0  0  0
  6  7  2  0  0  0  0
  7  8  1  0  0  0  0
  7 28  1  0  0  0  0
  8  9  2  0  0  0  0
  8 29  1  0  0  0  0
  9 10  1  0  0  0  0
  9 30  1  0  0  0  0
 10 11  2  0  0  0  0
 10 31  1  0  0  0  0
 11 39  1  0  0  0  0
 12 22  1  0  0  0  0
 12 13  1  0  0  0  0
 12 32  1  0  0  0  0
 13 14  1  0  0  0  0
 13 33  1  0  0  0  0
 13 34  1  0  0  0  0
 14 15  2  0  0  0  0
 14 16  1  0  0  0  0
 16 17  1  0  0  0  0
 16 22  1  0  0  0  0
 17 18  1  0  0  0  0
 17 35  1  0  0  0  0
 17 36  1  0  0  0  0
 18 19  1  0  0  0  0
 18 20  1  0  0  0  0
 18 21  1  0  0  0  0
 22 37  1  0  0  0  0
 22 38  1  0  0  0  0
M  CHG  1  11   1
M  END
> <s_m_source_file>
AV-unprocessed.smi

> <i_m_source_file_index>
1682

> <i_lp_mmshare_version>
43012

> <i_f3d_flags>
0

> <s_epik_input>
RkMoRikoRilbQ0gyXU4oW0NIMl0xKUMoPU8pW0NIMl1bQ0BIXTFDKD1PKVtOSF1bQ0gyXVtDSDJdYzJbY0hdW2NIXVtjSF1bY0hdbjI=

> <s_epik_cmdline>
J2VwaWtfcHl0aG9uJywgJy1waCcsICc3LjAnLCAnLXRuJywgJzgnLCAnLW1hJywgJzIwMCcsICctbWV0YWxfYmluZGluZycsICctaW1hZScsICc8aW5maWxlLm1hZT4nLCAnLW9tYWUnLCAnPG91dGZpbGUubWFlPic=

> <r_epik_Ionization_Penalty>
1.88249

> <r_epik_Ionization_Penalty_Charging>
1.88249

> <r_epik_Ionization_Penalty_Neutral>
2.8664e-08

> <r_epik_State_Penalty>
2.00238

> <r_epik_Charging_Adjusted_Penalty>
3.88487

> <i_epik_Tot_Q>
1

> <i_epik_Tot_abs_Q>
1

> <r_epik_Metal_State_Penalty>
2.02677

> <b_epik_Metal_Only>
0

> <s_lp_Force_Field>
OPLS_2005

> <r_lp_Energy>
22.1056

> <b_lp_Chiralities_Consistent>
1

> <s_lp_Variant>
AV-unprocessed.smi:1682-3

> <Gold.Version>
5.8.1

> <Gold.Id.Protein>
6NUR|6NUR_protein|mol2

> <Gold.PLP.Fitness>
46.6843

> <Gold.PLP.PLP>
-39.8654

> <Gold.PLP.part.hbond>
-2.9350

> <Gold.PLP.part.metal>
0.0000

> <Gold.PLP.part.buried>
-4.7287

> <Gold.PLP.part.nonpolar>
-32.8765

> <Gold.PLP.part.repulsive>
0.1963

> <Gold.PLP.ligand.clash>
0.0000

> <Gold.PLP.ligand.torsion>
1.1299

> <Gold.PLP.Chemscore.Hbond>
3.0000

> <Gold.PLP.Chemscore.CHOScore>
0.0000

> <Gold.PLP.Chemscore.Metal>
0.0000

> <Gold.Chemscore.Hbonds>
donor molecule, donor type, donor heavy atom, donor atom, acceptor molecule, acceptor atom, score
      L1  H     3    23       P1 10175  1.00
      L1  H    11    39       P1 10186  2.00

> <Gold.PLP.Chemscore.Internal.Correction>
0.0787

> <Gold.Rescore>
     Score         DG    S(hbond)    S(metal)    S(lipo)     H(rot)  DE(clash)    DE(int)     intcor
     13.23     -15.96       1.98        0.00      81.12       2.19       1.44       1.30       ----

> <Gold.Chemscore.Fitness>
13.2274

> <Gold.Chemscore.DG>
-15.9626

> <Gold.Chemscore.ZeroCoef>
-5.4800

> <Gold.Chemscore.Hbond>
1.9780

> <Gold.Chemscore.Metal>
0.0000

> <Gold.Chemscore.Lipo>
81.1156

> <Gold.Chemscore.Internal_Hbond>
0.0000

> <Gold.Chemscore.DEClash>
1.4373

> <Gold.Chemscore.DEInternal>
1.2979

> <Gold.Chemscore.Rot>
2.1932

> <Gold.Chemscore.Internal.Correction>
   9.000000E+99

> <Gold.Chemscore.Hbonds>
donor molecule, donor type, donor heavy atom, donor atom, acceptor molecule, acceptor atom, score
      L1  H     3    23       P1 10175  0.98
      L1  H    11    39       P1 10186  0.95

> <Gold.Chemscore.Hbond.Weighted>
-6.6065

> <Gold.Chemscore.Metal.Weighted>
-0.0000

> <Gold.Chemscore.Lipo.Weighted>
-9.4905

> <Gold.Chemscore.Internal_Hbond.Weighted>
0.0000

> <Gold.Chemscore.DEClash.Weighted>
1.4373

> <Gold.Chemscore.DEInternal.Weighted>
1.2979

> <Gold.Chemscore.Rot.Weighted>
5.6145

> <Gold.Chemscore.Internal.Correction.Weighted>
   9.000000E+99

> <Gold.Protein.RotatedTorsions>
[ 6907 6896 6895 6894 ] final   29.38 input  -60.11 | X-H torsion
[ 7974 7965 7964 7962 ] final  -39.40 input  175.53 | X-H torsion
[ 8008 7997 7996 7995 ] final  164.07 input   59.86 | X-H torsion
[ 10167 10162 10161 10158 ] final   -0.84 input  -65.29 | X-H torsion
[ 10718 10713 10712 10709 ] final  159.61 input   66.30 | X-H torsion
[ 10763 10752 10751 10750 ] final    1.97 input  -60.55 | X-H torsion
[ 11005 11000 10999 10996 ] final  179.12 input  -57.11 | X-H torsion

> <Gold.Protein.ActiveResidues>
 VAL166  LYS551  ARG553  GLY616  TRP617  ASP618  TYR619  PRO620  LYS621  CYS622 
 ASP623  PHE694  ASN695  SER759  ASP760  ASP761  ALA762  ILE779  LEU786  VAL792 
 PHE793  MET794  SER795  GLU796  ALA797  LYS798  CYS799  TRP800  GLU811  SER814 

> <Gold.Protein.RotatedAtoms>
  152.0306  134.9770  160.0572 H   0  0  0  0  0  0  0  0  0  0  0  0  # atno 6907 bound_to 6896
  152.1248  133.4369  159.4701 H   0  0  0  0  0  0  0  0  0  0  0  0  # atno 6908 bound_to 6896
  150.6851  134.2410  159.4516 H   0  0  0  0  0  0  0  0  0  0  0  0  # atno 6909 bound_to 6896
  146.0399  140.6622  142.9092 H   0  0  0  0  0  0  0  0  0  0  0  0  # atno 7974 bound_to 7965
  156.1908  140.1706  156.8095 H   0  0  0  0  0  0  0  0  0  0  0  0  # atno 8008 bound_to 7997
  154.5469  140.0725  156.8636 H   0  0  0  0  0  0  0  0  0  0  0  0  # atno 8009 bound_to 7997
  155.3104  140.3367  155.4246 H   0  0  0  0  0  0  0  0  0  0  0  0  # atno 8010 bound_to 7997
  140.6785  143.6846  150.8077 H   0  0  0  0  0  0  0  0  0  0  0  0  # atno 10167 bound_to 10162
  157.1617  131.0589  151.2228 H   0  0  0  0  0  0  0  0  0  0  0  0  # atno 10718 bound_to 10713
  153.3014  135.6956  153.7200 H   0  0  0  0  0  0  0  0  0  0  0  0  # atno 10763 bound_to 10752
  153.6112  135.3444  155.2980 H   0  0  0  0  0  0  0  0  0  0  0  0  # atno 10764 bound_to 10752
  154.8551  135.4364  154.2126 H   0  0  0  0  0  0  0  0  0  0  0  0  # atno 10765 bound_to 10752
  140.4026  134.6764  157.4570 H   0  0  0  0  0  0  0  0  0  0  0  0  # atno 11005 bound_to 11000
  144.7070  140.3889  143.7110 LP  0  0  0  0  0  0  0  0  0  0  0  0  # atno 17320 bound_to 7965
  145.6901  139.1637  143.2652 LP  0  0  0  0  0  0  0  0  0  0  0  0  # atno 17321 bound_to 7965
  140.0543  143.5218  152.2659 LP  0  0  0  0  0  0  0  0  0  0  0  0  # atno 17342 bound_to 10162
  139.6092  144.7604  151.2992 LP  0  0  0  0  0  0  0  0  0  0  0  0  # atno 17343 bound_to 10162
  157.4126  130.7393  149.6850 LP  0  0  0  0  0  0  0  0  0  0  0  0  # atno 17370 bound_to 10713
  155.9752  130.4091  150.3862 LP  0  0  0  0  0  0  0  0  0  0  0  0  # atno 17371 bound_to 10713
  140.0325  134.6385  155.9087 LP  0  0  0  0  0  0  0  0  0  0  0  0  # atno 17394 bound_to 11000
  141.1851  133.6554  156.5184 LP  0  0  0  0  0  0  0  0  0  0  0  0  # atno 17395 bound_to 11000

$$$$
