AV-unprocessed.smi:2709|AV-procd|sdf|10463|dock7
  -GOLD-   2272014503D 1   1.00000     0.00000
 Structure written by MMmdl.
 40 42  0  0  0  0  0  0  0  0  1 V2000
  139.0887  137.0973  153.4965 C   0  0  0  0  0  0  0  0  0  0  0  0
  138.5978  138.3820  153.8451 O   0  0  0  0  0  0  0  0  0  0  0  0
  139.5417  139.4273  153.6540 C   0  0  1  0  0  0  0  0  0  0  0  0
  138.9944  140.7886  154.1050 C   0  0  0  0  0  0  0  0  0  0  0  0
  140.2244  141.5570  154.5733 C   0  0  0  0  0  0  0  0  0  0  0  0
  141.0769  140.4945  155.2647 C   0  0  0  0  0  0  0  0  0  0  0  0
  140.7992  139.1756  154.5148 C   0  0  2  0  0  0  0  0  0  0  0  0
  141.9319  138.7956  153.6733 N   0  0  0  0  0  0  0  0  0  0  0  0
  142.3217  137.5374  153.4267 C   0  0  0  0  0  0  0  0  0  0  0  0
  141.7577  136.5482  153.8937 O   0  0  0  0  0  0  0  0  0  0  0  0
  143.3837  137.5116  152.6041 N   0  0  0  0  0  0  0  0  0  0  0  0
  144.1109  136.3846  152.1352 C   0  0  0  0  0  0  0  0  0  0  0  0
  143.6905  135.0936  152.5185 C   0  0  0  0  0  0  0  0  0  0  0  0
  144.3252  133.9784  152.0979 N   0  0  0  0  0  0  0  0  0  0  0  0
  145.3801  134.1516  151.2969 C   0  0  0  0  0  0  0  0  0  0  0  0
  146.0610  132.9131  150.8024 C   0  0  0  0  0  0  0  0  0  0  0  0
  145.4655  132.0957  149.6739 C   0  0  0  0  0  0  0  0  0  0  0  0
  145.4693  131.5448  151.0724 C   0  0  0  0  0  0  0  0  0  0  0  0
  145.8545  135.3162  150.8465 N   0  0  0  0  0  0  0  0  0  0  0  0
  145.2269  136.4372  151.2639 C   0  0  0  0  0  0  0  0  0  0  0  0
  138.3228  136.3488  153.6982 H   0  0  0  0  0  0  0  0  0  0  0  0
  139.9710  136.8394  154.0835 H   0  0  0  0  0  0  0  0  0  0  0  0
  139.3426  137.0368  152.4379 H   0  0  0  0  0  0  0  0  0  0  0  0
  139.8247  139.4884  152.6006 H   0  0  0  0  0  0  0  0  0  0  0  0
  138.4509  141.3077  153.3151 H   0  0  0  0  0  0  0  0  0  0  0  0
  138.3122  140.6551  154.9460 H   0  0  0  0  0  0  0  0  0  0  0  0
  140.7597  141.9582  153.7119 H   0  0  0  0  0  0  0  0  0  0  0  0
  139.9751  142.3893  155.2317 H   0  0  0  0  0  0  0  0  0  0  0  0
  142.1319  140.7701  155.2919 H   0  0  0  0  0  0  0  0  0  0  0  0
  140.7487  140.3917  156.2998 H   0  0  0  0  0  0  0  0  0  0  0  0
  140.6043  138.3830  155.2403 H   0  0  0  0  0  0  0  0  0  0  0  0
  142.4493  139.5478  153.2429 H   0  0  0  0  0  0  0  0  0  0  0  0
  143.6877  138.4039  152.2430 H   0  0  0  0  0  0  0  0  0  0  0  0
  142.8391  134.9523  153.1681 H   0  0  0  0  0  0  0  0  0  0  0  0
  147.1439  133.0153  150.8400 H   0  0  0  0  0  0  0  0  0  0  0  0
  144.5087  132.4141  149.2647 H   0  0  0  0  0  0  0  0  0  0  0  0
  146.1539  131.6522  148.9575 H   0  0  0  0  0  0  0  0  0  0  0  0
  146.1613  130.7350  151.2934 H   0  0  0  0  0  0  0  0  0  0  0  0
  144.5146  131.4972  151.5927 H   0  0  0  0  0  0  0  0  0  0  0  0
  145.6211  137.3617  150.8723 H   0  0  0  0  0  0  0  0  0  0  0  0
  1  2  1  0  0  0  0
  1 21  1  0  0  0  0
  1 22  1  0  0  0  0
  1 23  1  0  0  0  0
  2  3  1  0  0  0  0
  3  7  1  0  0  0  0
  3  4  1  0  0  0  0
  3 24  1  0  0  0  0
  4  5  1  0  0  0  0
  4 25  1  0  0  0  0
  4 26  1  0  0  0  0
  5  6  1  0  0  0  0
  5 27  1  0  0  0  0
  5 28  1  0  0  0  0
  6  7  1  0  0  0  0
  6 29  1  0  0  0  0
  6 30  1  0  0  0  0
  7  8  1  0  0  0  0
  7 31  1  0  0  0  0
  8  9  1  0  0  0  0
  8 32  1  0  0  0  0
  9 10  2  0  0  0  0
  9 11  1  0  0  0  0
 11 12  1  0  0  0  0
 11 33  1  0  0  0  0
 12 20  1  0  0  0  0
 12 13  2  0  0  0  0
 13 14  1  0  0  0  0
 13 34  1  0  0  0  0
 14 15  2  0  0  0  0
 15 16  1  0  0  0  0
 15 19  1  0  0  0  0
 16 18  1  0  0  0  0
 16 17  1  0  0  0  0
 16 35  1  0  0  0  0
 17 18  1  0  0  0  0
 17 36  1  0  0  0  0
 17 37  1  0  0  0  0
 18 38  1  0  0  0  0
 18 39  1  0  0  0  0
 19 20  2  0  0  0  0
 20 40  1  0  0  0  0
M  END
> <s_m_source_file>
AV-unprocessed.smi

> <i_m_source_file_index>
2709

> <i_lp_mmshare_version>
43012

> <i_f3d_flags>
0

> <s_epik_input>
W0NIM11PW0NAQEhdMVtDSDJdW0NIMl1bQ0gyXVtDQEhdMVtOSF1DKD1PKVtOSF1jMltjSF1uYyhuW2NIXTIpW0NIXTNbQ0gyXVtDSDJdMw==

> <s_epik_cmdline>
J2VwaWtfcHl0aG9uJywgJy1waCcsICc3LjAnLCAnLXRuJywgJzgnLCAnLW1hJywgJzIwMCcsICctbWV0YWxfYmluZGluZycsICctaW1hZScsICc8aW5maWxlLm1hZT4nLCAnLW9tYWUnLCAnPG91dGZpbGUubWFlPic=

> <r_lp_tautomer_probability>
1

> <r_epik_Ionization_Penalty>
2.49969e-05

> <r_epik_Ionization_Penalty_Charging>
0

> <r_epik_Ionization_Penalty_Neutral>
2.49969e-05

> <r_epik_State_Penalty>
-0

> <r_epik_Charging_Adjusted_Penalty>
0

> <i_epik_Tot_Q>
0

> <i_epik_Tot_abs_Q>
0

> <r_epik_Metal_State_Penalty>
-0

> <b_epik_Metal_Only>
0

> <s_lp_Force_Field>
OPLS_2005

> <r_lp_Energy>
19.78

> <b_lp_Chiralities_Consistent>
1

> <s_lp_Variant>
AV-unprocessed.smi:2709-4

> <Gold.Version>
5.8.1

> <Gold.Id.Protein>
6NUR|6NUR_protein|mol2

> <Gold.PLP.Fitness>
39.1405

> <Gold.PLP.PLP>
-32.7879

> <Gold.PLP.part.hbond>
-3.0000

> <Gold.PLP.part.metal>
0.0000

> <Gold.PLP.part.buried>
-3.7784

> <Gold.PLP.part.nonpolar>
-26.1832

> <Gold.PLP.part.repulsive>
0.5228

> <Gold.PLP.ligand.clash>
0.0000

> <Gold.PLP.ligand.torsion>
0.6804

> <Gold.PLP.Chemscore.Hbond>
1.9357

> <Gold.PLP.Chemscore.CHOScore>
0.5926

> <Gold.PLP.Chemscore.Metal>
0.0000

> <Gold.Chemscore.Hbonds>
donor molecule, donor type, donor heavy atom, donor atom, acceptor molecule, acceptor atom, score
      L1  H     8    32       P1 10175  1.00
      L1  H    11    33       P1 10175  0.92
      L1  C    20    40       P1 10171  0.60

> <Gold.PLP.Chemscore.Internal.Correction>
0.1284

> <Gold.Rescore>
     Score         DG    S(hbond)    S(metal)    S(lipo)     H(rot)  DE(clash)    DE(int)     intcor
     14.41     -16.49       1.89        0.00      71.07       1.41       0.21       1.87       ----

> <Gold.Chemscore.Fitness>
14.4066

> <Gold.Chemscore.DG>
-16.4920

> <Gold.Chemscore.ZeroCoef>
-5.4800

> <Gold.Chemscore.Hbond>
1.8892

> <Gold.Chemscore.Metal>
0.0000

> <Gold.Chemscore.Lipo>
71.0719

> <Gold.Chemscore.Internal_Hbond>
0.0000

> <Gold.Chemscore.DEClash>
0.2139

> <Gold.Chemscore.DEInternal>
1.8715

> <Gold.Chemscore.Rot>
1.4114

> <Gold.Chemscore.Internal.Correction>
   9.000000E+99

> <Gold.Chemscore.Hbonds>
donor molecule, donor type, donor heavy atom, donor atom, acceptor molecule, acceptor atom, score
      L1  H     8    32       P1 10175  0.99
      L1  H    11    33       P1 10175  0.84

> <Gold.Chemscore.Hbond.Weighted>
-6.3098

> <Gold.Chemscore.Metal.Weighted>
-0.0000

> <Gold.Chemscore.Lipo.Weighted>
-8.3154

> <Gold.Chemscore.Internal_Hbond.Weighted>
0.0000

> <Gold.Chemscore.DEClash.Weighted>
0.2139

> <Gold.Chemscore.DEInternal.Weighted>
1.8715

> <Gold.Chemscore.Rot.Weighted>
3.6133

> <Gold.Chemscore.Internal.Correction.Weighted>
   9.000000E+99

> <Gold.Protein.RotatedTorsions>
[ 6907 6896 6895 6894 ] final  160.13 input  -60.11 | X-H torsion
[ 7974 7965 7964 7962 ] final   29.06 input  175.53 | X-H torsion
[ 8008 7997 7996 7995 ] final  127.61 input   59.86 | X-H torsion
[ 10167 10162 10161 10158 ] final  -85.83 input  -65.29 | X-H torsion
[ 10718 10713 10712 10709 ] final  111.60 input   66.30 | X-H torsion
[ 10763 10752 10751 10750 ] final   75.70 input  -60.55 | X-H torsion
[ 11005 11000 10999 10996 ] final   47.78 input  -57.11 | X-H torsion

> <Gold.Protein.ActiveResidues>
 VAL166  LYS551  ARG553  GLY616  TRP617  ASP618  TYR619  PRO620  LYS621  CYS622 
 ASP623  PHE694  ASN695  SER759  ASP760  ASP761  ALA762  ILE779  LEU786  VAL792 
 PHE793  MET794  SER795  GLU796  ALA797  LYS798  CYS799  TRP800  GLU811  SER814 

> <Gold.Protein.RotatedAtoms>
  151.9752  133.3739  159.4086 H   0  0  0  0  0  0  0  0  0  0  0  0  # atno 6907 bound_to 6896
  150.6943  134.4097  159.5165 H   0  0  0  0  0  0  0  0  0  0  0  0  # atno 6908 bound_to 6896
  152.1808  134.8756  160.0577 H   0  0  0  0  0  0  0  0  0  0  0  0  # atno 6909 bound_to 6896
  146.1693  139.6973  142.8978 H   0  0  0  0  0  0  0  0  0  0  0  0  # atno 7974 bound_to 7965
  156.2895  140.2664  156.2301 H   0  0  0  0  0  0  0  0  0  0  0  0  # atno 8008 bound_to 7997
  155.0081  140.0387  157.2406 H   0  0  0  0  0  0  0  0  0  0  0  0  # atno 8009 bound_to 7997
  154.7542  140.2749  155.6272 H   0  0  0  0  0  0  0  0  0  0  0  0  # atno 8010 bound_to 7997
  140.3999  143.2667  151.9155 H   0  0  0  0  0  0  0  0  0  0  0  0  # atno 10167 bound_to 10162
  157.6436  131.0953  150.6773 H   0  0  0  0  0  0  0  0  0  0  0  0  # atno 10718 bound_to 10713
  153.0673  135.4978  154.8229 H   0  0  0  0  0  0  0  0  0  0  0  0  # atno 10763 bound_to 10752
  154.6972  135.2995  154.9396 H   0  0  0  0  0  0  0  0  0  0  0  0  # atno 10764 bound_to 10752
  154.0131  135.6751  153.4819 H   0  0  0  0  0  0  0  0  0  0  0  0  # atno 10765 bound_to 10752
  140.1248  134.4782  155.8568 H   0  0  0  0  0  0  0  0  0  0  0  0  # atno 11005 bound_to 11000
  145.4382  141.0420  143.2872 LP  0  0  0  0  0  0  0  0  0  0  0  0  # atno 17320 bound_to 7965
  144.8139  139.5911  143.7017 LP  0  0  0  0  0  0  0  0  0  0  0  0  # atno 17321 bound_to 7965
  139.4785  144.5643  151.8189 LP  0  0  0  0  0  0  0  0  0  0  0  0  # atno 17342 bound_to 10162
  140.4750  144.1532  150.5923 LP  0  0  0  0  0  0  0  0  0  0  0  0  # atno 17343 bound_to 10162
  156.7093  130.4647  149.5551 LP  0  0  0  0  0  0  0  0  0  0  0  0  # atno 17370 bound_to 10713
  156.1741  130.6456  151.0872 LP  0  0  0  0  0  0  0  0  0  0  0  0  # atno 17371 bound_to 10713
  141.2159  133.6774  156.6958 LP  0  0  0  0  0  0  0  0  0  0  0  0  # atno 17394 bound_to 11000
  140.2918  134.8235  157.4023 LP  0  0  0  0  0  0  0  0  0  0  0  0  # atno 17395 bound_to 11000

$$$$
