AV-unprocessed.smi:215|AV-procd|sdf|1656|dock1
  -GOLD-   2262020 43D 1   1.00000     0.00000
 Structure written by MMmdl.
 59 62  0  0  0  0  0  0  0  0  2 V2000
  145.9375  140.1781  156.8929 C   0  0  0  0  0  0  0  0  0  0  0  0
  147.1218  140.1061  155.9148 C   0  0  2  0  0  0  0  0  0  0  0  0
  147.6996  141.4767  155.5422 C   0  0  1  0  0  0  0  0  0  0  0  0
  148.4653  142.1731  156.6185 N   0  3  1  0  0  0  0  0  0  0  0  0
  147.6470  142.7496  157.7176 C   0  0  0  0  0  0  0  0  0  0  0  0
  149.6031  141.3571  157.1188 C   0  0  0  0  0  0  0  0  0  0  0  0
  150.9525  142.0829  156.9840 C   0  0  0  0  0  0  0  0  0  0  0  0
  150.7639  143.4771  157.1014 O   0  0  0  0  0  0  0  0  0  0  0  0
  148.4829  141.1556  154.2664 C   0  0  0  0  0  0  0  0  0  0  0  0
  147.6138  140.0881  153.5903 C   0  0  0  0  0  0  0  0  0  0  0  0
  146.7515  139.5215  154.6289 N   0  0  0  0  0  0  0  0  0  0  0  0
  146.6306  138.1743  154.6358 C   0  0  0  0  0  0  0  0  0  0  0  0
  146.8440  137.4754  155.7820 N   0  0  0  0  0  0  0  0  0  0  0  0
  146.7050  136.1463  155.7863 C   0  0  0  0  0  0  0  0  0  0  0  0
  146.3605  135.3401  154.7799 N   0  0  0  0  0  0  0  0  0  0  0  0
  146.1390  136.0407  153.6298 C   0  0  0  0  0  0  0  0  0  0  0  0
  146.2518  137.4506  153.4752 C   0  0  0  0  0  0  0  0  0  0  0  0
  145.9504  137.8156  152.1702 N   0  0  0  0  0  0  0  0  0  0  0  0
  145.6748  136.6830  151.5828 C   0  0  0  0  0  0  0  0  0  0  0  0
  145.7617  135.5649  152.3835 N   0  0  0  0  0  0  0  0  0  0  0  0
  145.5091  134.2086  151.9825 C   0  0  0  0  0  0  0  0  0  0  0  0
  146.0169  133.6625  150.6450 C   0  0  0  0  0  0  0  0  0  0  0  0
  144.7645  132.7589  150.5528 C   0  0  0  0  0  0  0  0  0  0  0  0
  144.1148  132.6256  149.1610 C   0  0  0  0  0  0  0  0  0  0  0  0
  142.8024  132.1032  149.2209 O   0  0  0  0  0  0  0  0  0  0  0  0
  144.9811  131.3329  151.0934 C   0  0  0  0  0  0  0  0  0  0  0  0
  145.9482  130.6301  150.3393 O   0  0  0  0  0  0  0  0  0  0  0  0
  144.1147  133.7520  151.5457 C   0  0  0  0  0  0  0  0  0  0  0  0
  147.8966  139.4758  156.3498 H   0  0  0  0  0  0  0  0  0  0  0  0
  146.8569  142.1149  155.2680 H   0  0  0  0  0  0  0  0  0  0  0  0
  146.2324  140.6523  157.8292 H   0  0  0  0  0  0  0  0  0  0  0  0
  145.5619  139.1838  157.1356 H   0  0  0  0  0  0  0  0  0  0  0  0
  145.1108  140.7528  156.4734 H   0  0  0  0  0  0  0  0  0  0  0  0
  147.1548  141.9757  158.3063 H   0  0  0  0  0  0  0  0  0  0  0  0
  146.8886  143.4359  157.3463 H   0  0  0  0  0  0  0  0  0  0  0  0
  148.2682  143.3280  158.4000 H   0  0  0  0  0  0  0  0  0  0  0  0
  149.4223  141.0826  158.1591 H   0  0  0  0  0  0  0  0  0  0  0  0
  149.6694  140.4174  156.5684 H   0  0  0  0  0  0  0  0  0  0  0  0
  151.6799  141.7459  157.7216 H   0  0  0  0  0  0  0  0  0  0  0  0
  151.3827  141.8797  156.0029 H   0  0  0  0  0  0  0  0  0  0  0  0
  150.0111  143.7248  156.5855 H   0  0  0  0  0  0  0  0  0  0  0  0
  148.6441  142.0280  153.6326 H   0  0  0  0  0  0  0  0  0  0  0  0
  149.4554  140.7201  154.4929 H   0  0  0  0  0  0  0  0  0  0  0  0
  146.9701  140.5518  152.8423 H   0  0  0  0  0  0  0  0  0  0  0  0
  148.2262  139.3488  153.0723 H   0  0  0  0  0  0  0  0  0  0  0  0
  146.8949  135.6580  156.7309 H   0  0  0  0  0  0  0  0  0  0  0  0
  145.3973  136.6341  150.5397 H   0  0  0  0  0  0  0  0  0  0  0  0
  145.8645  133.5752  152.7976 H   0  0  0  0  0  0  0  0  0  0  0  0
  146.0668  134.4264  149.8685 H   0  0  0  0  0  0  0  0  0  0  0  0
  146.9631  133.1248  150.7125 H   0  0  0  0  0  0  0  0  0  0  0  0
  144.0660  133.5936  148.6616 H   0  0  0  0  0  0  0  0  0  0  0  0
  144.6984  131.9679  148.5165 H   0  0  0  0  0  0  0  0  0  0  0  0
  142.1921  132.8013  149.0393 H   0  0  0  0  0  0  0  0  0  0  0  0
  145.2976  131.3533  152.1368 H   0  0  0  0  0  0  0  0  0  0  0  0
  144.0564  130.7560  151.0680 H   0  0  0  0  0  0  0  0  0  0  0  0
  146.8016  130.8075  150.7045 H   0  0  0  0  0  0  0  0  0  0  0  0
  143.5278  133.2907  152.3403 H   0  0  0  0  0  0  0  0  0  0  0  0
  143.5437  134.5434  151.0590 H   0  0  0  0  0  0  0  0  0  0  0  0
  148.8960  142.9601  156.1536 H   0  0  0  0  0  0  0  0  0  0  0  0
  1  2  1  0  0  0  0
  1 31  1  0  0  0  0
  1 32  1  0  0  0  0
  1 33  1  0  0  0  0
  2 29  1  0  0  0  0
  2 11  1  0  0  0  0
  2  3  1  0  0  0  0
  3 30  1  0  0  0  0
  3  4  1  0  0  0  0
  3  9  1  0  0  0  0
  4  5  1  0  0  0  0
  4  6  1  0  0  0  0
  4 59  1  0  0  0  0
  5 34  1  0  0  0  0
  5 35  1  0  0  0  0
  5 36  1  0  0  0  0
  6  7  1  0  0  0  0
  6 37  1  0  0  0  0
  6 38  1  0  0  0  0
  7  8  1  0  0  0  0
  7 39  1  0  0  0  0
  7 40  1  0  0  0  0
  8 41  1  0  0  0  0
  9 10  1  0  0  0  0
  9 42  1  0  0  0  0
  9 43  1  0  0  0  0
 10 11  1  0  0  0  0
 10 44  1  0  0  0  0
 10 45  1  0  0  0  0
 11 12  1  0  0  0  0
 12 17  1  0  0  0  0
 12 13  2  0  0  0  0
 13 14  1  0  0  0  0
 14 15  2  0  0  0  0
 14 46  1  0  0  0  0
 15 16  1  0  0  0  0
 16 20  1  0  0  0  0
 16 17  2  0  0  0  0
 17 18  1  0  0  0  0
 18 19  2  0  0  0  0
 19 20  1  0  0  0  0
 19 47  1  0  0  0  0
 20 21  1  0  0  0  0
 21 28  1  0  0  0  0
 21 22  1  0  0  0  0
 21 48  1  0  0  0  0
 22 23  1  0  0  0  0
 22 49  1  0  0  0  0
 22 50  1  0  0  0  0
 23 24  1  0  0  0  0
 23 26  1  0  0  0  0
 23 28  1  0  0  0  0
 24 25  1  0  0  0  0
 24 51  1  0  0  0  0
 24 52  1  0  0  0  0
 25 53  1  0  0  0  0
 26 27  1  0  0  0  0
 26 54  1  0  0  0  0
 26 55  1  0  0  0  0
 27 56  1  0  0  0  0
 28 57  1  0  0  0  0
 28 58  1  0  0  0  0
M  CHG  1   4   1
M  END
> <s_m_source_file>
AV-unprocessed.smi

> <i_m_source_file_index>
215

> <i_lp_mmshare_version>
43012

> <i_f3d_flags>
0

> <s_epik_input>
W09IXVtDSDJdW0NIMl1OKFtDSDNdKVtDQEBIXShbQ0BIXTFbQ0gzXSlbQ0gyXVtDSDJdTjFjKG5bY0hdbjIpYyhjMjMpbltjSF1uM1tDSF0oW0NIMl00KVtDSDJdQzQoW0NIMl1bT0hdKVtDSDJdW09IXQ==

> <s_epik_cmdline>
J2VwaWtfcHl0aG9uJywgJy1waCcsICc3LjAnLCAnLXRuJywgJzgnLCAnLW1hJywgJzIwMCcsICctbWV0YWxfYmluZGluZycsICctaW1hZScsICc8aW5maWxlLm1hZT4nLCAnLW9tYWUnLCAnPG91dGZpbGUubWFlPic=

> <r_lp_tautomer_probability>
1

> <r_epik_Ionization_Penalty>
0.0036237

> <r_epik_Ionization_Penalty_Charging>
0.0032725

> <r_epik_Ionization_Penalty_Neutral>
0.000351196

> <r_epik_State_Penalty>
-0

> <r_epik_Charging_Adjusted_Penalty>
0.0032725

> <i_epik_Tot_Q>
1

> <i_epik_Tot_abs_Q>
1

> <r_epik_Metal_State_Penalty>
-0

> <b_epik_Metal_Only>
0

> <s_lp_Force_Field>
OPLS_2005

> <r_lp_Energy>
69.5021

> <b_lp_Chiralities_Consistent>
1

> <s_lp_Variant>
AV-unprocessed.smi:215-7

> <Gold.Version>
5.8.1

> <Gold.Id.Protein>
6NUR|6NUR_protein|mol2

> <Gold.PLP.Fitness>
54.2270

> <Gold.PLP.PLP>
-36.4396

> <Gold.PLP.part.hbond>
-5.9118

> <Gold.PLP.part.metal>
0.0000

> <Gold.PLP.part.buried>
-3.9268

> <Gold.PLP.part.nonpolar>
-27.5360

> <Gold.PLP.part.repulsive>
0.4461

> <Gold.PLP.ligand.clash>
0.0000

> <Gold.PLP.ligand.torsion>
1.4780

> <Gold.PLP.Chemscore.Hbond>
5.8933

> <Gold.PLP.Chemscore.CHOScore>
0.8035

> <Gold.PLP.Chemscore.Metal>
0.0000

> <Gold.Chemscore.Hbonds>
donor molecule, donor type, donor heavy atom, donor atom, acceptor molecule, acceptor atom, score
      L1  H     4    59       P1  8028  2.00
      L1  H     8    41       P1  8028  1.00
      L1  H    25    53       P1 10186  0.94
      L1  H    27    56       P1 10747  0.49
      P1  H 10785 10796       L1    25  0.94
      L1  C    19    47       P1 10171  0.60

> <Gold.PLP.Chemscore.Internal.Correction>
0.6533

> <Gold.Rescore>
     Score         DG    S(hbond)    S(metal)    S(lipo)     H(rot)  DE(clash)    DE(int)     intcor
     13.44     -16.60       4.21        0.00      80.08       4.81       0.93       2.23       ----

> <Gold.Chemscore.Fitness>
13.4410

> <Gold.Chemscore.DG>
-16.5976

> <Gold.Chemscore.ZeroCoef>
-5.4800

> <Gold.Chemscore.Hbond>
4.2099

> <Gold.Chemscore.Metal>
0.0000

> <Gold.Chemscore.Lipo>
80.0806

> <Gold.Chemscore.Internal_Hbond>
0.0000

> <Gold.Chemscore.DEClash>
0.9303

> <Gold.Chemscore.DEInternal>
2.2264

> <Gold.Chemscore.Rot>
4.8098

> <Gold.Chemscore.Internal.Correction>
   9.000000E+99

> <Gold.Chemscore.Hbonds>
donor molecule, donor type, donor heavy atom, donor atom, acceptor molecule, acceptor atom, score
      L1  H     4    59       P1  8028  0.94
      L1  H     8    41       P1  8028  0.99
      L1  H    25    53       P1 10186  0.88
      L1  H    27    56       P1 10747  0.49
      P1  H 10785 10796       L1    25  0.23

> <Gold.Chemscore.Hbond.Weighted>
-14.0612

> <Gold.Chemscore.Metal.Weighted>
-0.0000

> <Gold.Chemscore.Lipo.Weighted>
-9.3694

> <Gold.Chemscore.Internal_Hbond.Weighted>
0.0000

> <Gold.Chemscore.DEClash.Weighted>
0.9303

> <Gold.Chemscore.DEInternal.Weighted>
2.2264

> <Gold.Chemscore.Rot.Weighted>
12.3130

> <Gold.Chemscore.Internal.Correction.Weighted>
   9.000000E+99

> <Gold.Protein.RotatedTorsions>
[ 6907 6896 6895 6894 ] final    7.88 input  -60.11 | X-H torsion
[ 7974 7965 7964 7962 ] final  138.73 input  175.53 | X-H torsion
[ 8008 7997 7996 7995 ] final  152.30 input   59.86 | X-H torsion
[ 10167 10162 10161 10158 ] final   56.33 input  -65.29 | X-H torsion
[ 10718 10713 10712 10709 ] final  -70.41 input   66.30 | X-H torsion
[ 10763 10752 10751 10750 ] final  -37.70 input  -60.55 | X-H torsion
[ 11005 11000 10999 10996 ] final  -29.58 input  -57.11 | X-H torsion

> <Gold.Protein.ActiveResidues>
 VAL166  LYS551  ARG553  GLY616  TRP617  ASP618  TYR619  PRO620  LYS621  CYS622 
 ASP623  PHE694  ASN695  SER759  ASP760  ASP761  ALA762  ILE779  LEU786  VAL792 
 PHE793  MET794  SER795  GLU796  ALA797  LYS798  CYS799  TRP800  GLU811  SER814 

> <Gold.Protein.RotatedAtoms>
  151.6970  135.0937  160.0243 H   0  0  0  0  0  0  0  0  0  0  0  0  # atno 6907 bound_to 6896
  152.3744  133.6457  159.6120 H   0  0  0  0  0  0  0  0  0  0  0  0  # atno 6908 bound_to 6896
  150.7698  133.9134  159.3417 H   0  0  0  0  0  0  0  0  0  0  0  0  # atno 6909 bound_to 6896
  144.9345  139.5006  143.5601 H   0  0  0  0  0  0  0  0  0  0  0  0  # atno 7974 bound_to 7965
  156.2635  140.2024  156.6312 H   0  0  0  0  0  0  0  0  0  0  0  0  # atno 8008 bound_to 7997
  154.6681  140.0553  157.0160 H   0  0  0  0  0  0  0  0  0  0  0  0  # atno 8009 bound_to 7997
  155.1177  140.3221  155.4508 H   0  0  0  0  0  0  0  0  0  0  0  0  # atno 8010 bound_to 7997
  140.2099  144.3900  150.6493 H   0  0  0  0  0  0  0  0  0  0  0  0  # atno 10167 bound_to 10162
  156.0409  130.4331  150.2291 H   0  0  0  0  0  0  0  0  0  0  0  0  # atno 10718 bound_to 10713
  153.9006  135.6803  153.4755 H   0  0  0  0  0  0  0  0  0  0  0  0  # atno 10763 bound_to 10752
  153.1131  135.4774  154.9067 H   0  0  0  0  0  0  0  0  0  0  0  0  # atno 10764 bound_to 10752
  154.7577  135.3202  154.8393 H   0  0  0  0  0  0  0  0  0  0  0  0  # atno 10765 bound_to 10752
  140.9309  133.7339  156.0934 H   0  0  0  0  0  0  0  0  0  0  0  0  # atno 11005 bound_to 11000
  146.3261  139.8320  142.8906 LP  0  0  0  0  0  0  0  0  0  0  0  0  # atno 17320 bound_to 7965
  145.3088  141.0214  143.3566 LP  0  0  0  0  0  0  0  0  0  0  0  0  # atno 17321 bound_to 7965
  140.6331  143.2190  151.6454 LP  0  0  0  0  0  0  0  0  0  0  0  0  # atno 17342 bound_to 10162
  139.5184  144.3286  152.0847 LP  0  0  0  0  0  0  0  0  0  0  0  0  # atno 17343 bound_to 10162
  157.0386  131.0028  151.3290 LP  0  0  0  0  0  0  0  0  0  0  0  0  # atno 17370 bound_to 10713
  157.5226  130.8007  149.7826 LP  0  0  0  0  0  0  0  0  0  0  0  0  # atno 17371 bound_to 10713
  140.7864  134.3667  157.5475 LP  0  0  0  0  0  0  0  0  0  0  0  0  # atno 17394 bound_to 11000
  139.8796  134.9113  156.3034 LP  0  0  0  0  0  0  0  0  0  0  0  0  # atno 17395 bound_to 11000

$$$$
