AV-unprocessed.smi:436|AV-procd|sdf|2558|dock3
  -GOLD-   2262022523D 1   1.00000     0.00000
 Structure written by MMmdl.
 43 44  0  0  0  0  0  0  0  0  1 V2000
  146.0969  134.4105  151.5481 C   0  0  0  0  0  0  0  0  0  0  0  0
  145.2360  135.5653  151.0242 C   0  0  0  0  0  0  0  0  0  0  0  0
  146.0393  136.8604  150.8401 C   0  0  0  0  0  0  0  0  0  0  0  0
  146.4905  137.4729  152.1781 C   0  0  0  0  0  0  0  0  0  0  0  0
  146.8928  138.9565  152.0771 C   0  0  0  0  0  0  0  0  0  0  0  0
  147.3394  139.5527  153.4153 C   0  0  0  0  0  0  0  0  0  0  0  0
  146.5363  139.6210  154.3458 O   0  0  0  0  0  0  0  0  0  0  0  0
  148.6191  139.9666  153.4745 N   0  0  0  0  0  0  0  0  0  0  0  0
  149.3023  140.5597  154.5688 C   0  0  0  0  0  0  0  0  0  0  0  0
  148.4826  141.2608  155.4777 C   0  0  0  0  0  0  0  0  0  0  0  0
  149.0642  141.8794  156.6003 C   0  0  0  0  0  0  0  0  0  0  0  0
  150.4592  141.7886  156.8040 C   0  0  0  0  0  0  0  0  0  0  0  0
  151.0610  142.3950  157.9275 N   0  0  0  0  0  0  0  0  0  0  0  0
  151.5726  143.7483  157.7261 C   0  0  0  0  0  0  0  0  0  0  0  0
  151.8878  144.4079  159.0804 C   0  0  0  0  0  0  0  0  0  0  0  0
  152.7762  143.5812  159.8256 O   0  0  0  0  0  0  0  0  0  0  0  0
  152.2047  142.3075  160.1050 C   0  0  0  0  0  0  0  0  0  0  0  0
  151.9078  141.5727  158.7866 C   0  0  0  0  0  0  0  0  0  0  0  0
  151.1952  141.0586  155.8392 C   0  0  0  0  0  0  0  0  0  0  0  0
  150.6398  140.4683  154.7602 N   0  0  0  0  0  0  0  0  0  0  0  0
  145.5023  133.5044  151.6655 H   0  0  0  0  0  0  0  0  0  0  0  0
  146.5310  134.6515  152.5188 H   0  0  0  0  0  0  0  0  0  0  0  0
  146.9134  134.1857  150.8616 H   0  0  0  0  0  0  0  0  0  0  0  0
  144.7865  135.2751  150.0739 H   0  0  0  0  0  0  0  0  0  0  0  0
  144.4111  135.7410  151.7154 H   0  0  0  0  0  0  0  0  0  0  0  0
  146.9084  136.6545  150.2143 H   0  0  0  0  0  0  0  0  0  0  0  0
  145.4334  137.5865  150.2969 H   0  0  0  0  0  0  0  0  0  0  0  0
  145.6780  137.3849  152.9002 H   0  0  0  0  0  0  0  0  0  0  0  0
  147.3170  136.8908  152.5884 H   0  0  0  0  0  0  0  0  0  0  0  0
  147.6759  139.0789  151.3271 H   0  0  0  0  0  0  0  0  0  0  0  0
  146.0405  139.5372  151.7231 H   0  0  0  0  0  0  0  0  0  0  0  0
  149.1709  139.8278  152.6409 H   0  0  0  0  0  0  0  0  0  0  0  0
  147.4153  141.3257  155.3224 H   0  0  0  0  0  0  0  0  0  0  0  0
  148.4306  142.4027  157.3007 H   0  0  0  0  0  0  0  0  0  0  0  0
  152.4773  143.6952  157.1193 H   0  0  0  0  0  0  0  0  0  0  0  0
  150.8636  144.3721  157.1835 H   0  0  0  0  0  0  0  0  0  0  0  0
  152.3554  145.3800  158.9243 H   0  0  0  0  0  0  0  0  0  0  0  0
  150.9730  144.5828  159.6492 H   0  0  0  0  0  0  0  0  0  0  0  0
  152.9041  141.7282  160.7079 H   0  0  0  0  0  0  0  0  0  0  0  0
  151.2961  142.4263  160.6975 H   0  0  0  0  0  0  0  0  0  0  0  0
  151.4157  140.6244  159.0060 H   0  0  0  0  0  0  0  0  0  0  0  0
  152.8410  141.3485  158.2682 H   0  0  0  0  0  0  0  0  0  0  0  0
  152.2659  140.9415  155.9111 H   0  0  0  0  0  0  0  0  0  0  0  0
  1  2  1  0  0  0  0
  1 21  1  0  0  0  0
  1 22  1  0  0  0  0
  1 23  1  0  0  0  0
  2  3  1  0  0  0  0
  2 24  1  0  0  0  0
  2 25  1  0  0  0  0
  3  4  1  0  0  0  0
  3 26  1  0  0  0  0
  3 27  1  0  0  0  0
  4  5  1  0  0  0  0
  4 28  1  0  0  0  0
  4 29  1  0  0  0  0
  5  6  1  0  0  0  0
  5 30  1  0  0  0  0
  5 31  1  0  0  0  0
  6  7  2  0  0  0  0
  6  8  1  0  0  0  0
  8  9  1  0  0  0  0
  8 32  1  0  0  0  0
  9 20  1  0  0  0  0
  9 10  2  0  0  0  0
 10 11  1  0  0  0  0
 10 33  1  0  0  0  0
 11 12  2  0  0  0  0
 11 34  1  0  0  0  0
 12 13  1  0  0  0  0
 12 19  1  0  0  0  0
 13 18  1  0  0  0  0
 13 14  1  0  0  0  0
 14 15  1  0  0  0  0
 14 35  1  0  0  0  0
 14 36  1  0  0  0  0
 15 16  1  0  0  0  0
 15 37  1  0  0  0  0
 15 38  1  0  0  0  0
 16 17  1  0  0  0  0
 17 18  1  0  0  0  0
 17 39  1  0  0  0  0
 17 40  1  0  0  0  0
 18 41  1  0  0  0  0
 18 42  1  0  0  0  0
 19 20  2  0  0  0  0
 19 43  1  0  0  0  0
M  END
> <s_m_source_file>
AV-unprocessed.smi

> <i_m_source_file_index>
436

> <i_lp_mmshare_version>
43012

> <i_f3d_flags>
0

> <s_epik_input>
W0NIM11bQ0gyXVtDSDJdW0NIMl1bQ0gyXUMoPU8pW05IXWMxW2NIXVtjSF1jKFtjSF1uMSlOMltDSDJdW0NIMl1PW0NIMl1bQ0gyXTI=

> <s_epik_cmdline>
J2VwaWtfcHl0aG9uJywgJy1waCcsICc3LjAnLCAnLXRuJywgJzgnLCAnLW1hJywgJzIwMCcsICctbWV0YWxfYmluZGluZycsICctaW1hZScsICc8aW5maWxlLm1hZT4nLCAnLW9tYWUnLCAnPG91dGZpbGUubWFlPic=

> <r_lp_tautomer_probability>
1

> <r_epik_Ionization_Penalty>
0.00316644

> <r_epik_Ionization_Penalty_Charging>
0

> <r_epik_Ionization_Penalty_Neutral>
0.00316644

> <r_epik_State_Penalty>
0.00292554

> <r_epik_Charging_Adjusted_Penalty>
0.00292554

> <i_epik_Tot_Q>
0

> <i_epik_Tot_abs_Q>
0

> <r_epik_Metal_State_Penalty>
-0

> <b_epik_Metal_Only>
0

> <s_lp_Force_Field>
OPLS_2005

> <r_lp_Energy>
23.5001

> <b_lp_Chiralities_Consistent>
1

> <s_lp_Variant>
AV-unprocessed.smi:436-1

> <Gold.Version>
5.8.1

> <Gold.Id.Protein>
6NUR|6NUR_protein|mol2

> <Gold.PLP.Fitness>
44.8527

> <Gold.PLP.PLP>
-39.8064

> <Gold.PLP.part.hbond>
-2.0000

> <Gold.PLP.part.metal>
0.0000

> <Gold.PLP.part.buried>
2.3561

> <Gold.PLP.part.nonpolar>
-40.0255

> <Gold.PLP.part.repulsive>
0.3818

> <Gold.PLP.ligand.clash>
0.0000

> <Gold.PLP.ligand.torsion>
0.6776

> <Gold.PLP.Chemscore.Hbond>
2.0000

> <Gold.PLP.Chemscore.CHOScore>
0.0000

> <Gold.PLP.Chemscore.Metal>
0.0000

> <Gold.Chemscore.Hbonds>
donor molecule, donor type, donor heavy atom, donor atom, acceptor molecule, acceptor atom, score
      L1  H     8    32       P1  7957  1.00
      P1  H  7989  7998       L1    20  1.00

> <Gold.PLP.Chemscore.Internal.Correction>
0.4015

> <Gold.Rescore>
     Score         DG    S(hbond)    S(metal)    S(lipo)     H(rot)  DE(clash)    DE(int)     intcor
     13.88     -18.51       1.44        0.00     104.28       1.55       2.51       2.13       ----

> <Gold.Chemscore.Fitness>
13.8777

> <Gold.Chemscore.DG>
-18.5145

> <Gold.Chemscore.ZeroCoef>
-5.4800

> <Gold.Chemscore.Hbond>
1.4383

> <Gold.Chemscore.Metal>
0.0000

> <Gold.Chemscore.Lipo>
104.2815

> <Gold.Chemscore.Internal_Hbond>
0.0000

> <Gold.Chemscore.DEClash>
2.5066

> <Gold.Chemscore.DEInternal>
2.1302

> <Gold.Chemscore.Rot>
1.5509

> <Gold.Chemscore.Internal.Correction>
   9.000000E+99

> <Gold.Chemscore.Hbonds>
donor molecule, donor type, donor heavy atom, donor atom, acceptor molecule, acceptor atom, score
      L1  H     8    32       P1  7957  0.95
      P1  H  7989  7998       L1    20  0.46

> <Gold.Chemscore.Hbond.Weighted>
-4.8040

> <Gold.Chemscore.Metal.Weighted>
-0.0000

> <Gold.Chemscore.Lipo.Weighted>
-12.2009

> <Gold.Chemscore.Internal_Hbond.Weighted>
0.0000

> <Gold.Chemscore.DEClash.Weighted>
2.5066

> <Gold.Chemscore.DEInternal.Weighted>
2.1302

> <Gold.Chemscore.Rot.Weighted>
3.9704

> <Gold.Chemscore.Internal.Correction.Weighted>
   9.000000E+99

> <Gold.Protein.RotatedTorsions>
[ 6907 6896 6895 6894 ] final  124.65 input  -60.11 | X-H torsion
[ 7974 7965 7964 7962 ] final  -37.31 input  175.53 | X-H torsion
[ 8008 7997 7996 7995 ] final    9.63 input   59.86 | X-H torsion
[ 10167 10162 10161 10158 ] final  -50.94 input  -65.29 | X-H torsion
[ 10718 10713 10712 10709 ] final   55.04 input   66.30 | X-H torsion
[ 10763 10752 10751 10750 ] final  -18.06 input  -60.55 | X-H torsion
[ 11005 11000 10999 10996 ] final -172.08 input  -57.11 | X-H torsion

> <Gold.Protein.ActiveResidues>
 VAL166  LYS551  ARG553  GLY616  TRP617  ASP618  TYR619  PRO620  LYS621  CYS622 
 ASP623  PHE694  ASN695  SER759  ASP760  ASP761  ALA762  ILE779  LEU786  VAL792 
 PHE793  MET794  SER795  GLU796  ALA797  LYS798  CYS799  TRP800  GLU811  SER814 

> <Gold.Protein.RotatedAtoms>
  152.4060  133.6889  159.6356 H   0  0  0  0  0  0  0  0  0  0  0  0  # atno 6907 bound_to 6896
  150.7945  133.8709  159.3267 H   0  0  0  0  0  0  0  0  0  0  0  0  # atno 6908 bound_to 6896
  151.6463  135.1008  160.0203 H   0  0  0  0  0  0  0  0  0  0  0  0  # atno 6909 bound_to 6896
  146.0586  140.6381  142.9008 H   0  0  0  0  0  0  0  0  0  0  0  0  # atno 7974 bound_to 7965
  154.7826  140.2821  155.6052 H   0  0  0  0  0  0  0  0  0  0  0  0  # atno 8008 bound_to 7997
  156.2952  140.2620  156.2583 H   0  0  0  0  0  0  0  0  0  0  0  0  # atno 8009 bound_to 7997
  154.9766  140.0375  157.2248 H   0  0  0  0  0  0  0  0  0  0  0  0  # atno 8010 bound_to 7997
  140.6613  143.2638  151.4432 H   0  0  0  0  0  0  0  0  0  0  0  0  # atno 10167 bound_to 10162
  157.5310  130.8630  149.8687 H   0  0  0  0  0  0  0  0  0  0  0  0  # atno 10718 bound_to 10713
  153.5835  135.7004  153.5453 H   0  0  0  0  0  0  0  0  0  0  0  0  # atno 10763 bound_to 10752
  153.3240  135.4066  155.1440 H   0  0  0  0  0  0  0  0  0  0  0  0  # atno 10764 bound_to 10752
  154.8613  135.3702  154.5364 H   0  0  0  0  0  0  0  0  0  0  0  0  # atno 10765 bound_to 10752
  140.5010  134.5893  157.4987 H   0  0  0  0  0  0  0  0  0  0  0  0  # atno 11005 bound_to 11000
  144.7162  140.4216  143.7043 LP  0  0  0  0  0  0  0  0  0  0  0  0  # atno 17320 bound_to 7965
  145.6600  139.1580  143.2813 LP  0  0  0  0  0  0  0  0  0  0  0  0  # atno 17321 bound_to 7965
  139.5847  144.1630  152.2014 LP  0  0  0  0  0  0  0  0  0  0  0  0  # atno 17342 bound_to 10162
  140.0966  144.5575  150.7017 LP  0  0  0  0  0  0  0  0  0  0  0  0  # atno 17343 bound_to 10162
  156.0422  130.3736  150.1406 LP  0  0  0  0  0  0  0  0  0  0  0  0  # atno 17370 bound_to 10713
  156.9591  130.9799  151.3483 LP  0  0  0  0  0  0  0  0  0  0  0  0  # atno 17371 bound_to 10713
  139.9713  134.7288  156.0035 LP  0  0  0  0  0  0  0  0  0  0  0  0  # atno 17394 bound_to 11000
  141.1435  133.6560  156.3800 LP  0  0  0  0  0  0  0  0  0  0  0  0  # atno 17395 bound_to 11000

$$$$
