AV-unprocessed.smi:2901|AV-procd|sdf|11150|dock6
  -GOLD-   2272016 33D 1   1.00000     0.00000
 Structure written by MMmdl.
 40 41  0  0  0  0  0  0  0  0  1 V2000
  151.9326  141.4977  158.3922 C   0  0  0  0  0  0  0  0  0  0  0  0
  151.5871  140.7359  157.1595 C   0  0  0  0  0  0  0  0  0  0  0  0
  150.4453  140.7780  156.4755 N   0  0  0  0  0  0  0  0  0  0  0  0
  150.6301  139.8912  155.4239 C   0  0  0  0  0  0  0  0  0  0  0  0
  149.5733  139.6440  154.3915 C   0  0  0  0  0  0  0  0  0  0  0  0
  148.4292  138.7748  154.9376 C   0  0  0  0  0  0  0  0  0  0  0  0
  147.9257  137.8486  153.9299 N   0  0  0  0  0  0  0  0  0  0  0  0
  146.6366  137.7189  153.5865 C   0  0  0  0  0  0  0  0  0  0  0  0
  145.7225  138.3788  154.0815 O   0  0  0  0  0  0  0  0  0  0  0  0
  146.4647  136.7855  152.6404 N   0  0  0  0  0  0  0  0  0  0  0  0
  145.1831  136.4246  152.0452 C   0  0  0  0  0  0  0  0  0  0  0  0
  145.3395  135.2983  151.0104 C   0  0  1  0  0  0  0  0  0  0  0  0
  146.1251  134.0964  151.5296 C   0  0  0  0  0  0  0  0  0  0  0  0
  145.6601  133.0041  150.5941 C   0  0  0  0  0  0  0  0  0  0  0  0
  144.1863  133.3545  150.4020 C   0  0  0  0  0  0  0  0  0  0  0  0
  144.0747  134.7559  150.6405 O   0  0  0  0  0  0  0  0  0  0  0  0
  151.8919  139.3631  155.5267 C   0  0  0  0  0  0  0  0  0  0  0  0
  152.6574  138.3860  154.7003 C   0  0  0  0  0  0  0  0  0  0  0  0
  152.5103  139.8895  156.6286 O   0  0  0  0  0  0  0  0  0  0  0  0
  151.0560  142.0225  158.7731 H   0  0  0  0  0  0  0  0  0  0  0  0
  152.7116  142.2279  158.1725 H   0  0  0  0  0  0  0  0  0  0  0  0
  152.2952  140.8168  159.1622 H   0  0  0  0  0  0  0  0  0  0  0  0
  149.1779  140.5962  154.0359 H   0  0  0  0  0  0  0  0  0  0  0  0
  150.0135  139.1598  153.5187 H   0  0  0  0  0  0  0  0  0  0  0  0
  148.7786  138.1925  155.7908 H   0  0  0  0  0  0  0  0  0  0  0  0
  147.6152  139.4033  155.3035 H   0  0  0  0  0  0  0  0  0  0  0  0
  148.6058  137.2642  153.4660 H   0  0  0  0  0  0  0  0  0  0  0  0
  147.2792  136.2967  152.2991 H   0  0  0  0  0  0  0  0  0  0  0  0
  144.5297  136.0904  152.8513 H   0  0  0  0  0  0  0  0  0  0  0  0
  144.6999  137.2954  151.5986 H   0  0  0  0  0  0  0  0  0  0  0  0
  145.8230  135.6773  150.1083 H   0  0  0  0  0  0  0  0  0  0  0  0
  147.2043  134.2498  151.5057 H   0  0  0  0  0  0  0  0  0  0  0  0
  145.8340  133.8586  152.5538 H   0  0  0  0  0  0  0  0  0  0  0  0
  146.1909  133.0774  149.6439 H   0  0  0  0  0  0  0  0  0  0  0  0
  145.8122  132.0013  150.9942 H   0  0  0  0  0  0  0  0  0  0  0  0
  143.8296  133.0929  149.4055 H   0  0  0  0  0  0  0  0  0  0  0  0
  143.5678  132.8298  151.1309 H   0  0  0  0  0  0  0  0  0  0  0  0
  152.2690  138.3476  153.6824 H   0  0  0  0  0  0  0  0  0  0  0  0
  152.5898  137.3850  155.1264 H   0  0  0  0  0  0  0  0  0  0  0  0
  153.7105  138.6626  154.6475 H   0  0  0  0  0  0  0  0  0  0  0  0
  1  2  1  0  0  0  0
  1 20  1  0  0  0  0
  1 21  1  0  0  0  0
  1 22  1  0  0  0  0
  2 19  1  0  0  0  0
  2  3  2  0  0  0  0
  3  4  1  0  0  0  0
  4  5  1  0  0  0  0
  4 17  2  0  0  0  0
  5  6  1  0  0  0  0
  5 23  1  0  0  0  0
  5 24  1  0  0  0  0
  6  7  1  0  0  0  0
  6 25  1  0  0  0  0
  6 26  1  0  0  0  0
  7  8  1  0  0  0  0
  7 27  1  0  0  0  0
  8  9  2  0  0  0  0
  8 10  1  0  0  0  0
 10 11  1  0  0  0  0
 10 28  1  0  0  0  0
 11 12  1  0  0  0  0
 11 29  1  0  0  0  0
 11 30  1  0  0  0  0
 12 16  1  0  0  0  0
 12 13  1  0  0  0  0
 12 31  1  0  0  0  0
 13 14  1  0  0  0  0
 13 32  1  0  0  0  0
 13 33  1  0  0  0  0
 14 15  1  0  0  0  0
 14 34  1  0  0  0  0
 14 35  1  0  0  0  0
 15 16  1  0  0  0  0
 15 36  1  0  0  0  0
 15 37  1  0  0  0  0
 17 18  1  0  0  0  0
 17 19  1  0  0  0  0
 18 38  1  0  0  0  0
 18 39  1  0  0  0  0
 18 40  1  0  0  0  0
M  END
> <s_m_source_file>
AV-unprocessed.smi

> <i_m_source_file_index>
2901

> <i_lp_mmshare_version>
43012

> <i_f3d_flags>
0

> <s_epik_input>
W0NIM11jMW5jKGMobzEpW0NIM10pW0NIMl1bQ0gyXVtOSF1DKD1PKVtOSF1bQ0gyXVtDQEBIXTJbQ0gyXVtDSDJdW0NIMl1PMg==

> <s_epik_cmdline>
J2VwaWtfcHl0aG9uJywgJy1waCcsICc3LjAnLCAnLXRuJywgJzgnLCAnLW1hJywgJzIwMCcsICctbWV0YWxfYmluZGluZycsICctaW1hZScsICc8aW5maWxlLm1hZT4nLCAnLW9tYWUnLCAnPG91dGZpbGUubWFlPic=

> <r_lp_tautomer_probability>
1

> <r_epik_Ionization_Penalty>
9.58254e-05

> <r_epik_Ionization_Penalty_Charging>
0

> <r_epik_Ionization_Penalty_Neutral>
9.58254e-05

> <r_epik_State_Penalty>
-0

> <r_epik_Charging_Adjusted_Penalty>
0

> <i_epik_Tot_Q>
0

> <i_epik_Tot_abs_Q>
0

> <r_epik_Metal_State_Penalty>
-0

> <b_epik_Metal_Only>
0

> <s_lp_Force_Field>
OPLS_2005

> <r_lp_Energy>
8.56878

> <b_lp_Chiralities_Consistent>
1

> <s_lp_Variant>
AV-unprocessed.smi:2901-2

> <Gold.Version>
5.8.1

> <Gold.Id.Protein>
6NUR|6NUR_protein|mol2

> <Gold.PLP.Fitness>
41.0012

> <Gold.PLP.PLP>
-33.2639

> <Gold.PLP.part.hbond>
-3.0000

> <Gold.PLP.part.metal>
0.0000

> <Gold.PLP.part.buried>
-5.4914

> <Gold.PLP.part.nonpolar>
-26.1971

> <Gold.PLP.part.repulsive>
0.4324

> <Gold.PLP.ligand.clash>
0.0000

> <Gold.PLP.ligand.torsion>
0.5179

> <Gold.PLP.Chemscore.Hbond>
2.9120

> <Gold.PLP.Chemscore.CHOScore>
0.0000

> <Gold.PLP.Chemscore.Metal>
0.0000

> <Gold.Chemscore.Hbonds>
donor molecule, donor type, donor heavy atom, donor atom, acceptor molecule, acceptor atom, score
      L1  H     7    27       P1  7948  0.90
      L1  H    10    28       P1  7948  1.00
      P1  H  7997  8009       L1    19  1.00

> <Gold.PLP.Chemscore.Internal.Correction>
0.0370

> <Gold.Rescore>
     Score         DG    S(hbond)    S(metal)    S(lipo)     H(rot)  DE(clash)    DE(int)     intcor
     18.53     -19.05       2.91        0.00      74.94       1.92       0.04       0.48       ----

> <Gold.Chemscore.Fitness>
18.5300

> <Gold.Chemscore.DG>
-19.0535

> <Gold.Chemscore.ZeroCoef>
-5.4800

> <Gold.Chemscore.Hbond>
2.9077

> <Gold.Chemscore.Metal>
0.0000

> <Gold.Chemscore.Lipo>
74.9444

> <Gold.Chemscore.Internal_Hbond>
0.0000

> <Gold.Chemscore.DEClash>
0.0449

> <Gold.Chemscore.DEInternal>
0.4786

> <Gold.Chemscore.Rot>
1.9167

> <Gold.Chemscore.Internal.Correction>
   9.000000E+99

> <Gold.Chemscore.Hbonds>
donor molecule, donor type, donor heavy atom, donor atom, acceptor molecule, acceptor atom, score
      L1  H     7    27       P1  7948  0.88
      L1  H    10    28       P1  7948  0.97
      P1  H  7997  8009       L1    19  0.96

> <Gold.Chemscore.Hbond.Weighted>
-9.7118

> <Gold.Chemscore.Metal.Weighted>
-0.0000

> <Gold.Chemscore.Lipo.Weighted>
-8.7685

> <Gold.Chemscore.Internal_Hbond.Weighted>
0.0000

> <Gold.Chemscore.DEClash.Weighted>
0.0449

> <Gold.Chemscore.DEInternal.Weighted>
0.4786

> <Gold.Chemscore.Rot.Weighted>
4.9069

> <Gold.Chemscore.Internal.Correction.Weighted>
   9.000000E+99

> <Gold.Protein.RotatedTorsions>
[ 6907 6896 6895 6894 ] final   66.21 input  -60.11 | X-H torsion
[ 7974 7965 7964 7962 ] final -143.11 input  175.53 | X-H torsion
[ 8008 7997 7996 7995 ] final -178.15 input   59.86 | X-H torsion
[ 10167 10162 10161 10158 ] final  -94.32 input  -65.29 | X-H torsion
[ 10718 10713 10712 10709 ] final  147.54 input   66.30 | X-H torsion
[ 10763 10752 10751 10750 ] final  171.59 input  -60.55 | X-H torsion
[ 11005 11000 10999 10996 ] final -130.75 input  -57.11 | X-H torsion

> <Gold.Protein.ActiveResidues>
 VAL166  LYS551  ARG553  GLY616  TRP617  ASP618  TYR619  PRO620  LYS621  CYS622 
 ASP623  PHE694  ASN695  SER759  ASP760  ASP761  ALA762  ILE779  LEU786  VAL792 
 PHE793  MET794  SER795  GLU796  ALA797  LYS798  CYS799  TRP800  GLU811  SER814 

> <Gold.Protein.RotatedAtoms>
  152.4464  134.5485  159.9859 H   0  0  0  0  0  0  0  0  0  0  0  0  # atno 6907 bound_to 6896
  151.5569  133.3403  159.2971 H   0  0  0  0  0  0  0  0  0  0  0  0  # atno 6908 bound_to 6896
  150.8381  134.7695  159.6973 H   0  0  0  0  0  0  0  0  0  0  0  0  # atno 6909 bound_to 6896
  144.8393  140.5875  143.5463 H   0  0  0  0  0  0  0  0  0  0  0  0  # atno 7974 bound_to 7965
  156.0154  140.1249  157.0411 H   0  0  0  0  0  0  0  0  0  0  0  0  # atno 8008 bound_to 7997
  154.4291  140.1079  156.5958 H   0  0  0  0  0  0  0  0  0  0  0  0  # atno 8009 bound_to 7997
  155.6020  140.3470  155.4599 H   0  0  0  0  0  0  0  0  0  0  0  0  # atno 8010 bound_to 7997
  140.3156  143.3079  152.0101 H   0  0  0  0  0  0  0  0  0  0  0  0  # atno 10167 bound_to 10162
  157.3196  131.0902  151.1251 H   0  0  0  0  0  0  0  0  0  0  0  0  # atno 10718 bound_to 10713
  154.4141  135.2756  155.2018 H   0  0  0  0  0  0  0  0  0  0  0  0  # atno 10763 bound_to 10752
  154.3992  135.6048  153.5891 H   0  0  0  0  0  0  0  0  0  0  0  0  # atno 10764 bound_to 10752
  152.9831  135.5922  154.4426 H   0  0  0  0  0  0  0  0  0  0  0  0  # atno 10765 bound_to 10752
  140.9319  134.1308  157.4227 H   0  0  0  0  0  0  0  0  0  0  0  0  # atno 11005 bound_to 11000
  145.4727  139.1502  143.3805 LP  0  0  0  0  0  0  0  0  0  0  0  0  # atno 17320 bound_to 7965
  146.2688  140.4861  142.8823 LP  0  0  0  0  0  0  0  0  0  0  0  0  # atno 17321 bound_to 7965
  139.4884  144.6350  151.6993 LP  0  0  0  0  0  0  0  0  0  0  0  0  # atno 17342 bound_to 10162
  140.5529  144.0396  150.6135 LP  0  0  0  0  0  0  0  0  0  0  0  0  # atno 17343 bound_to 10162
  157.2541  130.6628  149.5944 LP  0  0  0  0  0  0  0  0  0  0  0  0  # atno 17370 bound_to 10713
  155.9684  130.4529  150.5792 LP  0  0  0  0  0  0  0  0  0  0  0  0  # atno 17371 bound_to 10713
  139.8798  135.0008  156.6030 LP  0  0  0  0  0  0  0  0  0  0  0  0  # atno 17394 bound_to 11000
  140.7851  133.8628  155.8599 LP  0  0  0  0  0  0  0  0  0  0  0  0  # atno 17395 bound_to 11000

$$$$
