AV-unprocessed.smi:1694|AV-procd|sdf|6788|dock2
  -GOLD-   22720 7553D 1   1.00000     0.00000
 Structure written by MMmdl.
 34 35  0  0  0  0  0  0  0  0  1 V2000
  147.6029  140.8307  154.2320 C   0  0  0  0  0  0  0  0  0  0  0  0
  148.9377  140.1962  154.5901 C   0  0  0  0  0  0  0  0  0  0  0  0
  149.9729  141.0123  155.0936 C   0  0  0  0  0  0  0  0  0  0  0  0
  151.2072  140.4292  155.4251 C   0  0  0  0  0  0  0  0  0  0  0  0
  151.3546  139.0450  155.2376 C   0  0  0  0  0  0  0  0  0  0  0  0
  150.3701  138.2582  154.7573 N   0  0  0  0  0  0  0  0  0  0  0  0
  149.1696  138.8028  154.4310 C   0  0  0  0  0  0  0  0  0  0  0  0
  148.0706  138.0455  153.9177 N   0  0  0  0  0  0  0  0  0  0  0  0
  146.8549  137.7563  154.4304 C   0  0  0  0  0  0  0  0  0  0  0  0
  146.5221  138.1685  155.5404 O   0  0  0  0  0  0  0  0  0  0  0  0
  146.0480  137.0033  153.6656 N   0  0  0  0  0  0  0  0  0  0  0  0
  144.7004  136.5710  154.0185 C   0  0  1  0  0  0  0  0  0  0  0  0
  143.7331  136.9206  152.8809 C   0  0  0  0  0  0  0  0  0  0  0  0
  142.2973  136.4960  153.2266 C   0  0  0  0  0  0  0  0  0  0  0  0
  142.2036  135.0744  153.8005 C   0  0  0  0  0  0  0  0  0  0  0  0
  141.1198  134.4955  153.8056 O   0  0  0  0  0  0  0  0  0  0  0  0
  143.3063  134.5055  154.3189 N   0  0  0  0  0  0  0  0  0  0  0  0
  144.6619  135.0535  154.2899 C   0  0  0  0  0  0  0  0  0  0  0  0
  147.6166  141.9076  154.4016 H   0  0  0  0  0  0  0  0  0  0  0  0
  146.8033  140.4060  154.8396 H   0  0  0  0  0  0  0  0  0  0  0  0
  147.3676  140.6608  153.1809 H   0  0  0  0  0  0  0  0  0  0  0  0
  149.8260  142.0744  155.2254 H   0  0  0  0  0  0  0  0  0  0  0  0
  152.0185  141.0272  155.8130 H   0  0  0  0  0  0  0  0  0  0  0  0
  152.2862  138.5550  155.4790 H   0  0  0  0  0  0  0  0  0  0  0  0
  148.2307  137.6613  152.9980 H   0  0  0  0  0  0  0  0  0  0  0  0
  146.4007  136.7067  152.7662 H   0  0  0  0  0  0  0  0  0  0  0  0
  144.3789  137.1043  154.9154 H   0  0  0  0  0  0  0  0  0  0  0  0
  143.7578  137.9930  152.6825 H   0  0  0  0  0  0  0  0  0  0  0  0
  144.0482  136.4292  151.9590 H   0  0  0  0  0  0  0  0  0  0  0  0
  141.8848  137.1791  153.9699 H   0  0  0  0  0  0  0  0  0  0  0  0
  141.6619  136.5752  152.3439 H   0  0  0  0  0  0  0  0  0  0  0  0
  143.2052  133.5841  154.7201 H   0  0  0  0  0  0  0  0  0  0  0  0
  145.2103  134.5208  153.5117 H   0  0  0  0  0  0  0  0  0  0  0  0
  145.1564  134.8232  155.2340 H   0  0  0  0  0  0  0  0  0  0  0  0
  1  2  1  0  0  0  0
  1 19  1  0  0  0  0
  1 20  1  0  0  0  0
  1 21  1  0  0  0  0
  2  7  1  0  0  0  0
  2  3  2  0  0  0  0
  3  4  1  0  0  0  0
  3 22  1  0  0  0  0
  4  5  2  0  0  0  0
  4 23  1  0  0  0  0
  5  6  1  0  0  0  0
  5 24  1  0  0  0  0
  6  7  2  0  0  0  0
  7  8  1  0  0  0  0
  8  9  1  0  0  0  0
  8 25  1  0  0  0  0
  9 10  2  0  0  0  0
  9 11  1  0  0  0  0
 11 12  1  0  0  0  0
 11 26  1  0  0  0  0
 12 18  1  0  0  0  0
 12 13  1  0  0  0  0
 12 27  1  0  0  0  0
 13 14  1  0  0  0  0
 13 28  1  0  0  0  0
 13 29  1  0  0  0  0
 14 15  1  0  0  0  0
 14 30  1  0  0  0  0
 14 31  1  0  0  0  0
 15 16  2  0  0  0  0
 15 17  1  0  0  0  0
 17 18  1  0  0  0  0
 17 32  1  0  0  0  0
 18 33  1  0  0  0  0
 18 34  1  0  0  0  0
M  END
> <s_m_source_file>
AV-unprocessed.smi

> <i_m_source_file_index>
1694

> <i_lp_mmshare_version>
43012

> <i_f3d_flags>
0

> <s_epik_input>
W0NIM11jMVtjSF1bY0hdW2NIXW5jMVtOSF1DKD1PKVtOSF1bQ0BASF0yW0NIMl1bQ0gyXUMoPU8pW05IXVtDSDJdMg==

> <s_epik_cmdline>
J2VwaWtfcHl0aG9uJywgJy1waCcsICc3LjAnLCAnLXRuJywgJzgnLCAnLW1hJywgJzIwMCcsICctbWV0YWxfYmluZGluZycsICctaW1hZScsICc8aW5maWxlLm1hZT4nLCAnLW9tYWUnLCAnPG91dGZpbGUubWFlPic=

> <r_lp_tautomer_probability>
1

> <r_epik_Ionization_Penalty>
5.3746e-05

> <r_epik_Ionization_Penalty_Charging>
0

> <r_epik_Ionization_Penalty_Neutral>
5.3746e-05

> <r_epik_State_Penalty>
-0

> <r_epik_Charging_Adjusted_Penalty>
0

> <i_epik_Tot_Q>
0

> <i_epik_Tot_abs_Q>
0

> <r_epik_Metal_State_Penalty>
-0

> <b_epik_Metal_Only>
0

> <s_lp_Force_Field>
OPLS_2005

> <r_lp_Energy>
12.9855

> <b_lp_Chiralities_Consistent>
1

> <s_lp_Variant>
AV-unprocessed.smi:1694-2

> <Gold.Version>
5.8.1

> <Gold.Id.Protein>
6NUR|6NUR_protein|mol2

> <Gold.PLP.Fitness>
33.4281

> <Gold.PLP.PLP>
-25.8746

> <Gold.PLP.part.hbond>
-3.6959

> <Gold.PLP.part.metal>
0.0000

> <Gold.PLP.part.buried>
-2.8775

> <Gold.PLP.part.nonpolar>
-19.8777

> <Gold.PLP.part.repulsive>
0.3843

> <Gold.PLP.ligand.clash>
0.0000

> <Gold.PLP.ligand.torsion>
0.7108

> <Gold.PLP.Chemscore.Hbond>
2.9913

> <Gold.PLP.Chemscore.CHOScore>
0.0000

> <Gold.PLP.Chemscore.Metal>
0.0000

> <Gold.Chemscore.Hbonds>
donor molecule, donor type, donor heavy atom, donor atom, acceptor molecule, acceptor atom, score
      L1  H     8    25       P1  7948  1.00
      L1  H    17    32       P1 10957  1.00
      P1  H 11000 11005       L1    16  0.98

> <Gold.PLP.Chemscore.Internal.Correction>
0.0013

> <Gold.Rescore>
     Score         DG    S(hbond)    S(metal)    S(lipo)     H(rot)  DE(clash)    DE(int)     intcor
     16.97     -17.71       2.93        0.00      42.91       1.00       0.02       0.72       ----

> <Gold.Chemscore.Fitness>
16.9746

> <Gold.Chemscore.DG>
-17.7133

> <Gold.Chemscore.ZeroCoef>
-5.4800

> <Gold.Chemscore.Hbond>
2.9261

> <Gold.Chemscore.Metal>
0.0000

> <Gold.Chemscore.Lipo>
42.9059

> <Gold.Chemscore.Internal_Hbond>
0.0000

> <Gold.Chemscore.DEClash>
0.0234

> <Gold.Chemscore.DEInternal>
0.7153

> <Gold.Chemscore.Rot>
1.0000

> <Gold.Chemscore.Internal.Correction>
   9.000000E+99

> <Gold.Chemscore.Hbonds>
donor molecule, donor type, donor heavy atom, donor atom, acceptor molecule, acceptor atom, score
      L1  H     8    25       P1  7948  0.93
      L1  H    17    32       P1 10957  0.99
      P1  H 11000 11005       L1    16  0.75

> <Gold.Chemscore.Hbond.Weighted>
-9.7733

> <Gold.Chemscore.Metal.Weighted>
-0.0000

> <Gold.Chemscore.Lipo.Weighted>
-5.0200

> <Gold.Chemscore.Internal_Hbond.Weighted>
0.0000

> <Gold.Chemscore.DEClash.Weighted>
0.0234

> <Gold.Chemscore.DEInternal.Weighted>
0.7153

> <Gold.Chemscore.Rot.Weighted>
2.5600

> <Gold.Chemscore.Internal.Correction.Weighted>
   9.000000E+99

> <Gold.Protein.RotatedTorsions>
[ 6907 6896 6895 6894 ] final  -28.11 input  -60.11 | X-H torsion
[ 7974 7965 7964 7962 ] final  -67.06 input  175.53 | X-H torsion
[ 8008 7997 7996 7995 ] final   67.97 input   59.86 | X-H torsion
[ 10167 10162 10161 10158 ] final  -49.84 input  -65.29 | X-H torsion
[ 10718 10713 10712 10709 ] final -115.47 input   66.30 | X-H torsion
[ 10763 10752 10751 10750 ] final  -34.32 input  -60.55 | X-H torsion
[ 11005 11000 10999 10996 ] final   19.35 input  -57.11 | X-H torsion

> <Gold.Protein.ActiveResidues>
 VAL166  LYS551  ARG553  GLY616  TRP617  ASP618  TYR619  PRO620  LYS621  CYS622 
 ASP623  PHE694  ASN695  SER759  ASP760  ASP761  ALA762  ILE779  LEU786  VAL792 
 PHE793  MET794  SER795  GLU796  ALA797  LYS798  CYS799  TRP800  GLU811  SER814 

> <Gold.Protein.RotatedAtoms>
  151.1375  135.0162  159.8610 H   0  0  0  0  0  0  0  0  0  0  0  0  # atno 6907 bound_to 6896
  152.5452  134.1538  159.8540 H   0  0  0  0  0  0  0  0  0  0  0  0  # atno 6908 bound_to 6896
  151.1611  133.4799  159.2627 H   0  0  0  0  0  0  0  0  0  0  0  0  # atno 6909 bound_to 6896
  145.7339  140.8984  143.0565 H   0  0  0  0  0  0  0  0  0  0  0  0  # atno 7974 bound_to 7965
  155.7011  140.3495  155.4933 H   0  0  0  0  0  0  0  0  0  0  0  0  # atno 8008 bound_to 7997
  155.9439  140.1106  157.1055 H   0  0  0  0  0  0  0  0  0  0  0  0  # atno 8009 bound_to 7997
  154.4108  140.1207  156.4950 H   0  0  0  0  0  0  0  0  0  0  0  0  # atno 8010 bound_to 7997
  140.6666  143.2681  151.4273 H   0  0  0  0  0  0  0  0  0  0  0  0  # atno 10167 bound_to 10162
  156.0898  130.6082  150.8910 H   0  0  0  0  0  0  0  0  0  0  0  0  # atno 10718 bound_to 10713
  153.8447  135.6854  153.4799 H   0  0  0  0  0  0  0  0  0  0  0  0  # atno 10763 bound_to 10752
  153.1432  135.4648  154.9526 H   0  0  0  0  0  0  0  0  0  0  0  0  # atno 10764 bound_to 10752
  154.7829  135.3275  154.7897 H   0  0  0  0  0  0  0  0  0  0  0  0  # atno 10765 bound_to 10752
  140.4147  134.1582  155.7669 H   0  0  0  0  0  0  0  0  0  0  0  0  # atno 11005 bound_to 11000
  144.6886  139.9369  143.7474 LP  0  0  0  0  0  0  0  0  0  0  0  0  # atno 17320 bound_to 7965
  146.0511  139.3512  143.0639 LP  0  0  0  0  0  0  0  0  0  0  0  0  # atno 17321 bound_to 7965
  139.5917  144.1484  152.2096 LP  0  0  0  0  0  0  0  0  0  0  0  0  # atno 17342 bound_to 10162
  140.0841  144.5676  150.7101 LP  0  0  0  0  0  0  0  0  0  0  0  0  # atno 17343 bound_to 10162
  157.6043  131.0940  150.8905 LP  0  0  0  0  0  0  0  0  0  0  0  0  # atno 17370 bound_to 10713
  156.9057  130.5262  149.5281 LP  0  0  0  0  0  0  0  0  0  0  0  0  # atno 17371 bound_to 10713
  141.1808  133.8419  157.1266 LP  0  0  0  0  0  0  0  0  0  0  0  0  # atno 17394 bound_to 11000
  140.0243  134.9931  157.0654 LP  0  0  0  0  0  0  0  0  0  0  0  0  # atno 17395 bound_to 11000

$$$$
