AV-unprocessed.smi:3208|AV-procd|sdf|12267|dock5
  -GOLD-   2272018103D 1   1.00000     0.00000
 Structure written by MMmdl.
 29 29  0  0  0  0  0  0  0  0  2 V2000
  147.3816  142.0694  154.5550 C   0  0  0  0  0  0  0  0  0  0  0  0
  148.5501  141.5717  154.1236 C   0  0  0  0  0  0  0  0  0  0  0  0
  149.0928  140.2097  154.4964 C   0  0  0  0  0  0  0  0  0  0  0  0
  150.3758  140.3397  155.0968 O   0  0  0  0  0  0  0  0  0  0  0  0
  150.9159  139.1435  155.6543 C   0  0  1  0  0  0  0  0  0  0  0  0
  151.4193  138.2767  154.4906 C   0  0  0  0  0  0  0  0  0  0  0  0
  152.0508  139.4709  156.6382 C   0  0  0  0  0  0  0  0  0  0  0  0
  153.1708  138.9901  156.4596 O   0  0  0  0  0  0  0  0  0  0  0  0
  151.7236  140.3006  157.6459 N   0  0  0  0  0  0  0  0  0  0  0  0
  152.5387  140.7773  158.7094 C   0  0  0  0  0  0  0  0  0  0  0  0
  153.7318  140.2170  159.0318 N   0  0  0  0  0  0  0  0  0  0  0  0
  154.4442  140.7241  160.0589 C   0  0  0  0  0  0  0  0  0  0  0  0
  154.0146  141.8192  160.8290 C   0  0  0  0  0  0  0  0  0  0  0  0
  152.7812  142.4111  160.5064 C   0  0  0  0  0  0  0  0  0  0  0  0
  152.0307  141.8877  159.4343 C   0  0  0  0  0  0  0  0  0  0  0  0
  150.8297  142.4646  159.1209 O   0  5  0  0  0  0  0  0  0  0  0  0
  146.7410  141.5046  155.2167 H   0  0  0  0  0  0  0  0  0  0  0  0
  147.0511  143.0514  154.2505 H   0  0  0  0  0  0  0  0  0  0  0  0
  149.1654  142.1652  153.4632 H   0  0  0  0  0  0  0  0  0  0  0  0
  148.3935  139.7110  155.1688 H   0  0  0  0  0  0  0  0  0  0  0  0
  149.1618  139.6093  153.5884 H   0  0  0  0  0  0  0  0  0  0  0  0
  150.1241  138.5959  156.1694 H   0  0  0  0  0  0  0  0  0  0  0  0
  151.8622  137.3477  154.8518 H   0  0  0  0  0  0  0  0  0  0  0  0
  152.1708  138.7984  153.8969 H   0  0  0  0  0  0  0  0  0  0  0  0
  150.5988  138.0123  153.8234 H   0  0  0  0  0  0  0  0  0  0  0  0
  150.7698  140.6322  157.6656 H   0  0  0  0  0  0  0  0  0  0  0  0
  155.3858  140.2407  160.2736 H   0  0  0  0  0  0  0  0  0  0  0  0
  154.6142  142.1949  161.6445 H   0  0  0  0  0  0  0  0  0  0  0  0
  152.4174  143.2543  161.0752 H   0  0  0  0  0  0  0  0  0  0  0  0
  1  2  2  0  0  0  0
  1 17  1  0  0  0  0
  1 18  1  0  0  0  0
  2  3  1  0  0  0  0
  2 19  1  0  0  0  0
  3  4  1  0  0  0  0
  3 20  1  0  0  0  0
  3 21  1  0  0  0  0
  4  5  1  0  0  0  0
  5  6  1  0  0  0  0
  5  7  1  0  0  0  0
  5 22  1  0  0  0  0
  6 23  1  0  0  0  0
  6 24  1  0  0  0  0
  6 25  1  0  0  0  0
  7  8  2  0  0  0  0
  7  9  1  0  0  0  0
  9 26  1  0  0  0  0
  9 10  1  0  0  0  0
 10 15  2  0  0  0  0
 10 11  1  0  0  0  0
 11 12  2  0  0  0  0
 12 27  1  0  0  0  0
 12 13  1  0  0  0  0
 13 28  1  0  0  0  0
 13 14  2  0  0  0  0
 14 15  1  0  0  0  0
 14 29  1  0  0  0  0
 15 16  1  0  0  0  0
M  CHG  1  16  -1
M  END
> <s_m_source_file>
AV-unprocessed.smi

> <i_m_source_file_index>
3208

> <i_lp_mmshare_version>
43012

> <i_f3d_flags>
0

> <s_epik_input>
W0NIMl09W0NIXVtDSDJdT1tDQEhdKFtDSDNdKUMoPU8pW05IXWMxbltjSF1bY0hdW2NIXWMxW09IXQ==

> <s_epik_cmdline>
J2VwaWtfcHl0aG9uJywgJy1waCcsICc3LjAnLCAnLXRuJywgJzgnLCAnLW1hJywgJzIwMCcsICctbWV0YWxfYmluZGluZycsICctaW1hZScsICc8aW5maWxlLm1hZT4nLCAnLW9tYWUnLCAnPG91dGZpbGUubWFlPic=

> <r_epik_Ionization_Penalty>
4.05889

> <r_epik_Ionization_Penalty_Charging>
2.07983

> <r_epik_Ionization_Penalty_Neutral>
1.97905

> <r_epik_State_Penalty>
2.65143

> <r_epik_Charging_Adjusted_Penalty>
4.73126

> <i_epik_Tot_Q>
-1

> <i_epik_Tot_abs_Q>
1

> <r_epik_Metal_State_Penalty>
0.650759

> <b_epik_Metal_Only>
0

> <s_lp_Force_Field>
OPLS_2005

> <r_lp_Energy>
4.10408

> <b_lp_Chiralities_Consistent>
1

> <s_lp_Variant>
AV-unprocessed.smi:3208-8

> <Gold.Version>
5.8.1

> <Gold.Id.Protein>
6NUR|6NUR_protein|mol2

> <Gold.PLP.Fitness>
40.2339

> <Gold.PLP.PLP>
-34.7216

> <Gold.PLP.part.hbond>
-3.5385

> <Gold.PLP.part.metal>
0.0000

> <Gold.PLP.part.buried>
-3.3842

> <Gold.PLP.part.nonpolar>
-27.7128

> <Gold.PLP.part.repulsive>
0.1602

> <Gold.PLP.ligand.clash>
0.0000

> <Gold.PLP.ligand.torsion>
0.2378

> <Gold.PLP.Chemscore.Hbond>
1.9913

> <Gold.PLP.Chemscore.CHOScore>
0.0000

> <Gold.PLP.Chemscore.Metal>
0.0000

> <Gold.Chemscore.Hbonds>
donor molecule, donor type, donor heavy atom, donor atom, acceptor molecule, acceptor atom, score
      P1  H  7989  7998       L1     4  0.83
      P1  H  7997  8008       L1     8  1.00

> <Gold.PLP.Chemscore.Internal.Correction>
0.0141

> <Gold.Rescore>
     Score         DG    S(hbond)    S(metal)    S(lipo)     H(rot)  DE(clash)    DE(int)     intcor
     13.57     -15.29       1.50        0.00      77.17       1.65       0.24       1.47       ----

> <Gold.Chemscore.Fitness>
13.5734

> <Gold.Chemscore.DG>
-15.2853

> <Gold.Chemscore.ZeroCoef>
-5.4800

> <Gold.Chemscore.Hbond>
1.4997

> <Gold.Chemscore.Metal>
0.0000

> <Gold.Chemscore.Lipo>
77.1690

> <Gold.Chemscore.Internal_Hbond>
0.0000

> <Gold.Chemscore.DEClash>
0.2434

> <Gold.Chemscore.DEInternal>
1.4685

> <Gold.Chemscore.Rot>
1.6533

> <Gold.Chemscore.Internal.Correction>
   9.000000E+99

> <Gold.Chemscore.Hbonds>
donor molecule, donor type, donor heavy atom, donor atom, acceptor molecule, acceptor atom, score
      P1  H  7989  7998       L1     4  0.22
      P1  H  7997  8008       L1     8  0.87

> <Gold.Chemscore.Hbond.Weighted>
-5.0089

> <Gold.Chemscore.Metal.Weighted>
-0.0000

> <Gold.Chemscore.Lipo.Weighted>
-9.0288

> <Gold.Chemscore.Internal_Hbond.Weighted>
0.0000

> <Gold.Chemscore.DEClash.Weighted>
0.2434

> <Gold.Chemscore.DEInternal.Weighted>
1.4685

> <Gold.Chemscore.Rot.Weighted>
4.2324

> <Gold.Chemscore.Internal.Correction.Weighted>
   9.000000E+99

> <Gold.Protein.RotatedTorsions>
[ 6907 6896 6895 6894 ] final -161.60 input  -60.11 | X-H torsion
[ 7974 7965 7964 7962 ] final -160.55 input  175.53 | X-H torsion
[ 8008 7997 7996 7995 ] final  -49.17 input   59.86 | X-H torsion
[ 10167 10162 10161 10158 ] final  -46.47 input  -65.29 | X-H torsion
[ 10718 10713 10712 10709 ] final   51.01 input   66.30 | X-H torsion
[ 10763 10752 10751 10750 ] final  151.43 input  -60.55 | X-H torsion
[ 11005 11000 10999 10996 ] final  -44.61 input  -57.11 | X-H torsion

> <Gold.Protein.ActiveResidues>
 VAL166  LYS551  ARG553  GLY616  TRP617  ASP618  TYR619  PRO620  LYS621  CYS622 
 ASP623  PHE694  ASN695  SER759  ASP760  ASP761  ALA762  ILE779  LEU786  VAL792 
 PHE793  MET794  SER795  GLU796  ALA797  LYS798  CYS799  TRP800  GLU811  SER814 

> <Gold.Protein.RotatedAtoms>
  151.3672  133.3868  159.2695 H   0  0  0  0  0  0  0  0  0  0  0  0  # atno 6907 bound_to 6896
  150.9679  134.9058  159.7781 H   0  0  0  0  0  0  0  0  0  0  0  0  # atno 6908 bound_to 6896
  152.5174  134.3633  159.9344 H   0  0  0  0  0  0  0  0  0  0  0  0  # atno 6909 bound_to 6896
  144.7423  140.3525  143.6113 H   0  0  0  0  0  0  0  0  0  0  0  0  # atno 7974 bound_to 7965
  154.4040  140.1303  156.4458 H   0  0  0  0  0  0  0  0  0  0  0  0  # atno 8008 bound_to 7997
  155.7414  140.3490  155.5086 H   0  0  0  0  0  0  0  0  0  0  0  0  # atno 8009 bound_to 7997
  155.9035  140.1023  157.1322 H   0  0  0  0  0  0  0  0  0  0  0  0  # atno 8010 bound_to 7997
  140.6816  143.2829  151.3787 H   0  0  0  0  0  0  0  0  0  0  0  0  # atno 10167 bound_to 10162
  157.4940  130.8394  149.8236 H   0  0  0  0  0  0  0  0  0  0  0  0  # atno 10718 bound_to 10713
  154.1037  135.2844  155.3246 H   0  0  0  0  0  0  0  0  0  0  0  0  # atno 10763 bound_to 10752
  154.6538  135.5359  153.7937 H   0  0  0  0  0  0  0  0  0  0  0  0  # atno 10764 bound_to 10752
  153.0370  135.6516  154.1199 H   0  0  0  0  0  0  0  0  0  0  0  0  # atno 10765 bound_to 10752
  141.0461  133.6760  156.2896 H   0  0  0  0  0  0  0  0  0  0  0  0  # atno 11005 bound_to 11000
  145.7261  139.1723  143.2457 LP  0  0  0  0  0  0  0  0  0  0  0  0  # atno 17320 bound_to 7965
  146.1241  140.7271  142.9443 LP  0  0  0  0  0  0  0  0  0  0  0  0  # atno 17321 bound_to 7965
  139.6143  144.1035  152.2329 LP  0  0  0  0  0  0  0  0  0  0  0  0  # atno 17342 bound_to 10162
  140.0459  144.5970  150.7374 LP  0  0  0  0  0  0  0  0  0  0  0  0  # atno 17343 bound_to 10162
  156.0190  130.3803  150.2021 LP  0  0  0  0  0  0  0  0  0  0  0  0  # atno 17370 bound_to 10713
  157.0210  130.9979  151.3339 LP  0  0  0  0  0  0  0  0  0  0  0  0  # atno 17371 bound_to 10713
  140.6143  134.5426  157.5538 LP  0  0  0  0  0  0  0  0  0  0  0  0  # atno 17394 bound_to 11000
  139.9313  134.7958  156.0923 LP  0  0  0  0  0  0  0  0  0  0  0  0  # atno 17395 bound_to 11000

$$$$
