AV-unprocessed.smi:34|AV-procd|sdf|235|dock7
  -GOLD-   2262015573D 1   1.00000     0.00000
 Structure written by MMmdl.
 54 58  0  0  0  0  0  0  0  0  2 V2000
  153.2102  140.1767  158.4461 O   0  0  0  0  0  0  0  0  0  0  0  0
  153.2078  140.5372  159.6253 C   0  0  0  0  0  0  0  0  0  0  0  0
  153.4212  139.7778  160.7300 N   0  5  0  0  0  0  0  0  0  0  0  0
  153.7280  138.4786  160.5947 C   0  0  0  0  0  0  0  0  0  0  0  0
  153.6615  137.8798  159.3778 N   0  0  0  0  0  0  0  0  0  0  0  0
  153.9743  136.5858  159.2422 C   0  0  0  0  0  0  0  0  0  0  0  0
  154.3695  135.7141  160.1755 N   0  0  0  0  0  0  0  0  0  0  0  0
  154.4271  136.3020  161.4061 C   0  0  0  0  0  0  0  0  0  0  0  0
  154.1184  137.6636  161.6925 C   0  0  0  0  0  0  0  0  0  0  0  0
  154.2734  137.9286  163.0457 N   0  0  0  0  0  0  0  0  0  0  0  0
  154.6642  136.7429  163.5087 C   0  0  0  0  0  0  0  0  0  0  0  0
  154.7919  135.7397  162.6165 N   0  0  0  0  0  0  0  0  0  0  0  0
  155.2162  134.3302  162.8604 C   0  0  2  0  0  0  0  0  0  0  0  0
  154.1038  133.5180  162.6347 O   0  0  0  0  0  0  0  0  0  0  0  0
  154.0378  132.4947  163.6203 C   0  0  1  0  0  0  0  0  0  0  0  0
  154.8789  131.2912  163.1635 C   0  0  0  0  0  0  0  0  0  0  0  0
  155.6923  130.8489  164.2376 O   0  0  0  0  0  0  0  0  0  0  0  0
  155.1445  130.1533  165.2543 C   0  0  0  0  0  0  0  0  0  0  0  0
  154.0914  129.5195  165.1574 O   0  0  0  0  0  0  0  0  0  0  0  0
  155.9420  130.2354  166.5118 C   0  0  0  0  0  0  0  0  0  0  0  0
  156.0538  129.0919  167.3368 C   0  0  0  0  0  0  0  0  0  0  0  0
  156.7973  129.1396  168.5321 C   0  0  0  0  0  0  0  0  0  0  0  0
  157.4395  130.3312  168.9162 C   0  0  0  0  0  0  0  0  0  0  0  0
  157.3374  131.4752  168.1033 C   0  0  0  0  0  0  0  0  0  0  0  0
  156.5932  131.4297  166.9082 C   0  0  0  0  0  0  0  0  0  0  0  0
  154.6015  133.1768  164.8673 C   0  0  2  0  0  0  0  0  0  0  0  0
  153.6298  133.8633  165.4703 F   0  0  0  0  0  0  0  0  0  0  0  0
  155.6464  134.1440  164.3260 C   0  0  1  0  0  0  0  0  0  0  0  0
  156.9394  133.5823  164.4316 O   0  0  0  0  0  0  0  0  0  0  0  0
  152.8686  141.9684  159.9435 C   0  0  0  0  0  0  0  0  0  0  0  0
  152.8319  142.3961  161.2903 C   0  0  0  0  0  0  0  0  0  0  0  0
  152.4903  143.7244  161.6111 C   0  0  0  0  0  0  0  0  0  0  0  0
  152.1713  144.6369  160.5881 C   0  0  0  0  0  0  0  0  0  0  0  0
  152.1914  144.2191  159.2443 C   0  0  0  0  0  0  0  0  0  0  0  0
  152.5344  142.8913  158.9225 C   0  0  0  0  0  0  0  0  0  0  0  0
  153.8980  136.1921  158.2395 H   0  0  0  0  0  0  0  0  0  0  0  0
  154.8747  136.5954  164.5577 H   0  0  0  0  0  0  0  0  0  0  0  0
  156.0059  134.1265  162.1360 H   0  0  0  0  0  0  0  0  0  0  0  0
  153.0052  132.1810  163.7803 H   0  0  0  0  0  0  0  0  0  0  0  0
  154.2359  130.4836  162.8107 H   0  0  0  0  0  0  0  0  0  0  0  0
  155.5254  131.5804  162.3340 H   0  0  0  0  0  0  0  0  0  0  0  0
  155.5688  128.1659  167.0631 H   0  0  0  0  0  0  0  0  0  0  0  0
  156.8744  128.2602  169.1547 H   0  0  0  0  0  0  0  0  0  0  0  0
  158.0096  130.3675  169.8328 H   0  0  0  0  0  0  0  0  0  0  0  0
  157.8307  132.3901  168.3965 H   0  0  0  0  0  0  0  0  0  0  0  0
  156.5350  132.3255  166.3074 H   0  0  0  0  0  0  0  0  0  0  0  0
  154.9898  132.4763  165.6078 H   0  0  0  0  0  0  0  0  0  0  0  0
  155.6399  135.0911  164.8681 H   0  0  0  0  0  0  0  0  0  0  0  0
  157.5743  134.2819  164.4225 H   0  0  0  0  0  0  0  0  0  0  0  0
  153.0715  141.7068  162.0870 H   0  0  0  0  0  0  0  0  0  0  0  0
  152.4714  144.0418  162.6429 H   0  0  0  0  0  0  0  0  0  0  0  0
  151.9073  145.6547  160.8342 H   0  0  0  0  0  0  0  0  0  0  0  0
  151.9400  144.9162  158.4587 H   0  0  0  0  0  0  0  0  0  0  0  0
  152.5333  142.5874  157.8855 H   0  0  0  0  0  0  0  0  0  0  0  0
  1  2  2  0  0  0  0
  2  3  1  0  0  0  0
  2 30  1  0  0  0  0
  3  4  1  0  0  0  0
  4  9  1  0  0  0  0
  4  5  2  0  0  0  0
  5  6  1  0  0  0  0
  6  7  2  0  0  0  0
  6 36  1  0  0  0  0
  7  8  1  0  0  0  0
  8 12  1  0  0  0  0
  8  9  2  0  0  0  0
  9 10  1  0  0  0  0
 10 11  2  0  0  0  0
 11 12  1  0  0  0  0
 11 37  1  0  0  0  0
 12 13  1  0  0  0  0
 13 28  1  0  0  0  0
 13 14  1  0  0  0  0
 13 38  1  0  0  0  0
 14 15  1  0  0  0  0
 15 16  1  0  0  0  0
 15 26  1  0  0  0  0
 15 39  1  0  0  0  0
 16 17  1  0  0  0  0
 16 40  1  0  0  0  0
 16 41  1  0  0  0  0
 17 18  1  0  0  0  0
 18 19  2  0  0  0  0
 18 20  1  0  0  0  0
 20 25  1  0  0  0  0
 20 21  2  0  0  0  0
 21 22  1  0  0  0  0
 21 42  1  0  0  0  0
 22 23  2  0  0  0  0
 22 43  1  0  0  0  0
 23 24  1  0  0  0  0
 23 44  1  0  0  0  0
 24 25  2  0  0  0  0
 24 45  1  0  0  0  0
 25 46  1  0  0  0  0
 26 27  1  0  0  0  0
 26 28  1  0  0  0  0
 26 47  1  0  0  0  0
 28 29  1  0  0  0  0
 28 48  1  0  0  0  0
 29 49  1  0  0  0  0
 30 35  1  0  0  0  0
 30 31  2  0  0  0  0
 31 32  1  0  0  0  0
 31 50  1  0  0  0  0
 32 33  2  0  0  0  0
 32 51  1  0  0  0  0
 33 34  1  0  0  0  0
 33 52  1  0  0  0  0
 34 35  2  0  0  0  0
 34 53  1  0  0  0  0
 35 54  1  0  0  0  0
M  CHG  1   3  -1
M  END
> <s_m_source_file>
AV-unprocessed.smi

> <i_m_source_file_index>
34

> <i_lp_mmshare_version>
43012

> <i_f3d_flags>
0

> <s_epik_input>
W2NIXTFbY0hdW2NIXVtjSF1bY0hdYzFDKD1PKVtOSF1jKG5bY0hdbjIpYyhjMjMpbltjSF1uM1tDQEBIXTRPW0NASF0oW0NAQEhdKEYpW0NASF00W09IXSlbQ0gyXU9DKD1PKWM1W2NIXVtjSF1bY0hdW2NIXVtjSF01

> <s_epik_cmdline>
J2VwaWtfcHl0aG9uJywgJy1waCcsICc3LjAnLCAnLXRuJywgJzgnLCAnLW1hJywgJzIwMCcsICctbWV0YWxfYmluZGluZycsICctaW1hZScsICc8aW5maWxlLm1hZT4nLCAnLW9tYWUnLCAnPG91dGZpbGUubWFlPic=

> <r_lp_tautomer_probability>
1

> <r_epik_Ionization_Penalty>
4.33227

> <r_epik_Ionization_Penalty_Charging>
3.41027

> <r_epik_Ionization_Penalty_Neutral>
0.922001

> <r_epik_State_Penalty>
3.41358

> <r_epik_Charging_Adjusted_Penalty>
6.82385

> <i_epik_Tot_Q>
-1

> <i_epik_Tot_abs_Q>
1

> <r_epik_Metal_State_Penalty>
0.496292

> <b_epik_Metal_Only>
1

> <s_epik_Chemistry_Notes>
This compound has an ester and may undergo hydrolysis at high or low pH. This compound contains an acetal/aminal-like group ( X-CH(R)-Y where X, Y are N, S, or O) that may be acid/base labile, releasing an aldehyde.

> <s_lp_Force_Field>
OPLS_2005

> <r_lp_Energy>
42.8672

> <b_lp_Chiralities_Consistent>
1

> <s_lp_Variant>
AV-unprocessed.smi:34-21

> <Gold.Version>
5.8.1

> <Gold.Id.Protein>
6NUR|6NUR_protein|mol2

> <Gold.PLP.Fitness>
56.8009

> <Gold.PLP.PLP>
-55.5219

> <Gold.PLP.part.hbond>
-1.6188

> <Gold.PLP.part.metal>
0.0000

> <Gold.PLP.part.buried>
-2.0587

> <Gold.PLP.part.nonpolar>
-51.1276

> <Gold.PLP.part.repulsive>
0.0000

> <Gold.PLP.ligand.clash>
0.3011

> <Gold.PLP.ligand.torsion>
1.6689

> <Gold.PLP.Chemscore.Hbond>
1.5307

> <Gold.PLP.Chemscore.CHOScore>
0.0000

> <Gold.PLP.Chemscore.Metal>
0.0000

> <Gold.Chemscore.Hbonds>
donor molecule, donor type, donor heavy atom, donor atom, acceptor molecule, acceptor atom, score
      P1  H  6896  6909       L1     7  0.34
      P1  H  7997  8009       L1     1  0.96

> <Gold.PLP.Chemscore.Internal.Correction>
0.3258

> <Gold.Rescore>
     Score         DG    S(hbond)    S(metal)    S(lipo)     H(rot)  DE(clash)    DE(int)     intcor
     13.60     -17.14       1.06        0.00     128.27       2.69       0.20       3.33       ----

> <Gold.Chemscore.Fitness>
13.6021

> <Gold.Chemscore.DG>
-17.1352

> <Gold.Chemscore.ZeroCoef>
-5.4800

> <Gold.Chemscore.Hbond>
1.0614

> <Gold.Chemscore.Metal>
0.0000

> <Gold.Chemscore.Lipo>
128.2709

> <Gold.Chemscore.Internal_Hbond>
0.0000

> <Gold.Chemscore.DEClash>
0.2021

> <Gold.Chemscore.DEInternal>
3.3310

> <Gold.Chemscore.Rot>
2.6944

> <Gold.Chemscore.Internal.Correction>
   9.000000E+99

> <Gold.Chemscore.Hbonds>
donor molecule, donor type, donor heavy atom, donor atom, acceptor molecule, acceptor atom, score
      P1  H  6896  6909       L1     7  0.03
      P1  H  7997  8009       L1     1  0.90

> <Gold.Chemscore.Hbond.Weighted>
-3.5451

> <Gold.Chemscore.Metal.Weighted>
-0.0000

> <Gold.Chemscore.Lipo.Weighted>
-15.0077

> <Gold.Chemscore.Internal_Hbond.Weighted>
0.0000

> <Gold.Chemscore.DEClash.Weighted>
0.2021

> <Gold.Chemscore.DEInternal.Weighted>
3.3310

> <Gold.Chemscore.Rot.Weighted>
6.8975

> <Gold.Chemscore.Internal.Correction.Weighted>
   9.000000E+99

> <Gold.Protein.RotatedTorsions>
[ 6907 6896 6895 6894 ] final -161.60 input  -60.11 | X-H torsion
[ 7974 7965 7964 7962 ] final  129.12 input  175.53 | X-H torsion
[ 8008 7997 7996 7995 ] final  157.30 input   59.86 | X-H torsion
[ 10167 10162 10161 10158 ] final  -57.88 input  -65.29 | X-H torsion
[ 10718 10713 10712 10709 ] final  114.27 input   66.30 | X-H torsion
[ 10763 10752 10751 10750 ] final  138.64 input  -60.55 | X-H torsion
[ 11005 11000 10999 10996 ] final   88.86 input  -57.11 | X-H torsion

> <Gold.Protein.ActiveResidues>
 VAL166  LYS551  ARG553  GLY616  TRP617  ASP618  TYR619  PRO620  LYS621  CYS622 
 ASP623  PHE694  ASN695  SER759  ASP760  ASP761  ALA762  ILE779  LEU786  VAL792 
 PHE793  MET794  SER795  GLU796  ALA797  LYS798  CYS799  TRP800  GLU811  SER814 

> <Gold.Protein.RotatedAtoms>
  151.3672  133.3868  159.2695 H   0  0  0  0  0  0  0  0  0  0  0  0  # atno 6907 bound_to 6896
  150.9679  134.9058  159.7781 H   0  0  0  0  0  0  0  0  0  0  0  0  # atno 6908 bound_to 6896
  152.5174  134.3633  159.9345 H   0  0  0  0  0  0  0  0  0  0  0  0  # atno 6909 bound_to 6896
  145.0322  139.4036  143.5144 H   0  0  0  0  0  0  0  0  0  0  0  0  # atno 7974 bound_to 7965
  156.2372  140.1889  156.7087 H   0  0  0  0  0  0  0  0  0  0  0  0  # atno 8008 bound_to 7997
  154.6128  140.0619  156.9543 H   0  0  0  0  0  0  0  0  0  0  0  0  # atno 8009 bound_to 7997
  155.1988  140.3290  155.4349 H   0  0  0  0  0  0  0  0  0  0  0  0  # atno 8010 bound_to 7997
  140.6231  143.2427  151.5431 H   0  0  0  0  0  0  0  0  0  0  0  0  # atno 10167 bound_to 10162
  157.6290  131.0996  150.7162 H   0  0  0  0  0  0  0  0  0  0  0  0  # atno 10718 bound_to 10713
  153.8929  135.3031  155.3447 H   0  0  0  0  0  0  0  0  0  0  0  0  # atno 10763 bound_to 10752
  154.7708  135.4887  153.9647 H   0  0  0  0  0  0  0  0  0  0  0  0  # atno 10764 bound_to 10752
  153.1288  135.6799  153.9312 H   0  0  0  0  0  0  0  0  0  0  0  0  # atno 10765 bound_to 10752
  139.8887  134.8515  156.3060 H   0  0  0  0  0  0  0  0  0  0  0  0  # atno 11005 bound_to 11000
  146.3500  139.9877  142.8689 LP  0  0  0  0  0  0  0  0  0  0  0  0  # atno 17320 bound_to 7965
  145.1756  140.9742  143.4296 LP  0  0  0  0  0  0  0  0  0  0  0  0  # atno 17321 bound_to 7965
  139.5456  144.2531  152.1435 LP  0  0  0  0  0  0  0  0  0  0  0  0  # atno 17342 bound_to 10162
  140.1755  144.4894  150.6556 LP  0  0  0  0  0  0  0  0  0  0  0  0  # atno 17343 bound_to 10162
  156.7505  130.4767  149.5458 LP  0  0  0  0  0  0  0  0  0  0  0  0  # atno 17370 bound_to 10713
  156.1481  130.6291  151.0559 LP  0  0  0  0  0  0  0  0  0  0  0  0  # atno 17371 bound_to 10713
  140.9882  133.7225  156.0773 LP  0  0  0  0  0  0  0  0  0  0  0  0  # atno 17394 bound_to 11000
  140.7660  134.3885  157.5517 LP  0  0  0  0  0  0  0  0  0  0  0  0  # atno 17395 bound_to 11000

$$$$
