AV-unprocessed.smi:244|AV-procd|sdf|1866|dock5
  -GOLD-   2262020503D 1   1.00000     0.00000
 Structure written by MMmdl.
 57 61  0  0  0  0  0  0  0  0  2 V2000
  147.0546  137.4241  154.5806 C   0  0  0  0  0  0  0  0  0  0  0  0
  147.9492  138.0963  153.6098 N   0  3  1  0  0  0  0  0  0  0  0  0
  147.2326  138.9248  152.6083 C   0  0  0  0  0  0  0  0  0  0  0  0
  146.7741  140.2673  153.1989 C   0  0  0  0  0  0  0  0  0  0  0  0
  147.9706  141.0396  153.7890 C   0  0  1  0  0  0  0  0  0  0  0  0
  147.5888  142.3032  154.3339 O   0  0  0  0  0  0  0  0  0  0  0  0
  146.8442  142.2256  155.5460 C   0  0  0  0  0  0  0  0  0  0  0  0
  147.6494  141.4585  156.6019 C   0  0  0  0  0  0  0  0  0  0  0  0
  148.0321  140.1435  156.1012 N   0  0  0  0  0  0  0  0  0  0  0  0
  148.5685  139.3996  157.0971 C   0  0  0  0  0  0  0  0  0  0  0  0
  149.8427  139.6225  157.5153 N   0  0  0  0  0  0  0  0  0  0  0  0
  150.3609  138.8829  158.5007 C   0  0  0  0  0  0  0  0  0  0  0  0
  149.7903  137.8911  159.1882 N   0  0  0  0  0  0  0  0  0  0  0  0
  148.5087  137.6730  158.7758 C   0  0  0  0  0  0  0  0  0  0  0  0
  147.8246  138.3826  157.7507 C   0  0  0  0  0  0  0  0  0  0  0  0
  146.5340  137.8915  157.6070 N   0  0  0  0  0  0  0  0  0  0  0  0
  146.4595  136.9388  158.4962 C   0  0  0  0  0  0  0  0  0  0  0  0
  147.6045  136.7299  159.2326 N   0  0  0  0  0  0  0  0  0  0  0  0
  147.7983  135.7319  160.2740 C   0  0  0  0  0  0  0  0  0  0  0  0
  147.0313  136.0357  161.5902 C   0  0  0  0  0  0  0  0  0  0  0  0
  147.4388  137.3163  162.0368 O   0  0  0  0  0  0  0  0  0  0  0  0
  145.4957  136.0674  161.4314 C   0  0  0  0  0  0  0  0  0  0  0  0
  144.9200  134.6510  161.2560 C   0  0  0  0  0  0  0  0  0  0  0  0
  145.2984  133.8352  162.3594 O   0  0  0  0  0  0  0  0  0  0  0  0
  146.7073  133.6658  162.4705 C   0  0  0  0  0  0  0  0  0  0  0  0
  147.3851  135.0284  162.7024 C   0  0  0  0  0  0  0  0  0  0  0  0
  148.7545  140.1966  154.8237 C   0  0  1  0  0  0  0  0  0  0  0  0
  149.1050  138.8034  154.2247 C   0  0  0  0  0  0  0  0  0  0  0  0
  146.4750  138.1370  155.1652 H   0  0  0  0  0  0  0  0  0  0  0  0
  147.6280  136.8040  155.2705 H   0  0  0  0  0  0  0  0  0  0  0  0
  146.3524  136.7738  154.0589 H   0  0  0  0  0  0  0  0  0  0  0  0
  147.9044  139.1078  151.7686 H   0  0  0  0  0  0  0  0  0  0  0  0
  146.3824  138.3724  152.2065 H   0  0  0  0  0  0  0  0  0  0  0  0
  146.2968  140.8661  152.4231 H   0  0  0  0  0  0  0  0  0  0  0  0
  146.0110  140.0830  153.9533 H   0  0  0  0  0  0  0  0  0  0  0  0
  148.6468  141.2635  152.9629 H   0  0  0  0  0  0  0  0  0  0  0  0
  146.6451  143.2381  155.8972 H   0  0  0  0  0  0  0  0  0  0  0  0
  145.8722  141.7616  155.3815 H   0  0  0  0  0  0  0  0  0  0  0  0
  148.5476  142.0208  156.8622 H   0  0  0  0  0  0  0  0  0  0  0  0
  147.0573  141.3614  157.5131 H   0  0  0  0  0  0  0  0  0  0  0  0
  151.3785  139.1178  158.7766 H   0  0  0  0  0  0  0  0  0  0  0  0
  145.5637  136.3506  158.6354 H   0  0  0  0  0  0  0  0  0  0  0  0
  147.5073  134.7631  159.8689 H   0  0  0  0  0  0  0  0  0  0  0  0
  148.8684  135.6606  160.4740 H   0  0  0  0  0  0  0  0  0  0  0  0
  147.0613  137.4711  162.8893 H   0  0  0  0  0  0  0  0  0  0  0  0
  145.0464  136.5055  162.3240 H   0  0  0  0  0  0  0  0  0  0  0  0
  145.1925  136.7069  160.6026 H   0  0  0  0  0  0  0  0  0  0  0  0
  143.8320  134.6960  161.2111 H   0  0  0  0  0  0  0  0  0  0  0  0
  145.2546  134.1958  160.3236 H   0  0  0  0  0  0  0  0  0  0  0  0
  146.9132  133.0022  163.3105 H   0  0  0  0  0  0  0  0  0  0  0  0
  147.0977  133.1722  161.5802 H   0  0  0  0  0  0  0  0  0  0  0  0
  148.4657  134.9040  162.7814 H   0  0  0  0  0  0  0  0  0  0  0  0
  147.0510  135.4136  163.6671 H   0  0  0  0  0  0  0  0  0  0  0  0
  149.6929  140.7175  155.0206 H   0  0  0  0  0  0  0  0  0  0  0  0
  149.6010  138.1513  154.9432 H   0  0  0  0  0  0  0  0  0  0  0  0
  149.8361  138.9556  153.4298 H   0  0  0  0  0  0  0  0  0  0  0  0
  148.3576  137.3367  153.0840 H   0  0  0  0  0  0  0  0  0  0  0  0
  1  2  1  0  0  0  0
  1 29  1  0  0  0  0
  1 30  1  0  0  0  0
  1 31  1  0  0  0  0
  2 28  1  0  0  0  0
  2  3  1  0  0  0  0
  2 57  1  0  0  0  0
  3  4  1  0  0  0  0
  3 32  1  0  0  0  0
  3 33  1  0  0  0  0
  4  5  1  0  0  0  0
  4 34  1  0  0  0  0
  4 35  1  0  0  0  0
  5 27  1  0  0  0  0
  5  6  1  0  0  0  0
  5 36  1  0  0  0  0
  6  7  1  0  0  0  0
  7  8  1  0  0  0  0
  7 37  1  0  0  0  0
  7 38  1  0  0  0  0
  8  9  1  0  0  0  0
  8 39  1  0  0  0  0
  8 40  1  0  0  0  0
  9 10  1  0  0  0  0
  9 27  1  0  0  0  0
 10 15  1  0  0  0  0
 10 11  2  0  0  0  0
 11 12  1  0  0  0  0
 12 13  2  0  0  0  0
 12 41  1  0  0  0  0
 13 14  1  0  0  0  0
 14 18  1  0  0  0  0
 14 15  2  0  0  0  0
 15 16  1  0  0  0  0
 16 17  2  0  0  0  0
 17 18  1  0  0  0  0
 17 42  1  0  0  0  0
 18 19  1  0  0  0  0
 19 20  1  0  0  0  0
 19 43  1  0  0  0  0
 19 44  1  0  0  0  0
 20 26  1  0  0  0  0
 20 21  1  0  0  0  0
 20 22  1  0  0  0  0
 21 45  1  0  0  0  0
 22 23  1  0  0  0  0
 22 46  1  0  0  0  0
 22 47  1  0  0  0  0
 23 24  1  0  0  0  0
 23 48  1  0  0  0  0
 23 49  1  0  0  0  0
 24 25  1  0  0  0  0
 25 26  1  0  0  0  0
 25 50  1  0  0  0  0
 25 51  1  0  0  0  0
 26 52  1  0  0  0  0
 26 53  1  0  0  0  0
 27 28  1  0  0  0  0
 27 54  1  0  0  0  0
 28 55  1  0  0  0  0
 28 56  1  0  0  0  0
M  CHG  1   2   1
M  END
> <s_m_source_file>
AV-unprocessed.smi

> <i_m_source_file_index>
244

> <i_lp_mmshare_version>
43012

> <i_f3d_flags>
0

> <s_epik_input>
W0NIMl0xW0NIMl1OKFtDSDNdKVtDSDJdW0NAQEhdKFtDQEhdMTIpTihbQ0gyXVtDSDJdTzIpYyhuW2NIXW4zKWMoYzM0KW5bY0hdbjRbQ0gyXUM1KFtPSF0pW0NIMl1bQ0gyXU9bQ0gyXVtDSDJdNQ==

> <s_epik_cmdline>
J2VwaWtfcHl0aG9uJywgJy1waCcsICc3LjAnLCAnLXRuJywgJzgnLCAnLW1hJywgJzIwMCcsICctbWV0YWxfYmluZGluZycsICctaW1hZScsICc8aW5maWxlLm1hZT4nLCAnLW9tYWUnLCAnPG91dGZpbGUubWFlPic=

> <r_lp_tautomer_probability>
1

> <r_epik_Ionization_Penalty>
0.0136215

> <r_epik_Ionization_Penalty_Charging>
0.0131385

> <r_epik_Ionization_Penalty_Neutral>
0.000483022

> <r_epik_State_Penalty>
0.0104001

> <r_epik_Charging_Adjusted_Penalty>
0.0235387

> <i_epik_Tot_Q>
1

> <i_epik_Tot_abs_Q>
1

> <r_epik_Metal_State_Penalty>
0.0104469

> <b_epik_Metal_Only>
0

> <s_lp_Force_Field>
OPLS_2005

> <r_lp_Energy>
49.6468

> <b_lp_Chiralities_Consistent>
1

> <s_lp_Variant>
AV-unprocessed.smi:244-3

> <Gold.Version>
5.8.1

> <Gold.Id.Protein>
6NUR|6NUR_protein|mol2

> <Gold.PLP.Fitness>
45.5295

> <Gold.PLP.PLP>
-35.7239

> <Gold.PLP.part.hbond>
-3.8853

> <Gold.PLP.part.metal>
0.0000

> <Gold.PLP.part.buried>
-3.1363

> <Gold.PLP.part.nonpolar>
-30.2010

> <Gold.PLP.part.repulsive>
0.9254

> <Gold.PLP.ligand.clash>
0.0000

> <Gold.PLP.ligand.torsion>
0.4043

> <Gold.PLP.Chemscore.Hbond>
3.4876

> <Gold.PLP.Chemscore.CHOScore>
0.0000

> <Gold.PLP.Chemscore.Metal>
0.0000

> <Gold.Chemscore.Hbonds>
donor molecule, donor type, donor heavy atom, donor atom, acceptor molecule, acceptor atom, score
      L1  H     2    57       P1  7948  2.00
      P1  H  6931  6943       L1    21  0.85
      P1  H  6934  6947       L1    21  0.65

> <Gold.PLP.Chemscore.Internal.Correction>
0.1514

> <Gold.Rescore>
     Score         DG    S(hbond)    S(metal)    S(lipo)     H(rot)  DE(clash)    DE(int)     intcor
     15.83     -17.13       2.20        0.00      82.47       2.09       0.99       0.31       ----

> <Gold.Chemscore.Fitness>
15.8328

> <Gold.Chemscore.DG>
-17.1341

> <Gold.Chemscore.ZeroCoef>
-5.4800

> <Gold.Chemscore.Hbond>
2.2031

> <Gold.Chemscore.Metal>
0.0000

> <Gold.Chemscore.Lipo>
82.4677

> <Gold.Chemscore.Internal_Hbond>
0.0000

> <Gold.Chemscore.DEClash>
0.9895

> <Gold.Chemscore.DEInternal>
0.3119

> <Gold.Chemscore.Rot>
2.0911

> <Gold.Chemscore.Internal.Correction>
   9.000000E+99

> <Gold.Chemscore.Hbonds>
donor molecule, donor type, donor heavy atom, donor atom, acceptor molecule, acceptor atom, score
      L1  H     2    57       P1  7948  1.00
      P1  H  6931  6943       L1    21  0.54
      P1  H  6934  6947       L1    21  0.37

> <Gold.Chemscore.Hbond.Weighted>
-7.3585

> <Gold.Chemscore.Metal.Weighted>
-0.0000

> <Gold.Chemscore.Lipo.Weighted>
-9.6487

> <Gold.Chemscore.Internal_Hbond.Weighted>
0.0000

> <Gold.Chemscore.DEClash.Weighted>
0.9895

> <Gold.Chemscore.DEInternal.Weighted>
0.3119

> <Gold.Chemscore.Rot.Weighted>
5.3531

> <Gold.Chemscore.Internal.Correction.Weighted>
   9.000000E+99

> <Gold.Protein.RotatedTorsions>
[ 6907 6896 6895 6894 ] final  -53.84 input  -60.11 | X-H torsion
[ 7974 7965 7964 7962 ] final   34.87 input  175.53 | X-H torsion
[ 8008 7997 7996 7995 ] final  -31.21 input   59.86 | X-H torsion
[ 10167 10162 10161 10158 ] final  -58.61 input  -65.29 | X-H torsion
[ 10718 10713 10712 10709 ] final  -67.64 input   66.30 | X-H torsion
[ 10763 10752 10751 10750 ] final  103.85 input  -60.55 | X-H torsion
[ 11005 11000 10999 10996 ] final   46.34 input  -57.11 | X-H torsion

> <Gold.Protein.ActiveResidues>
 VAL166  LYS551  ARG553  GLY616  TRP617  ASP618  TYR619  PRO620  LYS621  CYS622 
 ASP623  PHE694  ASN695  SER759  ASP760  ASP761  ALA762  ILE779  LEU786  VAL792 
 PHE793  MET794  SER795  GLU796  ALA797  LYS798  CYS799  TRP800  GLU811  SER814 

> <Gold.Protein.RotatedAtoms>
  150.8391  134.7676  159.6917 H   0  0  0  0  0  0  0  0  0  0  0  0  # atno 6907 bound_to 6896
  152.4482  134.5446  159.9859 H   0  0  0  0  0  0  0  0  0  0  0  0  # atno 6908 bound_to 6896
  151.5590  133.3368  159.3003 H   0  0  0  0  0  0  0  0  0  0  0  0  # atno 6909 bound_to 6896
  146.1323  139.6214  142.9219 H   0  0  0  0  0  0  0  0  0  0  0  0  # atno 7974 bound_to 7965
  154.4222  140.1770  156.1530 H   0  0  0  0  0  0  0  0  0  0  0  0  # atno 8008 bound_to 7997
  155.9900  140.3370  155.6719 H   0  0  0  0  0  0  0  0  0  0  0  0  # atno 8009 bound_to 7997
  155.6385  140.0677  157.2617 H   0  0  0  0  0  0  0  0  0  0  0  0  # atno 8010 bound_to 7997
  140.6186  143.2411  151.5535 H   0  0  0  0  0  0  0  0  0  0  0  0  # atno 10167 bound_to 10162
  156.0547  130.4281  150.1884 H   0  0  0  0  0  0  0  0  0  0  0  0  # atno 10718 bound_to 10713
  153.3581  135.3963  155.1697 H   0  0  0  0  0  0  0  0  0  0  0  0  # atno 10763 bound_to 10752
  154.8674  135.3673  154.5135 H   0  0  0  0  0  0  0  0  0  0  0  0  # atno 10764 bound_to 10752
  153.5592  135.7081  153.5615 H   0  0  0  0  0  0  0  0  0  0  0  0  # atno 10765 bound_to 10752
  140.1377  134.4623  155.8473 H   0  0  0  0  0  0  0  0  0  0  0  0  # atno 11005 bound_to 11000
  145.5234  141.0431  143.2423 LP  0  0  0  0  0  0  0  0  0  0  0  0  # atno 17320 bound_to 7965
  144.7703  139.6751  143.7197 LP  0  0  0  0  0  0  0  0  0  0  0  0  # atno 17321 bound_to 7965
  139.5420  144.2623  152.1368 LP  0  0  0  0  0  0  0  0  0  0  0  0  # atno 17342 bound_to 10162
  140.1838  144.4819  150.6514 LP  0  0  0  0  0  0  0  0  0  0  0  0  # atno 17343 bound_to 10162
  156.9962  130.9908  151.3402 LP  0  0  0  0  0  0  0  0  0  0  0  0  # atno 17370 bound_to 10713
  157.5506  130.8180  149.8140 LP  0  0  0  0  0  0  0  0  0  0  0  0  # atno 17371 bound_to 10713
  141.2181  133.6821  156.7189 LP  0  0  0  0  0  0  0  0  0  0  0  0  # atno 17394 bound_to 11000
  140.2761  134.8354  157.3891 LP  0  0  0  0  0  0  0  0  0  0  0  0  # atno 17395 bound_to 11000

$$$$
