AV-unprocessed.smi:2923|AV-procd|sdf|11217|dock3
  -GOLD-   2272016103D 1   1.00000     0.00000
 Structure written by MMmdl.
 46 48  0  0  0  0  0  0  0  0  1 V2000
  144.7555  131.2259  150.7628 C   0  0  0  0  0  0  0  0  0  0  0  0
  144.0635  132.4778  150.4971 N   0  0  0  0  0  0  0  0  0  0  0  0
  143.7210  132.7427  149.1084 C   0  0  0  0  0  0  0  0  0  0  0  0
  144.6572  133.5769  151.1312 C   0  0  0  0  0  0  0  0  0  0  0  0
  145.1906  133.4731  152.4360 C   0  0  0  0  0  0  0  0  0  0  0  0
  145.7731  134.6125  153.0232 C   0  0  0  0  0  0  0  0  0  0  0  0
  145.8106  135.8188  152.2843 C   0  0  0  0  0  0  0  0  0  0  0  0
  146.3462  137.0404  152.7732 N   0  0  0  0  0  0  0  0  0  0  0  0
  146.9253  137.2850  153.9607 C   0  0  0  0  0  0  0  0  0  0  0  0
  147.1271  136.4507  154.8427 O   0  0  0  0  0  0  0  0  0  0  0  0
  147.2798  138.5721  154.0671 N   0  0  0  0  0  0  0  0  0  0  0  0
  147.9553  139.1591  155.2293 C   0  0  1  0  0  0  0  0  0  0  0  0
  149.4400  138.7912  155.2903 C   0  0  1  0  0  0  0  0  0  0  0  0
  150.3058  137.7539  154.6717 C   0  0  0  0  0  0  0  0  0  0  0  0
  151.5166  138.6741  154.3571 C   0  0  0  0  0  0  0  0  0  0  0  0
  151.0608  140.0303  154.5978 O   0  0  0  0  0  0  0  0  0  0  0  0
  149.6680  139.9675  154.3630 C   0  0  2  0  0  0  0  0  0  0  0  0
  148.4615  140.6462  155.0492 C   0  0  0  0  0  0  0  0  0  0  0  0
  147.6271  141.5673  154.1522 C   0  0  0  0  0  0  0  0  0  0  0  0
  148.7460  141.4547  156.3283 C   0  0  0  0  0  0  0  0  0  0  0  0
  145.2397  135.8166  150.9949 C   0  0  0  0  0  0  0  0  0  0  0  0
  144.6809  134.7280  150.4254 N   0  0  0  0  0  0  0  0  0  0  0  0
  144.9528  131.1100  151.8293 H   0  0  0  0  0  0  0  0  0  0  0  0
  145.7054  131.1815  150.2293 H   0  0  0  0  0  0  0  0  0  0  0  0
  144.1439  130.3826  150.4408 H   0  0  0  0  0  0  0  0  0  0  0  0
  143.2096  133.7011  149.0101 H   0  0  0  0  0  0  0  0  0  0  0  0
  143.0552  131.9662  148.7311 H   0  0  0  0  0  0  0  0  0  0  0  0
  144.6134  132.7620  148.4820 H   0  0  0  0  0  0  0  0  0  0  0  0
  145.1518  132.5416  152.9817 H   0  0  0  0  0  0  0  0  0  0  0  0
  146.1621  134.5413  154.0269 H   0  0  0  0  0  0  0  0  0  0  0  0
  146.3296  137.8106  152.1208 H   0  0  0  0  0  0  0  0  0  0  0  0
  147.0801  139.1894  153.2939 H   0  0  0  0  0  0  0  0  0  0  0  0
  147.4377  138.9881  156.1747 H   0  0  0  0  0  0  0  0  0  0  0  0
  149.7966  138.9778  156.3062 H   0  0  0  0  0  0  0  0  0  0  0  0
  150.5594  136.9459  155.3585 H   0  0  0  0  0  0  0  0  0  0  0  0
  149.8652  137.3321  153.7675 H   0  0  0  0  0  0  0  0  0  0  0  0
  152.3715  138.4565  154.9979 H   0  0  0  0  0  0  0  0  0  0  0  0
  151.8327  138.5580  153.3196 H   0  0  0  0  0  0  0  0  0  0  0  0
  149.4705  139.7503  153.3081 H   0  0  0  0  0  0  0  0  0  0  0  0
  148.1147  142.5311  154.0023 H   0  0  0  0  0  0  0  0  0  0  0  0
  146.6441  141.7584  154.5839 H   0  0  0  0  0  0  0  0  0  0  0  0
  147.4675  141.1402  153.1621 H   0  0  0  0  0  0  0  0  0  0  0  0
  149.3637  142.3271  156.1128 H   0  0  0  0  0  0  0  0  0  0  0  0
  149.2656  140.8859  157.0974 H   0  0  0  0  0  0  0  0  0  0  0  0
  147.8223  141.8147  156.7826 H   0  0  0  0  0  0  0  0  0  0  0  0
  145.2330  136.7162  150.3970 H   0  0  0  0  0  0  0  0  0  0  0  0
  1  2  1  0  0  0  0
  1 23  1  0  0  0  0
  1 24  1  0  0  0  0
  1 25  1  0  0  0  0
  2  3  1  0  0  0  0
  2  4  1  0  0  0  0
  3 26  1  0  0  0  0
  3 27  1  0  0  0  0
  3 28  1  0  0  0  0
  4 22  1  0  0  0  0
  4  5  2  0  0  0  0
  5  6  1  0  0  0  0
  5 29  1  0  0  0  0
  6  7  2  0  0  0  0
  6 30  1  0  0  0  0
  7  8  1  0  0  0  0
  7 21  1  0  0  0  0
  8  9  1  0  0  0  0
  8 31  1  0  0  0  0
  9 10  2  0  0  0  0
  9 11  1  0  0  0  0
 11 12  1  0  0  0  0
 11 32  1  0  0  0  0
 12 18  1  0  0  0  0
 12 13  1  0  0  0  0
 12 33  1  0  0  0  0
 13 17  1  0  0  0  0
 13 14  1  0  0  0  0
 13 34  1  0  0  0  0
 14 15  1  0  0  0  0
 14 35  1  0  0  0  0
 14 36  1  0  0  0  0
 15 16  1  0  0  0  0
 15 37  1  0  0  0  0
 15 38  1  0  0  0  0
 16 17  1  0  0  0  0
 17 18  1  0  0  0  0
 17 39  1  0  0  0  0
 18 19  1  0  0  0  0
 18 20  1  0  0  0  0
 19 40  1  0  0  0  0
 19 41  1  0  0  0  0
 19 42  1  0  0  0  0
 20 43  1  0  0  0  0
 20 44  1  0  0  0  0
 20 45  1  0  0  0  0
 21 22  2  0  0  0  0
 21 46  1  0  0  0  0
M  END
> <s_m_source_file>
AV-unprocessed.smi

> <i_m_source_file_index>
2923

> <i_lp_mmshare_version>
43012

> <i_f3d_flags>
0

> <s_epik_input>
W0NIM11OKFtDSDNdKWMxW2NIXVtjSF1jKFtjSF1uMSlbTkhdQyg9TylbTkhdW0NASF0yQyhbQ0gzXSkoW0NIM10pW0NAQEhdKFtDQEhdMjMpT1tDSDJdW0NIMl0z

> <s_epik_cmdline>
J2VwaWtfcHl0aG9uJywgJy1waCcsICc3LjAnLCAnLXRuJywgJzgnLCAnLW1hJywgJzIwMCcsICctbWV0YWxfYmluZGluZycsICctaW1hZScsICc8aW5maWxlLm1hZT4nLCAnLW9tYWUnLCAnPG91dGZpbGUubWFlPic=

> <r_lp_tautomer_probability>
1

> <r_epik_Ionization_Penalty>
0.628785

> <r_epik_Ionization_Penalty_Charging>
0

> <r_epik_Ionization_Penalty_Neutral>
0.628785

> <r_epik_State_Penalty>
0.644286

> <r_epik_Charging_Adjusted_Penalty>
0.644286

> <i_epik_Tot_Q>
0

> <i_epik_Tot_abs_Q>
0

> <r_epik_Metal_State_Penalty>
0.308404

> <b_epik_Metal_Only>
0

> <s_lp_Force_Field>
OPLS_2005

> <r_lp_Energy>
70.0187

> <b_lp_Chiralities_Consistent>
1

> <s_lp_Variant>
AV-unprocessed.smi:2923-16

> <Gold.Version>
5.8.1

> <Gold.Id.Protein>
6NUR|6NUR_protein|mol2

> <Gold.PLP.Fitness>
38.4076

> <Gold.PLP.PLP>
-32.9141

> <Gold.PLP.part.hbond>
-2.0000

> <Gold.PLP.part.metal>
0.0000

> <Gold.PLP.part.buried>
-5.1941

> <Gold.PLP.part.nonpolar>
-26.9741

> <Gold.PLP.part.repulsive>
0.9372

> <Gold.PLP.ligand.clash>
0.0000

> <Gold.PLP.ligand.torsion>
0.4891

> <Gold.PLP.Chemscore.Hbond>
1.0000

> <Gold.PLP.Chemscore.CHOScore>
1.0000

> <Gold.PLP.Chemscore.Metal>
0.0000

> <Gold.Chemscore.Hbonds>
donor molecule, donor type, donor heavy atom, donor atom, acceptor molecule, acceptor atom, score
      P1  H  7989  7998       L1    16  0.91
      L1  C    21    46       P1 10171  1.00

> <Gold.PLP.Chemscore.Internal.Correction>
0.4716

> <Gold.Rescore>
     Score         DG    S(hbond)    S(metal)    S(lipo)     H(rot)  DE(clash)    DE(int)     intcor
     12.26     -14.08       0.54        0.00      84.16       1.19       0.15       1.66       ----

> <Gold.Chemscore.Fitness>
12.2613

> <Gold.Chemscore.DG>
-14.0802

> <Gold.Chemscore.ZeroCoef>
-5.4800

> <Gold.Chemscore.Hbond>
0.5417

> <Gold.Chemscore.Metal>
0.0000

> <Gold.Chemscore.Lipo>
84.1610

> <Gold.Chemscore.Internal_Hbond>
0.0000

> <Gold.Chemscore.DEClash>
0.1544

> <Gold.Chemscore.DEInternal>
1.6645

> <Gold.Chemscore.Rot>
1.1937

> <Gold.Chemscore.Internal.Correction>
   9.000000E+99

> <Gold.Chemscore.Hbonds>
donor molecule, donor type, donor heavy atom, donor atom, acceptor molecule, acceptor atom, score
      P1  H  7989  7998       L1    16  0.27

> <Gold.Chemscore.Hbond.Weighted>
-1.8092

> <Gold.Chemscore.Metal.Weighted>
-0.0000

> <Gold.Chemscore.Lipo.Weighted>
-9.8468

> <Gold.Chemscore.Internal_Hbond.Weighted>
0.0000

> <Gold.Chemscore.DEClash.Weighted>
0.1544

> <Gold.Chemscore.DEInternal.Weighted>
1.6645

> <Gold.Chemscore.Rot.Weighted>
3.0559

> <Gold.Chemscore.Internal.Correction.Weighted>
   9.000000E+99

> <Gold.Protein.RotatedTorsions>
[ 6907 6896 6895 6894 ] final   89.52 input  -60.11 | X-H torsion
[ 7974 7965 7964 7962 ] final  139.40 input  175.53 | X-H torsion
[ 8008 7997 7996 7995 ] final  136.68 input   59.86 | X-H torsion
[ 10167 10162 10161 10158 ] final  139.28 input  -65.29 | X-H torsion
[ 10718 10713 10712 10709 ] final  128.50 input   66.30 | X-H torsion
[ 10763 10752 10751 10750 ] final -125.05 input  -60.55 | X-H torsion
[ 11005 11000 10999 10996 ] final -145.48 input  -57.11 | X-H torsion

> <Gold.Protein.ActiveResidues>
 VAL166  LYS551  ARG553  GLY616  TRP617  ASP618  TYR619  PRO620  LYS621  CYS622 
 ASP623  PHE694  ASN695  SER759  ASP760  ASP761  ALA762  ILE779  LEU786  VAL792 
 PHE793  MET794  SER795  GLU796  ALA797  LYS798  CYS799  TRP800  GLU811  SER814 

> <Gold.Protein.RotatedAtoms>
  152.5437  134.1954  159.8690 H   0  0  0  0  0  0  0  0  0  0  0  0  # atno 6907 bound_to 6896
  151.1947  133.4639  159.2603 H   0  0  0  0  0  0  0  0  0  0  0  0  # atno 6908 bound_to 6896
  151.1049  135.0005  159.8522 H   0  0  0  0  0  0  0  0  0  0  0  0  # atno 6909 bound_to 6896
  144.9282  139.5080  143.5630 H   0  0  0  0  0  0  0  0  0  0  0  0  # atno 7974 bound_to 7965
  156.3004  140.2439  156.3785 H   0  0  0  0  0  0  0  0  0  0  0  0  # atno 8008 bound_to 7997
  154.8723  140.0415  157.1752 H   0  0  0  0  0  0  0  0  0  0  0  0  # atno 8009 bound_to 7997
  154.8782  140.2945  155.5444 H   0  0  0  0  0  0  0  0  0  0  0  0  # atno 8010 bound_to 7997
  139.5084  144.6304  151.5831 H   0  0  0  0  0  0  0  0  0  0  0  0  # atno 10167 bound_to 10162
  157.5239  131.1098  150.9112 H   0  0  0  0  0  0  0  0  0  0  0  0  # atno 10718 bound_to 10713
  154.8731  135.4042  154.3206 H   0  0  0  0  0  0  0  0  0  0  0  0  # atno 10763 bound_to 10752
  153.4035  135.7018  153.6415 H   0  0  0  0  0  0  0  0  0  0  0  0  # atno 10764 bound_to 10752
  153.5148  135.3700  155.2574 H   0  0  0  0  0  0  0  0  0  0  0  0  # atno 10765 bound_to 10752
  140.7918  134.2959  157.5010 H   0  0  0  0  0  0  0  0  0  0  0  0  # atno 11005 bound_to 11000
  146.3235  139.8213  142.8926 LP  0  0  0  0  0  0  0  0  0  0  0  0  # atno 17320 bound_to 7965
  145.3184  141.0238  143.3514 LP  0  0  0  0  0  0  0  0  0  0  0  0  # atno 17321 bound_to 7965
  140.6035  143.9567  150.6402 LP  0  0  0  0  0  0  0  0  0  0  0  0  # atno 17342 bound_to 10162
  140.2786  143.3405  152.1172 LP  0  0  0  0  0  0  0  0  0  0  0  0  # atno 17343 bound_to 10162
  156.9714  130.5492  149.5291 LP  0  0  0  0  0  0  0  0  0  0  0  0  # atno 17370 bound_to 10713
  156.0373  130.5459  150.8685 LP  0  0  0  0  0  0  0  0  0  0  0  0  # atno 17371 bound_to 10713
  139.8730  134.9379  156.3700 LP  0  0  0  0  0  0  0  0  0  0  0  0  # atno 17394 bound_to 11000
  140.9382  133.7533  156.0111 LP  0  0  0  0  0  0  0  0  0  0  0  0  # atno 17395 bound_to 11000

$$$$
