AV-unprocessed.smi:309|AV-procd|sdf|2292|dock2
  -GOLD-   2262022193D 1   1.00000     0.00000
 Structure written by MMmdl.
 36 38  0  0  0  0  0  0  0  0  1 V2000
  151.8742  136.7300  155.4520 O   0  0  0  0  0  0  0  0  0  0  0  0
  151.8336  138.1177  155.7170 C   0  0  0  0  0  0  0  0  0  0  0  0
  150.6365  138.8181  155.1383 C   0  0  0  0  0  0  0  0  0  0  0  0
  149.7268  138.1968  154.3836 N   0  0  0  0  0  0  0  0  0  0  0  0
  148.8286  139.2039  154.0918 C   0  0  0  0  0  0  0  0  0  0  0  0
  147.6415  139.1832  153.3253 C   0  0  0  0  0  0  0  0  0  0  0  0
  146.8754  140.3563  153.1644 C   0  0  0  0  0  0  0  0  0  0  0  0
  147.2840  141.5640  153.7667 C   0  0  0  0  0  0  0  0  0  0  0  0
  148.4633  141.6058  154.5349 C   0  0  0  0  0  0  0  0  0  0  0  0
  149.2247  140.4321  154.6912 C   0  0  0  0  0  0  0  0  0  0  0  0
  150.4110  140.1391  155.3572 N   0  0  0  0  0  0  0  0  0  0  0  0
  151.2112  141.0834  156.1258 C   0  0  0  0  0  0  0  0  0  0  0  0
  150.4092  141.7555  157.2604 C   0  0  1  0  0  0  0  0  0  0  0  0
  149.4638  140.8187  157.7368 O   0  0  0  0  0  0  0  0  0  0  0  0
  151.3072  142.2885  158.3761 C   0  0  0  0  0  0  0  0  0  0  0  0
  151.2916  143.6715  158.6703 C   0  0  0  0  0  0  0  0  0  0  0  0
  152.0868  144.1961  159.7062 C   0  0  0  0  0  0  0  0  0  0  0  0
  152.0460  145.8853  160.0540 Cl  0  0  0  0  0  0  0  0  0  0  0  0
  152.9103  143.3415  160.4607 C   0  0  0  0  0  0  0  0  0  0  0  0
  152.9345  141.9639  160.1776 C   0  0  0  0  0  0  0  0  0  0  0  0
  152.1395  141.4318  159.1429 C   0  0  0  0  0  0  0  0  0  0  0  0
  152.2117  139.7282  158.8561 Cl  0  0  0  0  0  0  0  0  0  0  0  0
  151.4357  136.2764  156.1553 H   0  0  0  0  0  0  0  0  0  0  0  0
  151.8443  138.2637  156.7973 H   0  0  0  0  0  0  0  0  0  0  0  0
  152.7416  138.5647  155.3154 H   0  0  0  0  0  0  0  0  0  0  0  0
  147.3202  138.2631  152.8599 H   0  0  0  0  0  0  0  0  0  0  0  0
  145.9700  140.3297  152.5759 H   0  0  0  0  0  0  0  0  0  0  0  0
  146.6921  142.4584  153.6378 H   0  0  0  0  0  0  0  0  0  0  0  0
  148.7809  142.5299  154.9945 H   0  0  0  0  0  0  0  0  0  0  0  0
  152.0493  140.5266  156.5476 H   0  0  0  0  0  0  0  0  0  0  0  0
  151.6504  141.8298  155.4642 H   0  0  0  0  0  0  0  0  0  0  0  0
  149.8124  142.5663  156.8458 H   0  0  0  0  0  0  0  0  0  0  0  0
  149.4285  140.8795  158.6791 H   0  0  0  0  0  0  0  0  0  0  0  0
  150.6569  144.3390  158.1059 H   0  0  0  0  0  0  0  0  0  0  0  0
  153.5217  143.7391  161.2575 H   0  0  0  0  0  0  0  0  0  0  0  0
  153.5670  141.3108  160.7608 H   0  0  0  0  0  0  0  0  0  0  0  0
  1  2  1  0  0  0  0
  1 23  1  0  0  0  0
  2  3  1  0  0  0  0
  2 24  1  0  0  0  0
  2 25  1  0  0  0  0
  3 11  1  0  0  0  0
  3  4  2  0  0  0  0
  4  5  1  0  0  0  0
  5 10  2  0  0  0  0
  5  6  1  0  0  0  0
  6  7  2  0  0  0  0
  6 26  1  0  0  0  0
  7  8  1  0  0  0  0
  7 27  1  0  0  0  0
  8  9  2  0  0  0  0
  8 28  1  0  0  0  0
  9 10  1  0  0  0  0
  9 29  1  0  0  0  0
 10 11  1  0  0  0  0
 11 12  1  0  0  0  0
 12 13  1  0  0  0  0
 12 30  1  0  0  0  0
 12 31  1  0  0  0  0
 13 14  1  0  0  0  0
 13 15  1  0  0  0  0
 13 32  1  0  0  0  0
 14 33  1  0  0  0  0
 15 21  1  0  0  0  0
 15 16  2  0  0  0  0
 16 17  1  0  0  0  0
 16 34  1  0  0  0  0
 17 18  1  0  0  0  0
 17 19  2  0  0  0  0
 19 20  1  0  0  0  0
 19 35  1  0  0  0  0
 20 21  2  0  0  0  0
 20 36  1  0  0  0  0
 21 22  1  0  0  0  0
M  END
> <s_m_source_file>
AV-unprocessed.smi

> <i_m_source_file_index>
309

> <i_lp_mmshare_version>
43012

> <i_f3d_flags>
0

> <s_epik_input>
W2NIXTFbY0hdW2NIXVtjSF1jKGMxMiluKGMobjIpW0NIMl1bT0hdKVtDSDJdW0NASF0oW09IXSljM1tjSF1jKENsKVtjSF1bY0hdYzNDbA==

> <s_epik_cmdline>
J2VwaWtfcHl0aG9uJywgJy1waCcsICc3LjAnLCAnLXRuJywgJzgnLCAnLW1hJywgJzIwMCcsICctbWV0YWxfYmluZGluZycsICctaW1hZScsICc8aW5maWxlLm1hZT4nLCAnLW9tYWUnLCAnPG91dGZpbGUubWFlPic=

> <r_epik_Ionization_Penalty>
0.0634742

> <r_epik_Ionization_Penalty_Charging>
0

> <r_epik_Ionization_Penalty_Neutral>
0.0634742

> <r_epik_State_Penalty>
0.0551572

> <r_epik_Charging_Adjusted_Penalty>
0.0551572

> <i_epik_Tot_Q>
0

> <i_epik_Tot_abs_Q>
0

> <r_epik_Metal_State_Penalty>
5.78034e-05

> <b_epik_Metal_Only>
0

> <s_lp_Force_Field>
OPLS_2005

> <r_lp_Energy>
12.2325

> <b_lp_Chiralities_Consistent>
1

> <s_lp_Variant>
AV-unprocessed.smi:309-2

> <Gold.Version>
5.8.1

> <Gold.Id.Protein>
6NUR|6NUR_protein|mol2

> <Gold.PLP.Fitness>
52.4510

> <Gold.PLP.PLP>
-50.0134

> <Gold.PLP.part.hbond>
-1.0000

> <Gold.PLP.part.metal>
0.0000

> <Gold.PLP.part.buried>
-2.7661

> <Gold.PLP.part.nonpolar>
-46.7696

> <Gold.PLP.part.repulsive>
0.2293

> <Gold.PLP.ligand.clash>
0.0000

> <Gold.PLP.ligand.torsion>
0.2987

> <Gold.PLP.Chemscore.Hbond>
1.0000

> <Gold.PLP.Chemscore.CHOScore>
0.0000

> <Gold.PLP.Chemscore.Metal>
0.0000

> <Gold.Chemscore.Hbonds>
donor molecule, donor type, donor heavy atom, donor atom, acceptor molecule, acceptor atom, score
      P1  H 10752 10763       L1     1  1.00

> <Gold.PLP.Chemscore.Internal.Correction>
0.0349

> <Gold.Rescore>
     Score         DG    S(hbond)    S(metal)    S(lipo)     H(rot)  DE(clash)    DE(int)     intcor
     18.03     -18.45       0.96        0.00     140.80       2.62       0.05       0.37       ----

> <Gold.Chemscore.Fitness>
18.0289

> <Gold.Chemscore.DG>
-18.4470

> <Gold.Chemscore.ZeroCoef>
-5.4800

> <Gold.Chemscore.Hbond>
0.9607

> <Gold.Chemscore.Metal>
0.0000

> <Gold.Chemscore.Lipo>
140.8021

> <Gold.Chemscore.Internal_Hbond>
0.0000

> <Gold.Chemscore.DEClash>
0.0529

> <Gold.Chemscore.DEInternal>
0.3651

> <Gold.Chemscore.Rot>
2.6232

> <Gold.Chemscore.Internal.Correction>
   9.000000E+99

> <Gold.Chemscore.Hbonds>
donor molecule, donor type, donor heavy atom, donor atom, acceptor molecule, acceptor atom, score
      P1  H 10752 10763       L1     1  0.68

> <Gold.Chemscore.Hbond.Weighted>
-3.2086

> <Gold.Chemscore.Metal.Weighted>
-0.0000

> <Gold.Chemscore.Lipo.Weighted>
-16.4738

> <Gold.Chemscore.Internal_Hbond.Weighted>
0.0000

> <Gold.Chemscore.DEClash.Weighted>
0.0529

> <Gold.Chemscore.DEInternal.Weighted>
0.3651

> <Gold.Chemscore.Rot.Weighted>
6.7154

> <Gold.Chemscore.Internal.Correction.Weighted>
   9.000000E+99

> <Gold.Protein.RotatedTorsions>
[ 6907 6896 6895 6894 ] final   19.59 input  -60.11 | X-H torsion
[ 7974 7965 7964 7962 ] final  140.93 input  175.53 | X-H torsion
[ 8008 7997 7996 7995 ] final -165.71 input   59.86 | X-H torsion
[ 10167 10162 10161 10158 ] final  138.78 input  -65.29 | X-H torsion
[ 10718 10713 10712 10709 ] final -131.03 input   66.30 | X-H torsion
[ 10763 10752 10751 10750 ] final   59.73 input  -60.55 | X-H torsion
[ 11005 11000 10999 10996 ] final  139.02 input  -57.11 | X-H torsion

> <Gold.Protein.ActiveResidues>
 VAL166  LYS551  ARG553  GLY616  TRP617  ASP618  TYR619  PRO620  LYS621  CYS622 
 ASP623  PHE694  ASN695  SER759  ASP760  ASP761  ALA762  ILE779  LEU786  VAL792 
 PHE793  MET794  SER795  GLU796  ALA797  LYS798  CYS799  TRP800  GLU811  SER814 

> <Gold.Protein.RotatedAtoms>
  151.8832  135.0445  160.0490 H   0  0  0  0  0  0  0  0  0  0  0  0  # atno 6907 bound_to 6896
  152.2496  133.5199  159.5325 H   0  0  0  0  0  0  0  0  0  0  0  0  # atno 6908 bound_to 6896
  150.7079  134.0895  159.3969 H   0  0  0  0  0  0  0  0  0  0  0  0  # atno 6909 bound_to 6896
  144.9142  139.5253  143.5694 H   0  0  0  0  0  0  0  0  0  0  0  0  # atno 7974 bound_to 7965
  155.8536  140.0967  157.1659 H   0  0  0  0  0  0  0  0  0  0  0  0  # atno 8008 bound_to 7997
  154.3986  140.1378  156.3936 H   0  0  0  0  0  0  0  0  0  0  0  0  # atno 8009 bound_to 7997
  155.7934  140.3455  155.5364 H   0  0  0  0  0  0  0  0  0  0  0  0  # atno 8010 bound_to 7997
  139.5099  144.6333  151.5761 H   0  0  0  0  0  0  0  0  0  0  0  0  # atno 10167 bound_to 10162
  156.2203  130.6974  151.0748 H   0  0  0  0  0  0  0  0  0  0  0  0  # atno 10718 bound_to 10713
  152.9902  135.5561  154.5760 H   0  0  0  0  0  0  0  0  0  0  0  0  # atno 10763 bound_to 10752
  154.5150  135.2804  155.1312 H   0  0  0  0  0  0  0  0  0  0  0  0  # atno 10764 bound_to 10752
  154.2689  135.6367  153.5355 H   0  0  0  0  0  0  0  0  0  0  0  0  # atno 10765 bound_to 10752
  140.0225  134.9390  157.0503 H   0  0  0  0  0  0  0  0  0  0  0  0  # atno 11005 bound_to 11000
  146.3173  139.7971  142.8973 LP  0  0  0  0  0  0  0  0  0  0  0  0  # atno 17320 bound_to 7965
  145.3404  141.0286  143.3396 LP  0  0  0  0  0  0  0  0  0  0  0  0  # atno 17321 bound_to 7965
  140.6073  143.9500  150.6428 LP  0  0  0  0  0  0  0  0  0  0  0  0  # atno 17342 bound_to 10162
  140.2731  143.3442  152.1219 LP  0  0  0  0  0  0  0  0  0  0  0  0  # atno 17343 bound_to 10162
  157.7084  131.0746  150.6587 LP  0  0  0  0  0  0  0  0  0  0  0  0  # atno 17370 bound_to 10713
  156.6650  130.4523  149.5675 LP  0  0  0  0  0  0  0  0  0  0  0  0  # atno 17371 bound_to 10713
  140.4362  134.1728  155.7171 LP  0  0  0  0  0  0  0  0  0  0  0  0  # atno 17394 bound_to 11000
  141.1783  133.8468  157.1347 LP  0  0  0  0  0  0  0  0  0  0  0  0  # atno 17395 bound_to 11000

$$$$
