AV-unprocessed.smi:1768|AV-procd|sdf|7150|dock1
  -GOLD-   22720 8393D 1   1.00000     0.00000
 Structure written by MMmdl.
 32 33  0  0  0  0  0  0  0  0  2 V2000
  150.1532  134.8590  154.7474 C   0  0  0  0  0  0  0  0  0  0  0  0
  150.9909  136.0133  155.1792 C   0  0  0  0  0  0  0  0  0  0  0  0
  152.0554  135.8749  155.9731 N   0  0  0  0  0  0  0  0  0  0  0  0
  152.6741  137.0890  156.2345 N   0  0  0  0  0  0  0  0  0  0  0  0
  152.0661  138.1270  155.6427 C   0  0  0  0  0  0  0  0  0  0  0  0
  152.5097  139.3886  155.7687 N   0  5  0  0  0  0  0  0  0  0  0  0
  151.6288  140.4141  155.8076 C   0  0  0  0  0  0  0  0  0  0  0  0
  150.8146  140.7088  154.9298 O   0  0  0  0  0  0  0  0  0  0  0  0
  151.7051  141.1456  156.9295 N   0  0  0  0  0  0  0  0  0  0  0  0
  150.9007  142.3196  157.2675 C   0  0  1  0  0  0  0  0  0  0  0  0
  149.7021  141.8682  158.1148 C   0  0  0  0  0  0  0  0  0  0  0  0
  151.7595  143.3672  158.0058 C   0  0  1  0  0  0  0  0  0  0  0  0
  151.0539  144.6881  158.3143 C   0  0  0  0  0  0  0  0  0  0  0  0
  151.8610  145.2511  159.4709 C   0  0  0  0  0  0  0  0  0  0  0  0
  152.5791  144.0285  160.0502 C   0  0  0  0  0  0  0  0  0  0  0  0
  152.1017  142.9141  159.3068 O   0  0  0  0  0  0  0  0  0  0  0  0
  150.6637  137.6638  154.6789 S   0  0  0  0  0  0  0  0  0  0  0  0
  149.9158  134.2254  155.6023 H   0  0  0  0  0  0  0  0  0  0  0  0
  150.6902  134.2654  154.0074 H   0  0  0  0  0  0  0  0  0  0  0  0
  149.2211  135.2110  154.3054 H   0  0  0  0  0  0  0  0  0  0  0  0
  152.3895  140.8586  157.6134 H   0  0  0  0  0  0  0  0  0  0  0  0
  150.5044  142.7732  156.3574 H   0  0  0  0  0  0  0  0  0  0  0  0
  149.0535  142.7093  158.3602 H   0  0  0  0  0  0  0  0  0  0  0  0
  150.0260  141.4134  159.0516 H   0  0  0  0  0  0  0  0  0  0  0  0
  149.0980  141.1349  157.5795 H   0  0  0  0  0  0  0  0  0  0  0  0
  152.6783  143.5632  157.4494 H   0  0  0  0  0  0  0  0  0  0  0  0
  151.0147  145.3601  157.4563 H   0  0  0  0  0  0  0  0  0  0  0  0
  150.0304  144.4993  158.6412 H   0  0  0  0  0  0  0  0  0  0  0  0
  152.5875  145.9843  159.1187 H   0  0  0  0  0  0  0  0  0  0  0  0
  151.2190  145.7391  160.2049 H   0  0  0  0  0  0  0  0  0  0  0  0
  153.6579  144.1180  159.9158 H   0  0  0  0  0  0  0  0  0  0  0  0
  152.3793  143.8938  161.1134 H   0  0  0  0  0  0  0  0  0  0  0  0
  1  2  1  0  0  0  0
  1 18  1  0  0  0  0
  1 19  1  0  0  0  0
  1 20  1  0  0  0  0
  2 17  1  0  0  0  0
  2  3  2  0  0  0  0
  3  4  1  0  0  0  0
  4  5  2  0  0  0  0
  5  6  1  0  0  0  0
  5 17  1  0  0  0  0
  6  7  1  0  0  0  0
  7  8  2  0  0  0  0
  7  9  1  0  0  0  0
  9 10  1  0  0  0  0
  9 21  1  0  0  0  0
 10 11  1  0  0  0  0
 10 12  1  0  0  0  0
 10 22  1  0  0  0  0
 11 23  1  0  0  0  0
 11 24  1  0  0  0  0
 11 25  1  0  0  0  0
 12 16  1  0  0  0  0
 12 13  1  0  0  0  0
 12 26  1  0  0  0  0
 13 14  1  0  0  0  0
 13 27  1  0  0  0  0
 13 28  1  0  0  0  0
 14 15  1  0  0  0  0
 14 29  1  0  0  0  0
 14 30  1  0  0  0  0
 15 16  1  0  0  0  0
 15 31  1  0  0  0  0
 15 32  1  0  0  0  0
M  CHG  1   6  -1
M  END
> <s_m_source_file>
AV-unprocessed.smi

> <i_m_source_file_index>
1768

> <i_lp_mmshare_version>
43012

> <i_f3d_flags>
0

> <s_epik_input>
W0NIM11jMW5uYyhzMSlbTkhdQyg9TylbTkhdW0NASF0oW0NIM10pW0NAQEhdMltDSDJdW0NIMl1bQ0gyXU8y

> <s_epik_cmdline>
J2VwaWtfcHl0aG9uJywgJy1waCcsICc3LjAnLCAnLXRuJywgJzgnLCAnLW1hJywgJzIwMCcsICctbWV0YWxfYmluZGluZycsICctaW1hZScsICc8aW5maWxlLm1hZT4nLCAnLW9tYWUnLCAnPG91dGZpbGUubWFlPic=

> <r_lp_tautomer_probability>
1

> <r_epik_Ionization_Penalty>
4.3376

> <r_epik_Ionization_Penalty_Charging>
4.19392

> <r_epik_Ionization_Penalty_Neutral>
0.143681

> <r_epik_State_Penalty>
4.19342

> <r_epik_Charging_Adjusted_Penalty>
8.38735

> <i_epik_Tot_Q>
-1

> <i_epik_Tot_abs_Q>
1

> <r_epik_Metal_State_Penalty>
0.686065

> <b_epik_Metal_Only>
1

> <s_lp_Force_Field>
OPLS_2005

> <r_lp_Energy>
15.6479

> <b_lp_Chiralities_Consistent>
1

> <s_lp_Variant>
AV-unprocessed.smi:1768-8

> <Gold.Version>
5.8.1

> <Gold.Id.Protein>
6NUR|6NUR_protein|mol2

> <Gold.PLP.Fitness>
40.5105

> <Gold.PLP.PLP>
-32.9613

> <Gold.PLP.part.hbond>
-3.9745

> <Gold.PLP.part.metal>
0.0000

> <Gold.PLP.part.buried>
-3.3261

> <Gold.PLP.part.nonpolar>
-25.7560

> <Gold.PLP.part.repulsive>
0.1908

> <Gold.PLP.ligand.clash>
0.0000

> <Gold.PLP.ligand.torsion>
1.1865

> <Gold.PLP.Chemscore.Hbond>
3.2940

> <Gold.PLP.Chemscore.CHOScore>
0.0000

> <Gold.PLP.Chemscore.Metal>
0.0000

> <Gold.Chemscore.Hbonds>
donor molecule, donor type, donor heavy atom, donor atom, acceptor molecule, acceptor atom, score
      P1  H  7989  7998       L1     8  0.91
      P1  H  7997  8010       L1     6  1.98
      P1  H 10752 10765       L1     3  0.35

> <Gold.PLP.Chemscore.Internal.Correction>
0.0401

> <Gold.Rescore>
     Score         DG    S(hbond)    S(metal)    S(lipo)     H(rot)  DE(clash)    DE(int)     intcor
     15.31     -16.74       1.79        0.00      73.03       1.28       0.32       1.11       ----

> <Gold.Chemscore.Fitness>
15.3059

> <Gold.Chemscore.DG>
-16.7356

> <Gold.Chemscore.ZeroCoef>
-5.4800

> <Gold.Chemscore.Hbond>
1.7911

> <Gold.Chemscore.Metal>
0.0000

> <Gold.Chemscore.Lipo>
73.0254

> <Gold.Chemscore.Internal_Hbond>
0.0000

> <Gold.Chemscore.DEClash>
0.3217

> <Gold.Chemscore.DEInternal>
1.1080

> <Gold.Chemscore.Rot>
1.2776

> <Gold.Chemscore.Internal.Correction>
   9.000000E+99

> <Gold.Chemscore.Hbonds>
donor molecule, donor type, donor heavy atom, donor atom, acceptor molecule, acceptor atom, score
      P1  H  7989  7998       L1     8  0.57
      P1  H  7997  8010       L1     6  0.60
      P1  H 10752 10765       L1     3  0.01

> <Gold.Chemscore.Hbond.Weighted>
-5.9822

> <Gold.Chemscore.Metal.Weighted>
-0.0000

> <Gold.Chemscore.Lipo.Weighted>
-8.5440

> <Gold.Chemscore.Internal_Hbond.Weighted>
0.0000

> <Gold.Chemscore.DEClash.Weighted>
0.3217

> <Gold.Chemscore.DEInternal.Weighted>
1.1080

> <Gold.Chemscore.Rot.Weighted>
3.2706

> <Gold.Chemscore.Internal.Correction.Weighted>
   9.000000E+99

> <Gold.Protein.RotatedTorsions>
[ 6907 6896 6895 6894 ] final  -23.55 input  -60.11 | X-H torsion
[ 7974 7965 7964 7962 ] final -103.26 input  175.53 | X-H torsion
[ 8008 7997 7996 7995 ] final   85.12 input   59.86 | X-H torsion
[ 10167 10162 10161 10158 ] final   84.15 input  -65.29 | X-H torsion
[ 10718 10713 10712 10709 ] final  -39.24 input   66.30 | X-H torsion
[ 10763 10752 10751 10750 ] final -128.43 input  -60.55 | X-H torsion
[ 11005 11000 10999 10996 ] final  -88.71 input  -57.11 | X-H torsion

> <Gold.Protein.ActiveResidues>
 VAL166  LYS551  ARG553  GLY616  TRP617  ASP618  TYR619  PRO620  LYS621  CYS622 
 ASP623  PHE694  ASN695  SER759  ASP760  ASP761  ALA762  ILE779  LEU786  VAL792 
 PHE793  MET794  SER795  GLU796  ALA797  LYS798  CYS799  TRP800  GLU811  SER814 

> <Gold.Protein.RotatedAtoms>
  151.2023  135.0448  159.8877 H   0  0  0  0  0  0  0  0  0  0  0  0  # atno 6907 bound_to 6896
  152.5431  134.0836  159.8256 H   0  0  0  0  0  0  0  0  0  0  0  0  # atno 6908 bound_to 6896
  151.0978  133.5219  159.2643 H   0  0  0  0  0  0  0  0  0  0  0  0  # atno 6909 bound_to 6896
  145.2582  140.9260  143.3056 H   0  0  0  0  0  0  0  0  0  0  0  0  # atno 7974 bound_to 7965
  155.9459  140.3404  155.6366 H   0  0  0  0  0  0  0  0  0  0  0  0  # atno 8008 bound_to 7997
  155.6981  140.0757  157.2439 H   0  0  0  0  0  0  0  0  0  0  0  0  # atno 8009 bound_to 7997
  154.4112  140.1645  156.2148 H   0  0  0  0  0  0  0  0  0  0  0  0  # atno 8010 bound_to 7997
  139.9110  144.6272  150.8538 H   0  0  0  0  0  0  0  0  0  0  0  0  # atno 10167 bound_to 10162
  156.2947  130.4232  149.8203 H   0  0  0  0  0  0  0  0  0  0  0  0  # atno 10718 bound_to 10713
  154.8756  135.3929  154.3755 H   0  0  0  0  0  0  0  0  0  0  0  0  # atno 10763 bound_to 10752
  153.4509  135.7028  153.6115 H   0  0  0  0  0  0  0  0  0  0  0  0  # atno 10764 bound_to 10752
  153.4655  135.3802  155.2331 H   0  0  0  0  0  0  0  0  0  0  0  0  # atno 10765 bound_to 10752
  141.1597  133.7586  156.9490 H   0  0  0  0  0  0  0  0  0  0  0  0  # atno 11005 bound_to 11000
  144.9442  139.4155  143.6434 LP  0  0  0  0  0  0  0  0  0  0  0  0  # atno 17320 bound_to 7965
  146.3283  139.8417  142.8889 LP  0  0  0  0  0  0  0  0  0  0  0  0  # atno 17321 bound_to 7965
  140.7685  143.3366  151.2296 LP  0  0  0  0  0  0  0  0  0  0  0  0  # atno 17342 bound_to 10162
  139.6943  143.9640  152.2875 LP  0  0  0  0  0  0  0  0  0  0  0  0  # atno 17343 bound_to 10162
  156.5603  130.8380  151.3326 LP  0  0  0  0  0  0  0  0  0  0  0  0  # atno 17370 bound_to 10713
  157.7352  130.9758  150.2069 LP  0  0  0  0  0  0  0  0  0  0  0  0  # atno 17371 bound_to 10713
  140.1270  134.9381  157.2283 LP  0  0  0  0  0  0  0  0  0  0  0  0  # atno 17394 bound_to 11000
  140.3001  134.3142  155.7292 LP  0  0  0  0  0  0  0  0  0  0  0  0  # atno 17395 bound_to 11000

$$$$
