AV-unprocessed.smi:2568|AV-procd|sdf|10091|dock5
  -GOLD-   2272014113D 1   1.00000     0.00000
 Structure written by MMmdl.
 24 25  0  0  0  0  0  0  0  0  1 V2000
  149.8489  141.4313  156.0672 C   0  0  0  0  0  0  0  0  0  0  0  0
  150.6114  142.1930  157.0976 C   0  0  0  0  0  0  0  0  0  0  0  0
  150.4516  143.5058  157.2724 N   0  0  0  0  0  0  0  0  0  0  0  0
  151.2572  143.9248  158.2710 N   0  0  0  0  0  0  0  0  0  0  0  0
  151.8762  142.7976  158.6220 C   0  0  0  0  0  0  0  0  0  0  0  0
  152.8593  142.7826  159.7517 C   0  0  1  0  0  0  0  0  0  0  0  0
  152.2191  143.2191  161.0842 C   0  0  0  0  0  0  0  0  0  0  0  0
  153.1848  143.0942  162.1754 N   0  0  0  0  0  0  0  0  0  0  0  0
  153.7324  141.7401  162.2436 C   0  0  0  0  0  0  0  0  0  0  0  0
  154.3296  141.3338  160.8839 C   0  0  0  0  0  0  0  0  0  0  0  0
  153.3345  141.4436  159.8720 O   0  0  0  0  0  0  0  0  0  0  0  0
  151.5011  141.6734  157.9357 N   0  0  0  0  0  0  0  0  0  0  0  0
  149.8328  144.1232  156.7663 H   0  0  0  0  0  0  0  0  0  0  0  0
  150.1779  140.3920  156.0398 H   0  0  0  0  0  0  0  0  0  0  0  0
  150.0057  141.8720  155.0824 H   0  0  0  0  0  0  0  0  0  0  0  0
  148.7836  141.4538  156.2975 H   0  0  0  0  0  0  0  0  0  0  0  0
  153.6933  143.4410  159.4994 H   0  0  0  0  0  0  0  0  0  0  0  0
  151.8657  144.2480  161.0132 H   0  0  0  0  0  0  0  0  0  0  0  0
  151.3452  142.6005  161.2928 H   0  0  0  0  0  0  0  0  0  0  0  0
  152.7349  143.3241  163.0557 H   0  0  0  0  0  0  0  0  0  0  0  0
  154.4954  141.6839  163.0201 H   0  0  0  0  0  0  0  0  0  0  0  0
  152.9477  141.0361  162.5235 H   0  0  0  0  0  0  0  0  0  0  0  0
  155.1916  141.9543  160.6338 H   0  0  0  0  0  0  0  0  0  0  0  0
  154.6803  140.3023  160.9219 H   0  0  0  0  0  0  0  0  0  0  0  0
  1 14  1  0  0  0  0
  1 15  1  0  0  0  0
  1 16  1  0  0  0  0
  1  2  1  0  0  0  0
  2 12  2  0  0  0  0
  2  3  1  0  0  0  0
  3  4  1  0  0  0  0
  3 13  1  0  0  0  0
  4  5  2  0  0  0  0
  5 12  1  0  0  0  0
  5  6  1  0  0  0  0
  6 11  1  0  0  0  0
  6  7  1  0  0  0  0
  6 17  1  0  0  0  0
  7  8  1  0  0  0  0
  7 18  1  0  0  0  0
  7 19  1  0  0  0  0
  8  9  1  0  0  0  0
  8 20  1  0  0  0  0
  9 10  1  0  0  0  0
  9 21  1  0  0  0  0
  9 22  1  0  0  0  0
 10 11  1  0  0  0  0
 10 23  1  0  0  0  0
 10 24  1  0  0  0  0
M  END
> <s_m_source_file>
AV-unprocessed.smi

> <i_m_source_file_index>
2568

> <i_lp_mmshare_version>
43012

> <i_f3d_flags>
0

> <s_epik_input>
W0NIM11jMW5bbkhdYyhuMSlbQ0BASF0yW0NIMl1bTkhdW0NIMl1bQ0gyXU8y

> <s_epik_cmdline>
J2VwaWtfcHl0aG9uJywgJy1waCcsICc3LjAnLCAnLXRuJywgJzgnLCAnLW1hJywgJzIwMCcsICctbWV0YWxfYmluZGluZycsICctaW1hZScsICc8aW5maWxlLm1hZT4nLCAnLW9tYWUnLCAnPG91dGZpbGUubWFlPic=

> <r_epik_Ionization_Penalty>
1.10101

> <r_epik_Ionization_Penalty_Charging>
0

> <r_epik_Ionization_Penalty_Neutral>
1.10101

> <r_epik_State_Penalty>
1.26524

> <r_epik_Charging_Adjusted_Penalty>
1.26524

> <i_epik_Tot_Q>
0

> <i_epik_Tot_abs_Q>
0

> <r_epik_Metal_State_Penalty>
1.56429

> <b_epik_Metal_Only>
0

> <s_lp_Force_Field>
OPLS_2005

> <r_lp_Energy>
12.1745

> <b_lp_Chiralities_Consistent>
1

> <s_lp_Variant>
AV-unprocessed.smi:2568-4

> <Gold.Version>
5.8.1

> <Gold.Id.Protein>
6NUR|6NUR_protein|mol2

> <Gold.PLP.Fitness>
28.1073

> <Gold.PLP.PLP>
-25.1200

> <Gold.PLP.part.hbond>
-1.0000

> <Gold.PLP.part.metal>
0.0000

> <Gold.PLP.part.buried>
-3.4789

> <Gold.PLP.part.nonpolar>
-20.6459

> <Gold.PLP.part.repulsive>
0.1377

> <Gold.PLP.ligand.clash>
0.0000

> <Gold.PLP.ligand.torsion>
0.0127

> <Gold.PLP.Chemscore.Hbond>
1.0000

> <Gold.PLP.Chemscore.CHOScore>
0.0000

> <Gold.PLP.Chemscore.Metal>
0.0000

> <Gold.Chemscore.Hbonds>
donor molecule, donor type, donor heavy atom, donor atom, acceptor molecule, acceptor atom, score
      L1  H     3    13       P1  8028  1.00

> <Gold.PLP.Chemscore.Internal.Correction>
0.0126

> <Gold.Rescore>
     Score         DG    S(hbond)    S(metal)    S(lipo)     H(rot)  DE(clash)    DE(int)     intcor
     12.11     -12.29       0.99        0.00      51.73       1.00       0.00       0.17       ----

> <Gold.Chemscore.Fitness>
12.1085

> <Gold.Chemscore.DG>
-12.2872

> <Gold.Chemscore.ZeroCoef>
-5.4800

> <Gold.Chemscore.Hbond>
0.9926

> <Gold.Chemscore.Metal>
0.0000

> <Gold.Chemscore.Lipo>
51.7264

> <Gold.Chemscore.Internal_Hbond>
0.0000

> <Gold.Chemscore.DEClash>
0.0038

> <Gold.Chemscore.DEInternal>
0.1749

> <Gold.Chemscore.Rot>
1.0000

> <Gold.Chemscore.Internal.Correction>
   9.000000E+99

> <Gold.Chemscore.Hbonds>
donor molecule, donor type, donor heavy atom, donor atom, acceptor molecule, acceptor atom, score
      L1  H     3    13       P1  8028  0.90

> <Gold.Chemscore.Hbond.Weighted>
-3.3152

> <Gold.Chemscore.Metal.Weighted>
-0.0000

> <Gold.Chemscore.Lipo.Weighted>
-6.0520

> <Gold.Chemscore.Internal_Hbond.Weighted>
0.0000

> <Gold.Chemscore.DEClash.Weighted>
0.0038

> <Gold.Chemscore.DEInternal.Weighted>
0.1749

> <Gold.Chemscore.Rot.Weighted>
2.5600

> <Gold.Chemscore.Internal.Correction.Weighted>
   9.000000E+99

> <Gold.Protein.RotatedTorsions>
[ 6907 6896 6895 6894 ] final   35.77 input  -60.11 | X-H torsion
[ 7974 7965 7964 7962 ] final  -25.81 input  175.53 | X-H torsion
[ 8008 7997 7996 7995 ] final   26.48 input   59.86 | X-H torsion
[ 10167 10162 10161 10158 ] final -104.86 input  -65.29 | X-H torsion
[ 10718 10713 10712 10709 ] final  -52.84 input   66.30 | X-H torsion
[ 10763 10752 10751 10750 ] final  144.85 input  -60.55 | X-H torsion
[ 11005 11000 10999 10996 ] final   80.37 input  -57.11 | X-H torsion

> <Gold.Protein.ActiveResidues>
 VAL166  LYS551  ARG553  GLY616  TRP617  ASP618  TYR619  PRO620  LYS621  CYS622 
 ASP623  PHE694  ASN695  SER759  ASP760  ASP761  ALA762  ILE779  LEU786  VAL792 
 PHE793  MET794  SER795  GLU796  ALA797  LYS798  CYS799  TRP800  GLU811  SER814 

> <Gold.Protein.RotatedAtoms>
  152.1207  134.9207  160.0562 H   0  0  0  0  0  0  0  0  0  0  0  0  # atno 6907 bound_to 6896
  152.0349  133.3948  159.4321 H   0  0  0  0  0  0  0  0  0  0  0  0  # atno 6908 bound_to 6896
  150.6849  134.3400  159.4907 H   0  0  0  0  0  0  0  0  0  0  0  0  # atno 6909 bound_to 6896
  146.1467  140.4936  142.8629 H   0  0  0  0  0  0  0  0  0  0  0  0  # atno 7974 bound_to 7965
  155.0279  140.3155  155.4769 H   0  0  0  0  0  0  0  0  0  0  0  0  # atno 8008 bound_to 7997
  156.2880  140.2185  156.5342 H   0  0  0  0  0  0  0  0  0  0  0  0  # atno 8009 bound_to 7997
  154.7396  140.0474  157.0787 H   0  0  0  0  0  0  0  0  0  0  0  0  # atno 8010 bound_to 7997
  140.2047  143.3791  152.1100 H   0  0  0  0  0  0  0  0  0  0  0  0  # atno 10167 bound_to 10162
  156.1587  130.4150  149.9828 H   0  0  0  0  0  0  0  0  0  0  0  0  # atno 10718 bound_to 10713
  153.9956  135.2928  155.3407 H   0  0  0  0  0  0  0  0  0  0  0  0  # atno 10763 bound_to 10752
  154.7189  135.5118  153.8784 H   0  0  0  0  0  0  0  0  0  0  0  0  # atno 10764 bound_to 10752
  153.0789  135.6672  154.0204 H   0  0  0  0  0  0  0  0  0  0  0  0  # atno 10765 bound_to 10752
  139.9137  134.7915  156.1901 H   0  0  0  0  0  0  0  0  0  0  0  0  # atno 11005 bound_to 11000
  144.7854  140.5926  143.6577 LP  0  0  0  0  0  0  0  0  0  0  0  0  # atno 17320 bound_to 7965
  145.4921  139.1488  143.3704 LP  0  0  0  0  0  0  0  0  0  0  0  0  # atno 17321 bound_to 7965
  139.5203  144.7031  151.5435 LP  0  0  0  0  0  0  0  0  0  0  0  0  # atno 17342 bound_to 10162
  140.6365  143.8973  150.6652 LP  0  0  0  0  0  0  0  0  0  0  0  0  # atno 17343 bound_to 10162
  156.7664  130.9170  151.3643 LP  0  0  0  0  0  0  0  0  0  0  0  0  # atno 17370 bound_to 10713
  157.6715  130.9055  150.0051 LP  0  0  0  0  0  0  0  0  0  0  0  0  # atno 17371 bound_to 10713
  141.0589  133.6851  156.1914 LP  0  0  0  0  0  0  0  0  0  0  0  0  # atno 17394 bound_to 11000
  140.6693  134.4885  157.5586 LP  0  0  0  0  0  0  0  0  0  0  0  0  # atno 17395 bound_to 11000

$$$$
