AV-unprocessed.smi:2133|AV-procd|sdf|8692|dock10
  -GOLD-   2272011453D 1   1.00000     0.00000
 Structure written by MMmdl.
 45 47  0  0  0  0  0  0  0  0  1 V2000
  145.8295  135.5784  162.4028 C   0  0  0  0  0  0  0  0  0  0  0  0
  146.4600  135.3173  161.0950 N   0  0  0  0  0  0  0  0  0  0  0  0
  147.2231  136.3077  160.5339 C   0  0  0  0  0  0  0  0  0  0  0  0
  147.4344  137.4076  161.0453 O   0  0  0  0  0  0  0  0  0  0  0  0
  147.7948  135.9505  159.2314 C   0  0  0  0  0  0  0  0  0  0  0  0
  147.5950  134.7448  158.6460 C   0  0  0  0  0  0  0  0  0  0  0  0
  148.2491  134.6594  157.4224 N   0  0  0  0  0  0  0  0  0  0  0  0
  148.8246  135.8585  157.3318 C   0  0  0  0  0  0  0  0  0  0  0  0
  148.6042  136.6909  158.3698 N   0  0  0  0  0  0  0  0  0  0  0  0
  149.1220  138.0446  158.5000 C   0  0  0  0  0  0  0  0  0  0  0  0
  150.6623  138.0867  158.5432 C   0  0  2  0  0  0  0  0  0  0  0  0
  151.1531  137.1162  159.4466 O   0  0  0  0  0  0  0  0  0  0  0  0
  151.1970  139.4627  158.9653 C   0  0  0  0  0  0  0  0  0  0  0  0
  150.6760  140.4461  158.0867 O   0  0  0  0  0  0  0  0  0  0  0  0
  151.6642  141.3461  157.6122 C   0  0  0  0  0  0  0  0  0  0  0  0
  151.9195  142.4798  158.5882 C   0  0  0  0  0  0  0  0  0  0  0  0
  152.2765  142.2064  159.9263 C   0  0  0  0  0  0  0  0  0  0  0  0
  152.4966  143.2633  160.8313 C   0  0  0  0  0  0  0  0  0  0  0  0
  152.3538  144.5978  160.4049 C   0  0  0  0  0  0  0  0  0  0  0  0
  151.9886  144.8752  159.0735 C   0  0  0  0  0  0  0  0  0  0  0  0
  151.7690  143.8186  158.1681 C   0  0  0  0  0  0  0  0  0  0  0  0
  146.7947  133.7868  159.3157 N   0  0  0  0  0  0  0  0  0  0  0  0
  146.6032  132.4939  158.6516 C   0  0  0  0  0  0  0  0  0  0  0  0
  146.2262  134.0730  160.5335 C   0  0  0  0  0  0  0  0  0  0  0  0
  145.5239  133.2393  161.1119 O   0  0  0  0  0  0  0  0  0  0  0  0
  146.0318  136.5642  162.8225 H   0  0  0  0  0  0  0  0  0  0  0  0
  146.1719  134.8522  163.1417 H   0  0  0  0  0  0  0  0  0  0  0  0
  144.7443  135.4921  162.3260 H   0  0  0  0  0  0  0  0  0  0  0  0
  149.4295  136.1415  156.4827 H   0  0  0  0  0  0  0  0  0  0  0  0
  148.7624  138.6190  157.6453 H   0  0  0  0  0  0  0  0  0  0  0  0
  148.6915  138.5232  159.3781 H   0  0  0  0  0  0  0  0  0  0  0  0
  151.0593  137.8429  157.5569 H   0  0  0  0  0  0  0  0  0  0  0  0
  151.8829  137.4873  159.9183 H   0  0  0  0  0  0  0  0  0  0  0  0
  150.9153  139.6835  159.9964 H   0  0  0  0  0  0  0  0  0  0  0  0
  152.2871  139.4718  158.9124 H   0  0  0  0  0  0  0  0  0  0  0  0
  152.5961  140.8065  157.4355 H   0  0  0  0  0  0  0  0  0  0  0  0
  151.3493  141.7752  156.6599 H   0  0  0  0  0  0  0  0  0  0  0  0
  152.3835  141.1862  160.2648 H   0  0  0  0  0  0  0  0  0  0  0  0
  152.7732  143.0496  161.8533 H   0  0  0  0  0  0  0  0  0  0  0  0
  152.5213  145.4078  161.0995 H   0  0  0  0  0  0  0  0  0  0  0  0
  151.8753  145.8984  158.7469 H   0  0  0  0  0  0  0  0  0  0  0  0
  151.4859  144.0398  157.1494 H   0  0  0  0  0  0  0  0  0  0  0  0
  145.9787  131.7908  159.2034 H   0  0  0  0  0  0  0  0  0  0  0  0
  147.5688  132.0128  158.4922 H   0  0  0  0  0  0  0  0  0  0  0  0
  146.1391  132.6425  157.6760 H   0  0  0  0  0  0  0  0  0  0  0  0
  1  2  1  0  0  0  0
  1 26  1  0  0  0  0
  1 27  1  0  0  0  0
  1 28  1  0  0  0  0
  2 24  1  0  0  0  0
  2  3  1  0  0  0  0
  3  4  2  0  0  0  0
  3  5  1  0  0  0  0
  5  9  1  0  0  0  0
  5  6  2  0  0  0  0
  6  7  1  0  0  0  0
  6 22  1  0  0  0  0
  7  8  2  0  0  0  0
  8  9  1  0  0  0  0
  8 29  1  0  0  0  0
  9 10  1  0  0  0  0
 10 11  1  0  0  0  0
 10 30  1  0  0  0  0
 10 31  1  0  0  0  0
 11 12  1  0  0  0  0
 11 13  1  0  0  0  0
 11 32  1  0  0  0  0
 12 33  1  0  0  0  0
 13 14  1  0  0  0  0
 13 34  1  0  0  0  0
 13 35  1  0  0  0  0
 14 15  1  0  0  0  0
 15 16  1  0  0  0  0
 15 36  1  0  0  0  0
 15 37  1  0  0  0  0
 16 21  1  0  0  0  0
 16 17  2  0  0  0  0
 17 18  1  0  0  0  0
 17 38  1  0  0  0  0
 18 19  2  0  0  0  0
 18 39  1  0  0  0  0
 19 20  1  0  0  0  0
 19 40  1  0  0  0  0
 20 21  2  0  0  0  0
 20 41  1  0  0  0  0
 21 42  1  0  0  0  0
 22 23  1  0  0  0  0
 22 24  1  0  0  0  0
 23 43  1  0  0  0  0
 23 44  1  0  0  0  0
 23 45  1  0  0  0  0
 24 25  2  0  0  0  0
M  END
> <s_m_source_file>
AV-unprocessed.smi

> <i_m_source_file_index>
2133

> <i_lp_mmshare_version>
43012

> <i_f3d_flags>
0

> <s_epik_input>
Tz1jMW4oW0NIM10pYyg9TyluKFtDSDNdKWMoYzEyKW5bY0hdbjJbQ0gyXVtDQEhdKFtPSF0pW0NIMl1PW0NIMl1jM1tjSF1bY0hdW2NIXVtjSF1bY0hdMw==

> <s_epik_cmdline>
J2VwaWtfcHl0aG9uJywgJy1waCcsICc3LjAnLCAnLXRuJywgJzgnLCAnLW1hJywgJzIwMCcsICctbWV0YWxfYmluZGluZycsICctaW1hZScsICc8aW5maWxlLm1hZT4nLCAnLW9tYWUnLCAnPG91dGZpbGUubWFlPic=

> <r_lp_tautomer_probability>
1

> <r_epik_Ionization_Penalty>
1.52174e-06

> <r_epik_Ionization_Penalty_Charging>
3.83535e-09

> <r_epik_Ionization_Penalty_Neutral>
1.5179e-06

> <r_epik_State_Penalty>
-0

> <r_epik_Charging_Adjusted_Penalty>
3.83535e-09

> <i_epik_Tot_Q>
0

> <i_epik_Tot_abs_Q>
0

> <r_epik_Metal_State_Penalty>
-0

> <b_epik_Metal_Only>
0

> <s_lp_Force_Field>
OPLS_2005

> <r_lp_Energy>
38.2919

> <b_lp_Chiralities_Consistent>
1

> <s_lp_Variant>
AV-unprocessed.smi:2133-1

> <Gold.Version>
5.8.1

> <Gold.Id.Protein>
6NUR|6NUR_protein|mol2

> <Gold.PLP.Fitness>
54.6981

> <Gold.PLP.PLP>
-47.7130

> <Gold.PLP.part.hbond>
-3.0000

> <Gold.PLP.part.metal>
0.0000

> <Gold.PLP.part.buried>
-6.1970

> <Gold.PLP.part.nonpolar>
-37.6879

> <Gold.PLP.part.repulsive>
0.0175

> <Gold.PLP.ligand.clash>
0.0000

> <Gold.PLP.ligand.torsion>
0.5659

> <Gold.PLP.Chemscore.Hbond>
2.6793

> <Gold.PLP.Chemscore.CHOScore>
0.0000

> <Gold.PLP.Chemscore.Metal>
0.0000

> <Gold.Chemscore.Hbonds>
donor molecule, donor type, donor heavy atom, donor atom, acceptor molecule, acceptor atom, score
      P1  H  6896  6907       L1    12  0.95
      P1  H  6931  6943       L1     4  0.75
      P1  H  6934  6947       L1     4  1.00

> <Gold.PLP.Chemscore.Internal.Correction>
0.0791

> <Gold.Rescore>
     Score         DG    S(hbond)    S(metal)    S(lipo)     H(rot)  DE(clash)    DE(int)     intcor
     18.65     -19.35       2.72        0.00     104.63       2.91       0.09       0.62       ----

> <Gold.Chemscore.Fitness>
18.6451

> <Gold.Chemscore.DG>
-19.3504

> <Gold.Chemscore.ZeroCoef>
-5.4800

> <Gold.Chemscore.Hbond>
2.7203

> <Gold.Chemscore.Metal>
0.0000

> <Gold.Chemscore.Lipo>
104.6347

> <Gold.Chemscore.Internal_Hbond>
0.0000

> <Gold.Chemscore.DEClash>
0.0894

> <Gold.Chemscore.DEInternal>
0.6159

> <Gold.Chemscore.Rot>
2.9132

> <Gold.Chemscore.Internal.Correction>
   9.000000E+99

> <Gold.Chemscore.Hbonds>
donor molecule, donor type, donor heavy atom, donor atom, acceptor molecule, acceptor atom, score
      P1  H  6896  6907       L1    12  0.20
      P1  H  6931  6943       L1     4  0.73
      P1  H  6934  6947       L1     4  0.94

> <Gold.Chemscore.Hbond.Weighted>
-9.0859

> <Gold.Chemscore.Metal.Weighted>
-0.0000

> <Gold.Chemscore.Lipo.Weighted>
-12.2423

> <Gold.Chemscore.Internal_Hbond.Weighted>
0.0000

> <Gold.Chemscore.DEClash.Weighted>
0.0894

> <Gold.Chemscore.DEInternal.Weighted>
0.6159

> <Gold.Chemscore.Rot.Weighted>
7.4578

> <Gold.Chemscore.Internal.Correction.Weighted>
   9.000000E+99

> <Gold.Protein.RotatedTorsions>
[ 6907 6896 6895 6894 ] final   -8.22 input  -60.11 | X-H torsion
[ 7974 7965 7964 7962 ] final  -38.05 input  175.53 | X-H torsion
[ 8008 7997 7996 7995 ] final  -51.22 input   59.86 | X-H torsion
[ 10167 10162 10161 10158 ] final  -60.42 input  -65.29 | X-H torsion
[ 10718 10713 10712 10709 ] final -165.29 input   66.30 | X-H torsion
[ 10763 10752 10751 10750 ] final  128.41 input  -60.55 | X-H torsion
[ 11005 11000 10999 10996 ] final -150.52 input  -57.11 | X-H torsion

> <Gold.Protein.ActiveResidues>
 VAL166  LYS551  ARG553  GLY616  TRP617  ASP618  TYR619  PRO620  LYS621  CYS622 
 ASP623  PHE694  ASN695  SER759  ASP760  ASP761  ALA762  ILE779  LEU786  VAL792 
 PHE793  MET794  SER795  GLU796  ALA797  LYS798  CYS799  TRP800  GLU811  SER814 

> <Gold.Protein.RotatedAtoms>
  151.4372  135.1016  159.9659 H   0  0  0  0  0  0  0  0  0  0  0  0  # atno 6907 bound_to 6896
  152.4935  133.8563  159.7237 H   0  0  0  0  0  0  0  0  0  0  0  0  # atno 6908 bound_to 6896
  150.9114  133.6935  159.2881 H   0  0  0  0  0  0  0  0  0  0  0  0  # atno 6909 bound_to 6896
  146.0521  140.6467  142.9037 H   0  0  0  0  0  0  0  0  0  0  0  0  # atno 7974 bound_to 7965
  154.4078  140.1253  156.4794 H   0  0  0  0  0  0  0  0  0  0  0  0  # atno 8008 bound_to 7997
  155.7100  140.3494  155.4950 H   0  0  0  0  0  0  0  0  0  0  0  0  # atno 8009 bound_to 7997
  155.9309  140.1069  157.1123 H   0  0  0  0  0  0  0  0  0  0  0  0  # atno 8010 bound_to 7997
  140.6072  143.2377  151.5793 H   0  0  0  0  0  0  0  0  0  0  0  0  # atno 10167 bound_to 10162
  156.6512  130.9008  151.3013 H   0  0  0  0  0  0  0  0  0  0  0  0  # atno 10718 bound_to 10713
  153.7251  135.3247  155.3274 H   0  0  0  0  0  0  0  0  0  0  0  0  # atno 10763 bound_to 10752
  154.8344  135.4509  154.1178 H   0  0  0  0  0  0  0  0  0  0  0  0  # atno 10764 bound_to 10752
  153.2310  135.6960  153.7971 H   0  0  0  0  0  0  0  0  0  0  0  0  # atno 10765 bound_to 10752
  140.7393  134.3533  157.5151 H   0  0  0  0  0  0  0  0  0  0  0  0  # atno 11005 bound_to 11000
  144.7128  140.4101  143.7067 LP  0  0  0  0  0  0  0  0  0  0  0  0  # atno 17320 bound_to 7965
  145.6707  139.1598  143.2756 LP  0  0  0  0  0  0  0  0  0  0  0  0  # atno 17321 bound_to 7965
  139.5334  144.2851  152.1198 LP  0  0  0  0  0  0  0  0  0  0  0  0  # atno 17342 bound_to 10162
  140.2043  144.4627  150.6416 LP  0  0  0  0  0  0  0  0  0  0  0  0  # atno 17343 bound_to 10162
  157.7140  130.9474  150.1189 LP  0  0  0  0  0  0  0  0  0  0  0  0  # atno 17370 bound_to 10713
  156.2083  130.3665  149.8702 LP  0  0  0  0  0  0  0  0  0  0  0  0  # atno 17371 bound_to 10713
  139.8809  134.9070  156.2935 LP  0  0  0  0  0  0  0  0  0  0  0  0  # atno 17394 bound_to 11000
  140.9851  133.7243  156.0730 LP  0  0  0  0  0  0  0  0  0  0  0  0  # atno 17395 bound_to 11000

$$$$
