AV-unprocessed.smi:54|AV-procd|sdf|537|dock1
  -GOLD-   2262016423D 1   1.00000     0.00000
 Structure written by MMmdl.
 44 46  0  0  0  0  0  0  0  0  1 V2000
  152.6933  142.4386  161.3141 C   0  0  0  0  0  0  0  0  0  0  0  0
  153.1370  142.7407  159.8736 C   0  0  0  0  0  0  0  0  0  0  0  0
  152.2194  143.7827  159.2135 C   0  0  0  0  0  0  0  0  0  0  0  0
  153.1779  141.4510  159.0470 C   0  0  0  0  0  0  0  0  0  0  0  0
  154.0822  140.6242  159.1678 O   0  0  0  0  0  0  0  0  0  0  0  0
  152.0754  141.2619  158.1252 N   0  0  0  0  0  0  0  0  0  0  0  0
  151.9191  140.2262  157.2721 C   0  0  0  0  0  0  0  0  0  0  0  0
  150.8114  140.0481  156.5669 N   0  0  0  0  0  0  0  0  0  0  0  0
  150.8159  138.9345  155.7714 C   0  0  0  0  0  0  0  0  0  0  0  0
  151.8412  138.0175  155.6544 C   0  0  0  0  0  0  0  0  0  0  0  0
  151.4935  137.0182  154.7529 N   0  0  0  0  0  0  0  0  0  0  0  0
  150.2916  137.3444  154.3688 C   0  0  0  0  0  0  0  0  0  0  0  0
  149.8013  138.4917  154.9431 N   0  0  0  0  0  0  0  0  0  0  0  0
  148.4555  139.1105  154.7274 C   0  0  2  0  0  0  0  0  0  0  0  0
  147.7569  138.3930  153.7631 O   0  0  0  0  0  0  0  0  0  0  0  0
  146.8237  139.2577  153.1215 C   0  0  2  0  0  0  0  0  0  0  0  0
  146.7988  138.9501  151.6128 C   0  0  0  0  0  0  0  0  0  0  0  0
  146.4563  137.6042  151.3506 O   0  0  0  0  0  0  0  0  0  0  0  0
  147.2005  140.7051  153.5030 C   0  0  1  0  0  0  0  0  0  0  0  0
  146.2225  141.2299  154.3815 O   0  0  0  0  0  0  0  0  0  0  0  0
  148.5305  140.5607  154.2323 C   0  0  2  0  0  0  0  0  0  0  0  0
  149.6178  140.7989  153.3576 O   0  0  0  0  0  0  0  0  0  0  0  0
  153.0408  138.1925  156.4214 C   0  0  0  0  0  0  0  0  0  0  0  0
  154.0406  137.4780  156.4448 O   0  0  0  0  0  0  0  0  0  0  0  0
  152.9933  139.3394  157.2233 N   0  0  0  0  0  0  0  0  0  0  0  0
  147.9429  139.0209  155.6864 H   0  0  0  0  0  0  0  0  0  0  0  0
  145.8420  139.0068  153.5273 H   0  0  0  0  0  0  0  0  0  0  0  0
  147.2673  141.3742  152.6439 H   0  0  0  0  0  0  0  0  0  0  0  0
  148.6266  141.2378  155.0821 H   0  0  0  0  0  0  0  0  0  0  0  0
  153.3375  141.6913  161.7795 H   0  0  0  0  0  0  0  0  0  0  0  0
  151.6697  142.0631  161.3477 H   0  0  0  0  0  0  0  0  0  0  0  0
  152.7358  143.3362  161.9316 H   0  0  0  0  0  0  0  0  0  0  0  0
  154.1459  143.1542  159.9100 H   0  0  0  0  0  0  0  0  0  0  0  0
  152.5277  143.9910  158.1883 H   0  0  0  0  0  0  0  0  0  0  0  0
  152.2461  144.7258  159.7598 H   0  0  0  0  0  0  0  0  0  0  0  0
  151.1821  143.4461  159.1879 H   0  0  0  0  0  0  0  0  0  0  0  0
  151.3322  141.9435  158.1656 H   0  0  0  0  0  0  0  0  0  0  0  0
  149.7270  136.7521  153.6634 H   0  0  0  0  0  0  0  0  0  0  0  0
  146.1047  139.6142  151.0977 H   0  0  0  0  0  0  0  0  0  0  0  0
  147.7855  139.1295  151.1857 H   0  0  0  0  0  0  0  0  0  0  0  0
  147.1960  137.0593  151.5714 H   0  0  0  0  0  0  0  0  0  0  0  0
  145.3666  141.0301  154.0348 H   0  0  0  0  0  0  0  0  0  0  0  0
  149.5862  140.1554  152.6650 H   0  0  0  0  0  0  0  0  0  0  0  0
  153.8044  139.5262  157.7941 H   0  0  0  0  0  0  0  0  0  0  0  0
  1  2  1  0  0  0  0
  1 30  1  0  0  0  0
  1 31  1  0  0  0  0
  1 32  1  0  0  0  0
  2  3  1  0  0  0  0
  2  4  1  0  0  0  0
  2 33  1  0  0  0  0
  3 34  1  0  0  0  0
  3 35  1  0  0  0  0
  3 36  1  0  0  0  0
  4  5  2  0  0  0  0
  4  6  1  0  0  0  0
  6 37  1  0  0  0  0
  6  7  1  0  0  0  0
  7 25  1  0  0  0  0
  7  8  2  0  0  0  0
  8  9  1  0  0  0  0
  9 13  1  0  0  0  0
  9 10  2  0  0  0  0
 10 11  1  0  0  0  0
 10 23  1  0  0  0  0
 11 12  2  0  0  0  0
 12 13  1  0  0  0  0
 12 38  1  0  0  0  0
 13 14  1  0  0  0  0
 14 26  1  0  0  0  0
 14 21  1  0  0  0  0
 14 15  1  0  0  0  0
 15 16  1  0  0  0  0
 16 27  1  0  0  0  0
 16 17  1  0  0  0  0
 16 19  1  0  0  0  0
 17 18  1  0  0  0  0
 17 39  1  0  0  0  0
 17 40  1  0  0  0  0
 18 41  1  0  0  0  0
 19 28  1  0  0  0  0
 19 20  1  0  0  0  0
 19 21  1  0  0  0  0
 20 42  1  0  0  0  0
 21 29  1  0  0  0  0
 21 22  1  0  0  0  0
 22 43  1  0  0  0  0
 23 24  2  0  0  0  0
 23 25  1  0  0  0  0
 25 44  1  0  0  0  0
M  END
> <s_m_source_file>
AV-unprocessed.smi

> <i_m_source_file_index>
54

> <i_lp_mmshare_version>
43012

> <i_f3d_flags>
0

> <s_epik_input>
W0NIM11bQ0hdKFtDSDNdKUMoPU8pW05IXWMobjEpW25IXWMoPU8pYyhjMTIpbltjSF1uMltDQEBIXTNPW0NASF0oW0NIMl1bT0hdKVtDQEBIXShbT0hdKVtDQEhdM1tPSF0=

> <s_epik_cmdline>
J2VwaWtfcHl0aG9uJywgJy1waCcsICc3LjAnLCAnLXRuJywgJzgnLCAnLW1hJywgJzIwMCcsICctbWV0YWxfYmluZGluZycsICctaW1hZScsICc8aW5maWxlLm1hZT4nLCAnLW9tYWUnLCAnPG91dGZpbGUubWFlPic=

> <r_lp_tautomer_probability>
0.85571

> <r_epik_Ionization_Penalty>
0.0316551

> <r_epik_Ionization_Penalty_Charging>
0.0316043

> <r_epik_Ionization_Penalty_Neutral>
5.07097e-05

> <r_epik_State_Penalty>
3.15494e-07

> <r_epik_Charging_Adjusted_Penalty>
0.0316047

> <i_epik_Tot_Q>
0

> <i_epik_Tot_abs_Q>
0

> <r_epik_Metal_State_Penalty>
0.421206

> <b_epik_Metal_Only>
0

> <s_epik_Chemistry_Notes>
This compound contains an acetal/aminal-like group ( X-CH(R)-Y where X, Y are N, S, or O) that may be acid/base labile, releasing an aldehyde.

> <s_lp_Force_Field>
OPLS_2005

> <r_lp_Energy>
42.9464

> <b_lp_Chiralities_Consistent>
1

> <s_lp_Variant>
AV-unprocessed.smi:54-9

> <Gold.Version>
5.8.1

> <Gold.Id.Protein>
6NUR|6NUR_protein|mol2

> <Gold.PLP.Fitness>
56.1843

> <Gold.PLP.PLP>
-40.2712

> <Gold.PLP.part.hbond>
-7.3719

> <Gold.PLP.part.metal>
0.0000

> <Gold.PLP.part.buried>
-2.3371

> <Gold.PLP.part.nonpolar>
-33.7940

> <Gold.PLP.part.repulsive>
3.2657

> <Gold.PLP.ligand.clash>
0.0190

> <Gold.PLP.ligand.torsion>
0.5138

> <Gold.PLP.Chemscore.Hbond>
4.6505

> <Gold.PLP.Chemscore.CHOScore>
0.9768

> <Gold.PLP.Chemscore.Metal>
0.0000

> <Gold.Chemscore.Hbonds>
donor molecule, donor type, donor heavy atom, donor atom, acceptor molecule, acceptor atom, score
      L1  H    18    41       P1  7948  1.00
      L1  H    20    42       P1 10175  0.21
      L1  H    22    43       P1  7957  0.77
      P1  H  7989  7998       L1    22  0.23
      P1  H  7997  8009       L1     5  0.51
      P1  H  8011  8017       L1    22  1.00
      P1  H 10752 10763       L1    11  1.00
      L1  C    12    38       P1  7948  0.91

> <Gold.PLP.Chemscore.Internal.Correction>
0.0779

> <Gold.Rescore>
     Score         DG    S(hbond)    S(metal)    S(lipo)     H(rot)  DE(clash)    DE(int)     intcor
     13.93     -16.01       3.70        0.00      72.96       4.05       1.57       0.50       ----

> <Gold.Chemscore.Fitness>
13.9325

> <Gold.Chemscore.DG>
-16.0078

> <Gold.Chemscore.ZeroCoef>
-5.4800

> <Gold.Chemscore.Hbond>
3.7000

> <Gold.Chemscore.Metal>
0.0000

> <Gold.Chemscore.Lipo>
72.9570

> <Gold.Chemscore.Internal_Hbond>
0.0000

> <Gold.Chemscore.DEClash>
1.5743

> <Gold.Chemscore.DEInternal>
0.5010

> <Gold.Chemscore.Rot>
4.0493

> <Gold.Chemscore.Internal.Correction>
   9.000000E+99

> <Gold.Chemscore.Hbonds>
donor molecule, donor type, donor heavy atom, donor atom, acceptor molecule, acceptor atom, score
      L1  H    18    41       P1  7948  0.99
      L1  H    20    42       P1 10175  0.18
      L1  H    22    43       P1  7957  0.73
      P1  H  7989  7998       L1    22  0.03
      P1  H  7997  8009       L1     5  0.42
      P1  H  8011  8017       L1    22  0.25
      P1  H 10752 10763       L1    11  0.83
      P1  H 10752 10764       L1    24  0.01

> <Gold.Chemscore.Hbond.Weighted>
-12.3580

> <Gold.Chemscore.Metal.Weighted>
-0.0000

> <Gold.Chemscore.Lipo.Weighted>
-8.5360

> <Gold.Chemscore.Internal_Hbond.Weighted>
0.0000

> <Gold.Chemscore.DEClash.Weighted>
1.5743

> <Gold.Chemscore.DEInternal.Weighted>
0.5010

> <Gold.Chemscore.Rot.Weighted>
10.3662

> <Gold.Chemscore.Internal.Correction.Weighted>
   9.000000E+99

> <Gold.Protein.RotatedTorsions>
[ 6907 6896 6895 6894 ] final  -38.91 input  -60.11 | X-H torsion
[ 7974 7965 7964 7962 ] final -154.21 input  175.53 | X-H torsion
[ 8008 7997 7996 7995 ] final  131.54 input   59.86 | X-H torsion
[ 10167 10162 10161 10158 ] final   64.05 input  -65.29 | X-H torsion
[ 10718 10713 10712 10709 ] final  124.35 input   66.30 | X-H torsion
[ 10763 10752 10751 10750 ] final   53.39 input  -60.55 | X-H torsion
[ 11005 11000 10999 10996 ] final -117.05 input  -57.11 | X-H torsion

> <Gold.Protein.ActiveResidues>
 VAL166  LYS551  ARG553  GLY616  TRP617  ASP618  TYR619  PRO620  LYS621  CYS622 
 ASP623  PHE694  ASN695  SER759  ASP760  ASP761  ALA762  ILE779  LEU786  VAL792 
 PHE793  MET794  SER795  GLU796  ALA797  LYS798  CYS799  TRP800  GLU811  SER814 

> <Gold.Protein.RotatedAtoms>
  150.9967  134.9289  159.7930 H   0  0  0  0  0  0  0  0  0  0  0  0  # atno 6907 bound_to 6896
  152.5266  134.3208  159.9158 H   0  0  0  0  0  0  0  0  0  0  0  0  # atno 6908 bound_to 6896
  151.3214  133.3997  159.2689 H   0  0  0  0  0  0  0  0  0  0  0  0  # atno 6909 bound_to 6896
  144.7701  140.4420  143.5913 H   0  0  0  0  0  0  0  0  0  0  0  0  # atno 7974 bound_to 7965
  156.2971  140.2568  156.2943 H   0  0  0  0  0  0  0  0  0  0  0  0  # atno 8008 bound_to 7997
  154.9479  140.0395  157.2148 H   0  0  0  0  0  0  0  0  0  0  0  0  # atno 8009 bound_to 7997
  154.8064  140.2837  155.5889 H   0  0  0  0  0  0  0  0  0  0  0  0  # atno 8010 bound_to 7997
  140.1264  144.4684  150.6890 H   0  0  0  0  0  0  0  0  0  0  0  0  # atno 10167 bound_to 10162
  157.5592  131.1090  150.8568 H   0  0  0  0  0  0  0  0  0  0  0  0  # atno 10718 bound_to 10713
  152.9795  135.5780  154.4734 H   0  0  0  0  0  0  0  0  0  0  0  0  # atno 10763 bound_to 10752
  154.4293  135.2773  155.1925 H   0  0  0  0  0  0  0  0  0  0  0  0  # atno 10764 bound_to 10752
  154.3640  135.6182  153.5759 H   0  0  0  0  0  0  0  0  0  0  0  0  # atno 10765 bound_to 10752
  141.0381  133.9878  157.3039 H   0  0  0  0  0  0  0  0  0  0  0  0  # atno 11005 bound_to 11000
  145.6350  139.1541  143.2948 LP  0  0  0  0  0  0  0  0  0  0  0  0  # atno 17320 bound_to 7965
  146.1841  140.6451  142.9176 LP  0  0  0  0  0  0  0  0  0  0  0  0  # atno 17321 bound_to 7965
  140.6842  143.2342  151.5304 LP  0  0  0  0  0  0  0  0  0  0  0  0  # atno 17342 bound_to 10162
  139.5542  144.2318  152.1583 LP  0  0  0  0  0  0  0  0  0  0  0  0  # atno 17343 bound_to 10162
  156.9071  130.5267  149.5281 LP  0  0  0  0  0  0  0  0  0  0  0  0  # atno 17370 bound_to 10713
  156.0647  130.5692  150.9263 LP  0  0  0  0  0  0  0  0  0  0  0  0  # atno 17371 bound_to 10713
  139.9255  135.0201  156.8219 LP  0  0  0  0  0  0  0  0  0  0  0  0  # atno 17394 bound_to 11000
  140.6285  133.9928  155.7651 LP  0  0  0  0  0  0  0  0  0  0  0  0  # atno 17395 bound_to 11000

$$$$
