AV-unprocessed.smi:3031|AV-procd|sdf|11552|dock3
  -GOLD-   2272016513D 1   1.00000     0.00000
 Structure written by MMmdl.
 48 49  0  0  0  0  0  0  0  0  3 V2000
  151.1764  141.3775  158.1874 C   0  0  0  0  0  0  0  0  0  0  0  0
  150.6852  141.0812  156.7997 C   0  0  0  0  0  0  0  0  0  0  0  0
  151.1986  140.1244  155.8799 C   0  0  0  0  0  0  0  0  0  0  0  0
  150.5374  140.1079  154.7345 N   0  0  0  0  0  0  0  0  0  0  0  0
  149.5882  141.0588  154.8748 N   0  0  0  0  0  0  0  0  0  0  0  0
  148.6404  141.3131  153.8009 C   0  0  0  0  0  0  0  0  0  0  0  0
  147.1646  140.9985  154.1563 C   0  0  1  0  0  0  0  0  0  0  0  0
  146.3366  142.2909  154.1775 C   0  0  0  0  0  0  0  0  0  0  0  0
  146.5299  140.0448  153.2136 N   0  3  0  0  0  0  0  0  0  0  0  0
  146.3707  138.6541  153.6930 C   0  0  0  0  0  0  0  0  0  0  0  0
  145.9812  137.6962  152.5529 C   0  0  1  0  0  0  0  0  0  0  0  0
  147.0244  137.6919  151.5990 O   0  0  0  0  0  0  0  0  0  0  0  0
  145.7956  136.2439  153.0427 C   0  0  0  0  0  0  0  0  0  0  0  0
  147.0649  135.6063  153.4790 N   0  3  0  0  0  0  0  0  0  0  0  0
  147.5268  136.0507  154.8176 C   0  0  0  0  0  0  0  0  0  0  0  0
  148.8582  135.3704  155.1818 C   0  0  0  0  0  0  0  0  0  0  0  0
  148.7052  133.9578  155.1259 O   0  0  0  0  0  0  0  0  0  0  0  0
  148.3532  133.5122  153.8225 C   0  0  0  0  0  0  0  0  0  0  0  0
  147.0031  134.1265  153.4166 C   0  0  0  0  0  0  0  0  0  0  0  0
  149.6432  141.6474  156.1212 C   0  0  0  0  0  0  0  0  0  0  0  0
  151.3766  140.4631  158.7464 H   0  0  0  0  0  0  0  0  0  0  0  0
  150.4491  141.9509  158.7627 H   0  0  0  0  0  0  0  0  0  0  0  0
  152.1012  141.9545  158.1716 H   0  0  0  0  0  0  0  0  0  0  0  0
  152.0267  139.4436  156.0113 H   0  0  0  0  0  0  0  0  0  0  0  0
  148.7390  142.3677  153.5396 H   0  0  0  0  0  0  0  0  0  0  0  0
  148.9466  140.7503  152.9179 H   0  0  0  0  0  0  0  0  0  0  0  0
  147.1061  140.5766  155.1604 H   0  0  0  0  0  0  0  0  0  0  0  0
  146.7357  143.0025  154.9011 H   0  0  0  0  0  0  0  0  0  0  0  0
  145.3010  142.0916  154.4545 H   0  0  0  0  0  0  0  0  0  0  0  0
  146.3327  142.7774  153.2012 H   0  0  0  0  0  0  0  0  0  0  0  0
  145.6038  140.3989  153.0211 H   0  0  0  0  0  0  0  0  0  0  0  0
  147.2963  138.3145  154.1563 H   0  0  0  0  0  0  0  0  0  0  0  0
  145.5978  138.6360  154.4620 H   0  0  0  0  0  0  0  0  0  0  0  0
  145.0783  138.0515  152.0563 H   0  0  0  0  0  0  0  0  0  0  0  0
  147.7634  137.2213  151.9551 H   0  0  0  0  0  0  0  0  0  0  0  0
  145.0738  136.2019  153.8605 H   0  0  0  0  0  0  0  0  0  0  0  0
  145.3640  135.6605  152.2275 H   0  0  0  0  0  0  0  0  0  0  0  0
  147.6590  137.1321  154.8366 H   0  0  0  0  0  0  0  0  0  0  0  0
  146.7705  135.8076  155.5657 H   0  0  0  0  0  0  0  0  0  0  0  0
  149.6564  135.6887  154.5093 H   0  0  0  0  0  0  0  0  0  0  0  0
  149.1607  135.6525  156.1905 H   0  0  0  0  0  0  0  0  0  0  0  0
  149.1340  133.7803  153.1090 H   0  0  0  0  0  0  0  0  0  0  0  0
  148.2852  132.4243  153.8263 H   0  0  0  0  0  0  0  0  0  0  0  0
  146.2132  133.7642  154.0766 H   0  0  0  0  0  0  0  0  0  0  0  0
  146.7480  133.8085  152.4049 H   0  0  0  0  0  0  0  0  0  0  0  0
  148.9476  142.4190  156.4180 H   0  0  0  0  0  0  0  0  0  0  0  0
  147.0479  140.0362  152.3461 H   0  0  0  0  0  0  0  0  0  0  0  0
  147.7741  135.8819  152.8148 H   0  0  0  0  0  0  0  0  0  0  0  0
  1  2  1  0  0  0  0
  1 21  1  0  0  0  0
  1 22  1  0  0  0  0
  1 23  1  0  0  0  0
  2 20  2  0  0  0  0
  2  3  1  0  0  0  0
  3  4  2  0  0  0  0
  3 24  1  0  0  0  0
  4  5  1  0  0  0  0
  5  6  1  0  0  0  0
  5 20  1  0  0  0  0
  6  7  1  0  0  0  0
  6 25  1  0  0  0  0
  6 26  1  0  0  0  0
  7  8  1  0  0  0  0
  7  9  1  0  0  0  0
  7 27  1  0  0  0  0
  8 28  1  0  0  0  0
  8 29  1  0  0  0  0
  8 30  1  0  0  0  0
  9 10  1  0  0  0  0
  9 31  1  0  0  0  0
  9 47  1  0  0  0  0
 10 11  1  0  0  0  0
 10 32  1  0  0  0  0
 10 33  1  0  0  0  0
 11 12  1  0  0  0  0
 11 13  1  0  0  0  0
 11 34  1  0  0  0  0
 12 35  1  0  0  0  0
 13 14  1  0  0  0  0
 13 36  1  0  0  0  0
 13 37  1  0  0  0  0
 14 19  1  0  0  0  0
 14 15  1  0  0  0  0
 14 48  1  0  0  0  0
 15 16  1  0  0  0  0
 15 38  1  0  0  0  0
 15 39  1  0  0  0  0
 16 17  1  0  0  0  0
 16 40  1  0  0  0  0
 16 41  1  0  0  0  0
 17 18  1  0  0  0  0
 18 19  1  0  0  0  0
 18 42  1  0  0  0  0
 18 43  1  0  0  0  0
 19 44  1  0  0  0  0
 19 45  1  0  0  0  0
 20 46  1  0  0  0  0
M  CHG  1   9   1
M  CHG  1  14   1
M  END
> <s_m_source_file>
AV-unprocessed.smi

> <i_m_source_file_index>
3031

> <i_lp_mmshare_version>
43012

> <i_f3d_flags>
0

> <s_epik_input>
W0NIM11jMVtjSF1ubihbY0hdMSlbQ0gyXVtDQEhdKFtDSDNdKVtOSF1bQ0gyXVtDQEhdKFtPSF0pW0NIMl1OMltDSDJdW0NIMl1PW0NIMl1bQ0gyXTI=

> <s_epik_cmdline>
J2VwaWtfcHl0aG9uJywgJy1waCcsICc3LjAnLCAnLXRuJywgJzgnLCAnLW1hJywgJzIwMCcsICctbWV0YWxfYmluZGluZycsICctaW1hZScsICc8aW5maWxlLm1hZT4nLCAnLW9tYWUnLCAnPG91dGZpbGUubWFlPic=

> <r_lp_tautomer_probability>
1

> <r_epik_Ionization_Penalty>
1.76542

> <r_epik_Ionization_Penalty_Charging>
1.76348

> <r_epik_Ionization_Penalty_Neutral>
0.00194017

> <r_epik_State_Penalty>
1.49348

> <r_epik_Charging_Adjusted_Penalty>
3.25696

> <i_epik_Tot_Q>
2

> <i_epik_Tot_abs_Q>
2

> <r_epik_Metal_State_Penalty>
1.49349

> <b_epik_Metal_Only>
0

> <s_lp_Force_Field>
OPLS_2005

> <r_lp_Energy>
29.0022

> <b_lp_Chiralities_Consistent>
1

> <s_lp_Variant>
AV-unprocessed.smi:3031-12

> <Gold.Version>
5.8.1

> <Gold.Id.Protein>
6NUR|6NUR_protein|mol2

> <Gold.PLP.Fitness>
50.7325

> <Gold.PLP.PLP>
-32.3014

> <Gold.PLP.part.hbond>
-4.5032

> <Gold.PLP.part.metal>
0.0000

> <Gold.PLP.part.buried>
-0.8109

> <Gold.PLP.part.nonpolar>
-27.9840

> <Gold.PLP.part.repulsive>
0.1454

> <Gold.PLP.ligand.clash>
0.0000

> <Gold.PLP.ligand.torsion>
1.6480

> <Gold.PLP.Chemscore.Hbond>
6.1852

> <Gold.PLP.Chemscore.CHOScore>
0.9969

> <Gold.PLP.Chemscore.Metal>
0.0000

> <Gold.Chemscore.Hbonds>
donor molecule, donor type, donor heavy atom, donor atom, acceptor molecule, acceptor atom, score
      L1  H     9    31       P1 10175  2.00
      L1  H    12    35       P1  7948  0.99
      L1  H    14    48       P1  7948  2.00
      P1  H  7954  7966       L1    12  0.24
      P1  H  7989  7998       L1     4  1.00
      L1  C    20    46       P1  8028  0.96

> <Gold.PLP.Chemscore.Internal.Correction>
0.1807

> <Gold.Rescore>
     Score         DG    S(hbond)    S(metal)    S(lipo)     H(rot)  DE(clash)    DE(int)     intcor
     17.44     -19.23       3.85        0.00      67.70       2.74       0.02       1.78       ----

> <Gold.Chemscore.Fitness>
17.4359

> <Gold.Chemscore.DG>
-19.2284

> <Gold.Chemscore.ZeroCoef>
-5.4800

> <Gold.Chemscore.Hbond>
3.8474

> <Gold.Chemscore.Metal>
0.0000

> <Gold.Chemscore.Lipo>
67.7025

> <Gold.Chemscore.Internal_Hbond>
0.0000

> <Gold.Chemscore.DEClash>
0.0158

> <Gold.Chemscore.DEInternal>
1.7767

> <Gold.Chemscore.Rot>
2.7434

> <Gold.Chemscore.Internal.Correction>
   9.000000E+99

> <Gold.Chemscore.Hbonds>
donor molecule, donor type, donor heavy atom, donor atom, acceptor molecule, acceptor atom, score
      L1  H     9    31       P1 10175  0.89
      L1  H    12    35       P1  7948  0.89
      L1  H    14    48       P1  7948  0.95
      P1  H  7989  7998       L1     4  0.18

> <Gold.Chemscore.Hbond.Weighted>
-12.8503

> <Gold.Chemscore.Metal.Weighted>
-0.0000

> <Gold.Chemscore.Lipo.Weighted>
-7.9212

> <Gold.Chemscore.Internal_Hbond.Weighted>
0.0000

> <Gold.Chemscore.DEClash.Weighted>
0.0158

> <Gold.Chemscore.DEInternal.Weighted>
1.7767

> <Gold.Chemscore.Rot.Weighted>
7.0231

> <Gold.Chemscore.Internal.Correction.Weighted>
   9.000000E+99

> <Gold.Protein.RotatedTorsions>
[ 6907 6896 6895 6894 ] final  132.38 input  -60.11 | X-H torsion
[ 7974 7965 7964 7962 ] final   63.28 input  175.53 | X-H torsion
[ 8008 7997 7996 7995 ] final -108.68 input   59.86 | X-H torsion
[ 10167 10162 10161 10158 ] final  166.86 input  -65.29 | X-H torsion
[ 10718 10713 10712 10709 ] final -133.55 input   66.30 | X-H torsion
[ 10763 10752 10751 10750 ] final  111.77 input  -60.55 | X-H torsion
[ 11005 11000 10999 10996 ] final   -6.54 input  -57.11 | X-H torsion

> <Gold.Protein.ActiveResidues>
 VAL166  LYS551  ARG553  GLY616  TRP617  ASP618  TYR619  PRO620  LYS621  CYS622 
 ASP623  PHE694  ASN695  SER759  ASP760  ASP761  ALA762  ILE779  LEU786  VAL792 
 PHE793  MET794  SER795  GLU796  ALA797  LYS798  CYS799  TRP800  GLU811  SER814 

> <Gold.Protein.RotatedAtoms>
  152.3330  133.5980  159.5822 H   0  0  0  0  0  0  0  0  0  0  0  0  # atno 6907 bound_to 6896
  150.7434  133.9839  159.3594 H   0  0  0  0  0  0  0  0  0  0  0  0  # atno 6908 bound_to 6896
  151.7712  135.0786  160.0411 H   0  0  0  0  0  0  0  0  0  0  0  0  # atno 6909 bound_to 6896
  145.8637  139.3331  143.0804 H   0  0  0  0  0  0  0  0  0  0  0  0  # atno 7974 bound_to 7965
  154.9479  140.0401  157.2129 H   0  0  0  0  0  0  0  0  0  0  0  0  # atno 8008 bound_to 7997
  154.8006  140.2851  155.5902 H   0  0  0  0  0  0  0  0  0  0  0  0  # atno 8009 bound_to 7997
  156.2961  140.2556  156.2874 H   0  0  0  0  0  0  0  0  0  0  0  0  # atno 8010 bound_to 7997
  139.4933  144.3983  151.9439 H   0  0  0  0  0  0  0  0  0  0  0  0  # atno 10167 bound_to 10162
  156.2461  130.7125  151.1005 H   0  0  0  0  0  0  0  0  0  0  0  0  # atno 10718 bound_to 10713
  153.4681  135.3707  155.2376 H   0  0  0  0  0  0  0  0  0  0  0  0  # atno 10763 bound_to 10752
  154.8757  135.3925  154.3844 H   0  0  0  0  0  0  0  0  0  0  0  0  # atno 10764 bound_to 10752
  153.4428  135.7084  153.6222 H   0  0  0  0  0  0  0  0  0  0  0  0  # atno 10765 bound_to 10752
  140.7031  133.8973  155.8697 H   0  0  0  0  0  0  0  0  0  0  0  0  # atno 11005 bound_to 11000
  145.9218  140.9110  143.0401 LP  0  0  0  0  0  0  0  0  0  0  0  0  # atno 17320 bound_to 7965
  144.6726  140.1299  143.7444 LP  0  0  0  0  0  0  0  0  0  0  0  0  # atno 17321 bound_to 7965
  140.3421  144.3190  150.5965 LP  0  0  0  0  0  0  0  0  0  0  0  0  # atno 17342 bound_to 10162
  140.5557  143.2199  151.7852 LP  0  0  0  0  0  0  0  0  0  0  0  0  # atno 17343 bound_to 10162
  157.7195  131.0690  150.6192 LP  0  0  0  0  0  0  0  0  0  0  0  0  # atno 17370 bound_to 10713
  156.6269  130.4421  149.5801 LP  0  0  0  0  0  0  0  0  0  0  0  0  # atno 17371 bound_to 10713
  141.0147  134.0971  157.4184 LP  0  0  0  0  0  0  0  0  0  0  0  0  # atno 17394 bound_to 11000
  139.8891  135.0103  156.6662 LP  0  0  0  0  0  0  0  0  0  0  0  0  # atno 17395 bound_to 11000

$$$$
