AV-unprocessed.smi:1634|AV-procd|sdf|6536|dock3
  -GOLD-   22720 7213D 1   1.00000     0.00000
 Structure written by MMmdl.
 38 38  0  0  0  0  0  0  0  0  1 V2000
  152.3907  138.5067  154.9115 C   0  0  0  0  0  0  0  0  0  0  0  0
  150.9592  138.1652  154.4722 C   0  0  0  0  0  0  0  0  0  0  0  0
  150.1020  139.4367  154.3702 C   0  0  0  0  0  0  0  0  0  0  0  0
  150.3240  137.1319  155.4164 C   0  0  0  0  0  0  0  0  0  0  0  0
  149.1130  136.6529  154.8400 O   0  0  0  0  0  0  0  0  0  0  0  0
  148.5042  135.5547  155.5138 C   0  0  2  0  0  0  0  0  0  0  0  0
  149.5827  134.4810  155.7210 C   0  0  0  0  0  0  0  0  0  0  0  0
  147.3254  135.0112  154.6901 C   0  0  0  0  0  0  0  0  0  0  0  0
  146.6213  134.1180  155.1603 O   0  0  0  0  0  0  0  0  0  0  0  0
  147.1794  135.5562  153.4660 N   0  0  0  0  0  0  0  0  0  0  0  0
  146.2301  135.2831  152.4666 C   0  0  0  0  0  0  0  0  0  0  0  0
  145.8435  134.0412  152.0729 C   0  0  0  0  0  0  0  0  0  0  0  0
  144.8482  133.8357  151.0340 C   0  0  0  0  0  0  0  0  0  0  0  0
  144.4842  132.4426  150.5445 C   0  0  0  0  0  0  0  0  0  0  0  0
  144.7342  132.3071  149.2415 F   0  0  0  0  0  0  0  0  0  0  0  0
  145.1721  131.5091  151.2021 F   0  0  0  0  0  0  0  0  0  0  0  0
  143.1863  132.2177  150.7436 F   0  0  0  0  0  0  0  0  0  0  0  0
  144.3308  134.9431  150.4710 C   0  0  0  0  0  0  0  0  0  0  0  0
  144.7060  136.2231  150.8849 N   0  0  0  0  0  0  0  0  0  0  0  0
  145.6223  136.4725  151.8469 C   0  0  0  0  0  0  0  0  0  0  0  0
  145.9010  137.6313  152.1532 O   0  0  0  0  0  0  0  0  0  0  0  0
  144.2594  137.0034  150.4253 H   0  0  0  0  0  0  0  0  0  0  0  0
  152.4043  138.9579  155.9043 H   0  0  0  0  0  0  0  0  0  0  0  0
  152.8567  139.2094  154.2201 H   0  0  0  0  0  0  0  0  0  0  0  0
  153.0163  137.6142  154.9429 H   0  0  0  0  0  0  0  0  0  0  0  0
  151.0188  137.7185  153.4788 H   0  0  0  0  0  0  0  0  0  0  0  0
  149.9994  139.9247  155.3400 H   0  0  0  0  0  0  0  0  0  0  0  0
  149.0999  139.2103  154.0048 H   0  0  0  0  0  0  0  0  0  0  0  0
  150.5458  140.1556  153.6809 H   0  0  0  0  0  0  0  0  0  0  0  0
  151.0060  136.2932  155.5642 H   0  0  0  0  0  0  0  0  0  0  0  0
  150.1501  137.5840  156.3935 H   0  0  0  0  0  0  0  0  0  0  0  0
  148.1548  135.8813  156.4951 H   0  0  0  0  0  0  0  0  0  0  0  0
  149.1735  133.5986  156.2142 H   0  0  0  0  0  0  0  0  0  0  0  0
  150.3911  134.8615  156.3458 H   0  0  0  0  0  0  0  0  0  0  0  0
  150.0217  134.1634  154.7745 H   0  0  0  0  0  0  0  0  0  0  0  0
  147.8747  136.2401  153.2030 H   0  0  0  0  0  0  0  0  0  0  0  0
  146.2525  133.1573  152.5328 H   0  0  0  0  0  0  0  0  0  0  0  0
  143.6064  134.9366  149.6699 H   0  0  0  0  0  0  0  0  0  0  0  0
  1  2  1  0  0  0  0
  1 23  1  0  0  0  0
  1 24  1  0  0  0  0
  1 25  1  0  0  0  0
  2  3  1  0  0  0  0
  2  4  1  0  0  0  0
  2 26  1  0  0  0  0
  3 27  1  0  0  0  0
  3 28  1  0  0  0  0
  3 29  1  0  0  0  0
  4  5  1  0  0  0  0
  4 30  1  0  0  0  0
  4 31  1  0  0  0  0
  5  6  1  0  0  0  0
  6  7  1  0  0  0  0
  6  8  1  0  0  0  0
  6 32  1  0  0  0  0
  7 33  1  0  0  0  0
  7 34  1  0  0  0  0
  7 35  1  0  0  0  0
  8  9  2  0  0  0  0
  8 10  1  0  0  0  0
 10 11  1  0  0  0  0
 10 36  1  0  0  0  0
 11 20  1  0  0  0  0
 11 12  2  0  0  0  0
 12 13  1  0  0  0  0
 12 37  1  0  0  0  0
 13 14  1  0  0  0  0
 13 18  2  0  0  0  0
 14 15  1  0  0  0  0
 14 16  1  0  0  0  0
 14 17  1  0  0  0  0
 18 19  1  0  0  0  0
 18 38  1  0  0  0  0
 19 22  1  0  0  0  0
 19 20  1  0  0  0  0
 20 21  2  0  0  0  0
M  END
> <s_m_source_file>
AV-unprocessed.smi

> <i_m_source_file_index>
1634

> <i_lp_mmshare_version>
43012

> <i_f3d_flags>
0

> <s_epik_input>
W0NIM11bQ0hdKFtDSDNdKVtDSDJdT1tDQEhdKFtDSDNdKUMoPU8pW05IXWMxW2NIXWMoQyhGKShGKUYpW2NIXVtuSF1jMT1P

> <s_epik_cmdline>
J2VwaWtfcHl0aG9uJywgJy1waCcsICc3LjAnLCAnLXRuJywgJzgnLCAnLW1hJywgJzIwMCcsICctbWV0YWxfYmluZGluZycsICctaW1hZScsICc8aW5maWxlLm1hZT4nLCAnLW9tYWUnLCAnPG91dGZpbGUubWFlPic=

> <r_lp_tautomer_probability>
0.999

> <r_epik_Ionization_Penalty>
0.00884964

> <r_epik_Ionization_Penalty_Charging>
0.00884955

> <r_epik_Ionization_Penalty_Neutral>
9.33956e-08

> <r_epik_State_Penalty>
0.00669049

> <r_epik_Charging_Adjusted_Penalty>
0.01554

> <i_epik_Tot_Q>
0

> <i_epik_Tot_abs_Q>
0

> <r_epik_Metal_State_Penalty>
0.320763

> <b_epik_Metal_Only>
0

> <s_lp_Force_Field>
OPLS_2005

> <r_lp_Energy>
19.4514

> <b_lp_Chiralities_Consistent>
1

> <s_lp_Variant>
AV-unprocessed.smi:1634-1

> <Gold.Version>
5.8.1

> <Gold.Id.Protein>
6NUR|6NUR_protein|mol2

> <Gold.PLP.Fitness>
42.3617

> <Gold.PLP.PLP>
-35.7157

> <Gold.PLP.part.hbond>
-1.5057

> <Gold.PLP.part.metal>
0.0000

> <Gold.PLP.part.buried>
-3.5129

> <Gold.PLP.part.nonpolar>
-33.2090

> <Gold.PLP.part.repulsive>
2.2747

> <Gold.PLP.ligand.clash>
0.0000

> <Gold.PLP.ligand.torsion>
0.5793

> <Gold.PLP.Chemscore.Hbond>
1.5920

> <Gold.PLP.Chemscore.CHOScore>
0.9850

> <Gold.PLP.Chemscore.Metal>
0.0000

> <Gold.Chemscore.Hbonds>
donor molecule, donor type, donor heavy atom, donor atom, acceptor molecule, acceptor atom, score
      L1  H    10    36       P1  7948  0.58
      L1  H    19    22       P1 10171  1.00
      L1  C    18    38       P1 10186  0.73

> <Gold.PLP.Chemscore.Internal.Correction>
0.0738

> <Gold.Rescore>
     Score         DG    S(hbond)    S(metal)    S(lipo)     H(rot)  DE(clash)    DE(int)     intcor
     12.83     -13.57       1.68        0.00      60.32       1.79       0.29       0.44       ----

> <Gold.Chemscore.Fitness>
12.8314

> <Gold.Chemscore.DG>
-13.5663

> <Gold.Chemscore.ZeroCoef>
-5.4800

> <Gold.Chemscore.Hbond>
1.6778

> <Gold.Chemscore.Metal>
0.0000

> <Gold.Chemscore.Lipo>
60.3229

> <Gold.Chemscore.Internal_Hbond>
0.0000

> <Gold.Chemscore.DEClash>
0.2931

> <Gold.Chemscore.DEInternal>
0.4418

> <Gold.Chemscore.Rot>
1.7873

> <Gold.Chemscore.Internal.Correction>
   9.000000E+99

> <Gold.Chemscore.Hbonds>
donor molecule, donor type, donor heavy atom, donor atom, acceptor molecule, acceptor atom, score
      L1  H    10    36       P1  7948  0.58
      L1  H    19    22       P1 10171  1.00

> <Gold.Chemscore.Hbond.Weighted>
-5.6040

> <Gold.Chemscore.Metal.Weighted>
-0.0000

> <Gold.Chemscore.Lipo.Weighted>
-7.0578

> <Gold.Chemscore.Internal_Hbond.Weighted>
0.0000

> <Gold.Chemscore.DEClash.Weighted>
0.2931

> <Gold.Chemscore.DEInternal.Weighted>
0.4418

> <Gold.Chemscore.Rot.Weighted>
4.5755

> <Gold.Chemscore.Internal.Correction.Weighted>
   9.000000E+99

> <Gold.Protein.RotatedTorsions>
[ 6907 6896 6895 6894 ] final  121.50 input  -60.11 | X-H torsion
[ 7974 7965 7964 7962 ] final  -31.44 input  175.53 | X-H torsion
[ 8008 7997 7996 7995 ] final   55.91 input   59.86 | X-H torsion
[ 10167 10162 10161 10158 ] final -176.93 input  -65.29 | X-H torsion
[ 10718 10713 10712 10709 ] final   33.47 input   66.30 | X-H torsion
[ 10763 10752 10751 10750 ] final   41.95 input  -60.55 | X-H torsion
[ 11005 11000 10999 10996 ] final  -63.21 input  -57.11 | X-H torsion

> <Gold.Protein.ActiveResidues>
 VAL166  LYS551  ARG553  GLY616  TRP617  ASP618  TYR619  PRO620  LYS621  CYS622 
 ASP623  PHE694  ASN695  SER759  ASP760  ASP761  ALA762  ILE779  LEU786  VAL792 
 PHE793  MET794  SER795  GLU796  ALA797  LYS798  CYS799  TRP800  GLU811  SER814 

> <Gold.Protein.RotatedAtoms>
  152.4317  133.7289  159.6575 H   0  0  0  0  0  0  0  0  0  0  0  0  # atno 6907 bound_to 6896
  150.8197  133.8264  159.3150 H   0  0  0  0  0  0  0  0  0  0  0  0  # atno 6908 bound_to 6896
  151.5950  135.1053  160.0099 H   0  0  0  0  0  0  0  0  0  0  0  0  # atno 6909 bound_to 6896
  146.1067  140.5667  142.8796 H   0  0  0  0  0  0  0  0  0  0  0  0  # atno 7974 bound_to 7965
  155.5089  140.3476  155.4384 H   0  0  0  0  0  0  0  0  0  0  0  0  # atno 8008 bound_to 7997
  156.0863  140.1399  156.9676 H   0  0  0  0  0  0  0  0  0  0  0  0  # atno 8009 bound_to 7997
  154.4609  140.0935  156.6865 H   0  0  0  0  0  0  0  0  0  0  0  0  # atno 8010 bound_to 7997
  139.5505  144.2122  152.1068 H   0  0  0  0  0  0  0  0  0  0  0  0  # atno 10167 bound_to 10162
  157.2983  130.7337  149.6651 H   0  0  0  0  0  0  0  0  0  0  0  0  # atno 10718 bound_to 10713
  152.9895  135.6146  154.2870 H   0  0  0  0  0  0  0  0  0  0  0  0  # atno 10763 bound_to 10752
  154.2597  135.2782  155.2785 H   0  0  0  0  0  0  0  0  0  0  0  0  # atno 10764 bound_to 10752
  154.5216  135.5813  153.6743 H   0  0  0  0  0  0  0  0  0  0  0  0  # atno 10765 bound_to 10752
  141.1385  133.6649  156.5645 H   0  0  0  0  0  0  0  0  0  0  0  0  # atno 11005 bound_to 11000
  144.7477  140.5110  143.6824 LP  0  0  0  0  0  0  0  0  0  0  0  0  # atno 17320 bound_to 7965
  145.5746  139.1485  143.3269 LP  0  0  0  0  0  0  0  0  0  0  0  0  # atno 17321 bound_to 7965
  140.1617  144.5020  150.6629 LP  0  0  0  0  0  0  0  0  0  0  0  0  # atno 17342 bound_to 10162
  140.6766  143.2308  151.5492 LP  0  0  0  0  0  0  0  0  0  0  0  0  # atno 17343 bound_to 10162
  155.9670  130.4288  150.4803 LP  0  0  0  0  0  0  0  0  0  0  0  0  # atno 17370 bound_to 10713
  157.2779  131.0601  151.2217 LP  0  0  0  0  0  0  0  0  0  0  0  0  # atno 17371 bound_to 10713
  140.3961  134.7397  157.4751 LP  0  0  0  0  0  0  0  0  0  0  0  0  # atno 17394 bound_to 11000
  140.0530  134.6104  155.8839 LP  0  0  0  0  0  0  0  0  0  0  0  0  # atno 17395 bound_to 11000

$$$$
