AV-unprocessed.smi:299|AV-procd|sdf|2267|dock3
  -GOLD-   2262022153D 1   1.00000     0.00000
 Structure written by MMmdl.
 42 43  0  0  0  0  0  0  0  0  2 V2000
  152.3513  144.6201  158.5494 C   0  0  0  0  0  0  0  0  0  0  0  0
  151.2186  143.8441  159.2565 C   0  0  2  0  0  0  0  0  0  0  0  0
  150.9400  144.3787  160.6774 C   0  0  0  0  0  0  0  0  0  0  0  0
  152.0453  143.9869  161.6692 C   0  0  0  0  0  0  0  0  0  0  0  0
  152.2555  142.4682  161.6475 C   0  0  0  0  0  0  0  0  0  0  0  0
  152.5314  141.9647  160.2214 C   0  0  0  0  0  0  0  0  0  0  0  0
  151.4414  142.3668  159.2903 N   0  3  2  0  0  0  0  0  0  0  0  0
  151.5484  141.7490  157.9426 C   0  0  0  0  0  0  0  0  0  0  0  0
  150.3231  142.0462  157.0620 C   0  0  0  0  0  0  0  0  0  0  0  0
  149.2938  140.9037  157.0918 C   0  0  0  0  0  0  0  0  0  0  0  0
  149.7470  139.7506  156.3234 N   0  0  0  0  0  0  0  0  0  0  0  0
  149.9676  139.7416  154.9993 C   0  0  0  0  0  0  0  0  0  0  0  0
  149.8182  140.7294  154.2805 O   0  0  0  0  0  0  0  0  0  0  0  0
  150.4211  138.4140  154.3908 C   0  0  0  0  0  0  0  0  0  0  0  0
  151.5457  137.8634  155.1236 N   0  0  0  0  0  0  0  0  0  0  0  0
  152.7681  138.3493  155.3488 C   0  0  0  0  0  0  0  0  0  0  0  0
  153.5051  137.5080  156.0580 N   0  0  0  0  0  0  0  0  0  0  0  0
  152.6484  136.4410  156.2708 N   0  0  0  0  0  0  0  0  0  0  0  0
  151.4844  136.6456  155.7183 N   0  0  0  0  0  0  0  0  0  0  0  0
  152.1310  145.6879  158.5308 H   0  0  0  0  0  0  0  0  0  0  0  0
  152.4723  144.3049  157.5132 H   0  0  0  0  0  0  0  0  0  0  0  0
  153.3129  144.4982  159.0468 H   0  0  0  0  0  0  0  0  0  0  0  0
  150.3099  144.0150  158.6773 H   0  0  0  0  0  0  0  0  0  0  0  0
  150.8210  145.4626  160.6583 H   0  0  0  0  0  0  0  0  0  0  0  0
  149.9889  143.9776  161.0306 H   0  0  0  0  0  0  0  0  0  0  0  0
  152.9764  144.4950  161.4162 H   0  0  0  0  0  0  0  0  0  0  0  0
  151.7791  144.3140  162.6749 H   0  0  0  0  0  0  0  0  0  0  0  0
  153.0819  142.1968  162.3051 H   0  0  0  0  0  0  0  0  0  0  0  0
  151.3689  141.9712  162.0443 H   0  0  0  0  0  0  0  0  0  0  0  0
  153.4903  142.3416  159.8642 H   0  0  0  0  0  0  0  0  0  0  0  0
  152.6210  140.8796  160.2507 H   0  0  0  0  0  0  0  0  0  0  0  0
  152.4288  142.1483  157.4371 H   0  0  0  0  0  0  0  0  0  0  0  0
  151.7043  140.6731  158.0350 H   0  0  0  0  0  0  0  0  0  0  0  0
  149.8364  142.9662  157.3846 H   0  0  0  0  0  0  0  0  0  0  0  0
  150.6528  142.2147  156.0358 H   0  0  0  0  0  0  0  0  0  0  0  0
  149.0786  140.6047  158.1192 H   0  0  0  0  0  0  0  0  0  0  0  0
  148.3505  141.2426  156.6625 H   0  0  0  0  0  0  0  0  0  0  0  0
  149.8966  138.8917  156.8340 H   0  0  0  0  0  0  0  0  0  0  0  0
  149.6031  137.6926  154.4121 H   0  0  0  0  0  0  0  0  0  0  0  0
  150.7003  138.5550  153.3454 H   0  0  0  0  0  0  0  0  0  0  0  0
  153.1163  139.3071  154.9914 H   0  0  0  0  0  0  0  0  0  0  0  0
  150.5925  141.9899  159.6872 H   0  0  0  0  0  0  0  0  0  0  0  0
  1  2  1  0  0  0  0
  1 20  1  0  0  0  0
  1 21  1  0  0  0  0
  1 22  1  0  0  0  0
  2  7  1  0  0  0  0
  2  3  1  0  0  0  0
  2 23  1  0  0  0  0
  3  4  1  0  0  0  0
  3 24  1  0  0  0  0
  3 25  1  0  0  0  0
  4  5  1  0  0  0  0
  4 26  1  0  0  0  0
  4 27  1  0  0  0  0
  5  6  1  0  0  0  0
  5 28  1  0  0  0  0
  5 29  1  0  0  0  0
  6  7  1  0  0  0  0
  6 30  1  0  0  0  0
  6 31  1  0  0  0  0
  7  8  1  0  0  0  0
  7 42  1  0  0  0  0
  8  9  1  0  0  0  0
  8 32  1  0  0  0  0
  8 33  1  0  0  0  0
  9 10  1  0  0  0  0
  9 34  1  0  0  0  0
  9 35  1  0  0  0  0
 10 11  1  0  0  0  0
 10 36  1  0  0  0  0
 10 37  1  0  0  0  0
 11 12  1  0  0  0  0
 11 38  1  0  0  0  0
 12 13  2  0  0  0  0
 12 14  1  0  0  0  0
 14 15  1  0  0  0  0
 14 39  1  0  0  0  0
 14 40  1  0  0  0  0
 15 19  1  0  0  0  0
 15 16  1  0  0  0  0
 16 17  2  0  0  0  0
 16 41  1  0  0  0  0
 17 18  1  0  0  0  0
 18 19  2  0  0  0  0
M  CHG  1   7   1
M  END
> <s_m_source_file>
AV-unprocessed.smi

> <i_m_source_file_index>
299

> <i_lp_mmshare_version>
43012

> <i_f3d_flags>
0

> <s_epik_input>
W0NIM11bQ0BASF0xW0NIMl1bQ0gyXVtDSDJdW0NIMl1OMVtDSDJdW0NIMl1bQ0gyXVtOSF1DKD1PKVtDSDJdbjJbY0hdbm5uMg==

> <s_epik_cmdline>
J2VwaWtfcHl0aG9uJywgJy1waCcsICc3LjAnLCAnLXRuJywgJzgnLCAnLW1hJywgJzIwMCcsICctbWV0YWxfYmluZGluZycsICctaW1hZScsICc8aW5maWxlLm1hZT4nLCAnLW9tYWUnLCAnPG91dGZpbGUubWFlPic=

> <r_lp_tautomer_probability>
1

> <r_epik_Ionization_Penalty>
0.000544863

> <r_epik_Ionization_Penalty_Charging>
0.000543475

> <r_epik_Ionization_Penalty_Neutral>
1.38784e-06

> <r_epik_State_Penalty>
0.000340025

> <r_epik_Charging_Adjusted_Penalty>
0.0008835

> <i_epik_Tot_Q>
1

> <i_epik_Tot_abs_Q>
1

> <r_epik_Metal_State_Penalty>
-0

> <b_epik_Metal_Only>
0

> <s_lp_Force_Field>
OPLS_2005

> <r_lp_Energy>
22.352

> <b_lp_Chiralities_Consistent>
1

> <s_lp_Variant>
AV-unprocessed.smi:299-3

> <Gold.Version>
5.8.1

> <Gold.Id.Protein>
6NUR|6NUR_protein|mol2

> <Gold.PLP.Fitness>
48.3117

> <Gold.PLP.PLP>
-44.0646

> <Gold.PLP.part.hbond>
-3.7581

> <Gold.PLP.part.metal>
0.0000

> <Gold.PLP.part.buried>
-7.0129

> <Gold.PLP.part.nonpolar>
-35.0360

> <Gold.PLP.part.repulsive>
0.3019

> <Gold.PLP.ligand.clash>
0.0000

> <Gold.PLP.ligand.torsion>
0.4056

> <Gold.PLP.Chemscore.Hbond>
1.6480

> <Gold.PLP.Chemscore.CHOScore>
0.0000

> <Gold.PLP.Chemscore.Metal>
0.0000

> <Gold.Chemscore.Hbonds>
donor molecule, donor type, donor heavy atom, donor atom, acceptor molecule, acceptor atom, score
      P1  H  7989  7998       L1    13  0.67
      P1  H 10752 10764       L1    18  0.80

> <Gold.PLP.Chemscore.Internal.Correction>
0.1142

> <Gold.Rescore>
     Score         DG    S(hbond)    S(metal)    S(lipo)     H(rot)  DE(clash)    DE(int)     intcor
     12.87     -13.45       1.29        0.00      96.24       2.97       0.01       0.56       ----

> <Gold.Chemscore.Fitness>
12.8728

> <Gold.Chemscore.DG>
-13.4454

> <Gold.Chemscore.ZeroCoef>
-5.4800

> <Gold.Chemscore.Hbond>
1.2883

> <Gold.Chemscore.Metal>
0.0000

> <Gold.Chemscore.Lipo>
96.2443

> <Gold.Chemscore.Internal_Hbond>
0.0000

> <Gold.Chemscore.DEClash>
0.0126

> <Gold.Chemscore.DEInternal>
0.5600

> <Gold.Chemscore.Rot>
2.9680

> <Gold.Chemscore.Internal.Correction>
   9.000000E+99

> <Gold.Chemscore.Hbonds>
donor molecule, donor type, donor heavy atom, donor atom, acceptor molecule, acceptor atom, score
      P1  H  7989  7998       L1    13  0.19
      P1  H 10752 10764       L1    18  0.05

> <Gold.Chemscore.Hbond.Weighted>
-4.3028

> <Gold.Chemscore.Metal.Weighted>
-0.0000

> <Gold.Chemscore.Lipo.Weighted>
-11.2606

> <Gold.Chemscore.Internal_Hbond.Weighted>
0.0000

> <Gold.Chemscore.DEClash.Weighted>
0.0126

> <Gold.Chemscore.DEInternal.Weighted>
0.5600

> <Gold.Chemscore.Rot.Weighted>
7.5980

> <Gold.Chemscore.Internal.Correction.Weighted>
   9.000000E+99

> <Gold.Protein.RotatedTorsions>
[ 6907 6896 6895 6894 ] final -123.02 input  -60.11 | X-H torsion
[ 7974 7965 7964 7962 ] final  140.39 input  175.53 | X-H torsion
[ 8008 7997 7996 7995 ] final  164.82 input   59.86 | X-H torsion
[ 10167 10162 10161 10158 ] final  137.58 input  -65.29 | X-H torsion
[ 10718 10713 10712 10709 ] final -176.24 input   66.30 | X-H torsion
[ 10763 10752 10751 10750 ] final  -12.40 input  -60.55 | X-H torsion
[ 11005 11000 10999 10996 ] final  133.34 input  -57.11 | X-H torsion

> <Gold.Protein.ActiveResidues>
 VAL166  LYS551  ARG553  GLY616  TRP617  ASP618  TYR619  PRO620  LYS621  CYS622 
 ASP623  PHE694  ASN695  SER759  ASP760  ASP761  ALA762  ILE779  LEU786  VAL792 
 PHE793  MET794  SER795  GLU796  ALA797  LYS798  CYS799  TRP800  GLU811  SER814 

> <Gold.Protein.RotatedAtoms>
  150.8631  133.7614  159.2985 H   0  0  0  0  0  0  0  0  0  0  0  0  # atno 6907 bound_to 6896
  151.5250  135.1066  159.9898 H   0  0  0  0  0  0  0  0  0  0  0  0  # atno 6908 bound_to 6896
  152.4641  133.7840  159.6922 H   0  0  0  0  0  0  0  0  0  0  0  0  # atno 6909 bound_to 6896
  144.9191  139.5191  143.5672 H   0  0  0  0  0  0  0  0  0  0  0  0  # atno 7974 bound_to 7965
  156.1850  140.1686  156.8202 H   0  0  0  0  0  0  0  0  0  0  0  0  # atno 8008 bound_to 7997
  154.5403  140.0738  156.8532 H   0  0  0  0  0  0  0  0  0  0  0  0  # atno 8009 bound_to 7997
  155.3227  140.3374  155.4243 H   0  0  0  0  0  0  0  0  0  0  0  0  # atno 8010 bound_to 7997
  139.5139  144.6402  151.5590 H   0  0  0  0  0  0  0  0  0  0  0  0  # atno 10167 bound_to 10162
  156.8118  130.9589  151.3115 H   0  0  0  0  0  0  0  0  0  0  0  0  # atno 10718 bound_to 10713
  153.4979  135.7017  153.5848 H   0  0  0  0  0  0  0  0  0  0  0  0  # atno 10763 bound_to 10752
  153.3992  135.3876  155.1976 H   0  0  0  0  0  0  0  0  0  0  0  0  # atno 10764 bound_to 10752
  154.8712  135.3877  154.4446 H   0  0  0  0  0  0  0  0  0  0  0  0  # atno 10765 bound_to 10752
  139.9846  134.9537  156.9711 H   0  0  0  0  0  0  0  0  0  0  0  0  # atno 11005 bound_to 11000
  146.3196  139.8057  142.8956 LP  0  0  0  0  0  0  0  0  0  0  0  0  # atno 17320 bound_to 7965
  145.3326  141.0270  143.3438 LP  0  0  0  0  0  0  0  0  0  0  0  0  # atno 17321 bound_to 7965
  140.6166  143.9338  150.6493 LP  0  0  0  0  0  0  0  0  0  0  0  0  # atno 17342 bound_to 10162
  140.2597  143.3532  152.1333 LP  0  0  0  0  0  0  0  0  0  0  0  0  # atno 17343 bound_to 10162
  157.6502  130.8878  149.9618 LP  0  0  0  0  0  0  0  0  0  0  0  0  # atno 17370 bound_to 10713
  156.1040  130.3654  150.0167 LP  0  0  0  0  0  0  0  0  0  0  0  0  # atno 17371 bound_to 10713
  140.5029  134.1079  155.7254 LP  0  0  0  0  0  0  0  0  0  0  0  0  # atno 17394 bound_to 11000
  141.1513  133.8964  157.2091 LP  0  0  0  0  0  0  0  0  0  0  0  0  # atno 17395 bound_to 11000

$$$$
