AV-unprocessed.smi:1340|AV-procd|sdf|5503|dock7
  -GOLD-   22720 5 83D 1   1.00000     0.00000
 Structure written by MMmdl.
 40 41  0  0  0  0  0  0  0  0  1 V2000
  151.7785  144.3071  159.1729 C   0  0  0  0  0  0  0  0  0  0  0  0
  152.2375  142.9970  158.5238 C   0  0  0  0  0  0  0  0  0  0  0  0
  151.5384  142.7238  157.1789 C   0  0  0  0  0  0  0  0  0  0  0  0
  150.1834  142.0011  157.3174 C   0  0  2  0  0  0  0  0  0  0  0  0
  150.3605  140.5128  157.6535 C   0  0  0  0  0  0  0  0  0  0  0  0
  149.4215  142.1456  156.0811 N   0  0  0  0  0  0  0  0  0  0  0  0
  149.4864  141.3369  155.0114 C   0  0  0  0  0  0  0  0  0  0  0  0
  150.2967  140.4172  154.9000 O   0  0  0  0  0  0  0  0  0  0  0  0
  148.4600  141.5977  153.9055 C   0  0  0  0  0  0  0  0  0  0  0  0
  147.1384  141.9733  154.5147 C   0  0  0  0  0  0  0  0  0  0  0  0
  146.4039  141.2373  155.4124 C   0  0  0  0  0  0  0  0  0  0  0  0
  144.9613  142.0746  155.9185 S   0  0  0  0  0  0  0  0  0  0  0  0
  145.4144  143.4203  154.8689 C   0  0  0  0  0  0  0  0  0  0  0  0
  144.7167  144.6551  154.7204 N   0  0  0  0  0  0  0  0  0  0  0  0
  143.9508  145.2392  155.8172 C   0  0  0  0  0  0  0  0  0  0  0  0
  143.3303  146.4905  155.2044 C   0  0  0  0  0  0  0  0  0  0  0  0
  143.8432  146.4539  153.8549 N   0  0  0  0  0  0  0  0  0  0  0  0
  144.6270  145.4031  153.6030 C   0  0  0  0  0  0  0  0  0  0  0  0
  145.1640  145.1901  152.5177 O   0  0  0  0  0  0  0  0  0  0  0  0
  146.5461  143.1999  154.1933 N   0  0  0  0  0  0  0  0  0  0  0  0
  152.2863  144.4667  160.1245 H   0  0  0  0  0  0  0  0  0  0  0  0
  150.7058  144.2954  159.3681 H   0  0  0  0  0  0  0  0  0  0  0  0
  151.9946  145.1619  158.5316 H   0  0  0  0  0  0  0  0  0  0  0  0
  153.3173  143.0271  158.3747 H   0  0  0  0  0  0  0  0  0  0  0  0
  152.0483  142.1810  159.2205 H   0  0  0  0  0  0  0  0  0  0  0  0
  151.3952  143.6665  156.6487 H   0  0  0  0  0  0  0  0  0  0  0  0
  152.2006  142.1232  156.5542 H   0  0  0  0  0  0  0  0  0  0  0  0
  149.6359  142.4722  158.1360 H   0  0  0  0  0  0  0  0  0  0  0  0
  150.9162  140.3849  158.5827 H   0  0  0  0  0  0  0  0  0  0  0  0
  150.9036  139.9892  156.8661 H   0  0  0  0  0  0  0  0  0  0  0  0
  149.3959  140.0195  157.7785 H   0  0  0  0  0  0  0  0  0  0  0  0
  148.7236  142.8755  156.0681 H   0  0  0  0  0  0  0  0  0  0  0  0
  148.8274  142.3902  153.2523 H   0  0  0  0  0  0  0  0  0  0  0  0
  148.3597  140.7060  153.2851 H   0  0  0  0  0  0  0  0  0  0  0  0
  146.6334  140.2640  155.8204 H   0  0  0  0  0  0  0  0  0  0  0  0
  143.1854  144.5465  156.1699 H   0  0  0  0  0  0  0  0  0  0  0  0
  144.6068  145.4881  156.6528 H   0  0  0  0  0  0  0  0  0  0  0  0
  142.2403  146.4476  155.2012 H   0  0  0  0  0  0  0  0  0  0  0  0
  143.6506  147.3999  155.7142 H   0  0  0  0  0  0  0  0  0  0  0  0
  143.6226  147.1655  153.1732 H   0  0  0  0  0  0  0  0  0  0  0  0
  1  2  1  0  0  0  0
  1 21  1  0  0  0  0
  1 22  1  0  0  0  0
  1 23  1  0  0  0  0
  2  3  1  0  0  0  0
  2 24  1  0  0  0  0
  2 25  1  0  0  0  0
  3  4  1  0  0  0  0
  3 26  1  0  0  0  0
  3 27  1  0  0  0  0
  4  5  1  0  0  0  0
  4  6  1  0  0  0  0
  4 28  1  0  0  0  0
  5 29  1  0  0  0  0
  5 30  1  0  0  0  0
  5 31  1  0  0  0  0
  6  7  1  0  0  0  0
  6 32  1  0  0  0  0
  7  8  2  0  0  0  0
  7  9  1  0  0  0  0
  9 10  1  0  0  0  0
  9 33  1  0  0  0  0
  9 34  1  0  0  0  0
 10 20  1  0  0  0  0
 10 11  2  0  0  0  0
 11 12  1  0  0  0  0
 11 35  1  0  0  0  0
 12 13  1  0  0  0  0
 13 14  1  0  0  0  0
 13 20  2  0  0  0  0
 14 18  1  0  0  0  0
 14 15  1  0  0  0  0
 15 16  1  0  0  0  0
 15 36  1  0  0  0  0
 15 37  1  0  0  0  0
 16 17  1  0  0  0  0
 16 38  1  0  0  0  0
 16 39  1  0  0  0  0
 17 18  1  0  0  0  0
 17 40  1  0  0  0  0
 18 19  2  0  0  0  0
M  END
> <s_m_source_file>
AV-unprocessed.smi

> <i_m_source_file_index>
1340

> <i_lp_mmshare_version>
43012

> <i_f3d_flags>
0

> <s_epik_input>
W0NIM11bQ0gyXVtDSDJdW0NASF0oW0NIM10pW05IXUMoPU8pW0NIMl1jMVtjSF1zYyhuMSlOMltDSDJdW0NIMl1bTkhdQzI9Tw==

> <s_epik_cmdline>
J2VwaWtfcHl0aG9uJywgJy1waCcsICc3LjAnLCAnLXRuJywgJzgnLCAnLW1hJywgJzIwMCcsICctbWV0YWxfYmluZGluZycsICctaW1hZScsICc8aW5maWxlLm1hZT4nLCAnLW9tYWUnLCAnPG91dGZpbGUubWFlPic=

> <r_lp_tautomer_probability>
1

> <r_epik_Ionization_Penalty>
0.00012151

> <r_epik_Ionization_Penalty_Charging>
0

> <r_epik_Ionization_Penalty_Neutral>
0.00012151

> <r_epik_State_Penalty>
-0

> <r_epik_Charging_Adjusted_Penalty>
0

> <i_epik_Tot_Q>
0

> <i_epik_Tot_abs_Q>
0

> <r_epik_Metal_State_Penalty>
-0

> <b_epik_Metal_Only>
0

> <s_lp_Force_Field>
OPLS_2005

> <r_lp_Energy>
29.8855

> <b_lp_Chiralities_Consistent>
1

> <s_lp_Variant>
AV-unprocessed.smi:1340-1

> <Gold.Version>
5.8.1

> <Gold.Id.Protein>
6NUR|6NUR_protein|mol2

> <Gold.PLP.Fitness>
42.5618

> <Gold.PLP.PLP>
-40.7037

> <Gold.PLP.part.hbond>
-3.7096

> <Gold.PLP.part.metal>
0.0000

> <Gold.PLP.part.buried>
-7.6750

> <Gold.PLP.part.nonpolar>
-31.3170

> <Gold.PLP.part.repulsive>
1.0441

> <Gold.PLP.ligand.clash>
0.0000

> <Gold.PLP.ligand.torsion>
1.3644

> <Gold.PLP.Chemscore.Hbond>
1.5200

> <Gold.PLP.Chemscore.CHOScore>
0.0000

> <Gold.PLP.Chemscore.Metal>
0.0000

> <Gold.Chemscore.Hbonds>
donor molecule, donor type, donor heavy atom, donor atom, acceptor molecule, acceptor atom, score
      L1  H     6    32       P1  8028  0.62
      P1  H  7989  7998       L1     8  1.00

> <Gold.PLP.Chemscore.Internal.Correction>
0.0270

> <Gold.Rescore>
     Score         DG    S(hbond)    S(metal)    S(lipo)     H(rot)  DE(clash)    DE(int)     intcor
      8.71     -13.23       1.16        0.00      75.22       1.92       1.09       3.44       ----

> <Gold.Chemscore.Fitness>
8.7083

> <Gold.Chemscore.DG>
-13.2349

> <Gold.Chemscore.ZeroCoef>
-5.4800

> <Gold.Chemscore.Hbond>
1.1566

> <Gold.Chemscore.Metal>
0.0000

> <Gold.Chemscore.Lipo>
75.2203

> <Gold.Chemscore.Internal_Hbond>
0.0000

> <Gold.Chemscore.DEClash>
1.0884

> <Gold.Chemscore.DEInternal>
3.4382

> <Gold.Chemscore.Rot>
1.9176

> <Gold.Chemscore.Internal.Correction>
   9.000000E+99

> <Gold.Chemscore.Hbonds>
donor molecule, donor type, donor heavy atom, donor atom, acceptor molecule, acceptor atom, score
      L1  H     6    32       P1  8028  0.62
      P1  H  7989  7998       L1     8  0.65

> <Gold.Chemscore.Hbond.Weighted>
-3.8632

> <Gold.Chemscore.Metal.Weighted>
-0.0000

> <Gold.Chemscore.Lipo.Weighted>
-8.8008

> <Gold.Chemscore.Internal_Hbond.Weighted>
0.0000

> <Gold.Chemscore.DEClash.Weighted>
1.0884

> <Gold.Chemscore.DEInternal.Weighted>
3.4382

> <Gold.Chemscore.Rot.Weighted>
4.9091

> <Gold.Chemscore.Internal.Correction.Weighted>
   9.000000E+99

> <Gold.Protein.RotatedTorsions>
[ 6907 6896 6895 6894 ] final -178.31 input  -60.11 | X-H torsion
[ 7974 7965 7964 7962 ] final  -63.06 input  175.53 | X-H torsion
[ 8008 7997 7996 7995 ] final  -62.91 input   59.86 | X-H torsion
[ 10167 10162 10161 10158 ] final   82.82 input  -65.29 | X-H torsion
[ 10718 10713 10712 10709 ] final   -6.20 input   66.30 | X-H torsion
[ 10763 10752 10751 10750 ] final  158.61 input  -60.55 | X-H torsion
[ 11005 11000 10999 10996 ] final  -42.34 input  -57.11 | X-H torsion

> <Gold.Protein.ActiveResidues>
 VAL166  LYS551  ARG553  GLY616  TRP617  ASP618  TYR619  PRO620  LYS621  CYS622 
 ASP623  PHE694  ASN695  SER759  ASP760  ASP761  ALA762  ILE779  LEU786  VAL792 
 PHE793  MET794  SER795  GLU796  ALA797  LYS798  CYS799  TRP800  GLU811  SER814 

> <Gold.Protein.RotatedAtoms>
  151.6352  133.3329  159.3117 H   0  0  0  0  0  0  0  0  0  0  0  0  # atno 6907 bound_to 6896
  150.8036  134.7150  159.6635 H   0  0  0  0  0  0  0  0  0  0  0  0  # atno 6908 bound_to 6896
  152.4130  134.6095  160.0073 H   0  0  0  0  0  0  0  0  0  0  0  0  # atno 6909 bound_to 6896
  145.7836  140.8748  143.0317 H   0  0  0  0  0  0  0  0  0  0  0  0  # atno 7974 bound_to 7965
  154.4525  140.0986  156.6661 H   0  0  0  0  0  0  0  0  0  0  0  0  # atno 8008 bound_to 7997
  155.5239  140.3479  155.4394 H   0  0  0  0  0  0  0  0  0  0  0  0  # atno 8009 bound_to 7997
  156.0711  140.1349  156.9816 H   0  0  0  0  0  0  0  0  0  0  0  0  # atno 8010 bound_to 7997
  139.9248  144.6189  150.8403 H   0  0  0  0  0  0  0  0  0  0  0  0  # atno 10167 bound_to 10162
  156.7354  130.5193  149.5836 H   0  0  0  0  0  0  0  0  0  0  0  0  # atno 10718 bound_to 10713
  154.2187  135.2783  155.2932 H   0  0  0  0  0  0  0  0  0  0  0  0  # atno 10763 bound_to 10752
  154.5719  135.5616  153.7107 H   0  0  0  0  0  0  0  0  0  0  0  0  # atno 10764 bound_to 10752
  153.0047  135.6323  154.2327 H   0  0  0  0  0  0  0  0  0  0  0  0  # atno 10765 bound_to 10752
  141.0309  133.6820  156.2582 H   0  0  0  0  0  0  0  0  0  0  0  0  # atno 11005 bound_to 11000
  144.6792  140.0024  143.7484 LP  0  0  0  0  0  0  0  0  0  0  0  0  # atno 17320 bound_to 7965
  146.0049  139.3121  143.0905 LP  0  0  0  0  0  0  0  0  0  0  0  0  # atno 17321 bound_to 7965
  140.7653  143.3271  151.2491 LP  0  0  0  0  0  0  0  0  0  0  0  0  # atno 17342 bound_to 10162
  139.6831  143.9820  152.2819 LP  0  0  0  0  0  0  0  0  0  0  0  0  # atno 17343 bound_to 10162
  156.1501  130.6304  151.0584 LP  0  0  0  0  0  0  0  0  0  0  0  0  # atno 17370 bound_to 10713
  157.6841  131.0830  150.7290 LP  0  0  0  0  0  0  0  0  0  0  0  0  # atno 17371 bound_to 10713
  140.6408  134.5167  157.5569 LP  0  0  0  0  0  0  0  0  0  0  0  0  # atno 17394 bound_to 11000
  139.9207  134.8154  156.1220 LP  0  0  0  0  0  0  0  0  0  0  0  0  # atno 17395 bound_to 11000

$$$$
