AV-unprocessed.smi:3009|AV-procd|sdf|11454|dock1
  -GOLD-   2272016383D 1   1.00000     0.00000
 Structure written by MMmdl.
 43 44  0  0  0  0  0  0  0  0  1 V2000
  152.9305  138.9837  154.6971 C   0  0  0  0  0  0  0  0  0  0  0  0
  151.7880  139.6880  155.4469 C   0  0  0  0  0  0  0  0  0  0  0  0
  152.1257  139.8230  156.9386 C   0  0  0  0  0  0  0  0  0  0  0  0
  150.4430  138.9520  155.2646 C   0  0  0  0  0  0  0  0  0  0  0  0
  149.5077  139.5566  154.3147 N   0  0  0  0  0  0  0  0  0  0  0  0
  149.0188  140.8619  154.7541 C   0  0  0  0  0  0  0  0  0  0  0  0
  148.0216  141.4676  153.7515 C   0  0  0  0  0  0  0  0  0  0  0  0
  146.9430  140.5640  153.5366 O   0  0  0  0  0  0  0  0  0  0  0  0
  147.3694  139.2872  153.0681 C   0  0  2  0  0  0  0  0  0  0  0  0
  146.1360  138.4021  152.8041 C   0  0  0  0  0  0  0  0  0  0  0  0
  146.4845  137.0951  152.2534 N   0  0  0  0  0  0  0  0  0  0  0  0
  145.6081  136.1315  151.9380 C   0  0  0  0  0  0  0  0  0  0  0  0
  144.3892  136.2490  152.0647 O   0  0  0  0  0  0  0  0  0  0  0  0
  146.2335  135.0378  151.4724 N   0  0  0  0  0  0  0  0  0  0  0  0
  145.6395  133.8262  151.0372 C   0  0  0  0  0  0  0  0  0  0  0  0
  144.2771  133.6832  150.6577 C   0  0  0  0  0  0  0  0  0  0  0  0
  144.0035  132.4374  150.2974 N   0  0  0  0  0  0  0  0  0  0  0  0
  145.1783  131.7838  150.4430 N   0  0  0  0  0  0  0  0  0  0  0  0
  146.2022  132.5893  150.8903 C   0  0  0  0  0  0  0  0  0  0  0  0
  148.3649  138.6810  154.0804 C   0  0  0  0  0  0  0  0  0  0  0  0
  145.2644  130.7988  150.2360 H   0  0  0  0  0  0  0  0  0  0  0  0
  153.0666  137.9613  155.0508 H   0  0  0  0  0  0  0  0  0  0  0  0
  153.8740  139.5124  154.8343 H   0  0  0  0  0  0  0  0  0  0  0  0
  152.7350  138.9417  153.6253 H   0  0  0  0  0  0  0  0  0  0  0  0
  151.7015  140.7011  155.0554 H   0  0  0  0  0  0  0  0  0  0  0  0
  152.2397  138.8463  157.4103 H   0  0  0  0  0  0  0  0  0  0  0  0
  151.3407  140.3603  157.4716 H   0  0  0  0  0  0  0  0  0  0  0  0
  153.0556  140.3735  157.0836 H   0  0  0  0  0  0  0  0  0  0  0  0
  150.6645  137.9335  154.9422 H   0  0  0  0  0  0  0  0  0  0  0  0
  149.9528  138.8527  156.2345 H   0  0  0  0  0  0  0  0  0  0  0  0
  148.5388  140.7692  155.7295 H   0  0  0  0  0  0  0  0  0  0  0  0
  149.8477  141.5576  154.8768 H   0  0  0  0  0  0  0  0  0  0  0  0
  147.6261  142.4094  154.1319 H   0  0  0  0  0  0  0  0  0  0  0  0
  148.5146  141.6866  152.8032 H   0  0  0  0  0  0  0  0  0  0  0  0
  147.8815  139.4331  152.1154 H   0  0  0  0  0  0  0  0  0  0  0  0
  145.5480  138.2923  153.7166 H   0  0  0  0  0  0  0  0  0  0  0  0
  145.4847  138.8978  152.0841 H   0  0  0  0  0  0  0  0  0  0  0  0
  147.4666  136.9088  152.1131 H   0  0  0  0  0  0  0  0  0  0  0  0
  147.2408  135.0771  151.4208 H   0  0  0  0  0  0  0  0  0  0  0  0
  143.4936  134.4264  150.6335 H   0  0  0  0  0  0  0  0  0  0  0  0
  147.2015  132.2155  151.0570 H   0  0  0  0  0  0  0  0  0  0  0  0
  148.7112  137.7160  153.7080 H   0  0  0  0  0  0  0  0  0  0  0  0
  147.8579  138.4853  155.0265 H   0  0  0  0  0  0  0  0  0  0  0  0
  1  2  1  0  0  0  0
  1 22  1  0  0  0  0
  1 23  1  0  0  0  0
  1 24  1  0  0  0  0
  2  3  1  0  0  0  0
  2  4  1  0  0  0  0
  2 25  1  0  0  0  0
  3 26  1  0  0  0  0
  3 27  1  0  0  0  0
  3 28  1  0  0  0  0
  4  5  1  0  0  0  0
  4 29  1  0  0  0  0
  4 30  1  0  0  0  0
  5 20  1  0  0  0  0
  5  6  1  0  0  0  0
  6  7  1  0  0  0  0
  6 31  1  0  0  0  0
  6 32  1  0  0  0  0
  7  8  1  0  0  0  0
  7 33  1  0  0  0  0
  7 34  1  0  0  0  0
  8  9  1  0  0  0  0
  9 10  1  0  0  0  0
  9 20  1  0  0  0  0
  9 35  1  0  0  0  0
 10 11  1  0  0  0  0
 10 36  1  0  0  0  0
 10 37  1  0  0  0  0
 11 12  1  0  0  0  0
 11 38  1  0  0  0  0
 12 13  2  0  0  0  0
 12 14  1  0  0  0  0
 14 15  1  0  0  0  0
 14 39  1  0  0  0  0
 15 19  2  0  0  0  0
 15 16  1  0  0  0  0
 16 17  2  0  0  0  0
 16 40  1  0  0  0  0
 17 18  1  0  0  0  0
 18 21  1  0  0  0  0
 18 19  1  0  0  0  0
 19 41  1  0  0  0  0
 20 42  1  0  0  0  0
 20 43  1  0  0  0  0
M  END
> <s_m_source_file>
AV-unprocessed.smi

> <i_m_source_file_index>
3009

> <i_lp_mmshare_version>
43012

> <i_f3d_flags>
0

> <s_epik_input>
W0NIM11bQ0hdKFtDSDNdKVtDSDJdTjFbQ0gyXVtDSDJdT1tDQEhdKFtDSDJdMSlbQ0gyXVtOSF1DKD1PKVtOSF1jMltjSF1uW25IXVtjSF0y

> <s_epik_cmdline>
J2VwaWtfcHl0aG9uJywgJy1waCcsICc3LjAnLCAnLXRuJywgJzgnLCAnLW1hJywgJzIwMCcsICctbWV0YWxfYmluZGluZycsICctaW1hZScsICc8aW5maWxlLm1hZT4nLCAnLW9tYWUnLCAnPG91dGZpbGUubWFlPic=

> <r_lp_tautomer_probability>
0.5

> <r_epik_Ionization_Penalty>
1.11801

> <r_epik_Ionization_Penalty_Charging>
0

> <r_epik_Ionization_Penalty_Neutral>
1.11801

> <r_epik_State_Penalty>
1.17654

> <r_epik_Charging_Adjusted_Penalty>
1.17654

> <i_epik_Tot_Q>
0

> <i_epik_Tot_abs_Q>
0

> <r_epik_Metal_State_Penalty>
1.17654

> <b_epik_Metal_Only>
0

> <s_lp_Force_Field>
OPLS_2005

> <r_lp_Energy>
28.7191

> <b_lp_Chiralities_Consistent>
1

> <s_lp_Variant>
AV-unprocessed.smi:3009-6

> <Gold.Version>
5.8.1

> <Gold.Id.Protein>
6NUR|6NUR_protein|mol2

> <Gold.PLP.Fitness>
42.6296

> <Gold.PLP.PLP>
-33.1261

> <Gold.PLP.part.hbond>
-2.0000

> <Gold.PLP.part.metal>
0.0000

> <Gold.PLP.part.buried>
-3.9623

> <Gold.PLP.part.nonpolar>
-28.7181

> <Gold.PLP.part.repulsive>
1.0193

> <Gold.PLP.ligand.clash>
0.0000

> <Gold.PLP.ligand.torsion>
0.7403

> <Gold.PLP.Chemscore.Hbond>
1.8596

> <Gold.PLP.Chemscore.CHOScore>
1.7771

> <Gold.PLP.Chemscore.Metal>
0.0000

> <Gold.Chemscore.Hbonds>
donor molecule, donor type, donor heavy atom, donor atom, acceptor molecule, acceptor atom, score
      L1  H    11    38       P1  7948  1.00
      L1  H    14    39       P1  7948  0.86
      L1  C    16    40       P1 10186  0.56
      L1  C    19    41       P1 10747  1.00

> <Gold.PLP.Chemscore.Internal.Correction>
0.0742

> <Gold.Rescore>
     Score         DG    S(hbond)    S(metal)    S(lipo)     H(rot)  DE(clash)    DE(int)     intcor
     14.35     -16.73       1.76        0.00      84.24       1.76       0.45       1.92       ----

> <Gold.Chemscore.Fitness>
14.3549

> <Gold.Chemscore.DG>
-16.7304

> <Gold.Chemscore.ZeroCoef>
-5.4800

> <Gold.Chemscore.Hbond>
1.7640

> <Gold.Chemscore.Metal>
0.0000

> <Gold.Chemscore.Lipo>
84.2408

> <Gold.Chemscore.Internal_Hbond>
0.0000

> <Gold.Chemscore.DEClash>
0.4536

> <Gold.Chemscore.DEInternal>
1.9219

> <Gold.Chemscore.Rot>
1.7568

> <Gold.Chemscore.Internal.Correction>
   9.000000E+99

> <Gold.Chemscore.Hbonds>
donor molecule, donor type, donor heavy atom, donor atom, acceptor molecule, acceptor atom, score
      L1  H    11    38       P1  7948  1.00
      L1  H    14    39       P1  7948  0.60

> <Gold.Chemscore.Hbond.Weighted>
-5.8916

> <Gold.Chemscore.Metal.Weighted>
-0.0000

> <Gold.Chemscore.Lipo.Weighted>
-9.8562

> <Gold.Chemscore.Internal_Hbond.Weighted>
0.0000

> <Gold.Chemscore.DEClash.Weighted>
0.4536

> <Gold.Chemscore.DEInternal.Weighted>
1.9219

> <Gold.Chemscore.Rot.Weighted>
4.4974

> <Gold.Chemscore.Internal.Correction.Weighted>
   9.000000E+99

> <Gold.Protein.RotatedTorsions>
[ 6907 6896 6895 6894 ] final    6.05 input  -60.11 | X-H torsion
[ 7974 7965 7964 7962 ] final  137.18 input  175.53 | X-H torsion
[ 8008 7997 7996 7995 ] final   55.02 input   59.86 | X-H torsion
[ 10167 10162 10161 10158 ] final  175.69 input  -65.29 | X-H torsion
[ 10718 10713 10712 10709 ] final  113.63 input   66.30 | X-H torsion
[ 10763 10752 10751 10750 ] final  125.30 input  -60.55 | X-H torsion
[ 11005 11000 10999 10996 ] final -177.15 input  -57.11 | X-H torsion

> <Gold.Protein.ActiveResidues>
 VAL166  LYS551  ARG553  GLY616  TRP617  ASP618  TYR619  PRO620  LYS621  CYS622 
 ASP623  PHE694  ASN695  SER759  ASP760  ASP761  ALA762  ILE779  LEU786  VAL792 
 PHE793  MET794  SER795  GLU796  ALA797  LYS798  CYS799  TRP800  GLU811  SER814 

> <Gold.Protein.RotatedAtoms>
  151.6674  135.0981  160.0191 H   0  0  0  0  0  0  0  0  0  0  0  0  # atno 6907 bound_to 6896
  152.3911  133.6677  159.6247 H   0  0  0  0  0  0  0  0  0  0  0  0  # atno 6908 bound_to 6896
  150.7827  133.8868  159.3343 H   0  0  0  0  0  0  0  0  0  0  0  0  # atno 6909 bound_to 6896
  144.9492  139.4838  143.5534 H   0  0  0  0  0  0  0  0  0  0  0  0  # atno 7974 bound_to 7965
  155.4943  140.3472  155.4360 H   0  0  0  0  0  0  0  0  0  0  0  0  # atno 8008 bound_to 7997
  156.0956  140.1422  156.9563 H   0  0  0  0  0  0  0  0  0  0  0  0  # atno 8009 bound_to 7997
  154.4661  140.0917  156.7002 H   0  0  0  0  0  0  0  0  0  0  0  0  # atno 8010 bound_to 7997
  139.5186  144.3002  152.0385 H   0  0  0  0  0  0  0  0  0  0  0  0  # atno 10167 bound_to 10162
  157.6327  131.0986  150.7069 H   0  0  0  0  0  0  0  0  0  0  0  0  # atno 10718 bound_to 10713
  153.6751  135.3324  155.3163 H   0  0  0  0  0  0  0  0  0  0  0  0  # atno 10763 bound_to 10752
  154.8481  135.4395  154.1665 H   0  0  0  0  0  0  0  0  0  0  0  0  # atno 10764 bound_to 10752
  153.2666  135.6996  153.7600 H   0  0  0  0  0  0  0  0  0  0  0  0  # atno 10765 bound_to 10752
  140.4442  134.6404  157.4771 H   0  0  0  0  0  0  0  0  0  0  0  0  # atno 11005 bound_to 11000
  146.3315  139.8566  142.8863 LP  0  0  0  0  0  0  0  0  0  0  0  0  # atno 17320 bound_to 7965
  145.2869  141.0156  143.3685 LP  0  0  0  0  0  0  0  0  0  0  0  0  # atno 17321 bound_to 7965
  140.2450  144.4229  150.6244 LP  0  0  0  0  0  0  0  0  0  0  0  0  # atno 17342 bound_to 10162
  140.6264  143.2182  151.6587 LP  0  0  0  0  0  0  0  0  0  0  0  0  # atno 17343 bound_to 10162
  156.7405  130.4738  149.5478 LP  0  0  0  0  0  0  0  0  0  0  0  0  # atno 17370 bound_to 10713
  156.1542  130.6331  151.0636 LP  0  0  0  0  0  0  0  0  0  0  0  0  # atno 17371 bound_to 10713
  140.0050  134.6778  155.9470 LP  0  0  0  0  0  0  0  0  0  0  0  0  # atno 17394 bound_to 11000
  141.1692  133.6537  156.4591 LP  0  0  0  0  0  0  0  0  0  0  0  0  # atno 17395 bound_to 11000

$$$$
