AV-unprocessed.smi:702|AV-procd|sdf|3421|dock3
  -GOLD-   22720 0403D 1   1.00000     0.00000
 Structure written by MMmdl.
 51 53  0  0  0  0  0  0  0  0  3 V2000
  148.6414  133.7412  156.4860 C   0  0  0  0  0  0  0  0  0  0  0  0
  149.2151  134.9209  155.6772 C   0  0  1  0  0  0  0  0  0  0  0  0
  148.5834  134.9253  154.3519 N   0  0  0  0  0  0  0  0  0  0  0  0
  147.2991  134.6525  154.0743 C   0  0  0  0  0  0  0  0  0  0  0  0
  146.4608  134.3719  154.9302 O   0  0  0  0  0  0  0  0  0  0  0  0
  147.0631  134.7362  152.7534 N   0  0  0  0  0  0  0  0  0  0  0  0
  145.8497  134.5061  152.0479 C   0  0  0  0  0  0  0  0  0  0  0  0
  145.6051  135.2947  150.9014 C   0  0  0  0  0  0  0  0  0  0  0  0
  144.4230  135.0969  150.1589 C   0  0  0  0  0  0  0  0  0  0  0  0
  143.5386  134.1515  150.5423 N   0  3  0  0  0  0  0  0  0  0  0  0
  143.7344  133.3641  151.6214 C   0  0  0  0  0  0  0  0  0  0  0  0
  144.8984  133.5151  152.4026 C   0  0  0  0  0  0  0  0  0  0  0  0
  149.0776  136.3080  156.4067 C   0  0  0  0  0  0  0  0  0  0  0  0
  149.6299  137.4202  155.5408 N   0  3  0  0  0  0  0  0  0  0  0  0
  149.4268  138.8032  156.0645 C   0  0  0  0  0  0  0  0  0  0  0  0
  149.8794  139.8538  155.0361 C   0  0  0  0  0  0  0  0  0  0  0  0
  151.2398  139.6408  154.6930 O   0  0  0  0  0  0  0  0  0  0  0  0
  151.4305  138.3685  154.0941 C   0  0  0  0  0  0  0  0  0  0  0  0
  151.0488  137.2665  155.0956 C   0  0  0  0  0  0  0  0  0  0  0  0
  147.5888  136.5802  156.7841 C   0  0  0  0  0  0  0  0  0  0  0  0
  147.4657  136.3742  158.2948 C   0  0  0  0  0  0  0  0  0  0  0  0
  148.8323  136.7767  158.8344 C   0  0  0  0  0  0  0  0  0  0  0  0
  149.8096  136.2415  157.7868 C   0  0  0  0  0  0  0  0  0  0  0  0
  149.1337  133.6369  157.4526 H   0  0  0  0  0  0  0  0  0  0  0  0
  148.7836  132.8002  155.9534 H   0  0  0  0  0  0  0  0  0  0  0  0
  147.5728  133.8549  156.6689 H   0  0  0  0  0  0  0  0  0  0  0  0
  150.2704  134.7084  155.5195 H   0  0  0  0  0  0  0  0  0  0  0  0
  149.1889  135.1477  153.5750 H   0  0  0  0  0  0  0  0  0  0  0  0
  147.8372  135.0501  152.1864 H   0  0  0  0  0  0  0  0  0  0  0  0
  146.3129  136.0505  150.5927 H   0  0  0  0  0  0  0  0  0  0  0  0
  144.1615  135.6615  149.2759 H   0  0  0  0  0  0  0  0  0  0  0  0
  142.9615  132.6368  151.8236 H   0  0  0  0  0  0  0  0  0  0  0  0
  145.0400  132.8598  153.2480 H   0  0  0  0  0  0  0  0  0  0  0  0
  148.3817  139.0069  156.2824 H   0  0  0  0  0  0  0  0  0  0  0  0
  149.9787  138.9403  156.9949 H   0  0  0  0  0  0  0  0  0  0  0  0
  149.2552  139.8173  154.1418 H   0  0  0  0  0  0  0  0  0  0  0  0
  149.7755  140.8555  155.4537 H   0  0  0  0  0  0  0  0  0  0  0  0
  150.8424  138.2873  153.1785 H   0  0  0  0  0  0  0  0  0  0  0  0
  152.4779  138.2684  153.8088 H   0  0  0  0  0  0  0  0  0  0  0  0
  151.7279  137.3132  155.9462 H   0  0  0  0  0  0  0  0  0  0  0  0
  151.2294  136.3118  154.6081 H   0  0  0  0  0  0  0  0  0  0  0  0
  147.2904  137.6033  156.5633 H   0  0  0  0  0  0  0  0  0  0  0  0
  146.8883  135.9506  156.2350 H   0  0  0  0  0  0  0  0  0  0  0  0
  146.6545  136.9571  158.7320 H   0  0  0  0  0  0  0  0  0  0  0  0
  147.2751  135.3230  158.5147 H   0  0  0  0  0  0  0  0  0  0  0  0
  148.9008  137.8632  158.8962 H   0  0  0  0  0  0  0  0  0  0  0  0
  149.0237  136.3742  159.8295 H   0  0  0  0  0  0  0  0  0  0  0  0
  150.0432  135.2161  158.0701 H   0  0  0  0  0  0  0  0  0  0  0  0
  150.7755  136.7446  157.8076 H   0  0  0  0  0  0  0  0  0  0  0  0
  149.0843  137.3750  154.6918 H   0  0  0  0  0  0  0  0  0  0  0  0
  142.6894  134.0235  149.9910 H   0  0  0  0  0  0  0  0  0  0  0  0
  1  2  1  0  0  0  0
  1 24  1  0  0  0  0
  1 25  1  0  0  0  0
  1 26  1  0  0  0  0
  2  3  1  0  0  0  0
  2 13  1  0  0  0  0
  2 27  1  0  0  0  0
  3  4  1  0  0  0  0
  3 28  1  0  0  0  0
  4  5  2  0  0  0  0
  4  6  1  0  0  0  0
  6  7  1  0  0  0  0
  6 29  1  0  0  0  0
  7 12  1  0  0  0  0
  7  8  2  0  0  0  0
  8  9  1  0  0  0  0
  8 30  1  0  0  0  0
  9 10  2  0  0  0  0
  9 31  1  0  0  0  0
 10 11  1  0  0  0  0
 10 51  1  0  0  0  0
 11 12  2  0  0  0  0
 11 32  1  0  0  0  0
 12 33  1  0  0  0  0
 13 23  1  0  0  0  0
 13 14  1  0  0  0  0
 13 20  1  0  0  0  0
 14 19  1  0  0  0  0
 14 15  1  0  0  0  0
 14 50  1  0  0  0  0
 15 16  1  0  0  0  0
 15 34  1  0  0  0  0
 15 35  1  0  0  0  0
 16 17  1  0  0  0  0
 16 36  1  0  0  0  0
 16 37  1  0  0  0  0
 17 18  1  0  0  0  0
 18 19  1  0  0  0  0
 18 38  1  0  0  0  0
 18 39  1  0  0  0  0
 19 40  1  0  0  0  0
 19 41  1  0  0  0  0
 20 21  1  0  0  0  0
 20 42  1  0  0  0  0
 20 43  1  0  0  0  0
 21 22  1  0  0  0  0
 21 44  1  0  0  0  0
 21 45  1  0  0  0  0
 22 23  1  0  0  0  0
 22 46  1  0  0  0  0
 22 47  1  0  0  0  0
 23 48  1  0  0  0  0
 23 49  1  0  0  0  0
M  CHG  1  10   1
M  CHG  1  14   1
M  END
> <s_m_source_file>
AV-unprocessed.smi

> <i_m_source_file_index>
702

> <i_lp_mmshare_version>
43012

> <i_f3d_flags>
0

> <s_epik_input>
W0NIMl0xW0NIMl1PW0NIMl1bQ0gyXU4xQzIoW0NIMl1bQ0gyXVtDSDJdW0NIMl0yKVtDQEhdKFtDSDNdKVtOSF1DKD1PKVtOSF1jM1tjSF1bY0hdbltjSF1bY0hdMw==

> <s_epik_cmdline>
J2VwaWtfcHl0aG9uJywgJy1waCcsICc3LjAnLCAnLXRuJywgJzgnLCAnLW1hJywgJzIwMCcsICctbWV0YWxfYmluZGluZycsICctaW1hZScsICc8aW5maWxlLm1hZT4nLCAnLW9tYWUnLCAnPG91dGZpbGUubWFlPic=

> <r_epik_Ionization_Penalty>
1.42147

> <r_epik_Ionization_Penalty_Charging>
1.42145

> <r_epik_Ionization_Penalty_Neutral>
1.94713e-05

> <r_epik_State_Penalty>
1.44789

> <r_epik_Charging_Adjusted_Penalty>
2.86934

> <i_epik_Tot_Q>
2

> <i_epik_Tot_abs_Q>
2

> <r_epik_Metal_State_Penalty>
1.5401

> <b_epik_Metal_Only>
0

> <s_lp_Force_Field>
OPLS_2005

> <r_lp_Energy>
62.23

> <b_lp_Chiralities_Consistent>
1

> <s_lp_Variant>
AV-unprocessed.smi:702-6

> <Gold.Version>
5.8.1

> <Gold.Id.Protein>
6NUR|6NUR_protein|mol2

> <Gold.PLP.Fitness>
40.3690

> <Gold.PLP.PLP>
-27.3363

> <Gold.PLP.part.hbond>
-3.9839

> <Gold.PLP.part.metal>
0.0000

> <Gold.PLP.part.buried>
-4.5519

> <Gold.PLP.part.nonpolar>
-18.6058

> <Gold.PLP.part.repulsive>
0.1366

> <Gold.PLP.ligand.clash>
0.0000

> <Gold.PLP.ligand.torsion>
0.6560

> <Gold.PLP.Chemscore.Hbond>
4.7360

> <Gold.PLP.Chemscore.CHOScore>
0.0000

> <Gold.PLP.Chemscore.Metal>
0.0000

> <Gold.Chemscore.Hbonds>
donor molecule, donor type, donor heavy atom, donor atom, acceptor molecule, acceptor atom, score
      L1  H     3    28       P1  7948  0.70
      L1  H     6    29       P1  7948  1.00
      L1  H    10    51       P1 10186  2.00
      P1  H  7989  7998       L1    17  1.00

> <Gold.PLP.Chemscore.Internal.Correction>
0.1368

> <Gold.Rescore>
     Score         DG    S(hbond)    S(metal)    S(lipo)     H(rot)  DE(clash)    DE(int)     intcor
     16.01     -19.14       2.92        0.00      65.65       1.48       0.26       2.87       ----

> <Gold.Chemscore.Fitness>
16.0125

> <Gold.Chemscore.DG>
-19.1430

> <Gold.Chemscore.ZeroCoef>
-5.4800

> <Gold.Chemscore.Hbond>
2.9244

> <Gold.Chemscore.Metal>
0.0000

> <Gold.Chemscore.Lipo>
65.6480

> <Gold.Chemscore.Internal_Hbond>
0.0000

> <Gold.Chemscore.DEClash>
0.2616

> <Gold.Chemscore.DEInternal>
2.8690

> <Gold.Chemscore.Rot>
1.4787

> <Gold.Chemscore.Internal.Correction>
   9.000000E+99

> <Gold.Chemscore.Hbonds>
donor molecule, donor type, donor heavy atom, donor atom, acceptor molecule, acceptor atom, score
      L1  H     3    28       P1  7948  0.17
      L1  H     6    29       P1  7948  0.80
      L1  H    10    51       P1 10186  0.96
      P1  H  7989  7998       L1    17  0.39

> <Gold.Chemscore.Hbond.Weighted>
-9.7676

> <Gold.Chemscore.Metal.Weighted>
-0.0000

> <Gold.Chemscore.Lipo.Weighted>
-7.6808

> <Gold.Chemscore.Internal_Hbond.Weighted>
0.0000

> <Gold.Chemscore.DEClash.Weighted>
0.2616

> <Gold.Chemscore.DEInternal.Weighted>
2.8690

> <Gold.Chemscore.Rot.Weighted>
3.7854

> <Gold.Chemscore.Internal.Correction.Weighted>
   9.000000E+99

> <Gold.Protein.RotatedTorsions>
[ 6907 6896 6895 6894 ] final  -40.22 input  -60.11 | X-H torsion
[ 7974 7965 7964 7962 ] final  -66.33 input  175.53 | X-H torsion
[ 8008 7997 7996 7995 ] final  110.29 input   59.86 | X-H torsion
[ 10167 10162 10161 10158 ] final  132.39 input  -65.29 | X-H torsion
[ 10718 10713 10712 10709 ] final  -16.34 input   66.30 | X-H torsion
[ 10763 10752 10751 10750 ] final -171.25 input  -60.55 | X-H torsion
[ 11005 11000 10999 10996 ] final  -67.81 input  -57.11 | X-H torsion

> <Gold.Protein.ActiveResidues>
 VAL166  LYS551  ARG553  GLY616  TRP617  ASP618  TYR619  PRO620  LYS621  CYS622 
 ASP623  PHE694  ASN695  SER759  ASP760  ASP761  ALA762  ILE779  LEU786  VAL792 
 PHE793  MET794  SER795  GLU796  ALA797  LYS798  CYS799  TRP800  GLU811  SER814 

> <Gold.Protein.RotatedAtoms>
  150.9810  134.9165  159.7843 H   0  0  0  0  0  0  0  0  0  0  0  0  # atno 6907 bound_to 6896
  152.5221  134.3411  159.9227 H   0  0  0  0  0  0  0  0  0  0  0  0  # atno 6908 bound_to 6896
  151.3418  133.3918  159.2706 H   0  0  0  0  0  0  0  0  0  0  0  0  # atno 6909 bound_to 6896
  145.7431  140.8944  143.0519 H   0  0  0  0  0  0  0  0  0  0  0  0  # atno 7974 bound_to 7965
  156.2042  140.3041  155.9591 H   0  0  0  0  0  0  0  0  0  0  0  0  # atno 8008 bound_to 7997
  155.2881  140.0441  157.3038 H   0  0  0  0  0  0  0  0  0  0  0  0  # atno 8009 bound_to 7997
  154.5611  140.2320  155.8343 H   0  0  0  0  0  0  0  0  0  0  0  0  # atno 8010 bound_to 7997
  139.5342  144.6664  151.4845 H   0  0  0  0  0  0  0  0  0  0  0  0  # atno 10167 bound_to 10162
  156.5890  130.4794  149.6287 H   0  0  0  0  0  0  0  0  0  0  0  0  # atno 10718 bound_to 10713
  154.6326  135.2888  155.0199 H   0  0  0  0  0  0  0  0  0  0  0  0  # atno 10763 bound_to 10752
  154.1354  135.6527  153.4935 H   0  0  0  0  0  0  0  0  0  0  0  0  # atno 10764 bound_to 10752
  153.0287  135.5320  154.7159 H   0  0  0  0  0  0  0  0  0  0  0  0  # atno 10765 bound_to 10752
  141.1517  133.6727  156.6350 H   0  0  0  0  0  0  0  0  0  0  0  0  # atno 11005 bound_to 11000
  144.6866  139.9488  143.7477 LP  0  0  0  0  0  0  0  0  0  0  0  0  # atno 17320 bound_to 7965
  146.0428  139.3438  143.0687 LP  0  0  0  0  0  0  0  0  0  0  0  0  # atno 17321 bound_to 7965
  140.6538  143.8641  150.6813 LP  0  0  0  0  0  0  0  0  0  0  0  0  # atno 17342 bound_to 10162
  140.2014  143.3956  152.1788 LP  0  0  0  0  0  0  0  0  0  0  0  0  # atno 17343 bound_to 10162
  156.2566  130.6938  151.1693 LP  0  0  0  0  0  0  0  0  0  0  0  0  # atno 17370 bound_to 10713
  157.7308  131.0613  150.5708 LP  0  0  0  0  0  0  0  0  0  0  0  0  # atno 17371 bound_to 10713
  140.3438  134.7827  157.4417 LP  0  0  0  0  0  0  0  0  0  0  0  0  # atno 17394 bound_to 11000
  140.0916  134.5593  155.8438 LP  0  0  0  0  0  0  0  0  0  0  0  0  # atno 17395 bound_to 11000

$$$$
