AV-unprocessed.smi:2405|AV-procd|sdf|9512|dock7
  -GOLD-   2272013143D 1   1.00000     0.00000
 Structure written by MMmdl.
 36 37  0  0  0  0  0  0  0  0  2 V2000
  151.1928  145.5058  159.8874 C   0  0  0  0  0  0  0  0  0  0  0  0
  151.6491  144.1933  159.2414 C   0  0  0  0  0  0  0  0  0  0  0  0
  152.2624  143.2566  160.2269 C   0  0  0  0  0  0  0  0  0  0  0  0
  152.7783  142.0713  159.8924 N   0  0  0  0  0  0  0  0  0  0  0  0
  153.3466  141.4021  160.9819 C   0  0  0  0  0  0  0  0  0  0  0  0
  153.9938  140.0596  160.7884 C   0  0  0  0  0  0  0  0  0  0  0  0
  153.6722  139.4957  159.4013 C   0  0  0  0  0  0  0  0  0  0  0  0
  154.5835  139.1173  158.6658 O   0  0  0  0  0  0  0  0  0  0  0  0
  152.3754  139.4456  159.0571 N   0  0  0  0  0  0  0  0  0  0  0  0
  151.8548  138.8864  157.8140 C   0  0  2  0  0  0  0  0  0  0  0  0
  152.6048  137.5908  157.4522 C   0  0  0  0  0  0  0  0  0  0  0  0
  153.4443  137.9204  156.2139 C   0  0  0  0  0  0  0  0  0  0  0  0
  152.6534  139.0083  155.4772 C   0  0  1  0  0  0  0  0  0  0  0  0
  151.5775  138.3755  154.5711 C   0  0  0  0  0  0  0  0  0  0  0  0
  150.6851  139.1083  154.0886 O   0  0  0  0  0  0  0  0  0  0  0  0
  151.6664  137.1421  154.3839 O   0  5  0  0  0  0  0  0  0  0  0  0
  152.0707  139.8511  156.6274 C   0  0  0  0  0  0  0  0  0  0  0  0
  153.2427  142.1030  162.1585 C   0  0  0  0  0  0  0  0  0  0  0  0
  152.4488  143.6371  161.9348 S   0  0  0  0  0  0  0  0  0  0  0  0
  150.7490  146.1707  159.1463 H   0  0  0  0  0  0  0  0  0  0  0  0
  152.0316  146.0306  160.3461 H   0  0  0  0  0  0  0  0  0  0  0  0
  150.4476  145.3244  160.6624 H   0  0  0  0  0  0  0  0  0  0  0  0
  150.8016  143.6968  158.7683 H   0  0  0  0  0  0  0  0  0  0  0  0
  152.3726  144.3984  158.4514 H   0  0  0  0  0  0  0  0  0  0  0  0
  155.0768  140.1323  160.8947 H   0  0  0  0  0  0  0  0  0  0  0  0
  153.6550  139.3588  161.5527 H   0  0  0  0  0  0  0  0  0  0  0  0
  151.6951  139.7805  159.7235 H   0  0  0  0  0  0  0  0  0  0  0  0
  150.7931  138.6593  157.9281 H   0  0  0  0  0  0  0  0  0  0  0  0
  153.2168  137.2010  158.2668 H   0  0  0  0  0  0  0  0  0  0  0  0
  151.8803  136.8152  157.1999 H   0  0  0  0  0  0  0  0  0  0  0  0
  154.4104  138.3228  156.5211 H   0  0  0  0  0  0  0  0  0  0  0  0
  153.6427  137.0367  155.6055 H   0  0  0  0  0  0  0  0  0  0  0  0
  153.3091  139.6119  154.8482 H   0  0  0  0  0  0  0  0  0  0  0  0
  151.1568  140.3842  156.3619 H   0  0  0  0  0  0  0  0  0  0  0  0
  152.8003  140.6192  156.8903 H   0  0  0  0  0  0  0  0  0  0  0  0
  153.5965  141.8163  163.1376 H   0  0  0  0  0  0  0  0  0  0  0  0
  1  2  1  0  0  0  0
  1 20  1  0  0  0  0
  1 21  1  0  0  0  0
  1 22  1  0  0  0  0
  2  3  1  0  0  0  0
  2 23  1  0  0  0  0
  2 24  1  0  0  0  0
  3 19  1  0  0  0  0
  3  4  2  0  0  0  0
  4  5  1  0  0  0  0
  5  6  1  0  0  0  0
  5 18  2  0  0  0  0
  6  7  1  0  0  0  0
  6 25  1  0  0  0  0
  6 26  1  0  0  0  0
  7  8  2  0  0  0  0
  7  9  1  0  0  0  0
  9 10  1  0  0  0  0
  9 27  1  0  0  0  0
 10 17  1  0  0  0  0
 10 11  1  0  0  0  0
 10 28  1  0  0  0  0
 11 12  1  0  0  0  0
 11 29  1  0  0  0  0
 11 30  1  0  0  0  0
 12 13  1  0  0  0  0
 12 31  1  0  0  0  0
 12 32  1  0  0  0  0
 13 14  1  0  0  0  0
 13 17  1  0  0  0  0
 13 33  1  0  0  0  0
 14 15  2  0  0  0  0
 14 16  1  0  0  0  0
 17 34  1  0  0  0  0
 17 35  1  0  0  0  0
 18 19  1  0  0  0  0
 18 36  1  0  0  0  0
M  CHG  1  16  -1
M  END
> <s_m_source_file>
AV-unprocessed.smi

> <i_m_source_file_index>
2405

> <i_lp_mmshare_version>
43012

> <i_f3d_flags>
0

> <s_epik_input>
W0NIM11bQ0gyXWMxbmMoW2NIXXMxKVtDSDJdQyg9TylbTkhdW0NAQEhdMltDSDJdW0NIMl1bQ0BIXShbQ0gyXTIpQyg9TylbT0hd

> <s_epik_cmdline>
J2VwaWtfcHl0aG9uJywgJy1waCcsICc3LjAnLCAnLXRuJywgJzgnLCAnLW1hJywgJzIwMCcsICctbWV0YWxfYmluZGluZycsICctaW1hZScsICc8aW5maWxlLm1hZT4nLCAnLW9tYWUnLCAnPG91dGZpbGUubWFlPic=

> <r_epik_Ionization_Penalty>
0.000544611

> <r_epik_Ionization_Penalty_Charging>
0.000481685

> <r_epik_Ionization_Penalty_Neutral>
6.29266e-05

> <r_epik_State_Penalty>
0.00029893

> <r_epik_Charging_Adjusted_Penalty>
0.000780614

> <i_epik_Tot_Q>
-1

> <i_epik_Tot_abs_Q>
1

> <r_epik_Metal_State_Penalty>
-0

> <b_epik_Metal_Only>
0

> <s_lp_Force_Field>
OPLS_2005

> <r_lp_Energy>
8.39141

> <b_lp_Chiralities_Consistent>
1

> <s_lp_Variant>
AV-unprocessed.smi:2405-1

> <Gold.Version>
5.8.1

> <Gold.Id.Protein>
6NUR|6NUR_protein|mol2

> <Gold.PLP.Fitness>
52.2810

> <Gold.PLP.PLP>
-41.4877

> <Gold.PLP.part.hbond>
-3.0000

> <Gold.PLP.part.metal>
0.0000

> <Gold.PLP.part.buried>
-3.1335

> <Gold.PLP.part.nonpolar>
-34.9896

> <Gold.PLP.part.repulsive>
0.4832

> <Gold.PLP.ligand.clash>
0.0000

> <Gold.PLP.ligand.torsion>
0.6222

> <Gold.PLP.Chemscore.Hbond>
4.0000

> <Gold.PLP.Chemscore.CHOScore>
0.0000

> <Gold.PLP.Chemscore.Metal>
0.0000

> <Gold.Chemscore.Hbonds>
donor molecule, donor type, donor heavy atom, donor atom, acceptor molecule, acceptor atom, score
      P1  H  7989  7998       L1    15  0.89
      P1  H  7997  8009       L1     8  1.00
      P1  H 10752 10763       L1    16  2.00

> <Gold.PLP.Chemscore.Internal.Correction>
0.0377

> <Gold.Rescore>
     Score         DG    S(hbond)    S(metal)    S(lipo)     H(rot)  DE(clash)    DE(int)     intcor
     18.61     -22.44       2.86        0.00     108.34       2.06       0.95       2.88       ----

> <Gold.Chemscore.Fitness>
18.6125

> <Gold.Chemscore.DG>
-22.4397

> <Gold.Chemscore.ZeroCoef>
-5.4800

> <Gold.Chemscore.Hbond>
2.8642

> <Gold.Chemscore.Metal>
0.0000

> <Gold.Chemscore.Lipo>
108.3390

> <Gold.Chemscore.Internal_Hbond>
0.0000

> <Gold.Chemscore.DEClash>
0.9473

> <Gold.Chemscore.DEInternal>
2.8799

> <Gold.Chemscore.Rot>
2.0635

> <Gold.Chemscore.Internal.Correction>
   9.000000E+99

> <Gold.Chemscore.Hbonds>
donor molecule, donor type, donor heavy atom, donor atom, acceptor molecule, acceptor atom, score
      P1  H  7989  7998       L1    15  0.47
      P1  H  7997  8009       L1     8  0.99
      P1  H 10752 10763       L1    16  0.97

> <Gold.Chemscore.Hbond.Weighted>
-9.5665

> <Gold.Chemscore.Metal.Weighted>
-0.0000

> <Gold.Chemscore.Lipo.Weighted>
-12.6757

> <Gold.Chemscore.Internal_Hbond.Weighted>
0.0000

> <Gold.Chemscore.DEClash.Weighted>
0.9473

> <Gold.Chemscore.DEInternal.Weighted>
2.8799

> <Gold.Chemscore.Rot.Weighted>
5.2825

> <Gold.Chemscore.Internal.Correction.Weighted>
   9.000000E+99

> <Gold.Protein.RotatedTorsions>
[ 6907 6896 6895 6894 ] final  106.69 input  -60.11 | X-H torsion
[ 7974 7965 7964 7962 ] final  148.56 input  175.53 | X-H torsion
[ 8008 7997 7996 7995 ] final  120.36 input   59.86 | X-H torsion
[ 10167 10162 10161 10158 ] final  134.13 input  -65.29 | X-H torsion
[ 10718 10713 10712 10709 ] final  -62.87 input   66.30 | X-H torsion
[ 10763 10752 10751 10750 ] final   48.38 input  -60.55 | X-H torsion
[ 11005 11000 10999 10996 ] final -151.28 input  -57.11 | X-H torsion

> <Gold.Protein.ActiveResidues>
 VAL166  LYS551  ARG553  GLY616  TRP617  ASP618  TYR619  PRO620  LYS621  CYS622 
 ASP623  PHE694  ASN695  SER759  ASP760  ASP761  ALA762  ILE779  LEU786  VAL792 
 PHE793  MET794  SER795  GLU796  ALA797  LYS798  CYS799  TRP800  GLU811  SER814 

> <Gold.Protein.RotatedAtoms>
  152.5184  133.9344  159.7595 H   0  0  0  0  0  0  0  0  0  0  0  0  # atno 6907 bound_to 6896
  150.9687  133.6359  159.2748 H   0  0  0  0  0  0  0  0  0  0  0  0  # atno 6908 bound_to 6896
  151.3578  135.0903  159.9477 H   0  0  0  0  0  0  0  0  0  0  0  0  # atno 6909 bound_to 6896
  144.8504  139.6170  143.5976 H   0  0  0  0  0  0  0  0  0  0  0  0  # atno 7974 bound_to 7965
  156.2639  140.2832  156.1137 H   0  0  0  0  0  0  0  0  0  0  0  0  # atno 8008 bound_to 7997
  155.1230  140.0392  157.2772 H   0  0  0  0  0  0  0  0  0  0  0  0  # atno 8009 bound_to 7997
  154.6656  140.2576  155.7067 H   0  0  0  0  0  0  0  0  0  0  0  0  # atno 8010 bound_to 7997
  139.5268  144.6582  151.5096 H   0  0  0  0  0  0  0  0  0  0  0  0  # atno 10167 bound_to 10162
  156.0827  130.4214  150.1197 H   0  0  0  0  0  0  0  0  0  0  0  0  # atno 10718 bound_to 10713
  152.9792  135.5946  154.3916 H   0  0  0  0  0  0  0  0  0  0  0  0  # atno 10763 bound_to 10752
  154.3571  135.2767  155.2342 H   0  0  0  0  0  0  0  0  0  0  0  0  # atno 10764 bound_to 10752
  154.4356  135.6025  153.6151 H   0  0  0  0  0  0  0  0  0  0  0  0  # atno 10765 bound_to 10752
  140.7313  134.3618  157.5166 H   0  0  0  0  0  0  0  0  0  0  0  0  # atno 11005 bound_to 11000
  146.2780  139.6802  142.9249 LP  0  0  0  0  0  0  0  0  0  0  0  0  # atno 17320 bound_to 7965
  145.4511  141.0428  143.2804 LP  0  0  0  0  0  0  0  0  0  0  0  0  # atno 17321 bound_to 7965
  140.6418  143.8874  150.6699 LP  0  0  0  0  0  0  0  0  0  0  0  0  # atno 17342 bound_to 10162
  140.2211  143.3808  152.1642 LP  0  0  0  0  0  0  0  0  0  0  0  0  # atno 17343 bound_to 10162
  156.9225  130.9687  151.3546 LP  0  0  0  0  0  0  0  0  0  0  0  0  # atno 17370 bound_to 10713
  157.5950  130.8471  149.8715 LP  0  0  0  0  0  0  0  0  0  0  0  0  # atno 17371 bound_to 10713
  139.8826  134.9020  156.2823 LP  0  0  0  0  0  0  0  0  0  0  0  0  # atno 17394 bound_to 11000
  140.9919  133.7204  156.0826 LP  0  0  0  0  0  0  0  0  0  0  0  0  # atno 17395 bound_to 11000

$$$$
