AV-unprocessed.smi:2193|AV-procd|sdf|8900|dock9
  -GOLD-   2272012113D 1   1.00000     0.00000
 Structure written by MMmdl.
 41 43  0  0  0  0  0  0  0  0  2 V2000
  145.4858  138.4134  152.2474 O   0  0  0  0  0  0  0  0  0  0  0  0
  145.1612  137.3192  153.0753 C   0  0  0  0  0  0  0  0  0  0  0  0
  145.1029  136.0342  152.3179 C   0  0  0  0  0  0  0  0  0  0  0  0
  146.1094  135.5038  151.5680 N   0  3  0  0  0  0  0  0  0  0  0  0
  145.6908  134.3007  150.9986 C   0  0  0  0  0  0  0  0  0  0  0  0
  146.3579  133.4067  150.1668 C   0  0  0  0  0  0  0  0  0  0  0  0
  145.6395  132.2626  149.7619 C   0  0  0  0  0  0  0  0  0  0  0  0
  144.3120  132.0424  150.1827 C   0  0  0  0  0  0  0  0  0  0  0  0
  143.6456  132.9565  151.0251 C   0  0  0  0  0  0  0  0  0  0  0  0
  144.3623  134.0859  151.4210 C   0  0  0  0  0  0  0  0  0  0  0  0
  144.0417  135.1813  152.2325 N   0  0  0  0  0  0  0  0  0  0  0  0
  142.7041  135.2776  152.8384 C   0  0  0  0  0  0  0  0  0  0  0  0
  142.7302  135.1244  154.3723 C   0  0  2  0  0  0  0  0  0  0  0  0
  142.2443  133.8492  154.7398 O   0  0  0  0  0  0  0  0  0  0  0  0
  141.8878  136.1936  155.0826 C   0  0  0  0  0  0  0  0  0  0  0  0
  140.5168  135.8273  154.9974 O   0  0  0  0  0  0  0  0  0  0  0  0
  139.5658  136.8113  155.1608 C   0  0  0  0  0  0  0  0  0  0  0  0
  139.9213  138.1164  154.7617 C   0  0  0  0  0  0  0  0  0  0  0  0
  139.0119  139.1837  154.8920 C   0  0  0  0  0  0  0  0  0  0  0  0
  137.7309  138.9542  155.4267 C   0  0  0  0  0  0  0  0  0  0  0  0
  136.8544  139.9785  155.5530 F   0  0  0  0  0  0  0  0  0  0  0  0
  137.3627  137.6572  155.8302 C   0  0  0  0  0  0  0  0  0  0  0  0
  138.2726  136.5898  155.6992 C   0  0  0  0  0  0  0  0  0  0  0  0
  145.0349  139.1792  152.5694 H   0  0  0  0  0  0  0  0  0  0  0  0
  145.9047  137.2393  153.8685 H   0  0  0  0  0  0  0  0  0  0  0  0
  144.2006  137.5067  153.5550 H   0  0  0  0  0  0  0  0  0  0  0  0
  147.3752  133.5729  149.8435 H   0  0  0  0  0  0  0  0  0  0  0  0
  146.1163  131.5392  149.1162 H   0  0  0  0  0  0  0  0  0  0  0  0
  143.7935  131.1534  149.8532 H   0  0  0  0  0  0  0  0  0  0  0  0
  142.6300  132.7736  151.3434 H   0  0  0  0  0  0  0  0  0  0  0  0
  142.3011  136.2542  152.5681 H   0  0  0  0  0  0  0  0  0  0  0  0
  142.0426  134.5439  152.3775 H   0  0  0  0  0  0  0  0  0  0  0  0
  143.7582  135.1934  154.7298 H   0  0  0  0  0  0  0  0  0  0  0  0
  141.6593  133.9527  155.4747 H   0  0  0  0  0  0  0  0  0  0  0  0
  142.2003  136.2892  156.1240 H   0  0  0  0  0  0  0  0  0  0  0  0
  142.0349  137.1587  154.5943 H   0  0  0  0  0  0  0  0  0  0  0  0
  140.9025  138.3019  154.3500 H   0  0  0  0  0  0  0  0  0  0  0  0
  139.2979  140.1778  154.5817 H   0  0  0  0  0  0  0  0  0  0  0  0
  136.3800  137.4798  156.2417 H   0  0  0  0  0  0  0  0  0  0  0  0
  137.9537  135.6100  156.0205 H   0  0  0  0  0  0  0  0  0  0  0  0
  147.0151  135.9400  151.4520 H   0  0  0  0  0  0  0  0  0  0  0  0
  1  2  1  0  0  0  0
  1 24  1  0  0  0  0
  2  3  1  0  0  0  0
  2 25  1  0  0  0  0
  2 26  1  0  0  0  0
  3 11  1  0  0  0  0
  3  4  2  0  0  0  0
  4  5  1  0  0  0  0
  4 41  1  0  0  0  0
  5 10  2  0  0  0  0
  5  6  1  0  0  0  0
  6  7  2  0  0  0  0
  6 27  1  0  0  0  0
  7  8  1  0  0  0  0
  7 28  1  0  0  0  0
  8  9  2  0  0  0  0
  8 29  1  0  0  0  0
  9 10  1  0  0  0  0
  9 30  1  0  0  0  0
 10 11  1  0  0  0  0
 11 12  1  0  0  0  0
 12 13  1  0  0  0  0
 12 31  1  0  0  0  0
 12 32  1  0  0  0  0
 13 14  1  0  0  0  0
 13 15  1  0  0  0  0
 13 33  1  0  0  0  0
 14 34  1  0  0  0  0
 15 16  1  0  0  0  0
 15 35  1  0  0  0  0
 15 36  1  0  0  0  0
 16 17  1  0  0  0  0
 17 23  1  0  0  0  0
 17 18  2  0  0  0  0
 18 19  1  0  0  0  0
 18 37  1  0  0  0  0
 19 20  2  0  0  0  0
 19 38  1  0  0  0  0
 20 21  1  0  0  0  0
 20 22  1  0  0  0  0
 22 23  2  0  0  0  0
 22 39  1  0  0  0  0
 23 40  1  0  0  0  0
M  CHG  1   4   1
M  END
> <s_m_source_file>
AV-unprocessed.smi

> <i_m_source_file_index>
2193

> <i_lp_mmshare_version>
43012

> <i_f3d_flags>
0

> <s_epik_input>
W2NIXTFbY0hdW2NIXVtjSF1jKGMxMiluKGMobjIpW0NIMl1bT0hdKVtDSDJdW0NASF0oW09IXSlbQ0gyXU9jM1tjSF1bY0hdYyhGKVtjSF1bY0hdMw==

> <s_epik_cmdline>
J2VwaWtfcHl0aG9uJywgJy1waCcsICc3LjAnLCAnLXRuJywgJzgnLCAnLW1hJywgJzIwMCcsICctbWV0YWxfYmluZGluZycsICctaW1hZScsICc8aW5maWxlLm1hZT4nLCAnLW9tYWUnLCAnPG91dGZpbGUubWFlPic=

> <r_lp_tautomer_probability>
1

> <r_epik_Ionization_Penalty>
1.43752

> <r_epik_Ionization_Penalty_Charging>
1.43666

> <r_epik_Ionization_Penalty_Neutral>
0.000858184

> <r_epik_State_Penalty>
1.52171

> <r_epik_Charging_Adjusted_Penalty>
2.95837

> <i_epik_Tot_Q>
1

> <i_epik_Tot_abs_Q>
1

> <r_epik_Metal_State_Penalty>
5.56725

> <b_epik_Metal_Only>
0

> <s_lp_Force_Field>
OPLS_2005

> <r_lp_Energy>
17.6251

> <b_lp_Chiralities_Consistent>
1

> <s_lp_Variant>
AV-unprocessed.smi:2193-3

> <Gold.Version>
5.8.1

> <Gold.Id.Protein>
6NUR|6NUR_protein|mol2

> <Gold.PLP.Fitness>
58.2120

> <Gold.PLP.PLP>
-48.8561

> <Gold.PLP.part.hbond>
-5.2802

> <Gold.PLP.part.metal>
0.0000

> <Gold.PLP.part.buried>
-8.4189

> <Gold.PLP.part.nonpolar>
-35.9308

> <Gold.PLP.part.repulsive>
0.1429

> <Gold.PLP.ligand.clash>
0.0000

> <Gold.PLP.ligand.torsion>
1.3484

> <Gold.PLP.Chemscore.Hbond>
4.0000

> <Gold.PLP.Chemscore.CHOScore>
0.0000

> <Gold.PLP.Chemscore.Metal>
0.0000

> <Gold.Chemscore.Hbonds>
donor molecule, donor type, donor heavy atom, donor atom, acceptor molecule, acceptor atom, score
      L1  H     1    24       P1 10175  1.00
      L1  H     4    41       P1  7948  2.00
      L1  H    14    34       P1 11000  1.00

> <Gold.PLP.Chemscore.Internal.Correction>
0.0529

> <Gold.Rescore>
     Score         DG    S(hbond)    S(metal)    S(lipo)     H(rot)  DE(clash)    DE(int)     intcor
     18.60     -19.84       2.91        0.00     112.14       3.31       0.04       1.20       ----

> <Gold.Chemscore.Fitness>
18.6011

> <Gold.Chemscore.DG>
-19.8402

> <Gold.Chemscore.ZeroCoef>
-5.4800

> <Gold.Chemscore.Hbond>
2.9108

> <Gold.Chemscore.Metal>
0.0000

> <Gold.Chemscore.Lipo>
112.1409

> <Gold.Chemscore.Internal_Hbond>
0.0000

> <Gold.Chemscore.DEClash>
0.0441

> <Gold.Chemscore.DEInternal>
1.1951

> <Gold.Chemscore.Rot>
3.3134

> <Gold.Chemscore.Internal.Correction>
   9.000000E+99

> <Gold.Chemscore.Hbonds>
donor molecule, donor type, donor heavy atom, donor atom, acceptor molecule, acceptor atom, score
      L1  H     1    24       P1 10175  0.95
      L1  H     4    41       P1  7948  0.97
      L1  H    14    34       P1 11000  0.98

> <Gold.Chemscore.Hbond.Weighted>
-9.7221

> <Gold.Chemscore.Metal.Weighted>
-0.0000

> <Gold.Chemscore.Lipo.Weighted>
-13.1205

> <Gold.Chemscore.Internal_Hbond.Weighted>
0.0000

> <Gold.Chemscore.DEClash.Weighted>
0.0441

> <Gold.Chemscore.DEInternal.Weighted>
1.1951

> <Gold.Chemscore.Rot.Weighted>
8.4823

> <Gold.Chemscore.Internal.Correction.Weighted>
   9.000000E+99

> <Gold.Protein.RotatedTorsions>
[ 6907 6896 6895 6894 ] final -108.53 input  -60.11 | X-H torsion
[ 7974 7965 7964 7962 ] final  163.94 input  175.53 | X-H torsion
[ 8008 7997 7996 7995 ] final  -66.76 input   59.86 | X-H torsion
[ 10167 10162 10161 10158 ] final   76.38 input  -65.29 | X-H torsion
[ 10718 10713 10712 10709 ] final  108.83 input   66.30 | X-H torsion
[ 10763 10752 10751 10750 ] final  -96.54 input  -60.55 | X-H torsion
[ 11005 11000 10999 10996 ] final -179.13 input  -57.11 | X-H torsion

> <Gold.Protein.ActiveResidues>
 VAL166  LYS551  ARG553  GLY616  TRP617  ASP618  TYR619  PRO620  LYS621  CYS622 
 ASP623  PHE694  ASN695  SER759  ASP760  ASP761  ALA762  ILE779  LEU786  VAL792 
 PHE793  MET794  SER795  GLU796  ALA797  LYS798  CYS799  TRP800  GLU811  SER814 

> <Gold.Protein.RotatedAtoms>
  150.7507  133.9663  159.3531 H   0  0  0  0  0  0  0  0  0  0  0  0  # atno 6907 bound_to 6896
  151.7593  135.0812  160.0352 H   0  0  0  0  0  0  0  0  0  0  0  0  # atno 6908 bound_to 6896
  152.3413  133.6034  159.5915 H   0  0  0  0  0  0  0  0  0  0  0  0  # atno 6909 bound_to 6896
  144.7567  139.8254  143.6347 H   0  0  0  0  0  0  0  0  0  0  0  0  # atno 7974 bound_to 7965
  154.4755  140.0906  156.7251 H   0  0  0  0  0  0  0  0  0  0  0  0  # atno 8008 bound_to 7997
  155.4608  140.3461  155.4294 H   0  0  0  0  0  0  0  0  0  0  0  0  # atno 8009 bound_to 7997
  156.1109  140.1447  156.9327 H   0  0  0  0  0  0  0  0  0  0  0  0  # atno 8010 bound_to 7997
  139.9928  144.5744  150.7803 H   0  0  0  0  0  0  0  0  0  0  0  0  # atno 10167 bound_to 10162
  157.6569  131.0901  150.6364 H   0  0  0  0  0  0  0  0  0  0  0  0  # atno 10718 bound_to 10713
  154.7248  135.5080  153.8869 H   0  0  0  0  0  0  0  0  0  0  0  0  # atno 10763 bound_to 10752
  153.0895  135.6655  153.9891 H   0  0  0  0  0  0  0  0  0  0  0  0  # atno 10764 bound_to 10752
  153.9706  135.3039  155.3407 H   0  0  0  0  0  0  0  0  0  0  0  0  # atno 10765 bound_to 10752
  140.4220  134.6597  157.4669 H   0  0  0  0  0  0  0  0  0  0  0  0  # atno 11005 bound_to 11000
  146.1585  139.4691  143.0003 LP  0  0  0  0  0  0  0  0  0  0  0  0  # atno 17320 bound_to 7965
  145.6755  141.0205  143.1634 LP  0  0  0  0  0  0  0  0  0  0  0  0  # atno 17321 bound_to 7965
  140.7448  143.2866  151.3446 LP  0  0  0  0  0  0  0  0  0  0  0  0  # atno 17342 bound_to 10162
  139.6327  144.0689  152.2490 LP  0  0  0  0  0  0  0  0  0  0  0  0  # atno 17343 bound_to 10162
  156.6670  130.4528  149.5669 LP  0  0  0  0  0  0  0  0  0  0  0  0  # atno 17370 bound_to 10713
  156.2025  130.6629  151.1183 LP  0  0  0  0  0  0  0  0  0  0  0  0  # atno 17371 bound_to 10713
  140.0193  134.6571  155.9263 LP  0  0  0  0  0  0  0  0  0  0  0  0  # atno 17394 bound_to 11000
  141.1780  133.6542  156.4905 LP  0  0  0  0  0  0  0  0  0  0  0  0  # atno 17395 bound_to 11000

$$$$
