AV-unprocessed.smi:562|AV-procd|sdf|2945|dock4
  -GOLD-   2262023443D 1   1.00000     0.00000
 Structure written by MMmdl.
 40 42  0  0  0  0  0  0  0  0  2 V2000
  148.1209  141.0468  154.0926 C   0  0  0  0  0  0  0  0  0  0  0  0
  148.8078  141.9099  154.9801 O   0  0  0  0  0  0  0  0  0  0  0  0
  149.3937  141.2182  156.0706 C   0  0  0  0  0  0  0  0  0  0  0  0
  150.6182  141.9956  156.5727 C   0  0  0  0  0  0  0  0  0  0  0  0
  151.2134  141.3773  157.7549 N   0  0  0  0  0  0  0  0  0  0  0  0
  151.4219  141.9343  158.9764 C   0  0  0  0  0  0  0  0  0  0  0  0
  151.0501  143.2660  159.2586 N   0  0  0  0  0  0  0  0  0  0  0  0
  149.8893  143.5291  159.8981 N   0  0  0  0  0  0  0  0  0  0  0  0
  149.8430  144.8478  159.9889 C   0  0  0  0  0  0  0  0  0  0  0  0
  148.6755  145.5000  160.6687 C   0  0  0  0  0  0  0  0  0  0  0  0
  150.9739  145.4693  159.3894 C   0  0  0  0  0  0  0  0  0  0  0  0
  151.7234  144.4265  158.9222 C   0  0  0  0  0  0  0  0  0  0  0  0
  153.0227  144.4272  158.1844 C   0  0  0  0  0  0  0  0  0  0  0  0
  151.9646  141.1192  159.8828 N   0  0  0  0  0  0  0  0  0  0  0  0
  152.1188  139.9365  159.1740 C   0  0  0  0  0  0  0  0  0  0  0  0
  151.6695  140.0637  157.8962 C   0  0  0  0  0  0  0  0  0  0  0  0
  151.6785  138.9654  156.9058 C   0  0  0  0  0  0  0  0  0  0  0  0
  151.2484  139.1346  155.7665 O   0  0  0  0  0  0  0  0  0  0  0  0
  152.1990  137.8079  157.4234 N   0  5  0  0  0  0  0  0  0  0  0  0
  152.6662  137.6333  158.7087 C   0  0  0  0  0  0  0  0  0  0  0  0
  153.1149  136.5534  159.0958 O   0  0  0  0  0  0  0  0  0  0  0  0
  152.6356  138.6800  159.5929 N   0  0  0  0  0  0  0  0  0  0  0  0
  153.1208  138.5213  160.9669 C   0  0  0  0  0  0  0  0  0  0  0  0
  147.6956  141.6280  153.2745 H   0  0  0  0  0  0  0  0  0  0  0  0
  147.3040  140.5311  154.5991 H   0  0  0  0  0  0  0  0  0  0  0  0
  148.7948  140.3035  153.6647 H   0  0  0  0  0  0  0  0  0  0  0  0
  148.6661  141.1017  156.8751 H   0  0  0  0  0  0  0  0  0  0  0  0
  149.6951  140.2180  155.7561 H   0  0  0  0  0  0  0  0  0  0  0  0
  151.3730  142.0696  155.7911 H   0  0  0  0  0  0  0  0  0  0  0  0
  150.3348  143.0230  156.7935 H   0  0  0  0  0  0  0  0  0  0  0  0
  148.7509  146.5866  160.6248 H   0  0  0  0  0  0  0  0  0  0  0  0
  148.6232  145.2133  161.7192 H   0  0  0  0  0  0  0  0  0  0  0  0
  147.7353  145.2140  160.1962 H   0  0  0  0  0  0  0  0  0  0  0  0
  151.1991  146.5225  159.3100 H   0  0  0  0  0  0  0  0  0  0  0  0
  153.5304  145.3857  158.2914 H   0  0  0  0  0  0  0  0  0  0  0  0
  152.8617  144.2468  157.1214 H   0  0  0  0  0  0  0  0  0  0  0  0
  153.6912  143.6521  158.5592 H   0  0  0  0  0  0  0  0  0  0  0  0
  154.1618  138.1954  160.9710 H   0  0  0  0  0  0  0  0  0  0  0  0
  152.5268  137.7751  161.4959 H   0  0  0  0  0  0  0  0  0  0  0  0
  153.0688  139.4459  161.5409 H   0  0  0  0  0  0  0  0  0  0  0  0
  1  2  1  0  0  0  0
  1 24  1  0  0  0  0
  1 25  1  0  0  0  0
  1 26  1  0  0  0  0
  2  3  1  0  0  0  0
  3  4  1  0  0  0  0
  3 27  1  0  0  0  0
  3 28  1  0  0  0  0
  4  5  1  0  0  0  0
  4 29  1  0  0  0  0
  4 30  1  0  0  0  0
  5 16  1  0  0  0  0
  5  6  1  0  0  0  0
  6  7  1  0  0  0  0
  6 14  2  0  0  0  0
  7 12  1  0  0  0  0
  7  8  1  0  0  0  0
  8  9  2  0  0  0  0
  9 10  1  0  0  0  0
  9 11  1  0  0  0  0
 10 31  1  0  0  0  0
 10 32  1  0  0  0  0
 10 33  1  0  0  0  0
 11 12  2  0  0  0  0
 11 34  1  0  0  0  0
 12 13  1  0  0  0  0
 13 35  1  0  0  0  0
 13 36  1  0  0  0  0
 13 37  1  0  0  0  0
 14 15  1  0  0  0  0
 15 22  1  0  0  0  0
 15 16  2  0  0  0  0
 16 17  1  0  0  0  0
 17 18  2  0  0  0  0
 17 19  1  0  0  0  0
 19 20  1  0  0  0  0
 20 21  2  0  0  0  0
 20 22  1  0  0  0  0
 22 23  1  0  0  0  0
 23 38  1  0  0  0  0
 23 39  1  0  0  0  0
 23 40  1  0  0  0  0
M  CHG  1  19  -1
M  END
> <s_m_source_file>
AV-unprocessed.smi

> <i_m_source_file_index>
562

> <i_lp_mmshare_version>
43012

> <i_f3d_flags>
0

> <s_epik_input>
W0NIM11uMWMoPU8pW25IXWMoPU8pYyhjMTIpbihbQ0gyXVtDSDJdT1tDSDNdKWMobjIpLW4zbmMoW0NIM10pW2NIXWMzW0NIM10=

> <s_epik_cmdline>
J2VwaWtfcHl0aG9uJywgJy1waCcsICc3LjAnLCAnLXRuJywgJzgnLCAnLW1hJywgJzIwMCcsICctbWV0YWxfYmluZGluZycsICctaW1hZScsICc8aW5maWxlLm1hZT4nLCAnLW9tYWUnLCAnPG91dGZpbGUubWFlPic=

> <r_lp_tautomer_probability>
1

> <r_epik_Ionization_Penalty>
3.9873

> <r_epik_Ionization_Penalty_Charging>
0.0180637

> <r_epik_Ionization_Penalty_Neutral>
3.96924

> <r_epik_State_Penalty>
3.96767

> <r_epik_Charging_Adjusted_Penalty>
3.98573

> <i_epik_Tot_Q>
-1

> <i_epik_Tot_abs_Q>
1

> <r_epik_Metal_State_Penalty>
0.612149

> <b_epik_Metal_Only>
1

> <s_lp_Force_Field>
OPLS_2005

> <r_lp_Energy>
28.5769

> <b_lp_Chiralities_Consistent>
1

> <s_lp_Variant>
AV-unprocessed.smi:562-2

> <Gold.Version>
5.8.1

> <Gold.Id.Protein>
6NUR|6NUR_protein|mol2

> <Gold.PLP.Fitness>
37.9330

> <Gold.PLP.PLP>
-38.6693

> <Gold.PLP.part.hbond>
-2.0000

> <Gold.PLP.part.metal>
0.0000

> <Gold.PLP.part.buried>
-8.4065

> <Gold.PLP.part.nonpolar>
-30.3909

> <Gold.PLP.part.repulsive>
0.5090

> <Gold.PLP.ligand.clash>
0.0000

> <Gold.PLP.ligand.torsion>
1.6269

> <Gold.PLP.Chemscore.Hbond>
0.7160

> <Gold.PLP.Chemscore.CHOScore>
0.0000

> <Gold.PLP.Chemscore.Metal>
0.0000

> <Gold.Chemscore.Hbonds>
donor molecule, donor type, donor heavy atom, donor atom, acceptor molecule, acceptor atom, score
      P1  H  6896  6909       L1    21  0.81
      P1  H  6933  6944       L1     8  0.03

> <Gold.PLP.Chemscore.Internal.Correction>
0.3695

> <Gold.Rescore>
     Score         DG    S(hbond)    S(metal)    S(lipo)     H(rot)  DE(clash)    DE(int)     intcor
     10.61     -14.51       0.98        0.00      82.25       1.52       1.00       2.90       ----

> <Gold.Chemscore.Fitness>
10.6079

> <Gold.Chemscore.DG>
-14.5069

> <Gold.Chemscore.ZeroCoef>
-5.4800

> <Gold.Chemscore.Hbond>
0.9833

> <Gold.Chemscore.Metal>
0.0000

> <Gold.Chemscore.Lipo>
82.2490

> <Gold.Chemscore.Internal_Hbond>
0.0000

> <Gold.Chemscore.DEClash>
1.0025

> <Gold.Chemscore.DEInternal>
2.8965

> <Gold.Chemscore.Rot>
1.5159

> <Gold.Chemscore.Internal.Correction>
   9.000000E+99

> <Gold.Chemscore.Hbonds>
donor molecule, donor type, donor heavy atom, donor atom, acceptor molecule, acceptor atom, score
      P1  H  6896  6909       L1    21  0.75
      P1  H  6933  6944       L1     8  0.03

> <Gold.Chemscore.Hbond.Weighted>
-3.2844

> <Gold.Chemscore.Metal.Weighted>
-0.0000

> <Gold.Chemscore.Lipo.Weighted>
-9.6231

> <Gold.Chemscore.Internal_Hbond.Weighted>
0.0000

> <Gold.Chemscore.DEClash.Weighted>
1.0025

> <Gold.Chemscore.DEInternal.Weighted>
2.8965

> <Gold.Chemscore.Rot.Weighted>
3.8806

> <Gold.Chemscore.Internal.Correction.Weighted>
   9.000000E+99

> <Gold.Protein.RotatedTorsions>
[ 6907 6896 6895 6894 ] final  161.88 input  -60.11 | X-H torsion
[ 7974 7965 7964 7962 ] final  148.18 input  175.53 | X-H torsion
[ 8008 7997 7996 7995 ] final   65.03 input   59.86 | X-H torsion
[ 10167 10162 10161 10158 ] final -112.16 input  -65.29 | X-H torsion
[ 10718 10713 10712 10709 ] final  111.79 input   66.30 | X-H torsion
[ 10763 10752 10751 10750 ] final  169.31 input  -60.55 | X-H torsion
[ 11005 11000 10999 10996 ] final -103.28 input  -57.11 | X-H torsion

> <Gold.Protein.ActiveResidues>
 VAL166  LYS551  ARG553  GLY616  TRP617  ASP618  TYR619  PRO620  LYS621  CYS622 
 ASP623  PHE694  ASN695  SER759  ASP760  ASP761  ALA762  ILE779  LEU786  VAL792 
 PHE793  MET794  SER795  GLU796  ALA797  LYS798  CYS799  TRP800  GLU811  SER814 

> <Gold.Protein.RotatedAtoms>
  151.9489  133.3660  159.3992 H   0  0  0  0  0  0  0  0  0  0  0  0  # atno 6907 bound_to 6896
  150.6984  134.4361  159.5280 H   0  0  0  0  0  0  0  0  0  0  0  0  # atno 6908 bound_to 6896
  152.2030  134.8570  160.0556 H   0  0  0  0  0  0  0  0  0  0  0  0  # atno 6909 bound_to 6896
  144.8534  139.6121  143.5963 H   0  0  0  0  0  0  0  0  0  0  0  0  # atno 7974 bound_to 7965
  155.6553  140.3497  155.4763 H   0  0  0  0  0  0  0  0  0  0  0  0  # atno 8008 bound_to 7997
  155.9814  140.1175  157.0746 H   0  0  0  0  0  0  0  0  0  0  0  0  # atno 8009 bound_to 7997
  154.4193  140.1137  156.5427 H   0  0  0  0  0  0  0  0  0  0  0  0  # atno 8010 bound_to 7997
  140.1258  143.4403  152.1661 H   0  0  0  0  0  0  0  0  0  0  0  0  # atno 10167 bound_to 10162
  157.6427  131.0956  150.6800 H   0  0  0  0  0  0  0  0  0  0  0  0  # atno 10718 bound_to 10713
  154.3814  135.2753  155.2209 H   0  0  0  0  0  0  0  0  0  0  0  0  # atno 10763 bound_to 10752
  154.4314  135.5976  153.6075 H   0  0  0  0  0  0  0  0  0  0  0  0  # atno 10764 bound_to 10752
  152.9834  135.5996  154.4057 H   0  0  0  0  0  0  0  0  0  0  0  0  # atno 10765 bound_to 10752
  141.1153  133.8627  157.1466 H   0  0  0  0  0  0  0  0  0  0  0  0  # atno 11005 bound_to 11000
  146.2803  139.6860  142.9233 LP  0  0  0  0  0  0  0  0  0  0  0  0  # atno 17320 bound_to 7965
  145.4454  141.0425  143.2834 LP  0  0  0  0  0  0  0  0  0  0  0  0  # atno 17321 bound_to 7965
  139.5545  144.7362  151.4335 LP  0  0  0  0  0  0  0  0  0  0  0  0  # atno 17342 bound_to 10162
  140.6846  143.8004  150.7168 LP  0  0  0  0  0  0  0  0  0  0  0  0  # atno 17343 bound_to 10162
  156.7121  130.4655  149.5544 LP  0  0  0  0  0  0  0  0  0  0  0  0  # atno 17370 bound_to 10713
  156.1723  130.6445  151.0852 LP  0  0  0  0  0  0  0  0  0  0  0  0  # atno 17371 bound_to 10713
  140.0071  135.0004  157.0315 LP  0  0  0  0  0  0  0  0  0  0  0  0  # atno 17394 bound_to 11000
  140.4664  134.1431  155.7197 LP  0  0  0  0  0  0  0  0  0  0  0  0  # atno 17395 bound_to 11000

$$$$
