AV-unprocessed.smi:15|AV-procd|sdf|84|dock9
  -GOLD-   2262015223D 1   1.00000     0.00000
 Structure written by MMmdl.
 53 56  0  0  0  0  0  0  0  0  1 V2000
  149.2584  141.8759  154.9852 C   0  0  0  0  0  0  0  0  0  0  0  0
  150.5054  141.4840  155.7882 C   0  0  0  0  0  0  0  0  0  0  0  0
  150.1854  140.6804  156.9675 N   0  0  0  0  0  0  0  0  0  0  0  0
  150.2896  141.2693  158.3044 C   0  0  0  0  0  0  0  0  0  0  0  0
  151.6817  141.8609  158.6034 C   0  0  1  0  0  0  0  0  0  0  0  0
  151.7040  142.7963  159.8105 C   0  0  0  0  0  0  0  0  0  0  0  0
  153.1429  142.7196  160.3010 C   0  0  0  0  0  0  0  0  0  0  0  0
  153.7189  141.4981  159.5801 C   0  0  0  0  0  0  0  0  0  0  0  0
  152.5920  140.8504  159.0108 O   0  0  0  0  0  0  0  0  0  0  0  0
  150.5081  139.3657  156.9225 C   0  0  0  0  0  0  0  0  0  0  0  0
  150.7017  138.7287  158.1052 N   0  0  0  0  0  0  0  0  0  0  0  0
  151.0688  137.4444  158.1244 C   0  0  0  0  0  0  0  0  0  0  0  0
  151.3094  136.6296  157.0956 N   0  0  0  0  0  0  0  0  0  0  0  0
  151.1292  137.2693  155.9045 C   0  0  0  0  0  0  0  0  0  0  0  0
  150.7195  138.6206  155.7260 C   0  0  0  0  0  0  0  0  0  0  0  0
  150.6517  138.9162  154.3689 N   0  0  0  0  0  0  0  0  0  0  0  0
  150.9995  137.8048  153.7814 C   0  0  0  0  0  0  0  0  0  0  0  0
  151.3290  136.7714  154.6288 N   0  0  0  0  0  0  0  0  0  0  0  0
  151.7754  135.4402  154.2502 C   0  0  0  0  0  0  0  0  0  0  0  0
  150.7618  134.6316  153.3981 C   0  0  1  0  0  0  0  0  0  0  0  0
  149.6941  134.2988  154.2692 O   0  0  0  0  0  0  0  0  0  0  0  0
  150.1925  135.3727  152.1963 C   0  0  0  0  0  0  0  0  0  0  0  0
  149.6434  134.2405  151.3342 C   0  0  0  0  0  0  0  0  0  0  0  0
  150.5089  133.1341  151.5627 O   0  0  0  0  0  0  0  0  0  0  0  0
  151.3146  133.3585  152.7185 C   0  0  2  0  0  0  0  0  0  0  0  0
  151.3987  132.0966  153.5908 C   0  0  0  0  0  0  0  0  0  0  0  0
  149.5401  142.4089  154.0771 H   0  0  0  0  0  0  0  0  0  0  0  0
  148.5983  142.5301  155.5539 H   0  0  0  0  0  0  0  0  0  0  0  0
  148.6890  140.9947  154.6887 H   0  0  0  0  0  0  0  0  0  0  0  0
  151.1711  140.9207  155.1326 H   0  0  0  0  0  0  0  0  0  0  0  0
  151.0473  142.3811  156.0874 H   0  0  0  0  0  0  0  0  0  0  0  0
  149.5421  142.0567  158.3921 H   0  0  0  0  0  0  0  0  0  0  0  0
  150.0255  140.5318  159.0636 H   0  0  0  0  0  0  0  0  0  0  0  0
  152.0839  142.3824  157.7334 H   0  0  0  0  0  0  0  0  0  0  0  0
  151.3952  143.8113  159.5597 H   0  0  0  0  0  0  0  0  0  0  0  0
  151.0347  142.4240  160.5873 H   0  0  0  0  0  0  0  0  0  0  0  0
  153.7042  143.6185  160.0447 H   0  0  0  0  0  0  0  0  0  0  0  0
  153.1760  142.5998  161.3844 H   0  0  0  0  0  0  0  0  0  0  0  0
  154.3961  141.8051  158.7819 H   0  0  0  0  0  0  0  0  0  0  0  0
  154.2608  140.8295  160.2492 H   0  0  0  0  0  0  0  0  0  0  0  0
  151.1960  137.0096  159.1047 H   0  0  0  0  0  0  0  0  0  0  0  0
  151.0435  137.7130  152.7058 H   0  0  0  0  0  0  0  0  0  0  0  0
  152.7163  135.5437  153.7079 H   0  0  0  0  0  0  0  0  0  0  0  0
  152.0130  134.8935  155.1639 H   0  0  0  0  0  0  0  0  0  0  0  0
  149.9090  133.4897  154.7075 H   0  0  0  0  0  0  0  0  0  0  0  0
  149.4395  136.1175  152.4565 H   0  0  0  0  0  0  0  0  0  0  0  0
  150.9808  135.8768  151.6385 H   0  0  0  0  0  0  0  0  0  0  0  0
  148.6372  133.9685  151.6552 H   0  0  0  0  0  0  0  0  0  0  0  0
  149.6016  134.5022  150.2768 H   0  0  0  0  0  0  0  0  0  0  0  0
  152.3075  133.5642  152.3209 H   0  0  0  0  0  0  0  0  0  0  0  0
  152.0071  132.2739  154.4777 H   0  0  0  0  0  0  0  0  0  0  0  0
  151.8533  131.2758  153.0361 H   0  0  0  0  0  0  0  0  0  0  0  0
  150.4133  131.7641  153.9176 H   0  0  0  0  0  0  0  0  0  0  0  0
  1  2  1  0  0  0  0
  1 27  1  0  0  0  0
  1 28  1  0  0  0  0
  1 29  1  0  0  0  0
  2  3  1  0  0  0  0
  2 30  1  0  0  0  0
  2 31  1  0  0  0  0
  3  4  1  0  0  0  0
  3 10  1  0  0  0  0
  4  5  1  0  0  0  0
  4 32  1  0  0  0  0
  4 33  1  0  0  0  0
  5  9  1  0  0  0  0
  5  6  1  0  0  0  0
  5 34  1  0  0  0  0
  6  7  1  0  0  0  0
  6 35  1  0  0  0  0
  6 36  1  0  0  0  0
  7  8  1  0  0  0  0
  7 37  1  0  0  0  0
  7 38  1  0  0  0  0
  8  9  1  0  0  0  0
  8 39  1  0  0  0  0
  8 40  1  0  0  0  0
 10 15  1  0  0  0  0
 10 11  2  0  0  0  0
 11 12  1  0  0  0  0
 12 13  2  0  0  0  0
 12 41  1  0  0  0  0
 13 14  1  0  0  0  0
 14 18  1  0  0  0  0
 14 15  2  0  0  0  0
 15 16  1  0  0  0  0
 16 17  2  0  0  0  0
 17 18  1  0  0  0  0
 17 42  1  0  0  0  0
 18 19  1  0  0  0  0
 19 20  1  0  0  0  0
 19 43  1  0  0  0  0
 19 44  1  0  0  0  0
 20 25  1  0  0  0  0
 20 21  1  0  0  0  0
 20 22  1  0  0  0  0
 21 45  1  0  0  0  0
 22 23  1  0  0  0  0
 22 46  1  0  0  0  0
 22 47  1  0  0  0  0
 23 24  1  0  0  0  0
 23 48  1  0  0  0  0
 23 49  1  0  0  0  0
 24 25  1  0  0  0  0
 25 26  1  0  0  0  0
 25 50  1  0  0  0  0
 26 51  1  0  0  0  0
 26 52  1  0  0  0  0
 26 53  1  0  0  0  0
M  END
> <s_m_source_file>
AV-unprocessed.smi

> <i_m_source_file_index>
15

> <i_lp_mmshare_version>
43012

> <i_f3d_flags>
0

> <s_epik_input>
TzFbQ0gyXVtDSDJdW0NIMl1bQ0BIXTFbQ0gyXU4oW0NIMl1bQ0gzXSljKG5bY0hdbjIpYyhjMjMpbltjSF1uM1tDSDJdW0NAQF00KFtPSF0pW0NIMl1bQ0gyXU9bQ0BIXTRbQ0gzXQ==

> <s_epik_cmdline>
J2VwaWtfcHl0aG9uJywgJy1waCcsICc3LjAnLCAnLXRuJywgJzgnLCAnLW1hJywgJzIwMCcsICctbWV0YWxfYmluZGluZycsICctaW1hZScsICc8aW5maWxlLm1hZT4nLCAnLW9tYWUnLCAnPG91dGZpbGUubWFlPic=

> <r_lp_tautomer_probability>
1

> <r_epik_Ionization_Penalty>
0.00360814

> <r_epik_Ionization_Penalty_Charging>
0

> <r_epik_Ionization_Penalty_Neutral>
0.00360814

> <r_epik_State_Penalty>
0.00237482

> <r_epik_Charging_Adjusted_Penalty>
0.00237482

> <i_epik_Tot_Q>
0

> <i_epik_Tot_abs_Q>
0

> <r_epik_Metal_State_Penalty>
-0

> <b_epik_Metal_Only>
0

> <s_lp_Force_Field>
OPLS_2005

> <r_lp_Energy>
47.1955

> <b_lp_Chiralities_Consistent>
1

> <s_lp_Variant>
AV-unprocessed.smi:15-6

> <Gold.Version>
5.8.1

> <Gold.Id.Protein>
6NUR|6NUR_protein|mol2

> <Gold.PLP.Fitness>
45.4250

> <Gold.PLP.PLP>
-40.8646

> <Gold.PLP.part.hbond>
-1.2187

> <Gold.PLP.part.metal>
0.0000

> <Gold.PLP.part.buried>
-4.7957

> <Gold.PLP.part.nonpolar>
-34.3747

> <Gold.PLP.part.repulsive>
0.1580

> <Gold.PLP.ligand.clash>
0.0000

> <Gold.PLP.ligand.torsion>
0.7409

> <Gold.PLP.Chemscore.Hbond>
0.9120

> <Gold.PLP.Chemscore.CHOScore>
0.8062

> <Gold.PLP.Chemscore.Metal>
0.0000

> <Gold.Chemscore.Hbonds>
donor molecule, donor type, donor heavy atom, donor atom, acceptor molecule, acceptor atom, score
      P1  H  7989  7998       L1    16  0.21
      L1  C    17    42       P1  7949  1.00

> <Gold.PLP.Chemscore.Internal.Correction>
0.8874

> <Gold.Rescore>
     Score         DG    S(hbond)    S(metal)    S(lipo)     H(rot)  DE(clash)    DE(int)     intcor
     10.83     -12.52       0.92        0.00      87.30       2.44       0.03       1.66       ----

> <Gold.Chemscore.Fitness>
10.8299

> <Gold.Chemscore.DG>
-12.5217

> <Gold.Chemscore.ZeroCoef>
-5.4800

> <Gold.Chemscore.Hbond>
0.9229

> <Gold.Chemscore.Metal>
0.0000

> <Gold.Chemscore.Lipo>
87.2972

> <Gold.Chemscore.Internal_Hbond>
0.0000

> <Gold.Chemscore.DEClash>
0.0330

> <Gold.Chemscore.DEInternal>
1.6589

> <Gold.Chemscore.Rot>
2.4431

> <Gold.Chemscore.Internal.Correction>
   9.000000E+99

> <Gold.Chemscore.Hbonds>
donor molecule, donor type, donor heavy atom, donor atom, acceptor molecule, acceptor atom, score
      P1  H  7989  7998       L1    16  0.21

> <Gold.Chemscore.Hbond.Weighted>
-3.0824

> <Gold.Chemscore.Metal.Weighted>
-0.0000

> <Gold.Chemscore.Lipo.Weighted>
-10.2138

> <Gold.Chemscore.Internal_Hbond.Weighted>
0.0000

> <Gold.Chemscore.DEClash.Weighted>
0.0330

> <Gold.Chemscore.DEInternal.Weighted>
1.6589

> <Gold.Chemscore.Rot.Weighted>
6.2544

> <Gold.Chemscore.Internal.Correction.Weighted>
   9.000000E+99

> <Gold.Protein.RotatedTorsions>
[ 6907 6896 6895 6894 ] final -159.87 input  -60.11 | X-H torsion
[ 7974 7965 7964 7962 ] final   16.42 input  175.53 | X-H torsion
[ 8008 7997 7996 7995 ] final   43.28 input   59.86 | X-H torsion
[ 10167 10162 10161 10158 ] final -133.20 input  -65.29 | X-H torsion
[ 10718 10713 10712 10709 ] final -114.65 input   66.30 | X-H torsion
[ 10763 10752 10751 10750 ] final   84.49 input  -60.55 | X-H torsion
[ 11005 11000 10999 10996 ] final -112.21 input  -57.11 | X-H torsion

> <Gold.Protein.ActiveResidues>
 VAL166  LYS551  ARG553  GLY616  TRP617  ASP618  TYR619  PRO620  LYS621  CYS622 
 ASP623  PHE694  ASN695  SER759  ASP760  ASP761  ALA762  ILE779  LEU786  VAL792 
 PHE793  MET794  SER795  GLU796  ALA797  LYS798  CYS799  TRP800  GLU811  SER814 

> <Gold.Protein.RotatedAtoms>
  151.3403  133.3965  159.2670 H   0  0  0  0  0  0  0  0  0  0  0  0  # atno 6907 bound_to 6896
  150.9883  134.9225  159.7895 H   0  0  0  0  0  0  0  0  0  0  0  0  # atno 6908 bound_to 6896
  152.5239  134.3367  159.9255 H   0  0  0  0  0  0  0  0  0  0  0  0  # atno 6909 bound_to 6896
  146.2250  139.8751  142.8580 H   0  0  0  0  0  0  0  0  0  0  0  0  # atno 7974 bound_to 7965
  155.3000  140.3384  155.4248 H   0  0  0  0  0  0  0  0  0  0  0  0  # atno 8008 bound_to 7997
  156.2005  140.1731  156.7947 H   0  0  0  0  0  0  0  0  0  0  0  0  # atno 8009 bound_to 7997
  154.5554  140.0697  156.8718 H   0  0  0  0  0  0  0  0  0  0  0  0  # atno 8010 bound_to 7997
  139.9007  143.6611  152.2595 H   0  0  0  0  0  0  0  0  0  0  0  0  # atno 10167 bound_to 10162
  156.0844  130.6038  150.8802 H   0  0  0  0  0  0  0  0  0  0  0  0  # atno 10718 bound_to 10713
  153.1386  135.4652  154.9461 H   0  0  0  0  0  0  0  0  0  0  0  0  # atno 10763 bound_to 10752
  154.7728  135.3164  154.8157 H   0  0  0  0  0  0  0  0  0  0  0  0  # atno 10764 bound_to 10752
  153.8685  135.6906  153.4830 H   0  0  0  0  0  0  0  0  0  0  0  0  # atno 10765 bound_to 10752
  141.0689  133.9413  157.2525 H   0  0  0  0  0  0  0  0  0  0  0  0  # atno 11005 bound_to 11000
  145.2569  141.0063  143.3849 LP  0  0  0  0  0  0  0  0  0  0  0  0  # atno 17320 bound_to 7965
  144.9329  139.4277  143.6486 LP  0  0  0  0  0  0  0  0  0  0  0  0  # atno 17321 bound_to 7965
  139.7028  144.7632  151.1244 LP  0  0  0  0  0  0  0  0  0  0  0  0  # atno 17342 bound_to 10162
  140.7707  143.5435  150.9286 LP  0  0  0  0  0  0  0  0  0  0  0  0  # atno 17343 bound_to 10162
  157.5972  131.0942  150.9020 LP  0  0  0  0  0  0  0  0  0  0  0  0  # atno 17370 bound_to 10713
  156.9185  130.5306  149.5279 LP  0  0  0  0  0  0  0  0  0  0  0  0  # atno 17371 bound_to 10713
  139.9503  135.0176  156.8974 LP  0  0  0  0  0  0  0  0  0  0  0  0  # atno 17394 bound_to 11000
  140.5716  134.0438  155.7432 LP  0  0  0  0  0  0  0  0  0  0  0  0  # atno 17395 bound_to 11000

$$$$
