AV-unprocessed.smi:3196|AV-procd|sdf|12221|dock4
  -GOLD-   2272018 53D 1   1.00000     0.00000
 Structure written by MMmdl.
 33 34  0  0  0  0  0  0  0  0  1 V2000
  153.1411  142.9118  162.5617 C   0  0  0  0  0  0  0  0  0  0  0  0
  152.4017  143.2542  161.2638 C   0  0  0  0  0  0  0  0  0  0  0  0
  152.9833  142.5245  160.0455 C   0  0  0  0  0  0  0  0  0  0  0  0
  152.4232  143.0463  158.7375 C   0  0  2  0  0  0  0  0  0  0  0  0
  152.0782  144.5032  158.5827 C   0  0  0  0  0  0  0  0  0  0  0  0
  150.9738  143.4669  158.6256 C   0  0  1  0  0  0  0  0  0  0  0  0
  150.2856  143.2119  157.3959 N   0  0  0  0  0  0  0  0  0  0  0  0
  149.9460  142.0196  156.8737 C   0  0  0  0  0  0  0  0  0  0  0  0
  150.1866  140.9755  157.4757 O   0  0  0  0  0  0  0  0  0  0  0  0
  149.2996  142.0993  155.6933 N   0  0  0  0  0  0  0  0  0  0  0  0
  148.7772  141.0628  154.8712 C   0  0  0  0  0  0  0  0  0  0  0  0
  149.3370  139.7668  154.7557 C   0  0  0  0  0  0  0  0  0  0  0  0
  148.7187  138.8391  153.8932 C   0  0  0  0  0  0  0  0  0  0  0  0
  147.6198  139.1195  153.1614 N   0  0  0  0  0  0  0  0  0  0  0  0
  147.0951  140.3585  153.2658 C   0  0  0  0  0  0  0  0  0  0  0  0
  147.6346  141.3596  154.0981 C   0  0  0  0  0  0  0  0  0  0  0  0
  147.0593  142.5855  154.1525 F   0  0  0  0  0  0  0  0  0  0  0  0
  152.7024  143.4387  163.4093 H   0  0  0  0  0  0  0  0  0  0  0  0
  154.1922  143.1949  162.5020 H   0  0  0  0  0  0  0  0  0  0  0  0
  153.0928  141.8432  162.7725 H   0  0  0  0  0  0  0  0  0  0  0  0
  151.3469  142.9995  161.3731 H   0  0  0  0  0  0  0  0  0  0  0  0
  152.4442  144.3315  161.0994 H   0  0  0  0  0  0  0  0  0  0  0  0
  154.0676  142.6390  160.0248 H   0  0  0  0  0  0  0  0  0  0  0  0
  152.7826  141.4551  160.1217 H   0  0  0  0  0  0  0  0  0  0  0  0
  152.8480  142.5623  157.8595 H   0  0  0  0  0  0  0  0  0  0  0  0
  152.1943  145.1467  159.4524 H   0  0  0  0  0  0  0  0  0  0  0  0
  152.3049  144.9713  157.6264 H   0  0  0  0  0  0  0  0  0  0  0  0
  150.3851  143.4685  159.5419 H   0  0  0  0  0  0  0  0  0  0  0  0
  149.9691  144.0287  156.8939 H   0  0  0  0  0  0  0  0  0  0  0  0
  149.1221  143.0351  155.3583 H   0  0  0  0  0  0  0  0  0  0  0  0
  150.2214  139.4648  155.2937 H   0  0  0  0  0  0  0  0  0  0  0  0
  149.1227  137.8433  153.7855 H   0  0  0  0  0  0  0  0  0  0  0  0
  146.2186  140.5592  152.6674 H   0  0  0  0  0  0  0  0  0  0  0  0
  1  2  1  0  0  0  0
  1 18  1  0  0  0  0
  1 19  1  0  0  0  0
  1 20  1  0  0  0  0
  2  3  1  0  0  0  0
  2 21  1  0  0  0  0
  2 22  1  0  0  0  0
  3  4  1  0  0  0  0
  3 23  1  0  0  0  0
  3 24  1  0  0  0  0
  4  6  1  0  0  0  0
  4  5  1  0  0  0  0
  4 25  1  0  0  0  0
  5  6  1  0  0  0  0
  5 26  1  0  0  0  0
  5 27  1  0  0  0  0
  6  7  1  0  0  0  0
  6 28  1  0  0  0  0
  7  8  1  0  0  0  0
  7 29  1  0  0  0  0
  8  9  2  0  0  0  0
  8 10  1  0  0  0  0
 10 11  1  0  0  0  0
 10 30  1  0  0  0  0
 11 16  1  0  0  0  0
 11 12  2  0  0  0  0
 12 13  1  0  0  0  0
 12 31  1  0  0  0  0
 13 14  2  0  0  0  0
 13 32  1  0  0  0  0
 14 15  1  0  0  0  0
 15 16  2  0  0  0  0
 15 33  1  0  0  0  0
 16 17  1  0  0  0  0
M  END
> <s_m_source_file>
AV-unprocessed.smi

> <i_m_source_file_index>
3196

> <i_lp_mmshare_version>
43012

> <i_f3d_flags>
0

> <s_epik_input>
W0NIM11bQ0gyXVtDSDJdW0NAQEhdMVtDSDJdW0NASF0xW05IXUMoPU8pW05IXWMyW2NIXVtjSF1uW2NIXWMyRg==

> <s_epik_cmdline>
J2VwaWtfcHl0aG9uJywgJy1waCcsICc3LjAnLCAnLXRuJywgJzgnLCAnLW1hJywgJzIwMCcsICctbWV0YWxfYmluZGluZycsICctaW1hZScsICc8aW5maWxlLm1hZT4nLCAnLW9tYWUnLCAnPG91dGZpbGUubWFlPic=

> <r_epik_Ionization_Penalty>
0.00341997

> <r_epik_Ionization_Penalty_Charging>
0

> <r_epik_Ionization_Penalty_Neutral>
0.00341997

> <r_epik_State_Penalty>
0.00239198

> <r_epik_Charging_Adjusted_Penalty>
0.00239198

> <i_epik_Tot_Q>
0

> <i_epik_Tot_abs_Q>
0

> <r_epik_Metal_State_Penalty>
-0

> <b_epik_Metal_Only>
0

> <s_lp_Force_Field>
OPLS_2005

> <r_lp_Energy>
34.264

> <b_lp_Chiralities_Consistent>
1

> <s_lp_Variant>
AV-unprocessed.smi:3196-1

> <Gold.Version>
5.8.1

> <Gold.Id.Protein>
6NUR|6NUR_protein|mol2

> <Gold.PLP.Fitness>
52.6349

> <Gold.PLP.PLP>
-41.4405

> <Gold.PLP.part.hbond>
-2.0000

> <Gold.PLP.part.metal>
0.0000

> <Gold.PLP.part.buried>
-3.3496

> <Gold.PLP.part.nonpolar>
-36.9301

> <Gold.PLP.part.repulsive>
1.4645

> <Gold.PLP.ligand.clash>
0.0000

> <Gold.PLP.ligand.torsion>
0.6254

> <Gold.PLP.Chemscore.Hbond>
1.9920

> <Gold.PLP.Chemscore.CHOScore>
1.9684

> <Gold.PLP.Chemscore.Metal>
0.0000

> <Gold.Chemscore.Hbonds>
donor molecule, donor type, donor heavy atom, donor atom, acceptor molecule, acceptor atom, score
      L1  H     7    29       P1  8028  0.99
      L1  H    10    30       P1  8028  1.00
      L1  C    13    32       P1  7948  1.00
      L1  C    15    33       P1 10175  0.99

> <Gold.PLP.Chemscore.Internal.Correction>
0.5638

> <Gold.Rescore>
     Score         DG    S(hbond)    S(metal)    S(lipo)     H(rot)  DE(clash)    DE(int)     intcor
     19.69     -20.28       1.88        0.00     103.02       1.39       0.03       0.55       ----

> <Gold.Chemscore.Fitness>
19.6936

> <Gold.Chemscore.DG>
-20.2772

> <Gold.Chemscore.ZeroCoef>
-5.4800

> <Gold.Chemscore.Hbond>
1.8834

> <Gold.Chemscore.Metal>
0.0000

> <Gold.Chemscore.Lipo>
103.0152

> <Gold.Chemscore.Internal_Hbond>
0.0000

> <Gold.Chemscore.DEClash>
0.0286

> <Gold.Chemscore.DEInternal>
0.5549

> <Gold.Chemscore.Rot>
1.3852

> <Gold.Chemscore.Internal.Correction>
   9.000000E+99

> <Gold.Chemscore.Hbonds>
donor molecule, donor type, donor heavy atom, donor atom, acceptor molecule, acceptor atom, score
      L1  H     7    29       P1  8028  0.90
      L1  H    10    30       P1  8028  0.95

> <Gold.Chemscore.Hbond.Weighted>
-6.2904

> <Gold.Chemscore.Metal.Weighted>
-0.0000

> <Gold.Chemscore.Lipo.Weighted>
-12.0528

> <Gold.Chemscore.Internal_Hbond.Weighted>
0.0000

> <Gold.Chemscore.DEClash.Weighted>
0.0286

> <Gold.Chemscore.DEInternal.Weighted>
0.5549

> <Gold.Chemscore.Rot.Weighted>
3.5460

> <Gold.Chemscore.Internal.Correction.Weighted>
   9.000000E+99

> <Gold.Protein.RotatedTorsions>
[ 6907 6896 6895 6894 ] final   28.92 input  -60.11 | X-H torsion
[ 7974 7965 7964 7962 ] final -148.73 input  175.53 | X-H torsion
[ 8008 7997 7996 7995 ] final -127.06 input   59.86 | X-H torsion
[ 10167 10162 10161 10158 ] final   89.47 input  -65.29 | X-H torsion
[ 10718 10713 10712 10709 ] final  -64.60 input   66.30 | X-H torsion
[ 10763 10752 10751 10750 ] final  -34.87 input  -60.55 | X-H torsion
[ 11005 11000 10999 10996 ] final  -50.16 input  -57.11 | X-H torsion

> <Gold.Protein.ActiveResidues>
 VAL166  LYS551  ARG553  GLY616  TRP617  ASP618  TYR619  PRO620  LYS621  CYS622 
 ASP623  PHE694  ASN695  SER759  ASP760  ASP761  ALA762  ILE779  LEU786  VAL792 
 PHE793  MET794  SER795  GLU796  ALA797  LYS798  CYS799  TRP800  GLU811  SER814 

> <Gold.Protein.RotatedAtoms>
  152.0239  134.9807  160.0570 H   0  0  0  0  0  0  0  0  0  0  0  0  # atno 6907 bound_to 6896
  152.1310  133.4403  159.4729 H   0  0  0  0  0  0  0  0  0  0  0  0  # atno 6908 bound_to 6896
  150.6856  134.2339  159.4488 H   0  0  0  0  0  0  0  0  0  0  0  0  # atno 6909 bound_to 6896
  144.8011  140.5158  143.5706 H   0  0  0  0  0  0  0  0  0  0  0  0  # atno 7974 bound_to 7965
  155.2400  140.0428  157.2973 H   0  0  0  0  0  0  0  0  0  0  0  0  # atno 8008 bound_to 7997
  154.5834  140.2407  155.7991 H   0  0  0  0  0  0  0  0  0  0  0  0  # atno 8009 bound_to 7997
  156.2209  140.2970  155.9959 H   0  0  0  0  0  0  0  0  0  0  0  0  # atno 8010 bound_to 7997
  139.8570  144.6564  150.9103 H   0  0  0  0  0  0  0  0  0  0  0  0  # atno 10167 bound_to 10162
  156.0719  130.4235  150.1443 H   0  0  0  0  0  0  0  0  0  0  0  0  # atno 10718 bound_to 10713
  153.8539  135.6846  153.4789 H   0  0  0  0  0  0  0  0  0  0  0  0  # atno 10763 bound_to 10752
  153.1381  135.4669  154.9451 H   0  0  0  0  0  0  0  0  0  0  0  0  # atno 10764 bound_to 10752
  154.7790  135.3262  154.7980 H   0  0  0  0  0  0  0  0  0  0  0  0  # atno 10765 bound_to 10752
  141.0800  133.6656  156.3690 H   0  0  0  0  0  0  0  0  0  0  0  0  # atno 11005 bound_to 11000
  145.5551  139.1477  143.3373 LP  0  0  0  0  0  0  0  0  0  0  0  0  # atno 17320 bound_to 7965
  146.2293  140.5688  142.8982 LP  0  0  0  0  0  0  0  0  0  0  0  0  # atno 17321 bound_to 7965
  140.7780  143.3777  151.1532 LP  0  0  0  0  0  0  0  0  0  0  0  0  # atno 17342 bound_to 10162
  139.7410  143.8924  152.3050 LP  0  0  0  0  0  0  0  0  0  0  0  0  # atno 17343 bound_to 10162
  156.9492  130.9769  151.3501 LP  0  0  0  0  0  0  0  0  0  0  0  0  # atno 17370 bound_to 10713
  157.5795  130.8366  149.8502 LP  0  0  0  0  0  0  0  0  0  0  0  0  # atno 17371 bound_to 10713
  140.5489  134.6047  157.5402 LP  0  0  0  0  0  0  0  0  0  0  0  0  # atno 17394 bound_to 11000
  139.9614  134.7447  156.0230 LP  0  0  0  0  0  0  0  0  0  0  0  0  # atno 17395 bound_to 11000

$$$$
