AV-unprocessed.smi:236|AV-procd|sdf|1813|dock10
  -GOLD-   2262020403D 1   1.00000     0.00000
 Structure written by MMmdl.
 58 62  0  0  0  0  0  0  0  0  1 V2000
  142.4089  135.0612  153.1109 C   0  0  0  0  0  0  0  0  0  0  0  0
  143.4662  135.5630  152.1160 C   0  0  2  0  0  0  0  0  0  0  0  0
  144.1866  134.4715  151.5493 O   0  0  0  0  0  0  0  0  0  0  0  0
  145.5420  134.8448  151.3153 C   0  0  0  0  0  0  0  0  0  0  0  0
  145.6142  136.3409  151.6060 C   0  0  0  0  0  0  0  0  0  0  0  0
  144.5374  136.5224  152.6690 C   0  0  1  0  0  0  0  0  0  0  0  0
  144.0696  137.8577  152.6266 O   0  0  0  0  0  0  0  0  0  0  0  0
  145.0099  136.1840  154.1093 C   0  0  0  0  0  0  0  0  0  0  0  0
  146.3227  136.7178  154.4367 N   0  0  0  0  0  0  0  0  0  0  0  0
  147.3103  136.0939  155.1644 C   0  0  0  0  0  0  0  0  0  0  0  0
  148.4032  136.7881  155.3277 N   0  0  0  0  0  0  0  0  0  0  0  0
  148.1592  137.9764  154.6480 C   0  0  0  0  0  0  0  0  0  0  0  0
  148.9097  139.1670  154.4254 C   0  0  0  0  0  0  0  0  0  0  0  0
  150.1697  139.3478  154.9008 N   0  0  0  0  0  0  0  0  0  0  0  0
  151.2191  138.4455  154.4318 C   0  0  0  0  0  0  0  0  0  0  0  0
  152.6000  138.9839  154.8375 C   0  0  0  0  0  0  0  0  0  0  0  0
  152.6322  139.1952  156.2450 O   0  0  0  0  0  0  0  0  0  0  0  0
  151.6785  140.1675  156.6666 C   0  0  2  0  0  0  0  0  0  0  0  0
  151.8544  140.3946  158.1731 C   0  0  0  0  0  0  0  0  0  0  0  0
  151.0880  141.5222  158.5631 O   0  0  0  0  0  0  0  0  0  0  0  0
  151.7889  142.3797  159.4468 C   0  0  0  0  0  0  0  0  0  0  0  0
  151.4227  143.8153  159.1365 C   0  0  0  0  0  0  0  0  0  0  0  0
  152.4393  144.7478  158.5176 C   0  0  0  0  0  0  0  0  0  0  0  0
  152.0040  144.9520  159.9465 C   0  0  0  0  0  0  0  0  0  0  0  0
  150.2681  139.6469  156.3265 C   0  0  0  0  0  0  0  0  0  0  0  0
  148.3091  140.1550  153.7080 N   0  0  0  0  0  0  0  0  0  0  0  0
  147.0713  139.9918  153.2323 C   0  0  0  0  0  0  0  0  0  0  0  0
  146.2621  138.9390  153.3577 N   0  0  0  0  0  0  0  0  0  0  0  0
  146.8521  137.9468  154.0832 C   0  0  0  0  0  0  0  0  0  0  0  0
  141.8811  135.8942  153.5755 H   0  0  0  0  0  0  0  0  0  0  0  0
  142.8525  134.4569  153.9021 H   0  0  0  0  0  0  0  0  0  0  0  0
  141.6690  134.4411  152.6048 H   0  0  0  0  0  0  0  0  0  0  0  0
  142.9544  136.0510  151.2840 H   0  0  0  0  0  0  0  0  0  0  0  0
  146.1814  134.2888  152.0016 H   0  0  0  0  0  0  0  0  0  0  0  0
  145.8507  134.6058  150.2977 H   0  0  0  0  0  0  0  0  0  0  0  0
  146.6092  136.6742  151.8982 H   0  0  0  0  0  0  0  0  0  0  0  0
  145.3455  136.8882  150.7006 H   0  0  0  0  0  0  0  0  0  0  0  0
  143.9031  138.0884  151.7255 H   0  0  0  0  0  0  0  0  0  0  0  0
  144.3002  136.5677  154.8430 H   0  0  0  0  0  0  0  0  0  0  0  0
  145.0384  135.1035  154.2540 H   0  0  0  0  0  0  0  0  0  0  0  0
  147.1909  135.1037  155.5797 H   0  0  0  0  0  0  0  0  0  0  0  0
  151.0658  137.4551  154.8627 H   0  0  0  0  0  0  0  0  0  0  0  0
  151.1722  138.3417  153.3470 H   0  0  0  0  0  0  0  0  0  0  0  0
  153.3774  138.2694  154.5670 H   0  0  0  0  0  0  0  0  0  0  0  0
  152.8245  139.9142  154.3132 H   0  0  0  0  0  0  0  0  0  0  0  0
  151.8530  141.1096  156.1431 H   0  0  0  0  0  0  0  0  0  0  0  0
  151.5032  139.5183  158.7201 H   0  0  0  0  0  0  0  0  0  0  0  0
  152.9077  140.5363  158.4200 H   0  0  0  0  0  0  0  0  0  0  0  0
  151.5351  142.1486  160.4827 H   0  0  0  0  0  0  0  0  0  0  0  0
  152.8661  142.2553  159.3276 H   0  0  0  0  0  0  0  0  0  0  0  0
  150.3943  143.9439  158.8040 H   0  0  0  0  0  0  0  0  0  0  0  0
  153.4441  144.3647  158.3498 H   0  0  0  0  0  0  0  0  0  0  0  0
  152.0818  145.4596  157.7764 H   0  0  0  0  0  0  0  0  0  0  0  0
  151.3550  145.7993  160.1588 H   0  0  0  0  0  0  0  0  0  0  0  0
  152.7165  144.7029  160.7304 H   0  0  0  0  0  0  0  0  0  0  0  0
  149.5282  140.3839  156.6343 H   0  0  0  0  0  0  0  0  0  0  0  0
  150.0590  138.7373  156.8913 H   0  0  0  0  0  0  0  0  0  0  0  0
  146.6720  140.8241  152.6717 H   0  0  0  0  0  0  0  0  0  0  0  0
  1  2  1  0  0  0  0
  1 30  1  0  0  0  0
  1 31  1  0  0  0  0
  1 32  1  0  0  0  0
  2  6  1  0  0  0  0
  2  3  1  0  0  0  0
  2 33  1  0  0  0  0
  3  4  1  0  0  0  0
  4  5  1  0  0  0  0
  4 34  1  0  0  0  0
  4 35  1  0  0  0  0
  5  6  1  0  0  0  0
  5 36  1  0  0  0  0
  5 37  1  0  0  0  0
  6  7  1  0  0  0  0
  6  8  1  0  0  0  0
  7 38  1  0  0  0  0
  8  9  1  0  0  0  0
  8 39  1  0  0  0  0
  8 40  1  0  0  0  0
  9 29  1  0  0  0  0
  9 10  1  0  0  0  0
 10 11  2  0  0  0  0
 10 41  1  0  0  0  0
 11 12  1  0  0  0  0
 12 29  2  0  0  0  0
 12 13  1  0  0  0  0
 13 14  1  0  0  0  0
 13 26  2  0  0  0  0
 14 25  1  0  0  0  0
 14 15  1  0  0  0  0
 15 16  1  0  0  0  0
 15 42  1  0  0  0  0
 15 43  1  0  0  0  0
 16 17  1  0  0  0  0
 16 44  1  0  0  0  0
 16 45  1  0  0  0  0
 17 18  1  0  0  0  0
 18 19  1  0  0  0  0
 18 25  1  0  0  0  0
 18 46  1  0  0  0  0
 19 20  1  0  0  0  0
 19 47  1  0  0  0  0
 19 48  1  0  0  0  0
 20 21  1  0  0  0  0
 21 22  1  0  0  0  0
 21 49  1  0  0  0  0
 21 50  1  0  0  0  0
 22 24  1  0  0  0  0
 22 23  1  0  0  0  0
 22 51  1  0  0  0  0
 23 24  1  0  0  0  0
 23 52  1  0  0  0  0
 23 53  1  0  0  0  0
 24 54  1  0  0  0  0
 24 55  1  0  0  0  0
 25 56  1  0  0  0  0
 25 57  1  0  0  0  0
 26 27  1  0  0  0  0
 27 28  2  0  0  0  0
 27 58  1  0  0  0  0
 28 29  1  0  0  0  0
M  END
> <s_m_source_file>
AV-unprocessed.smi

> <i_m_source_file_index>
236

> <i_lp_mmshare_version>
43012

> <i_f3d_flags>
0

> <s_epik_input>
W0NIMl0xW0NIMl1PW0NAQEhdKFtDSDNdKVtDQEBdMShbT0hdKVtDSDJdbihbY0hdbjIpYyhjMjMpbltjSF1uYzNONFtDSDJdW0NIMl1PW0NASF0oW0NIMl00KVtDSDJdT1tDSDJdW0NIXTVbQ0gyXVtDSDJdNQ==

> <s_epik_cmdline>
J2VwaWtfcHl0aG9uJywgJy1waCcsICc3LjAnLCAnLXRuJywgJzgnLCAnLW1hJywgJzIwMCcsICctbWV0YWxfYmluZGluZycsICctaW1hZScsICc8aW5maWxlLm1hZT4nLCAnLW9tYWUnLCAnPG91dGZpbGUubWFlPic=

> <r_lp_tautomer_probability>
1

> <r_epik_Ionization_Penalty>
7.21838e-05

> <r_epik_Ionization_Penalty_Charging>
0

> <r_epik_Ionization_Penalty_Neutral>
7.21838e-05

> <r_epik_State_Penalty>
-0

> <r_epik_Charging_Adjusted_Penalty>
0

> <i_epik_Tot_Q>
0

> <i_epik_Tot_abs_Q>
0

> <r_epik_Metal_State_Penalty>
-0

> <b_epik_Metal_Only>
0

> <s_lp_Force_Field>
OPLS_2005

> <r_lp_Energy>
47.7421

> <b_lp_Chiralities_Consistent>
1

> <s_lp_Variant>
AV-unprocessed.smi:236-5

> <Gold.Version>
5.8.1

> <Gold.Id.Protein>
6NUR|6NUR_protein|mol2

> <Gold.PLP.Fitness>
50.3523

> <Gold.PLP.PLP>
-46.7207

> <Gold.PLP.part.hbond>
-3.0000

> <Gold.PLP.part.metal>
0.0000

> <Gold.PLP.part.buried>
-9.5670

> <Gold.PLP.part.nonpolar>
-37.8820

> <Gold.PLP.part.repulsive>
3.0893

> <Gold.PLP.ligand.clash>
0.0000

> <Gold.PLP.ligand.torsion>
1.7344

> <Gold.PLP.Chemscore.Hbond>
2.0000

> <Gold.PLP.Chemscore.CHOScore>
0.0000

> <Gold.PLP.Chemscore.Metal>
0.0000

> <Gold.Chemscore.Hbonds>
donor molecule, donor type, donor heavy atom, donor atom, acceptor molecule, acceptor atom, score
      L1  H     7    38       P1 10171  1.00
      P1  H  7997  8008       L1    17  0.95

> <Gold.PLP.Chemscore.Internal.Correction>
1.1005

> <Gold.Rescore>
     Score         DG    S(hbond)    S(metal)    S(lipo)     H(rot)  DE(clash)    DE(int)     intcor
     10.98     -15.67       1.42        0.00     109.13       2.87       1.48       3.21       ----

> <Gold.Chemscore.Fitness>
10.9771

> <Gold.Chemscore.DG>
-15.6706

> <Gold.Chemscore.ZeroCoef>
-5.4800

> <Gold.Chemscore.Hbond>
1.4245

> <Gold.Chemscore.Metal>
0.0000

> <Gold.Chemscore.Lipo>
109.1316

> <Gold.Chemscore.Internal_Hbond>
0.0000

> <Gold.Chemscore.DEClash>
1.4790

> <Gold.Chemscore.DEInternal>
3.2145

> <Gold.Chemscore.Rot>
2.8655

> <Gold.Chemscore.Internal.Correction>
   9.000000E+99

> <Gold.Chemscore.Hbonds>
donor molecule, donor type, donor heavy atom, donor atom, acceptor molecule, acceptor atom, score
      L1  H     7    38       P1 10171  0.98
      P1  H  7997  8008       L1    17  0.10

> <Gold.Chemscore.Hbond.Weighted>
-4.7580

> <Gold.Chemscore.Metal.Weighted>
-0.0000

> <Gold.Chemscore.Lipo.Weighted>
-12.7684

> <Gold.Chemscore.Internal_Hbond.Weighted>
0.0000

> <Gold.Chemscore.DEClash.Weighted>
1.4790

> <Gold.Chemscore.DEInternal.Weighted>
3.2145

> <Gold.Chemscore.Rot.Weighted>
7.3358

> <Gold.Chemscore.Internal.Correction.Weighted>
   9.000000E+99

> <Gold.Protein.RotatedTorsions>
[ 6907 6896 6895 6894 ] final  -52.63 input  -60.11 | X-H torsion
[ 7974 7965 7964 7962 ] final  -38.30 input  175.53 | X-H torsion
[ 8008 7997 7996 7995 ] final  -44.54 input   59.86 | X-H torsion
[ 10167 10162 10161 10158 ] final  -16.65 input  -65.29 | X-H torsion
[ 10718 10713 10712 10709 ] final  -33.26 input   66.30 | X-H torsion
[ 10763 10752 10751 10750 ] final   52.04 input  -60.55 | X-H torsion
[ 11005 11000 10999 10996 ] final   12.95 input  -57.11 | X-H torsion

> <Gold.Protein.ActiveResidues>
 VAL166  LYS551  ARG553  GLY616  TRP617  ASP618  TYR619  PRO620  LYS621  CYS622 
 ASP623  PHE694  ASN695  SER759  ASP760  ASP761  ALA762  ILE779  LEU786  VAL792 
 PHE793  MET794  SER795  GLU796  ALA797  LYS798  CYS799  TRP800  GLU811  SER814 

> <Gold.Protein.RotatedAtoms>
  150.8500  134.7822  159.7000 H   0  0  0  0  0  0  0  0  0  0  0  0  # atno 6907 bound_to 6896
  152.4567  134.5272  159.9810 H   0  0  0  0  0  0  0  0  0  0  0  0  # atno 6908 bound_to 6896
  151.5395  133.3397  159.2968 H   0  0  0  0  0  0  0  0  0  0  0  0  # atno 6909 bound_to 6896
  146.0499  140.6495  142.9047 H   0  0  0  0  0  0  0  0  0  0  0  0  # atno 7974 bound_to 7965
  154.3998  140.1419  156.3699 H   0  0  0  0  0  0  0  0  0  0  0  0  # atno 8008 bound_to 7997
  155.8102  140.3473  155.5432 H   0  0  0  0  0  0  0  0  0  0  0  0  # atno 8009 bound_to 7997
  155.8394  140.0924  157.1734 H   0  0  0  0  0  0  0  0  0  0  0  0  # atno 8010 bound_to 7997
  140.7236  143.5095  150.9768 H   0  0  0  0  0  0  0  0  0  0  0  0  # atno 10167 bound_to 10162
  156.3648  130.4330  149.7593 H   0  0  0  0  0  0  0  0  0  0  0  0  # atno 10718 bound_to 10713
  152.9787  135.5826  154.4513 H   0  0  0  0  0  0  0  0  0  0  0  0  # atno 10763 bound_to 10752
  154.4101  135.2770  155.2044 H   0  0  0  0  0  0  0  0  0  0  0  0  # atno 10764 bound_to 10752
  154.3837  135.6141  153.5859 H   0  0  0  0  0  0  0  0  0  0  0  0  # atno 10765 bound_to 10752
  140.4863  134.0885  155.7761 H   0  0  0  0  0  0  0  0  0  0  0  0  # atno 11005 bound_to 11000
  144.7117  140.4063  143.7075 LP  0  0  0  0  0  0  0  0  0  0  0  0  # atno 17320 bound_to 7965
  145.6742  139.1605  143.2737 LP  0  0  0  0  0  0  0  0  0  0  0  0  # atno 17321 bound_to 7965
  139.8808  143.7075  152.3157 LP  0  0  0  0  0  0  0  0  0  0  0  0  # atno 17342 bound_to 10162
  139.7356  144.7572  151.0732 LP  0  0  0  0  0  0  0  0  0  0  0  0  # atno 17343 bound_to 10162
  156.4743  130.8011  151.3028 LP  0  0  0  0  0  0  0  0  0  0  0  0  # atno 17370 bound_to 10713
  157.7477  131.0026  150.3006 LP  0  0  0  0  0  0  0  0  0  0  0  0  # atno 17371 bound_to 10713
  141.1506  133.8975  157.2106 LP  0  0  0  0  0  0  0  0  0  0  0  0  # atno 17394 bound_to 11000
  139.9796  135.0102  156.9717 LP  0  0  0  0  0  0  0  0  0  0  0  0  # atno 17395 bound_to 11000

$$$$
