AV-unprocessed.smi:1978|AV-procd|sdf|8003|dock10
  -GOLD-   2272010193D 1   1.00000     0.00000
 Structure written by MMmdl.
 44 45  0  0  0  0  0  0  0  0  3 V2000
  152.1502  140.8788  159.0573 C   0  0  0  0  0  0  0  0  0  0  0  0
  151.9839  140.3916  157.6585 C   0  0  0  0  0  0  0  0  0  0  0  0
  150.9779  140.5241  156.7439 C   0  0  0  0  0  0  0  0  0  0  0  0
  151.4685  139.8116  155.6155 C   0  0  0  0  0  0  0  0  0  0  0  0
  150.8403  139.6622  154.4391 N   0  5  0  0  0  0  0  0  0  0  0  0
  149.5222  139.9447  154.3295 C   0  0  0  0  0  0  0  0  0  0  0  0
  148.9430  140.9286  154.7954 O   0  0  0  0  0  0  0  0  0  0  0  0
  148.8342  139.0257  153.6381 N   0  0  0  0  0  0  0  0  0  0  0  0
  147.3964  139.0365  153.3862 C   0  0  0  0  0  0  0  0  0  0  0  0
  146.7005  137.8433  154.0794 C   0  0  1  0  0  0  0  0  0  0  0  0
  145.3765  138.2473  154.7650 C   0  0  0  0  0  0  0  0  0  0  0  0
  146.5391  136.6791  153.1476 N   0  3  2  0  0  0  0  0  0  0  0  0
  145.5928  136.9336  152.0203 C   0  0  0  0  0  0  0  0  0  0  0  0
  145.6705  135.8278  150.9581 C   0  0  0  0  0  0  0  0  0  0  0  0
  145.3773  134.4620  151.5815 C   0  0  0  0  0  0  0  0  0  0  0  0
  146.3300  134.2184  152.7560 C   0  0  0  0  0  0  0  0  0  0  0  0
  146.2618  135.3547  153.8004 C   0  0  1  0  0  0  0  0  0  0  0  0
  147.2181  135.0198  154.9634 C   0  0  0  0  0  0  0  0  0  0  0  0
  152.6722  139.3045  155.8221 N   0  0  0  0  0  0  0  0  0  0  0  0
  153.0079  139.6673  157.1321 O   0  0  0  0  0  0  0  0  0  0  0  0
  152.2318  141.9656  159.0788 H   0  0  0  0  0  0  0  0  0  0  0  0
  153.0483  140.4633  159.5153 H   0  0  0  0  0  0  0  0  0  0  0  0
  151.2957  140.5909  159.6697 H   0  0  0  0  0  0  0  0  0  0  0  0
  150.0391  141.0437  156.8630 H   0  0  0  0  0  0  0  0  0  0  0  0
  149.3565  138.2428  153.2725 H   0  0  0  0  0  0  0  0  0  0  0  0
  146.9770  139.9802  153.7325 H   0  0  0  0  0  0  0  0  0  0  0  0
  147.2375  138.9936  152.3081 H   0  0  0  0  0  0  0  0  0  0  0  0
  147.3955  137.5569  154.8653 H   0  0  0  0  0  0  0  0  0  0  0  0
  145.5455  139.0009  155.5345 H   0  0  0  0  0  0  0  0  0  0  0  0
  144.8993  137.4002  155.2569 H   0  0  0  0  0  0  0  0  0  0  0  0
  144.6652  138.6698  154.0552 H   0  0  0  0  0  0  0  0  0  0  0  0
  144.5725  137.0013  152.3997 H   0  0  0  0  0  0  0  0  0  0  0  0
  145.8057  137.8805  151.5292 H   0  0  0  0  0  0  0  0  0  0  0  0
  144.9595  136.0302  150.1564 H   0  0  0  0  0  0  0  0  0  0  0  0
  146.6611  135.8231  150.5012 H   0  0  0  0  0  0  0  0  0  0  0  0
  144.3434  134.4249  151.9276 H   0  0  0  0  0  0  0  0  0  0  0  0
  145.4874  133.6741  150.8357 H   0  0  0  0  0  0  0  0  0  0  0  0
  146.0845  133.2635  153.2226 H   0  0  0  0  0  0  0  0  0  0  0  0
  147.3503  134.1231  152.3813 H   0  0  0  0  0  0  0  0  0  0  0  0
  145.2474  135.3776  154.2010 H   0  0  0  0  0  0  0  0  0  0  0  0
  147.0818  133.9902  155.2951 H   0  0  0  0  0  0  0  0  0  0  0  0
  147.0355  135.6438  155.8380 H   0  0  0  0  0  0  0  0  0  0  0  0
  148.2618  135.1337  154.6683 H   0  0  0  0  0  0  0  0  0  0  0  0
  147.4475  136.5721  152.7191 H   0  0  0  0  0  0  0  0  0  0  0  0
  1  2  1  0  0  0  0
  1 21  1  0  0  0  0
  1 22  1  0  0  0  0
  1 23  1  0  0  0  0
  2 20  1  0  0  0  0
  2  3  2  0  0  0  0
  3  4  1  0  0  0  0
  3 24  1  0  0  0  0
  4  5  1  0  0  0  0
  4 19  2  0  0  0  0
  5  6  1  0  0  0  0
  6  7  2  0  0  0  0
  6  8  1  0  0  0  0
  8  9  1  0  0  0  0
  8 25  1  0  0  0  0
  9 10  1  0  0  0  0
  9 26  1  0  0  0  0
  9 27  1  0  0  0  0
 10 11  1  0  0  0  0
 10 12  1  0  0  0  0
 10 28  1  0  0  0  0
 11 29  1  0  0  0  0
 11 30  1  0  0  0  0
 11 31  1  0  0  0  0
 12 17  1  0  0  0  0
 12 13  1  0  0  0  0
 12 44  1  0  0  0  0
 13 14  1  0  0  0  0
 13 32  1  0  0  0  0
 13 33  1  0  0  0  0
 14 15  1  0  0  0  0
 14 34  1  0  0  0  0
 14 35  1  0  0  0  0
 15 16  1  0  0  0  0
 15 36  1  0  0  0  0
 15 37  1  0  0  0  0
 16 17  1  0  0  0  0
 16 38  1  0  0  0  0
 16 39  1  0  0  0  0
 17 18  1  0  0  0  0
 17 40  1  0  0  0  0
 18 41  1  0  0  0  0
 18 42  1  0  0  0  0
 18 43  1  0  0  0  0
 19 20  1  0  0  0  0
M  CHG  1   5  -1
M  CHG  1  12   1
M  END
> <s_m_source_file>
AV-unprocessed.smi

> <i_m_source_file_index>
1978

> <i_lp_mmshare_version>
43012

> <i_f3d_flags>
0

> <s_epik_input>
W0NIM11jMVtjSF1jKG5vMSlbTkhdQyg9TylbTkhdW0NIMl1bQ0BIXShbQ0gzXSlOMltDSDJdW0NIMl1bQ0gyXVtDSDJdW0NASF0yW0NIM10=

> <s_epik_cmdline>
J2VwaWtfcHl0aG9uJywgJy1waCcsICc3LjAnLCAnLXRuJywgJzgnLCAnLW1hJywgJzIwMCcsICctbWV0YWxfYmluZGluZycsICctaW1hZScsICc8aW5maWxlLm1hZT4nLCAnLW9tYWUnLCAnPG91dGZpbGUubWFlPic=

> <r_epik_Ionization_Penalty>
6.22372

> <r_epik_Ionization_Penalty_Charging>
6.22362

> <r_epik_Ionization_Penalty_Neutral>
9.65074e-05

> <r_epik_State_Penalty>
6.22363

> <r_epik_Charging_Adjusted_Penalty>
12.4472

> <i_epik_Tot_Q>
0

> <i_epik_Tot_abs_Q>
2

> <r_epik_Metal_State_Penalty>
2.16675

> <b_epik_Metal_Only>
1

> <s_lp_Force_Field>
OPLS_2005

> <r_lp_Energy>
13.2836

> <b_lp_Chiralities_Consistent>
1

> <s_lp_Variant>
AV-unprocessed.smi:1978-12

> <Gold.Version>
5.8.1

> <Gold.Id.Protein>
6NUR|6NUR_protein|mol2

> <Gold.PLP.Fitness>
40.4907

> <Gold.PLP.PLP>
-30.4893

> <Gold.PLP.part.hbond>
-4.9801

> <Gold.PLP.part.metal>
0.0000

> <Gold.PLP.part.buried>
-2.7257

> <Gold.PLP.part.nonpolar>
-22.1470

> <Gold.PLP.part.repulsive>
0.3330

> <Gold.PLP.ligand.clash>
0.0000

> <Gold.PLP.ligand.torsion>
1.0716

> <Gold.PLP.Chemscore.Hbond>
4.0000

> <Gold.PLP.Chemscore.CHOScore>
0.0000

> <Gold.PLP.Chemscore.Metal>
0.0000

> <Gold.Chemscore.Hbonds>
donor molecule, donor type, donor heavy atom, donor atom, acceptor molecule, acceptor atom, score
      L1  H    12    44       P1  7948  2.00
      P1  H  7989  7998       L1     5  1.00
      P1  H  7997  8009       L1    20  1.00

> <Gold.PLP.Chemscore.Internal.Correction>
0.1446

> <Gold.Rescore>
     Score         DG    S(hbond)    S(metal)    S(lipo)     H(rot)  DE(clash)    DE(int)     intcor
     13.32     -15.99       2.41        0.00      54.36       1.52       0.35       2.32       ----

> <Gold.Chemscore.Fitness>
13.3161

> <Gold.Chemscore.DG>
-15.9869

> <Gold.Chemscore.ZeroCoef>
-5.4800

> <Gold.Chemscore.Hbond>
2.4059

> <Gold.Chemscore.Metal>
0.0000

> <Gold.Chemscore.Lipo>
54.3579

> <Gold.Chemscore.Internal_Hbond>
0.0000

> <Gold.Chemscore.DEClash>
0.3549

> <Gold.Chemscore.DEInternal>
2.3159

> <Gold.Chemscore.Rot>
1.5190

> <Gold.Chemscore.Internal.Correction>
   9.000000E+99

> <Gold.Chemscore.Hbonds>
donor molecule, donor type, donor heavy atom, donor atom, acceptor molecule, acceptor atom, score
      L1  H     8    25       P1  7948  0.03
      L1  H    12    44       P1  7948  1.00
      P1  H  7989  7998       L1     5  0.15
      P1  H  7997  8009       L1    20  0.28

> <Gold.Chemscore.Hbond.Weighted>
-8.0357

> <Gold.Chemscore.Metal.Weighted>
-0.0000

> <Gold.Chemscore.Lipo.Weighted>
-6.3599

> <Gold.Chemscore.Internal_Hbond.Weighted>
0.0000

> <Gold.Chemscore.DEClash.Weighted>
0.3549

> <Gold.Chemscore.DEInternal.Weighted>
2.3159

> <Gold.Chemscore.Rot.Weighted>
3.8886

> <Gold.Chemscore.Internal.Correction.Weighted>
   9.000000E+99

> <Gold.Protein.RotatedTorsions>
[ 6907 6896 6895 6894 ] final  -16.30 input  -60.11 | X-H torsion
[ 7974 7965 7964 7962 ] final   23.97 input  175.53 | X-H torsion
[ 8008 7997 7996 7995 ] final  158.64 input   59.86 | X-H torsion
[ 10167 10162 10161 10158 ] final  -56.58 input  -65.29 | X-H torsion
[ 10718 10713 10712 10709 ] final -132.14 input   66.30 | X-H torsion
[ 10763 10752 10751 10750 ] final   -4.05 input  -60.55 | X-H torsion
[ 11005 11000 10999 10996 ] final -147.61 input  -57.11 | X-H torsion

> <Gold.Protein.ActiveResidues>
 VAL166  LYS551  ARG553  GLY616  TRP617  ASP618  TYR619  PRO620  LYS621  CYS622 
 ASP623  PHE694  ASN695  SER759  ASP760  ASP761  ALA762  ILE779  LEU786  VAL792 
 PHE793  MET794  SER795  GLU796  ALA797  LYS798  CYS799  TRP800  GLU811  SER814 

> <Gold.Protein.RotatedAtoms>
  151.3108  135.0793  159.9271 H   0  0  0  0  0  0  0  0  0  0  0  0  # atno 6907 bound_to 6896
  152.5278  133.9738  159.7785 H   0  0  0  0  0  0  0  0  0  0  0  0  # atno 6908 bound_to 6896
  151.0041  133.5976  159.2721 H   0  0  0  0  0  0  0  0  0  0  0  0  # atno 6909 bound_to 6896
  146.1959  139.7669  142.8797 H   0  0  0  0  0  0  0  0  0  0  0  0  # atno 7974 bound_to 7965
  156.2290  140.1853  156.7291 H   0  0  0  0  0  0  0  0  0  0  0  0  # atno 8008 bound_to 7997
  154.5990  140.0639  156.9370 H   0  0  0  0  0  0  0  0  0  0  0  0  # atno 8009 bound_to 7997
  155.2207  140.3307  155.4318 H   0  0  0  0  0  0  0  0  0  0  0  0  # atno 8010 bound_to 7997
  140.6309  143.2459  151.5244 H   0  0  0  0  0  0  0  0  0  0  0  0  # atno 10167 bound_to 10162
  156.2315  130.7040  151.0863 H   0  0  0  0  0  0  0  0  0  0  0  0  # atno 10718 bound_to 10713
  153.3796  135.6998  153.6575 H   0  0  0  0  0  0  0  0  0  0  0  0  # atno 10763 bound_to 10752
  153.5192  135.3615  155.2624 H   0  0  0  0  0  0  0  0  0  0  0  0  # atno 10764 bound_to 10752
  154.8691  135.4153  154.3091 H   0  0  0  0  0  0  0  0  0  0  0  0  # atno 10765 bound_to 10752
  140.7699  134.3201  157.5078 H   0  0  0  0  0  0  0  0  0  0  0  0  # atno 11005 bound_to 11000
  145.3644  141.0331  143.3267 LP  0  0  0  0  0  0  0  0  0  0  0  0  # atno 17320 bound_to 7965
  144.8580  139.5220  143.6825 LP  0  0  0  0  0  0  0  0  0  0  0  0  # atno 17321 bound_to 7965
  139.5523  144.2364  152.1552 LP  0  0  0  0  0  0  0  0  0  0  0  0  # atno 17342 bound_to 10162
  140.1607  144.5028  150.6634 LP  0  0  0  0  0  0  0  0  0  0  0  0  # atno 17343 bound_to 10162
  157.7135  131.0722  150.6413 LP  0  0  0  0  0  0  0  0  0  0  0  0  # atno 17370 bound_to 10713
  156.6481  130.4477  149.5729 LP  0  0  0  0  0  0  0  0  0  0  0  0  # atno 17371 bound_to 10713
  139.8757  134.9254  156.3374 LP  0  0  0  0  0  0  0  0  0  0  0  0  # atno 17394 bound_to 11000
  140.9583  133.7405  156.0367 LP  0  0  0  0  0  0  0  0  0  0  0  0  # atno 17395 bound_to 11000

$$$$
