AV-unprocessed.smi:1888|AV-procd|sdf|7657|dock6
  -GOLD-   22720 9393D 1   1.00000     0.00000
 Structure written by MMmdl.
 44 46  0  0  0  0  0  0  0  0  1 V2000
  151.3218  137.2183  155.0498 C   0  0  0  0  0  0  0  0  0  0  0  0
  152.0738  138.3799  154.3963 C   0  0  0  0  0  0  0  0  0  0  0  0
  151.4279  139.5944  154.7383 O   0  0  0  0  0  0  0  0  0  0  0  0
  152.0430  140.2518  155.8325 C   0  0  0  0  0  0  0  0  0  0  0  0
  151.8314  139.4093  157.0971 C   0  0  0  0  0  0  0  0  0  0  0  0
  152.2826  140.1079  158.2951 N   0  0  0  0  0  0  0  0  0  0  0  0
  153.2158  139.7098  159.1989 C   0  0  0  0  0  0  0  0  0  0  0  0
  153.8934  138.4784  159.0672 N   0  0  0  0  0  0  0  0  0  0  0  0
  154.5245  138.1708  157.9132 N   0  0  0  0  0  0  0  0  0  0  0  0
  155.0356  136.9677  158.1133 C   0  0  0  0  0  0  0  0  0  0  0  0
  155.8257  136.3117  157.0199 C   0  0  0  0  0  0  0  0  0  0  0  0
  154.7341  136.4644  159.4096 C   0  0  0  0  0  0  0  0  0  0  0  0
  153.9960  137.4556  159.9930 C   0  0  0  0  0  0  0  0  0  0  0  0
  153.3816  137.5273  161.3527 C   0  0  0  0  0  0  0  0  0  0  0  0
  153.4408  140.5733  160.1938 N   0  0  0  0  0  0  0  0  0  0  0  0
  152.5626  141.6072  159.9034 C   0  0  0  0  0  0  0  0  0  0  0  0
  151.8596  141.3475  158.7720 C   0  0  0  0  0  0  0  0  0  0  0  0
  150.8579  142.2759  158.2352 C   0  0  0  0  0  0  0  0  0  0  0  0
  150.2103  142.0568  157.2138 O   0  0  0  0  0  0  0  0  0  0  0  0
  150.7201  143.3969  158.9846 N   0  0  0  0  0  0  0  0  0  0  0  0
  151.3928  143.7201  160.1320 C   0  0  0  0  0  0  0  0  0  0  0  0
  151.1485  144.7828  160.7027 O   0  0  0  0  0  0  0  0  0  0  0  0
  152.3237  142.8248  160.5987 N   0  0  0  0  0  0  0  0  0  0  0  0
  153.0940  143.0734  161.8189 C   0  0  0  0  0  0  0  0  0  0  0  0
  150.0414  144.0706  158.6605 H   0  0  0  0  0  0  0  0  0  0  0  0
  151.7941  136.2651  154.8123 H   0  0  0  0  0  0  0  0  0  0  0  0
  150.2895  137.1766  154.7018 H   0  0  0  0  0  0  0  0  0  0  0  0
  151.3064  137.3234  156.1349 H   0  0  0  0  0  0  0  0  0  0  0  0
  153.1090  138.3942  154.7410 H   0  0  0  0  0  0  0  0  0  0  0  0
  152.0873  138.2515  153.3129 H   0  0  0  0  0  0  0  0  0  0  0  0
  153.1084  140.3833  155.6378 H   0  0  0  0  0  0  0  0  0  0  0  0
  151.6093  141.2443  155.9615 H   0  0  0  0  0  0  0  0  0  0  0  0
  150.7779  139.1503  157.2047 H   0  0  0  0  0  0  0  0  0  0  0  0
  152.3622  138.4608  157.0187 H   0  0  0  0  0  0  0  0  0  0  0  0
  156.1296  135.3037  157.3026 H   0  0  0  0  0  0  0  0  0  0  0  0
  156.7286  136.8799  156.7948 H   0  0  0  0  0  0  0  0  0  0  0  0
  155.2410  136.2364  156.1026 H   0  0  0  0  0  0  0  0  0  0  0  0
  155.0167  135.5174  159.8452 H   0  0  0  0  0  0  0  0  0  0  0  0
  153.6799  136.6733  161.9612 H   0  0  0  0  0  0  0  0  0  0  0  0
  152.2933  137.5283  161.2867 H   0  0  0  0  0  0  0  0  0  0  0  0
  153.6910  138.4345  161.8724 H   0  0  0  0  0  0  0  0  0  0  0  0
  152.9184  144.0532  162.2643 H   0  0  0  0  0  0  0  0  0  0  0  0
  154.1615  143.0013  161.6075 H   0  0  0  0  0  0  0  0  0  0  0  0
  152.8496  142.3221  162.5705 H   0  0  0  0  0  0  0  0  0  0  0  0
  1  2  1  0  0  0  0
  1 26  1  0  0  0  0
  1 27  1  0  0  0  0
  1 28  1  0  0  0  0
  2  3  1  0  0  0  0
  2 29  1  0  0  0  0
  2 30  1  0  0  0  0
  3  4  1  0  0  0  0
  4  5  1  0  0  0  0
  4 31  1  0  0  0  0
  4 32  1  0  0  0  0
  5  6  1  0  0  0  0
  5 33  1  0  0  0  0
  5 34  1  0  0  0  0
  6 17  1  0  0  0  0
  6  7  1  0  0  0  0
  7  8  1  0  0  0  0
  7 15  2  0  0  0  0
  8 13  1  0  0  0  0
  8  9  1  0  0  0  0
  9 10  2  0  0  0  0
 10 11  1  0  0  0  0
 10 12  1  0  0  0  0
 11 35  1  0  0  0  0
 11 36  1  0  0  0  0
 11 37  1  0  0  0  0
 12 13  2  0  0  0  0
 12 38  1  0  0  0  0
 13 14  1  0  0  0  0
 14 39  1  0  0  0  0
 14 40  1  0  0  0  0
 14 41  1  0  0  0  0
 15 16  1  0  0  0  0
 16 23  1  0  0  0  0
 16 17  2  0  0  0  0
 17 18  1  0  0  0  0
 18 19  2  0  0  0  0
 18 20  1  0  0  0  0
 20 25  1  0  0  0  0
 20 21  1  0  0  0  0
 21 22  2  0  0  0  0
 21 23  1  0  0  0  0
 23 24  1  0  0  0  0
 24 42  1  0  0  0  0
 24 43  1  0  0  0  0
 24 44  1  0  0  0  0
M  END
> <s_m_source_file>
AV-unprocessed.smi

> <i_m_source_file_index>
1888

> <i_lp_mmshare_version>
43012

> <i_f3d_flags>
0

> <s_epik_input>
W0NIM11uMWMoPU8pW25IXWMoPU8pYyhjMTIpbihbQ0gyXVtDSDJdT1tDSDJdW0NIM10pYyhuMiktbjNuYyhbQ0gzXSlbY0hdYzNbQ0gzXQ==

> <s_epik_cmdline>
J2VwaWtfcHl0aG9uJywgJy1waCcsICc3LjAnLCAnLXRuJywgJzgnLCAnLW1hJywgJzIwMCcsICctbWV0YWxfYmluZGluZycsICctaW1hZScsICc8aW5maWxlLm1hZT4nLCAnLW9tYWUnLCAnPG91dGZpbGUubWFlPic=

> <r_lp_tautomer_probability>
1

> <r_epik_Ionization_Penalty>
0.00155345

> <r_epik_Ionization_Penalty_Charging>
0.000715499

> <r_epik_Ionization_Penalty_Neutral>
0.000837951

> <r_epik_State_Penalty>
-0

> <r_epik_Charging_Adjusted_Penalty>
0.000715499

> <i_epik_Tot_Q>
0

> <i_epik_Tot_abs_Q>
0

> <r_epik_Metal_State_Penalty>
0.258535

> <b_epik_Metal_Only>
0

> <s_lp_Force_Field>
OPLS_2005

> <r_lp_Energy>
26.5558

> <b_lp_Chiralities_Consistent>
1

> <s_lp_Variant>
AV-unprocessed.smi:1888-1

> <Gold.Version>
5.8.1

> <Gold.Id.Protein>
6NUR|6NUR_protein|mol2

> <Gold.PLP.Fitness>
40.4899

> <Gold.PLP.PLP>
-37.4517

> <Gold.PLP.part.hbond>
-2.0000

> <Gold.PLP.part.metal>
0.0000

> <Gold.PLP.part.buried>
-7.5279

> <Gold.PLP.part.nonpolar>
-27.7963

> <Gold.PLP.part.repulsive>
0.4367

> <Gold.PLP.ligand.clash>
0.0000

> <Gold.PLP.ligand.torsion>
1.2735

> <Gold.PLP.Chemscore.Hbond>
1.7180

> <Gold.PLP.Chemscore.CHOScore>
0.0000

> <Gold.PLP.Chemscore.Metal>
0.0000

> <Gold.Chemscore.Hbonds>
donor molecule, donor type, donor heavy atom, donor atom, acceptor molecule, acceptor atom, score
      P1  H  7989  7998       L1     3  0.95
      P1  H  7997  8009       L1     9  0.77

> <Gold.PLP.Chemscore.Internal.Correction>
0.4312

> <Gold.Rescore>
     Score         DG    S(hbond)    S(metal)    S(lipo)     H(rot)  DE(clash)    DE(int)     intcor
     11.61     -13.52       1.34        0.00      67.60       1.70       0.39       1.53       ----

> <Gold.Chemscore.Fitness>
11.6091

> <Gold.Chemscore.DG>
-13.5248

> <Gold.Chemscore.ZeroCoef>
-5.4800

> <Gold.Chemscore.Hbond>
1.3398

> <Gold.Chemscore.Metal>
0.0000

> <Gold.Chemscore.Lipo>
67.6039

> <Gold.Chemscore.Internal_Hbond>
0.0000

> <Gold.Chemscore.DEClash>
0.3899

> <Gold.Chemscore.DEInternal>
1.5258

> <Gold.Chemscore.Rot>
1.6953

> <Gold.Chemscore.Internal.Correction>
   9.000000E+99

> <Gold.Chemscore.Hbonds>
donor molecule, donor type, donor heavy atom, donor atom, acceptor molecule, acceptor atom, score
      P1  H  7989  7998       L1     3  0.18
      P1  H  7997  8009       L1     9  0.22

> <Gold.Chemscore.Hbond.Weighted>
-4.4751

> <Gold.Chemscore.Metal.Weighted>
-0.0000

> <Gold.Chemscore.Lipo.Weighted>
-7.9097

> <Gold.Chemscore.Internal_Hbond.Weighted>
0.0000

> <Gold.Chemscore.DEClash.Weighted>
0.3899

> <Gold.Chemscore.DEInternal.Weighted>
1.5258

> <Gold.Chemscore.Rot.Weighted>
4.3399

> <Gold.Chemscore.Internal.Correction.Weighted>
   9.000000E+99

> <Gold.Protein.RotatedTorsions>
[ 6907 6896 6895 6894 ] final -171.42 input  -60.11 | X-H torsion
[ 7974 7965 7964 7962 ] final -175.92 input  175.53 | X-H torsion
[ 8008 7997 7996 7995 ] final  118.14 input   59.86 | X-H torsion
[ 10167 10162 10161 10158 ] final -119.53 input  -65.29 | X-H torsion
[ 10718 10713 10712 10709 ] final  122.94 input   66.30 | X-H torsion
[ 10763 10752 10751 10750 ] final  167.73 input  -60.55 | X-H torsion
[ 11005 11000 10999 10996 ] final    6.13 input  -57.11 | X-H torsion

> <Gold.Protein.ActiveResidues>
 VAL166  LYS551  ARG553  GLY616  TRP617  ASP618  TYR619  PRO620  LYS621  CYS622 
 ASP623  PHE694  ASN695  SER759  ASP760  ASP761  ALA762  ILE779  LEU786  VAL792 
 PHE793  MET794  SER795  GLU796  ALA797  LYS798  CYS799  TRP800  GLU811  SER814 

> <Gold.Protein.RotatedAtoms>
  151.5235  133.3462  159.2905 H   0  0  0  0  0  0  0  0  0  0  0  0  # atno 6907 bound_to 6896
  150.8638  134.7998  159.7114 H   0  0  0  0  0  0  0  0  0  0  0  0  # atno 6908 bound_to 6896
  152.4649  134.5108  159.9805 H   0  0  0  0  0  0  0  0  0  0  0  0  # atno 6909 bound_to 6896
  144.7127  140.1248  143.6403 H   0  0  0  0  0  0  0  0  0  0  0  0  # atno 7974 bound_to 7965
  156.2531  140.2881  156.0787 H   0  0  0  0  0  0  0  0  0  0  0  0  # atno 8008 bound_to 7997
  155.1590  140.0399  157.2855 H   0  0  0  0  0  0  0  0  0  0  0  0  # atno 8009 bound_to 7997
  154.6406  140.2521  155.7333 H   0  0  0  0  0  0  0  0  0  0  0  0  # atno 8010 bound_to 7997
  140.0456  143.5110  152.2108 H   0  0  0  0  0  0  0  0  0  0  0  0  # atno 10167 bound_to 10162
  157.5703  131.1083  150.8378 H   0  0  0  0  0  0  0  0  0  0  0  0  # atno 10718 bound_to 10713
  154.3581  135.2753  155.2335 H   0  0  0  0  0  0  0  0  0  0  0  0  # atno 10763 bound_to 10752
  154.4535  135.5925  153.6211 H   0  0  0  0  0  0  0  0  0  0  0  0  # atno 10764 bound_to 10752
  152.9845  135.6047  154.3799 H   0  0  0  0  0  0  0  0  0  0  0  0  # atno 10765 bound_to 10752
  140.5629  134.0175  155.7979 H   0  0  0  0  0  0  0  0  0  0  0  0  # atno 11005 bound_to 11000
  145.9339  139.2624  143.1309 LP  0  0  0  0  0  0  0  0  0  0  0  0  # atno 17320 bound_to 7965
  145.9494  140.8920  143.0267 LP  0  0  0  0  0  0  0  0  0  0  0  0  # atno 17321 bound_to 7965
  139.5986  144.7575  151.3227 LP  0  0  0  0  0  0  0  0  0  0  0  0  # atno 17342 bound_to 10162
  140.7240  143.7056  150.7810 LP  0  0  0  0  0  0  0  0  0  0  0  0  # atno 17343 bound_to 10162
  156.8852  130.5193  149.5289 LP  0  0  0  0  0  0  0  0  0  0  0  0  # atno 17370 bound_to 10713
  156.0749  130.5773  150.9455 LP  0  0  0  0  0  0  0  0  0  0  0  0  # atno 17371 bound_to 10713
  141.1103  133.9627  157.2922 LP  0  0  0  0  0  0  0  0  0  0  0  0  # atno 17394 bound_to 11000
  139.9399  135.0192  156.8674 LP  0  0  0  0  0  0  0  0  0  0  0  0  # atno 17395 bound_to 11000

$$$$
