AV-unprocessed.smi:3315|AV-procd|sdf|12751|dock4
  -GOLD-   2272019 93D 1   1.00000     0.00000
 Structure written by MMmdl.
 37 38  0  0  0  0  0  0  0  0  1 V2000
  150.2036  139.0739  154.2302 C   0  0  0  0  0  0  0  0  0  0  0  0
  148.9558  139.0872  154.9131 O   0  0  0  0  0  0  0  0  0  0  0  0
  147.9721  140.0331  154.4712 C   0  0  1  0  0  0  0  0  0  0  0  0
  148.5705  141.4443  154.4171 C   0  0  0  0  0  0  0  0  0  0  0  0
  147.2180  139.4856  153.2439 C   0  0  0  0  0  0  0  0  0  0  0  0
  146.3296  138.7207  154.2226 C   0  0  2  0  0  0  0  0  0  0  0  0
  144.9347  138.6746  153.7965 N   0  0  0  0  0  0  0  0  0  0  0  0
  144.0366  137.7860  154.2431 C   0  0  0  0  0  0  0  0  0  0  0  0
  144.3011  136.9084  155.0653 O   0  0  0  0  0  0  0  0  0  0  0  0
  142.8316  137.9850  153.6823 N   0  0  0  0  0  0  0  0  0  0  0  0
  141.6367  137.2598  153.9224 C   0  0  0  0  0  0  0  0  0  0  0  0
  140.3726  137.7984  153.5629 C   0  0  0  0  0  0  0  0  0  0  0  0
  139.5040  136.8187  153.9522 C   0  0  0  0  0  0  0  0  0  0  0  0
  140.1749  135.7720  154.5024 O   0  0  0  0  0  0  0  0  0  0  0  0
  141.5446  136.0616  154.4803 N   0  0  0  0  0  0  0  0  0  0  0  0
  146.6582  139.7991  155.2875 C   0  0  0  0  0  0  0  0  0  0  0  0
  146.8252  139.2921  156.7244 C   0  0  0  0  0  0  0  0  0  0  0  0
  145.6964  140.9991  155.3776 C   0  0  0  0  0  0  0  0  0  0  0  0
  150.7873  138.2209  154.5754 H   0  0  0  0  0  0  0  0  0  0  0  0
  150.7884  139.9687  154.4416 H   0  0  0  0  0  0  0  0  0  0  0  0
  150.0870  138.9777  153.1515 H   0  0  0  0  0  0  0  0  0  0  0  0
  147.8163  142.1963  154.1883 H   0  0  0  0  0  0  0  0  0  0  0  0
  149.3315  141.5358  153.6425 H   0  0  0  0  0  0  0  0  0  0  0  0
  149.0261  141.7178  155.3690 H   0  0  0  0  0  0  0  0  0  0  0  0
  146.6900  140.2644  152.6908 H   0  0  0  0  0  0  0  0  0  0  0  0
  147.7901  138.8487  152.5704 H   0  0  0  0  0  0  0  0  0  0  0  0
  146.7500  137.7418  154.4657 H   0  0  0  0  0  0  0  0  0  0  0  0
  144.6383  139.3628  153.1201 H   0  0  0  0  0  0  0  0  0  0  0  0
  142.7598  138.7397  153.0163 H   0  0  0  0  0  0  0  0  0  0  0  0
  140.1383  138.7442  153.0974 H   0  0  0  0  0  0  0  0  0  0  0  0
  138.4293  136.7211  153.9086 H   0  0  0  0  0  0  0  0  0  0  0  0
  145.8618  139.0881  157.1931 H   0  0  0  0  0  0  0  0  0  0  0  0
  147.3471  140.0204  157.3455 H   0  0  0  0  0  0  0  0  0  0  0  0
  147.3936  138.3629  156.7664 H   0  0  0  0  0  0  0  0  0  0  0  0
  144.7327  140.7123  155.7995 H   0  0  0  0  0  0  0  0  0  0  0  0
  145.4967  141.4419  154.4017 H   0  0  0  0  0  0  0  0  0  0  0  0
  146.1015  141.7881  156.0121 H   0  0  0  0  0  0  0  0  0  0  0  0
  1  2  1  0  0  0  0
  1 19  1  0  0  0  0
  1 20  1  0  0  0  0
  1 21  1  0  0  0  0
  2  3  1  0  0  0  0
  3 16  1  0  0  0  0
  3  4  1  0  0  0  0
  3  5  1  0  0  0  0
  4 22  1  0  0  0  0
  4 23  1  0  0  0  0
  4 24  1  0  0  0  0
  5  6  1  0  0  0  0
  5 25  1  0  0  0  0
  5 26  1  0  0  0  0
  6  7  1  0  0  0  0
  6 16  1  0  0  0  0
  6 27  1  0  0  0  0
  7  8  1  0  0  0  0
  7 28  1  0  0  0  0
  8  9  2  0  0  0  0
  8 10  1  0  0  0  0
 10 11  1  0  0  0  0
 10 29  1  0  0  0  0
 11 15  2  0  0  0  0
 11 12  1  0  0  0  0
 12 13  2  0  0  0  0
 12 30  1  0  0  0  0
 13 14  1  0  0  0  0
 13 31  1  0  0  0  0
 14 15  1  0  0  0  0
 16 17  1  0  0  0  0
 16 18  1  0  0  0  0
 17 32  1  0  0  0  0
 17 33  1  0  0  0  0
 17 34  1  0  0  0  0
 18 35  1  0  0  0  0
 18 36  1  0  0  0  0
 18 37  1  0  0  0  0
M  END
> <s_m_source_file>
AV-unprocessed.smi

> <i_m_source_file_index>
3315

> <i_lp_mmshare_version>
43012

> <i_f3d_flags>
0

> <s_epik_input>
W0NIM11PW0NAQF0xKFtDSDNdKVtDSDJdW0NASF0oQzEoW0NIM10pW0NIM10pW05IXUMoPU8pW05IXWMyW2NIXVtjSF1vbjI=

> <s_epik_cmdline>
J2VwaWtfcHl0aG9uJywgJy1waCcsICc3LjAnLCAnLXRuJywgJzgnLCAnLW1hJywgJzIwMCcsICctbWV0YWxfYmluZGluZycsICctaW1hZScsICc8aW5maWxlLm1hZT4nLCAnLW9tYWUnLCAnPG91dGZpbGUubWFlPic=

> <r_lp_tautomer_probability>
1

> <r_epik_Ionization_Penalty>
2.28875e-05

> <r_epik_Ionization_Penalty_Charging>
0

> <r_epik_Ionization_Penalty_Neutral>
2.28875e-05

> <r_epik_State_Penalty>
-0

> <r_epik_Charging_Adjusted_Penalty>
0

> <i_epik_Tot_Q>
0

> <i_epik_Tot_abs_Q>
0

> <r_epik_Metal_State_Penalty>
-0

> <b_epik_Metal_Only>
0

> <s_lp_Force_Field>
OPLS_2005

> <r_lp_Energy>
22.1239

> <b_lp_Chiralities_Consistent>
1

> <s_lp_Variant>
AV-unprocessed.smi:3315-3

> <Gold.Version>
5.8.1

> <Gold.Id.Protein>
6NUR|6NUR_protein|mol2

> <Gold.PLP.Fitness>
32.1076

> <Gold.PLP.PLP>
-24.2155

> <Gold.PLP.part.hbond>
-3.8889

> <Gold.PLP.part.metal>
0.0000

> <Gold.PLP.part.buried>
-3.7414

> <Gold.PLP.part.nonpolar>
-16.5179

> <Gold.PLP.part.repulsive>
0.3164

> <Gold.PLP.ligand.clash>
0.0000

> <Gold.PLP.ligand.torsion>
0.4770

> <Gold.PLP.Chemscore.Hbond>
2.8240

> <Gold.PLP.Chemscore.CHOScore>
0.0000

> <Gold.PLP.Chemscore.Metal>
0.0000

> <Gold.Chemscore.Hbonds>
donor molecule, donor type, donor heavy atom, donor atom, acceptor molecule, acceptor atom, score
      L1  H     7    28       P1 10175  1.00
      L1  H    10    29       P1 10175  0.86
      P1  H 11000 11005       L1    14  1.00

> <Gold.PLP.Chemscore.Internal.Correction>
0.3742

> <Gold.Rescore>
     Score         DG    S(hbond)    S(metal)    S(lipo)     H(rot)  DE(clash)    DE(int)     intcor
     15.14     -16.84       2.76        0.00      46.92       1.30       0.02       1.68       ----

> <Gold.Chemscore.Fitness>
15.1379

> <Gold.Chemscore.DG>
-16.8430

> <Gold.Chemscore.ZeroCoef>
-5.4800

> <Gold.Chemscore.Hbond>
2.7579

> <Gold.Chemscore.Metal>
0.0000

> <Gold.Chemscore.Lipo>
46.9187

> <Gold.Chemscore.Internal_Hbond>
0.0000

> <Gold.Chemscore.DEClash>
0.0234

> <Gold.Chemscore.DEInternal>
1.6817

> <Gold.Chemscore.Rot>
1.3038

> <Gold.Chemscore.Internal.Correction>
   9.000000E+99

> <Gold.Chemscore.Hbonds>
donor molecule, donor type, donor heavy atom, donor atom, acceptor molecule, acceptor atom, score
      L1  H     7    28       P1 10175  0.97
      L1  H    10    29       P1 10175  0.83
      P1  H 11000 11005       L1    14  0.42

> <Gold.Chemscore.Hbond.Weighted>
-9.2113

> <Gold.Chemscore.Metal.Weighted>
-0.0000

> <Gold.Chemscore.Lipo.Weighted>
-5.4895

> <Gold.Chemscore.Internal_Hbond.Weighted>
0.0000

> <Gold.Chemscore.DEClash.Weighted>
0.0234

> <Gold.Chemscore.DEInternal.Weighted>
1.6817

> <Gold.Chemscore.Rot.Weighted>
3.3377

> <Gold.Chemscore.Internal.Correction.Weighted>
   9.000000E+99

> <Gold.Protein.RotatedTorsions>
[ 6907 6896 6895 6894 ] final    2.00 input  -60.11 | X-H torsion
[ 7974 7965 7964 7962 ] final  -53.70 input  175.53 | X-H torsion
[ 8008 7997 7996 7995 ] final -120.37 input   59.86 | X-H torsion
[ 10167 10162 10161 10158 ] final  -52.74 input  -65.29 | X-H torsion
[ 10718 10713 10712 10709 ] final   64.13 input   66.30 | X-H torsion
[ 10763 10752 10751 10750 ] final -121.13 input  -60.55 | X-H torsion
[ 11005 11000 10999 10996 ] final   70.62 input  -57.11 | X-H torsion

> <Gold.Protein.ActiveResidues>
 VAL166  LYS551  ARG553  GLY616  TRP617  ASP618  TYR619  PRO620  LYS621  CYS622 
 ASP623  PHE694  ASN695  SER759  ASP760  ASP761  ALA762  ILE779  LEU786  VAL792 
 PHE793  MET794  SER795  GLU796  ALA797  LYS798  CYS799  TRP800  GLU811  SER814 

> <Gold.Protein.RotatedAtoms>
  151.6018  135.1047  160.0061 H   0  0  0  0  0  0  0  0  0  0  0  0  # atno 6907 bound_to 6896
  152.4254  133.7181  159.6528 H   0  0  0  0  0  0  0  0  0  0  0  0  # atno 6908 bound_to 6896
  150.8142  133.8294  159.3190 H   0  0  0  0  0  0  0  0  0  0  0  0  # atno 6909 bound_to 6896
  145.8939  140.8049  142.9777 H   0  0  0  0  0  0  0  0  0  0  0  0  # atno 7974 bound_to 7965
  155.1307  140.0400  157.2774 H   0  0  0  0  0  0  0  0  0  0  0  0  # atno 8008 bound_to 7997
  154.6545  140.2577  155.7151 H   0  0  0  0  0  0  0  0  0  0  0  0  # atno 8009 bound_to 7997
  156.2592  140.2829  156.0992 H   0  0  0  0  0  0  0  0  0  0  0  0  # atno 8010 bound_to 7997
  140.6521  143.2573  151.4692 H   0  0  0  0  0  0  0  0  0  0  0  0  # atno 10167 bound_to 10162
  157.6019  130.9143  149.9805 H   0  0  0  0  0  0  0  0  0  0  0  0  # atno 10718 bound_to 10713
  154.8661  135.4178  154.2570 H   0  0  0  0  0  0  0  0  0  0  0  0  # atno 10763 bound_to 10752
  153.3506  135.6998  153.6798 H   0  0  0  0  0  0  0  0  0  0  0  0  # atno 10764 bound_to 10752
  153.5739  135.3586  155.2821 H   0  0  0  0  0  0  0  0  0  0  0  0  # atno 10765 bound_to 10752
  139.9588  134.7097  156.0693 H   0  0  0  0  0  0  0  0  0  0  0  0  # atno 11005 bound_to 11000
  144.6732  140.1572  143.7425 LP  0  0  0  0  0  0  0  0  0  0  0  0  # atno 17320 bound_to 7965
  145.8875  139.2357  143.1569 LP  0  0  0  0  0  0  0  0  0  0  0  0  # atno 17321 bound_to 7965
  139.5738  144.1866  152.1874 LP  0  0  0  0  0  0  0  0  0  0  0  0  # atno 17342 bound_to 10162
  140.1171  144.5406  150.6887 LP  0  0  0  0  0  0  0  0  0  0  0  0  # atno 17343 bound_to 10162
  156.1094  130.3651  150.0076 LP  0  0  0  0  0  0  0  0  0  0  0  0  # atno 17370 bound_to 10713
  156.8177  130.9347  151.3642 LP  0  0  0  0  0  0  0  0  0  0  0  0  # atno 17371 bound_to 10713
  141.1263  133.6598  156.3345 LP  0  0  0  0  0  0  0  0  0  0  0  0  # atno 17394 bound_to 11000
  140.5548  134.5992  157.5417 LP  0  0  0  0  0  0  0  0  0  0  0  0  # atno 17395 bound_to 11000

$$$$
