AV-unprocessed.smi:1047|AV-procd|sdf|4602|dock5
  -GOLD-   22720 3 93D 1   1.00000     0.00000
 Structure written by MMmdl.
 57 59  0  0  0  0  0  0  0  0  3 V2000
  147.9904  132.2316  160.8215 C   0  0  0  0  0  0  0  0  0  0  0  0
  147.9418  133.2908  161.9315 C   0  0  0  0  0  0  0  0  0  0  0  0
  146.8929  134.3165  161.6887 N   0  3  1  0  0  0  0  0  0  0  0  0
  146.6833  135.2672  162.8103 C   0  0  0  0  0  0  0  0  0  0  0  0
  147.7768  136.3518  162.8424 C   0  0  0  0  0  0  0  0  0  0  0  0
  147.8390  137.0066  161.5815 O   0  0  0  0  0  0  0  0  0  0  0  0
  148.1778  136.1179  160.5212 C   0  0  2  0  0  0  0  0  0  0  0  0
  148.3020  136.9427  159.2320 C   0  0  0  0  0  0  0  0  0  0  0  0
  149.2272  138.0569  159.4098 N   0  0  0  0  0  0  0  0  0  0  0  0
  149.6218  138.6899  158.1553 C   0  0  0  0  0  0  0  0  0  0  0  0
  151.1283  138.5234  157.8929 C   0  0  1  0  0  0  0  0  0  0  0  0
  151.4052  137.1489  157.7086 O   0  0  0  0  0  0  0  0  0  0  0  0
  151.5747  139.3043  156.6418 C   0  0  0  0  0  0  0  0  0  0  0  0
  151.1140  140.7004  156.6456 N   0  0  0  0  0  0  0  0  0  0  0  0
  150.3283  141.3539  155.7472 C   0  0  0  0  0  0  0  0  0  0  0  0
  150.1871  142.6368  156.1804 N   0  3  0  0  0  0  0  0  0  0  0  0
  150.8911  142.8052  157.3744 C   0  0  0  0  0  0  0  0  0  0  0  0
  151.0472  143.9215  158.1873 C   0  0  0  0  0  0  0  0  0  0  0  0
  151.8322  143.7666  159.3519 C   0  0  0  0  0  0  0  0  0  0  0  0
  152.0245  144.9683  160.2614 C   0  0  0  0  0  0  0  0  0  0  0  0
  152.4285  142.5188  159.6694 C   0  0  0  0  0  0  0  0  0  0  0  0
  153.2643  142.3614  160.9283 C   0  0  0  0  0  0  0  0  0  0  0  0
  152.2598  141.3958  158.8280 C   0  0  0  0  0  0  0  0  0  0  0  0
  151.4860  141.5658  157.6819 C   0  0  0  0  0  0  0  0  0  0  0  0
  147.0664  135.0526  160.4118 C   0  0  0  0  0  0  0  0  0  0  0  0
  148.8270  131.5504  160.9792 H   0  0  0  0  0  0  0  0  0  0  0  0
  148.1220  132.6933  159.8424 H   0  0  0  0  0  0  0  0  0  0  0  0
  147.0843  131.6274  160.7904 H   0  0  0  0  0  0  0  0  0  0  0  0
  147.8070  132.8172  162.9038 H   0  0  0  0  0  0  0  0  0  0  0  0
  148.9167  133.7791  161.9621 H   0  0  0  0  0  0  0  0  0  0  0  0
  145.7130  135.7453  162.6703 H   0  0  0  0  0  0  0  0  0  0  0  0
  146.6287  134.7477  163.7661 H   0  0  0  0  0  0  0  0  0  0  0  0
  147.5444  137.0915  163.6085 H   0  0  0  0  0  0  0  0  0  0  0  0
  148.7504  135.9322  163.0981 H   0  0  0  0  0  0  0  0  0  0  0  0
  149.1342  135.6343  160.7297 H   0  0  0  0  0  0  0  0  0  0  0  0
  148.6617  136.3030  158.4253 H   0  0  0  0  0  0  0  0  0  0  0  0
  147.3189  137.3053  158.9284 H   0  0  0  0  0  0  0  0  0  0  0  0
  148.8153  138.7491  160.0277 H   0  0  0  0  0  0  0  0  0  0  0  0
  149.0388  138.2984  157.3204 H   0  0  0  0  0  0  0  0  0  0  0  0
  149.3926  139.7547  158.2157 H   0  0  0  0  0  0  0  0  0  0  0  0
  151.6993  138.8828  158.7505 H   0  0  0  0  0  0  0  0  0  0  0  0
  151.1375  136.6814  158.4848 H   0  0  0  0  0  0  0  0  0  0  0  0
  152.6575  139.2768  156.5196 H   0  0  0  0  0  0  0  0  0  0  0  0
  151.1571  138.8374  155.7488 H   0  0  0  0  0  0  0  0  0  0  0  0
  149.8965  140.9313  154.8514 H   0  0  0  0  0  0  0  0  0  0  0  0
  150.5881  144.8676  157.9403 H   0  0  0  0  0  0  0  0  0  0  0  0
  153.0834  145.2079  160.3621 H   0  0  0  0  0  0  0  0  0  0  0  0
  151.6185  144.7670  161.2532 H   0  0  0  0  0  0  0  0  0  0  0  0
  151.5196  145.8512  159.8677 H   0  0  0  0  0  0  0  0  0  0  0  0
  153.6436  141.3441  161.0310 H   0  0  0  0  0  0  0  0  0  0  0  0
  152.6682  142.5850  161.8133 H   0  0  0  0  0  0  0  0  0  0  0  0
  154.1206  143.0360  160.9070 H   0  0  0  0  0  0  0  0  0  0  0  0
  152.7123  140.4469  159.0737 H   0  0  0  0  0  0  0  0  0  0  0  0
  147.2711  134.3571  159.5969 H   0  0  0  0  0  0  0  0  0  0  0  0
  146.1204  135.5380  160.1668 H   0  0  0  0  0  0  0  0  0  0  0  0
  146.0342  133.7940  161.5895 H   0  0  0  0  0  0  0  0  0  0  0  0
  149.6485  143.3431  155.6953 H   0  0  0  0  0  0  0  0  0  0  0  0
  1  2  1  0  0  0  0
  1 26  1  0  0  0  0
  1 27  1  0  0  0  0
  1 28  1  0  0  0  0
  2  3  1  0  0  0  0
  2 29  1  0  0  0  0
  2 30  1  0  0  0  0
  3 25  1  0  0  0  0
  3  4  1  0  0  0  0
  3 56  1  0  0  0  0
  4  5  1  0  0  0  0
  4 31  1  0  0  0  0
  4 32  1  0  0  0  0
  5  6  1  0  0  0  0
  5 33  1  0  0  0  0
  5 34  1  0  0  0  0
  6  7  1  0  0  0  0
  7  8  1  0  0  0  0
  7 25  1  0  0  0  0
  7 35  1  0  0  0  0
  8  9  1  0  0  0  0
  8 36  1  0  0  0  0
  8 37  1  0  0  0  0
  9 10  1  0  0  0  0
  9 38  1  0  0  0  0
 10 11  1  0  0  0  0
 10 39  1  0  0  0  0
 10 40  1  0  0  0  0
 11 12  1  0  0  0  0
 11 13  1  0  0  0  0
 11 41  1  0  0  0  0
 12 42  1  0  0  0  0
 13 14  1  0  0  0  0
 13 43  1  0  0  0  0
 13 44  1  0  0  0  0
 14 24  1  0  0  0  0
 14 15  1  0  0  0  0
 15 16  2  0  0  0  0
 15 45  1  0  0  0  0
 16 17  1  0  0  0  0
 16 57  1  0  0  0  0
 17 24  2  0  0  0  0
 17 18  1  0  0  0  0
 18 19  2  0  0  0  0
 18 46  1  0  0  0  0
 19 20  1  0  0  0  0
 19 21  1  0  0  0  0
 20 47  1  0  0  0  0
 20 48  1  0  0  0  0
 20 49  1  0  0  0  0
 21 22  1  0  0  0  0
 21 23  2  0  0  0  0
 22 50  1  0  0  0  0
 22 51  1  0  0  0  0
 22 52  1  0  0  0  0
 23 24  1  0  0  0  0
 23 53  1  0  0  0  0
 25 54  1  0  0  0  0
 25 55  1  0  0  0  0
M  CHG  1   3   1
M  CHG  1  16   1
M  END
> <s_m_source_file>
AV-unprocessed.smi

> <i_m_source_file_index>
1047

> <i_lp_mmshare_version>
43012

> <i_f3d_flags>
0

> <s_epik_input>
W0NIM11bQ0gyXU4xW0NIMl1bQ0gyXU9bQ0BIXShbQ0gyXTEpW0NIMl1bTkhdW0NIMl1bQ0BIXShbT0hdKVtDSDJdbihbY0hdbjIpYyhjMjMpW2NIXWMoW0NIM10pYyhbY0hdMylbQ0gzXQ==

> <s_epik_cmdline>
J2VwaWtfcHl0aG9uJywgJy1waCcsICc3LjAnLCAnLXRuJywgJzgnLCAnLW1hJywgJzIwMCcsICctbWV0YWxfYmluZGluZycsICctaW1hZScsICc8aW5maWxlLm1hZT4nLCAnLW9tYWUnLCAnPG91dGZpbGUubWFlPic=

> <r_epik_Ionization_Penalty>
2.03028

> <r_epik_Ionization_Penalty_Charging>
1.21256

> <r_epik_Ionization_Penalty_Neutral>
0.817715

> <r_epik_State_Penalty>
2.54959

> <r_epik_Charging_Adjusted_Penalty>
3.76215

> <i_epik_Tot_Q>
2

> <i_epik_Tot_abs_Q>
2

> <r_epik_Metal_State_Penalty>
6.52811

> <b_epik_Metal_Only>
0

> <s_lp_Force_Field>
OPLS_2005

> <r_lp_Energy>
36.7228

> <b_lp_Chiralities_Consistent>
1

> <s_lp_Variant>
AV-unprocessed.smi:1047-43

> <Gold.Version>
5.8.1

> <Gold.Id.Protein>
6NUR|6NUR_protein|mol2

> <Gold.PLP.Fitness>
65.6105

> <Gold.PLP.PLP>
-55.6464

> <Gold.PLP.part.hbond>
-5.0000

> <Gold.PLP.part.metal>
0.0000

> <Gold.PLP.part.buried>
-6.5294

> <Gold.PLP.part.nonpolar>
-45.0482

> <Gold.PLP.part.repulsive>
0.1447

> <Gold.PLP.ligand.clash>
0.0000

> <Gold.PLP.ligand.torsion>
0.5182

> <Gold.PLP.Chemscore.Hbond>
3.6365

> <Gold.PLP.Chemscore.CHOScore>
0.0000

> <Gold.PLP.Chemscore.Metal>
0.0000

> <Gold.Chemscore.Hbonds>
donor molecule, donor type, donor heavy atom, donor atom, acceptor molecule, acceptor atom, score
      L1  H    16    57       P1  8028  2.00
      P1  H  6931  6943       L1     6  1.00
      P1  H  6934  6947       L1     6  0.41

> <Gold.PLP.Chemscore.Internal.Correction>
0.0910

> <Gold.Rescore>
     Score         DG    S(hbond)    S(metal)    S(lipo)     H(rot)  DE(clash)    DE(int)     intcor
     20.54     -21.22       1.90        0.00     139.50       2.71       0.08       0.61       ----

> <Gold.Chemscore.Fitness>
20.5368

> <Gold.Chemscore.DG>
-21.2214

> <Gold.Chemscore.ZeroCoef>
-5.4800

> <Gold.Chemscore.Hbond>
1.9026

> <Gold.Chemscore.Metal>
0.0000

> <Gold.Chemscore.Lipo>
139.4987

> <Gold.Chemscore.Internal_Hbond>
0.0000

> <Gold.Chemscore.DEClash>
0.0771

> <Gold.Chemscore.DEInternal>
0.6075

> <Gold.Chemscore.Rot>
2.7088

> <Gold.Chemscore.Internal.Correction>
   9.000000E+99

> <Gold.Chemscore.Hbonds>
donor molecule, donor type, donor heavy atom, donor atom, acceptor molecule, acceptor atom, score
      L1  H    16    57       P1  8028  0.94
      P1  H  6931  6943       L1     6  0.27
      P1  H  6934  6947       L1     6  0.35

> <Gold.Chemscore.Hbond.Weighted>
-6.3547

> <Gold.Chemscore.Metal.Weighted>
-0.0000

> <Gold.Chemscore.Lipo.Weighted>
-16.3213

> <Gold.Chemscore.Internal_Hbond.Weighted>
0.0000

> <Gold.Chemscore.DEClash.Weighted>
0.0771

> <Gold.Chemscore.DEInternal.Weighted>
0.6075

> <Gold.Chemscore.Rot.Weighted>
6.9346

> <Gold.Chemscore.Internal.Correction.Weighted>
   9.000000E+99

> <Gold.Protein.RotatedTorsions>
[ 6907 6896 6895 6894 ] final   69.95 input  -60.11 | X-H torsion
[ 7974 7965 7964 7962 ] final  -91.47 input  175.53 | X-H torsion
[ 8008 7997 7996 7995 ] final  -60.52 input   59.86 | X-H torsion
[ 10167 10162 10161 10158 ] final  116.02 input  -65.29 | X-H torsion
[ 10718 10713 10712 10709 ] final  -21.25 input   66.30 | X-H torsion
[ 10763 10752 10751 10750 ] final  137.88 input  -60.55 | X-H torsion
[ 11005 11000 10999 10996 ] final   50.79 input  -57.11 | X-H torsion

> <Gold.Protein.ActiveResidues>
 VAL166  LYS551  ARG553  GLY616  TRP617  ASP618  TYR619  PRO620  LYS621  CYS622 
 ASP623  PHE694  ASN695  SER759  ASP760  ASP761  ALA762  ILE779  LEU786  VAL792 
 PHE793  MET794  SER795  GLU796  ALA797  LYS798  CYS799  TRP800  GLU811  SER814 

> <Gold.Protein.RotatedAtoms>
  152.4719  134.4940  159.9704 H   0  0  0  0  0  0  0  0  0  0  0  0  # atno 6907 bound_to 6896
  151.4965  133.3507  159.2870 H   0  0  0  0  0  0  0  0  0  0  0  0  # atno 6908 bound_to 6896
  150.8733  134.8139  159.7233 H   0  0  0  0  0  0  0  0  0  0  0  0  # atno 6909 bound_to 6896
  145.4127  140.9546  143.2225 H   0  0  0  0  0  0  0  0  0  0  0  0  # atno 7974 bound_to 7965
  154.4403  140.1038  156.6287 H   0  0  0  0  0  0  0  0  0  0  0  0  # atno 8008 bound_to 7997
  155.5629  140.3488  155.4477 H   0  0  0  0  0  0  0  0  0  0  0  0  # atno 8009 bound_to 7997
  156.0447  140.1290  157.0106 H   0  0  0  0  0  0  0  0  0  0  0  0  # atno 8010 bound_to 7997
  139.6276  144.7110  151.2500 H   0  0  0  0  0  0  0  0  0  0  0  0  # atno 10167 bound_to 10162
  156.5207  130.4631  149.6598 H   0  0  0  0  0  0  0  0  0  0  0  0  # atno 10718 bound_to 10713
  153.8804  135.3045  155.3445 H   0  0  0  0  0  0  0  0  0  0  0  0  # atno 10763 bound_to 10752
  154.7764  135.4859  153.9756 H   0  0  0  0  0  0  0  0  0  0  0  0  # atno 10764 bound_to 10752
  153.1355  135.6813  153.9207 H   0  0  0  0  0  0  0  0  0  0  0  0  # atno 10765 bound_to 10752
  140.0987  134.5111  155.8783 H   0  0  0  0  0  0  0  0  0  0  0  0  # atno 11005 bound_to 11000
  144.8298  139.5648  143.6949 LP  0  0  0  0  0  0  0  0  0  0  0  0  # atno 17320 bound_to 7965
  146.2696  139.6604  142.9305 LP  0  0  0  0  0  0  0  0  0  0  0  0  # atno 17321 bound_to 7965
  140.7420  143.6539  150.8224 LP  0  0  0  0  0  0  0  0  0  0  0  0  # atno 17342 bound_to 10162
  140.0159  143.5593  152.2820 LP  0  0  0  0  0  0  0  0  0  0  0  0  # atno 17343 bound_to 10162
  156.3152  130.7250  151.2151 LP  0  0  0  0  0  0  0  0  0  0  0  0  # atno 17370 bound_to 10713
  157.7437  131.0470  150.4924 LP  0  0  0  0  0  0  0  0  0  0  0  0  # atno 17371 bound_to 10713
  141.2099  133.6689  156.6474 LP  0  0  0  0  0  0  0  0  0  0  0  0  # atno 17394 bound_to 11000
  140.3250  134.7976  157.4282 LP  0  0  0  0  0  0  0  0  0  0  0  0  # atno 17395 bound_to 11000

$$$$
