AV-unprocessed.smi:1512|AV-procd|sdf|6104|dock6
  -GOLD-   22720 6233D 1   1.00000     0.00000
 Structure written by MMmdl.
 44 46  0  0  0  0  0  0  0  0  3 V2000
  145.0668  136.7565  152.5670 C   0  0  0  0  0  0  0  0  0  0  0  0
  145.7345  135.3875  152.7814 C   0  0  2  0  0  0  0  0  0  0  0  0
  147.0242  135.5582  153.4406 N   0  0  0  0  0  0  0  0  0  0  0  0
  147.2740  135.3859  154.7495 C   0  0  0  0  0  0  0  0  0  0  0  0
  146.3911  135.1589  155.5754 O   0  0  0  0  0  0  0  0  0  0  0  0
  148.7409  135.4446  155.2119 C   0  0  0  0  0  0  0  0  0  0  0  0
  149.3734  136.7707  155.0701 N   0  0  0  0  0  0  0  0  0  0  0  0
  148.5380  137.8413  154.7002 C   0  0  0  0  0  0  0  0  0  0  0  0
  149.0154  139.0798  154.5116 C   0  0  0  0  0  0  0  0  0  0  0  0
  150.4310  139.2996  154.6812 C   0  0  0  0  0  0  0  0  0  0  0  0
  151.2532  138.2862  155.0374 C   0  0  0  0  0  0  0  0  0  0  0  0
  152.6650  138.5649  155.1563 N   0  3  0  0  0  0  0  0  0  0  0  0
  153.3867  137.7376  155.7048 O   0  0  0  0  0  0  0  0  0  0  0  0
  153.0965  139.6138  154.6873 O   0  5  0  0  0  0  0  0  0  0  0  0
  150.7181  136.9310  155.2783 C   0  0  0  0  0  0  0  0  0  0  0  0
  151.4257  135.9874  155.6358 O   0  0  0  0  0  0  0  0  0  0  0  0
  145.9386  134.6259  151.4498 C   0  0  2  0  0  0  0  0  0  0  0  0
  144.6846  134.5472  150.5508 C   0  0  0  0  0  0  0  0  0  0  0  0
  144.5976  133.0476  150.2086 C   0  0  2  0  0  0  0  0  0  0  0  0
  144.1144  132.2744  151.4497 C   0  0  0  0  0  0  0  0  0  0  0  0
  145.3451  132.3140  152.3738 C   0  0  0  0  0  0  0  0  0  0  0  0
  146.3593  133.1368  151.5538 C   0  0  1  0  0  0  0  0  0  0  0  0
  146.0663  132.6460  150.1403 C   0  0  0  0  0  0  0  0  0  0  0  0
  144.0958  136.6507  152.0835 H   0  0  0  0  0  0  0  0  0  0  0  0
  145.6812  137.4048  151.9410 H   0  0  0  0  0  0  0  0  0  0  0  0
  144.9027  137.2689  153.5153 H   0  0  0  0  0  0  0  0  0  0  0  0
  145.0877  134.7929  153.4286 H   0  0  0  0  0  0  0  0  0  0  0  0
  147.8102  135.7538  152.8379 H   0  0  0  0  0  0  0  0  0  0  0  0
  148.7770  135.1090  156.2491 H   0  0  0  0  0  0  0  0  0  0  0  0
  149.3124  134.7001  154.6549 H   0  0  0  0  0  0  0  0  0  0  0  0
  147.4935  137.5927  154.5790 H   0  0  0  0  0  0  0  0  0  0  0  0
  148.3594  139.8896  154.2281 H   0  0  0  0  0  0  0  0  0  0  0  0
  150.8302  140.2864  154.4965 H   0  0  0  0  0  0  0  0  0  0  0  0
  146.7241  135.1393  150.8920 H   0  0  0  0  0  0  0  0  0  0  0  0
  143.7794  134.9005  151.0465 H   0  0  0  0  0  0  0  0  0  0  0  0
  144.8224  135.1470  149.6504 H   0  0  0  0  0  0  0  0  0  0  0  0
  144.0180  132.8368  149.3094 H   0  0  0  0  0  0  0  0  0  0  0  0
  143.2365  132.7324  151.9068 H   0  0  0  0  0  0  0  0  0  0  0  0
  143.8601  131.2448  151.1945 H   0  0  0  0  0  0  0  0  0  0  0  0
  145.1273  132.7448  153.3507 H   0  0  0  0  0  0  0  0  0  0  0  0
  145.7240  131.3053  152.5434 H   0  0  0  0  0  0  0  0  0  0  0  0
  147.3928  132.9946  151.8703 H   0  0  0  0  0  0  0  0  0  0  0  0
  146.2175  131.5724  150.0139 H   0  0  0  0  0  0  0  0  0  0  0  0
  146.6260  133.1791  149.3695 H   0  0  0  0  0  0  0  0  0  0  0  0
  1  2  1  0  0  0  0
  1 24  1  0  0  0  0
  1 25  1  0  0  0  0
  1 26  1  0  0  0  0
  2  3  1  0  0  0  0
  2 17  1  0  0  0  0
  2 27  1  0  0  0  0
  3  4  1  0  0  0  0
  3 28  1  0  0  0  0
  4  5  2  0  0  0  0
  4  6  1  0  0  0  0
  6  7  1  0  0  0  0
  6 29  1  0  0  0  0
  6 30  1  0  0  0  0
  7 15  1  0  0  0  0
  7  8  1  0  0  0  0
  8  9  2  0  0  0  0
  8 31  1  0  0  0  0
  9 10  1  0  0  0  0
  9 32  1  0  0  0  0
 10 11  2  0  0  0  0
 10 33  1  0  0  0  0
 11 12  1  0  0  0  0
 11 15  1  0  0  0  0
 12 13  2  0  0  0  0
 12 14  1  0  0  0  0
 15 16  2  0  0  0  0
 17 22  1  0  0  0  0
 17 18  1  0  0  0  0
 17 34  1  0  0  0  0
 18 19  1  0  0  0  0
 18 35  1  0  0  0  0
 18 36  1  0  0  0  0
 19 23  1  0  0  0  0
 19 20  1  0  0  0  0
 19 37  1  0  0  0  0
 20 21  1  0  0  0  0
 20 38  1  0  0  0  0
 20 39  1  0  0  0  0
 21 22  1  0  0  0  0
 21 40  1  0  0  0  0
 21 41  1  0  0  0  0
 22 23  1  0  0  0  0
 22 42  1  0  0  0  0
 23 43  1  0  0  0  0
 23 44  1  0  0  0  0
M  CHG  1  12   1
M  CHG  1  14  -1
M  END
> <s_m_source_file>
AV-unprocessed.smi

> <i_m_source_file_index>
1512

> <i_lp_mmshare_version>
43012

> <i_f3d_flags>
0

> <s_epik_input>
W0NIMl0xW0NIMl1bQ0BIXShbQ0gyXTIpW0NAQEhdKFtDSDJdW0NAQEhdMTIpW0NASF0oW0NIM10pW05IXUMoPU8pW0NIMl1uM1tjSF1bY0hdW2NIXWMoW04rXSg9TylbTy1dKWMzPU8=

> <s_epik_cmdline>
J2VwaWtfcHl0aG9uJywgJy1waCcsICc3LjAnLCAnLXRuJywgJzgnLCAnLW1hJywgJzIwMCcsICctbWV0YWxfYmluZGluZycsICctaW1hZScsICc8aW5maWxlLm1hZT4nLCAnLW9tYWUnLCAnPG91dGZpbGUubWFlPic=

> <r_lp_tautomer_probability>
1

> <r_epik_Ionization_Penalty>
2.17697e-08

> <r_epik_Ionization_Penalty_Charging>
1.42735e-10

> <r_epik_Ionization_Penalty_Neutral>
2.16269e-08

> <r_epik_State_Penalty>
-0

> <r_epik_Charging_Adjusted_Penalty>
1.42735e-10

> <i_epik_Tot_Q>
0

> <i_epik_Tot_abs_Q>
2

> <r_epik_Metal_State_Penalty>
-0

> <b_epik_Metal_Only>
0

> <s_lp_Force_Field>
OPLS_2005

> <r_lp_Energy>
63.3532

> <b_lp_Chiralities_Consistent>
1

> <s_lp_Variant>
AV-unprocessed.smi:1512-5

> <Gold.Version>
5.8.1

> <Gold.Id.Protein>
6NUR|6NUR_protein|mol2

> <Gold.PLP.Fitness>
48.0852

> <Gold.PLP.PLP>
-39.6030

> <Gold.PLP.part.hbond>
-5.0000

> <Gold.PLP.part.metal>
0.0000

> <Gold.PLP.part.buried>
-5.3734

> <Gold.PLP.part.nonpolar>
-29.7261

> <Gold.PLP.part.repulsive>
0.1159

> <Gold.PLP.ligand.clash>
0.0000

> <Gold.PLP.ligand.torsion>
0.5281

> <Gold.PLP.Chemscore.Hbond>
3.1659

> <Gold.PLP.Chemscore.CHOScore>
0.0000

> <Gold.PLP.Chemscore.Metal>
0.0000

> <Gold.Chemscore.Hbonds>
donor molecule, donor type, donor heavy atom, donor atom, acceptor molecule, acceptor atom, score
      L1  H     3    28       P1  7948  1.00
      P1  H  7989  7998       L1    14  0.18
      P1  H  7997  8010       L1    14  1.00
      P1  H 10752 10765       L1    16  1.00

> <Gold.PLP.Chemscore.Internal.Correction>
0.0408

> <Gold.Rescore>
     Score         DG    S(hbond)    S(metal)    S(lipo)     H(rot)  DE(clash)    DE(int)     intcor
     17.65     -19.76       2.97        0.00      75.37       1.75       0.02       2.09       ----

> <Gold.Chemscore.Fitness>
17.6509

> <Gold.Chemscore.DG>
-19.7598

> <Gold.Chemscore.ZeroCoef>
-5.4800

> <Gold.Chemscore.Hbond>
2.9745

> <Gold.Chemscore.Metal>
0.0000

> <Gold.Chemscore.Lipo>
75.3698

> <Gold.Chemscore.Internal_Hbond>
0.0000

> <Gold.Chemscore.DEClash>
0.0231

> <Gold.Chemscore.DEInternal>
2.0857

> <Gold.Chemscore.Rot>
1.7474

> <Gold.Chemscore.Internal.Correction>
   9.000000E+99

> <Gold.Chemscore.Hbonds>
donor molecule, donor type, donor heavy atom, donor atom, acceptor molecule, acceptor atom, score
      L1  H     3    28       P1  7948  0.97
      P1  H  7989  7998       L1    14  0.17
      P1  H  7997  8010       L1    14  0.39
      P1  H 10752 10765       L1    16  1.00

> <Gold.Chemscore.Hbond.Weighted>
-9.9348

> <Gold.Chemscore.Metal.Weighted>
-0.0000

> <Gold.Chemscore.Lipo.Weighted>
-8.8183

> <Gold.Chemscore.Internal_Hbond.Weighted>
0.0000

> <Gold.Chemscore.DEClash.Weighted>
0.0231

> <Gold.Chemscore.DEInternal.Weighted>
2.0857

> <Gold.Chemscore.Rot.Weighted>
4.4733

> <Gold.Chemscore.Internal.Correction.Weighted>
   9.000000E+99

> <Gold.Protein.RotatedTorsions>
[ 6907 6896 6895 6894 ] final   -6.84 input  -60.11 | X-H torsion
[ 7974 7965 7964 7962 ] final  126.41 input  175.53 | X-H torsion
[ 8008 7997 7996 7995 ] final   96.52 input   59.86 | X-H torsion
[ 10167 10162 10161 10158 ] final -137.88 input  -65.29 | X-H torsion
[ 10718 10713 10712 10709 ] final -127.34 input   66.30 | X-H torsion
[ 10763 10752 10751 10750 ] final -161.45 input  -60.55 | X-H torsion
[ 11005 11000 10999 10996 ] final -142.49 input  -57.11 | X-H torsion

> <Gold.Protein.ActiveResidues>
 VAL166  LYS551  ARG553  GLY616  TRP617  ASP618  TYR619  PRO620  LYS621  CYS622 
 ASP623  PHE694  ASN695  SER759  ASP760  ASP761  ALA762  ILE779  LEU786  VAL792 
 PHE793  MET794  SER795  GLU796  ALA797  LYS798  CYS799  TRP800  GLU811  SER814 

> <Gold.Protein.RotatedAtoms>
  151.4591  135.1037  159.9719 H   0  0  0  0  0  0  0  0  0  0  0  0  # atno 6907 bound_to 6896
  152.4859  133.8369  159.7143 H   0  0  0  0  0  0  0  0  0  0  0  0  # atno 6908 bound_to 6896
  150.8969  133.7109  159.2916 H   0  0  0  0  0  0  0  0  0  0  0  0  # atno 6909 bound_to 6896
  145.0620  139.3797  143.5001 H   0  0  0  0  0  0  0  0  0  0  0  0  # atno 7974 bound_to 7965
  156.0805  140.3271  155.7688 H   0  0  0  0  0  0  0  0  0  0  0  0  # atno 8008 bound_to 7997
  155.5160  140.0581  157.2932 H   0  0  0  0  0  0  0  0  0  0  0  0  # atno 8009 bound_to 7997
  154.4579  140.1952  156.0343 H   0  0  0  0  0  0  0  0  0  0  0  0  # atno 8010 bound_to 7997
  139.8534  143.7170  152.2656 H   0  0  0  0  0  0  0  0  0  0  0  0  # atno 10167 bound_to 10162
  156.1848  130.6756  151.0350 H   0  0  0  0  0  0  0  0  0  0  0  0  # atno 10718 bound_to 10713
  154.7302  135.3045  154.8903 H   0  0  0  0  0  0  0  0  0  0  0  0  # atno 10763 bound_to 10752
  153.9749  135.6737  153.4752 H   0  0  0  0  0  0  0  0  0  0  0  0  # atno 10764 bound_to 10752
  153.0912  135.4958  154.8613 H   0  0  0  0  0  0  0  0  0  0  0  0  # atno 10765 bound_to 10752
  140.8220  134.2619  157.4896 H   0  0  0  0  0  0  0  0  0  0  0  0  # atno 11005 bound_to 11000
  146.3525  140.0323  142.8649 LP  0  0  0  0  0  0  0  0  0  0  0  0  # atno 17320 bound_to 7965
  145.1397  140.9564  143.4496 LP  0  0  0  0  0  0  0  0  0  0  0  0  # atno 17321 bound_to 7965
  139.7444  144.7551  151.0603 LP  0  0  0  0  0  0  0  0  0  0  0  0  # atno 17342 bound_to 10162
  140.7784  143.4934  150.9863 LP  0  0  0  0  0  0  0  0  0  0  0  0  # atno 17343 bound_to 10162
  157.6891  131.0815  150.7157 LP  0  0  0  0  0  0  0  0  0  0  0  0  # atno 17370 bound_to 10713
  156.7214  130.4682  149.5522 LP  0  0  0  0  0  0  0  0  0  0  0  0  # atno 17371 bound_to 10713
  139.8708  134.9540  156.4164 LP  0  0  0  0  0  0  0  0  0  0  0  0  # atno 17394 bound_to 11000
  140.9089  133.7726  155.9767 LP  0  0  0  0  0  0  0  0  0  0  0  0  # atno 17395 bound_to 11000

$$$$
