AV-unprocessed.smi:2661|AV-procd|sdf|10317|dock1
  -GOLD-   2272014333D 1   1.00000     0.00000
 Structure written by MMmdl.
 44 46  0  0  0  0  0  0  0  0  1 V2000
  142.9787  135.4056  153.5819 C   0  0  0  0  0  0  0  0  0  0  0  0
  143.9909  136.0684  152.7712 N   0  0  0  0  0  0  0  0  0  0  0  0
  144.2740  135.6315  151.4153 C   0  0  0  0  0  0  0  0  0  0  0  0
  145.5647  136.3680  151.0309 C   0  0  0  0  0  0  0  0  0  0  0  0
  145.6902  137.5279  152.0376 C   0  0  2  0  0  0  0  0  0  0  0  0
  147.0548  137.7154  152.5261 N   0  0  0  0  0  0  0  0  0  0  0  0
  147.4345  138.6006  153.4586 C   0  0  0  0  0  0  0  0  0  0  0  0
  146.6508  139.3495  154.0415 O   0  0  0  0  0  0  0  0  0  0  0  0
  148.7597  138.5381  153.6742 N   0  0  0  0  0  0  0  0  0  0  0  0
  149.5548  139.3087  154.5659 C   0  0  0  0  0  0  0  0  0  0  0  0
  150.9552  139.1759  154.7121 C   0  0  0  0  0  0  0  0  0  0  0  0
  151.6245  139.9911  155.6448 C   0  0  0  0  0  0  0  0  0  0  0  0
  150.8825  140.9143  156.4190 C   0  0  0  0  0  0  0  0  0  0  0  0
  151.5340  141.7415  157.3601 N   0  0  0  0  0  0  0  0  0  0  0  0
  152.1173  141.0581  158.5122 C   0  0  0  0  0  0  0  0  0  0  0  0
  153.0509  142.0076  159.2829 C   0  0  0  0  0  0  0  0  0  0  0  0
  152.3472  143.1922  159.6412 O   0  0  0  0  0  0  0  0  0  0  0  0
  151.8872  143.9006  158.4952 C   0  0  0  0  0  0  0  0  0  0  0  0
  150.9094  143.0193  157.6996 C   0  0  0  0  0  0  0  0  0  0  0  0
  149.5393  141.0339  156.2795 N   0  0  0  0  0  0  0  0  0  0  0  0
  148.9016  140.2502  155.3854 C   0  0  0  0  0  0  0  0  0  0  0  0
  144.7608  137.0895  153.1613 C   0  0  0  0  0  0  0  0  0  0  0  0
  144.7346  137.6329  154.2654 O   0  0  0  0  0  0  0  0  0  0  0  0
  143.4344  134.9435  154.4585 H   0  0  0  0  0  0  0  0  0  0  0  0
  142.4679  134.6272  153.0142 H   0  0  0  0  0  0  0  0  0  0  0  0
  142.2301  136.1225  153.9212 H   0  0  0  0  0  0  0  0  0  0  0  0
  144.3919  134.5489  151.3563 H   0  0  0  0  0  0  0  0  0  0  0  0
  143.4480  135.9237  150.7654 H   0  0  0  0  0  0  0  0  0  0  0  0
  146.4071  135.6804  151.1249 H   0  0  0  0  0  0  0  0  0  0  0  0
  145.5443  136.7183  149.9985 H   0  0  0  0  0  0  0  0  0  0  0  0
  145.3075  138.4573  151.6127 H   0  0  0  0  0  0  0  0  0  0  0  0
  147.7640  137.1289  152.1107 H   0  0  0  0  0  0  0  0  0  0  0  0
  149.2554  137.8172  153.1704 H   0  0  0  0  0  0  0  0  0  0  0  0
  151.5295  138.4644  154.1401 H   0  0  0  0  0  0  0  0  0  0  0  0
  152.6962  139.9055  155.7452 H   0  0  0  0  0  0  0  0  0  0  0  0
  151.3112  140.7187  159.1639 H   0  0  0  0  0  0  0  0  0  0  0  0
  152.6796  140.1734  158.2175 H   0  0  0  0  0  0  0  0  0  0  0  0
  153.4126  141.5227  160.1896 H   0  0  0  0  0  0  0  0  0  0  0  0
  153.9286  142.2595  158.6851 H   0  0  0  0  0  0  0  0  0  0  0  0
  151.3899  144.8152  158.8184 H   0  0  0  0  0  0  0  0  0  0  0  0
  152.7339  144.2002  157.8754 H   0  0  0  0  0  0  0  0  0  0  0  0
  150.6068  143.5452  156.7932 H   0  0  0  0  0  0  0  0  0  0  0  0
  150.0090  142.8362  158.2875 H   0  0  0  0  0  0  0  0  0  0  0  0
  147.8317  140.3848  155.3203 H   0  0  0  0  0  0  0  0  0  0  0  0
  1  2  1  0  0  0  0
  1 24  1  0  0  0  0
  1 25  1  0  0  0  0
  1 26  1  0  0  0  0
  2 22  1  0  0  0  0
  2  3  1  0  0  0  0
  3  4  1  0  0  0  0
  3 27  1  0  0  0  0
  3 28  1  0  0  0  0
  4  5  1  0  0  0  0
  4 29  1  0  0  0  0
  4 30  1  0  0  0  0
  5  6  1  0  0  0  0
  5 22  1  0  0  0  0
  5 31  1  0  0  0  0
  6  7  1  0  0  0  0
  6 32  1  0  0  0  0
  7  8  2  0  0  0  0
  7  9  1  0  0  0  0
  9 10  1  0  0  0  0
  9 33  1  0  0  0  0
 10 21  1  0  0  0  0
 10 11  2  0  0  0  0
 11 12  1  0  0  0  0
 11 34  1  0  0  0  0
 12 13  2  0  0  0  0
 12 35  1  0  0  0  0
 13 14  1  0  0  0  0
 13 20  1  0  0  0  0
 14 19  1  0  0  0  0
 14 15  1  0  0  0  0
 15 16  1  0  0  0  0
 15 36  1  0  0  0  0
 15 37  1  0  0  0  0
 16 17  1  0  0  0  0
 16 38  1  0  0  0  0
 16 39  1  0  0  0  0
 17 18  1  0  0  0  0
 18 19  1  0  0  0  0
 18 40  1  0  0  0  0
 18 41  1  0  0  0  0
 19 42  1  0  0  0  0
 19 43  1  0  0  0  0
 20 21  2  0  0  0  0
 21 44  1  0  0  0  0
 22 23  2  0  0  0  0
M  END
> <s_m_source_file>
AV-unprocessed.smi

> <i_m_source_file_index>
2661

> <i_lp_mmshare_version>
43012

> <i_f3d_flags>
0

> <s_epik_input>
W0NIM11OMVtDSDJdW0NIMl1bQ0BIXShDMT1PKVtOSF1DKD1PKVtOSF1jMltjSF1bY0hdYyhuW2NIXTIpTjNbQ0gyXVtDSDJdT1tDSDJdW0NIMl0z

> <s_epik_cmdline>
J2VwaWtfcHl0aG9uJywgJy1waCcsICc3LjAnLCAnLXRuJywgJzgnLCAnLW1hJywgJzIwMCcsICctbWV0YWxfYmluZGluZycsICctaW1hZScsICc8aW5maWxlLm1hZT4nLCAnLW9tYWUnLCAnPG91dGZpbGUubWFlPic=

> <r_lp_tautomer_probability>
1

> <r_epik_Ionization_Penalty>
0.00172037

> <r_epik_Ionization_Penalty_Charging>
0

> <r_epik_Ionization_Penalty_Neutral>
0.00172037

> <r_epik_State_Penalty>
0.00114015

> <r_epik_Charging_Adjusted_Penalty>
0.00114015

> <i_epik_Tot_Q>
0

> <i_epik_Tot_abs_Q>
0

> <r_epik_Metal_State_Penalty>
-0

> <b_epik_Metal_Only>
0

> <s_lp_Force_Field>
OPLS_2005

> <r_lp_Energy>
33.1579

> <b_lp_Chiralities_Consistent>
1

> <s_lp_Variant>
AV-unprocessed.smi:2661-2

> <Gold.Version>
5.8.1

> <Gold.Id.Protein>
6NUR|6NUR_protein|mol2

> <Gold.PLP.Fitness>
43.4372

> <Gold.PLP.PLP>
-38.6759

> <Gold.PLP.part.hbond>
-2.8105

> <Gold.PLP.part.metal>
0.0000

> <Gold.PLP.part.buried>
-0.9102

> <Gold.PLP.part.nonpolar>
-36.0033

> <Gold.PLP.part.repulsive>
0.4757

> <Gold.PLP.ligand.clash>
0.0000

> <Gold.PLP.ligand.torsion>
0.4176

> <Gold.PLP.Chemscore.Hbond>
1.7415

> <Gold.PLP.Chemscore.CHOScore>
0.0000

> <Gold.PLP.Chemscore.Metal>
0.0000

> <Gold.Chemscore.Hbonds>
donor molecule, donor type, donor heavy atom, donor atom, acceptor molecule, acceptor atom, score
      L1  H     6    32       P1  7948  0.91
      L1  H     9    33       P1  7948  0.83

> <Gold.PLP.Chemscore.Internal.Correction>
0.3720

> <Gold.Rescore>
     Score         DG    S(hbond)    S(metal)    S(lipo)     H(rot)  DE(clash)    DE(int)     intcor
     14.75     -18.43       1.89        0.00      84.44       1.26       0.66       3.02       ----

> <Gold.Chemscore.Fitness>
14.7477

> <Gold.Chemscore.DG>
-18.4280

> <Gold.Chemscore.ZeroCoef>
-5.4800

> <Gold.Chemscore.Hbond>
1.8871

> <Gold.Chemscore.Metal>
0.0000

> <Gold.Chemscore.Lipo>
84.4447

> <Gold.Chemscore.Internal_Hbond>
0.0000

> <Gold.Chemscore.DEClash>
0.6585

> <Gold.Chemscore.DEInternal>
3.0218

> <Gold.Chemscore.Rot>
1.2636

> <Gold.Chemscore.Internal.Correction>
   9.000000E+99

> <Gold.Chemscore.Hbonds>
donor molecule, donor type, donor heavy atom, donor atom, acceptor molecule, acceptor atom, score
      L1  H     6    32       P1  7948  0.87
      L1  H     9    33       P1  7948  0.76

> <Gold.Chemscore.Hbond.Weighted>
-6.3028

> <Gold.Chemscore.Metal.Weighted>
-0.0000

> <Gold.Chemscore.Lipo.Weighted>
-9.8800

> <Gold.Chemscore.Internal_Hbond.Weighted>
0.0000

> <Gold.Chemscore.DEClash.Weighted>
0.6585

> <Gold.Chemscore.DEInternal.Weighted>
3.0218

> <Gold.Chemscore.Rot.Weighted>
3.2348

> <Gold.Chemscore.Internal.Correction.Weighted>
   9.000000E+99

> <Gold.Protein.RotatedTorsions>
[ 6907 6896 6895 6894 ] final  -33.80 input  -60.11 | X-H torsion
[ 7974 7965 7964 7962 ] final  -25.32 input  175.53 | X-H torsion
[ 8008 7997 7996 7995 ] final  115.20 input   59.86 | X-H torsion
[ 10167 10162 10161 10158 ] final   -9.74 input  -65.29 | X-H torsion
[ 10718 10713 10712 10709 ] final   73.52 input   66.30 | X-H torsion
[ 10763 10752 10751 10750 ] final   49.19 input  -60.55 | X-H torsion
[ 11005 11000 10999 10996 ] final  -52.65 input  -57.11 | X-H torsion

> <Gold.Protein.ActiveResidues>
 VAL166  LYS551  ARG553  GLY616  TRP617  ASP618  TYR619  PRO620  LYS621  CYS622 
 ASP623  PHE694  ASN695  SER759  ASP760  ASP761  ALA762  ILE779  LEU786  VAL792 
 PHE793  MET794  SER795  GLU796  ALA797  LYS798  CYS799  TRP800  GLU811  SER814 

> <Gold.Protein.RotatedAtoms>
  151.0608  134.9735  159.8259 H   0  0  0  0  0  0  0  0  0  0  0  0  # atno 6907 bound_to 6896
  152.5395  134.2419  159.8875 H   0  0  0  0  0  0  0  0  0  0  0  0  # atno 6908 bound_to 6896
  151.2439  133.4342  159.2642 H   0  0  0  0  0  0  0  0  0  0  0  0  # atno 6909 bound_to 6896
  146.1498  140.4870  142.8616 H   0  0  0  0  0  0  0  0  0  0  0  0  # atno 7974 bound_to 7965
  156.2367  140.2943  156.0333 H   0  0  0  0  0  0  0  0  0  0  0  0  # atno 8008 bound_to 7997
  155.2070  140.0411  157.2944 H   0  0  0  0  0  0  0  0  0  0  0  0  # atno 8009 bound_to 7997
  154.6093  140.2447  155.7697 H   0  0  0  0  0  0  0  0  0  0  0  0  # atno 8010 bound_to 7997
  140.7095  143.5825  150.8977 H   0  0  0  0  0  0  0  0  0  0  0  0  # atno 10167 bound_to 10162
  157.6551  130.9632  150.1081 H   0  0  0  0  0  0  0  0  0  0  0  0  # atno 10718 bound_to 10713
  152.9788  135.5919  154.4049 H   0  0  0  0  0  0  0  0  0  0  0  0  # atno 10763 bound_to 10752
  154.3691  135.2767  155.2278 H   0  0  0  0  0  0  0  0  0  0  0  0  # atno 10764 bound_to 10752
  154.4242  135.6052  153.6083 H   0  0  0  0  0  0  0  0  0  0  0  0  # atno 10765 bound_to 10752
  141.0935  133.6628  156.4056 H   0  0  0  0  0  0  0  0  0  0  0  0  # atno 11005 bound_to 11000
  144.7891  140.5995  143.6554 LP  0  0  0  0  0  0  0  0  0  0  0  0  # atno 17320 bound_to 7965
  145.4849  139.1492  143.3741 LP  0  0  0  0  0  0  0  0  0  0  0  0  # atno 17321 bound_to 7965
  139.9551  143.6228  152.3018 LP  0  0  0  0  0  0  0  0  0  0  0  0  # atno 17342 bound_to 10162
  139.6760  144.7658  151.1695 LP  0  0  0  0  0  0  0  0  0  0  0  0  # atno 17343 bound_to 10162
  156.1985  130.3659  149.8818 LP  0  0  0  0  0  0  0  0  0  0  0  0  # atno 17370 bound_to 10713
  156.6728  130.8827  151.3565 LP  0  0  0  0  0  0  0  0  0  0  0  0  # atno 17371 bound_to 10713
  140.5195  134.6318  157.5313 LP  0  0  0  0  0  0  0  0  0  0  0  0  # atno 17394 bound_to 11000
  139.9767  134.7204  155.9937 LP  0  0  0  0  0  0  0  0  0  0  0  0  # atno 17395 bound_to 11000

$$$$
