AV-unprocessed.smi:723|AV-procd|sdf|3505|dock5
  -GOLD-   22720 0503D 1   1.00000     0.00000
 Structure written by MMmdl.
 42 44  0  0  0  0  0  0  0  0  1 V2000
  144.3868  136.6062  152.6429 C   0  0  0  0  0  0  0  0  0  0  0  0
  145.1862  137.7657  152.7940 O   0  0  0  0  0  0  0  0  0  0  0  0
  146.2121  137.8506  151.8180 C   0  0  0  0  0  0  0  0  0  0  0  0
  146.8092  139.2649  151.8068 C   0  0  0  0  0  0  0  0  0  0  0  0
  147.2293  139.6935  153.1283 N   0  0  0  0  0  0  0  0  0  0  0  0
  147.8560  140.8720  153.4816 C   0  0  0  0  0  0  0  0  0  0  0  0
  148.0479  140.8025  154.8286 C   0  0  0  0  0  0  0  0  0  0  0  0
  148.6724  141.8064  155.6103 N   0  0  0  0  0  0  0  0  0  0  0  0
  149.2825  141.6501  156.7964 C   0  0  0  0  0  0  0  0  0  0  0  0
  149.3598  140.5897  157.4173 O   0  0  0  0  0  0  0  0  0  0  0  0
  149.8085  142.8046  157.2273 N   0  0  0  0  0  0  0  0  0  0  0  0
  150.5425  142.9772  158.4388 C   0  0  2  0  0  0  0  0  0  0  0  0
  150.9270  144.3981  158.8255 C   0  0  1  0  0  0  0  0  0  0  0  0
  150.8928  144.8009  160.2930 C   0  0  0  0  0  0  0  0  0  0  0  0
  152.2033  144.4992  161.0379 C   0  0  0  0  0  0  0  0  0  0  0  0
  152.7154  143.0849  160.7368 C   0  0  0  0  0  0  0  0  0  0  0  0
  153.0715  142.9393  159.2488 C   0  0  0  0  0  0  0  0  0  0  0  0
  151.9753  143.4300  158.3158 C   0  0  1  0  0  0  0  0  0  0  0  0
  147.5050  139.5504  155.2340 C   0  0  0  0  0  0  0  0  0  0  0  0
  147.0138  138.8878  154.1976 N   0  0  0  0  0  0  0  0  0  0  0  0
  143.6176  136.5882  153.4149 H   0  0  0  0  0  0  0  0  0  0  0  0
  144.9846  135.6992  152.7426 H   0  0  0  0  0  0  0  0  0  0  0  0
  143.8897  136.5937  151.6721 H   0  0  0  0  0  0  0  0  0  0  0  0
  146.9958  137.1245  152.0390 H   0  0  0  0  0  0  0  0  0  0  0  0
  145.8113  137.6074  150.8325 H   0  0  0  0  0  0  0  0  0  0  0  0
  147.6629  139.3086  151.1288 H   0  0  0  0  0  0  0  0  0  0  0  0
  146.0746  139.9786  151.4322 H   0  0  0  0  0  0  0  0  0  0  0  0
  148.1069  141.6349  152.7594 H   0  0  0  0  0  0  0  0  0  0  0  0
  148.6786  142.7343  155.2130 H   0  0  0  0  0  0  0  0  0  0  0  0
  149.6918  143.6236  156.6487 H   0  0  0  0  0  0  0  0  0  0  0  0
  150.3192  142.2934  159.2565 H   0  0  0  0  0  0  0  0  0  0  0  0
  150.6172  145.1851  158.1399 H   0  0  0  0  0  0  0  0  0  0  0  0
  150.6658  145.8650  160.3647 H   0  0  0  0  0  0  0  0  0  0  0  0
  150.0654  144.2780  160.7740 H   0  0  0  0  0  0  0  0  0  0  0  0
  152.9633  145.2271  160.7509 H   0  0  0  0  0  0  0  0  0  0  0  0
  152.0512  144.6217  162.1106 H   0  0  0  0  0  0  0  0  0  0  0  0
  153.5944  142.8695  161.3448 H   0  0  0  0  0  0  0  0  0  0  0  0
  151.9608  142.3502  161.0195 H   0  0  0  0  0  0  0  0  0  0  0  0
  153.9730  143.5160  159.0393 H   0  0  0  0  0  0  0  0  0  0  0  0
  153.3037  141.9008  159.0124 H   0  0  0  0  0  0  0  0  0  0  0  0
  152.3259  143.5917  157.2978 H   0  0  0  0  0  0  0  0  0  0  0  0
  147.4493  139.1016  156.2145 H   0  0  0  0  0  0  0  0  0  0  0  0
  1  2  1  0  0  0  0
  1 21  1  0  0  0  0
  1 22  1  0  0  0  0
  1 23  1  0  0  0  0
  2  3  1  0  0  0  0
  3  4  1  0  0  0  0
  3 24  1  0  0  0  0
  3 25  1  0  0  0  0
  4  5  1  0  0  0  0
  4 26  1  0  0  0  0
  4 27  1  0  0  0  0
  5 20  1  0  0  0  0
  5  6  1  0  0  0  0
  6  7  2  0  0  0  0
  6 28  1  0  0  0  0
  7  8  1  0  0  0  0
  7 19  1  0  0  0  0
  8  9  1  0  0  0  0
  8 29  1  0  0  0  0
  9 10  2  0  0  0  0
  9 11  1  0  0  0  0
 11 12  1  0  0  0  0
 11 30  1  0  0  0  0
 12 18  1  0  0  0  0
 12 13  1  0  0  0  0
 12 31  1  0  0  0  0
 13 18  1  0  0  0  0
 13 14  1  0  0  0  0
 13 32  1  0  0  0  0
 14 15  1  0  0  0  0
 14 33  1  0  0  0  0
 14 34  1  0  0  0  0
 15 16  1  0  0  0  0
 15 35  1  0  0  0  0
 15 36  1  0  0  0  0
 16 17  1  0  0  0  0
 16 37  1  0  0  0  0
 16 38  1  0  0  0  0
 17 18  1  0  0  0  0
 17 39  1  0  0  0  0
 17 40  1  0  0  0  0
 18 41  1  0  0  0  0
 19 20  2  0  0  0  0
 19 42  1  0  0  0  0
M  END
> <s_m_source_file>
AV-unprocessed.smi

> <i_m_source_file_index>
723

> <i_lp_mmshare_version>
43012

> <i_f3d_flags>
0

> <s_epik_input>
W0NIM11PW0NIMl1bQ0gyXW4xW2NIXWMoW2NIXW4xKVtOSF1DKD1PKVtOSF1bQ0BIXTJbQ0BASF0oW0NAQEhdMjMpW0NIMl1bQ0gyXVtDSDJdW0NIMl0z

> <s_epik_cmdline>
J2VwaWtfcHl0aG9uJywgJy1waCcsICc3LjAnLCAnLXRuJywgJzgnLCAnLW1hJywgJzIwMCcsICctbWV0YWxfYmluZGluZycsICctaW1hZScsICc8aW5maWxlLm1hZT4nLCAnLW9tYWUnLCAnPG91dGZpbGUubWFlPic=

> <r_lp_tautomer_probability>
1

> <r_epik_Ionization_Penalty>
0.00031755

> <r_epik_Ionization_Penalty_Charging>
0

> <r_epik_Ionization_Penalty_Neutral>
0.00031755

> <r_epik_State_Penalty>
-0

> <r_epik_Charging_Adjusted_Penalty>
0

> <i_epik_Tot_Q>
0

> <i_epik_Tot_abs_Q>
0

> <r_epik_Metal_State_Penalty>
-0

> <b_epik_Metal_Only>
0

> <s_lp_Force_Field>
OPLS_2005

> <r_lp_Energy>
35.4859

> <b_lp_Chiralities_Consistent>
1

> <s_lp_Variant>
AV-unprocessed.smi:723-1

> <Gold.Version>
5.8.1

> <Gold.Id.Protein>
6NUR|6NUR_protein|mol2

> <Gold.PLP.Fitness>
44.6195

> <Gold.PLP.PLP>
-38.7387

> <Gold.PLP.part.hbond>
-2.0000

> <Gold.PLP.part.metal>
0.0000

> <Gold.PLP.part.buried>
0.1765

> <Gold.PLP.part.nonpolar>
-37.4428

> <Gold.PLP.part.repulsive>
0.8907

> <Gold.PLP.ligand.clash>
0.0000

> <Gold.PLP.ligand.torsion>
0.2160

> <Gold.PLP.Chemscore.Hbond>
1.8960

> <Gold.PLP.Chemscore.CHOScore>
0.1935

> <Gold.PLP.Chemscore.Metal>
0.0000

> <Gold.Chemscore.Hbonds>
donor molecule, donor type, donor heavy atom, donor atom, acceptor molecule, acceptor atom, score
      L1  H     8    29       P1  8028  0.89
      L1  H    11    30       P1  8028  1.00
      L1  C     6    28       P1  7957  0.20

> <Gold.PLP.Chemscore.Internal.Correction>
0.0443

> <Gold.Rescore>
     Score         DG    S(hbond)    S(metal)    S(lipo)     H(rot)  DE(clash)    DE(int)     intcor
     18.16     -21.38       1.91        0.00     115.57       1.56       0.36       2.86       ----

> <Gold.Chemscore.Fitness>
18.1554

> <Gold.Chemscore.DG>
-21.3813

> <Gold.Chemscore.ZeroCoef>
-5.4800

> <Gold.Chemscore.Hbond>
1.9100

> <Gold.Chemscore.Metal>
0.0000

> <Gold.Chemscore.Lipo>
115.5744

> <Gold.Chemscore.Internal_Hbond>
0.0000

> <Gold.Chemscore.DEClash>
0.3613

> <Gold.Chemscore.DEInternal>
2.8646

> <Gold.Chemscore.Rot>
1.5627

> <Gold.Chemscore.Internal.Correction>
   9.000000E+99

> <Gold.Chemscore.Hbonds>
donor molecule, donor type, donor heavy atom, donor atom, acceptor molecule, acceptor atom, score
      L1  H     8    29       P1  8028  0.81
      L1  H    11    30       P1  8028  0.99

> <Gold.Chemscore.Hbond.Weighted>
-6.3795

> <Gold.Chemscore.Metal.Weighted>
-0.0000

> <Gold.Chemscore.Lipo.Weighted>
-13.5222

> <Gold.Chemscore.Internal_Hbond.Weighted>
0.0000

> <Gold.Chemscore.DEClash.Weighted>
0.3613

> <Gold.Chemscore.DEInternal.Weighted>
2.8646

> <Gold.Chemscore.Rot.Weighted>
4.0005

> <Gold.Chemscore.Internal.Correction.Weighted>
   9.000000E+99

> <Gold.Protein.RotatedTorsions>
[ 6907 6896 6895 6894 ] final   92.23 input  -60.11 | X-H torsion
[ 7974 7965 7964 7962 ] final   -9.80 input  175.53 | X-H torsion
[ 8008 7997 7996 7995 ] final  -61.93 input   59.86 | X-H torsion
[ 10167 10162 10161 10158 ] final  -33.69 input  -65.29 | X-H torsion
[ 10718 10713 10712 10709 ] final  140.22 input   66.30 | X-H torsion
[ 10763 10752 10751 10750 ] final -125.11 input  -60.55 | X-H torsion
[ 11005 11000 10999 10996 ] final -131.55 input  -57.11 | X-H torsion

> <Gold.Protein.ActiveResidues>
 VAL166  LYS551  ARG553  GLY616  TRP617  ASP618  TYR619  PRO620  LYS621  CYS622 
 ASP623  PHE694  ASN695  SER759  ASP760  ASP761  ALA762  ILE779  LEU786  VAL792 
 PHE793  MET794  SER795  GLU796  ALA797  LYS798  CYS799  TRP800  GLU811  SER814 

> <Gold.Protein.RotatedAtoms>
  152.5452  134.1535  159.8527 H   0  0  0  0  0  0  0  0  0  0  0  0  # atno 6907 bound_to 6896
  151.1559  133.4869  159.2602 H   0  0  0  0  0  0  0  0  0  0  0  0  # atno 6908 bound_to 6896
  151.1423  135.0196  159.8686 H   0  0  0  0  0  0  0  0  0  0  0  0  # atno 6909 bound_to 6896
  146.2240  140.2670  142.8354 H   0  0  0  0  0  0  0  0  0  0  0  0  # atno 7974 bound_to 7965
  154.4473  140.1007  156.6508 H   0  0  0  0  0  0  0  0  0  0  0  0  # atno 8008 bound_to 7997
  155.5399  140.3483  155.4426 H   0  0  0  0  0  0  0  0  0  0  0  0  # atno 8009 bound_to 7997
  156.0604  140.1325  156.9937 H   0  0  0  0  0  0  0  0  0  0  0  0  # atno 8010 bound_to 7997
  140.7200  143.3602  151.1978 H   0  0  0  0  0  0  0  0  0  0  0  0  # atno 10167 bound_to 10162
  157.4056  131.1022  151.0507 H   0  0  0  0  0  0  0  0  0  0  0  0  # atno 10718 bound_to 10713
  154.8732  135.4041  154.3214 H   0  0  0  0  0  0  0  0  0  0  0  0  # atno 10763 bound_to 10752
  153.4042  135.7019  153.6410 H   0  0  0  0  0  0  0  0  0  0  0  0  # atno 10764 bound_to 10752
  153.5140  135.3701  155.2571 H   0  0  0  0  0  0  0  0  0  0  0  0  # atno 10765 bound_to 10752
  140.9248  134.1396  157.4284 H   0  0  0  0  0  0  0  0  0  0  0  0  # atno 11005 bound_to 11000
  144.9296  140.7960  143.5697 LP  0  0  0  0  0  0  0  0  0  0  0  0  # atno 17320 bound_to 7965
  145.2613  139.1991  143.4890 LP  0  0  0  0  0  0  0  0  0  0  0  0  # atno 17321 bound_to 7965
  139.7152  143.9312  152.2964 LP  0  0  0  0  0  0  0  0  0  0  0  0  # atno 17342 bound_to 10162
  139.9050  144.6890  150.8624 LP  0  0  0  0  0  0  0  0  0  0  0  0  # atno 17343 bound_to 10162
  157.1489  130.6175  149.5576 LP  0  0  0  0  0  0  0  0  0  0  0  0  # atno 17370 bound_to 10713
  155.9836  130.4856  150.6939 LP  0  0  0  0  0  0  0  0  0  0  0  0  # atno 17371 bound_to 10713
  139.8783  134.9984  156.5900 LP  0  0  0  0  0  0  0  0  0  0  0  0  # atno 17394 bound_to 11000
  140.7940  133.8559  155.8670 LP  0  0  0  0  0  0  0  0  0  0  0  0  # atno 17395 bound_to 11000

$$$$
