AV-unprocessed.smi:3029|AV-procd|sdf|11525|dock4
  -GOLD-   2272016463D 1   1.00000     0.00000
 Structure written by MMmdl.
 42 43  0  0  0  0  0  0  0  0  4 V2000
  150.7550  133.6090  157.1208 O   0  0  0  0  0  0  0  0  0  0  0  0
  150.7806  134.7031  156.5579 C   0  0  0  0  0  0  0  0  0  0  0  0
  151.8144  135.7029  156.8439 C   0  0  0  0  0  0  0  0  0  0  0  0
  151.8223  136.9068  156.2385 C   0  0  0  0  0  0  0  0  0  0  0  0
  150.7952  137.2517  155.2750 C   0  0  0  0  0  0  0  0  0  0  0  0
  150.7763  138.5506  154.6397 N   0  3  0  0  0  0  0  0  0  0  0  0
  151.7614  139.2758  154.7407 O   0  0  0  0  0  0  0  0  0  0  0  0
  149.7757  138.8850  154.0145 O   0  5  0  0  0  0  0  0  0  0  0  0
  149.8533  136.3267  155.0050 C   0  0  0  0  0  0  0  0  0  0  0  0
  149.8412  135.0656  155.6328 N   0  0  0  0  0  0  0  0  0  0  0  0
  148.7477  134.1464  155.2770 C   0  0  0  0  0  0  0  0  0  0  0  0
  148.7701  133.7502  153.7875 C   0  0  0  0  0  0  0  0  0  0  0  0
  147.5705  134.2390  153.0735 N   0  3  0  0  0  0  0  0  0  0  0  0
  146.5295  133.2240  152.7970 C   0  0  2  0  0  0  0  0  0  0  0  0
  147.1874  131.8398  152.6003 C   0  0  0  0  0  0  0  0  0  0  0  0
  146.1602  130.7567  152.2497 C   0  0  0  0  0  0  0  0  0  0  0  0
  145.3643  131.1506  151.0018 C   0  0  0  0  0  0  0  0  0  0  0  0
  144.6786  132.5084  151.2012 C   0  0  0  0  0  0  0  0  0  0  0  0
  145.6824  133.6308  151.5564 C   0  0  1  0  0  0  0  0  0  0  0  0
  144.9343  134.9766  151.7410 C   0  0  0  0  0  0  0  0  0  0  0  0
  144.3673  135.3585  150.5965 F   0  0  0  0  0  0  0  0  0  0  0  0
  143.9881  134.8828  152.6752 F   0  0  0  0  0  0  0  0  0  0  0  0
  145.7879  135.9225  152.1321 F   0  0  0  0  0  0  0  0  0  0  0  0
  152.5895  135.4667  157.5583 H   0  0  0  0  0  0  0  0  0  0  0  0
  152.6053  137.6103  156.4807 H   0  0  0  0  0  0  0  0  0  0  0  0
  149.0435  136.4902  154.3087 H   0  0  0  0  0  0  0  0  0  0  0  0
  148.7982  133.2454  155.8903 H   0  0  0  0  0  0  0  0  0  0  0  0
  147.7840  134.5960  155.5231 H   0  0  0  0  0  0  0  0  0  0  0  0
  149.6683  134.1490  153.3162 H   0  0  0  0  0  0  0  0  0  0  0  0
  148.8231  132.6644  153.6995 H   0  0  0  0  0  0  0  0  0  0  0  0
  147.1474  134.9430  153.6621 H   0  0  0  0  0  0  0  0  0  0  0  0
  145.8595  133.1741  153.6568 H   0  0  0  0  0  0  0  0  0  0  0  0
  147.9342  131.8964  151.8069 H   0  0  0  0  0  0  0  0  0  0  0  0
  147.7204  131.5376  153.5019 H   0  0  0  0  0  0  0  0  0  0  0  0
  146.6651  129.8043  152.0843 H   0  0  0  0  0  0  0  0  0  0  0  0
  145.4803  130.6065  153.0894 H   0  0  0  0  0  0  0  0  0  0  0  0
  146.0290  131.1961  150.1379 H   0  0  0  0  0  0  0  0  0  0  0  0
  144.6189  130.3864  150.7797 H   0  0  0  0  0  0  0  0  0  0  0  0
  144.1349  132.7642  150.2915 H   0  0  0  0  0  0  0  0  0  0  0  0
  143.9298  132.4202  151.9896 H   0  0  0  0  0  0  0  0  0  0  0  0
  146.3590  133.7427  150.7073 H   0  0  0  0  0  0  0  0  0  0  0  0
  147.8485  134.6759  152.2061 H   0  0  0  0  0  0  0  0  0  0  0  0
  1  2  2  0  0  0  0
  2 10  1  0  0  0  0
  2  3  1  0  0  0  0
  3  4  2  0  0  0  0
  3 24  1  0  0  0  0
  4  5  1  0  0  0  0
  4 25  1  0  0  0  0
  5  6  1  0  0  0  0
  5  9  2  0  0  0  0
  6  7  2  0  0  0  0
  6  8  1  0  0  0  0
  9 10  1  0  0  0  0
  9 26  1  0  0  0  0
 10 11  1  0  0  0  0
 11 12  1  0  0  0  0
 11 27  1  0  0  0  0
 11 28  1  0  0  0  0
 12 13  1  0  0  0  0
 12 29  1  0  0  0  0
 12 30  1  0  0  0  0
 13 14  1  0  0  0  0
 13 31  1  0  0  0  0
 13 42  1  0  0  0  0
 14 19  1  0  0  0  0
 14 15  1  0  0  0  0
 14 32  1  0  0  0  0
 15 16  1  0  0  0  0
 15 33  1  0  0  0  0
 15 34  1  0  0  0  0
 16 17  1  0  0  0  0
 16 35  1  0  0  0  0
 16 36  1  0  0  0  0
 17 18  1  0  0  0  0
 17 37  1  0  0  0  0
 17 38  1  0  0  0  0
 18 19  1  0  0  0  0
 18 39  1  0  0  0  0
 18 40  1  0  0  0  0
 19 20  1  0  0  0  0
 19 41  1  0  0  0  0
 20 21  1  0  0  0  0
 20 22  1  0  0  0  0
 20 23  1  0  0  0  0
M  CHG  1   6   1
M  CHG  1   8  -1
M  CHG  1  13   1
M  END
> <s_m_source_file>
AV-unprocessed.smi

> <i_m_source_file_index>
3029

> <i_lp_mmshare_version>
43012

> <i_f3d_flags>
0

> <s_epik_input>
Tz1jMVtjSF1bY0hdYyhbTitdKD1PKVtPLV0pW2NIXW4xW0NIMl1bQ0gyXVtOSF1bQ0BASF0yW0NIMl1bQ0gyXVtDSDJdW0NIMl1bQ0BIXTJDKEYpKEYpRg==

> <s_epik_cmdline>
J2VwaWtfcHl0aG9uJywgJy1waCcsICc3LjAnLCAnLXRuJywgJzgnLCAnLW1hJywgJzIwMCcsICctbWV0YWxfYmluZGluZycsICctaW1hZScsICc8aW5maWxlLm1hZT4nLCAnLW9tYWUnLCAnPG91dGZpbGUubWFlPic=

> <r_lp_tautomer_probability>
1

> <r_epik_Ionization_Penalty>
0.037386

> <r_epik_Ionization_Penalty_Charging>
0.037386

> <r_epik_Ionization_Penalty_Neutral>
0

> <r_epik_State_Penalty>
0.0312892

> <r_epik_Charging_Adjusted_Penalty>
0.0686752

> <i_epik_Tot_Q>
1

> <i_epik_Tot_abs_Q>
3

> <r_epik_Metal_State_Penalty>
0.0312892

> <b_epik_Metal_Only>
0

> <s_lp_Force_Field>
OPLS_2005

> <r_lp_Energy>
38.6527

> <b_lp_Chiralities_Consistent>
1

> <s_lp_Variant>
AV-unprocessed.smi:3029-1

> <Gold.Version>
5.8.1

> <Gold.Id.Protein>
6NUR|6NUR_protein|mol2

> <Gold.PLP.Fitness>
46.0087

> <Gold.PLP.PLP>
-36.0155

> <Gold.PLP.part.hbond>
-3.0000

> <Gold.PLP.part.metal>
0.0000

> <Gold.PLP.part.buried>
-3.9228

> <Gold.PLP.part.nonpolar>
-30.6198

> <Gold.PLP.part.repulsive>
1.1111

> <Gold.PLP.ligand.clash>
0.0000

> <Gold.PLP.ligand.torsion>
1.1258

> <Gold.PLP.Chemscore.Hbond>
3.0640

> <Gold.PLP.Chemscore.CHOScore>
1.0000

> <Gold.PLP.Chemscore.Metal>
0.0000

> <Gold.Chemscore.Hbonds>
donor molecule, donor type, donor heavy atom, donor atom, acceptor molecule, acceptor atom, score
      L1  H    13    42       P1  7948  1.31
      P1  H  6896  6908       L1     1  0.62
      P1  H  7989  7998       L1     7  1.00
      L1  C     9    26       P1  7948  0.99

> <Gold.PLP.Chemscore.Internal.Correction>
0.0528

> <Gold.Rescore>
     Score         DG    S(hbond)    S(metal)    S(lipo)     H(rot)  DE(clash)    DE(int)     intcor
     12.50     -15.70       2.05        0.00      70.47       1.90       0.64       2.56       ----

> <Gold.Chemscore.Fitness>
12.5010

> <Gold.Chemscore.DG>
-15.6993

> <Gold.Chemscore.ZeroCoef>
-5.4800

> <Gold.Chemscore.Hbond>
2.0504

> <Gold.Chemscore.Metal>
0.0000

> <Gold.Chemscore.Lipo>
70.4674

> <Gold.Chemscore.Internal_Hbond>
0.0000

> <Gold.Chemscore.DEClash>
0.6416

> <Gold.Chemscore.DEInternal>
2.5567

> <Gold.Chemscore.Rot>
1.9037

> <Gold.Chemscore.Internal.Correction>
   9.000000E+99

> <Gold.Chemscore.Hbonds>
donor molecule, donor type, donor heavy atom, donor atom, acceptor molecule, acceptor atom, score
      L1  H    13    42       P1  7948  0.35
      P1  H  6896  6908       L1     1  0.58
      P1  H  7989  7998       L1     7  0.76

> <Gold.Chemscore.Hbond.Weighted>
-6.8482

> <Gold.Chemscore.Metal.Weighted>
-0.0000

> <Gold.Chemscore.Lipo.Weighted>
-8.2447

> <Gold.Chemscore.Internal_Hbond.Weighted>
0.0000

> <Gold.Chemscore.DEClash.Weighted>
0.6416

> <Gold.Chemscore.DEInternal.Weighted>
2.5567

> <Gold.Chemscore.Rot.Weighted>
4.8736

> <Gold.Chemscore.Internal.Correction.Weighted>
   9.000000E+99

> <Gold.Protein.RotatedTorsions>
[ 6907 6896 6895 6894 ] final  107.60 input  -60.11 | X-H torsion
[ 7974 7965 7964 7962 ] final  110.61 input  175.53 | X-H torsion
[ 8008 7997 7996 7995 ] final  174.71 input   59.86 | X-H torsion
[ 10167 10162 10161 10158 ] final -125.46 input  -65.29 | X-H torsion
[ 10718 10713 10712 10709 ] final  104.46 input   66.30 | X-H torsion
[ 10763 10752 10751 10750 ] final   -5.37 input  -60.55 | X-H torsion
[ 11005 11000 10999 10996 ] final -166.86 input  -57.11 | X-H torsion

> <Gold.Protein.ActiveResidues>
 VAL166  LYS551  ARG553  GLY616  TRP617  ASP618  TYR619  PRO620  LYS621  CYS622 
 ASP623  PHE694  ASN695  SER759  ASP760  ASP761  ALA762  ILE779  LEU786  VAL792 
 PHE793  MET794  SER795  GLU796  ALA797  LYS798  CYS799  TRP800  GLU811  SER814 

> <Gold.Protein.RotatedAtoms>
  152.5147  133.9210  159.7534 H   0  0  0  0  0  0  0  0  0  0  0  0  # atno 6907 bound_to 6896
  150.9582  133.6466  159.2766 H   0  0  0  0  0  0  0  0  0  0  0  0  # atno 6908 bound_to 6896
  151.3720  135.0929  159.9521 H   0  0  0  0  0  0  0  0  0  0  0  0  # atno 6909 bound_to 6896
  145.2528  139.2733  143.4058 H   0  0  0  0  0  0  0  0  0  0  0  0  # atno 7974 bound_to 7965
  156.0946  140.1427  156.9548 H   0  0  0  0  0  0  0  0  0  0  0  0  # atno 8008 bound_to 7997
  154.4663  140.0925  156.7075 H   0  0  0  0  0  0  0  0  0  0  0  0  # atno 8009 bound_to 7997
  155.4863  140.3446  155.4350 H   0  0  0  0  0  0  0  0  0  0  0  0  # atno 8010 bound_to 7997
  139.9819  143.5733  152.2375 H   0  0  0  0  0  0  0  0  0  0  0  0  # atno 10167 bound_to 10162
  157.6739  131.0804  150.5710 H   0  0  0  0  0  0  0  0  0  0  0  0  # atno 10718 bound_to 10713
  153.3976  135.7004  153.6449 H   0  0  0  0  0  0  0  0  0  0  0  0  # atno 10763 bound_to 10752
  153.4996  135.3655  155.2533 H   0  0  0  0  0  0  0  0  0  0  0  0  # atno 10764 bound_to 10752
  154.8708  135.4108  154.3304 H   0  0  0  0  0  0  0  0  0  0  0  0  # atno 10765 bound_to 10752
  140.5597  134.5345  157.5140 H   0  0  0  0  0  0  0  0  0  0  0  0  # atno 11005 bound_to 11000
  146.3298  140.2923  142.8616 LP  0  0  0  0  0  0  0  0  0  0  0  0  # atno 17320 bound_to 7965
  144.9488  140.8156  143.5585 LP  0  0  0  0  0  0  0  0  0  0  0  0  # atno 17321 bound_to 7965
  139.6403  144.7654  151.2352 LP  0  0  0  0  0  0  0  0  0  0  0  0  # atno 17342 bound_to 10162
  140.7486  143.6328  150.8407 LP  0  0  0  0  0  0  0  0  0  0  0  0  # atno 17343 bound_to 10162
  156.6011  130.4355  149.5896 LP  0  0  0  0  0  0  0  0  0  0  0  0  # atno 17370 bound_to 10713
  156.2505  130.6904  151.1640 LP  0  0  0  0  0  0  0  0  0  0  0  0  # atno 17371 bound_to 10713
  139.9414  134.7781  156.0670 LP  0  0  0  0  0  0  0  0  0  0  0  0  # atno 17394 bound_to 11000
  141.1122  133.6639  156.3006 LP  0  0  0  0  0  0  0  0  0  0  0  0  # atno 17395 bound_to 11000

$$$$
