AV-unprocessed.smi:200|AV-procd|sdf|1578|dock3
  -GOLD-   2262019463D 1   1.00000     0.00000
 Structure written by MMmdl.
 56 59  0  0  0  0  0  0  0  0  1 V2000
  150.1728  137.6789  154.7881 C   0  0  0  0  0  0  0  0  0  0  0  0
  150.6284  138.9525  154.3598 O   0  0  0  0  0  0  0  0  0  0  0  0
  151.2770  139.7144  155.3699 C   0  0  0  0  0  0  0  0  0  0  0  0
  150.2772  140.3474  156.3611 C   0  0  0  0  0  0  0  0  0  0  0  0
  150.7312  140.3121  157.7529 N   0  0  0  0  0  0  0  0  0  0  0  0
  150.9419  139.0766  158.2691 C   0  0  0  0  0  0  0  0  0  0  0  0
  152.2060  138.5906  158.3825 N   0  0  0  0  0  0  0  0  0  0  0  0
  152.4098  137.3756  158.9000 C   0  0  0  0  0  0  0  0  0  0  0  0
  151.5105  136.5012  159.3570 N   0  0  0  0  0  0  0  0  0  0  0  0
  150.2406  136.9846  159.2385 C   0  0  0  0  0  0  0  0  0  0  0  0
  149.8713  138.2474  158.6978 C   0  0  0  0  0  0  0  0  0  0  0  0
  148.4903  138.3891  158.7129 N   0  0  0  0  0  0  0  0  0  0  0  0
  148.0657  137.2719  159.2367 C   0  0  0  0  0  0  0  0  0  0  0  0
  149.0498  136.3808  159.6061 N   0  0  0  0  0  0  0  0  0  0  0  0
  148.8564  135.0742  160.2188 C   0  0  0  0  0  0  0  0  0  0  0  0
  148.1975  135.1128  161.6165 C   0  0  0  0  0  0  0  0  0  0  0  0
  148.0675  133.6963  162.2017 C   0  0  0  0  0  0  0  0  0  0  0  0
  147.4491  133.7153  163.4722 O   0  0  0  0  0  0  0  0  0  0  0  0
  148.7748  136.1658  162.5722 C   0  0  0  0  0  0  0  0  0  0  0  0
  147.6038  137.0027  162.4718 O   0  0  0  0  0  0  0  0  0  0  0  0
  146.9272  135.9688  161.7269 C   0  0  0  0  0  0  0  0  0  0  0  0
  151.6858  141.3576  158.1457 C   0  0  2  0  0  0  0  0  0  0  0  0
  152.1606  141.3021  159.6064 C   0  0  0  0  0  0  0  0  0  0  0  0
  152.6275  142.7283  159.9437 C   0  0  0  0  0  0  0  0  0  0  0  0
  152.2926  143.6033  158.7225 C   0  0  2  0  0  0  0  0  0  0  0  0
  151.8587  145.0313  159.0792 C   0  0  0  0  0  0  0  0  0  0  0  0
  151.2313  142.8109  157.9565 C   0  0  0  0  0  0  0  0  0  0  0  0
  149.6305  137.1981  153.9742 H   0  0  0  0  0  0  0  0  0  0  0  0
  149.4932  137.7648  155.6367 H   0  0  0  0  0  0  0  0  0  0  0  0
  150.9993  137.0241  155.0631 H   0  0  0  0  0  0  0  0  0  0  0  0
  151.9674  139.0558  155.8970 H   0  0  0  0  0  0  0  0  0  0  0  0
  151.8962  140.4877  154.9133 H   0  0  0  0  0  0  0  0  0  0  0  0
  150.0889  141.3823  156.0727 H   0  0  0  0  0  0  0  0  0  0  0  0
  149.3134  139.8438  156.2888 H   0  0  0  0  0  0  0  0  0  0  0  0
  153.4408  137.0595  158.9590 H   0  0  0  0  0  0  0  0  0  0  0  0
  147.0142  137.0703  159.3805 H   0  0  0  0  0  0  0  0  0  0  0  0
  148.2681  134.4639  159.5326 H   0  0  0  0  0  0  0  0  0  0  0  0
  149.8299  134.5852  160.2740 H   0  0  0  0  0  0  0  0  0  0  0  0
  147.4611  133.0668  161.5497 H   0  0  0  0  0  0  0  0  0  0  0  0
  149.0346  133.2004  162.2766 H   0  0  0  0  0  0  0  0  0  0  0  0
  147.8600  133.0606  164.0162 H   0  0  0  0  0  0  0  0  0  0  0  0
  148.9293  135.8054  163.5904 H   0  0  0  0  0  0  0  0  0  0  0  0
  149.6716  136.6605  162.1972 H   0  0  0  0  0  0  0  0  0  0  0  0
  146.5426  136.3356  160.7768 H   0  0  0  0  0  0  0  0  0  0  0  0
  146.1298  135.5059  162.3097 H   0  0  0  0  0  0  0  0  0  0  0  0
  152.5647  141.2244  157.5131 H   0  0  0  0  0  0  0  0  0  0  0  0
  151.3466  141.0303  160.2780 H   0  0  0  0  0  0  0  0  0  0  0  0
  152.9535  140.5665  159.7442 H   0  0  0  0  0  0  0  0  0  0  0  0
  152.1045  143.0813  160.8335 H   0  0  0  0  0  0  0  0  0  0  0  0
  153.6950  142.7605  160.1645 H   0  0  0  0  0  0  0  0  0  0  0  0
  153.1836  143.6581  158.0947 H   0  0  0  0  0  0  0  0  0  0  0  0
  150.9685  145.0306  159.7090 H   0  0  0  0  0  0  0  0  0  0  0  0
  151.6300  145.6047  158.1806 H   0  0  0  0  0  0  0  0  0  0  0  0
  152.6477  145.5572  159.6172 H   0  0  0  0  0  0  0  0  0  0  0  0
  151.1694  143.0978  156.9064 H   0  0  0  0  0  0  0  0  0  0  0  0
  150.2575  142.9890  158.4140 H   0  0  0  0  0  0  0  0  0  0  0  0
  1  2  1  0  0  0  0
  1 28  1  0  0  0  0
  1 29  1  0  0  0  0
  1 30  1  0  0  0  0
  2  3  1  0  0  0  0
  3  4  1  0  0  0  0
  3 31  1  0  0  0  0
  3 32  1  0  0  0  0
  4  5  1  0  0  0  0
  4 33  1  0  0  0  0
  4 34  1  0  0  0  0
  5  6  1  0  0  0  0
  5 22  1  0  0  0  0
  6 11  1  0  0  0  0
  6  7  2  0  0  0  0
  7  8  1  0  0  0  0
  8  9  2  0  0  0  0
  8 35  1  0  0  0  0
  9 10  1  0  0  0  0
 10 14  1  0  0  0  0
 10 11  2  0  0  0  0
 11 12  1  0  0  0  0
 12 13  2  0  0  0  0
 13 14  1  0  0  0  0
 13 36  1  0  0  0  0
 14 15  1  0  0  0  0
 15 16  1  0  0  0  0
 15 37  1  0  0  0  0
 15 38  1  0  0  0  0
 16 21  1  0  0  0  0
 16 17  1  0  0  0  0
 16 19  1  0  0  0  0
 17 18  1  0  0  0  0
 17 39  1  0  0  0  0
 17 40  1  0  0  0  0
 18 41  1  0  0  0  0
 19 20  1  0  0  0  0
 19 42  1  0  0  0  0
 19 43  1  0  0  0  0
 20 21  1  0  0  0  0
 21 44  1  0  0  0  0
 21 45  1  0  0  0  0
 22 27  1  0  0  0  0
 22 23  1  0  0  0  0
 22 46  1  0  0  0  0
 23 24  1  0  0  0  0
 23 47  1  0  0  0  0
 23 48  1  0  0  0  0
 24 25  1  0  0  0  0
 24 49  1  0  0  0  0
 24 50  1  0  0  0  0
 25 26  1  0  0  0  0
 25 27  1  0  0  0  0
 25 51  1  0  0  0  0
 26 52  1  0  0  0  0
 26 53  1  0  0  0  0
 26 54  1  0  0  0  0
 27 55  1  0  0  0  0
 27 56  1  0  0  0  0
M  END
> <s_m_source_file>
AV-unprocessed.smi

> <i_m_source_file_index>
200

> <i_lp_mmshare_version>
43012

> <i_f3d_flags>
0

> <s_epik_input>
W0NIM11bQ0BASF0oW0NIMl0xKVtDSDJdW0NIMl1bQ0BIXTFOKFtDSDJdW0NIMl1PW0NIM10pYyhuW2NIXW4yKWMoYzIzKW5bY0hdbjNbQ0gyXUM0KFtDSDJdW09IXSlbQ0gyXU9bQ0gyXTQ=

> <s_epik_cmdline>
J2VwaWtfcHl0aG9uJywgJy1waCcsICc3LjAnLCAnLXRuJywgJzgnLCAnLW1hJywgJzIwMCcsICctbWV0YWxfYmluZGluZycsICctaW1hZScsICc8aW5maWxlLm1hZT4nLCAnLW9tYWUnLCAnPG91dGZpbGUubWFlPic=

> <r_lp_tautomer_probability>
1

> <r_epik_Ionization_Penalty>
0.00363087

> <r_epik_Ionization_Penalty_Charging>
0

> <r_epik_Ionization_Penalty_Neutral>
0.00363087

> <r_epik_State_Penalty>
0.0024341

> <r_epik_Charging_Adjusted_Penalty>
0.0024341

> <i_epik_Tot_Q>
0

> <i_epik_Tot_abs_Q>
0

> <r_epik_Metal_State_Penalty>
-0

> <b_epik_Metal_Only>
0

> <s_lp_Force_Field>
OPLS_2005

> <r_lp_Energy>
51.1688

> <b_lp_Chiralities_Consistent>
1

> <s_lp_Variant>
AV-unprocessed.smi:200-3

> <Gold.Version>
5.8.1

> <Gold.Id.Protein>
6NUR|6NUR_protein|mol2

> <Gold.PLP.Fitness>
55.3290

> <Gold.PLP.PLP>
-51.2886

> <Gold.PLP.part.hbond>
-5.7251

> <Gold.PLP.part.metal>
0.0000

> <Gold.PLP.part.buried>
-3.5561

> <Gold.PLP.part.nonpolar>
-42.7033

> <Gold.PLP.part.repulsive>
0.1770

> <Gold.PLP.ligand.clash>
0.0000

> <Gold.PLP.ligand.torsion>
1.3505

> <Gold.PLP.Chemscore.Hbond>
1.7680

> <Gold.PLP.Chemscore.CHOScore>
0.0000

> <Gold.PLP.Chemscore.Metal>
0.0000

> <Gold.Chemscore.Hbonds>
donor molecule, donor type, donor heavy atom, donor atom, acceptor molecule, acceptor atom, score
      P1  H  6896  6908       L1     9  0.59

> <Gold.PLP.Chemscore.Internal.Correction>
1.4373

> <Gold.Rescore>
     Score         DG    S(hbond)    S(metal)    S(lipo)     H(rot)  DE(clash)    DE(int)     intcor
     12.86     -16.51       1.79        0.00     114.91       3.28       0.56       3.09       ----

> <Gold.Chemscore.Fitness>
12.8628

> <Gold.Chemscore.DG>
-16.5116

> <Gold.Chemscore.ZeroCoef>
-5.4800

> <Gold.Chemscore.Hbond>
1.7885

> <Gold.Chemscore.Metal>
0.0000

> <Gold.Chemscore.Lipo>
114.9127

> <Gold.Chemscore.Internal_Hbond>
0.0000

> <Gold.Chemscore.DEClash>
0.5561

> <Gold.Chemscore.DEInternal>
3.0927

> <Gold.Chemscore.Rot>
3.2761

> <Gold.Chemscore.Internal.Correction>
   9.000000E+99

> <Gold.Chemscore.Hbonds>
donor molecule, donor type, donor heavy atom, donor atom, acceptor molecule, acceptor atom, score
      P1  H  6896  6908       L1     9  0.08

> <Gold.Chemscore.Hbond.Weighted>
-5.9736

> <Gold.Chemscore.Metal.Weighted>
-0.0000

> <Gold.Chemscore.Lipo.Weighted>
-13.4448

> <Gold.Chemscore.Internal_Hbond.Weighted>
0.0000

> <Gold.Chemscore.DEClash.Weighted>
0.5561

> <Gold.Chemscore.DEInternal.Weighted>
3.0927

> <Gold.Chemscore.Rot.Weighted>
8.3868

> <Gold.Chemscore.Internal.Correction.Weighted>
   9.000000E+99

> <Gold.Protein.RotatedTorsions>
[ 6907 6896 6895 6894 ] final -152.56 input  -60.11 | X-H torsion
[ 7974 7965 7964 7962 ] final  -78.54 input  175.53 | X-H torsion
[ 8008 7997 7996 7995 ] final  -62.86 input   59.86 | X-H torsion
[ 10167 10162 10161 10158 ] final   10.71 input  -65.29 | X-H torsion
[ 10718 10713 10712 10709 ] final    3.96 input   66.30 | X-H torsion
[ 10763 10752 10751 10750 ] final   38.58 input  -60.55 | X-H torsion
[ 11005 11000 10999 10996 ] final  132.99 input  -57.11 | X-H torsion

> <Gold.Protein.ActiveResidues>
 VAL166  LYS551  ARG553  GLY616  TRP617  ASP618  TYR619  PRO620  LYS621  CYS622 
 ASP623  PHE694  ASN695  SER759  ASP760  ASP761  ALA762  ILE779  LEU786  VAL792 
 PHE793  MET794  SER795  GLU796  ALA797  LYS798  CYS799  TRP800  GLU811  SER814 

> <Gold.Protein.RotatedAtoms>
  151.2296  133.4457  159.2603 H   0  0  0  0  0  0  0  0  0  0  0  0  # atno 6907 bound_to 6896
  151.0807  134.9856  159.8364 H   0  0  0  0  0  0  0  0  0  0  0  0  # atno 6908 bound_to 6896
  152.5424  134.2236  159.8850 H   0  0  0  0  0  0  0  0  0  0  0  0  # atno 6909 bound_to 6896
  145.5850  140.9441  143.1323 H   0  0  0  0  0  0  0  0  0  0  0  0  # atno 7974 bound_to 7965
  154.4522  140.0987  156.6652 H   0  0  0  0  0  0  0  0  0  0  0  0  # atno 8008 bound_to 7997
  155.5249  140.3480  155.4396 H   0  0  0  0  0  0  0  0  0  0  0  0  # atno 8009 bound_to 7997
  156.0705  140.1348  156.9823 H   0  0  0  0  0  0  0  0  0  0  0  0  # atno 8010 bound_to 7997
  140.6177  143.8272  150.7138 H   0  0  0  0  0  0  0  0  0  0  0  0  # atno 10167 bound_to 10162
  156.8856  130.5669  149.5651 H   0  0  0  0  0  0  0  0  0  0  0  0  # atno 10718 bound_to 10713
  152.9996  135.6245  154.2327 H   0  0  0  0  0  0  0  0  0  0  0  0  # atno 10763 bound_to 10752
  154.2069  135.2801  155.2973 H   0  0  0  0  0  0  0  0  0  0  0  0  # atno 10764 bound_to 10752
  154.5638  135.5697  153.7091 H   0  0  0  0  0  0  0  0  0  0  0  0  # atno 10765 bound_to 10752
  139.9824  134.9544  156.9661 H   0  0  0  0  0  0  0  0  0  0  0  0  # atno 11005 bound_to 11000
  144.7376  139.7539  143.7323 LP  0  0  0  0  0  0  0  0  0  0  0  0  # atno 17320 bound_to 7965
  146.1688  139.4830  142.9941 LP  0  0  0  0  0  0  0  0  0  0  0  0  # atno 17321 bound_to 7965
  140.1855  143.4079  152.1901 LP  0  0  0  0  0  0  0  0  0  0  0  0  # atno 17342 bound_to 10162
  139.5412  144.7258  151.4727 LP  0  0  0  0  0  0  0  0  0  0  0  0  # atno 17343 bound_to 10162
  156.0655  130.5699  150.9280 LP  0  0  0  0  0  0  0  0  0  0  0  0  # atno 17370 bound_to 10713
  157.6114  131.0936  150.8787 LP  0  0  0  0  0  0  0  0  0  0  0  0  # atno 17371 bound_to 10713
  140.5070  134.1040  155.7262 LP  0  0  0  0  0  0  0  0  0  0  0  0  # atno 17394 bound_to 11000
  141.1494  133.8996  157.2135 LP  0  0  0  0  0  0  0  0  0  0  0  0  # atno 17395 bound_to 11000

$$$$
