AV-unprocessed.smi:2784|AV-procd|sdf|10743|dock8
  -GOLD-   2272015183D 1   1.00000     0.00000
 Structure written by MMmdl.
 30 31  0  0  0  0  0  0  0  0  2 V2000
  149.8530  144.8633  160.2505 C   0  0  0  0  0  0  0  0  0  0  0  0
  150.5655  143.7226  159.8010 O   0  0  0  0  0  0  0  0  0  0  0  0
  151.9814  143.8643  159.8747 C   0  0  1  0  0  0  0  0  0  0  0  0
  152.3773  144.0959  161.3368 C   0  0  0  0  0  0  0  0  0  0  0  0
  152.3947  142.6955  161.9432 C   0  0  0  0  0  0  0  0  0  0  0  0
  152.9343  141.7940  160.8294 C   0  0  0  0  0  0  0  0  0  0  0  0
  152.6711  142.5318  159.5017 C   0  0  1  0  0  0  0  0  0  0  0  0
  151.8814  141.7106  158.5851 N   0  0  0  0  0  0  0  0  0  0  0  0
  152.2386  140.5108  158.1049 C   0  0  0  0  0  0  0  0  0  0  0  0
  153.3166  140.0124  158.4375 O   0  0  0  0  0  0  0  0  0  0  0  0
  151.3281  139.9662  157.2666 N   0  5  0  0  0  0  0  0  0  0  0  0
  151.7388  139.2516  156.2066 C   0  0  0  0  0  0  0  0  0  0  0  0
  150.9672  138.5279  155.3936 N   0  0  0  0  0  0  0  0  0  0  0  0
  151.8212  137.9806  154.4486 C   0  0  0  0  0  0  0  0  0  0  0  0
  153.0894  138.4091  154.7307 C   0  0  0  0  0  0  0  0  0  0  0  0
  153.0500  139.2140  155.8354 O   0  0  0  0  0  0  0  0  0  0  0  0
  148.7820  144.6747  160.1796 H   0  0  0  0  0  0  0  0  0  0  0  0
  150.0798  145.7337  159.6334 H   0  0  0  0  0  0  0  0  0  0  0  0
  150.0844  145.1008  161.2888 H   0  0  0  0  0  0  0  0  0  0  0  0
  152.3252  144.6679  159.2206 H   0  0  0  0  0  0  0  0  0  0  0  0
  153.3805  144.5223  161.3793 H   0  0  0  0  0  0  0  0  0  0  0  0
  151.7097  144.7741  161.8679 H   0  0  0  0  0  0  0  0  0  0  0  0
  152.9912  142.6397  162.8539 H   0  0  0  0  0  0  0  0  0  0  0  0
  151.3763  142.3960  162.1945 H   0  0  0  0  0  0  0  0  0  0  0  0
  154.0073  141.6465  160.9575 H   0  0  0  0  0  0  0  0  0  0  0  0
  152.4706  140.8071  160.8672 H   0  0  0  0  0  0  0  0  0  0  0  0
  153.6376  142.7475  159.0422 H   0  0  0  0  0  0  0  0  0  0  0  0
  150.9952  142.0869  158.2824 H   0  0  0  0  0  0  0  0  0  0  0  0
  151.4622  137.3386  153.6582 H   0  0  0  0  0  0  0  0  0  0  0  0
  154.0568  138.2475  154.2795 H   0  0  0  0  0  0  0  0  0  0  0  0
  1  2  1  0  0  0  0
  1 17  1  0  0  0  0
  1 18  1  0  0  0  0
  1 19  1  0  0  0  0
  2  3  1  0  0  0  0
  3  7  1  0  0  0  0
  3  4  1  0  0  0  0
  3 20  1  0  0  0  0
  4  5  1  0  0  0  0
  4 21  1  0  0  0  0
  4 22  1  0  0  0  0
  5  6  1  0  0  0  0
  5 23  1  0  0  0  0
  5 24  1  0  0  0  0
  6  7  1  0  0  0  0
  6 25  1  0  0  0  0
  6 26  1  0  0  0  0
  7  8  1  0  0  0  0
  7 27  1  0  0  0  0
  8 28  1  0  0  0  0
  8  9  1  0  0  0  0
  9 11  1  0  0  0  0
  9 10  2  0  0  0  0
 11 12  1  0  0  0  0
 12 16  1  0  0  0  0
 12 13  2  0  0  0  0
 13 14  1  0  0  0  0
 14 29  1  0  0  0  0
 14 15  2  0  0  0  0
 15 30  1  0  0  0  0
 15 16  1  0  0  0  0
M  CHG  1  11  -1
M  END
> <s_m_source_file>
AV-unprocessed.smi

> <i_m_source_file_index>
2784

> <i_lp_mmshare_version>
43012

> <i_f3d_flags>
0

> <s_epik_input>
W0NIM11PW0NAQEhdMVtDSDJdW0NIMl1bQ0gyXVtDQEhdMVtOSF1DKD1PKVtOSF1jMm5bY0hdW2NIXW8y

> <s_epik_cmdline>
J2VwaWtfcHl0aG9uJywgJy1waCcsICc3LjAnLCAnLXRuJywgJzgnLCAnLW1hJywgJzIwMCcsICctbWV0YWxfYmluZGluZycsICctaW1hZScsICc8aW5maWxlLm1hZT4nLCAnLW9tYWUnLCAnPG91dGZpbGUubWFlPic=

> <r_lp_tautomer_probability>
0.107061

> <r_epik_Ionization_Penalty>
10.8857

> <r_epik_Ionization_Penalty_Charging>
7.67908

> <r_epik_Ionization_Penalty_Neutral>
3.20665

> <r_epik_State_Penalty>
5.80296

> <r_epik_Charging_Adjusted_Penalty>
13.482

> <i_epik_Tot_Q>
-1

> <i_epik_Tot_abs_Q>
1

> <r_epik_Metal_State_Penalty>
1.73217

> <b_epik_Metal_Only>
1

> <s_lp_Force_Field>
OPLS_2005

> <r_lp_Energy>
16.6072

> <b_lp_Chiralities_Consistent>
1

> <s_lp_Variant>
AV-unprocessed.smi:2784-18

> <Gold.Version>
5.8.1

> <Gold.Id.Protein>
6NUR|6NUR_protein|mol2

> <Gold.PLP.Fitness>
41.2635

> <Gold.PLP.PLP>
-35.8284

> <Gold.PLP.part.hbond>
-2.6960

> <Gold.PLP.part.metal>
0.0000

> <Gold.PLP.part.buried>
-5.5516

> <Gold.PLP.part.nonpolar>
-27.7104

> <Gold.PLP.part.repulsive>
0.2450

> <Gold.PLP.ligand.clash>
0.0000

> <Gold.PLP.ligand.torsion>
0.2895

> <Gold.PLP.Chemscore.Hbond>
1.0000

> <Gold.PLP.Chemscore.CHOScore>
1.0000

> <Gold.PLP.Chemscore.Metal>
0.0000

> <Gold.Chemscore.Hbonds>
donor molecule, donor type, donor heavy atom, donor atom, acceptor molecule, acceptor atom, score
      P1  H  7997  8008       L1    10  1.00
      L1  C    14    29       P1  7949  0.90

> <Gold.PLP.Chemscore.Internal.Correction>
0.0140

> <Gold.Rescore>
     Score         DG    S(hbond)    S(metal)    S(lipo)     H(rot)  DE(clash)    DE(int)     intcor
     13.18     -15.02       0.98        0.00      82.22       1.31       0.06       1.78       ----

> <Gold.Chemscore.Fitness>
13.1812

> <Gold.Chemscore.DG>
-15.0197

> <Gold.Chemscore.ZeroCoef>
-5.4800

> <Gold.Chemscore.Hbond>
0.9807

> <Gold.Chemscore.Metal>
0.0000

> <Gold.Chemscore.Lipo>
82.2158

> <Gold.Chemscore.Internal_Hbond>
0.0000

> <Gold.Chemscore.DEClash>
0.0589

> <Gold.Chemscore.DEInternal>
1.7796

> <Gold.Chemscore.Rot>
1.3106

> <Gold.Chemscore.Internal.Correction>
   9.000000E+99

> <Gold.Chemscore.Hbonds>
donor molecule, donor type, donor heavy atom, donor atom, acceptor molecule, acceptor atom, score
      P1  H  7997  8008       L1    10  0.70

> <Gold.Chemscore.Hbond.Weighted>
-3.2755

> <Gold.Chemscore.Metal.Weighted>
-0.0000

> <Gold.Chemscore.Lipo.Weighted>
-9.6192

> <Gold.Chemscore.Internal_Hbond.Weighted>
0.0000

> <Gold.Chemscore.DEClash.Weighted>
0.0589

> <Gold.Chemscore.DEInternal.Weighted>
1.7796

> <Gold.Chemscore.Rot.Weighted>
3.3550

> <Gold.Chemscore.Internal.Correction.Weighted>
   9.000000E+99

> <Gold.Protein.RotatedTorsions>
[ 6907 6896 6895 6894 ] final  -35.80 input  -60.11 | X-H torsion
[ 7974 7965 7964 7962 ] final   79.26 input  175.53 | X-H torsion
[ 8008 7997 7996 7995 ] final  -80.22 input   59.86 | X-H torsion
[ 10167 10162 10161 10158 ] final  113.08 input  -65.29 | X-H torsion
[ 10718 10713 10712 10709 ] final  117.65 input   66.30 | X-H torsion
[ 10763 10752 10751 10750 ] final  118.44 input  -60.55 | X-H torsion
[ 11005 11000 10999 10996 ] final -137.87 input  -57.11 | X-H torsion

> <Gold.Protein.ActiveResidues>
 VAL166  LYS551  ARG553  GLY616  TRP617  ASP618  TYR619  PRO620  LYS621  CYS622 
 ASP623  PHE694  ASN695  SER759  ASP760  ASP761  ALA762  ILE779  LEU786  VAL792 
 PHE793  MET794  SER795  GLU796  ALA797  LYS798  CYS799  TRP800  GLU811  SER814 

> <Gold.Protein.RotatedAtoms>
  151.0352  134.9568  159.8131 H   0  0  0  0  0  0  0  0  0  0  0  0  # atno 6907 bound_to 6896
  152.5353  134.2729  159.8988 H   0  0  0  0  0  0  0  0  0  0  0  0  # atno 6908 bound_to 6896
  151.2739  133.4199  159.2657 H   0  0  0  0  0  0  0  0  0  0  0  0  # atno 6909 bound_to 6896
  145.6665  139.2485  143.1893 H   0  0  0  0  0  0  0  0  0  0  0  0  # atno 7974 bound_to 7965
  154.5861  140.0666  156.9173 H   0  0  0  0  0  0  0  0  0  0  0  0  # atno 8008 bound_to 7997
  155.2376  140.3342  155.4277 H   0  0  0  0  0  0  0  0  0  0  0  0  # atno 8009 bound_to 7997
  156.2224  140.1804  156.7430 H   0  0  0  0  0  0  0  0  0  0  0  0  # atno 8010 bound_to 7997
  139.6488  144.7127  151.2089 H   0  0  0  0  0  0  0  0  0  0  0  0  # atno 10167 bound_to 10162
  157.6082  131.1039  150.7645 H   0  0  0  0  0  0  0  0  0  0  0  0  # atno 10718 bound_to 10713
  153.5677  135.3508  155.2825 H   0  0  0  0  0  0  0  0  0  0  0  0  # atno 10763 bound_to 10752
  154.8686  135.4152  154.2760 H   0  0  0  0  0  0  0  0  0  0  0  0  # atno 10764 bound_to 10752
  153.3519  135.7055  153.6851 H   0  0  0  0  0  0  0  0  0  0  0  0  # atno 10765 bound_to 10752
  140.8670  134.2098  157.4674 H   0  0  0  0  0  0  0  0  0  0  0  0  # atno 11005 bound_to 11000
  146.1081  140.7462  142.9516 LP  0  0  0  0  0  0  0  0  0  0  0  0  # atno 17320 bound_to 7965
  144.7071  140.3895  143.7109 LP  0  0  0  0  0  0  0  0  0  0  0  0  # atno 17321 bound_to 7965
  140.7528  143.6185  150.8536 LP  0  0  0  0  0  0  0  0  0  0  0  0  # atno 17342 bound_to 10162
  139.9831  143.5929  152.2936 LP  0  0  0  0  0  0  0  0  0  0  0  0  # atno 17343 bound_to 10162
  156.8028  130.4927  149.5367 LP  0  0  0  0  0  0  0  0  0  0  0  0  # atno 17370 bound_to 10713
  156.1176  130.6086  151.0144 LP  0  0  0  0  0  0  0  0  0  0  0  0  # atno 17371 bound_to 10713
  139.8710  134.9756  156.4891 LP  0  0  0  0  0  0  0  0  0  0  0  0  # atno 17394 bound_to 11000
  140.8617  133.8054  155.9272 LP  0  0  0  0  0  0  0  0  0  0  0  0  # atno 17395 bound_to 11000

$$$$
