AV-unprocessed.smi:2124|AV-procd|sdf|8673|dock5
  -GOLD-   2272011423D 1   1.00000     0.00000
 Structure written by MMmdl.
 46 48  0  0  0  0  0  0  0  0  2 V2000
  151.9989  130.5886  158.5205 C   0  0  0  0  0  0  0  0  0  0  0  0
  151.3578  131.1698  157.2785 C   0  0  0  0  0  0  0  0  0  0  0  0
  151.0976  132.4209  157.2372 N   0  0  0  0  0  0  0  0  0  0  0  0
  150.5031  132.9657  156.0865 C   0  0  0  0  0  0  0  0  0  0  0  0
  150.2355  134.4603  156.1232 C   0  0  0  0  0  0  0  0  0  0  0  0
  150.1947  132.1828  155.0130 C   0  0  0  0  0  0  0  0  0  0  0  0
  149.5477  132.7291  153.7408 C   0  0  0  0  0  0  0  0  0  0  0  0
  148.0518  133.0370  153.8364 C   0  0  0  0  0  0  0  0  0  0  0  0
  147.2694  132.1917  154.2710 O   0  0  0  0  0  0  0  0  0  0  0  0
  147.6724  134.2572  153.4249 N   0  0  0  0  0  0  0  0  0  0  0  0
  146.3098  134.7873  153.4361 C   0  0  1  0  0  0  0  0  0  0  0  0
  146.2932  136.0740  154.2752 C   0  0  0  0  0  0  0  0  0  0  0  0
  145.8264  135.0193  151.9837 C   0  0  1  0  0  0  0  0  0  0  0  0
  145.9229  133.7850  151.0567 C   0  0  0  0  0  0  0  0  0  0  0  0
  144.5292  133.7293  150.4049 C   0  0  1  0  0  0  0  0  0  0  0  0
  143.5122  133.2186  151.4417 C   0  0  0  0  0  0  0  0  0  0  0  0
  143.3669  134.4210  152.3916 C   0  0  0  0  0  0  0  0  0  0  0  0
  144.3500  135.4499  151.7958 C   0  0  2  0  0  0  0  0  0  0  0  0
  144.1611  135.2047  150.3020 C   0  0  0  0  0  0  0  0  0  0  0  0
  150.5066  130.7449  155.1025 C   0  0  0  0  0  0  0  0  0  0  0  0
  150.2386  129.9910  154.1677 O   0  0  0  0  0  0  0  0  0  0  0  0
  151.0927  130.2951  156.2488 N   0  5  0  0  0  0  0  0  0  0  0  0
  151.9632  131.2972  159.3490 H   0  0  0  0  0  0  0  0  0  0  0  0
  153.0426  130.3417  158.3240 H   0  0  0  0  0  0  0  0  0  0  0  0
  151.4801  129.6804  158.8292 H   0  0  0  0  0  0  0  0  0  0  0  0
  150.8110  134.9704  155.3509 H   0  0  0  0  0  0  0  0  0  0  0  0
  150.5169  134.8875  157.0863 H   0  0  0  0  0  0  0  0  0  0  0  0
  149.1772  134.6663  155.9633 H   0  0  0  0  0  0  0  0  0  0  0  0
  150.0769  133.6387  153.4549 H   0  0  0  0  0  0  0  0  0  0  0  0
  149.7013  132.0481  152.9034 H   0  0  0  0  0  0  0  0  0  0  0  0
  148.3924  134.8761  153.0813 H   0  0  0  0  0  0  0  0  0  0  0  0
  145.6493  134.0698  153.9230 H   0  0  0  0  0  0  0  0  0  0  0  0
  145.2836  136.4735  154.3696 H   0  0  0  0  0  0  0  0  0  0  0  0
  146.9189  136.8479  153.8297 H   0  0  0  0  0  0  0  0  0  0  0  0
  146.6619  135.8871  155.2845 H   0  0  0  0  0  0  0  0  0  0  0  0
  146.4480  135.8075  151.5544 H   0  0  0  0  0  0  0  0  0  0  0  0
  146.7027  133.9294  150.3077 H   0  0  0  0  0  0  0  0  0  0  0  0
  146.1486  132.8625  151.5926 H   0  0  0  0  0  0  0  0  0  0  0  0
  144.5076  133.1795  149.4636 H   0  0  0  0  0  0  0  0  0  0  0  0
  142.5570  132.9848  150.9699 H   0  0  0  0  0  0  0  0  0  0  0  0
  143.8596  132.3218  151.9563 H   0  0  0  0  0  0  0  0  0  0  0  0
  142.3477  134.8074  152.3541 H   0  0  0  0  0  0  0  0  0  0  0  0
  143.5755  134.1686  153.4303 H   0  0  0  0  0  0  0  0  0  0  0  0
  144.1509  136.4748  152.1099 H   0  0  0  0  0  0  0  0  0  0  0  0
  144.8459  135.7795  149.6758 H   0  0  0  0  0  0  0  0  0  0  0  0
  143.1382  135.3724  149.9597 H   0  0  0  0  0  0  0  0  0  0  0  0
  1  2  1  0  0  0  0
  1 23  1  0  0  0  0
  1 24  1  0  0  0  0
  1 25  1  0  0  0  0
  2 22  1  0  0  0  0
  2  3  2  0  0  0  0
  3  4  1  0  0  0  0
  4  5  1  0  0  0  0
  4  6  2  0  0  0  0
  5 26  1  0  0  0  0
  5 27  1  0  0  0  0
  5 28  1  0  0  0  0
  6  7  1  0  0  0  0
  6 20  1  0  0  0  0
  7  8  1  0  0  0  0
  7 29  1  0  0  0  0
  7 30  1  0  0  0  0
  8  9  2  0  0  0  0
  8 10  1  0  0  0  0
 10 11  1  0  0  0  0
 10 31  1  0  0  0  0
 11 12  1  0  0  0  0
 11 13  1  0  0  0  0
 11 32  1  0  0  0  0
 12 33  1  0  0  0  0
 12 34  1  0  0  0  0
 12 35  1  0  0  0  0
 13 18  1  0  0  0  0
 13 14  1  0  0  0  0
 13 36  1  0  0  0  0
 14 15  1  0  0  0  0
 14 37  1  0  0  0  0
 14 38  1  0  0  0  0
 15 19  1  0  0  0  0
 15 16  1  0  0  0  0
 15 39  1  0  0  0  0
 16 17  1  0  0  0  0
 16 40  1  0  0  0  0
 16 41  1  0  0  0  0
 17 18  1  0  0  0  0
 17 42  1  0  0  0  0
 17 43  1  0  0  0  0
 18 19  1  0  0  0  0
 18 44  1  0  0  0  0
 19 45  1  0  0  0  0
 19 46  1  0  0  0  0
 20 21  2  0  0  0  0
 20 22  1  0  0  0  0
M  CHG  1  22  -1
M  END
> <s_m_source_file>
AV-unprocessed.smi

> <i_m_source_file_index>
2124

> <i_lp_mmshare_version>
43012

> <i_f3d_flags>
0

> <s_epik_input>
W0NIM11jMW5jKFtDSDNdKWMoYyg9TylbbkhdMSlbQ0gyXUMoPU8pW05IXVtDQEhdKFtDSDNdKVtDQEhdKFtDSDJdW0NASF0yMylbQ0BIXShbQ0gyXTMpW0NIMl1bQ0gyXTI=

> <s_epik_cmdline>
J2VwaWtfcHl0aG9uJywgJy1waCcsICc3LjAnLCAnLXRuJywgJzgnLCAnLW1hJywgJzIwMCcsICctbWV0YWxfYmluZGluZycsICctaW1hZScsICc8aW5maWxlLm1hZT4nLCAnLW9tYWUnLCAnPG91dGZpbGUubWFlPic=

> <r_lp_tautomer_probability>
0.839158

> <r_epik_Ionization_Penalty>
6.63797

> <r_epik_Ionization_Penalty_Charging>
7.48558e-08

> <r_epik_Ionization_Penalty_Neutral>
6.63797

> <r_epik_State_Penalty>
4.49496

> <r_epik_Charging_Adjusted_Penalty>
4.49496

> <i_epik_Tot_Q>
-1

> <i_epik_Tot_abs_Q>
1

> <r_epik_Metal_State_Penalty>
0.841241

> <b_epik_Metal_Only>
1

> <s_lp_Force_Field>
OPLS_2005

> <r_lp_Energy>
55.5119

> <b_lp_Chiralities_Consistent>
1

> <s_lp_Variant>
AV-unprocessed.smi:2124-24

> <Gold.Version>
5.8.1

> <Gold.Id.Protein>
6NUR|6NUR_protein|mol2

> <Gold.PLP.Fitness>
38.4904

> <Gold.PLP.PLP>
-33.1384

> <Gold.PLP.part.hbond>
-2.0000

> <Gold.PLP.part.metal>
0.0000

> <Gold.PLP.part.buried>
-5.3719

> <Gold.PLP.part.nonpolar>
-27.1747

> <Gold.PLP.part.repulsive>
0.1304

> <Gold.PLP.ligand.clash>
0.0000

> <Gold.PLP.ligand.torsion>
0.3339

> <Gold.PLP.Chemscore.Hbond>
2.0000

> <Gold.PLP.Chemscore.CHOScore>
0.0000

> <Gold.PLP.Chemscore.Metal>
0.0000

> <Gold.Chemscore.Hbonds>
donor molecule, donor type, donor heavy atom, donor atom, acceptor molecule, acceptor atom, score
      L1  H    10    31       P1  7948  1.00
      P1  H  6896  6909       L1     3  0.55

> <Gold.PLP.Chemscore.Internal.Correction>
0.0199

> <Gold.Rescore>
     Score         DG    S(hbond)    S(metal)    S(lipo)     H(rot)  DE(clash)    DE(int)     intcor
     14.79     -15.26       1.76        0.00      68.52       1.61       0.03       0.45       ----

> <Gold.Chemscore.Fitness>
14.7857

> <Gold.Chemscore.DG>
-15.2591

> <Gold.Chemscore.ZeroCoef>
-5.4800

> <Gold.Chemscore.Hbond>
1.7580

> <Gold.Chemscore.Metal>
0.0000

> <Gold.Chemscore.Lipo>
68.5170

> <Gold.Chemscore.Internal_Hbond>
0.0000

> <Gold.Chemscore.DEClash>
0.0257

> <Gold.Chemscore.DEInternal>
0.4477

> <Gold.Chemscore.Rot>
1.6051

> <Gold.Chemscore.Internal.Correction>
   9.000000E+99

> <Gold.Chemscore.Hbonds>
donor molecule, donor type, donor heavy atom, donor atom, acceptor molecule, acceptor atom, score
      L1  H    10    31       P1  7948  0.66
      P1  H  6896  6909       L1     3  0.40

> <Gold.Chemscore.Hbond.Weighted>
-5.8716

> <Gold.Chemscore.Metal.Weighted>
-0.0000

> <Gold.Chemscore.Lipo.Weighted>
-8.0165

> <Gold.Chemscore.Internal_Hbond.Weighted>
0.0000

> <Gold.Chemscore.DEClash.Weighted>
0.0257

> <Gold.Chemscore.DEInternal.Weighted>
0.4477

> <Gold.Chemscore.Rot.Weighted>
4.1090

> <Gold.Chemscore.Internal.Correction.Weighted>
   9.000000E+99

> <Gold.Protein.RotatedTorsions>
[ 6907 6896 6895 6894 ] final  -48.24 input  -60.11 | X-H torsion
[ 7974 7965 7964 7962 ] final -166.53 input  175.53 | X-H torsion
[ 8008 7997 7996 7995 ] final   26.81 input   59.86 | X-H torsion
[ 10167 10162 10161 10158 ] final   41.43 input  -65.29 | X-H torsion
[ 10718 10713 10712 10709 ] final -164.72 input   66.30 | X-H torsion
[ 10763 10752 10751 10750 ] final  -91.65 input  -60.55 | X-H torsion
[ 11005 11000 10999 10996 ] final  121.84 input  -57.11 | X-H torsion

> <Gold.Protein.ActiveResidues>
 VAL166  LYS551  ARG553  GLY616  TRP617  ASP618  TYR619  PRO620  LYS621  CYS622 
 ASP623  PHE694  ASN695  SER759  ASP760  ASP761  ALA762  ILE779  LEU786  VAL792 
 PHE793  MET794  SER795  GLU796  ALA797  LYS798  CYS799  TRP800  GLU811  SER814 

> <Gold.Protein.RotatedAtoms>
  150.8925  134.8330  159.7303 H   0  0  0  0  0  0  0  0  0  0  0  0  # atno 6907 bound_to 6896
  152.4845  134.4626  159.9620 H   0  0  0  0  0  0  0  0  0  0  0  0  # atno 6908 bound_to 6896
  151.4687  133.3535  159.2855 H   0  0  0  0  0  0  0  0  0  0  0  0  # atno 6909 bound_to 6896
  144.7243  140.2653  143.6259 H   0  0  0  0  0  0  0  0  0  0  0  0  # atno 7974 bound_to 7965
  155.0331  140.3161  155.4751 H   0  0  0  0  0  0  0  0  0  0  0  0  # atno 8008 bound_to 7997
  156.2870  140.2176  156.5395 H   0  0  0  0  0  0  0  0  0  0  0  0  # atno 8009 bound_to 7997
  154.7354  140.0478  157.0751 H   0  0  0  0  0  0  0  0  0  0  0  0  # atno 8010 bound_to 7997
  140.3643  144.2187  150.6136 H   0  0  0  0  0  0  0  0  0  0  0  0  # atno 10167 bound_to 10162
  156.6431  130.8977  151.2999 H   0  0  0  0  0  0  0  0  0  0  0  0  # atno 10718 bound_to 10713
  154.6782  135.5260  153.8227 H   0  0  0  0  0  0  0  0  0  0  0  0  # atno 10763 bound_to 10752
  153.0546  135.6546  154.0617 H   0  0  0  0  0  0  0  0  0  0  0  0  # atno 10764 bound_to 10752
  154.0508  135.2969  155.3320 H   0  0  0  0  0  0  0  0  0  0  0  0  # atno 10765 bound_to 10752
  139.9243  134.9640  156.8018 H   0  0  0  0  0  0  0  0  0  0  0  0  # atno 11005 bound_to 11000
  145.8096  139.1998  143.2001 LP  0  0  0  0  0  0  0  0  0  0  0  0  # atno 17320 bound_to 7965
  146.0607  140.7973  142.9736 LP  0  0  0  0  0  0  0  0  0  0  0  0  # atno 17321 bound_to 7965
  140.5096  143.2294  151.8556 LP  0  0  0  0  0  0  0  0  0  0  0  0  # atno 17342 bound_to 10162
  139.4810  144.4965  151.9116 LP  0  0  0  0  0  0  0  0  0  0  0  0  # atno 17343 bound_to 10162
  157.7165  130.9503  150.1274 LP  0  0  0  0  0  0  0  0  0  0  0  0  # atno 17370 bound_to 10713
  156.2143  130.3669  149.8632 LP  0  0  0  0  0  0  0  0  0  0  0  0  # atno 17371 bound_to 10713
  140.6383  133.9842  155.7695 LP  0  0  0  0  0  0  0  0  0  0  0  0  # atno 17394 bound_to 11000
  141.0788  134.0094  157.3417 LP  0  0  0  0  0  0  0  0  0  0  0  0  # atno 17395 bound_to 11000

$$$$
