AV-unprocessed.smi:1295|AV-procd|sdf|5407|dock4
  -GOLD-   22720 4563D 1   1.00000     0.00000
 Structure written by MMmdl.
 43 44  0  0  0  0  0  0  0  0  1 V2000
  149.6555  135.0628  154.9161 C   0  0  0  0  0  0  0  0  0  0  0  0
  149.8025  136.2160  155.8848 C   0  0  0  0  0  0  0  0  0  0  0  0
  150.0195  137.4366  155.2673 N   0  0  0  0  0  0  0  0  0  0  0  0
  150.1616  138.5532  156.0718 C   0  0  0  0  0  0  0  0  0  0  0  0
  150.3771  139.8525  155.3158 C   0  0  0  0  0  0  0  0  0  0  0  0
  150.0947  138.4577  157.4241 C   0  0  0  0  0  0  0  0  0  0  0  0
  150.2221  139.6717  158.3461 C   0  0  0  0  0  0  0  0  0  0  0  0
  151.6195  140.2900  158.4339 C   0  0  0  0  0  0  0  0  0  0  0  0
  152.5450  139.8172  157.7755 O   0  0  0  0  0  0  0  0  0  0  0  0
  151.7471  141.3526  159.2426 N   0  0  0  0  0  0  0  0  0  0  0  0
  152.9368  142.1842  159.4086 C   0  0  2  0  0  0  0  0  0  0  0  0
  153.6465  141.8436  160.7345 C   0  0  0  0  0  0  0  0  0  0  0  0
  152.8309  142.2901  161.9604 C   0  0  0  0  0  0  0  0  0  0  0  0
  152.4837  143.7842  161.8825 C   0  0  0  0  0  0  0  0  0  0  0  0
  151.7499  144.1207  160.5748 C   0  0  0  0  0  0  0  0  0  0  0  0
  152.5644  143.6864  159.3382 C   0  0  2  0  0  0  0  0  0  0  0  0
  151.8411  144.0600  158.0320 C   0  0  0  0  0  0  0  0  0  0  0  0
  149.8576  137.1242  158.0268 C   0  0  0  0  0  0  0  0  0  0  0  0
  149.7693  136.9747  159.2446 O   0  0  0  0  0  0  0  0  0  0  0  0
  149.7207  136.0234  157.1661 N   0  0  0  0  0  0  0  0  0  0  0  0
  150.0744  137.5526  154.2656 H   0  0  0  0  0  0  0  0  0  0  0  0
  149.6007  134.1115  155.4470 H   0  0  0  0  0  0  0  0  0  0  0  0
  150.5074  135.0237  154.2362 H   0  0  0  0  0  0  0  0  0  0  0  0
  148.7451  135.1776  154.3266 H   0  0  0  0  0  0  0  0  0  0  0  0
  151.3332  140.2989  155.5890 H   0  0  0  0  0  0  0  0  0  0  0  0
  149.5847  140.5645  155.5480 H   0  0  0  0  0  0  0  0  0  0  0  0
  150.3778  139.6944  154.2365 H   0  0  0  0  0  0  0  0  0  0  0  0
  149.9157  139.3754  159.3496 H   0  0  0  0  0  0  0  0  0  0  0  0
  149.5182  140.4540  158.0610 H   0  0  0  0  0  0  0  0  0  0  0  0
  150.9266  141.6475  159.7519 H   0  0  0  0  0  0  0  0  0  0  0  0
  153.6335  141.9785  158.5941 H   0  0  0  0  0  0  0  0  0  0  0  0
  153.8493  140.7732  160.7899 H   0  0  0  0  0  0  0  0  0  0  0  0
  154.6190  142.3368  160.7561 H   0  0  0  0  0  0  0  0  0  0  0  0
  151.9135  141.7040  162.0283 H   0  0  0  0  0  0  0  0  0  0  0  0
  153.3926  142.0870  162.8725 H   0  0  0  0  0  0  0  0  0  0  0  0
  151.8684  144.0674  162.7371 H   0  0  0  0  0  0  0  0  0  0  0  0
  153.3977  144.3753  161.9506 H   0  0  0  0  0  0  0  0  0  0  0  0
  150.7738  143.6330  160.5688 H   0  0  0  0  0  0  0  0  0  0  0  0
  151.5555  145.1930  160.5339 H   0  0  0  0  0  0  0  0  0  0  0  0
  153.4993  144.2485  159.3524 H   0  0  0  0  0  0  0  0  0  0  0  0
  150.8549  143.5986  157.9693 H   0  0  0  0  0  0  0  0  0  0  0  0
  152.4138  143.7406  157.1610 H   0  0  0  0  0  0  0  0  0  0  0  0
  151.7031  145.1389  157.9576 H   0  0  0  0  0  0  0  0  0  0  0  0
  1 22  1  0  0  0  0
  1 23  1  0  0  0  0
  1 24  1  0  0  0  0
  1  2  1  0  0  0  0
  2  3  1  0  0  0  0
  2 20  2  0  0  0  0
  3  4  1  0  0  0  0
  3 21  1  0  0  0  0
  4  6  2  0  0  0  0
  4  5  1  0  0  0  0
  5 25  1  0  0  0  0
  5 26  1  0  0  0  0
  5 27  1  0  0  0  0
  6 18  1  0  0  0  0
  6  7  1  0  0  0  0
  7  8  1  0  0  0  0
  7 28  1  0  0  0  0
  7 29  1  0  0  0  0
  8  9  2  0  0  0  0
  8 10  1  0  0  0  0
 10 11  1  0  0  0  0
 10 30  1  0  0  0  0
 11 16  1  0  0  0  0
 11 12  1  0  0  0  0
 11 31  1  0  0  0  0
 12 13  1  0  0  0  0
 12 32  1  0  0  0  0
 12 33  1  0  0  0  0
 13 14  1  0  0  0  0
 13 34  1  0  0  0  0
 13 35  1  0  0  0  0
 14 15  1  0  0  0  0
 14 36  1  0  0  0  0
 14 37  1  0  0  0  0
 15 16  1  0  0  0  0
 15 38  1  0  0  0  0
 15 39  1  0  0  0  0
 16 17  1  0  0  0  0
 16 40  1  0  0  0  0
 17 41  1  0  0  0  0
 17 42  1  0  0  0  0
 17 43  1  0  0  0  0
 18 19  2  0  0  0  0
 18 20  1  0  0  0  0
M  END
> <s_m_source_file>
AV-unprocessed.smi

> <i_m_source_file_index>
1295

> <i_lp_mmshare_version>
43012

> <i_f3d_flags>
0

> <s_epik_input>
W0NIM11jMW5jKFtDSDNdKWMoYyg9TylbbkhdMSlbQ0gyXUMoPU8pW05IXVtDQEBIXTJbQ0gyXVtDSDJdW0NIMl1bQ0gyXVtDQEhdMltDSDNd

> <s_epik_cmdline>
J2VwaWtfcHl0aG9uJywgJy1waCcsICc3LjAnLCAnLXRuJywgJzgnLCAnLW1hJywgJzIwMCcsICctbWV0YWxfYmluZGluZycsICctaW1hZScsICc8aW5maWxlLm1hZT4nLCAnLW9tYWUnLCAnPG91dGZpbGUubWFlPic=

> <r_lp_tautomer_probability>
0.156392

> <r_epik_Ionization_Penalty>
0.0136057

> <r_epik_Ionization_Penalty_Charging>
0.0134742

> <r_epik_Ionization_Penalty_Neutral>
0.000131572

> <r_epik_State_Penalty>
1.15342

> <r_epik_Charging_Adjusted_Penalty>
1.16689

> <i_epik_Tot_Q>
0

> <i_epik_Tot_abs_Q>
0

> <r_epik_Metal_State_Penalty>
1.31351

> <b_epik_Metal_Only>
0

> <s_lp_Force_Field>
OPLS_2005

> <r_lp_Energy>
13.3466

> <b_lp_Chiralities_Consistent>
1

> <s_lp_Variant>
AV-unprocessed.smi:1295-7

> <Gold.Version>
5.8.1

> <Gold.Id.Protein>
6NUR|6NUR_protein|mol2

> <Gold.PLP.Fitness>
47.4563

> <Gold.PLP.PLP>
-41.9870

> <Gold.PLP.part.hbond>
-2.0000

> <Gold.PLP.part.metal>
0.0000

> <Gold.PLP.part.buried>
-6.1827

> <Gold.PLP.part.nonpolar>
-33.6480

> <Gold.PLP.part.repulsive>
0.1889

> <Gold.PLP.ligand.clash>
0.0000

> <Gold.PLP.ligand.torsion>
0.2697

> <Gold.PLP.Chemscore.Hbond>
2.0000

> <Gold.PLP.Chemscore.CHOScore>
0.0000

> <Gold.PLP.Chemscore.Metal>
0.0000

> <Gold.Chemscore.Hbonds>
donor molecule, donor type, donor heavy atom, donor atom, acceptor molecule, acceptor atom, score
      P1  H  6896  6907       L1    19  0.06
      P1  H  7997  8008       L1     9  0.65

> <Gold.PLP.Chemscore.Internal.Correction>
0.0087

> <Gold.Rescore>
     Score         DG    S(hbond)    S(metal)    S(lipo)     H(rot)  DE(clash)    DE(int)     intcor
     20.48     -21.04       2.25        0.00     101.07       1.48       0.05       0.50       ----

> <Gold.Chemscore.Fitness>
20.4842

> <Gold.Chemscore.DG>
-21.0373

> <Gold.Chemscore.ZeroCoef>
-5.4800

> <Gold.Chemscore.Hbond>
2.2519

> <Gold.Chemscore.Metal>
0.0000

> <Gold.Chemscore.Lipo>
101.0695

> <Gold.Chemscore.Internal_Hbond>
0.0000

> <Gold.Chemscore.DEClash>
0.0537

> <Gold.Chemscore.DEInternal>
0.4994

> <Gold.Chemscore.Rot>
1.4801

> <Gold.Chemscore.Internal.Correction>
   9.000000E+99

> <Gold.Chemscore.Hbonds>
donor molecule, donor type, donor heavy atom, donor atom, acceptor molecule, acceptor atom, score
      P1  H  6896  6907       L1    19  0.06
      P1  H  7997  8008       L1     9  0.63

> <Gold.Chemscore.Hbond.Weighted>
-7.5213

> <Gold.Chemscore.Metal.Weighted>
-0.0000

> <Gold.Chemscore.Lipo.Weighted>
-11.8251

> <Gold.Chemscore.Internal_Hbond.Weighted>
0.0000

> <Gold.Chemscore.DEClash.Weighted>
0.0537

> <Gold.Chemscore.DEInternal.Weighted>
0.4994

> <Gold.Chemscore.Rot.Weighted>
3.7891

> <Gold.Chemscore.Internal.Correction.Weighted>
   9.000000E+99

> <Gold.Protein.RotatedTorsions>
[ 6907 6896 6895 6894 ] final  -50.03 input  -60.11 | X-H torsion
[ 7974 7965 7964 7962 ] final  -46.50 input  175.53 | X-H torsion
[ 8008 7997 7996 7995 ] final  -59.69 input   59.86 | X-H torsion
[ 10167 10162 10161 10158 ] final -119.31 input  -65.29 | X-H torsion
[ 10718 10713 10712 10709 ] final  179.75 input   66.30 | X-H torsion
[ 10763 10752 10751 10750 ] final  163.98 input  -60.55 | X-H torsion
[ 11005 11000 10999 10996 ] final  138.44 input  -57.11 | X-H torsion

> <Gold.Protein.ActiveResidues>
 VAL166  LYS551  ARG553  GLY616  TRP617  ASP618  TYR619  PRO620  LYS621  CYS622 
 ASP623  PHE694  ASN695  SER759  ASP760  ASP761  ALA762  ILE779  LEU786  VAL792 
 PHE793  MET794  SER795  GLU796  ALA797  LYS798  CYS799  TRP800  GLU811  SER814 

> <Gold.Protein.RotatedAtoms>
  150.8747  134.8128  159.7180 H   0  0  0  0  0  0  0  0  0  0  0  0  # atno 6907 bound_to 6896
  152.4738  134.4891  159.9699 H   0  0  0  0  0  0  0  0  0  0  0  0  # atno 6908 bound_to 6896
  151.4974  133.3473  159.2899 H   0  0  0  0  0  0  0  0  0  0  0  0  # atno 6909 bound_to 6896
  145.9712  140.7381  142.9409 H   0  0  0  0  0  0  0  0  0  0  0  0  # atno 7974 bound_to 7965
  154.4364  140.1056  156.6155 H   0  0  0  0  0  0  0  0  0  0  0  0  # atno 8008 bound_to 7997
  155.5763  140.3490  155.4510 H   0  0  0  0  0  0  0  0  0  0  0  0  # atno 8009 bound_to 7997
  156.0352  140.1269  157.0205 H   0  0  0  0  0  0  0  0  0  0  0  0  # atno 8010 bound_to 7997
  140.0480  143.5088  152.2096 H   0  0  0  0  0  0  0  0  0  0  0  0  # atno 10167 bound_to 10162
  156.8711  130.9784  151.3073 H   0  0  0  0  0  0  0  0  0  0  0  0  # atno 10718 bound_to 10713
  154.3020  135.2759  155.2606 H   0  0  0  0  0  0  0  0  0  0  0  0  # atno 10763 bound_to 10752
  154.5039  135.5801  153.6556 H   0  0  0  0  0  0  0  0  0  0  0  0  # atno 10764 bound_to 10752
  152.9899  135.6164  154.3191 H   0  0  0  0  0  0  0  0  0  0  0  0  # atno 10765 bound_to 10752
  140.0184  134.9408  157.0423 H   0  0  0  0  0  0  0  0  0  0  0  0  # atno 11005 bound_to 11000
  144.6837  140.2752  143.7300 LP  0  0  0  0  0  0  0  0  0  0  0  0  # atno 17320 bound_to 7965
  145.7903  139.1924  143.2107 LP  0  0  0  0  0  0  0  0  0  0  0  0  # atno 17321 bound_to 7965
  139.5971  144.7570  151.3260 LP  0  0  0  0  0  0  0  0  0  0  0  0  # atno 17342 bound_to 10162
  140.7230  143.7083  150.7789 LP  0  0  0  0  0  0  0  0  0  0  0  0  # atno 17343 bound_to 10162
  157.6195  130.8644  149.9085 LP  0  0  0  0  0  0  0  0  0  0  0  0  # atno 17370 bound_to 10713
  156.0726  130.3683  150.0744 LP  0  0  0  0  0  0  0  0  0  0  0  0  # atno 17371 bound_to 10713
  140.4430  134.1661  155.7175 LP  0  0  0  0  0  0  0  0  0  0  0  0  # atno 17394 bound_to 11000
  141.1758  133.8517  157.1426 LP  0  0  0  0  0  0  0  0  0  0  0  0  # atno 17395 bound_to 11000

$$$$
