AV-unprocessed.smi:587|AV-procd|sdf|3002|dock9
  -GOLD-   2262023513D 1   1.00000     0.00000
 Structure written by MMmdl.
 46 48  0  0  0  0  0  0  0  0  1 V2000
  149.5219  134.6517  154.9434 C   0  0  0  0  0  0  0  0  0  0  0  0
  149.2014  135.7818  155.7901 N   0  0  0  0  0  0  0  0  0  0  0  0
  148.6765  136.9883  155.3321 C   0  0  0  0  0  0  0  0  0  0  0  0
  148.4877  137.1475  153.9692 N   0  0  0  0  0  0  0  0  0  0  0  0
  148.3872  138.0119  156.1825 C   0  0  0  0  0  0  0  0  0  0  0  0
  147.8627  139.2360  155.7649 N   0  0  0  0  0  0  0  0  0  0  0  0
  146.6831  139.3542  154.9089 C   0  0  0  0  0  0  0  0  0  0  0  0
  146.9985  140.1310  153.6165 C   0  0  0  0  0  0  0  0  0  0  0  0
  147.6419  141.4900  153.9328 C   0  0  0  0  0  0  0  0  0  0  0  0
  148.8611  141.3019  154.8485 C   0  0  0  0  0  0  0  0  0  0  0  0
  148.4752  140.5172  156.1132 C   0  0  0  0  0  0  0  0  0  0  0  0
  148.6171  137.8697  157.6263 C   0  0  0  0  0  0  0  0  0  0  0  0
  148.3574  138.7533  158.4472 O   0  0  0  0  0  0  0  0  0  0  0  0
  149.1719  136.6431  158.0553 N   0  0  0  0  0  0  0  0  0  0  0  0
  149.4751  136.4636  159.4937 C   0  0  0  0  0  0  0  0  0  0  0  0
  148.2226  136.2864  160.3669 C   0  0  0  0  0  0  0  0  0  0  0  0
  147.6072  137.2617  160.8007 O   0  0  0  0  0  0  0  0  0  0  0  0
  147.8593  135.0193  160.6122 N   0  0  0  0  0  0  0  0  0  0  0  0
  146.7269  134.6167  161.3818 C   0  0  0  0  0  0  0  0  0  0  0  0
  146.6016  135.1564  162.7900 C   0  0  0  0  0  0  0  0  0  0  0  0
  146.9754  133.7161  162.5724 C   0  0  0  0  0  0  0  0  0  0  0  0
  149.4869  135.5990  157.1622 C   0  0  0  0  0  0  0  0  0  0  0  0
  150.0016  134.5551  157.5749 O   0  0  0  0  0  0  0  0  0  0  0  0
  149.1203  134.8030  153.9436 H   0  0  0  0  0  0  0  0  0  0  0  0
  149.0594  133.7623  155.3757 H   0  0  0  0  0  0  0  0  0  0  0  0
  150.6097  134.5699  154.9130 H   0  0  0  0  0  0  0  0  0  0  0  0
  148.7224  136.4115  153.3185 H   0  0  0  0  0  0  0  0  0  0  0  0
  147.9906  137.9401  153.5897 H   0  0  0  0  0  0  0  0  0  0  0  0
  146.2932  138.3652  154.6650 H   0  0  0  0  0  0  0  0  0  0  0  0
  145.8982  139.8640  155.4691 H   0  0  0  0  0  0  0  0  0  0  0  0
  147.6723  139.5499  152.9872 H   0  0  0  0  0  0  0  0  0  0  0  0
  146.0866  140.2752  153.0367 H   0  0  0  0  0  0  0  0  0  0  0  0
  147.9357  141.9927  153.0109 H   0  0  0  0  0  0  0  0  0  0  0  0
  146.9124  142.1359  154.4230 H   0  0  0  0  0  0  0  0  0  0  0  0
  149.6450  140.7660  154.3116 H   0  0  0  0  0  0  0  0  0  0  0  0
  149.2774  142.2716  155.1222 H   0  0  0  0  0  0  0  0  0  0  0  0
  147.7743  141.0930  156.7193 H   0  0  0  0  0  0  0  0  0  0  0  0
  149.3626  140.3588  156.7274 H   0  0  0  0  0  0  0  0  0  0  0  0
  150.1301  135.6057  159.6527 H   0  0  0  0  0  0  0  0  0  0  0  0
  150.0518  137.3051  159.8809 H   0  0  0  0  0  0  0  0  0  0  0  0
  148.4238  134.2815  160.2163 H   0  0  0  0  0  0  0  0  0  0  0  0
  145.7931  134.4481  160.8471 H   0  0  0  0  0  0  0  0  0  0  0  0
  147.3786  135.8290  163.1489 H   0  0  0  0  0  0  0  0  0  0  0  0
  145.5990  135.3659  163.1577 H   0  0  0  0  0  0  0  0  0  0  0  0
  146.2232  132.9625  162.7977 H   0  0  0  0  0  0  0  0  0  0  0  0
  148.0024  133.4273  162.7883 H   0  0  0  0  0  0  0  0  0  0  0  0
  1  2  1  0  0  0  0
  1 24  1  0  0  0  0
  1 25  1  0  0  0  0
  1 26  1  0  0  0  0
  2 22  1  0  0  0  0
  2  3  1  0  0  0  0
  3  4  1  0  0  0  0
  3  5  2  0  0  0  0
  4 27  1  0  0  0  0
  4 28  1  0  0  0  0
  5  6  1  0  0  0  0
  5 12  1  0  0  0  0
  6 11  1  0  0  0  0
  6  7  1  0  0  0  0
  7  8  1  0  0  0  0
  7 29  1  0  0  0  0
  7 30  1  0  0  0  0
  8  9  1  0  0  0  0
  8 31  1  0  0  0  0
  8 32  1  0  0  0  0
  9 10  1  0  0  0  0
  9 33  1  0  0  0  0
  9 34  1  0  0  0  0
 10 11  1  0  0  0  0
 10 35  1  0  0  0  0
 10 36  1  0  0  0  0
 11 37  1  0  0  0  0
 11 38  1  0  0  0  0
 12 13  2  0  0  0  0
 12 14  1  0  0  0  0
 14 15  1  0  0  0  0
 14 22  1  0  0  0  0
 15 16  1  0  0  0  0
 15 39  1  0  0  0  0
 15 40  1  0  0  0  0
 16 17  2  0  0  0  0
 16 18  1  0  0  0  0
 18 19  1  0  0  0  0
 18 41  1  0  0  0  0
 19 21  1  0  0  0  0
 19 20  1  0  0  0  0
 19 42  1  0  0  0  0
 20 21  1  0  0  0  0
 20 43  1  0  0  0  0
 20 44  1  0  0  0  0
 21 45  1  0  0  0  0
 21 46  1  0  0  0  0
 22 23  2  0  0  0  0
M  END
> <s_m_source_file>
AV-unprocessed.smi

> <i_m_source_file_index>
587

> <i_lp_mmshare_version>
43012

> <i_f3d_flags>
0

> <s_epik_input>
W0NIMl0xW0NIMl1bQ0gyXVtDSDJdW0NIMl1OMWMoYyhbTkgyXSluMltDSDNdKWMoPU8pbihjMj1PKVtDSDJdQyg9TylbTkhdW0NIXTNbQ0gyXVtDSDJdMw==

> <s_epik_cmdline>
J2VwaWtfcHl0aG9uJywgJy1waCcsICc3LjAnLCAnLXRuJywgJzgnLCAnLW1hJywgJzIwMCcsICctbWV0YWxfYmluZGluZycsICctaW1hZScsICc8aW5maWxlLm1hZT4nLCAnLW9tYWUnLCAnPG91dGZpbGUubWFlPic=

> <r_lp_tautomer_probability>
0.999881

> <r_epik_Ionization_Penalty>
0.00852669

> <r_epik_Ionization_Penalty_Charging>
2.6249e-08

> <r_epik_Ionization_Penalty_Neutral>
0.00852666

> <r_epik_State_Penalty>
0.00667057

> <r_epik_Charging_Adjusted_Penalty>
0.00667059

> <i_epik_Tot_Q>
0

> <i_epik_Tot_abs_Q>
0

> <r_epik_Metal_State_Penalty>
0.00667057

> <b_epik_Metal_Only>
0

> <s_lp_Force_Field>
OPLS_2005

> <r_lp_Energy>
38.4775

> <b_lp_Chiralities_Consistent>
1

> <s_lp_Variant>
AV-unprocessed.smi:587-1

> <Gold.Version>
5.8.1

> <Gold.Id.Protein>
6NUR|6NUR_protein|mol2

> <Gold.PLP.Fitness>
40.9369

> <Gold.PLP.PLP>
-31.6705

> <Gold.PLP.part.hbond>
-4.7553

> <Gold.PLP.part.metal>
0.0000

> <Gold.PLP.part.buried>
-3.8450

> <Gold.PLP.part.nonpolar>
-25.3042

> <Gold.PLP.part.repulsive>
0.0837

> <Gold.PLP.ligand.clash>
0.0000

> <Gold.PLP.ligand.torsion>
1.4355

> <Gold.PLP.Chemscore.Hbond>
3.4240

> <Gold.PLP.Chemscore.CHOScore>
0.0000

> <Gold.PLP.Chemscore.Metal>
0.0000

> <Gold.Chemscore.Hbonds>
donor molecule, donor type, donor heavy atom, donor atom, acceptor molecule, acceptor atom, score
      L1  H     4    27       P1  7948  0.69
      P1  H  6896  6907       L1    23  0.86
      P1  H  6931  6943       L1    17  0.75
      P1  H  6934  6947       L1    17  0.96

> <Gold.PLP.Chemscore.Internal.Correction>
1.8654

> <Gold.Rescore>
     Score         DG    S(hbond)    S(metal)    S(lipo)     H(rot)  DE(clash)    DE(int)     intcor
     16.84     -20.02       3.43        0.00      60.36       1.56       0.16       3.02       ----

> <Gold.Chemscore.Fitness>
16.8435

> <Gold.Chemscore.DG>
-20.0250

> <Gold.Chemscore.ZeroCoef>
-5.4800

> <Gold.Chemscore.Hbond>
3.4342

> <Gold.Chemscore.Metal>
0.0000

> <Gold.Chemscore.Lipo>
60.3633

> <Gold.Chemscore.Internal_Hbond>
0.0000

> <Gold.Chemscore.DEClash>
0.1596

> <Gold.Chemscore.DEInternal>
3.0219

> <Gold.Chemscore.Rot>
1.5577

> <Gold.Chemscore.Internal.Correction>
   9.000000E+99

> <Gold.Chemscore.Hbonds>
donor molecule, donor type, donor heavy atom, donor atom, acceptor molecule, acceptor atom, score
      L1  H     4    27       P1  7948  0.67
      P1  H  6896  6907       L1    23  0.84
      P1  H  6931  6943       L1    17  0.28
      P1  H  6934  6947       L1    17  0.92

> <Gold.Chemscore.Hbond.Weighted>
-11.4702

> <Gold.Chemscore.Metal.Weighted>
-0.0000

> <Gold.Chemscore.Lipo.Weighted>
-7.0625

> <Gold.Chemscore.Internal_Hbond.Weighted>
0.0000

> <Gold.Chemscore.DEClash.Weighted>
0.1596

> <Gold.Chemscore.DEInternal.Weighted>
3.0219

> <Gold.Chemscore.Rot.Weighted>
3.9877

> <Gold.Chemscore.Internal.Correction.Weighted>
   9.000000E+99

> <Gold.Protein.RotatedTorsions>
[ 6907 6896 6895 6894 ] final  -95.82 input  -60.11 | X-H torsion
[ 7974 7965 7964 7962 ] final  -86.28 input  175.53 | X-H torsion
[ 8008 7997 7996 7995 ] final -118.40 input   59.86 | X-H torsion
[ 10167 10162 10161 10158 ] final  -87.81 input  -65.29 | X-H torsion
[ 10718 10713 10712 10709 ] final  103.77 input   66.30 | X-H torsion
[ 10763 10752 10751 10750 ] final  -26.25 input  -60.55 | X-H torsion
[ 11005 11000 10999 10996 ] final -156.61 input  -57.11 | X-H torsion

> <Gold.Protein.ActiveResidues>
 VAL166  LYS551  ARG553  GLY616  TRP617  ASP618  TYR619  PRO620  LYS621  CYS622 
 ASP623  PHE694  ASN695  SER759  ASP760  ASP761  ALA762  ILE779  LEU786  VAL792 
 PHE793  MET794  SER795  GLU796  ALA797  LYS798  CYS799  TRP800  GLU811  SER814 

> <Gold.Protein.RotatedAtoms>
  150.6973  134.1599  159.4171 H   0  0  0  0  0  0  0  0  0  0  0  0  # atno 6907 bound_to 6896
  151.9579  135.0135  160.0555 H   0  0  0  0  0  0  0  0  0  0  0  0  # atno 6908 bound_to 6896
  152.1952  133.4766  159.5066 H   0  0  0  0  0  0  0  0  0  0  0  0  # atno 6909 bound_to 6896
  145.4820  140.9556  143.1859 H   0  0  0  0  0  0  0  0  0  0  0  0  # atno 7974 bound_to 7965
  155.0991  140.0396  157.2691 H   0  0  0  0  0  0  0  0  0  0  0  0  # atno 8008 bound_to 7997
  154.6772  140.2625  155.6920 H   0  0  0  0  0  0  0  0  0  0  0  0  # atno 8009 bound_to 7997
  156.2681  140.2786  156.1303 H   0  0  0  0  0  0  0  0  0  0  0  0  # atno 8010 bound_to 7997
  140.3808  143.2750  151.9386 H   0  0  0  0  0  0  0  0  0  0  0  0  # atno 10167 bound_to 10162
  157.6762  131.0787  150.5606 H   0  0  0  0  0  0  0  0  0  0  0  0  # atno 10718 bound_to 10713
  153.7130  135.6949  153.5032 H   0  0  0  0  0  0  0  0  0  0  0  0  # atno 10763 bound_to 10752
  153.2259  135.4354  155.0540 H   0  0  0  0  0  0  0  0  0  0  0  0  # atno 10764 bound_to 10752
  154.8309  135.3472  154.6666 H   0  0  0  0  0  0  0  0  0  0  0  0  # atno 10765 bound_to 10752
  140.6737  134.4220  157.5230 H   0  0  0  0  0  0  0  0  0  0  0  0  # atno 11005 bound_to 11000
  144.7883  139.6380  143.7124 LP  0  0  0  0  0  0  0  0  0  0  0  0  # atno 17320 bound_to 7965
  146.2335  139.5860  142.9539 LP  0  0  0  0  0  0  0  0  0  0  0  0  # atno 17321 bound_to 7965
  139.4795  144.5820  151.7916 LP  0  0  0  0  0  0  0  0  0  0  0  0  # atno 17342 bound_to 10162
  140.4940  144.1269  150.5956 LP  0  0  0  0  0  0  0  0  0  0  0  0  # atno 17343 bound_to 10162
  156.5909  130.4329  149.5937 LP  0  0  0  0  0  0  0  0  0  0  0  0  # atno 17370 bound_to 10713
  156.2584  130.6948  151.1709 LP  0  0  0  0  0  0  0  0  0  0  0  0  # atno 17371 bound_to 10713
  139.8973  134.8638  156.2048 LP  0  0  0  0  0  0  0  0  0  0  0  0  # atno 17394 bound_to 11000
  141.0372  133.6957  156.1534 LP  0  0  0  0  0  0  0  0  0  0  0  0  # atno 17395 bound_to 11000

$$$$
