AV-unprocessed.smi:1491|AV-procd|sdf|6034|dock6
  -GOLD-   22720 6133D 1   1.00000     0.00000
 Structure written by MMmdl.
 38 39  0  0  0  0  0  0  0  0  1 V2000
  147.5843  132.6629  154.3713 O   0  0  0  0  0  0  0  0  0  0  0  0
  147.8739  133.6235  153.6577 C   0  0  0  0  0  0  0  0  0  0  0  0
  148.8321  134.5144  153.9508 N   0  0  0  0  0  0  0  0  0  0  0  0
  149.6937  134.4676  155.1283 C   0  0  0  0  0  0  0  0  0  0  0  0
  149.6011  135.7593  155.9621 C   0  0  0  0  0  0  0  0  0  0  0  0
  150.6371  136.7184  155.6258 N   0  0  0  0  0  0  0  0  0  0  0  0
  150.7707  137.4279  154.4393 C   0  0  0  0  0  0  0  0  0  0  0  0
  151.8984  138.2060  154.5717 C   0  0  0  0  0  0  0  0  0  0  0  0
  152.4670  137.9984  155.8259 N   0  0  0  0  0  0  0  0  0  0  0  0
  151.6647  137.1068  156.3932 C   0  0  0  0  0  0  0  0  0  0  0  0
  147.2822  133.9021  152.4879 N   0  0  0  0  0  0  0  0  0  0  0  0
  146.2202  133.1206  151.8609 C   0  0  2  0  0  0  0  0  0  0  0  0
  146.6290  132.7486  150.4224 C   0  0  0  0  0  0  0  0  0  0  0  0
  145.5009  132.0024  149.6917 C   0  0  0  0  0  0  0  0  0  0  0  0
  144.1980  132.8202  149.7028 C   0  0  1  0  0  0  0  0  0  0  0  0
  143.1689  132.0766  149.0854 O   0  0  0  0  0  0  0  0  0  0  0  0
  143.7817  133.1795  151.1395 C   0  0  0  0  0  0  0  0  0  0  0  0
  144.9076  133.9269  151.8719 C   0  0  0  0  0  0  0  0  0  0  0  0
  148.9914  135.2708  153.3014 H   0  0  0  0  0  0  0  0  0  0  0  0
  149.3671  133.6247  155.7377 H   0  0  0  0  0  0  0  0  0  0  0  0
  150.7289  134.2575  154.8532 H   0  0  0  0  0  0  0  0  0  0  0  0
  148.6258  136.2303  155.8314 H   0  0  0  0  0  0  0  0  0  0  0  0
  149.6938  135.5214  157.0222 H   0  0  0  0  0  0  0  0  0  0  0  0
  150.0761  137.3185  153.6198 H   0  0  0  0  0  0  0  0  0  0  0  0
  152.3407  138.8941  153.8666 H   0  0  0  0  0  0  0  0  0  0  0  0
  151.8320  136.7215  157.3884 H   0  0  0  0  0  0  0  0  0  0  0  0
  147.6015  134.7143  151.9808 H   0  0  0  0  0  0  0  0  0  0  0  0
  146.0517  132.1951  152.4151 H   0  0  0  0  0  0  0  0  0  0  0  0
  146.8828  133.6513  149.8647 H   0  0  0  0  0  0  0  0  0  0  0  0
  147.5281  132.1309  150.4374 H   0  0  0  0  0  0  0  0  0  0  0  0
  145.8031  131.7922  148.6651 H   0  0  0  0  0  0  0  0  0  0  0  0
  145.3374  131.0362  150.1712 H   0  0  0  0  0  0  0  0  0  0  0  0
  144.3411  133.7363  149.1280 H   0  0  0  0  0  0  0  0  0  0  0  0
  142.4008  132.6233  149.0201 H   0  0  0  0  0  0  0  0  0  0  0  0
  142.8800  133.7932  151.1268 H   0  0  0  0  0  0  0  0  0  0  0  0
  143.5315  132.2725  151.6917 H   0  0  0  0  0  0  0  0  0  0  0  0
  144.6041  134.1315  152.8993 H   0  0  0  0  0  0  0  0  0  0  0  0
  145.0642  134.8965  151.3970 H   0  0  0  0  0  0  0  0  0  0  0  0
  1  2  2  0  0  0  0
  2  3  1  0  0  0  0
  2 11  1  0  0  0  0
  3  4  1  0  0  0  0
  3 19  1  0  0  0  0
  4  5  1  0  0  0  0
  4 20  1  0  0  0  0
  4 21  1  0  0  0  0
  5  6  1  0  0  0  0
  5 22  1  0  0  0  0
  5 23  1  0  0  0  0
  6 10  1  0  0  0  0
  6  7  1  0  0  0  0
  7  8  2  0  0  0  0
  7 24  1  0  0  0  0
  8  9  1  0  0  0  0
  8 25  1  0  0  0  0
  9 10  2  0  0  0  0
 10 26  1  0  0  0  0
 11 12  1  0  0  0  0
 11 27  1  0  0  0  0
 12 18  1  0  0  0  0
 12 13  1  0  0  0  0
 12 28  1  0  0  0  0
 13 14  1  0  0  0  0
 13 29  1  0  0  0  0
 13 30  1  0  0  0  0
 14 15  1  0  0  0  0
 14 31  1  0  0  0  0
 14 32  1  0  0  0  0
 15 16  1  0  0  0  0
 15 17  1  0  0  0  0
 15 33  1  0  0  0  0
 16 34  1  0  0  0  0
 17 18  1  0  0  0  0
 17 35  1  0  0  0  0
 17 36  1  0  0  0  0
 18 37  1  0  0  0  0
 18 38  1  0  0  0  0
M  END
> <s_m_source_file>
AV-unprocessed.smi

> <i_m_source_file_index>
1491

> <i_lp_mmshare_version>
43012

> <i_f3d_flags>
0

> <s_epik_input>
W0NIMl0xW0NIMl1bQ0BIXShbT0hdKVtDSDJdW0NIMl1bQ0BIXTFbTkhdQyg9TylbTkhdW0NIMl1bQ0gyXW4yW2NIXVtjSF1uW2NIXTI=

> <s_epik_cmdline>
J2VwaWtfcHl0aG9uJywgJy1waCcsICc3LjAnLCAnLXRuJywgJzgnLCAnLW1hJywgJzIwMCcsICctbWV0YWxfYmluZGluZycsICctaW1hZScsICc8aW5maWxlLm1hZT4nLCAnLW9tYWUnLCAnPG91dGZpbGUubWFlPic=

> <r_lp_tautomer_probability>
1

> <r_epik_Ionization_Penalty>
0.623245

> <r_epik_Ionization_Penalty_Charging>
0.623187

> <r_epik_Ionization_Penalty_Neutral>
5.75214e-05

> <r_epik_State_Penalty>
0.639392

> <r_epik_Charging_Adjusted_Penalty>
1.26258

> <i_epik_Tot_Q>
0

> <i_epik_Tot_abs_Q>
0

> <r_epik_Metal_State_Penalty>
0.307266

> <b_epik_Metal_Only>
0

> <s_lp_Force_Field>
OPLS_2005

> <r_lp_Energy>
7.54437

> <b_lp_Chiralities_Consistent>
1

> <s_lp_Variant>
AV-unprocessed.smi:1491-3

> <Gold.Version>
5.8.1

> <Gold.Id.Protein>
6NUR|6NUR_protein|mol2

> <Gold.PLP.Fitness>
48.8148

> <Gold.PLP.PLP>
-35.6705

> <Gold.PLP.part.hbond>
-5.3844

> <Gold.PLP.part.metal>
0.0000

> <Gold.PLP.part.buried>
-3.5949

> <Gold.PLP.part.nonpolar>
-27.1011

> <Gold.PLP.part.repulsive>
0.0688

> <Gold.PLP.ligand.clash>
0.0000

> <Gold.PLP.ligand.torsion>
0.3562

> <Gold.PLP.Chemscore.Hbond>
3.5528

> <Gold.PLP.Chemscore.CHOScore>
1.0625

> <Gold.PLP.Chemscore.Metal>
0.0000

> <Gold.Chemscore.Hbonds>
donor molecule, donor type, donor heavy atom, donor atom, acceptor molecule, acceptor atom, score
      L1  H     3    19       P1  7948  1.00
      L1  H    11    27       P1  7948  0.94
      L1  H    16    34       P1 10186  0.28
      P1  H 10785 10796       L1    16  1.00
      L1  C     7    24       P1  7948  1.00
      L1  C     7    24       P1  7949  0.04

> <Gold.PLP.Chemscore.Internal.Correction>
0.0110

> <Gold.Rescore>
     Score         DG    S(hbond)    S(metal)    S(lipo)     H(rot)  DE(clash)    DE(int)     intcor
     16.13     -16.37       2.80        0.00      69.42       2.57       0.01       0.23       ----

> <Gold.Chemscore.Fitness>
16.1350

> <Gold.Chemscore.DG>
-16.3685

> <Gold.Chemscore.ZeroCoef>
-5.4800

> <Gold.Chemscore.Hbond>
2.8010

> <Gold.Chemscore.Metal>
0.0000

> <Gold.Chemscore.Lipo>
69.4210

> <Gold.Chemscore.Internal_Hbond>
0.0000

> <Gold.Chemscore.DEClash>
0.0060

> <Gold.Chemscore.DEInternal>
0.2276

> <Gold.Chemscore.Rot>
2.5738

> <Gold.Chemscore.Internal.Correction>
   9.000000E+99

> <Gold.Chemscore.Hbonds>
donor molecule, donor type, donor heavy atom, donor atom, acceptor molecule, acceptor atom, score
      L1  H     3    19       P1  7948  0.45
      L1  H    11    27       P1  7948  0.59
      L1  H    16    34       P1 10186  0.27
      P1  H 10785 10796       L1    16  0.95

> <Gold.Chemscore.Hbond.Weighted>
-9.3552

> <Gold.Chemscore.Metal.Weighted>
-0.0000

> <Gold.Chemscore.Lipo.Weighted>
-8.1223

> <Gold.Chemscore.Internal_Hbond.Weighted>
0.0000

> <Gold.Chemscore.DEClash.Weighted>
0.0060

> <Gold.Chemscore.DEInternal.Weighted>
0.2276

> <Gold.Chemscore.Rot.Weighted>
6.5890

> <Gold.Chemscore.Internal.Correction.Weighted>
   9.000000E+99

> <Gold.Protein.RotatedTorsions>
[ 6907 6896 6895 6894 ] final  120.20 input  -60.11 | X-H torsion
[ 7974 7965 7964 7962 ] final -143.16 input  175.53 | X-H torsion
[ 8008 7997 7996 7995 ] final  170.76 input   59.86 | X-H torsion
[ 10167 10162 10161 10158 ] final -104.70 input  -65.29 | X-H torsion
[ 10718 10713 10712 10709 ] final  -69.93 input   66.30 | X-H torsion
[ 10763 10752 10751 10750 ] final  -62.38 input  -60.55 | X-H torsion
[ 11005 11000 10999 10996 ] final  167.74 input  -57.11 | X-H torsion

> <Gold.Protein.ActiveResidues>
 VAL166  LYS551  ARG553  GLY616  TRP617  ASP618  TYR619  PRO620  LYS621  CYS622 
 ASP623  PHE694  ASN695  SER759  ASP760  ASP761  ALA762  ILE779  LEU786  VAL792 
 PHE793  MET794  SER795  GLU796  ALA797  LYS798  CYS799  TRP800  GLU811  SER814 

> <Gold.Protein.RotatedAtoms>
  152.4416  133.7458  159.6666 H   0  0  0  0  0  0  0  0  0  0  0  0  # atno 6907 bound_to 6896
  150.8307  133.8085  159.3106 H   0  0  0  0  0  0  0  0  0  0  0  0  # atno 6908 bound_to 6896
  151.5739  135.1064  160.0053 H   0  0  0  0  0  0  0  0  0  0  0  0  # atno 6909 bound_to 6896
  144.8390  140.5869  143.5465 H   0  0  0  0  0  0  0  0  0  0  0  0  # atno 7974 bound_to 7965
  156.1335  140.1529  156.9030 H   0  0  0  0  0  0  0  0  0  0  0  0  # atno 8008 bound_to 7997
  154.4928  140.0846  156.7671 H   0  0  0  0  0  0  0  0  0  0  0  0  # atno 8009 bound_to 7997
  155.4212  140.3423  155.4274 H   0  0  0  0  0  0  0  0  0  0  0  0  # atno 8010 bound_to 7997
  140.2065  143.3779  152.1086 H   0  0  0  0  0  0  0  0  0  0  0  0  # atno 10167 bound_to 10162
  156.0432  130.4322  150.2220 H   0  0  0  0  0  0  0  0  0  0  0  0  # atno 10718 bound_to 10713
  154.2990  135.6238  153.5416 H   0  0  0  0  0  0  0  0  0  0  0  0  # atno 10763 bound_to 10752
  152.9843  135.5674  154.5305 H   0  0  0  0  0  0  0  0  0  0  0  0  # atno 10764 bound_to 10752
  154.4932  135.2868  155.1456 H   0  0  0  0  0  0  0  0  0  0  0  0  # atno 10765 bound_to 10752
  140.2799  134.7758  157.3749 H   0  0  0  0  0  0  0  0  0  0  0  0  # atno 11005 bound_to 11000
  145.4734  139.1501  143.3801 LP  0  0  0  0  0  0  0  0  0  0  0  0  # atno 17320 bound_to 7965
  146.2685  140.4868  142.8824 LP  0  0  0  0  0  0  0  0  0  0  0  0  # atno 17321 bound_to 7965
  139.5196  144.7022  151.5459 LP  0  0  0  0  0  0  0  0  0  0  0  0  # atno 17342 bound_to 10162
  140.6354  143.8995  150.6642 LP  0  0  0  0  0  0  0  0  0  0  0  0  # atno 17343 bound_to 10162
  157.0313  131.0008  151.3311 LP  0  0  0  0  0  0  0  0  0  0  0  0  # atno 17370 bound_to 10713
  157.5275  130.8037  149.7879 LP  0  0  0  0  0  0  0  0  0  0  0  0  # atno 17371 bound_to 10713
  140.1293  134.5116  155.8119 LP  0  0  0  0  0  0  0  0  0  0  0  0  # atno 17394 bound_to 11000
  141.2164  133.6784  156.7009 LP  0  0  0  0  0  0  0  0  0  0  0  0  # atno 17395 bound_to 11000

$$$$
