AV-unprocessed.smi:265|AV-procd|sdf|2030|dock9
  -GOLD-   2262021233D 1   1.00000     0.00000
 Structure written by MMmdl.
 52 56  0  0  0  0  0  0  0  0  1 V2000
  149.5101  132.3192  154.1104 C   0  0  0  0  0  0  0  0  0  0  0  0
  148.4269  133.3656  154.4149 C   0  0  1  0  0  0  0  0  0  0  0  0
  147.5325  132.7960  155.3677 O   0  0  0  0  0  0  0  0  0  0  0  0
  147.0032  133.8303  156.1777 C   0  0  0  0  0  0  0  0  0  0  0  0
  148.2135  134.7243  156.3971 C   0  0  0  0  0  0  0  0  0  0  0  0
  148.9039  134.7092  155.0358 C   0  0  2  0  0  0  0  0  0  0  0  0
  148.3528  135.7600  154.2599 O   0  0  0  0  0  0  0  0  0  0  0  0
  150.4382  134.9254  155.1174 C   0  0  0  0  0  0  0  0  0  0  0  0
  150.8139  136.1620  155.7858 N   0  0  0  0  0  0  0  0  0  0  0  0
  151.4388  136.2826  157.0064 C   0  0  0  0  0  0  0  0  0  0  0  0
  151.6685  137.5065  157.3954 N   0  0  0  0  0  0  0  0  0  0  0  0
  151.1786  138.2913  156.3575 C   0  0  0  0  0  0  0  0  0  0  0  0
  151.1075  139.6940  156.1234 C   0  0  0  0  0  0  0  0  0  0  0  0
  151.6013  140.6103  156.9948 N   0  0  0  0  0  0  0  0  0  0  0  0
  152.2319  140.1126  158.2229 C   0  0  0  0  0  0  0  0  0  0  0  0
  153.0364  141.2201  158.9306 C   0  0  0  0  0  0  0  0  0  0  0  0
  152.1479  142.4502  159.1566 C   0  0  1  0  0  0  0  0  0  0  0  0
  152.8717  143.5366  159.7144 O   0  0  0  0  0  0  0  0  0  0  0  0
  152.0396  144.6424  160.0824 C   0  0  0  0  0  0  0  0  0  0  0  0
  151.0353  145.0296  158.9758 C   0  0  0  0  0  0  0  0  0  0  0  0
  150.4334  146.0988  159.0418 O   0  0  0  0  0  0  0  0  0  0  0  0
  150.8172  144.1524  157.9824 N   0  0  0  0  0  0  0  0  0  0  0  0
  151.5968  142.9346  157.8067 C   0  0  2  0  0  0  0  0  0  0  0  0
  150.7810  141.8151  157.1434 C   0  0  0  0  0  0  0  0  0  0  0  0
  150.5192  140.1049  154.9679 N   0  0  0  0  0  0  0  0  0  0  0  0
  150.0470  139.2104  154.0947 C   0  0  0  0  0  0  0  0  0  0  0  0
  150.0582  137.8789  154.1761 N   0  0  0  0  0  0  0  0  0  0  0  0
  150.6337  137.4594  155.3388 C   0  0  0  0  0  0  0  0  0  0  0  0
  151.3325  142.1752  159.8294 H   0  0  0  0  0  0  0  0  0  0  0  0
  152.4317  143.1898  157.1515 H   0  0  0  0  0  0  0  0  0  0  0  0
  150.2239  132.6867  153.3728 H   0  0  0  0  0  0  0  0  0  0  0  0
  149.0627  131.4116  153.7048 H   0  0  0  0  0  0  0  0  0  0  0  0
  150.0590  132.0379  155.0091 H   0  0  0  0  0  0  0  0  0  0  0  0
  147.8608  133.5488  153.4996 H   0  0  0  0  0  0  0  0  0  0  0  0
  146.2145  134.3575  155.6388 H   0  0  0  0  0  0  0  0  0  0  0  0
  146.5895  133.4423  157.1086 H   0  0  0  0  0  0  0  0  0  0  0  0
  147.9533  135.7231  156.7509 H   0  0  0  0  0  0  0  0  0  0  0  0
  148.8561  134.2628  157.1481 H   0  0  0  0  0  0  0  0  0  0  0  0
  148.7957  135.7809  153.4254 H   0  0  0  0  0  0  0  0  0  0  0  0
  150.9106  134.1056  155.6592 H   0  0  0  0  0  0  0  0  0  0  0  0
  150.8778  134.9300  154.1193 H   0  0  0  0  0  0  0  0  0  0  0  0
  151.7163  135.4282  157.6064 H   0  0  0  0  0  0  0  0  0  0  0  0
  151.4597  139.7318  158.8930 H   0  0  0  0  0  0  0  0  0  0  0  0
  152.8952  139.2786  157.9894 H   0  0  0  0  0  0  0  0  0  0  0  0
  153.4238  140.8533  159.8813 H   0  0  0  0  0  0  0  0  0  0  0  0
  153.9009  141.4926  158.3237 H   0  0  0  0  0  0  0  0  0  0  0  0
  151.4829  144.3874  160.9849 H   0  0  0  0  0  0  0  0  0  0  0  0
  152.6709  145.4978  160.3237 H   0  0  0  0  0  0  0  0  0  0  0  0
  150.1368  144.3815  157.2726 H   0  0  0  0  0  0  0  0  0  0  0  0
  150.4042  142.1640  156.1828 H   0  0  0  0  0  0  0  0  0  0  0  0
  149.9085  141.5735  157.7519 H   0  0  0  0  0  0  0  0  0  0  0  0
  149.5970  139.6193  153.2022 H   0  0  0  0  0  0  0  0  0  0  0  0
  1  2  1  0  0  0  0
  1 31  1  0  0  0  0
  1 32  1  0  0  0  0
  1 33  1  0  0  0  0
  2  6  1  0  0  0  0
  2  3  1  0  0  0  0
  2 34  1  0  0  0  0
  3  4  1  0  0  0  0
  4  5  1  0  0  0  0
  4 35  1  0  0  0  0
  4 36  1  0  0  0  0
  5  6  1  0  0  0  0
  5 37  1  0  0  0  0
  5 38  1  0  0  0  0
  6  7  1  0  0  0  0
  6  8  1  0  0  0  0
  7 39  1  0  0  0  0
  8  9  1  0  0  0  0
  8 40  1  0  0  0  0
  8 41  1  0  0  0  0
  9 28  1  0  0  0  0
  9 10  1  0  0  0  0
 10 11  2  0  0  0  0
 10 42  1  0  0  0  0
 11 12  1  0  0  0  0
 12 28  2  0  0  0  0
 12 13  1  0  0  0  0
 13 14  1  0  0  0  0
 13 25  2  0  0  0  0
 14 24  1  0  0  0  0
 14 15  1  0  0  0  0
 15 16  1  0  0  0  0
 15 43  1  0  0  0  0
 15 44  1  0  0  0  0
 16 17  1  0  0  0  0
 16 45  1  0  0  0  0
 16 46  1  0  0  0  0
 17 29  1  0  0  0  0
 17 23  1  0  0  0  0
 17 18  1  0  0  0  0
 18 19  1  0  0  0  0
 19 20  1  0  0  0  0
 19 47  1  0  0  0  0
 19 48  1  0  0  0  0
 20 21  2  0  0  0  0
 20 22  1  0  0  0  0
 22 23  1  0  0  0  0
 22 49  1  0  0  0  0
 23 30  1  0  0  0  0
 23 24  1  0  0  0  0
 24 50  1  0  0  0  0
 24 51  1  0  0  0  0
 25 26  1  0  0  0  0
 26 27  2  0  0  0  0
 26 52  1  0  0  0  0
 27 28  1  0  0  0  0
M  END
> <s_m_source_file>
AV-unprocessed.smi

> <i_m_source_file_index>
265

> <i_lp_mmshare_version>
43012

> <i_f3d_flags>
0

> <s_epik_input>
W0NIMl0xW0NIMl1PW0NAQEhdKFtDSDNdKVtDQEBdMShbT0hdKVtDSDJdbihbY0hdbjIpYyhjMjMpbltjSF1uYzNOKFtDSDJdW0NIMl00KVtDSDJdW0NAQEhdKFtDQEhdNDUpW05IXUMoPU8pW0NIMl1PNQ==

> <s_epik_cmdline>
J2VwaWtfcHl0aG9uJywgJy1waCcsICc3LjAnLCAnLXRuJywgJzgnLCAnLW1hJywgJzIwMCcsICctbWV0YWxfYmluZGluZycsICctaW1hZScsICc8aW5maWxlLm1hZT4nLCAnLW9tYWUnLCAnPG91dGZpbGUubWFlPic=

> <r_lp_tautomer_probability>
1

> <r_epik_Ionization_Penalty>
0.00221504

> <r_epik_Ionization_Penalty_Charging>
0

> <r_epik_Ionization_Penalty_Neutral>
0.00221504

> <r_epik_State_Penalty>
-0

> <r_epik_Charging_Adjusted_Penalty>
0

> <i_epik_Tot_Q>
0

> <i_epik_Tot_abs_Q>
0

> <r_epik_Metal_State_Penalty>
-0

> <b_epik_Metal_Only>
0

> <s_lp_Force_Field>
OPLS_2005

> <r_lp_Energy>
44.2788

> <b_lp_Chiralities_Consistent>
1

> <s_lp_Variant>
AV-unprocessed.smi:265-16

> <Gold.Version>
5.8.1

> <Gold.Id.Protein>
6NUR|6NUR_protein|mol2

> <Gold.PLP.Fitness>
46.8306

> <Gold.PLP.PLP>
-36.8464

> <Gold.PLP.part.hbond>
-5.0848

> <Gold.PLP.part.metal>
0.0000

> <Gold.PLP.part.buried>
-3.1014

> <Gold.PLP.part.nonpolar>
-30.7981

> <Gold.PLP.part.repulsive>
1.6708

> <Gold.PLP.ligand.clash>
0.0000

> <Gold.PLP.ligand.torsion>
0.3799

> <Gold.PLP.Chemscore.Hbond>
2.4413

> <Gold.PLP.Chemscore.CHOScore>
1.0000

> <Gold.PLP.Chemscore.Metal>
0.0000

> <Gold.Chemscore.Hbonds>
donor molecule, donor type, donor heavy atom, donor atom, acceptor molecule, acceptor atom, score
      L1  H     7    39       P1  7948  1.00
      L1  H    22    49       P1  8028  0.98
      P1  H  7989  7998       L1    25  0.40
      L1  C    26    52       P1  7957  1.00

> <Gold.PLP.Chemscore.Internal.Correction>
0.4203

> <Gold.Rescore>
     Score         DG    S(hbond)    S(metal)    S(lipo)     H(rot)  DE(clash)    DE(int)     intcor
     10.65     -12.85       1.00        0.00      83.74       2.25       0.15       2.05       ----

> <Gold.Chemscore.Fitness>
10.6548

> <Gold.Chemscore.DG>
-12.8541

> <Gold.Chemscore.ZeroCoef>
-5.4800

> <Gold.Chemscore.Hbond>
0.9953

> <Gold.Chemscore.Metal>
0.0000

> <Gold.Chemscore.Lipo>
83.7400

> <Gold.Chemscore.Internal_Hbond>
0.0000

> <Gold.Chemscore.DEClash>
0.1481

> <Gold.Chemscore.DEInternal>
2.0511

> <Gold.Chemscore.Rot>
2.2453

> <Gold.Chemscore.Internal.Correction>
   9.000000E+99

> <Gold.Chemscore.Hbonds>
donor molecule, donor type, donor heavy atom, donor atom, acceptor molecule, acceptor atom, score
      L1  H     7    39       P1  7948  0.95
      L1  H    22    49       P1  8028  0.51
      P1  H  7989  7998       L1    25  0.01

> <Gold.Chemscore.Hbond.Weighted>
-3.3244

> <Gold.Chemscore.Metal.Weighted>
-0.0000

> <Gold.Chemscore.Lipo.Weighted>
-9.7976

> <Gold.Chemscore.Internal_Hbond.Weighted>
0.0000

> <Gold.Chemscore.DEClash.Weighted>
0.1481

> <Gold.Chemscore.DEInternal.Weighted>
2.0511

> <Gold.Chemscore.Rot.Weighted>
5.7479

> <Gold.Chemscore.Internal.Correction.Weighted>
   9.000000E+99

> <Gold.Protein.RotatedTorsions>
[ 6907 6896 6895 6894 ] final   63.93 input  -60.11 | X-H torsion
[ 7974 7965 7964 7962 ] final -176.90 input  175.53 | X-H torsion
[ 8008 7997 7996 7995 ] final  109.53 input   59.86 | X-H torsion
[ 10167 10162 10161 10158 ] final   82.25 input  -65.29 | X-H torsion
[ 10718 10713 10712 10709 ] final  152.79 input   66.30 | X-H torsion
[ 10763 10752 10751 10750 ] final   18.03 input  -60.55 | X-H torsion
[ 11005 11000 10999 10996 ] final  -99.37 input  -57.11 | X-H torsion

> <Gold.Protein.ActiveResidues>
 VAL166  LYS551  ARG553  GLY616  TRP617  ASP618  TYR619  PRO620  LYS621  CYS622 
 ASP623  PHE694  ASN695  SER759  ASP760  ASP761  ALA762  ILE779  LEU786  VAL792 
 PHE793  MET794  SER795  GLU796  ALA797  LYS798  CYS799  TRP800  GLU811  SER814 

> <Gold.Protein.RotatedAtoms>
  152.4292  134.5811  159.9947 H   0  0  0  0  0  0  0  0  0  0  0  0  # atno 6907 bound_to 6896
  151.5939  133.3358  159.3041 H   0  0  0  0  0  0  0  0  0  0  0  0  # atno 6908 bound_to 6896
  150.8183  134.7413  159.6815 H   0  0  0  0  0  0  0  0  0  0  0  0  # atno 6909 bound_to 6896
  144.7127  140.1100  143.6411 H   0  0  0  0  0  0  0  0  0  0  0  0  # atno 7974 bound_to 7965
  156.1986  140.3056  155.9478 H   0  0  0  0  0  0  0  0  0  0  0  0  # atno 8008 bound_to 7997
  155.3008  140.0446  157.3046 H   0  0  0  0  0  0  0  0  0  0  0  0  # atno 8009 bound_to 7997
  154.5541  140.2300  155.8447 H   0  0  0  0  0  0  0  0  0  0  0  0  # atno 8010 bound_to 7997
  139.9307  144.6154  150.8348 H   0  0  0  0  0  0  0  0  0  0  0  0  # atno 10167 bound_to 10162
  157.2531  131.0783  151.1716 H   0  0  0  0  0  0  0  0  0  0  0  0  # atno 10718 bound_to 10713
  153.1285  135.6735  153.9217 H   0  0  0  0  0  0  0  0  0  0  0  0  # atno 10763 bound_to 10752
  153.8710  135.3069  155.3443 H   0  0  0  0  0  0  0  0  0  0  0  0  # atno 10764 bound_to 10752
  154.7686  135.4951  153.9685 H   0  0  0  0  0  0  0  0  0  0  0  0  # atno 10765 bound_to 10752
  141.1311  133.8316  157.0962 H   0  0  0  0  0  0  0  0  0  0  0  0  # atno 11005 bound_to 11000
  145.9462  139.2703  143.1239 LP  0  0  0  0  0  0  0  0  0  0  0  0  # atno 17320 bound_to 7965
  145.9371  140.9007  143.0327 LP  0  0  0  0  0  0  0  0  0  0  0  0  # atno 17321 bound_to 7965
  140.7638  143.3232  151.2574 LP  0  0  0  0  0  0  0  0  0  0  0  0  # atno 17342 bound_to 10162
  139.6784  143.9896  152.2794 LP  0  0  0  0  0  0  0  0  0  0  0  0  # atno 17343 bound_to 10162
  157.3256  130.6959  149.6294 LP  0  0  0  0  0  0  0  0  0  0  0  0  # atno 17370 bound_to 10713
  155.9665  130.4322  150.4955 LP  0  0  0  0  0  0  0  0  0  0  0  0  # atno 17371 bound_to 10713
  140.0361  134.9877  157.0874 LP  0  0  0  0  0  0  0  0  0  0  0  0  # atno 17394 bound_to 11000
  140.4208  134.1883  155.7164 LP  0  0  0  0  0  0  0  0  0  0  0  0  # atno 17395 bound_to 11000

$$$$
