AV-unprocessed.smi:2740|AV-procd|sdf|10556|dock6
  -GOLD-   2272015 03D 1   1.00000     0.00000
 Structure written by MMmdl.
 30 31  0  0  0  0  0  0  0  0  2 V2000
  149.3108  138.9136  153.8906 C   0  0  0  0  0  0  0  0  0  0  0  0
  150.5737  138.7046  154.6556 C   0  0  0  0  0  0  0  0  0  0  0  0
  151.5986  137.8447  154.3571 C   0  0  0  0  0  0  0  0  0  0  0  0
  152.6503  137.8845  155.2738 N   0  0  0  0  0  0  0  0  0  0  0  0
  152.4591  138.7631  156.2635 C   0  0  0  0  0  0  0  0  0  0  0  0
  153.3481  138.9595  157.2510 N   0  5  0  0  0  0  0  0  0  0  0  0
  152.9210  139.3302  158.4798 C   0  0  0  0  0  0  0  0  0  0  0  0
  152.0433  138.7759  159.1459 O   0  0  0  0  0  0  0  0  0  0  0  0
  153.5493  140.4091  158.9687 N   0  0  0  0  0  0  0  0  0  0  0  0
  153.2934  141.0296  160.2642 C   0  0  0  0  0  0  0  0  0  0  0  0
  153.0933  142.5489  160.1366 C   0  0  2  0  0  0  0  0  0  0  0  0
  152.3860  143.1800  161.3353 C   0  0  0  0  0  0  0  0  0  0  0  0
  151.6912  144.4005  160.7483 C   0  0  0  0  0  0  0  0  0  0  0  0
  151.8147  144.2107  159.2341 C   0  0  0  0  0  0  0  0  0  0  0  0
  152.2112  142.8577  159.0686 O   0  0  0  0  0  0  0  0  0  0  0  0
  150.9089  139.5945  156.1166 S   0  0  0  0  0  0  0  0  0  0  0  0
  149.5238  139.3060  152.8962 H   0  0  0  0  0  0  0  0  0  0  0  0
  148.6539  139.6208  154.3976 H   0  0  0  0  0  0  0  0  0  0  0  0
  148.7691  137.9749  153.7746 H   0  0  0  0  0  0  0  0  0  0  0  0
  151.6632  137.1704  153.5162 H   0  0  0  0  0  0  0  0  0  0  0  0
  154.2644  140.8302  158.3939 H   0  0  0  0  0  0  0  0  0  0  0  0
  152.4069  140.5683  160.6998 H   0  0  0  0  0  0  0  0  0  0  0  0
  154.1189  140.8136  160.9445 H   0  0  0  0  0  0  0  0  0  0  0  0
  154.0468  143.0535  159.9691 H   0  0  0  0  0  0  0  0  0  0  0  0
  151.6389  142.4950  161.7384 H   0  0  0  0  0  0  0  0  0  0  0  0
  153.0782  143.4317  162.1392 H   0  0  0  0  0  0  0  0  0  0  0  0
  150.6472  144.4339  161.0617 H   0  0  0  0  0  0  0  0  0  0  0  0
  152.1666  145.3298  161.0635 H   0  0  0  0  0  0  0  0  0  0  0  0
  150.8834  144.4188  158.7069 H   0  0  0  0  0  0  0  0  0  0  0  0
  152.5895  144.8624  158.8275 H   0  0  0  0  0  0  0  0  0  0  0  0
  1  2  1  0  0  0  0
  1 17  1  0  0  0  0
  1 18  1  0  0  0  0
  1 19  1  0  0  0  0
  2 16  1  0  0  0  0
  2  3  2  0  0  0  0
  3  4  1  0  0  0  0
  3 20  1  0  0  0  0
  4  5  2  0  0  0  0
  5  6  1  0  0  0  0
  5 16  1  0  0  0  0
  6  7  1  0  0  0  0
  7  8  2  0  0  0  0
  7  9  1  0  0  0  0
  9 10  1  0  0  0  0
  9 21  1  0  0  0  0
 10 11  1  0  0  0  0
 10 22  1  0  0  0  0
 10 23  1  0  0  0  0
 11 15  1  0  0  0  0
 11 12  1  0  0  0  0
 11 24  1  0  0  0  0
 12 13  1  0  0  0  0
 12 25  1  0  0  0  0
 12 26  1  0  0  0  0
 13 14  1  0  0  0  0
 13 27  1  0  0  0  0
 13 28  1  0  0  0  0
 14 15  1  0  0  0  0
 14 29  1  0  0  0  0
 14 30  1  0  0  0  0
M  CHG  1   6  -1
M  END
> <s_m_source_file>
AV-unprocessed.smi

> <i_m_source_file_index>
2740

> <i_lp_mmshare_version>
43012

> <i_f3d_flags>
0

> <s_epik_input>
W0NIM11jMVtjSF1uYyhzMSlbTkhdQyg9TylbTkhdW0NIMl1bQ0BASF0yW0NIMl1bQ0gyXVtDSDJdTzI=

> <s_epik_cmdline>
J2VwaWtfcHl0aG9uJywgJy1waCcsICc3LjAnLCAnLXRuJywgJzgnLCAnLW1hJywgJzIwMCcsICctbWV0YWxfYmluZGluZycsICctaW1hZScsICc8aW5maWxlLm1hZT4nLCAnLW9tYWUnLCAnPG91dGZpbGUubWFlPic=

> <r_lp_tautomer_probability>
0.999

> <r_epik_Ionization_Penalty>
8.54039

> <r_epik_Ionization_Penalty_Charging>
6.77868

> <r_epik_Ionization_Penalty_Neutral>
1.76171

> <r_epik_State_Penalty>
6.77885

> <r_epik_Charging_Adjusted_Penalty>
13.5575

> <i_epik_Tot_Q>
-1

> <i_epik_Tot_abs_Q>
1

> <r_epik_Metal_State_Penalty>
2.69888

> <b_epik_Metal_Only>
1

> <s_lp_Force_Field>
OPLS_2005

> <r_lp_Energy>
13.1736

> <b_lp_Chiralities_Consistent>
1

> <s_lp_Variant>
AV-unprocessed.smi:2740-3

> <Gold.Version>
5.8.1

> <Gold.Id.Protein>
6NUR|6NUR_protein|mol2

> <Gold.PLP.Fitness>
42.2325

> <Gold.PLP.PLP>
-34.8726

> <Gold.PLP.part.hbond>
-1.9145

> <Gold.PLP.part.metal>
0.0000

> <Gold.PLP.part.buried>
-2.7936

> <Gold.PLP.part.nonpolar>
-30.8903

> <Gold.PLP.part.repulsive>
0.4764

> <Gold.PLP.ligand.clash>
0.0000

> <Gold.PLP.ligand.torsion>
0.8307

> <Gold.PLP.Chemscore.Hbond>
2.0000

> <Gold.PLP.Chemscore.CHOScore>
1.0000

> <Gold.PLP.Chemscore.Metal>
0.0000

> <Gold.Chemscore.Hbonds>
donor molecule, donor type, donor heavy atom, donor atom, acceptor molecule, acceptor atom, score
      P1  H  7997  8009       L1     6  2.00
      L1  C     3    20       P1  7949  1.00

> <Gold.PLP.Chemscore.Internal.Correction>
0.0215

> <Gold.Rescore>
     Score         DG    S(hbond)    S(metal)    S(lipo)     H(rot)  DE(clash)    DE(int)     intcor
     12.80     -13.35       0.43        0.00      82.52       1.25       0.00       0.56       ----

> <Gold.Chemscore.Fitness>
12.7970

> <Gold.Chemscore.DG>
-13.3549

> <Gold.Chemscore.ZeroCoef>
-5.4800

> <Gold.Chemscore.Hbond>
0.4263

> <Gold.Chemscore.Metal>
0.0000

> <Gold.Chemscore.Lipo>
82.5170

> <Gold.Chemscore.Internal_Hbond>
0.0000

> <Gold.Chemscore.DEClash>
0.0000

> <Gold.Chemscore.DEInternal>
0.5579

> <Gold.Chemscore.Rot>
1.2514

> <Gold.Chemscore.Internal.Correction>
   9.000000E+99

> <Gold.Chemscore.Hbonds>
donor molecule, donor type, donor heavy atom, donor atom, acceptor molecule, acceptor atom, score
      P1  H  7997  8009       L1     6  0.42

> <Gold.Chemscore.Hbond.Weighted>
-1.4240

> <Gold.Chemscore.Metal.Weighted>
-0.0000

> <Gold.Chemscore.Lipo.Weighted>
-9.6545

> <Gold.Chemscore.Internal_Hbond.Weighted>
0.0000

> <Gold.Chemscore.DEClash.Weighted>
0.0000

> <Gold.Chemscore.DEInternal.Weighted>
0.5579

> <Gold.Chemscore.Rot.Weighted>
3.2036

> <Gold.Chemscore.Internal.Correction.Weighted>
   9.000000E+99

> <Gold.Protein.RotatedTorsions>
[ 6907 6896 6895 6894 ] final   67.98 input  -60.11 | X-H torsion
[ 7974 7965 7964 7962 ] final -137.99 input  175.53 | X-H torsion
[ 8008 7997 7996 7995 ] final  174.42 input   59.86 | X-H torsion
[ 10167 10162 10161 10158 ] final -173.49 input  -65.29 | X-H torsion
[ 10718 10713 10712 10709 ] final   23.51 input   66.30 | X-H torsion
[ 10763 10752 10751 10750 ] final  -73.45 input  -60.55 | X-H torsion
[ 11005 11000 10999 10996 ] final   25.81 input  -57.11 | X-H torsion

> <Gold.Protein.ActiveResidues>
 VAL166  LYS551  ARG553  GLY616  TRP617  ASP618  TYR619  PRO620  LYS621  CYS622 
 ASP623  PHE694  ASN695  SER759  ASP760  ASP761  ALA762  ILE779  LEU786  VAL792 
 PHE793  MET794  SER795  GLU796  ALA797  LYS798  CYS799  TRP800  GLU811  SER814 

> <Gold.Protein.RotatedAtoms>
  152.4589  134.5229  159.9787 H   0  0  0  0  0  0  0  0  0  0  0  0  # atno 6907 bound_to 6896
  151.5283  133.3448  159.2921 H   0  0  0  0  0  0  0  0  0  0  0  0  # atno 6908 bound_to 6896
  150.8544  134.7908  159.7096 H   0  0  0  0  0  0  0  0  0  0  0  0  # atno 6909 bound_to 6896
  144.8796  140.6487  143.5215 H   0  0  0  0  0  0  0  0  0  0  0  0  # atno 7974 bound_to 7965
  156.0976  140.1435  156.9510 H   0  0  0  0  0  0  0  0  0  0  0  0  # atno 8008 bound_to 7997
  154.4681  140.0919  156.7120 H   0  0  0  0  0  0  0  0  0  0  0  0  # atno 8009 bound_to 7997
  155.4815  140.3445  155.4343 H   0  0  0  0  0  0  0  0  0  0  0  0  # atno 8010 bound_to 7997
  139.5685  144.1697  152.1349 H   0  0  0  0  0  0  0  0  0  0  0  0  # atno 10167 bound_to 10162
  157.1671  130.6743  149.6064 H   0  0  0  0  0  0  0  0  0  0  0  0  # atno 10718 bound_to 10713
  154.4597  135.5897  153.6247 H   0  0  0  0  0  0  0  0  0  0  0  0  # atno 10763 bound_to 10752
  152.9822  135.6041  154.3502 H   0  0  0  0  0  0  0  0  0  0  0  0  # atno 10764 bound_to 10752
  154.3372  135.2842  155.2420 H   0  0  0  0  0  0  0  0  0  0  0  0  # atno 10765 bound_to 10752
  140.3438  134.2303  155.7687 H   0  0  0  0  0  0  0  0  0  0  0  0  # atno 11005 bound_to 11000
  145.3979  139.1603  143.4193 LP  0  0  0  0  0  0  0  0  0  0  0  0  # atno 17320 bound_to 7965
  146.2985  140.4074  142.8712 LP  0  0  0  0  0  0  0  0  0  0  0  0  # atno 17321 bound_to 7965
  140.1225  144.5360  150.6854 LP  0  0  0  0  0  0  0  0  0  0  0  0  # atno 17342 bound_to 10162
  140.6969  143.2410  151.4974 LP  0  0  0  0  0  0  0  0  0  0  0  0  # atno 17343 bound_to 10162
  155.9744  130.4691  150.6385 LP  0  0  0  0  0  0  0  0  0  0  0  0  # atno 17370 bound_to 10713
  157.4078  131.0819  151.1249 LP  0  0  0  0  0  0  0  0  0  0  0  0  # atno 17371 bound_to 10713
  141.2031  133.7921  157.0357 LP  0  0  0  0  0  0  0  0  0  0  0  0  # atno 17394 bound_to 11000
  140.0759  134.9676  157.1544 LP  0  0  0  0  0  0  0  0  0  0  0  0  # atno 17395 bound_to 11000

$$$$
