AV-unprocessed.smi:634|AV-procd|sdf|3134|dock7
  -GOLD-   22720 0 63D 1   1.00000     0.00000
 Structure written by MMmdl.
 33 34  0  0  0  0  0  0  0  0  1 V2000
  140.2362  138.9129  153.3293 C   0  0  0  0  0  0  0  0  0  0  0  0
  140.6430  137.4861  153.4702 C   0  0  0  0  0  0  0  0  0  0  0  0
  141.7595  136.7946  153.0917 C   0  0  0  0  0  0  0  0  0  0  0  0
  141.4846  135.4742  153.5375 C   0  0  0  0  0  0  0  0  0  0  0  0
  142.4194  134.4270  153.3337 N   0  0  0  0  0  0  0  0  0  0  0  0
  143.3853  134.3605  152.4015 C   0  0  0  0  0  0  0  0  0  0  0  0
  143.6217  135.2342  151.5672 O   0  0  0  0  0  0  0  0  0  0  0  0
  144.0689  133.2075  152.4961 N   0  0  0  0  0  0  0  0  0  0  0  0
  145.1924  132.7446  151.6688 C   0  0  2  0  0  0  0  0  0  0  0  0
  144.7569  132.6092  150.1938 C   0  0  0  0  0  0  0  0  0  0  0  0
  145.6236  131.3624  152.2164 C   0  0  0  0  0  0  0  0  0  0  0  0
  146.4212  131.5458  153.5130 C   0  0  0  0  0  0  0  0  0  0  0  0
  147.3368  133.1154  153.3079 S   0  0  0  0  0  0  0  0  0  0  0  0
  147.0246  134.0005  154.4402 O   0  0  0  0  0  0  0  0  0  0  0  0
  148.7293  132.8272  152.9324 O   0  0  0  0  0  0  0  0  0  0  0  0
  146.4205  133.6743  151.8205 C   0  0  0  0  0  0  0  0  0  0  0  0
  140.3070  135.3694  154.1340 N   0  0  0  0  0  0  0  0  0  0  0  0
  139.7615  136.6579  154.0932 O   0  0  0  0  0  0  0  0  0  0  0  0
  141.0929  139.5399  153.0816 H   0  0  0  0  0  0  0  0  0  0  0  0
  139.8025  139.2862  154.2570 H   0  0  0  0  0  0  0  0  0  0  0  0
  139.4941  139.0260  152.5391 H   0  0  0  0  0  0  0  0  0  0  0  0
  142.6303  137.1755  152.5791 H   0  0  0  0  0  0  0  0  0  0  0  0
  142.3386  133.6406  153.9610 H   0  0  0  0  0  0  0  0  0  0  0  0
  143.7808  132.5716  153.2253 H   0  0  0  0  0  0  0  0  0  0  0  0
  145.5479  132.1675  149.5869 H   0  0  0  0  0  0  0  0  0  0  0  0
  144.5179  133.5742  149.7472 H   0  0  0  0  0  0  0  0  0  0  0  0
  143.8773  131.9719  150.0975 H   0  0  0  0  0  0  0  0  0  0  0  0
  144.7751  130.6926  152.3623 H   0  0  0  0  0  0  0  0  0  0  0  0
  146.2754  130.8778  151.4881 H   0  0  0  0  0  0  0  0  0  0  0  0
  145.7549  131.6527  154.3690 H   0  0  0  0  0  0  0  0  0  0  0  0
  147.1133  130.7269  153.7091 H   0  0  0  0  0  0  0  0  0  0  0  0
  147.0931  133.5604  150.9698 H   0  0  0  0  0  0  0  0  0  0  0  0
  146.1814  134.7339  151.9075 H   0  0  0  0  0  0  0  0  0  0  0  0
  1  2  1  0  0  0  0
  1 19  1  0  0  0  0
  1 20  1  0  0  0  0
  1 21  1  0  0  0  0
  2 18  1  0  0  0  0
  2  3  2  0  0  0  0
  3  4  1  0  0  0  0
  3 22  1  0  0  0  0
  4  5  1  0  0  0  0
  4 17  2  0  0  0  0
  5  6  1  0  0  0  0
  5 23  1  0  0  0  0
  6  7  2  0  0  0  0
  6  8  1  0  0  0  0
  8  9  1  0  0  0  0
  8 24  1  0  0  0  0
  9 16  1  0  0  0  0
  9 10  1  0  0  0  0
  9 11  1  0  0  0  0
 10 25  1  0  0  0  0
 10 26  1  0  0  0  0
 10 27  1  0  0  0  0
 11 12  1  0  0  0  0
 11 28  1  0  0  0  0
 11 29  1  0  0  0  0
 12 13  1  0  0  0  0
 12 30  1  0  0  0  0
 12 31  1  0  0  0  0
 13 14  2  0  0  0  0
 13 15  2  0  0  0  0
 13 16  1  0  0  0  0
 16 32  1  0  0  0  0
 16 33  1  0  0  0  0
 17 18  1  0  0  0  0
M  END
> <s_m_source_file>
AV-unprocessed.smi

> <i_m_source_file_index>
634

> <i_lp_mmshare_version>
43012

> <i_f3d_flags>
0

> <s_epik_input>
W0NIM11jMVtjSF1jKG5vMSlbTkhdQyg9TylbTkhdW0NAQF0yKFtDSDNdKVtDSDJdW0NIMl1TKD1PKSg9TylbQ0gyXTI=

> <s_epik_cmdline>
J2VwaWtfcHl0aG9uJywgJy1waCcsICc3LjAnLCAnLXRuJywgJzgnLCAnLW1hJywgJzIwMCcsICctbWV0YWxfYmluZGluZycsICctaW1hZScsICc8aW5maWxlLm1hZT4nLCAnLW9tYWUnLCAnPG91dGZpbGUubWFlPic=

> <r_lp_tautomer_probability>
1

> <r_epik_Ionization_Penalty>
3.87281e-05

> <r_epik_Ionization_Penalty_Charging>
0

> <r_epik_Ionization_Penalty_Neutral>
3.87281e-05

> <r_epik_State_Penalty>
-0

> <r_epik_Charging_Adjusted_Penalty>
0

> <i_epik_Tot_Q>
0

> <i_epik_Tot_abs_Q>
0

> <r_epik_Metal_State_Penalty>
0.0249287

> <b_epik_Metal_Only>
0

> <s_lp_Force_Field>
OPLS_2005

> <r_lp_Energy>
3.31823

> <b_lp_Chiralities_Consistent>
1

> <s_lp_Variant>
AV-unprocessed.smi:634-2

> <Gold.Version>
5.8.1

> <Gold.Id.Protein>
6NUR|6NUR_protein|mol2

> <Gold.PLP.Fitness>
36.1740

> <Gold.PLP.PLP>
-27.5845

> <Gold.PLP.part.hbond>
-3.7522

> <Gold.PLP.part.metal>
0.0000

> <Gold.PLP.part.buried>
-6.5945

> <Gold.PLP.part.nonpolar>
-18.4548

> <Gold.PLP.part.repulsive>
0.7074

> <Gold.PLP.ligand.clash>
0.0000

> <Gold.PLP.ligand.torsion>
0.1247

> <Gold.PLP.Chemscore.Hbond>
2.9417

> <Gold.PLP.Chemscore.CHOScore>
0.0000

> <Gold.PLP.Chemscore.Metal>
0.0000

> <Gold.Chemscore.Hbonds>
donor molecule, donor type, donor heavy atom, donor atom, acceptor molecule, acceptor atom, score
      L1  H     5    23       P1 10957  0.93
      L1  H     8    24       P1 10957  0.86
      P1  H 11000 11005       L1    17  1.00

> <Gold.PLP.Chemscore.Internal.Correction>
0.0139

> <Gold.Rescore>
     Score         DG    S(hbond)    S(metal)    S(lipo)     H(rot)  DE(clash)    DE(int)     intcor
     14.36     -15.81       2.05        0.00      51.59       1.00       0.03       1.42       ----

> <Gold.Chemscore.Fitness>
14.3564

> <Gold.Chemscore.DG>
-15.8063

> <Gold.Chemscore.ZeroCoef>
-5.4800

> <Gold.Chemscore.Hbond>
2.0511

> <Gold.Chemscore.Metal>
0.0000

> <Gold.Chemscore.Lipo>
51.5862

> <Gold.Chemscore.Internal_Hbond>
0.0000

> <Gold.Chemscore.DEClash>
0.0270

> <Gold.Chemscore.DEInternal>
1.4229

> <Gold.Chemscore.Rot>
1.0000

> <Gold.Chemscore.Internal.Correction>
   9.000000E+99

> <Gold.Chemscore.Hbonds>
donor molecule, donor type, donor heavy atom, donor atom, acceptor molecule, acceptor atom, score
      L1  H     5    23       P1 10957  0.88
      L1  H     8    24       P1 10957  0.19
      P1  H 11000 11005       L1    17  0.93

> <Gold.Chemscore.Hbond.Weighted>
-6.8507

> <Gold.Chemscore.Metal.Weighted>
-0.0000

> <Gold.Chemscore.Lipo.Weighted>
-6.0356

> <Gold.Chemscore.Internal_Hbond.Weighted>
0.0000

> <Gold.Chemscore.DEClash.Weighted>
0.0270

> <Gold.Chemscore.DEInternal.Weighted>
1.4229

> <Gold.Chemscore.Rot.Weighted>
2.5600

> <Gold.Chemscore.Internal.Correction.Weighted>
   9.000000E+99

> <Gold.Protein.RotatedTorsions>
[ 6907 6896 6895 6894 ] final   89.60 input  -60.11 | X-H torsion
[ 7974 7965 7964 7962 ] final -171.88 input  175.53 | X-H torsion
[ 8008 7997 7996 7995 ] final  160.71 input   59.86 | X-H torsion
[ 10167 10162 10161 10158 ] final   66.56 input  -65.29 | X-H torsion
[ 10718 10713 10712 10709 ] final  -10.47 input   66.30 | X-H torsion
[ 10763 10752 10751 10750 ] final -117.20 input  -60.55 | X-H torsion
[ 11005 11000 10999 10996 ] final   38.04 input  -57.11 | X-H torsion

> <Gold.Protein.ActiveResidues>
 VAL166  LYS551  ARG553  GLY616  TRP617  ASP618  TYR619  PRO620  LYS621  CYS622 
 ASP623  PHE694  ASN695  SER759  ASP760  ASP761  ALA762  ILE779  LEU786  VAL792 
 PHE793  MET794  SER795  GLU796  ALA797  LYS798  CYS799  TRP800  GLU811  SER814 

> <Gold.Protein.RotatedAtoms>
  152.5437  134.1941  159.8685 H   0  0  0  0  0  0  0  0  0  0  0  0  # atno 6907 bound_to 6896
  151.1934  133.4646  159.2602 H   0  0  0  0  0  0  0  0  0  0  0  0  # atno 6908 bound_to 6896
  151.1060  135.0012  159.8527 H   0  0  0  0  0  0  0  0  0  0  0  0  # atno 6909 bound_to 6896
  144.7152  140.1856  143.6354 H   0  0  0  0  0  0  0  0  0  0  0  0  # atno 7974 bound_to 7965
  156.2154  140.1797  156.7601 H   0  0  0  0  0  0  0  0  0  0  0  0  # atno 8008 bound_to 7997
  154.5783  140.0670  156.9096 H   0  0  0  0  0  0  0  0  0  0  0  0  # atno 8009 bound_to 7997
  155.2548  140.3331  155.4281 H   0  0  0  0  0  0  0  0  0  0  0  0  # atno 8010 bound_to 7997
  140.0991  144.4919  150.7049 H   0  0  0  0  0  0  0  0  0  0  0  0  # atno 10167 bound_to 10162
  156.6731  130.5015  149.5994 H   0  0  0  0  0  0  0  0  0  0  0  0  # atno 10718 bound_to 10713
  154.8546  135.4318  154.1942 H   0  0  0  0  0  0  0  0  0  0  0  0  # atno 10763 bound_to 10752
  153.3003  135.6968  153.7215 H   0  0  0  0  0  0  0  0  0  0  0  0  # atno 10764 bound_to 10752
  153.6347  135.3478  155.3027 H   0  0  0  0  0  0  0  0  0  0  0  0  # atno 10765 bound_to 10752
  140.2165  134.3692  155.8024 H   0  0  0  0  0  0  0  0  0  0  0  0  # atno 11005 bound_to 11000
  145.8816  139.2326  143.1602 LP  0  0  0  0  0  0  0  0  0  0  0  0  # atno 17320 bound_to 7965
  145.9989  140.8538  143.0028 LP  0  0  0  0  0  0  0  0  0  0  0  0  # atno 17321 bound_to 7965
  140.6987  143.2420  151.4926 LP  0  0  0  0  0  0  0  0  0  0  0  0  # atno 17342 bound_to 10162
  139.5681  144.1993  152.1796 LP  0  0  0  0  0  0  0  0  0  0  0  0  # atno 17343 bound_to 10162
  156.1924  130.6568  151.1076 LP  0  0  0  0  0  0  0  0  0  0  0  0  # atno 17370 bound_to 10713
  157.7070  131.0752  150.6632 LP  0  0  0  0  0  0  0  0  0  0  0  0  # atno 17371 bound_to 10713
  141.2224  133.7171  156.8505 LP  0  0  0  0  0  0  0  0  0  0  0  0  # atno 17394 bound_to 11000
  140.1894  134.8976  157.3043 LP  0  0  0  0  0  0  0  0  0  0  0  0  # atno 17395 bound_to 11000

$$$$
