AV-unprocessed.smi:35|AV-procd|sdf|248|dock2
  -GOLD-   2262016 03D 1   1.00000     0.00000
 Structure written by MMmdl.
 29 30  0  0  0  0  0  0  0  0  1 V2000
  151.3164  135.4446  155.6052 O   0  0  0  0  0  0  0  0  0  0  0  0
  150.9733  136.6184  155.4823 C   0  0  0  0  0  0  0  0  0  0  0  0
  151.9348  137.6270  155.3692 N   0  0  0  0  0  0  0  0  0  0  0  0
  151.6677  138.9904  155.2263 C   0  0  0  0  0  0  0  0  0  0  0  0
  152.5965  139.7941  155.1569 O   0  0  0  0  0  0  0  0  0  0  0  0
  150.3100  139.3802  155.1813 N   0  0  0  0  0  0  0  0  0  0  0  0
  149.9546  140.8438  155.0293 C   0  0  1  0  0  0  0  0  0  0  0  0
  148.9942  140.9628  154.0236 O   0  0  0  0  0  0  0  0  0  0  0  0
  148.0244  141.9269  154.4131 C   0  0  1  0  0  0  0  0  0  0  0  0
  146.7284  141.7722  153.5975 C   0  0  0  0  0  0  0  0  0  0  0  0
  146.2131  140.4659  153.7412 O   0  0  0  0  0  0  0  0  0  0  0  0
  147.9209  141.7512  155.9352 C   0  0  1  0  0  0  0  0  0  0  0  0
  147.0441  140.6885  156.2706 O   0  0  0  0  0  0  0  0  0  0  0  0
  149.3700  141.4609  156.3202 C   0  0  1  0  0  0  0  0  0  0  0  0
  149.4956  140.6732  157.4930 O   0  0  0  0  0  0  0  0  0  0  0  0
  149.3202  138.4138  155.2994 C   0  0  0  0  0  0  0  0  0  0  0  0
  149.5957  137.0967  155.4432 C   0  0  0  0  0  0  0  0  0  0  0  0
  148.0409  135.8795  155.6004 Br  0  0  0  0  0  0  0  0  0  0  0  0
  152.9042  137.3457  155.3981 H   0  0  0  0  0  0  0  0  0  0  0  0
  150.8545  141.3588  154.6891 H   0  0  0  0  0  0  0  0  0  0  0  0
  148.4588  142.9068  154.2049 H   0  0  0  0  0  0  0  0  0  0  0  0
  145.9778  142.4750  153.9599 H   0  0  0  0  0  0  0  0  0  0  0  0
  146.8847  141.9954  152.5421 H   0  0  0  0  0  0  0  0  0  0  0  0
  145.3649  140.4303  153.3259 H   0  0  0  0  0  0  0  0  0  0  0  0
  147.5504  142.6561  156.4179 H   0  0  0  0  0  0  0  0  0  0  0  0
  146.7989  140.7789  157.1785 H   0  0  0  0  0  0  0  0  0  0  0  0
  149.8889  142.4061  156.4854 H   0  0  0  0  0  0  0  0  0  0  0  0
  150.1113  139.9771  157.3213 H   0  0  0  0  0  0  0  0  0  0  0  0
  148.2832  138.7142  155.2801 H   0  0  0  0  0  0  0  0  0  0  0  0
  1  2  2  0  0  0  0
  2 17  1  0  0  0  0
  2  3  1  0  0  0  0
  3 19  1  0  0  0  0
  3  4  1  0  0  0  0
  4  5  2  0  0  0  0
  4  6  1  0  0  0  0
  6  7  1  0  0  0  0
  6 16  1  0  0  0  0
  7 14  1  0  0  0  0
  7  8  1  0  0  0  0
  7 20  1  0  0  0  0
  8  9  1  0  0  0  0
  9 10  1  0  0  0  0
  9 12  1  0  0  0  0
  9 21  1  0  0  0  0
 10 11  1  0  0  0  0
 10 22  1  0  0  0  0
 10 23  1  0  0  0  0
 11 24  1  0  0  0  0
 12 13  1  0  0  0  0
 12 14  1  0  0  0  0
 12 25  1  0  0  0  0
 13 26  1  0  0  0  0
 14 15  1  0  0  0  0
 14 27  1  0  0  0  0
 15 28  1  0  0  0  0
 16 17  2  0  0  0  0
 16 29  1  0  0  0  0
 17 18  1  0  0  0  0
M  END
> <s_m_source_file>
AV-unprocessed.smi

> <i_m_source_file_index>
35

> <i_lp_mmshare_version>
43012

> <i_f3d_flags>
0

> <s_epik_input>
Tz1jMVtuSF1jKD1PKW4oW2NIXWMxQnIpW0NAQEhdMk9bQ0BASF0oW0NIMl1bT0hdKVtDQEBIXShbT0hdKVtDQEhdMltPSF0=

> <s_epik_cmdline>
J2VwaWtfcHl0aG9uJywgJy1waCcsICc3LjAnLCAnLXRuJywgJzgnLCAnLW1hJywgJzIwMCcsICctbWV0YWxfYmluZGluZycsICctaW1hZScsICc8aW5maWxlLm1hZT4nLCAnLW9tYWUnLCAnPG91dGZpbGUubWFlPic=

> <r_lp_tautomer_probability>
0.999537

> <r_epik_Ionization_Penalty>
0.10812

> <r_epik_Ionization_Penalty_Charging>
0.108119

> <r_epik_Ionization_Penalty_Neutral>
4.93006e-07

> <r_epik_State_Penalty>
0.0979238

> <r_epik_Charging_Adjusted_Penalty>
0.206043

> <i_epik_Tot_Q>
0

> <i_epik_Tot_abs_Q>
0

> <r_epik_Metal_State_Penalty>
3.07911

> <b_epik_Metal_Only>
0

> <s_epik_Chemistry_Notes>
This compound contains an acetal/aminal-like group ( X-CH(R)-Y where X, Y are N, S, or O) that may be acid/base labile, releasing an aldehyde.

> <s_lp_Force_Field>
OPLS_2005

> <r_lp_Energy>
38.9756

> <b_lp_Chiralities_Consistent>
1

> <s_lp_Variant>
AV-unprocessed.smi:35-2

> <Gold.Version>
5.8.1

> <Gold.Id.Protein>
6NUR|6NUR_protein|mol2

> <Gold.PLP.Fitness>
33.0037

> <Gold.PLP.PLP>
-23.5079

> <Gold.PLP.part.hbond>
-4.0185

> <Gold.PLP.part.metal>
0.0000

> <Gold.PLP.part.buried>
-1.5263

> <Gold.PLP.part.nonpolar>
-18.4998

> <Gold.PLP.part.repulsive>
0.5065

> <Gold.PLP.ligand.clash>
0.0000

> <Gold.PLP.ligand.torsion>
0.2347

> <Gold.PLP.Chemscore.Hbond>
3.3143

> <Gold.PLP.Chemscore.CHOScore>
0.0000

> <Gold.PLP.Chemscore.Metal>
0.0000

> <Gold.Chemscore.Hbonds>
donor molecule, donor type, donor heavy atom, donor atom, acceptor molecule, acceptor atom, score
      L1  H    11    24       P1 10175  1.00
      P1  H  7989  7998       L1     5  0.25
      P1  H  7997  8010       L1     5  1.00
      P1  H  8011  8017       L1     8  0.08
      P1  H 10752 10764       L1     1  0.95

> <Gold.PLP.Chemscore.Internal.Correction>
0.0224

> <Gold.Rescore>
     Score         DG    S(hbond)    S(metal)    S(lipo)     H(rot)  DE(clash)    DE(int)     intcor
      7.81      -8.62       2.68        0.00      30.72       3.67       0.59       0.22       ----

> <Gold.Chemscore.Fitness>
7.8144

> <Gold.Chemscore.DG>
-8.6245

> <Gold.Chemscore.ZeroCoef>
-5.4800

> <Gold.Chemscore.Hbond>
2.6784

> <Gold.Chemscore.Metal>
0.0000

> <Gold.Chemscore.Lipo>
30.7191

> <Gold.Chemscore.Internal_Hbond>
0.0000

> <Gold.Chemscore.DEClash>
0.5928

> <Gold.Chemscore.DEInternal>
0.2174

> <Gold.Chemscore.Rot>
3.6701

> <Gold.Chemscore.Internal.Correction>
   9.000000E+99

> <Gold.Chemscore.Hbonds>
donor molecule, donor type, donor heavy atom, donor atom, acceptor molecule, acceptor atom, score
      L1  H    11    24       P1 10175  0.98
      P1  H  7989  7998       L1     5  0.02
      P1  H  7997  8010       L1     5  0.93
      P1  H 10752 10764       L1     1  0.21

> <Gold.Chemscore.Hbond.Weighted>
-8.9458

> <Gold.Chemscore.Metal.Weighted>
-0.0000

> <Gold.Chemscore.Lipo.Weighted>
-3.5941

> <Gold.Chemscore.Internal_Hbond.Weighted>
0.0000

> <Gold.Chemscore.DEClash.Weighted>
0.5928

> <Gold.Chemscore.DEInternal.Weighted>
0.2174

> <Gold.Chemscore.Rot.Weighted>
9.3955

> <Gold.Chemscore.Internal.Correction.Weighted>
   9.000000E+99

> <Gold.Protein.RotatedTorsions>
[ 6907 6896 6895 6894 ] final  -23.01 input  -60.11 | X-H torsion
[ 7974 7965 7964 7962 ] final  101.58 input  175.53 | X-H torsion
[ 8008 7997 7996 7995 ] final  100.59 input   59.86 | X-H torsion
[ 10167 10162 10161 10158 ] final   72.36 input  -65.29 | X-H torsion
[ 10718 10713 10712 10709 ] final   16.86 input   66.30 | X-H torsion
[ 10763 10752 10751 10750 ] final  -51.24 input  -60.55 | X-H torsion
[ 11005 11000 10999 10996 ] final  168.49 input  -57.11 | X-H torsion

> <Gold.Protein.ActiveResidues>
 VAL166  LYS551  ARG553  GLY616  TRP617  ASP618  TYR619  PRO620  LYS621  CYS622 
 ASP623  PHE694  ASN695  SER759  ASP760  ASP761  ALA762  ILE779  LEU786  VAL792 
 PHE793  MET794  SER795  GLU796  ALA797  LYS798  CYS799  TRP800  GLU811  SER814 

> <Gold.Protein.RotatedAtoms>
  151.2102  135.0478  159.8907 H   0  0  0  0  0  0  0  0  0  0  0  0  # atno 6907 bound_to 6896
  152.5425  134.0754  159.8222 H   0  0  0  0  0  0  0  0  0  0  0  0  # atno 6908 bound_to 6896
  151.0906  133.5271  159.2647 H   0  0  0  0  0  0  0  0  0  0  0  0  # atno 6909 bound_to 6896
  145.3704  139.2399  143.3458 H   0  0  0  0  0  0  0  0  0  0  0  0  # atno 7974 bound_to 7965
  156.1218  140.3211  155.8220 H   0  0  0  0  0  0  0  0  0  0  0  0  # atno 8008 bound_to 7997
  155.4490  140.0531  157.3020 H   0  0  0  0  0  0  0  0  0  0  0  0  # atno 8009 bound_to 7997
  154.4833  140.2062  155.9726 H   0  0  0  0  0  0  0  0  0  0  0  0  # atno 8010 bound_to 7997
  140.0362  144.5426  150.7469 H   0  0  0  0  0  0  0  0  0  0  0  0  # atno 10167 bound_to 10162
  157.0739  130.6360  149.5811 H   0  0  0  0  0  0  0  0  0  0  0  0  # atno 10718 bound_to 10713
  154.1235  135.6531  153.4907 H   0  0  0  0  0  0  0  0  0  0  0  0  # atno 10763 bound_to 10752
  153.0218  135.5276  154.7073 H   0  0  0  0  0  0  0  0  0  0  0  0  # atno 10764 bound_to 10752
  154.6287  135.2973  155.0211 H   0  0  0  0  0  0  0  0  0  0  0  0  # atno 10765 bound_to 10752
  140.2878  134.7698  157.3813 H   0  0  0  0  0  0  0  0  0  0  0  0  # atno 11005 bound_to 11000
  146.2888  140.4354  142.8747 LP  0  0  0  0  0  0  0  0  0  0  0  0  # atno 17320 bound_to 7965
  144.8580  140.7099  143.6125 LP  0  0  0  0  0  0  0  0  0  0  0  0  # atno 17321 bound_to 7965
  140.7280  143.2658  151.4051 LP  0  0  0  0  0  0  0  0  0  0  0  0  # atno 17342 bound_to 10162
  139.6044  144.1228  152.2233 LP  0  0  0  0  0  0  0  0  0  0  0  0  # atno 17343 bound_to 10162
  155.9942  130.5006  150.7412 LP  0  0  0  0  0  0  0  0  0  0  0  0  # atno 17370 bound_to 10713
  157.4855  131.0906  151.0487 LP  0  0  0  0  0  0  0  0  0  0  0  0  # atno 17371 bound_to 10713
  140.1224  134.5203  155.8173 LP  0  0  0  0  0  0  0  0  0  0  0  0  # atno 17394 bound_to 11000
  141.2152  133.6761  156.6889 LP  0  0  0  0  0  0  0  0  0  0  0  0  # atno 17395 bound_to 11000

$$$$
