AV-unprocessed.smi:1261|AV-procd|sdf|5307|dock9
  -GOLD-   22720 4433D 1   1.00000     0.00000
 Structure written by MMmdl.
 50 51  0  0  0  0  0  0  0  0  2 V2000
  147.8124  130.5489  153.7423 C   0  0  0  0  0  0  0  0  0  0  0  0
  146.9998  131.7205  153.1734 C   0  0  2  0  0  0  0  0  0  0  0  0
  146.2369  131.3075  151.9023 C   0  0  0  0  0  0  0  0  0  0  0  0
  145.4638  132.4991  151.3100 C   0  0  2  0  0  0  0  0  0  0  0  0
  144.7239  132.1016  150.0251 C   0  0  0  0  0  0  0  0  0  0  0  0
  146.4232  133.6823  151.0630 C   0  0  0  0  0  0  0  0  0  0  0  0
  147.1502  134.0826  152.2962 N   0  3  1  0  0  0  0  0  0  0  0  0
  146.3105  134.8448  153.2594 C   0  0  0  0  0  0  0  0  0  0  0  0
  146.9912  135.0126  154.6281 C   0  0  0  0  0  0  0  0  0  0  0  0
  146.1056  134.5203  155.7845 C   0  0  0  0  0  0  0  0  0  0  0  0
  146.3708  135.2589  157.0128 N   0  0  0  0  0  0  0  0  0  0  0  0
  147.5029  135.1857  157.7339 C   0  0  0  0  0  0  0  0  0  0  0  0
  148.4485  134.4672  157.4120 O   0  0  0  0  0  0  0  0  0  0  0  0
  147.6166  136.0432  159.0070 C   0  0  0  0  0  0  0  0  0  0  0  0
  147.5709  135.2917  160.2718 N   0  0  0  0  0  0  0  0  0  0  0  0
  147.5959  133.9143  160.1116 N   0  0  0  0  0  0  0  0  0  0  0  0
  147.5586  133.1438  161.1457 C   0  0  0  0  0  0  0  0  0  0  0  0
  147.5872  131.7861  160.9420 O   0  0  0  0  0  0  0  0  0  0  0  0
  147.4894  133.6896  162.4833 C   0  0  0  0  0  0  0  0  0  0  0  0
  147.4680  135.0325  162.6296 C   0  0  0  0  0  0  0  0  0  0  0  0
  147.5133  135.9355  161.4782 C   0  0  0  0  0  0  0  0  0  0  0  0
  147.5093  137.1616  161.5828 O   0  0  0  0  0  0  0  0  0  0  0  0
  147.9023  132.9405  152.8851 C   0  0  0  0  0  0  0  0  0  0  0  0
  146.7765  131.4603  161.3013 H   0  0  0  0  0  0  0  0  0  0  0  0
  148.5708  130.2104  153.0355 H   0  0  0  0  0  0  0  0  0  0  0  0
  147.1688  129.6991  153.9718 H   0  0  0  0  0  0  0  0  0  0  0  0
  148.3202  130.8341  154.6641 H   0  0  0  0  0  0  0  0  0  0  0  0
  146.2681  131.9973  153.9324 H   0  0  0  0  0  0  0  0  0  0  0  0
  146.9382  130.9197  151.1618 H   0  0  0  0  0  0  0  0  0  0  0  0
  145.5472  130.4941  152.1312 H   0  0  0  0  0  0  0  0  0  0  0  0
  144.7096  132.8099  152.0343 H   0  0  0  0  0  0  0  0  0  0  0  0
  145.4188  131.7754  149.2505 H   0  0  0  0  0  0  0  0  0  0  0  0
  144.1509  132.9395  149.6267 H   0  0  0  0  0  0  0  0  0  0  0  0
  144.0254  131.2851  150.2108 H   0  0  0  0  0  0  0  0  0  0  0  0
  147.1606  133.4031  150.3088 H   0  0  0  0  0  0  0  0  0  0  0  0
  145.8839  134.5373  150.6527 H   0  0  0  0  0  0  0  0  0  0  0  0
  146.1277  135.8411  152.8547 H   0  0  0  0  0  0  0  0  0  0  0  0
  145.3309  134.3814  153.3735 H   0  0  0  0  0  0  0  0  0  0  0  0
  147.9337  134.4665  154.6480 H   0  0  0  0  0  0  0  0  0  0  0  0
  147.2392  136.0632  154.7846 H   0  0  0  0  0  0  0  0  0  0  0  0
  145.0536  134.6546  155.5322 H   0  0  0  0  0  0  0  0  0  0  0  0
  146.2511  133.4518  155.9523 H   0  0  0  0  0  0  0  0  0  0  0  0
  145.6393  135.8707  157.3458 H   0  0  0  0  0  0  0  0  0  0  0  0
  148.5339  136.6313  158.9489 H   0  0  0  0  0  0  0  0  0  0  0  0
  146.8080  136.7760  158.9876 H   0  0  0  0  0  0  0  0  0  0  0  0
  147.4560  133.0321  163.3397 H   0  0  0  0  0  0  0  0  0  0  0  0
  147.4164  135.4540  163.6227 H   0  0  0  0  0  0  0  0  0  0  0  0
  148.4270  133.2485  153.7884 H   0  0  0  0  0  0  0  0  0  0  0  0
  148.6801  132.6531  152.1761 H   0  0  0  0  0  0  0  0  0  0  0  0
  147.8479  134.7444  151.9872 H   0  0  0  0  0  0  0  0  0  0  0  0
  1  2  1  0  0  0  0
  1 25  1  0  0  0  0
  1 26  1  0  0  0  0
  1 27  1  0  0  0  0
  2 23  1  0  0  0  0
  2  3  1  0  0  0  0
  2 28  1  0  0  0  0
  3  4  1  0  0  0  0
  3 29  1  0  0  0  0
  3 30  1  0  0  0  0
  4  5  1  0  0  0  0
  4  6  1  0  0  0  0
  4 31  1  0  0  0  0
  5 32  1  0  0  0  0
  5 33  1  0  0  0  0
  5 34  1  0  0  0  0
  6  7  1  0  0  0  0
  6 35  1  0  0  0  0
  6 36  1  0  0  0  0
  7  8  1  0  0  0  0
  7 23  1  0  0  0  0
  7 50  1  0  0  0  0
  8  9  1  0  0  0  0
  8 37  1  0  0  0  0
  8 38  1  0  0  0  0
  9 10  1  0  0  0  0
  9 39  1  0  0  0  0
  9 40  1  0  0  0  0
 10 11  1  0  0  0  0
 10 41  1  0  0  0  0
 10 42  1  0  0  0  0
 11 12  1  0  0  0  0
 11 43  1  0  0  0  0
 12 13  2  0  0  0  0
 12 14  1  0  0  0  0
 14 44  1  0  0  0  0
 14 45  1  0  0  0  0
 14 15  1  0  0  0  0
 15 16  1  0  0  0  0
 15 21  1  0  0  0  0
 16 17  2  0  0  0  0
 17 18  1  0  0  0  0
 17 19  1  0  0  0  0
 18 24  1  0  0  0  0
 19 46  1  0  0  0  0
 19 20  2  0  0  0  0
 20 47  1  0  0  0  0
 20 21  1  0  0  0  0
 21 22  2  0  0  0  0
 23 48  1  0  0  0  0
 23 49  1  0  0  0  0
M  CHG  1   7   1
M  END
> <s_m_source_file>
AV-unprocessed.smi

> <i_m_source_file_index>
1261

> <i_lp_mmshare_version>
43012

> <i_f3d_flags>
0

> <s_epik_input>
W0NIM11bQ0BASF0xW0NIMl1bQ0BASF0oW0NIM10pW0NIMl1OKFtDSDJdMSlbQ0gyXVtDSDJdW0NIMl1bTkhdQyg9TylbQ0gyXW4yW25IXWMoPU8pW2NIXVtjSF1jMj1P

> <s_epik_cmdline>
J2VwaWtfcHl0aG9uJywgJy1waCcsICc3LjAnLCAnLXRuJywgJzgnLCAnLW1hJywgJzIwMCcsICctbWV0YWxfYmluZGluZycsICctaW1hZScsICc8aW5maWxlLm1hZT4nLCAnLW9tYWUnLCAnPG91dGZpbGUubWFlPic=

> <r_lp_tautomer_probability>
0.9996

> <r_epik_Ionization_Penalty>
2.1425

> <r_epik_Ionization_Penalty_Charging>
0.000312112

> <r_epik_Ionization_Penalty_Neutral>
2.14218

> <r_epik_State_Penalty>
1.71978

> <r_epik_Charging_Adjusted_Penalty>
1.72009

> <i_epik_Tot_Q>
1

> <i_epik_Tot_abs_Q>
1

> <r_epik_Metal_State_Penalty>
1.71978

> <b_epik_Metal_Only>
0

> <s_lp_Force_Field>
OPLS_2005

> <r_lp_Energy>
29.2022

> <b_lp_Chiralities_Consistent>
1

> <s_lp_Variant>
AV-unprocessed.smi:1261-7

> <Gold.Version>
5.8.1

> <Gold.Id.Protein>
6NUR|6NUR_protein|mol2

> <Gold.PLP.Fitness>
47.0353

> <Gold.PLP.PLP>
-37.3629

> <Gold.PLP.part.hbond>
-3.0000

> <Gold.PLP.part.metal>
0.0000

> <Gold.PLP.part.buried>
-5.0162

> <Gold.PLP.part.nonpolar>
-29.4050

> <Gold.PLP.part.repulsive>
0.0211

> <Gold.PLP.ligand.clash>
0.0000

> <Gold.PLP.ligand.torsion>
0.8862

> <Gold.PLP.Chemscore.Hbond>
3.7760

> <Gold.PLP.Chemscore.CHOScore>
0.0000

> <Gold.PLP.Chemscore.Metal>
0.0000

> <Gold.Chemscore.Hbonds>
donor molecule, donor type, donor heavy atom, donor atom, acceptor molecule, acceptor atom, score
      L1  H     7    50       P1  7948  2.00
      P1  H  6931  6943       L1    22  0.96
      P1  H  6934  6947       L1    22  0.83

> <Gold.PLP.Chemscore.Internal.Correction>
0.1169

> <Gold.Rescore>
     Score         DG    S(hbond)    S(metal)    S(lipo)     H(rot)  DE(clash)    DE(int)     intcor
     12.74     -14.84       2.63        0.00      73.63       3.14       0.03       2.07       ----

> <Gold.Chemscore.Fitness>
12.7446

> <Gold.Chemscore.DG>
-14.8415

> <Gold.Chemscore.ZeroCoef>
-5.4800

> <Gold.Chemscore.Hbond>
2.6265

> <Gold.Chemscore.Metal>
0.0000

> <Gold.Chemscore.Lipo>
73.6337

> <Gold.Chemscore.Internal_Hbond>
0.0000

> <Gold.Chemscore.DEClash>
0.0308

> <Gold.Chemscore.DEInternal>
2.0662

> <Gold.Chemscore.Rot>
3.1352

> <Gold.Chemscore.Internal.Correction>
   9.000000E+99

> <Gold.Chemscore.Hbonds>
donor molecule, donor type, donor heavy atom, donor atom, acceptor molecule, acceptor atom, score
      L1  H     7    50       P1  7948  0.45
      P1  H  6931  6943       L1    22  0.92
      P1  H  6934  6947       L1    22  0.80

> <Gold.Chemscore.Hbond.Weighted>
-8.7724

> <Gold.Chemscore.Metal.Weighted>
-0.0000

> <Gold.Chemscore.Lipo.Weighted>
-8.6151

> <Gold.Chemscore.Internal_Hbond.Weighted>
0.0000

> <Gold.Chemscore.DEClash.Weighted>
0.0308

> <Gold.Chemscore.DEInternal.Weighted>
2.0662

> <Gold.Chemscore.Rot.Weighted>
8.0260

> <Gold.Chemscore.Internal.Correction.Weighted>
   9.000000E+99

> <Gold.Protein.RotatedTorsions>
[ 6907 6896 6895 6894 ] final  -24.06 input  -60.11 | X-H torsion
[ 7974 7965 7964 7962 ] final  -95.92 input  175.53 | X-H torsion
[ 8008 7997 7996 7995 ] final   67.48 input   59.86 | X-H torsion
[ 10167 10162 10161 10158 ] final -111.91 input  -65.29 | X-H torsion
[ 10718 10713 10712 10709 ] final -156.14 input   66.30 | X-H torsion
[ 10763 10752 10751 10750 ] final  -96.59 input  -60.55 | X-H torsion
[ 11005 11000 10999 10996 ] final   51.65 input  -57.11 | X-H torsion

> <Gold.Protein.ActiveResidues>
 VAL166  LYS551  ARG553  GLY616  TRP617  ASP618  TYR619  PRO620  LYS621  CYS622 
 ASP623  PHE694  ASN695  SER759  ASP760  ASP761  ALA762  ILE779  LEU786  VAL792 
 PHE793  MET794  SER795  GLU796  ALA797  LYS798  CYS799  TRP800  GLU811  SER814 

> <Gold.Protein.RotatedAtoms>
  151.1949  135.0418  159.8847 H   0  0  0  0  0  0  0  0  0  0  0  0  # atno 6907 bound_to 6896
  152.5437  134.0914  159.8289 H   0  0  0  0  0  0  0  0  0  0  0  0  # atno 6908 bound_to 6896
  151.1048  133.5169  159.2640 H   0  0  0  0  0  0  0  0  0  0  0  0  # atno 6909 bound_to 6896
  145.3538  140.9481  143.2539 H   0  0  0  0  0  0  0  0  0  0  0  0  # atno 7974 bound_to 7965
  155.6935  140.3496  155.4903 H   0  0  0  0  0  0  0  0  0  0  0  0  # atno 8008 bound_to 7997
  155.9503  140.1118  157.1004 H   0  0  0  0  0  0  0  0  0  0  0  0  # atno 8009 bound_to 7997
  154.4120  140.1195  156.5030 H   0  0  0  0  0  0  0  0  0  0  0  0  # atno 8010 bound_to 7997
  140.1285  143.4381  152.1644 H   0  0  0  0  0  0  0  0  0  0  0  0  # atno 10167 bound_to 10162
  156.5224  130.8484  151.2687 H   0  0  0  0  0  0  0  0  0  0  0  0  # atno 10718 bound_to 10713
  154.7253  135.5078  153.8876 H   0  0  0  0  0  0  0  0  0  0  0  0  # atno 10763 bound_to 10752
  153.0899  135.6656  153.9883 H   0  0  0  0  0  0  0  0  0  0  0  0  # atno 10764 bound_to 10752
  153.9697  135.3039  155.3407 H   0  0  0  0  0  0  0  0  0  0  0  0  # atno 10765 bound_to 10752
  140.0915  134.5203  155.8848 H   0  0  0  0  0  0  0  0  0  0  0  0  # atno 11005 bound_to 11000
  144.8698  139.5055  143.6773 LP  0  0  0  0  0  0  0  0  0  0  0  0  # atno 17320 bound_to 7965
  146.2957  139.7270  142.9128 LP  0  0  0  0  0  0  0  0  0  0  0  0  # atno 17321 bound_to 7965
  139.5532  144.7353  151.4372 LP  0  0  0  0  0  0  0  0  0  0  0  0  # atno 17342 bound_to 10162
  140.6831  143.8036  150.7148 LP  0  0  0  0  0  0  0  0  0  0  0  0  # atno 17343 bound_to 10162
  157.7434  130.9912  150.2594 LP  0  0  0  0  0  0  0  0  0  0  0  0  # atno 17370 bound_to 10713
  156.3136  130.3775  149.7638 LP  0  0  0  0  0  0  0  0  0  0  0  0  # atno 17371 bound_to 10713
  141.2079  133.6668  156.6337 LP  0  0  0  0  0  0  0  0  0  0  0  0  # atno 17394 bound_to 11000
  140.3346  134.7900  157.4352 LP  0  0  0  0  0  0  0  0  0  0  0  0  # atno 17395 bound_to 11000

$$$$
