AV-unprocessed.smi:2881|AV-procd|sdf|11068|dock9
  -GOLD-   2272015543D 1   1.00000     0.00000
 Structure written by MMmdl.
 40 42  0  0  0  0  0  0  0  0  1 V2000
  146.3463  138.3462  152.1699 C   0  0  0  0  0  0  0  0  0  0  0  0
  147.1813  139.1477  153.1246 C   0  0  0  0  0  0  0  0  0  0  0  0
  147.1785  140.5594  153.3258 C   0  0  0  0  0  0  0  0  0  0  0  0
  148.1176  140.7644  154.2979 C   0  0  0  0  0  0  0  0  0  0  0  0
  148.5983  142.0160  154.9589 C   0  0  0  0  0  0  0  0  0  0  0  0
  149.9843  141.8134  155.5697 C   0  0  0  0  0  0  0  0  0  0  0  0
  150.6498  140.8217  155.2720 O   0  0  0  0  0  0  0  0  0  0  0  0
  150.4077  142.7606  156.4201 N   0  0  0  0  0  0  0  0  0  0  0  0
  151.6978  142.7523  157.1054 C   0  0  1  0  0  0  0  0  0  0  0  0
  152.1594  144.1575  157.5689 C   0  0  1  0  0  0  0  0  0  0  0  0
  151.0587  144.8772  158.3780 C   0  0  0  0  0  0  0  0  0  0  0  0
  151.0173  144.0644  159.6854 C   0  0  0  0  0  0  0  0  0  0  0  0
  152.1181  143.0081  159.4658 C   0  0  2  0  0  0  0  0  0  0  0  0
  153.1480  143.8044  158.6724 C   0  0  0  0  0  0  0  0  0  0  0  0
  151.6258  141.9611  158.4372 C   0  0  2  0  0  0  0  0  0  0  0  0
  152.4717  140.6731  158.4090 C   0  0  0  0  0  0  0  0  0  0  0  0
  152.4709  140.1119  157.1133 O   0  0  0  0  0  0  0  0  0  0  0  0
  148.6169  139.5215  154.6161 N   0  0  0  0  0  0  0  0  0  0  0  0
  148.0523  138.5270  153.9064 N   0  0  0  0  0  0  0  0  0  0  0  0
  149.3305  139.3402  155.3080 H   0  0  0  0  0  0  0  0  0  0  0  0
  145.5718  138.9616  151.7118 H   0  0  0  0  0  0  0  0  0  0  0  0
  145.8527  137.5170  152.6773 H   0  0  0  0  0  0  0  0  0  0  0  0
  146.9578  137.9311  151.3683 H   0  0  0  0  0  0  0  0  0  0  0  0
  146.5768  141.3074  152.8310 H   0  0  0  0  0  0  0  0  0  0  0  0
  147.8977  142.3223  155.7369 H   0  0  0  0  0  0  0  0  0  0  0  0
  148.6360  142.8329  154.2369 H   0  0  0  0  0  0  0  0  0  0  0  0
  149.7950  143.5408  156.6081 H   0  0  0  0  0  0  0  0  0  0  0  0
  152.4554  142.3177  156.4497 H   0  0  0  0  0  0  0  0  0  0  0  0
  152.5741  144.7662  156.7647 H   0  0  0  0  0  0  0  0  0  0  0  0
  151.3502  145.9079  158.5835 H   0  0  0  0  0  0  0  0  0  0  0  0
  150.0941  144.9089  157.8714 H   0  0  0  0  0  0  0  0  0  0  0  0
  151.2542  144.7014  160.5385 H   0  0  0  0  0  0  0  0  0  0  0  0
  150.0399  143.6158  159.8666 H   0  0  0  0  0  0  0  0  0  0  0  0
  152.4890  142.5777  160.3964 H   0  0  0  0  0  0  0  0  0  0  0  0
  153.9919  143.2082  158.3229 H   0  0  0  0  0  0  0  0  0  0  0  0
  153.5285  144.6753  159.2093 H   0  0  0  0  0  0  0  0  0  0  0  0
  150.5953  141.6808  158.6646 H   0  0  0  0  0  0  0  0  0  0  0  0
  153.5033  140.8961  158.6830 H   0  0  0  0  0  0  0  0  0  0  0  0
  152.1028  139.9352  159.1214 H   0  0  0  0  0  0  0  0  0  0  0  0
  151.5763  140.0402  156.8170 H   0  0  0  0  0  0  0  0  0  0  0  0
  1 21  1  0  0  0  0
  1 22  1  0  0  0  0
  1 23  1  0  0  0  0
  1  2  1  0  0  0  0
  2 19  2  0  0  0  0
  2  3  1  0  0  0  0
  3  4  2  0  0  0  0
  3 24  1  0  0  0  0
  4 18  1  0  0  0  0
  4  5  1  0  0  0  0
  5  6  1  0  0  0  0
  5 25  1  0  0  0  0
  5 26  1  0  0  0  0
  6  7  2  0  0  0  0
  6  8  1  0  0  0  0
  8  9  1  0  0  0  0
  8 27  1  0  0  0  0
  9 15  1  0  0  0  0
  9 10  1  0  0  0  0
  9 28  1  0  0  0  0
 10 14  1  0  0  0  0
 10 11  1  0  0  0  0
 10 29  1  0  0  0  0
 11 12  1  0  0  0  0
 11 30  1  0  0  0  0
 11 31  1  0  0  0  0
 12 13  1  0  0  0  0
 12 32  1  0  0  0  0
 12 33  1  0  0  0  0
 13 14  1  0  0  0  0
 13 15  1  0  0  0  0
 13 34  1  0  0  0  0
 14 35  1  0  0  0  0
 14 36  1  0  0  0  0
 15 16  1  0  0  0  0
 15 37  1  0  0  0  0
 16 17  1  0  0  0  0
 16 38  1  0  0  0  0
 16 39  1  0  0  0  0
 17 40  1  0  0  0  0
 18 19  1  0  0  0  0
 18 20  1  0  0  0  0
M  END
> <s_m_source_file>
AV-unprocessed.smi

> <i_m_source_file_index>
2881

> <i_lp_mmshare_version>
43012

> <i_f3d_flags>
0

> <s_epik_input>
W0NIM11jMVtjSF1jKG5bbkhdMSlbQ0gyXUMoPU8pW05IXVtDQEhdKFtDQEBIXTIzKVtDQEhdKFtDSDJdW09IXSlbQ0BASF0oW0NIMl0zKVtDSDJdW0NIMl0y

> <s_epik_cmdline>
J2VwaWtfcHl0aG9uJywgJy1waCcsICc3LjAnLCAnLXRuJywgJzgnLCAnLW1hJywgJzIwMCcsICctbWV0YWxfYmluZGluZycsICctaW1hZScsICc8aW5maWxlLm1hZT4nLCAnLW9tYWUnLCAnPG91dGZpbGUubWFlPic=

> <r_lp_tautomer_probability>
0.5

> <r_epik_Ionization_Penalty>
0.00013396

> <r_epik_Ionization_Penalty_Charging>
0

> <r_epik_Ionization_Penalty_Neutral>
0.00013396

> <r_epik_State_Penalty>
0.41068

> <r_epik_Charging_Adjusted_Penalty>
0.41068

> <i_epik_Tot_Q>
0

> <i_epik_Tot_abs_Q>
0

> <r_epik_Metal_State_Penalty>
0.41066

> <b_epik_Metal_Only>
0

> <s_lp_Force_Field>
OPLS_2005

> <r_lp_Energy>
46.8949

> <b_lp_Chiralities_Consistent>
1

> <s_lp_Variant>
AV-unprocessed.smi:2881-14

> <Gold.Version>
5.8.1

> <Gold.Id.Protein>
6NUR|6NUR_protein|mol2

> <Gold.PLP.Fitness>
43.2760

> <Gold.PLP.PLP>
-37.8973

> <Gold.PLP.part.hbond>
-3.0000

> <Gold.PLP.part.metal>
0.0000

> <Gold.PLP.part.buried>
0.7120

> <Gold.PLP.part.nonpolar>
-34.2553

> <Gold.PLP.part.repulsive>
0.4546

> <Gold.PLP.ligand.clash>
0.0000

> <Gold.PLP.ligand.torsion>
1.1481

> <Gold.PLP.Chemscore.Hbond>
2.5520

> <Gold.PLP.Chemscore.CHOScore>
0.0000

> <Gold.PLP.Chemscore.Metal>
0.0000

> <Gold.Chemscore.Hbonds>
donor molecule, donor type, donor heavy atom, donor atom, acceptor molecule, acceptor atom, score
      L1  H     8    27       P1  8028  0.75
      P1  H  7989  7998       L1     7  0.82
      P1  H  7997  8010       L1    17  1.00

> <Gold.PLP.Chemscore.Internal.Correction>
0.0189

> <Gold.Rescore>
     Score         DG    S(hbond)    S(metal)    S(lipo)     H(rot)  DE(clash)    DE(int)     intcor
     19.12     -21.15       2.52        0.00     111.82       2.28       0.47       1.56       ----

> <Gold.Chemscore.Fitness>
19.1175

> <Gold.Chemscore.DG>
-21.1532

> <Gold.Chemscore.ZeroCoef>
-5.4800

> <Gold.Chemscore.Hbond>
2.5195

> <Gold.Chemscore.Metal>
0.0000

> <Gold.Chemscore.Lipo>
111.8231

> <Gold.Chemscore.Internal_Hbond>
0.0000

> <Gold.Chemscore.DEClash>
0.4733

> <Gold.Chemscore.DEInternal>
1.5624

> <Gold.Chemscore.Rot>
2.2755

> <Gold.Chemscore.Internal.Correction>
   9.000000E+99

> <Gold.Chemscore.Hbonds>
donor molecule, donor type, donor heavy atom, donor atom, acceptor molecule, acceptor atom, score
      L1  H     8    27       P1  8028  0.74
      P1  H  7989  7998       L1     7  0.71
      P1  H  7997  8010       L1    17  0.48

> <Gold.Chemscore.Hbond.Weighted>
-8.4151

> <Gold.Chemscore.Metal.Weighted>
-0.0000

> <Gold.Chemscore.Lipo.Weighted>
-13.0833

> <Gold.Chemscore.Internal_Hbond.Weighted>
0.0000

> <Gold.Chemscore.DEClash.Weighted>
0.4733

> <Gold.Chemscore.DEInternal.Weighted>
1.5624

> <Gold.Chemscore.Rot.Weighted>
5.8252

> <Gold.Chemscore.Internal.Correction.Weighted>
   9.000000E+99

> <Gold.Protein.RotatedTorsions>
[ 6907 6896 6895 6894 ] final -160.23 input  -60.11 | X-H torsion
[ 7974 7965 7964 7962 ] final   59.11 input  175.53 | X-H torsion
[ 8008 7997 7996 7995 ] final   64.06 input   59.86 | X-H torsion
[ 10167 10162 10161 10158 ] final   87.43 input  -65.29 | X-H torsion
[ 10718 10713 10712 10709 ] final -134.21 input   66.30 | X-H torsion
[ 10763 10752 10751 10750 ] final  -56.56 input  -60.55 | X-H torsion
[ 11005 11000 10999 10996 ] final -172.06 input  -57.11 | X-H torsion

> <Gold.Protein.ActiveResidues>
 VAL166  LYS551  ARG553  GLY616  TRP617  ASP618  TYR619  PRO620  LYS621  CYS622 
 ASP623  PHE694  ASN695  SER759  ASP760  ASP761  ALA762  ILE779  LEU786  VAL792 
 PHE793  MET794  SER795  GLU796  ALA797  LYS798  CYS799  TRP800  GLU811  SER814 

> <Gold.Protein.RotatedAtoms>
  151.3459  133.3944  159.2675 H   0  0  0  0  0  0  0  0  0  0  0  0  # atno 6907 bound_to 6896
  150.9840  134.9190  159.7871 H   0  0  0  0  0  0  0  0  0  0  0  0  # atno 6908 bound_to 6896
  152.5226  134.3423  159.9274 H   0  0  0  0  0  0  0  0  0  0  0  0  # atno 6909 bound_to 6896
  145.9108  139.3652  143.0537 H   0  0  0  0  0  0  0  0  0  0  0  0  # atno 7974 bound_to 7965
  155.6401  140.3497  155.4712 H   0  0  0  0  0  0  0  0  0  0  0  0  # atno 8008 bound_to 7997
  155.9933  140.1198  157.0641 H   0  0  0  0  0  0  0  0  0  0  0  0  # atno 8009 bound_to 7997
  154.4225  140.1115  156.5581 H   0  0  0  0  0  0  0  0  0  0  0  0  # atno 8010 bound_to 7997
  139.8774  144.6459  150.8881 H   0  0  0  0  0  0  0  0  0  0  0  0  # atno 10167 bound_to 10162
  156.2530  130.7165  151.1071 H   0  0  0  0  0  0  0  0  0  0  0  0  # atno 10718 bound_to 10713
  154.2085  135.6398  153.5108 H   0  0  0  0  0  0  0  0  0  0  0  0  # atno 10763 bound_to 10752
  152.9995  135.5468  154.6240 H   0  0  0  0  0  0  0  0  0  0  0  0  # atno 10764 bound_to 10752
  154.5671  135.2913  155.0837 H   0  0  0  0  0  0  0  0  0  0  0  0  # atno 10765 bound_to 10752
  140.5012  134.5891  157.4988 H   0  0  0  0  0  0  0  0  0  0  0  0  # atno 11005 bound_to 11000
  145.8674  140.9440  143.0668 LP  0  0  0  0  0  0  0  0  0  0  0  0  # atno 17320 bound_to 7965
  144.6743  140.0610  143.7476 LP  0  0  0  0  0  0  0  0  0  0  0  0  # atno 17321 bound_to 7965
  140.7750  143.3613  151.1822 LP  0  0  0  0  0  0  0  0  0  0  0  0  # atno 17342 bound_to 10162
  139.7227  143.9197  152.2991 LP  0  0  0  0  0  0  0  0  0  0  0  0  # atno 17343 bound_to 10162
  157.7222  131.0674  150.6088 LP  0  0  0  0  0  0  0  0  0  0  0  0  # atno 17370 bound_to 10713
  156.6169  130.4395  149.5837 LP  0  0  0  0  0  0  0  0  0  0  0  0  # atno 17371 bound_to 10713
  139.9712  134.7290  156.0038 LP  0  0  0  0  0  0  0  0  0  0  0  0  # atno 17394 bound_to 11000
  141.1434  133.6560  156.3797 LP  0  0  0  0  0  0  0  0  0  0  0  0  # atno 17395 bound_to 11000

$$$$
