AV-unprocessed.smi:1933|AV-procd|sdf|7819|dock1
  -GOLD-   22720 9563D 1   1.00000     0.00000
 Structure written by MMmdl.
 48 50  0  0  0  0  0  0  0  0  2 V2000
  150.9029  140.0573  156.4805 O   0  0  0  0  0  0  0  0  0  0  0  0
  150.2723  141.0102  156.0222 C   0  0  0  0  0  0  0  0  0  0  0  0
  149.3624  140.8957  155.0434 N   0  0  0  0  0  0  0  0  0  0  0  0
  148.9833  139.6568  154.3700 C   0  0  0  0  0  0  0  0  0  0  0  0
  147.8370  139.8484  153.3380 C   0  0  2  0  0  0  0  0  0  0  0  0
  146.6610  140.7329  153.8453 C   0  0  2  0  0  0  0  0  0  0  0  0
  146.9592  142.2263  153.8371 C   0  0  0  0  0  0  0  0  0  0  0  0
  145.9204  142.7677  154.8065 C   0  0  0  0  0  0  0  0  0  0  0  0
  145.9058  141.8041  155.8455 O   0  0  0  0  0  0  0  0  0  0  0  0
  146.2433  140.5265  155.3128 C   0  0  0  0  0  0  0  0  0  0  0  0
  147.3081  138.5375  152.8526 N   0  3  0  0  0  0  0  0  0  0  0  0
  146.7193  137.6865  153.9152 C   0  0  0  0  0  0  0  0  0  0  0  0
  146.3979  136.2905  153.3539 C   0  0  0  0  0  0  0  0  0  0  0  0
  145.5302  136.4102  152.2325 O   0  0  0  0  0  0  0  0  0  0  0  0
  146.1171  137.1619  151.1764 C   0  0  0  0  0  0  0  0  0  0  0  0
  146.4152  138.5883  151.6667 C   0  0  0  0  0  0  0  0  0  0  0  0
  150.3843  142.2864  156.4298 N   0  0  0  0  0  0  0  0  0  0  0  0
  151.1835  142.8057  157.4824 C   0  0  0  0  0  0  0  0  0  0  0  0
  151.3798  144.2048  157.4486 C   0  0  0  0  0  0  0  0  0  0  0  0
  152.1529  144.8202  158.4520 C   0  0  0  0  0  0  0  0  0  0  0  0
  152.7095  144.0194  159.4653 C   0  0  0  0  0  0  0  0  0  0  0  0
  152.4642  142.6345  159.4259 C   0  0  0  0  0  0  0  0  0  0  0  0
  151.7239  142.0425  158.4649 N   0  0  0  0  0  0  0  0  0  0  0  0
  148.8970  141.7370  154.7351 H   0  0  0  0  0  0  0  0  0  0  0  0
  149.8814  139.2901  153.8741 H   0  0  0  0  0  0  0  0  0  0  0  0
  148.7100  138.8934  155.0995 H   0  0  0  0  0  0  0  0  0  0  0  0
  148.2544  140.3558  152.4667 H   0  0  0  0  0  0  0  0  0  0  0  0
  145.7822  140.5634  153.2214 H   0  0  0  0  0  0  0  0  0  0  0  0
  147.9615  142.4211  154.2219 H   0  0  0  0  0  0  0  0  0  0  0  0
  146.8778  142.6761  152.8471 H   0  0  0  0  0  0  0  0  0  0  0  0
  146.1666  143.7612  155.1816 H   0  0  0  0  0  0  0  0  0  0  0  0
  144.9363  142.8083  154.3369 H   0  0  0  0  0  0  0  0  0  0  0  0
  145.3873  139.8570  155.3941 H   0  0  0  0  0  0  0  0  0  0  0  0
  147.0548  140.1138  155.9127 H   0  0  0  0  0  0  0  0  0  0  0  0
  147.4155  137.5913  154.7492 H   0  0  0  0  0  0  0  0  0  0  0  0
  145.8099  138.1446  154.3054 H   0  0  0  0  0  0  0  0  0  0  0  0
  147.3113  135.7672  153.0663 H   0  0  0  0  0  0  0  0  0  0  0  0
  145.9098  135.6827  154.1159 H   0  0  0  0  0  0  0  0  0  0  0  0
  147.0262  136.6715  150.8241 H   0  0  0  0  0  0  0  0  0  0  0  0
  145.4240  137.1904  150.3353 H   0  0  0  0  0  0  0  0  0  0  0  0
  145.4757  139.0814  151.9193 H   0  0  0  0  0  0  0  0  0  0  0  0
  146.8768  139.1617  150.8633 H   0  0  0  0  0  0  0  0  0  0  0  0
  149.8157  142.9648  155.9449 H   0  0  0  0  0  0  0  0  0  0  0  0
  150.9441  144.8053  156.6631 H   0  0  0  0  0  0  0  0  0  0  0  0
  152.3149  145.8880  158.4434 H   0  0  0  0  0  0  0  0  0  0  0  0
  153.3076  144.4548  160.2519 H   0  0  0  0  0  0  0  0  0  0  0  0
  152.8717  141.9843  160.1859 H   0  0  0  0  0  0  0  0  0  0  0  0
  148.1290  138.0335  152.5483 H   0  0  0  0  0  0  0  0  0  0  0  0
  1  2  2  0  0  0  0
  2  3  1  0  0  0  0
  2 17  1  0  0  0  0
  3  4  1  0  0  0  0
  3 24  1  0  0  0  0
  4  5  1  0  0  0  0
  4 25  1  0  0  0  0
  4 26  1  0  0  0  0
  5  6  1  0  0  0  0
  5 11  1  0  0  0  0
  5 27  1  0  0  0  0
  6 10  1  0  0  0  0
  6  7  1  0  0  0  0
  6 28  1  0  0  0  0
  7  8  1  0  0  0  0
  7 29  1  0  0  0  0
  7 30  1  0  0  0  0
  8  9  1  0  0  0  0
  8 31  1  0  0  0  0
  8 32  1  0  0  0  0
  9 10  1  0  0  0  0
 10 33  1  0  0  0  0
 10 34  1  0  0  0  0
 11 16  1  0  0  0  0
 11 12  1  0  0  0  0
 11 48  1  0  0  0  0
 12 13  1  0  0  0  0
 12 35  1  0  0  0  0
 12 36  1  0  0  0  0
 13 14  1  0  0  0  0
 13 37  1  0  0  0  0
 13 38  1  0  0  0  0
 14 15  1  0  0  0  0
 15 16  1  0  0  0  0
 15 39  1  0  0  0  0
 15 40  1  0  0  0  0
 16 41  1  0  0  0  0
 16 42  1  0  0  0  0
 17 18  1  0  0  0  0
 17 43  1  0  0  0  0
 18 23  1  0  0  0  0
 18 19  2  0  0  0  0
 19 20  1  0  0  0  0
 19 44  1  0  0  0  0
 20 21  2  0  0  0  0
 20 45  1  0  0  0  0
 21 22  1  0  0  0  0
 21 46  1  0  0  0  0
 22 23  2  0  0  0  0
 22 47  1  0  0  0  0
M  CHG  1  11   1
M  END
> <s_m_source_file>
AV-unprocessed.smi

> <i_m_source_file_index>
1933

> <i_lp_mmshare_version>
43012

> <i_f3d_flags>
0

> <s_epik_input>
bjFbY0hdW2NIXVtjSF1bY0hdYzFbTkhdQyg9TylbTkhdW0NIMl1bQ0BIXShbQ0BASF0yW0NIMl1bQ0gyXU9bQ0gyXTIpTjNbQ0gyXVtDSDJdT1tDSDJdW0NIMl0z

> <s_epik_cmdline>
J2VwaWtfcHl0aG9uJywgJy1waCcsICc3LjAnLCAnLXRuJywgJzgnLCAnLW1hJywgJzIwMCcsICctbWV0YWxfYmluZGluZycsICctaW1hZScsICc8aW5maWxlLm1hZT4nLCAnLW9tYWUnLCAnPG91dGZpbGUubWFlPic=

> <r_epik_Ionization_Penalty>
0.983294

> <r_epik_Ionization_Penalty_Charging>
0.98326

> <r_epik_Ionization_Penalty_Neutral>
3.39688e-05

> <r_epik_State_Penalty>
1.0303

> <r_epik_Charging_Adjusted_Penalty>
2.01356

> <i_epik_Tot_Q>
1

> <i_epik_Tot_abs_Q>
1

> <r_epik_Metal_State_Penalty>
1.0303

> <b_epik_Metal_Only>
0

> <s_lp_Force_Field>
OPLS_2005

> <r_lp_Energy>
40.1747

> <b_lp_Chiralities_Consistent>
1

> <s_lp_Variant>
AV-unprocessed.smi:1933-5

> <Gold.Version>
5.8.1

> <Gold.Id.Protein>
6NUR|6NUR_protein|mol2

> <Gold.PLP.Fitness>
48.2614

> <Gold.PLP.PLP>
-40.5340

> <Gold.PLP.part.hbond>
-2.4931

> <Gold.PLP.part.metal>
0.0000

> <Gold.PLP.part.buried>
1.1647

> <Gold.PLP.part.nonpolar>
-41.0826

> <Gold.PLP.part.repulsive>
0.6023

> <Gold.PLP.ligand.clash>
0.0000

> <Gold.PLP.ligand.torsion>
0.6442

> <Gold.PLP.Chemscore.Hbond>
2.8438

> <Gold.PLP.Chemscore.CHOScore>
0.0000

> <Gold.PLP.Chemscore.Metal>
0.0000

> <Gold.Chemscore.Hbonds>
donor molecule, donor type, donor heavy atom, donor atom, acceptor molecule, acceptor atom, score
      L1  H    11    48       P1  7948  1.74
      L1  H    17    43       P1  8028  1.00

> <Gold.PLP.Chemscore.Internal.Correction>
0.4846

> <Gold.Rescore>
     Score         DG    S(hbond)    S(metal)    S(lipo)     H(rot)  DE(clash)    DE(int)     intcor
     15.05     -18.52       1.60        0.00     104.44       1.77       0.52       2.96       ----

> <Gold.Chemscore.Fitness>
15.0486

> <Gold.Chemscore.DG>
-18.5196

> <Gold.Chemscore.ZeroCoef>
-5.4800

> <Gold.Chemscore.Hbond>
1.6001

> <Gold.Chemscore.Metal>
0.0000

> <Gold.Chemscore.Lipo>
104.4372

> <Gold.Chemscore.Internal_Hbond>
0.0000

> <Gold.Chemscore.DEClash>
0.5159

> <Gold.Chemscore.DEInternal>
2.9551

> <Gold.Chemscore.Rot>
1.7671

> <Gold.Chemscore.Internal.Correction>
   9.000000E+99

> <Gold.Chemscore.Hbonds>
donor molecule, donor type, donor heavy atom, donor atom, acceptor molecule, acceptor atom, score
      L1  H    11    48       P1  7948  0.80
      L1  H    17    43       P1  8028  0.94

> <Gold.Chemscore.Hbond.Weighted>
-5.3442

> <Gold.Chemscore.Metal.Weighted>
-0.0000

> <Gold.Chemscore.Lipo.Weighted>
-12.2192

> <Gold.Chemscore.Internal_Hbond.Weighted>
0.0000

> <Gold.Chemscore.DEClash.Weighted>
0.5159

> <Gold.Chemscore.DEInternal.Weighted>
2.9551

> <Gold.Chemscore.Rot.Weighted>
4.5238

> <Gold.Chemscore.Internal.Correction.Weighted>
   9.000000E+99

> <Gold.Protein.RotatedTorsions>
[ 6907 6896 6895 6894 ] final  134.05 input  -60.11 | X-H torsion
[ 7974 7965 7964 7962 ] final -106.51 input  175.53 | X-H torsion
[ 8008 7997 7996 7995 ] final  -34.81 input   59.86 | X-H torsion
[ 10167 10162 10161 10158 ] final   81.54 input  -65.29 | X-H torsion
[ 10718 10713 10712 10709 ] final  176.29 input   66.30 | X-H torsion
[ 10763 10752 10751 10750 ] final   62.07 input  -60.55 | X-H torsion
[ 11005 11000 10999 10996 ] final  156.12 input  -57.11 | X-H torsion

> <Gold.Protein.ActiveResidues>
 VAL166  LYS551  ARG553  GLY616  TRP617  ASP618  TYR619  PRO620  LYS621  CYS622 
 ASP623  PHE694  ASN695  SER759  ASP760  ASP761  ALA762  ILE779  LEU786  VAL792 
 PHE793  MET794  SER795  GLU796  ALA797  LYS798  CYS799  TRP800  GLU811  SER814 

> <Gold.Protein.RotatedAtoms>
  152.3154  133.5797  159.5708 H   0  0  0  0  0  0  0  0  0  0  0  0  # atno 6907 bound_to 6896
  150.7344  134.0090  159.3672 H   0  0  0  0  0  0  0  0  0  0  0  0  # atno 6908 bound_to 6896
  151.7979  135.0718  160.0447 H   0  0  0  0  0  0  0  0  0  0  0  0  # atno 6909 bound_to 6896
  145.2170  140.9119  143.3282 H   0  0  0  0  0  0  0  0  0  0  0  0  # atno 7974 bound_to 7965
  154.4111  140.1674  156.2110 H   0  0  0  0  0  0  0  0  0  0  0  0  # atno 8008 bound_to 7997
  155.9444  140.3405  155.6331 H   0  0  0  0  0  0  0  0  0  0  0  0  # atno 8009 bound_to 7997
  155.6948  140.0738  157.2424 H   0  0  0  0  0  0  0  0  0  0  0  0  # atno 8010 bound_to 7997
  139.9381  144.6108  150.8278 H   0  0  0  0  0  0  0  0  0  0  0  0  # atno 10167 bound_to 10162
  156.9223  130.9944  151.3002 H   0  0  0  0  0  0  0  0  0  0  0  0  # atno 10718 bound_to 10713
  152.9971  135.5478  154.6135 H   0  0  0  0  0  0  0  0  0  0  0  0  # atno 10763 bound_to 10752
  154.5450  135.2822  155.1063 H   0  0  0  0  0  0  0  0  0  0  0  0  # atno 10764 bound_to 10752
  154.2325  135.6431  153.5232 H   0  0  0  0  0  0  0  0  0  0  0  0  # atno 10765 bound_to 10752
  140.1645  134.8586  157.2615 H   0  0  0  0  0  0  0  0  0  0  0  0  # atno 11005 bound_to 11000
  144.9802  139.3791  143.6266 LP  0  0  0  0  0  0  0  0  0  0  0  0  # atno 17320 bound_to 7965
  146.3385  139.8939  142.8805 LP  0  0  0  0  0  0  0  0  0  0  0  0  # atno 17321 bound_to 7965
  140.7618  143.3184  151.2679 LP  0  0  0  0  0  0  0  0  0  0  0  0  # atno 17342 bound_to 10162
  139.6727  143.9992  152.2762 LP  0  0  0  0  0  0  0  0  0  0  0  0  # atno 17343 bound_to 10162
  157.5900  130.8437  149.8645 LP  0  0  0  0  0  0  0  0  0  0  0  0  # atno 17370 bound_to 10713
  156.0485  130.3722  150.1258 LP  0  0  0  0  0  0  0  0  0  0  0  0  # atno 17371 bound_to 10713
  140.2450  134.3751  155.7465 LP  0  0  0  0  0  0  0  0  0  0  0  0  # atno 17394 bound_to 11000
  141.2212  133.7285  156.8847 LP  0  0  0  0  0  0  0  0  0  0  0  0  # atno 17395 bound_to 11000

$$$$
