AV-unprocessed.smi:1235|AV-procd|sdf|5178|dock9
  -GOLD-   22720 4253D 1   1.00000     0.00000
 Structure written by MMmdl.
 50 51  0  0  0  0  0  0  0  0  2 V2000
  152.5501  142.1660  159.8929 C   0  0  0  0  0  0  0  0  0  0  0  0
  151.6369  142.4447  158.8461 O   0  0  0  0  0  0  0  0  0  0  0  0
  151.3502  141.3020  158.0582 C   0  0  0  0  0  0  0  0  0  0  0  0
  151.0525  141.7520  156.6197 C   0  0  0  0  0  0  0  0  0  0  0  0
  150.7947  140.6072  155.7401 N   0  0  0  0  0  0  0  0  0  0  0  0
  149.6028  140.6901  155.0391 N   0  0  0  0  0  0  0  0  0  0  0  0
  149.2543  139.7378  154.2354 C   0  0  0  0  0  0  0  0  0  0  0  0
  147.9839  139.7888  153.4593 C   0  0  0  0  0  0  0  0  0  0  0  0
  147.1338  140.6583  153.6586 O   0  0  0  0  0  0  0  0  0  0  0  0
  147.8288  138.8218  152.5366 N   0  0  0  0  0  0  0  0  0  0  0  0
  146.6647  138.6721  151.6704 C   0  0  0  0  0  0  0  0  0  0  0  0
  145.4336  138.1816  152.4621 C   0  0  0  0  0  0  0  0  0  0  0  0
  144.6831  137.0894  151.7767 N   0  3  1  0  0  0  0  0  0  0  0  0
  145.6039  136.1047  151.1366 C   0  0  0  0  0  0  0  0  0  0  0  0
  144.8468  135.0420  150.3282 C   0  0  0  0  0  0  0  0  0  0  0  0
  143.8472  134.3048  151.2174 C   0  0  0  0  0  0  0  0  0  0  0  0
  142.9024  135.3218  151.8603 C   0  0  0  0  0  0  0  0  0  0  0  0
  143.6659  136.4104  152.6475 C   0  0  2  0  0  0  0  0  0  0  0  0
  142.6332  137.3834  153.2554 C   0  0  0  0  0  0  0  0  0  0  0  0
  150.0998  138.5697  154.0543 C   0  0  0  0  0  0  0  0  0  0  0  0
  151.2582  138.5026  154.7460 C   0  0  0  0  0  0  0  0  0  0  0  0
  151.6756  139.5643  155.6629 C   0  0  0  0  0  0  0  0  0  0  0  0
  152.7215  139.5224  156.3099 O   0  0  0  0  0  0  0  0  0  0  0  0
  152.7355  143.0729  160.4683 H   0  0  0  0  0  0  0  0  0  0  0  0
  153.5057  141.8156  159.5005 H   0  0  0  0  0  0  0  0  0  0  0  0
  152.1531  141.4111  160.5732 H   0  0  0  0  0  0  0  0  0  0  0  0
  152.1994  140.6169  158.0752 H   0  0  0  0  0  0  0  0  0  0  0  0
  150.4900  140.7721  158.4708 H   0  0  0  0  0  0  0  0  0  0  0  0
  150.1902  142.4211  156.6213 H   0  0  0  0  0  0  0  0  0  0  0  0
  151.8814  142.3491  156.2351 H   0  0  0  0  0  0  0  0  0  0  0  0
  148.5723  138.1460  152.4297 H   0  0  0  0  0  0  0  0  0  0  0  0
  146.4485  139.6170  151.1690 H   0  0  0  0  0  0  0  0  0  0  0  0
  146.9467  137.9623  150.8946 H   0  0  0  0  0  0  0  0  0  0  0  0
  145.7259  137.8546  153.4612 H   0  0  0  0  0  0  0  0  0  0  0  0
  144.7922  139.0476  152.6009 H   0  0  0  0  0  0  0  0  0  0  0  0
  146.2925  136.6031  150.4574 H   0  0  0  0  0  0  0  0  0  0  0  0
  146.2124  135.6245  151.9046 H   0  0  0  0  0  0  0  0  0  0  0  0
  144.3252  135.5133  149.4940 H   0  0  0  0  0  0  0  0  0  0  0  0
  145.5511  134.3323  149.8931 H   0  0  0  0  0  0  0  0  0  0  0  0
  143.2814  133.5798  150.6314 H   0  0  0  0  0  0  0  0  0  0  0  0
  144.3749  133.7435  151.9896 H   0  0  0  0  0  0  0  0  0  0  0  0
  142.2910  135.7874  151.0855 H   0  0  0  0  0  0  0  0  0  0  0  0
  142.2111  134.7971  152.5209 H   0  0  0  0  0  0  0  0  0  0  0  0
  144.1982  135.9260  153.4681 H   0  0  0  0  0  0  0  0  0  0  0  0
  141.8158  136.8372  153.7275 H   0  0  0  0  0  0  0  0  0  0  0  0
  142.1965  138.0293  152.4933 H   0  0  0  0  0  0  0  0  0  0  0  0
  143.0586  138.0124  154.0364 H   0  0  0  0  0  0  0  0  0  0  0  0
  149.8169  137.7703  153.3849 H   0  0  0  0  0  0  0  0  0  0  0  0
  151.8967  137.6404  154.6208 H   0  0  0  0  0  0  0  0  0  0  0  0
  144.1620  137.5276  151.0306 H   0  0  0  0  0  0  0  0  0  0  0  0
  1  2  1  0  0  0  0
  1 24  1  0  0  0  0
  1 25  1  0  0  0  0
  1 26  1  0  0  0  0
  2  3  1  0  0  0  0
  3  4  1  0  0  0  0
  3 27  1  0  0  0  0
  3 28  1  0  0  0  0
  4  5  1  0  0  0  0
  4 29  1  0  0  0  0
  4 30  1  0  0  0  0
  5 22  1  0  0  0  0
  5  6  1  0  0  0  0
  6  7  2  0  0  0  0
  7  8  1  0  0  0  0
  7 20  1  0  0  0  0
  8  9  2  0  0  0  0
  8 10  1  0  0  0  0
 10 11  1  0  0  0  0
 10 31  1  0  0  0  0
 11 12  1  0  0  0  0
 11 32  1  0  0  0  0
 11 33  1  0  0  0  0
 12 13  1  0  0  0  0
 12 34  1  0  0  0  0
 12 35  1  0  0  0  0
 13 18  1  0  0  0  0
 13 14  1  0  0  0  0
 13 50  1  0  0  0  0
 14 15  1  0  0  0  0
 14 36  1  0  0  0  0
 14 37  1  0  0  0  0
 15 16  1  0  0  0  0
 15 38  1  0  0  0  0
 15 39  1  0  0  0  0
 16 17  1  0  0  0  0
 16 40  1  0  0  0  0
 16 41  1  0  0  0  0
 17 18  1  0  0  0  0
 17 42  1  0  0  0  0
 17 43  1  0  0  0  0
 18 19  1  0  0  0  0
 18 44  1  0  0  0  0
 19 45  1  0  0  0  0
 19 46  1  0  0  0  0
 19 47  1  0  0  0  0
 20 21  2  0  0  0  0
 20 48  1  0  0  0  0
 21 22  1  0  0  0  0
 21 49  1  0  0  0  0
 22 23  2  0  0  0  0
M  CHG  1  13   1
M  END
> <s_m_source_file>
AV-unprocessed.smi

> <i_m_source_file_index>
1235

> <i_lp_mmshare_version>
43012

> <i_f3d_flags>
0

> <s_epik_input>
W0NIM11PW0NIMl1bQ0gyXW4xbmMoW2NIXVtjSF1jMT1PKUMoPU8pW05IXVtDSDJdW0NIMl1OMltDSDJdW0NIMl1bQ0gyXVtDSDJdW0NASF0yW0NIM10=

> <s_epik_cmdline>
J2VwaWtfcHl0aG9uJywgJy1waCcsICc3LjAnLCAnLXRuJywgJzgnLCAnLW1hJywgJzIwMCcsICctbWV0YWxfYmluZGluZycsICctaW1hZScsICc8aW5maWxlLm1hZT4nLCAnLW9tYWUnLCAnPG91dGZpbGUubWFlPic=

> <r_lp_tautomer_probability>
1

> <r_epik_Ionization_Penalty>
0.00271975

> <r_epik_Ionization_Penalty_Charging>
0.00271407

> <r_epik_Ionization_Penalty_Neutral>
5.6803e-06

> <r_epik_State_Penalty>
0.00189271

> <r_epik_Charging_Adjusted_Penalty>
0.00460678

> <i_epik_Tot_Q>
1

> <i_epik_Tot_abs_Q>
1

> <r_epik_Metal_State_Penalty>
-0

> <b_epik_Metal_Only>
0

> <s_lp_Force_Field>
OPLS_2005

> <r_lp_Energy>
40.1633

> <b_lp_Chiralities_Consistent>
1

> <s_lp_Variant>
AV-unprocessed.smi:1235-4

> <Gold.Version>
5.8.1

> <Gold.Id.Protein>
6NUR|6NUR_protein|mol2

> <Gold.PLP.Fitness>
52.6149

> <Gold.PLP.PLP>
-45.6864

> <Gold.PLP.part.hbond>
-4.0000

> <Gold.PLP.part.metal>
0.0000

> <Gold.PLP.part.buried>
-4.6070

> <Gold.PLP.part.nonpolar>
-39.3385

> <Gold.PLP.part.repulsive>
0.3131

> <Gold.PLP.ligand.clash>
0.2525

> <Gold.PLP.ligand.torsion>
0.7890

> <Gold.PLP.Chemscore.Hbond>
2.8713

> <Gold.PLP.Chemscore.CHOScore>
0.0000

> <Gold.PLP.Chemscore.Metal>
0.0000

> <Gold.Chemscore.Hbonds>
donor molecule, donor type, donor heavy atom, donor atom, acceptor molecule, acceptor atom, score
      L1  H    10    31       P1  7948  0.88
      L1  H    13    50       P1 10171  1.00
      P1  H  7997  8008       L1    23  1.00

> <Gold.PLP.Chemscore.Internal.Correction>
0.1452

> <Gold.Rescore>
     Score         DG    S(hbond)    S(metal)    S(lipo)     H(rot)  DE(clash)    DE(int)     intcor
     18.46     -20.34       2.84        0.00      89.66       2.00       1.06       0.82       ----

> <Gold.Chemscore.Fitness>
18.4573

> <Gold.Chemscore.DG>
-20.3414

> <Gold.Chemscore.ZeroCoef>
-5.4800

> <Gold.Chemscore.Hbond>
2.8432

> <Gold.Chemscore.Metal>
0.0000

> <Gold.Chemscore.Lipo>
89.6597

> <Gold.Chemscore.Internal_Hbond>
0.0000

> <Gold.Chemscore.DEClash>
1.0604

> <Gold.Chemscore.DEInternal>
0.8238

> <Gold.Chemscore.Rot>
2.0020

> <Gold.Chemscore.Internal.Correction>
   9.000000E+99

> <Gold.Chemscore.Hbonds>
donor molecule, donor type, donor heavy atom, donor atom, acceptor molecule, acceptor atom, score
      L1  H    10    31       P1  7948  0.83
      L1  H    13    50       P1 10171  0.99
      P1  H  7997  8008       L1    23  1.00

> <Gold.Chemscore.Hbond.Weighted>
-9.4964

> <Gold.Chemscore.Metal.Weighted>
-0.0000

> <Gold.Chemscore.Lipo.Weighted>
-10.4902

> <Gold.Chemscore.Internal_Hbond.Weighted>
0.0000

> <Gold.Chemscore.DEClash.Weighted>
1.0604

> <Gold.Chemscore.DEInternal.Weighted>
0.8238

> <Gold.Chemscore.Rot.Weighted>
5.1252

> <Gold.Chemscore.Internal.Correction.Weighted>
   9.000000E+99

> <Gold.Protein.RotatedTorsions>
[ 6907 6896 6895 6894 ] final  152.90 input  -60.11 | X-H torsion
[ 7974 7965 7964 7962 ] final   52.99 input  175.53 | X-H torsion
[ 8008 7997 7996 7995 ] final  -37.38 input   59.86 | X-H torsion
[ 10167 10162 10161 10158 ] final -165.07 input  -65.29 | X-H torsion
[ 10718 10713 10712 10709 ] final   33.98 input   66.30 | X-H torsion
[ 10763 10752 10751 10750 ] final   80.78 input  -60.55 | X-H torsion
[ 11005 11000 10999 10996 ] final  -92.04 input  -57.11 | X-H torsion

> <Gold.Protein.ActiveResidues>
 VAL166  LYS551  ARG553  GLY616  TRP617  ASP618  TYR619  PRO620  LYS621  CYS622 
 ASP623  PHE694  ASN695  SER759  ASP760  ASP761  ALA762  ILE779  LEU786  VAL792 
 PHE793  MET794  SER795  GLU796  ALA797  LYS798  CYS799  TRP800  GLU811  SER814 

> <Gold.Protein.RotatedAtoms>
  152.0802  133.4149  159.4497 H   0  0  0  0  0  0  0  0  0  0  0  0  # atno 6907 bound_to 6896
  150.6862  134.2991  159.4708 H   0  0  0  0  0  0  0  0  0  0  0  0  # atno 6908 bound_to 6896
  152.0832  134.9457  160.0624 H   0  0  0  0  0  0  0  0  0  0  0  0  # atno 6909 bound_to 6896
  145.9757  139.4192  143.0163 H   0  0  0  0  0  0  0  0  0  0  0  0  # atno 7974 bound_to 7965
  154.4055  140.1606  156.2527 H   0  0  0  0  0  0  0  0  0  0  0  0  # atno 8008 bound_to 7997
  155.9105  140.3427  155.6073 H   0  0  0  0  0  0  0  0  0  0  0  0  # atno 8009 bound_to 7997
  155.7341  140.0784  157.2266 H   0  0  0  0  0  0  0  0  0  0  0  0  # atno 8010 bound_to 7997
  139.6207  144.0629  152.1930 H   0  0  0  0  0  0  0  0  0  0  0  0  # atno 10167 bound_to 10162
  157.3047  130.7368  149.6688 H   0  0  0  0  0  0  0  0  0  0  0  0  # atno 10718 bound_to 10713
  153.1062  135.4790  154.8954 H   0  0  0  0  0  0  0  0  0  0  0  0  # atno 10763 bound_to 10752
  154.7432  135.3087  154.8694 H   0  0  0  0  0  0  0  0  0  0  0  0  # atno 10764 bound_to 10752
  153.9296  135.6846  153.4799 H   0  0  0  0  0  0  0  0  0  0  0  0  # atno 10765 bound_to 10752
  141.1531  133.7794  156.9964 H   0  0  0  0  0  0  0  0  0  0  0  0  # atno 11005 bound_to 11000
  145.7842  140.9843  143.1083 LP  0  0  0  0  0  0  0  0  0  0  0  0  # atno 17320 bound_to 7965
  144.6848  139.9602  143.7480 LP  0  0  0  0  0  0  0  0  0  0  0  0  # atno 17321 bound_to 7965
  140.0271  144.6109  150.7519 LP  0  0  0  0  0  0  0  0  0  0  0  0  # atno 17342 bound_to 10162
  140.7380  143.2773  151.3704 LP  0  0  0  0  0  0  0  0  0  0  0  0  # atno 17343 bound_to 10162
  155.9673  130.4269  150.4721 LP  0  0  0  0  0  0  0  0  0  0  0  0  # atno 17370 bound_to 10713
  157.2708  131.0587  151.2261 LP  0  0  0  0  0  0  0  0  0  0  0  0  # atno 17371 bound_to 10713
  140.0969  134.9559  157.1863 LP  0  0  0  0  0  0  0  0  0  0  0  0  # atno 17394 bound_to 11000
  140.3370  134.2746  155.7218 LP  0  0  0  0  0  0  0  0  0  0  0  0  # atno 17395 bound_to 11000

$$$$
