AV-unprocessed.smi:799|AV-procd|sdf|3785|dock2
  -GOLD-   22720 1223D 1   1.00000     0.00000
 Structure written by MMmdl.
 47 48  0  0  0  0  0  0  0  0  1 V2000
  150.2820  142.0479  155.9567 C   0  0  0  0  0  0  0  0  0  0  0  0
  150.0524  140.7217  155.2942 C   0  0  0  0  0  0  0  0  0  0  0  0
  148.8104  140.1292  154.9228 C   0  0  0  0  0  0  0  0  0  0  0  0
  149.1984  138.9415  154.3655 C   0  0  0  0  0  0  0  0  0  0  0  0
  148.4306  137.9593  153.8235 N   0  0  0  0  0  0  0  0  0  0  0  0
  147.1468  137.6562  154.0810 C   0  0  0  0  0  0  0  0  0  0  0  0
  146.4325  138.2313  154.9020 O   0  0  0  0  0  0  0  0  0  0  0  0
  146.7369  136.6298  153.3155 N   0  0  0  0  0  0  0  0  0  0  0  0
  145.4178  135.9754  153.2820 C   0  0  1  0  0  0  0  0  0  0  0  0
  145.2255  135.3209  154.6700 C   0  0  0  0  0  0  0  0  0  0  0  0
  144.3071  137.0474  153.0762 C   0  0  0  0  0  0  0  0  0  0  0  0
  144.5568  137.8770  151.9570 O   0  0  0  0  0  0  0  0  0  0  0  0
  145.3736  134.8973  152.1378 C   0  0  0  0  0  0  0  0  0  0  0  0
  144.0111  134.1705  151.9947 C   0  0  0  0  0  0  0  0  0  0  0  0
  143.9933  133.2127  150.7916 C   0  0  0  0  0  0  0  0  0  0  0  0
  145.1321  132.1875  150.8750 C   0  0  0  0  0  0  0  0  0  0  0  0
  146.4898  132.8900  151.0071 C   0  0  0  0  0  0  0  0  0  0  0  0
  146.5092  133.8409  152.2143 C   0  0  0  0  0  0  0  0  0  0  0  0
  150.5718  138.8553  154.4128 N   0  0  0  0  0  0  0  0  0  0  0  0
  151.4448  137.7962  153.9462 C   0  0  0  0  0  0  0  0  0  0  0  0
  151.0961  139.9589  154.9885 N   0  0  0  0  0  0  0  0  0  0  0  0
  149.3413  142.5731  156.1231 H   0  0  0  0  0  0  0  0  0  0  0  0
  150.9153  142.6890  155.3432 H   0  0  0  0  0  0  0  0  0  0  0  0
  150.7686  141.9243  156.9245 H   0  0  0  0  0  0  0  0  0  0  0  0
  147.8154  140.5280  155.0502 H   0  0  0  0  0  0  0  0  0  0  0  0
  148.8921  137.3849  153.1338 H   0  0  0  0  0  0  0  0  0  0  0  0
  147.4207  136.2420  152.6827 H   0  0  0  0  0  0  0  0  0  0  0  0
  144.2409  134.8658  154.7738 H   0  0  0  0  0  0  0  0  0  0  0  0
  145.3172  136.0548  155.4715 H   0  0  0  0  0  0  0  0  0  0  0  0
  145.9697  134.5501  154.8674 H   0  0  0  0  0  0  0  0  0  0  0  0
  143.3275  136.5857  152.9518 H   0  0  0  0  0  0  0  0  0  0  0  0
  144.2301  137.7004  153.9447 H   0  0  0  0  0  0  0  0  0  0  0  0
  144.1519  138.7170  152.1103 H   0  0  0  0  0  0  0  0  0  0  0  0
  145.5193  135.4310  151.1981 H   0  0  0  0  0  0  0  0  0  0  0  0
  143.7878  133.6019  152.8974 H   0  0  0  0  0  0  0  0  0  0  0  0
  143.1993  134.8854  151.8696 H   0  0  0  0  0  0  0  0  0  0  0  0
  143.0343  132.6962  150.7433 H   0  0  0  0  0  0  0  0  0  0  0  0
  144.0826  133.7846  149.8672 H   0  0  0  0  0  0  0  0  0  0  0  0
  144.9738  131.5312  151.7316 H   0  0  0  0  0  0  0  0  0  0  0  0
  145.1260  131.5503  149.9901 H   0  0  0  0  0  0  0  0  0  0  0  0
  147.2829  132.1484  151.1059 H   0  0  0  0  0  0  0  0  0  0  0  0
  146.7034  133.4512  150.0962 H   0  0  0  0  0  0  0  0  0  0  0  0
  147.4882  134.3169  152.2556 H   0  0  0  0  0  0  0  0  0  0  0  0
  146.4166  133.2518  153.1264 H   0  0  0  0  0  0  0  0  0  0  0  0
  151.1172  136.8417  154.3590 H   0  0  0  0  0  0  0  0  0  0  0  0
  152.4733  137.9803  154.2594 H   0  0  0  0  0  0  0  0  0  0  0  0
  151.4085  137.7461  152.8578 H   0  0  0  0  0  0  0  0  0  0  0  0
  1  2  1  0  0  0  0
  1 22  1  0  0  0  0
  1 23  1  0  0  0  0
  1 24  1  0  0  0  0
  2 21  2  0  0  0  0
  2  3  1  0  0  0  0
  3  4  2  0  0  0  0
  3 25  1  0  0  0  0
  4  5  1  0  0  0  0
  4 19  1  0  0  0  0
  5  6  1  0  0  0  0
  5 26  1  0  0  0  0
  6  7  2  0  0  0  0
  6  8  1  0  0  0  0
  8  9  1  0  0  0  0
  8 27  1  0  0  0  0
  9 10  1  0  0  0  0
  9 11  1  0  0  0  0
  9 13  1  0  0  0  0
 10 28  1  0  0  0  0
 10 29  1  0  0  0  0
 10 30  1  0  0  0  0
 11 12  1  0  0  0  0
 11 31  1  0  0  0  0
 11 32  1  0  0  0  0
 12 33  1  0  0  0  0
 13 18  1  0  0  0  0
 13 14  1  0  0  0  0
 13 34  1  0  0  0  0
 14 15  1  0  0  0  0
 14 35  1  0  0  0  0
 14 36  1  0  0  0  0
 15 16  1  0  0  0  0
 15 37  1  0  0  0  0
 15 38  1  0  0  0  0
 16 17  1  0  0  0  0
 16 39  1  0  0  0  0
 16 40  1  0  0  0  0
 17 18  1  0  0  0  0
 17 41  1  0  0  0  0
 17 42  1  0  0  0  0
 18 43  1  0  0  0  0
 18 44  1  0  0  0  0
 19 20  1  0  0  0  0
 19 21  1  0  0  0  0
 20 45  1  0  0  0  0
 20 46  1  0  0  0  0
 20 47  1  0  0  0  0
M  END
> <s_m_source_file>
AV-unprocessed.smi

> <i_m_source_file_index>
799

> <i_lp_mmshare_version>
43012

> <i_f3d_flags>
0

> <s_epik_input>
W0NIM11jMVtjSF1jKG4objEpW0NIM10pW05IXUMoPU8pW05IXVtDQEBdKFtDSDNdKShbQ0gyXVtPSF0pW0NIXTJbQ0gyXVtDSDJdW0NIMl1bQ0gyXVtDSDJdMg==

> <s_epik_cmdline>
J2VwaWtfcHl0aG9uJywgJy1waCcsICc3LjAnLCAnLXRuJywgJzgnLCAnLW1hJywgJzIwMCcsICctbWV0YWxfYmluZGluZycsICctaW1hZScsICc8aW5maWxlLm1hZT4nLCAnLW9tYWUnLCAnPG91dGZpbGUubWFlPic=

> <r_lp_tautomer_probability>
1

> <r_epik_Ionization_Penalty>
9.86025e-05

> <r_epik_Ionization_Penalty_Charging>
0

> <r_epik_Ionization_Penalty_Neutral>
9.86025e-05

> <r_epik_State_Penalty>
-0

> <r_epik_Charging_Adjusted_Penalty>
0

> <i_epik_Tot_Q>
0

> <i_epik_Tot_abs_Q>
0

> <r_epik_Metal_State_Penalty>
-0

> <b_epik_Metal_Only>
0

> <s_lp_Force_Field>
OPLS_2005

> <r_lp_Energy>
22.1545

> <b_lp_Chiralities_Consistent>
1

> <s_lp_Variant>
AV-unprocessed.smi:799-1

> <Gold.Version>
5.8.1

> <Gold.Id.Protein>
6NUR|6NUR_protein|mol2

> <Gold.PLP.Fitness>
45.1355

> <Gold.PLP.PLP>
-34.0609

> <Gold.PLP.part.hbond>
-4.5681

> <Gold.PLP.part.metal>
0.0000

> <Gold.PLP.part.buried>
-3.4273

> <Gold.PLP.part.nonpolar>
-26.0268

> <Gold.PLP.part.repulsive>
0.1160

> <Gold.PLP.ligand.clash>
0.0000

> <Gold.PLP.ligand.torsion>
0.2705

> <Gold.PLP.Chemscore.Hbond>
3.8500

> <Gold.PLP.Chemscore.CHOScore>
0.0000

> <Gold.PLP.Chemscore.Metal>
0.0000

> <Gold.Chemscore.Hbonds>
donor molecule, donor type, donor heavy atom, donor atom, acceptor molecule, acceptor atom, score
      L1  H     5    26       P1  7948  1.00
      L1  H     8    27       P1  7948  1.00
      L1  H    12    33       P1 10175  1.00
      P1  H  7989  7998       L1    21  0.90

> <Gold.PLP.Chemscore.Internal.Correction>
0.0656

> <Gold.Rescore>
     Score         DG    S(hbond)    S(metal)    S(lipo)     H(rot)  DE(clash)    DE(int)     intcor
     17.58     -19.06       2.95        0.00      75.94       2.01       0.07       1.41       ----

> <Gold.Chemscore.Fitness>
17.5806

> <Gold.Chemscore.DG>
-19.0556

> <Gold.Chemscore.ZeroCoef>
-5.4800

> <Gold.Chemscore.Hbond>
2.9484

> <Gold.Chemscore.Metal>
0.0000

> <Gold.Chemscore.Lipo>
75.9391

> <Gold.Chemscore.Internal_Hbond>
0.0000

> <Gold.Chemscore.DEClash>
0.0661

> <Gold.Chemscore.DEInternal>
1.4089

> <Gold.Chemscore.Rot>
2.0144

> <Gold.Chemscore.Internal.Correction>
   9.000000E+99

> <Gold.Chemscore.Hbonds>
donor molecule, donor type, donor heavy atom, donor atom, acceptor molecule, acceptor atom, score
      L1  H     5    26       P1  7948  0.98
      L1  H     8    27       P1  7948  0.98
      L1  H    12    33       P1 10175  1.00
      P1  H  7989  7998       L1    21  0.05

> <Gold.Chemscore.Hbond.Weighted>
-9.8475

> <Gold.Chemscore.Metal.Weighted>
-0.0000

> <Gold.Chemscore.Lipo.Weighted>
-8.8849

> <Gold.Chemscore.Internal_Hbond.Weighted>
0.0000

> <Gold.Chemscore.DEClash.Weighted>
0.0661

> <Gold.Chemscore.DEInternal.Weighted>
1.4089

> <Gold.Chemscore.Rot.Weighted>
5.1568

> <Gold.Chemscore.Internal.Correction.Weighted>
   9.000000E+99

> <Gold.Protein.RotatedTorsions>
[ 6907 6896 6895 6894 ] final -157.15 input  -60.11 | X-H torsion
[ 7974 7965 7964 7962 ] final   55.72 input  175.53 | X-H torsion
[ 8008 7997 7996 7995 ] final   57.93 input   59.86 | X-H torsion
[ 10167 10162 10161 10158 ] final  -29.60 input  -65.29 | X-H torsion
[ 10718 10713 10712 10709 ] final   65.08 input   66.30 | X-H torsion
[ 10763 10752 10751 10750 ] final  -15.34 input  -60.55 | X-H torsion
[ 11005 11000 10999 10996 ] final   52.67 input  -57.11 | X-H torsion

> <Gold.Protein.ActiveResidues>
 VAL166  LYS551  ARG553  GLY616  TRP617  ASP618  TYR619  PRO620  LYS621  CYS622 
 ASP623  PHE694  ASN695  SER759  ASP760  ASP761  ALA762  ILE779  LEU786  VAL792 
 PHE793  MET794  SER795  GLU796  ALA797  LYS798  CYS799  TRP800  GLU811  SER814 

> <Gold.Protein.RotatedAtoms>
  151.2985  133.4133  159.2637 H   0  0  0  0  0  0  0  0  0  0  0  0  # atno 6907 bound_to 6896
  151.0215  134.9473  159.8072 H   0  0  0  0  0  0  0  0  0  0  0  0  # atno 6908 bound_to 6896
  152.5325  134.2948  159.9109 H   0  0  0  0  0  0  0  0  0  0  0  0  # atno 6909 bound_to 6896
  145.9474  139.3942  143.0327 H   0  0  0  0  0  0  0  0  0  0  0  0  # atno 7974 bound_to 7965
  155.5417  140.3484  155.4448 H   0  0  0  0  0  0  0  0  0  0  0  0  # atno 8008 bound_to 7997
  156.0646  140.1348  156.9927 H   0  0  0  0  0  0  0  0  0  0  0  0  # atno 8009 bound_to 7997
  154.4497  140.0978  156.6553 H   0  0  0  0  0  0  0  0  0  0  0  0  # atno 8010 bound_to 7997
  140.7259  143.3916  151.1420 H   0  0  0  0  0  0  0  0  0  0  0  0  # atno 10167 bound_to 10162
  157.6082  130.9195  149.9930 H   0  0  0  0  0  0  0  0  0  0  0  0  # atno 10718 bound_to 10713
  153.5419  135.7013  153.5632 H   0  0  0  0  0  0  0  0  0  0  0  0  # atno 10763 bound_to 10752
  153.3594  135.3974  155.1707 H   0  0  0  0  0  0  0  0  0  0  0  0  # atno 10764 bound_to 10752
  154.8672  135.3785  154.4924 H   0  0  0  0  0  0  0  0  0  0  0  0  # atno 10765 bound_to 10752
  140.0830  134.5312  155.8927 H   0  0  0  0  0  0  0  0  0  0  0  0  # atno 11005 bound_to 11000
  145.8218  140.9675  143.0895 LP  0  0  0  0  0  0  0  0  0  0  0  0  # atno 17320 bound_to 7965
  144.6789  140.0050  143.7484 LP  0  0  0  0  0  0  0  0  0  0  0  0  # atno 17321 bound_to 7965
  139.7521  143.8762  152.3079 LP  0  0  0  0  0  0  0  0  0  0  0  0  # atno 17342 bound_to 10162
  139.8619  144.7112  150.9089 LP  0  0  0  0  0  0  0  0  0  0  0  0  # atno 17343 bound_to 10162
  156.1176  130.3647  149.9942 LP  0  0  0  0  0  0  0  0  0  0  0  0  # atno 17370 bound_to 10713
  156.8029  130.9297  151.3645 LP  0  0  0  0  0  0  0  0  0  0  0  0  # atno 17371 bound_to 10713
  141.2053  133.6646  156.6173 LP  0  0  0  0  0  0  0  0  0  0  0  0  # atno 17394 bound_to 11000
  140.3460  134.7808  157.4433 LP  0  0  0  0  0  0  0  0  0  0  0  0  # atno 17395 bound_to 11000

$$$$
