AV-unprocessed.smi:1419|AV-procd|sdf|5775|dock10
  -GOLD-   22720 5423D 1   1.00000     0.00000
 Structure written by MMmdl.
 42 43  0  0  0  0  0  0  0  0  2 V2000
  150.3032  138.9097  155.2668 C   0  0  0  0  0  0  0  0  0  0  0  0
  148.9331  138.2732  154.9983 C   0  0  1  0  0  0  0  0  0  0  0  0
  148.2094  138.9719  153.8271 C   0  0  0  0  0  0  0  0  0  0  0  0
  147.6850  140.2940  154.1880 N   0  0  0  0  0  0  0  0  0  0  0  0
  146.4336  140.7900  153.9269 C   0  0  0  0  0  0  0  0  0  0  0  0
  146.4061  142.0652  154.4301 C   0  0  0  0  0  0  0  0  0  0  0  0
  147.6389  142.2919  154.9809 N   0  3  0  0  0  0  0  0  0  0  0  0
  148.4135  141.2117  154.8381 C   0  0  0  0  0  0  0  0  0  0  0  0
  149.1172  136.8497  154.7189 N   0  0  0  0  0  0  0  0  0  0  0  0
  149.5776  135.9285  155.5840 C   0  0  0  0  0  0  0  0  0  0  0  0
  149.9699  136.2256  156.7133 O   0  0  0  0  0  0  0  0  0  0  0  0
  149.5722  134.6580  155.1119 N   0  0  0  0  0  0  0  0  0  0  0  0
  148.6062  134.0832  154.1664 C   0  0  0  0  0  0  0  0  0  0  0  0
  147.6190  133.2122  154.9697 C   0  0  1  0  0  0  0  0  0  0  0  0
  146.5885  132.5223  154.0696 C   0  0  0  0  0  0  0  0  0  0  0  0
  148.3488  132.2026  155.6675 O   0  0  0  0  0  0  0  0  0  0  0  0
  149.3462  132.7120  156.5536 C   0  0  1  0  0  0  0  0  0  0  0  0
  150.0377  131.5244  157.2312 C   0  0  0  0  0  0  0  0  0  0  0  0
  150.3343  133.5844  155.7525 C   0  0  0  0  0  0  0  0  0  0  0  0
  150.2033  139.9688  155.5068 H   0  0  0  0  0  0  0  0  0  0  0  0
  150.9584  138.8264  154.3990 H   0  0  0  0  0  0  0  0  0  0  0  0
  150.8018  138.4286  156.1090 H   0  0  0  0  0  0  0  0  0  0  0  0
  148.3375  138.3991  155.9045 H   0  0  0  0  0  0  0  0  0  0  0  0
  148.8956  139.1169  152.9915 H   0  0  0  0  0  0  0  0  0  0  0  0
  147.3860  138.3588  153.4564 H   0  0  0  0  0  0  0  0  0  0  0  0
  145.6788  140.2167  153.4081 H   0  0  0  0  0  0  0  0  0  0  0  0
  145.6225  142.8091  154.4356 H   0  0  0  0  0  0  0  0  0  0  0  0
  149.4311  141.1075  155.1708 H   0  0  0  0  0  0  0  0  0  0  0  0
  148.8375  136.5299  153.8030 H   0  0  0  0  0  0  0  0  0  0  0  0
  148.0633  134.8274  153.5835 H   0  0  0  0  0  0  0  0  0  0  0  0
  149.1382  133.4727  153.4349 H   0  0  0  0  0  0  0  0  0  0  0  0
  147.0889  133.8313  155.6957 H   0  0  0  0  0  0  0  0  0  0  0  0
  145.9923  133.2533  153.5227 H   0  0  0  0  0  0  0  0  0  0  0  0
  145.9051  131.9098  154.6583 H   0  0  0  0  0  0  0  0  0  0  0  0
  147.0739  131.8727  153.3406 H   0  0  0  0  0  0  0  0  0  0  0  0
  148.8606  133.3169  157.3217 H   0  0  0  0  0  0  0  0  0  0  0  0
  150.8001  131.8625  157.9334 H   0  0  0  0  0  0  0  0  0  0  0  0
  150.5208  130.8780  156.4975 H   0  0  0  0  0  0  0  0  0  0  0  0
  149.3196  130.9202  157.7861 H   0  0  0  0  0  0  0  0  0  0  0  0
  150.8377  132.9885  154.9894 H   0  0  0  0  0  0  0  0  0  0  0  0
  151.1235  133.9619  156.4048 H   0  0  0  0  0  0  0  0  0  0  0  0
  147.9255  143.1523  155.4312 H   0  0  0  0  0  0  0  0  0  0  0  0
  1  2  1  0  0  0  0
  1 20  1  0  0  0  0
  1 21  1  0  0  0  0
  1 22  1  0  0  0  0
  2  3  1  0  0  0  0
  2  9  1  0  0  0  0
  2 23  1  0  0  0  0
  3  4  1  0  0  0  0
  3 24  1  0  0  0  0
  3 25  1  0  0  0  0
  4  8  1  0  0  0  0
  4  5  1  0  0  0  0
  5  6  2  0  0  0  0
  5 26  1  0  0  0  0
  6  7  1  0  0  0  0
  6 27  1  0  0  0  0
  7  8  2  0  0  0  0
  7 42  1  0  0  0  0
  8 28  1  0  0  0  0
  9 10  1  0  0  0  0
  9 29  1  0  0  0  0
 10 11  2  0  0  0  0
 10 12  1  0  0  0  0
 12 19  1  0  0  0  0
 12 13  1  0  0  0  0
 13 14  1  0  0  0  0
 13 30  1  0  0  0  0
 13 31  1  0  0  0  0
 14 15  1  0  0  0  0
 14 16  1  0  0  0  0
 14 32  1  0  0  0  0
 15 33  1  0  0  0  0
 15 34  1  0  0  0  0
 15 35  1  0  0  0  0
 16 17  1  0  0  0  0
 17 18  1  0  0  0  0
 17 19  1  0  0  0  0
 17 36  1  0  0  0  0
 18 37  1  0  0  0  0
 18 38  1  0  0  0  0
 18 39  1  0  0  0  0
 19 40  1  0  0  0  0
 19 41  1  0  0  0  0
M  CHG  1   7   1
M  END
> <s_m_source_file>
AV-unprocessed.smi

> <i_m_source_file_index>
1419

> <i_lp_mmshare_version>
43012

> <i_f3d_flags>
0

> <s_epik_input>
W2NIXTFuW2NIXVtjSF1uMVtDSDJdW0NAQEhdKFtDSDNdKVtOSF1DKD1PKU4yW0NIMl1bQ0BASF0oW0NIM10pT1tDQEBIXShbQ0gzXSlbQ0gyXTI=

> <s_epik_cmdline>
J2VwaWtfcHl0aG9uJywgJy1waCcsICc3LjAnLCAnLXRuJywgJzgnLCAnLW1hJywgJzIwMCcsICctbWV0YWxfYmluZGluZycsICctaW1hZScsICc8aW5maWxlLm1hZT4nLCAnLW9tYWUnLCAnPG91dGZpbGUubWFlPic=

> <r_lp_tautomer_probability>
1

> <r_epik_Ionization_Penalty>
0.253607

> <r_epik_Ionization_Penalty_Charging>
0

> <r_epik_Ionization_Penalty_Neutral>
0.253607

> <r_epik_State_Penalty>
0.245018

> <r_epik_Charging_Adjusted_Penalty>
0.245018

> <i_epik_Tot_Q>
1

> <i_epik_Tot_abs_Q>
1

> <r_epik_Metal_State_Penalty>
0.535379

> <b_epik_Metal_Only>
0

> <s_lp_Force_Field>
OPLS_2005

> <r_lp_Energy>
29.1854

> <b_lp_Chiralities_Consistent>
1

> <s_lp_Variant>
AV-unprocessed.smi:1419-2

> <Gold.Version>
5.8.1

> <Gold.Id.Protein>
6NUR|6NUR_protein|mol2

> <Gold.PLP.Fitness>
39.0252

> <Gold.PLP.PLP>
-28.0842

> <Gold.PLP.part.hbond>
-1.9879

> <Gold.PLP.part.metal>
0.0000

> <Gold.PLP.part.buried>
-1.4424

> <Gold.PLP.part.nonpolar>
-25.5909

> <Gold.PLP.part.repulsive>
0.2359

> <Gold.PLP.ligand.clash>
0.0000

> <Gold.PLP.ligand.torsion>
0.5637

> <Gold.PLP.Chemscore.Hbond>
3.0000

> <Gold.PLP.Chemscore.CHOScore>
1.0000

> <Gold.PLP.Chemscore.Metal>
0.0000

> <Gold.Chemscore.Hbonds>
donor molecule, donor type, donor heavy atom, donor atom, acceptor molecule, acceptor atom, score
      L1  H     7    42       P1  8028  2.00
      L1  H     9    29       P1  7948  1.00
      L1  C     5    26       P1 10175  1.00

> <Gold.PLP.Chemscore.Internal.Correction>
0.0685

> <Gold.Rescore>
     Score         DG    S(hbond)    S(metal)    S(lipo)     H(rot)  DE(clash)    DE(int)     intcor
     12.19     -14.54       1.96        0.00      57.17       1.63       1.63       0.72       ----

> <Gold.Chemscore.Fitness>
12.1890

> <Gold.Chemscore.DG>
-14.5405

> <Gold.Chemscore.ZeroCoef>
-5.4800

> <Gold.Chemscore.Hbond>
1.9573

> <Gold.Chemscore.Metal>
0.0000

> <Gold.Chemscore.Lipo>
57.1698

> <Gold.Chemscore.Internal_Hbond>
0.0000

> <Gold.Chemscore.DEClash>
1.6278

> <Gold.Chemscore.DEInternal>
0.7236

> <Gold.Chemscore.Rot>
1.6273

> <Gold.Chemscore.Internal.Correction>
   9.000000E+99

> <Gold.Chemscore.Hbonds>
donor molecule, donor type, donor heavy atom, donor atom, acceptor molecule, acceptor atom, score
      L1  H     7    42       P1  8028  0.69
      L1  H     9    29       P1  7948  0.98

> <Gold.Chemscore.Hbond.Weighted>
-6.5374

> <Gold.Chemscore.Metal.Weighted>
-0.0000

> <Gold.Chemscore.Lipo.Weighted>
-6.6889

> <Gold.Chemscore.Internal_Hbond.Weighted>
0.0000

> <Gold.Chemscore.DEClash.Weighted>
1.6278

> <Gold.Chemscore.DEInternal.Weighted>
0.7236

> <Gold.Chemscore.Rot.Weighted>
4.1658

> <Gold.Chemscore.Internal.Correction.Weighted>
   9.000000E+99

> <Gold.Protein.RotatedTorsions>
[ 6907 6896 6895 6894 ] final  -55.57 input  -60.11 | X-H torsion
[ 7974 7965 7964 7962 ] final  120.18 input  175.53 | X-H torsion
[ 8008 7997 7996 7995 ] final -153.81 input   59.86 | X-H torsion
[ 10167 10162 10161 10158 ] final   21.84 input  -65.29 | X-H torsion
[ 10718 10713 10712 10709 ] final  157.47 input   66.30 | X-H torsion
[ 10763 10752 10751 10750 ] final   39.22 input  -60.55 | X-H torsion
[ 11005 11000 10999 10996 ] final  -35.95 input  -57.11 | X-H torsion

> <Gold.Protein.ActiveResidues>
 VAL166  LYS551  ARG553  GLY616  TRP617  ASP618  TYR619  PRO620  LYS621  CYS622 
 ASP623  PHE694  ASN695  SER759  ASP760  ASP761  ALA762  ILE779  LEU786  VAL792 
 PHE793  MET794  SER795  GLU796  ALA797  LYS798  CYS799  TRP800  GLU811  SER814 

> <Gold.Protein.RotatedAtoms>
  150.8240  134.7462  159.6796 H   0  0  0  0  0  0  0  0  0  0  0  0  # atno 6907 bound_to 6896
  152.4353  134.5696  159.9927 H   0  0  0  0  0  0  0  0  0  0  0  0  # atno 6908 bound_to 6896
  151.5872  133.3333  159.3056 H   0  0  0  0  0  0  0  0  0  0  0  0  # atno 6909 bound_to 6896
  145.1343  139.3308  143.4649 H   0  0  0  0  0  0  0  0  0  0  0  0  # atno 7974 bound_to 7965
  155.6766  140.0739  157.2500 H   0  0  0  0  0  0  0  0  0  0  0  0  # atno 8008 bound_to 7997
  154.4113  140.1689  156.1989 H   0  0  0  0  0  0  0  0  0  0  0  0  # atno 8009 bound_to 7997
  155.9570  140.3373  155.6461 H   0  0  0  0  0  0  0  0  0  0  0  0  # atno 8010 bound_to 7997
  140.5395  143.9702  150.6511 H   0  0  0  0  0  0  0  0  0  0  0  0  # atno 10167 bound_to 10162
  157.1910  131.0654  151.2079 H   0  0  0  0  0  0  0  0  0  0  0  0  # atno 10718 bound_to 10713
  152.9974  135.6227  154.2430 H   0  0  0  0  0  0  0  0  0  0  0  0  # atno 10763 bound_to 10752
  154.2171  135.2797  155.2940 H   0  0  0  0  0  0  0  0  0  0  0  0  # atno 10764 bound_to 10752
  154.5559  135.5719  153.7022 H   0  0  0  0  0  0  0  0  0  0  0  0  # atno 10765 bound_to 10752
  140.9836  133.7043  156.1727 H   0  0  0  0  0  0  0  0  0  0  0  0  # atno 11005 bound_to 11000
  146.3511  140.1354  142.8596 LP  0  0  0  0  0  0  0  0  0  0  0  0  # atno 17320 bound_to 7965
  145.0601  140.9082  143.4943 LP  0  0  0  0  0  0  0  0  0  0  0  0  # atno 17321 bound_to 7965
  140.3099  143.3205  152.0889 LP  0  0  0  0  0  0  0  0  0  0  0  0  # atno 17342 bound_to 10162
  139.4983  144.6643  151.6392 LP  0  0  0  0  0  0  0  0  0  0  0  0  # atno 17343 bound_to 10162
  157.3860  130.7257  149.6664 LP  0  0  0  0  0  0  0  0  0  0  0  0  # atno 17370 bound_to 10713
  155.9712  130.4159  150.4205 LP  0  0  0  0  0  0  0  0  0  0  0  0  # atno 17371 bound_to 10713
  140.7148  134.4422  157.5579 LP  0  0  0  0  0  0  0  0  0  0  0  0  # atno 17394 bound_to 11000
  139.8961  134.8668  156.2103 LP  0  0  0  0  0  0  0  0  0  0  0  0  # atno 17395 bound_to 11000

$$$$
