AV-unprocessed.smi:3333|AV-procd|sdf|12832|dock9
  -GOLD-   2272019213D 1   1.00000     0.00000
 Structure written by MMmdl.
 41 43  0  0  0  0  0  0  0  0  1 V2000
  147.8142  143.1242  159.2456 C   0  0  0  0  0  0  0  0  0  0  0  0
  146.4284  143.0052  158.6024 C   0  0  0  0  0  0  0  0  0  0  0  0
  146.4816  142.4073  157.2363 C   0  0  0  0  0  0  0  0  0  0  0  0
  147.6215  142.1523  156.5888 N   0  0  0  0  0  0  0  0  0  0  0  0
  147.4104  141.6379  155.3051 C   0  0  0  0  0  0  0  0  0  0  0  0
  148.5849  141.3024  154.4290 C   0  0  0  0  0  0  0  0  0  0  0  0
  149.8980  141.2694  155.2216 C   0  0  0  0  0  0  0  0  0  0  0  0
  150.7311  140.3804  155.0379 O   0  0  0  0  0  0  0  0  0  0  0  0
  150.0738  142.2623  156.1071 N   0  0  0  0  0  0  0  0  0  0  0  0
  151.2438  142.4210  156.9642 C   0  0  0  0  0  0  0  0  0  0  0  0
  151.3971  143.8700  157.4740 C   0  0  1  0  0  0  0  0  0  0  0  0
  150.5760  144.1876  158.7410 C   0  0  0  0  0  0  0  0  0  0  0  0
  151.6169  144.8428  159.6686 C   0  0  1  0  0  0  0  0  0  0  0  0
  152.5664  143.7570  160.2069 C   0  0  0  0  0  0  0  0  0  0  0  0
  153.4208  143.4139  158.9727 C   0  0  0  0  0  0  0  0  0  0  0  0
  152.8223  144.3209  157.8776 C   0  0  2  0  0  0  0  0  0  0  0  0
  152.5125  145.5814  158.6794 C   0  0  0  0  0  0  0  0  0  0  0  0
  146.0805  141.4985  154.9914 C   0  0  0  0  0  0  0  0  0  0  0  0
  145.0470  142.0336  156.2878 S   0  0  0  0  0  0  0  0  0  0  0  0
  147.7450  143.5680  160.2389 H   0  0  0  0  0  0  0  0  0  0  0  0
  148.4744  143.7507  158.6450 H   0  0  0  0  0  0  0  0  0  0  0  0
  148.2839  142.1455  159.3496 H   0  0  0  0  0  0  0  0  0  0  0  0
  145.7776  142.3954  159.2302 H   0  0  0  0  0  0  0  0  0  0  0  0
  145.9647  143.9899  158.5356 H   0  0  0  0  0  0  0  0  0  0  0  0
  148.4457  140.3313  153.9527 H   0  0  0  0  0  0  0  0  0  0  0  0
  148.6713  142.0321  153.6226 H   0  0  0  0  0  0  0  0  0  0  0  0
  149.3458  142.9566  156.1946 H   0  0  0  0  0  0  0  0  0  0  0  0
  151.1763  141.7356  157.8104 H   0  0  0  0  0  0  0  0  0  0  0  0
  152.1250  142.1092  156.4043 H   0  0  0  0  0  0  0  0  0  0  0  0
  151.0539  144.5374  156.6813 H   0  0  0  0  0  0  0  0  0  0  0  0
  149.7679  144.8821  158.5075 H   0  0  0  0  0  0  0  0  0  0  0  0
  150.1290  143.3011  159.1930 H   0  0  0  0  0  0  0  0  0  0  0  0
  151.1775  145.4644  160.4489 H   0  0  0  0  0  0  0  0  0  0  0  0
  153.1927  144.1488  161.0095 H   0  0  0  0  0  0  0  0  0  0  0  0
  152.0279  142.8914  160.5948 H   0  0  0  0  0  0  0  0  0  0  0  0
  154.4639  143.6768  159.1533 H   0  0  0  0  0  0  0  0  0  0  0  0
  153.3952  142.3546  158.7209 H   0  0  0  0  0  0  0  0  0  0  0  0
  153.4877  144.4771  157.0281 H   0  0  0  0  0  0  0  0  0  0  0  0
  151.9851  146.3448  158.1047 H   0  0  0  0  0  0  0  0  0  0  0  0
  153.3935  146.0288  159.1434 H   0  0  0  0  0  0  0  0  0  0  0  0
  145.6481  141.1280  154.0739 H   0  0  0  0  0  0  0  0  0  0  0  0
  1  2  1  0  0  0  0
  1 20  1  0  0  0  0
  1 21  1  0  0  0  0
  1 22  1  0  0  0  0
  2  3  1  0  0  0  0
  2 23  1  0  0  0  0
  2 24  1  0  0  0  0
  3 19  1  0  0  0  0
  3  4  2  0  0  0  0
  4  5  1  0  0  0  0
  5  6  1  0  0  0  0
  5 18  2  0  0  0  0
  6  7  1  0  0  0  0
  6 25  1  0  0  0  0
  6 26  1  0  0  0  0
  7  8  2  0  0  0  0
  7  9  1  0  0  0  0
  9 10  1  0  0  0  0
  9 27  1  0  0  0  0
 10 11  1  0  0  0  0
 10 28  1  0  0  0  0
 10 29  1  0  0  0  0
 11 16  1  0  0  0  0
 11 12  1  0  0  0  0
 11 30  1  0  0  0  0
 12 13  1  0  0  0  0
 12 31  1  0  0  0  0
 12 32  1  0  0  0  0
 13 17  1  0  0  0  0
 13 14  1  0  0  0  0
 13 33  1  0  0  0  0
 14 15  1  0  0  0  0
 14 34  1  0  0  0  0
 14 35  1  0  0  0  0
 15 16  1  0  0  0  0
 15 36  1  0  0  0  0
 15 37  1  0  0  0  0
 16 17  1  0  0  0  0
 16 38  1  0  0  0  0
 17 39  1  0  0  0  0
 17 40  1  0  0  0  0
 18 19  1  0  0  0  0
 18 41  1  0  0  0  0
M  END
> <s_m_source_file>
AV-unprocessed.smi

> <i_m_source_file_index>
3333

> <i_lp_mmshare_version>
43012

> <i_f3d_flags>
0

> <s_epik_input>
W0NIM11bQ0gyXWMxbmMoW2NIXXMxKVtDSDJdQyg9TylbTkhdW0NIMl1bQ0BIXShbQ0gyXVtDQEBIXTIzKVtDQEBIXShbQ0gyXTMpW0NIMl1bQ0gyXTI=

> <s_epik_cmdline>
J2VwaWtfcHl0aG9uJywgJy1waCcsICc3LjAnLCAnLXRuJywgJzgnLCAnLW1hJywgJzIwMCcsICctbWV0YWxfYmluZGluZycsICctaW1hZScsICc8aW5maWxlLm1hZT4nLCAnLW9tYWUnLCAnPG91dGZpbGUubWFlPic=

> <r_lp_tautomer_probability>
1

> <r_epik_Ionization_Penalty>
6.68371e-05

> <r_epik_Ionization_Penalty_Charging>
0

> <r_epik_Ionization_Penalty_Neutral>
6.68371e-05

> <r_epik_State_Penalty>
-0

> <r_epik_Charging_Adjusted_Penalty>
0

> <i_epik_Tot_Q>
0

> <i_epik_Tot_abs_Q>
0

> <r_epik_Metal_State_Penalty>
-0

> <b_epik_Metal_Only>
0

> <s_lp_Force_Field>
OPLS_2005

> <r_lp_Energy>
44.5958

> <b_lp_Chiralities_Consistent>
1

> <s_lp_Variant>
AV-unprocessed.smi:3333-2

> <Gold.Version>
5.8.1

> <Gold.Id.Protein>
6NUR|6NUR_protein|mol2

> <Gold.PLP.Fitness>
50.5975

> <Gold.PLP.PLP>
-43.8165

> <Gold.PLP.part.hbond>
-2.0000

> <Gold.PLP.part.metal>
0.0000

> <Gold.PLP.part.buried>
-5.4552

> <Gold.PLP.part.nonpolar>
-38.2128

> <Gold.PLP.part.repulsive>
1.7397

> <Gold.PLP.ligand.clash>
0.0000

> <Gold.PLP.ligand.torsion>
0.8471

> <Gold.PLP.Chemscore.Hbond>
1.8160

> <Gold.PLP.Chemscore.CHOScore>
1.0000

> <Gold.PLP.Chemscore.Metal>
0.0000

> <Gold.Chemscore.Hbonds>
donor molecule, donor type, donor heavy atom, donor atom, acceptor molecule, acceptor atom, score
      L1  H     9    27       P1  8028  0.85
      P1  H  7989  7998       L1     8  1.00
      L1  C    18    41       P1 10175  0.82

> <Gold.PLP.Chemscore.Internal.Correction>
0.0272

> <Gold.Rescore>
     Score         DG    S(hbond)    S(metal)    S(lipo)     H(rot)  DE(clash)    DE(int)     intcor
     18.45     -20.10       1.47        0.00     114.24       1.42       0.32       1.33       ----

> <Gold.Chemscore.Fitness>
18.4537

> <Gold.Chemscore.DG>
-20.1026

> <Gold.Chemscore.ZeroCoef>
-5.4800

> <Gold.Chemscore.Hbond>
1.4665

> <Gold.Chemscore.Metal>
0.0000

> <Gold.Chemscore.Lipo>
114.2447

> <Gold.Chemscore.Internal_Hbond>
0.0000

> <Gold.Chemscore.DEClash>
0.3197

> <Gold.Chemscore.DEInternal>
1.3292

> <Gold.Chemscore.Rot>
1.4227

> <Gold.Chemscore.Internal.Correction>
   9.000000E+99

> <Gold.Chemscore.Hbonds>
donor molecule, donor type, donor heavy atom, donor atom, acceptor molecule, acceptor atom, score
      L1  H     9    27       P1  8028  0.83
      P1  H  7989  7998       L1     8  0.49

> <Gold.Chemscore.Hbond.Weighted>
-4.8981

> <Gold.Chemscore.Metal.Weighted>
-0.0000

> <Gold.Chemscore.Lipo.Weighted>
-13.3666

> <Gold.Chemscore.Internal_Hbond.Weighted>
0.0000

> <Gold.Chemscore.DEClash.Weighted>
0.3197

> <Gold.Chemscore.DEInternal.Weighted>
1.3292

> <Gold.Chemscore.Rot.Weighted>
3.6421

> <Gold.Chemscore.Internal.Correction.Weighted>
   9.000000E+99

> <Gold.Protein.RotatedTorsions>
[ 6907 6896 6895 6894 ] final  -57.91 input  -60.11 | X-H torsion
[ 7974 7965 7964 7962 ] final -117.34 input  175.53 | X-H torsion
[ 8008 7997 7996 7995 ] final -169.06 input   59.86 | X-H torsion
[ 10167 10162 10161 10158 ] final   45.43 input  -65.29 | X-H torsion
[ 10718 10713 10712 10709 ] final  -64.77 input   66.30 | X-H torsion
[ 10763 10752 10751 10750 ] final  161.58 input  -60.55 | X-H torsion
[ 11005 11000 10999 10996 ] final  -78.80 input  -57.11 | X-H torsion

> <Gold.Protein.ActiveResidues>
 VAL166  LYS551  ARG553  GLY616  TRP617  ASP618  TYR619  PRO620  LYS621  CYS622 
 ASP623  PHE694  ASN695  SER759  ASP760  ASP761  ALA762  ILE779  LEU786  VAL792 
 PHE793  MET794  SER795  GLU796  ALA797  LYS798  CYS799  TRP800  GLU811  SER814 

> <Gold.Protein.RotatedAtoms>
  150.8049  134.7167  159.6634 H   0  0  0  0  0  0  0  0  0  0  0  0  # atno 6907 bound_to 6896
  152.4167  134.6025  160.0013 H   0  0  0  0  0  0  0  0  0  0  0  0  # atno 6908 bound_to 6896
  151.6252  133.3299  159.3132 H   0  0  0  0  0  0  0  0  0  0  0  0  # atno 6909 bound_to 6896
  145.0863  140.8460  143.4009 H   0  0  0  0  0  0  0  0  0  0  0  0  # atno 7974 bound_to 7965
  155.8998  140.1039  157.1358 H   0  0  0  0  0  0  0  0  0  0  0  0  # atno 8008 bound_to 7997
  154.4025  140.1295  156.4486 H   0  0  0  0  0  0  0  0  0  0  0  0  # atno 8009 bound_to 7997
  155.7436  140.3466  155.5118 H   0  0  0  0  0  0  0  0  0  0  0  0  # atno 8010 bound_to 7997
  140.3242  144.2668  150.6178 H   0  0  0  0  0  0  0  0  0  0  0  0  # atno 10167 bound_to 10162
  156.0709  130.4238  150.1468 H   0  0  0  0  0  0  0  0  0  0  0  0  # atno 10718 bound_to 10713
  154.2651  135.2767  155.2762 H   0  0  0  0  0  0  0  0  0  0  0  0  # atno 10763 bound_to 10752
  154.5350  135.5719  153.6794 H   0  0  0  0  0  0  0  0  0  0  0  0  # atno 10764 bound_to 10752
  152.9955  135.6237  154.2803 H   0  0  0  0  0  0  0  0  0  0  0  0  # atno 10765 bound_to 10752
  141.1666  133.7079  156.8027 H   0  0  0  0  0  0  0  0  0  0  0  0  # atno 11005 bound_to 11000
  145.1118  139.2752  143.5633 LP  0  0  0  0  0  0  0  0  0  0  0  0  # atno 17320 bound_to 7965
  146.3531  140.0716  142.8623 LP  0  0  0  0  0  0  0  0  0  0  0  0  # atno 17321 bound_to 7965
  140.5456  143.2215  151.8013 LP  0  0  0  0  0  0  0  0  0  0  0  0  # atno 17342 bound_to 10162
  139.4868  144.4544  151.9616 LP  0  0  0  0  0  0  0  0  0  0  0  0  # atno 17343 bound_to 10162
  156.9519  130.9777  151.3496 LP  0  0  0  0  0  0  0  0  0  0  0  0  # atno 17370 bound_to 10713
  157.5779  130.8355  149.8481 LP  0  0  0  0  0  0  0  0  0  0  0  0  # atno 17371 bound_to 10713
  140.2245  134.8732  157.3412 LP  0  0  0  0  0  0  0  0  0  0  0  0  # atno 17394 bound_to 11000
  140.1954  134.4320  155.7692 LP  0  0  0  0  0  0  0  0  0  0  0  0  # atno 17395 bound_to 11000

$$$$
