AV-unprocessed.smi:1641|AV-procd|sdf|6556|dock2
  -GOLD-   22720 7243D 1   1.00000     0.00000
 Structure written by MMmdl.
 41 42  0  0  0  0  0  0  0  0  1 V2000
  143.9255  143.4764  162.7024 C   0  0  0  0  0  0  0  0  0  0  0  0
  145.1274  143.4749  161.8207 C   0  0  0  0  0  0  0  0  0  0  0  0
  145.7096  142.3481  161.3926 N   0  0  0  0  0  0  0  0  0  0  0  0
  146.8095  142.5984  160.5838 N   0  0  0  0  0  0  0  0  0  0  0  0
  147.0247  143.9116  160.4253 C   0  0  0  0  0  0  0  0  0  0  0  0
  148.0838  144.4503  159.6475 N   0  0  0  0  0  0  0  0  0  0  0  0
  149.3908  144.5221  159.9554 C   0  0  0  0  0  0  0  0  0  0  0  0
  149.8994  144.1231  161.0036 O   0  0  0  0  0  0  0  0  0  0  0  0
  150.0914  145.0974  158.9675 N   0  0  0  0  0  0  0  0  0  0  0  0
  151.5293  145.3363  158.9928 C   0  0  0  0  0  0  0  0  0  0  0  0
  152.3074  144.1165  158.4646 C   0  0  0  0  0  0  0  0  0  0  0  0
  152.3040  142.9521  159.3482 N   0  0  0  0  0  0  0  0  0  0  0  0
  152.7759  143.2691  160.6941 C   0  0  0  0  0  0  0  0  0  0  0  0
  152.7927  142.0281  161.6078 C   0  0  2  0  0  0  0  0  0  0  0  0
  153.3715  142.3370  162.9924 C   0  0  0  0  0  0  0  0  0  0  0  0
  153.5915  141.0129  161.0059 O   0  0  0  0  0  0  0  0  0  0  0  0
  153.1413  140.6372  159.7072 C   0  0  2  0  0  0  0  0  0  0  0  0
  154.0705  139.5419  159.1738 C   0  0  0  0  0  0  0  0  0  0  0  0
  153.1301  141.8824  158.8006 C   0  0  0  0  0  0  0  0  0  0  0  0
  145.8861  144.9584  161.2554 S   0  0  0  0  0  0  0  0  0  0  0  0
  143.0207  143.5387  162.0977 H   0  0  0  0  0  0  0  0  0  0  0  0
  143.9560  144.3315  163.3777 H   0  0  0  0  0  0  0  0  0  0  0  0
  143.8880  142.5639  163.2986 H   0  0  0  0  0  0  0  0  0  0  0  0
  147.8129  144.8294  158.7523 H   0  0  0  0  0  0  0  0  0  0  0  0
  149.5958  145.3955  158.1400 H   0  0  0  0  0  0  0  0  0  0  0  0
  151.7550  146.2354  158.4184 H   0  0  0  0  0  0  0  0  0  0  0  0
  151.8194  145.5428  160.0234 H   0  0  0  0  0  0  0  0  0  0  0  0
  151.8629  143.8317  157.5098 H   0  0  0  0  0  0  0  0  0  0  0  0
  153.3363  144.4030  158.2412 H   0  0  0  0  0  0  0  0  0  0  0  0
  153.7789  143.6960  160.6418 H   0  0  0  0  0  0  0  0  0  0  0  0
  152.1380  144.0262  161.1489 H   0  0  0  0  0  0  0  0  0  0  0  0
  151.7753  141.6517  161.7296 H   0  0  0  0  0  0  0  0  0  0  0  0
  152.7881  143.1064  163.4988 H   0  0  0  0  0  0  0  0  0  0  0  0
  154.4007  142.6900  162.9198 H   0  0  0  0  0  0  0  0  0  0  0  0
  153.3680  141.4479  163.6235 H   0  0  0  0  0  0  0  0  0  0  0  0
  152.1309  140.2324  159.7853 H   0  0  0  0  0  0  0  0  0  0  0  0
  153.7623  139.2155  158.1804 H   0  0  0  0  0  0  0  0  0  0  0  0
  154.0607  138.6699  159.8282 H   0  0  0  0  0  0  0  0  0  0  0  0
  155.0995  139.8962  159.1062 H   0  0  0  0  0  0  0  0  0  0  0  0
  152.7630  141.6036  157.8121 H   0  0  0  0  0  0  0  0  0  0  0  0
  154.1520  142.2403  158.6632 H   0  0  0  0  0  0  0  0  0  0  0  0
  1  2  1  0  0  0  0
  1 21  1  0  0  0  0
  1 22  1  0  0  0  0
  1 23  1  0  0  0  0
  2 20  1  0  0  0  0
  2  3  2  0  0  0  0
  3  4  1  0  0  0  0
  4  5  2  0  0  0  0
  5  6  1  0  0  0  0
  5 20  1  0  0  0  0
  6  7  1  0  0  0  0
  6 24  1  0  0  0  0
  7  8  2  0  0  0  0
  7  9  1  0  0  0  0
  9 10  1  0  0  0  0
  9 25  1  0  0  0  0
 10 11  1  0  0  0  0
 10 26  1  0  0  0  0
 10 27  1  0  0  0  0
 11 12  1  0  0  0  0
 11 28  1  0  0  0  0
 11 29  1  0  0  0  0
 12 19  1  0  0  0  0
 12 13  1  0  0  0  0
 13 14  1  0  0  0  0
 13 30  1  0  0  0  0
 13 31  1  0  0  0  0
 14 15  1  0  0  0  0
 14 16  1  0  0  0  0
 14 32  1  0  0  0  0
 15 33  1  0  0  0  0
 15 34  1  0  0  0  0
 15 35  1  0  0  0  0
 16 17  1  0  0  0  0
 17 18  1  0  0  0  0
 17 19  1  0  0  0  0
 17 36  1  0  0  0  0
 18 37  1  0  0  0  0
 18 38  1  0  0  0  0
 18 39  1  0  0  0  0
 19 40  1  0  0  0  0
 19 41  1  0  0  0  0
M  END
> <s_m_source_file>
AV-unprocessed.smi

> <i_m_source_file_index>
1641

> <i_lp_mmshare_version>
43012

> <i_f3d_flags>
0

> <s_epik_input>
W0NIM11jMW5uYyhzMSlbTkhdQyg9TylbTkhdW0NIMl1bQ0gyXU4yW0NIMl1bQ0BASF0oW0NIM10pT1tDQEBIXShbQ0gzXSlbQ0gyXTI=

> <s_epik_cmdline>
J2VwaWtfcHl0aG9uJywgJy1waCcsICc3LjAnLCAnLXRuJywgJzgnLCAnLW1hJywgJzIwMCcsICctbWV0YWxfYmluZGluZycsICctaW1hZScsICc8aW5maWxlLm1hZT4nLCAnLW9tYWUnLCAnPG91dGZpbGUubWFlPic=

> <r_lp_tautomer_probability>
1

> <r_epik_Ionization_Penalty>
0.221104

> <r_epik_Ionization_Penalty_Charging>
0

> <r_epik_Ionization_Penalty_Neutral>
0.221104

> <r_epik_State_Penalty>
0.209349

> <r_epik_Charging_Adjusted_Penalty>
0.209349

> <i_epik_Tot_Q>
0

> <i_epik_Tot_abs_Q>
0

> <r_epik_Metal_State_Penalty>
0.560954

> <b_epik_Metal_Only>
0

> <s_lp_Force_Field>
OPLS_2005

> <r_lp_Energy>
18.567

> <b_lp_Chiralities_Consistent>
1

> <s_lp_Variant>
AV-unprocessed.smi:1641-1

> <Gold.Version>
5.8.1

> <Gold.Id.Protein>
6NUR|6NUR_protein|mol2

> <Gold.PLP.Fitness>
54.7264

> <Gold.PLP.PLP>
-47.6669

> <Gold.PLP.part.hbond>
-5.9384

> <Gold.PLP.part.metal>
0.0000

> <Gold.PLP.part.buried>
-5.7800

> <Gold.PLP.part.nonpolar>
-35.9691

> <Gold.PLP.part.repulsive>
0.5853

> <Gold.PLP.ligand.clash>
0.0000

> <Gold.PLP.ligand.torsion>
0.9274

> <Gold.PLP.Chemscore.Hbond>
2.9640

> <Gold.PLP.Chemscore.CHOScore>
0.0000

> <Gold.PLP.Chemscore.Metal>
0.0000

> <Gold.Chemscore.Hbonds>
donor molecule, donor type, donor heavy atom, donor atom, acceptor molecule, acceptor atom, score
      L1  H     6    24       P1  8029  1.00
      L1  H     9    25       P1  8029  1.00
      P1  H  6933  6944       L1     4  0.50

> <Gold.PLP.Chemscore.Internal.Correction>
0.0223

> <Gold.Rescore>
     Score         DG    S(hbond)    S(metal)    S(lipo)     H(rot)  DE(clash)    DE(int)     intcor
     18.98     -19.96       1.78        0.00     107.82       1.60       0.05       0.93       ----

> <Gold.Chemscore.Fitness>
18.9821

> <Gold.Chemscore.DG>
-19.9619

> <Gold.Chemscore.ZeroCoef>
-5.4800

> <Gold.Chemscore.Hbond>
1.7835

> <Gold.Chemscore.Metal>
0.0000

> <Gold.Chemscore.Lipo>
107.8156

> <Gold.Chemscore.Internal_Hbond>
0.0000

> <Gold.Chemscore.DEClash>
0.0522

> <Gold.Chemscore.DEInternal>
0.9277

> <Gold.Chemscore.Rot>
1.5975

> <Gold.Chemscore.Internal.Correction>
   9.000000E+99

> <Gold.Chemscore.Hbonds>
donor molecule, donor type, donor heavy atom, donor atom, acceptor molecule, acceptor atom, score
      L1  H     6    24       P1  8029  0.99
      L1  H     9    25       P1  8029  0.37
      P1  H  6933  6944       L1     4  0.04

> <Gold.Chemscore.Hbond.Weighted>
-5.9570

> <Gold.Chemscore.Metal.Weighted>
-0.0000

> <Gold.Chemscore.Lipo.Weighted>
-12.6144

> <Gold.Chemscore.Internal_Hbond.Weighted>
0.0000

> <Gold.Chemscore.DEClash.Weighted>
0.0522

> <Gold.Chemscore.DEInternal.Weighted>
0.9277

> <Gold.Chemscore.Rot.Weighted>
4.0896

> <Gold.Chemscore.Internal.Correction.Weighted>
   9.000000E+99

> <Gold.Protein.RotatedTorsions>
[ 6907 6896 6895 6894 ] final  126.21 input  -60.11 | X-H torsion
[ 7974 7965 7964 7962 ] final -157.85 input  175.53 | X-H torsion
[ 8008 7997 7996 7995 ] final  -65.69 input   59.86 | X-H torsion
[ 10167 10162 10161 10158 ] final -107.36 input  -65.29 | X-H torsion
[ 10718 10713 10712 10709 ] final  -22.94 input   66.30 | X-H torsion
[ 10763 10752 10751 10750 ] final   71.04 input  -60.55 | X-H torsion
[ 11005 11000 10999 10996 ] final -147.35 input  -57.11 | X-H torsion

> <Gold.Protein.ActiveResidues>
 VAL166  LYS551  ARG553  GLY616  TRP617  ASP618  TYR619  PRO620  LYS621  CYS622 
 ASP623  PHE694  ASN695  SER759  ASP760  ASP761  ALA762  ILE779  LEU786  VAL792 
 PHE793  MET794  SER795  GLU796  ALA797  LYS798  CYS799  TRP800  GLU811  SER814 

> <Gold.Protein.RotatedAtoms>
  152.3924  133.6697  159.6247 H   0  0  0  0  0  0  0  0  0  0  0  0  # atno 6907 bound_to 6896
  150.7829  133.8932  159.3328 H   0  0  0  0  0  0  0  0  0  0  0  0  # atno 6908 bound_to 6896
  151.6716  135.0976  160.0250 H   0  0  0  0  0  0  0  0  0  0  0  0  # atno 6909 bound_to 6896
  144.7530  140.3910  143.6033 H   0  0  0  0  0  0  0  0  0  0  0  0  # atno 7974 bound_to 7965
  154.4687  140.0928  156.7088 H   0  0  0  0  0  0  0  0  0  0  0  0  # atno 8008 bound_to 7997
  155.4785  140.3467  155.4318 H   0  0  0  0  0  0  0  0  0  0  0  0  # atno 8009 bound_to 7997
  156.1002  140.1420  156.9466 H   0  0  0  0  0  0  0  0  0  0  0  0  # atno 8010 bound_to 7997
  140.1778  143.3991  152.1305 H   0  0  0  0  0  0  0  0  0  0  0  0  # atno 10167 bound_to 10162
  156.4978  130.4581  149.6718 H   0  0  0  0  0  0  0  0  0  0  0  0  # atno 10718 bound_to 10713
  153.0376  135.5151  154.7533 H   0  0  0  0  0  0  0  0  0  0  0  0  # atno 10763 bound_to 10752
  154.6497  135.2923  155.0005 H   0  0  0  0  0  0  0  0  0  0  0  0  # atno 10764 bound_to 10752
  154.0894  135.6652  153.4902 H   0  0  0  0  0  0  0  0  0  0  0  0  # atno 10765 bound_to 10752
  140.7726  134.3172  157.5070 H   0  0  0  0  0  0  0  0  0  0  0  0  # atno 11005 bound_to 11000
  145.6876  139.1632  143.2665 LP  0  0  0  0  0  0  0  0  0  0  0  0  # atno 17320 bound_to 7965
  146.1506  140.6931  142.9324 LP  0  0  0  0  0  0  0  0  0  0  0  0  # atno 17321 bound_to 7965
  139.5309  144.7158  151.5059 LP  0  0  0  0  0  0  0  0  0  0  0  0  # atno 17342 bound_to 10162
  140.6540  143.8638  150.6815 LP  0  0  0  0  0  0  0  0  0  0  0  0  # atno 17343 bound_to 10162
  156.3363  130.7358  151.2296 LP  0  0  0  0  0  0  0  0  0  0  0  0  # atno 17370 bound_to 10713
  157.7466  131.0416  150.4654 LP  0  0  0  0  0  0  0  0  0  0  0  0  # atno 17371 bound_to 10713
  139.8753  134.9270  156.3414 LP  0  0  0  0  0  0  0  0  0  0  0  0  # atno 17394 bound_to 11000
  140.9559  133.7420  156.0335 LP  0  0  0  0  0  0  0  0  0  0  0  0  # atno 17395 bound_to 11000

$$$$
