AV-unprocessed.smi:109|AV-procd|sdf|1054|dock9
  -GOLD-   2262018113D 1   1.00000     0.00000
 Structure written by MMmdl.
 58 61  0  0  0  0  0  0  0  0  1 V2000
  149.3701  140.9703  153.4709 O   0  0  0  0  0  0  0  0  0  0  0  0
  149.8176  140.2838  154.6197 C   0  0  0  0  0  0  0  0  0  0  0  0
  150.3897  141.2846  155.6359 C   0  0  0  0  0  0  0  0  0  0  0  0
  150.8449  140.6330  156.9602 C   0  0  1  0  0  0  0  0  0  0  0  0
  151.4533  139.3228  156.7215 N   0  0  0  0  0  0  0  0  0  0  0  0
  150.9023  138.1740  157.1727 C   0  0  0  0  0  0  0  0  0  0  0  0
  150.4866  138.0403  158.4590 N   0  0  0  0  0  0  0  0  0  0  0  0
  149.9468  136.8900  158.8720 C   0  0  0  0  0  0  0  0  0  0  0  0
  149.7354  135.7711  158.1761 N   0  0  0  0  0  0  0  0  0  0  0  0
  150.1515  135.8988  156.8828 C   0  0  0  0  0  0  0  0  0  0  0  0
  150.7400  137.0601  156.3093 C   0  0  0  0  0  0  0  0  0  0  0  0
  151.0374  136.8261  154.9730 N   0  0  0  0  0  0  0  0  0  0  0  0
  150.6495  135.5950  154.7742 C   0  0  0  0  0  0  0  0  0  0  0  0
  150.1027  134.9635  155.8693 N   0  0  0  0  0  0  0  0  0  0  0  0
  149.5806  133.5666  155.9488 C   0  0  1  0  0  0  0  0  0  0  0  0
  150.4887  132.7296  155.3080 O   0  0  0  0  0  0  0  0  0  0  0  0
  150.4840  131.4682  155.9598 C   0  0  1  0  0  0  0  0  0  0  0  0
  151.7395  130.6535  155.6011 C   0  0  0  0  0  0  0  0  0  0  0  0
  151.8230  129.5055  156.4184 O   0  0  0  0  0  0  0  0  0  0  0  0
  150.3368  131.8468  157.4416 C   0  0  1  0  0  0  0  0  0  0  0  0
  151.5922  132.1368  158.0276 O   0  0  0  0  0  0  0  0  0  0  0  0
  149.4593  133.0974  157.4097 C   0  0  2  0  0  0  0  0  0  0  0  0
  148.1262  132.7435  157.7195 O   0  0  0  0  0  0  0  0  0  0  0  0
  151.8032  141.5426  157.7699 C   0  0  0  0  0  0  0  0  0  0  0  0
  152.1136  141.0228  159.1940 C   0  0  0  0  0  0  0  0  0  0  0  0
  153.0913  141.9495  159.9357 C   0  0  0  0  0  0  0  0  0  0  0  0
  152.5682  143.3931  159.9823 C   0  0  0  0  0  0  0  0  0  0  0  0
  152.2745  143.9191  158.5695 C   0  0  0  0  0  0  0  0  0  0  0  0
  151.2916  142.9996  157.8275 C   0  0  0  0  0  0  0  0  0  0  0  0
  148.6315  133.5838  155.4105 H   0  0  0  0  0  0  0  0  0  0  0  0
  149.5852  130.9265  155.6568 H   0  0  0  0  0  0  0  0  0  0  0  0
  149.8894  131.0338  158.0156 H   0  0  0  0  0  0  0  0  0  0  0  0
  149.7999  133.8655  158.1068 H   0  0  0  0  0  0  0  0  0  0  0  0
  149.3793  140.3703  152.7408 H   0  0  0  0  0  0  0  0  0  0  0  0
  148.9823  139.7314  155.0511 H   0  0  0  0  0  0  0  0  0  0  0  0
  150.5724  139.5571  154.3194 H   0  0  0  0  0  0  0  0  0  0  0  0
  151.2175  141.8295  155.1809 H   0  0  0  0  0  0  0  0  0  0  0  0
  149.6200  142.0264  155.8530 H   0  0  0  0  0  0  0  0  0  0  0  0
  149.9554  140.5263  157.5806 H   0  0  0  0  0  0  0  0  0  0  0  0
  152.3274  139.3409  156.2161 H   0  0  0  0  0  0  0  0  0  0  0  0
  149.6422  136.8620  159.9078 H   0  0  0  0  0  0  0  0  0  0  0  0
  150.7522  135.1102  153.8143 H   0  0  0  0  0  0  0  0  0  0  0  0
  151.7419  130.3688  154.5483 H   0  0  0  0  0  0  0  0  0  0  0  0
  152.6363  131.2468  155.7812 H   0  0  0  0  0  0  0  0  0  0  0  0
  150.9705  129.3397  156.7911 H   0  0  0  0  0  0  0  0  0  0  0  0
  151.9928  131.3218  158.2929 H   0  0  0  0  0  0  0  0  0  0  0  0
  147.8093  132.1542  157.0518 H   0  0  0  0  0  0  0  0  0  0  0  0
  152.7482  141.5692  157.2251 H   0  0  0  0  0  0  0  0  0  0  0  0
  151.1938  140.9398  159.7740 H   0  0  0  0  0  0  0  0  0  0  0  0
  152.5418  140.0215  159.1494 H   0  0  0  0  0  0  0  0  0  0  0  0
  153.2548  141.5818  160.9491 H   0  0  0  0  0  0  0  0  0  0  0  0
  154.0624  141.9285  159.4396 H   0  0  0  0  0  0  0  0  0  0  0  0
  151.6594  143.4345  160.5842 H   0  0  0  0  0  0  0  0  0  0  0  0
  153.2963  144.0374  160.4756 H   0  0  0  0  0  0  0  0  0  0  0  0
  151.8673  144.9290  158.6263 H   0  0  0  0  0  0  0  0  0  0  0  0
  153.2050  143.9919  158.0050 H   0  0  0  0  0  0  0  0  0  0  0  0
  151.1321  143.3792  156.8178 H   0  0  0  0  0  0  0  0  0  0  0  0
  150.3217  143.0372  158.3255 H   0  0  0  0  0  0  0  0  0  0  0  0
  1  2  1  0  0  0  0
  1 34  1  0  0  0  0
  2  3  1  0  0  0  0
  2 35  1  0  0  0  0
  2 36  1  0  0  0  0
  3  4  1  0  0  0  0
  3 37  1  0  0  0  0
  3 38  1  0  0  0  0
  4  5  1  0  0  0  0
  4 24  1  0  0  0  0
  4 39  1  0  0  0  0
  5  6  1  0  0  0  0
  5 40  1  0  0  0  0
  6 11  1  0  0  0  0
  6  7  2  0  0  0  0
  7  8  1  0  0  0  0
  8  9  2  0  0  0  0
  8 41  1  0  0  0  0
  9 10  1  0  0  0  0
 10 14  1  0  0  0  0
 10 11  2  0  0  0  0
 11 12  1  0  0  0  0
 12 13  2  0  0  0  0
 13 14  1  0  0  0  0
 13 42  1  0  0  0  0
 14 15  1  0  0  0  0
 15 30  1  0  0  0  0
 15 22  1  0  0  0  0
 15 16  1  0  0  0  0
 16 17  1  0  0  0  0
 17 31  1  0  0  0  0
 17 18  1  0  0  0  0
 17 20  1  0  0  0  0
 18 19  1  0  0  0  0
 18 43  1  0  0  0  0
 18 44  1  0  0  0  0
 19 45  1  0  0  0  0
 20 32  1  0  0  0  0
 20 21  1  0  0  0  0
 20 22  1  0  0  0  0
 21 46  1  0  0  0  0
 22 33  1  0  0  0  0
 22 23  1  0  0  0  0
 23 47  1  0  0  0  0
 24 29  1  0  0  0  0
 24 25  1  0  0  0  0
 24 48  1  0  0  0  0
 25 26  1  0  0  0  0
 25 49  1  0  0  0  0
 25 50  1  0  0  0  0
 26 27  1  0  0  0  0
 26 51  1  0  0  0  0
 26 52  1  0  0  0  0
 27 28  1  0  0  0  0
 27 53  1  0  0  0  0
 27 54  1  0  0  0  0
 28 29  1  0  0  0  0
 28 55  1  0  0  0  0
 28 56  1  0  0  0  0
 29 57  1  0  0  0  0
 29 58  1  0  0  0  0
M  END
> <s_m_source_file>
AV-unprocessed.smi

> <i_m_source_file_index>
109

> <i_lp_mmshare_version>
43012

> <i_f3d_flags>
0

> <s_epik_input>
W0NIMl0xW0NIMl1bQ0gyXVtDSDJdW0NIMl1bQ0hdMVtDQEhdKFtDSDJdW0NIMl1bT0hdKVtOSF1jKG5bY0hdbjIpYyhjMjMpbltjSF1uM1tDQEBIXTRPW0NASF0oW0NIMl1bT0hdKVtDQEBIXShbT0hdKVtDQEhdNFtPSF0=

> <s_epik_cmdline>
J2VwaWtfcHl0aG9uJywgJy1waCcsICc3LjAnLCAnLXRuJywgJzgnLCAnLW1hJywgJzIwMCcsICctbWV0YWxfYmluZGluZycsICctaW1hZScsICc8aW5maWxlLm1hZT4nLCAnLW9tYWUnLCAnPG91dGZpbGUubWFlPic=

> <r_lp_tautomer_probability>
1

> <r_epik_Ionization_Penalty>
0.000793976

> <r_epik_Ionization_Penalty_Charging>
0

> <r_epik_Ionization_Penalty_Neutral>
0.000793976

> <r_epik_State_Penalty>
-0

> <r_epik_Charging_Adjusted_Penalty>
0

> <i_epik_Tot_Q>
0

> <i_epik_Tot_abs_Q>
0

> <r_epik_Metal_State_Penalty>
-0

> <b_epik_Metal_Only>
0

> <s_epik_Chemistry_Notes>
This compound contains an acetal/aminal-like group ( X-CH(R)-Y where X, Y are N, S, or O) that may be acid/base labile, releasing an aldehyde.

> <s_lp_Force_Field>
OPLS_2005

> <r_lp_Energy>
50.1139

> <b_lp_Chiralities_Consistent>
1

> <s_lp_Variant>
AV-unprocessed.smi:109-24

> <Gold.Version>
5.8.1

> <Gold.Id.Protein>
6NUR|6NUR_protein|mol2

> <Gold.PLP.Fitness>
54.0065

> <Gold.PLP.PLP>
-43.8778

> <Gold.PLP.part.hbond>
-5.1003

> <Gold.PLP.part.metal>
0.0000

> <Gold.PLP.part.buried>
-3.2528

> <Gold.PLP.part.nonpolar>
-34.8750

> <Gold.PLP.part.repulsive>
0.2186

> <Gold.PLP.ligand.clash>
0.0000

> <Gold.PLP.ligand.torsion>
1.1910

> <Gold.PLP.Chemscore.Hbond>
3.4516

> <Gold.PLP.Chemscore.CHOScore>
0.6099

> <Gold.PLP.Chemscore.Metal>
0.0000

> <Gold.Chemscore.Hbonds>
donor molecule, donor type, donor heavy atom, donor atom, acceptor molecule, acceptor atom, score
      L1  H     1    34       P1  7957  1.00
      P1  H  6896  6908       L1    21  0.83
      P1  H  6896  6909       L1     9  0.77
      P1  H  8011  8017       L1     1  0.55
      L1  C    13    42       P1  7949  0.48

> <Gold.PLP.Chemscore.Internal.Correction>
0.3263

> <Gold.Rescore>
     Score         DG    S(hbond)    S(metal)    S(lipo)     H(rot)  DE(clash)    DE(int)     intcor
      8.24     -11.06       2.23        0.00     103.64       5.47       0.11       2.71       ----

> <Gold.Chemscore.Fitness>
8.2416

> <Gold.Chemscore.DG>
-11.0602

> <Gold.Chemscore.ZeroCoef>
-5.4800

> <Gold.Chemscore.Hbond>
2.2300

> <Gold.Chemscore.Metal>
0.0000

> <Gold.Chemscore.Lipo>
103.6373

> <Gold.Chemscore.Internal_Hbond>
0.0000

> <Gold.Chemscore.DEClash>
0.1089

> <Gold.Chemscore.DEInternal>
2.7097

> <Gold.Chemscore.Rot>
5.4662

> <Gold.Chemscore.Internal.Correction>
   9.000000E+99

> <Gold.Chemscore.Hbonds>
donor molecule, donor type, donor heavy atom, donor atom, acceptor molecule, acceptor atom, score
      L1  H     1    34       P1  7957  0.95
      P1  H  6896  6908       L1    21  0.46
      P1  H  6896  6909       L1     9  0.14
      P1  H  8011  8017       L1     1  0.03

> <Gold.Chemscore.Hbond.Weighted>
-7.4482

> <Gold.Chemscore.Metal.Weighted>
-0.0000

> <Gold.Chemscore.Lipo.Weighted>
-12.1256

> <Gold.Chemscore.Internal_Hbond.Weighted>
0.0000

> <Gold.Chemscore.DEClash.Weighted>
0.1089

> <Gold.Chemscore.DEInternal.Weighted>
2.7097

> <Gold.Chemscore.Rot.Weighted>
13.9935

> <Gold.Chemscore.Internal.Correction.Weighted>
   9.000000E+99

> <Gold.Protein.RotatedTorsions>
[ 6907 6896 6895 6894 ] final   39.95 input  -60.11 | X-H torsion
[ 7974 7965 7964 7962 ] final -157.12 input  175.53 | X-H torsion
[ 8008 7997 7996 7995 ] final -177.03 input   59.86 | X-H torsion
[ 10167 10162 10161 10158 ] final   55.92 input  -65.29 | X-H torsion
[ 10718 10713 10712 10709 ] final -130.91 input   66.30 | X-H torsion
[ 10763 10752 10751 10750 ] final -142.84 input  -60.55 | X-H torsion
[ 11005 11000 10999 10996 ] final   30.76 input  -57.11 | X-H torsion

> <Gold.Protein.ActiveResidues>
 VAL166  LYS551  ARG553  GLY616  TRP617  ASP618  TYR619  PRO620  LYS621  CYS622 
 ASP623  PHE694  ASN695  SER759  ASP760  ASP761  ALA762  ILE779  LEU786  VAL792 
 PHE793  MET794  SER795  GLU796  ALA797  LYS798  CYS799  TRP800  GLU811  SER814 

> <Gold.Protein.RotatedAtoms>
  152.1762  134.8793  160.0530 H   0  0  0  0  0  0  0  0  0  0  0  0  # atno 6907 bound_to 6896
  151.9734  133.3728  159.4088 H   0  0  0  0  0  0  0  0  0  0  0  0  # atno 6908 bound_to 6896
  150.6910  134.4038  159.5175 H   0  0  0  0  0  0  0  0  0  0  0  0  # atno 6909 bound_to 6896
  144.7562  140.4013  143.6010 H   0  0  0  0  0  0  0  0  0  0  0  0  # atno 7974 bound_to 7965
  156.0020  140.1222  157.0538 H   0  0  0  0  0  0  0  0  0  0  0  0  # atno 8008 bound_to 7997
  154.4246  140.1105  156.5779 H   0  0  0  0  0  0  0  0  0  0  0  0  # atno 8009 bound_to 7997
  155.6199  140.3472  155.4651 H   0  0  0  0  0  0  0  0  0  0  0  0  # atno 8010 bound_to 7997
  140.2143  144.3856  150.6476 H   0  0  0  0  0  0  0  0  0  0  0  0  # atno 10167 bound_to 10162
  156.2191  130.6967  151.0736 H   0  0  0  0  0  0  0  0  0  0  0  0  # atno 10718 bound_to 10713
  154.8493  135.3485  154.6091 H   0  0  0  0  0  0  0  0  0  0  0  0  # atno 10763 bound_to 10752
  153.6700  135.6985  153.5155 H   0  0  0  0  0  0  0  0  0  0  0  0  # atno 10764 bound_to 10752
  153.2750  135.4281  155.0981 H   0  0  0  0  0  0  0  0  0  0  0  0  # atno 10765 bound_to 10752
  140.2910  134.2864  155.7776 H   0  0  0  0  0  0  0  0  0  0  0  0  # atno 11005 bound_to 11000
  145.6771  139.1611  143.2721 LP  0  0  0  0  0  0  0  0  0  0  0  0  # atno 17320 bound_to 7965
  146.1575  140.6837  142.9293 LP  0  0  0  0  0  0  0  0  0  0  0  0  # atno 17321 bound_to 7965
  140.6301  143.2186  151.6514 LP  0  0  0  0  0  0  0  0  0  0  0  0  # atno 17342 bound_to 10162
  139.5168  144.3336  152.0804 LP  0  0  0  0  0  0  0  0  0  0  0  0  # atno 17343 bound_to 10162
  157.7078  131.0748  150.6606 LP  0  0  0  0  0  0  0  0  0  0  0  0  # atno 17370 bound_to 10713
  156.6668  130.4528  149.5670 LP  0  0  0  0  0  0  0  0  0  0  0  0  # atno 17371 bound_to 10713
  141.2146  133.7585  156.9624 LP  0  0  0  0  0  0  0  0  0  0  0  0  # atno 17394 bound_to 11000
  140.1195  134.9426  157.2183 LP  0  0  0  0  0  0  0  0  0  0  0  0  # atno 17395 bound_to 11000

$$$$
