AV-unprocessed.smi:498|AV-procd|sdf|2731|dock2
  -GOLD-   2262023183D 1   1.00000     0.00000
 Structure written by MMmdl.
 42 44  0  0  0  0  0  0  0  0  3 V2000
  139.0989  136.6866  154.4195 C   0  0  0  0  0  0  0  0  0  0  0  0
  140.5673  136.5771  154.0018 C   0  0  0  0  0  0  0  0  0  0  0  0
  141.1290  135.4182  154.5944 O   0  0  0  0  0  0  0  0  0  0  0  0
  142.4930  135.2359  154.2558 C   0  0  0  0  0  0  0  0  0  0  0  0
  142.6195  135.1867  152.7281 C   0  0  0  0  0  0  0  0  0  0  0  0
  144.0258  135.0595  152.2963 N   0  0  0  0  0  0  0  0  0  0  0  0
  145.1215  135.8631  152.4956 C   0  0  0  0  0  0  0  0  0  0  0  0
  145.2094  137.1604  153.2553 C   0  0  0  0  0  0  0  0  0  0  0  0
  146.5393  137.7626  153.1767 N   0  5  0  0  0  0  0  0  0  0  0  0
  146.7953  138.9558  152.5711 C   0  0  0  0  0  0  0  0  0  0  0  0
  146.4836  139.3523  151.4430 O   0  0  0  0  0  0  0  0  0  0  0  0
  147.5272  139.8850  153.4627 C   0  0  0  0  0  0  0  0  0  0  0  0
  148.6100  139.7058  154.2863 C   0  0  0  0  0  0  0  0  0  0  0  0
  148.8883  140.9674  154.8808 C   0  0  0  0  0  0  0  0  0  0  0  0
  147.9642  141.8330  154.3715 C   0  0  0  0  0  0  0  0  0  0  0  0
  147.1343  141.1925  153.5041 O   0  0  0  0  0  0  0  0  0  0  0  0
  146.1750  135.2518  151.8800 N   0  3  0  0  0  0  0  0  0  0  0  0
  145.7644  134.0593  151.2888 C   0  0  0  0  0  0  0  0  0  0  0  0
  146.4776  133.1109  150.5626 C   0  0  0  0  0  0  0  0  0  0  0  0
  145.7538  131.9914  150.1029 C   0  0  0  0  0  0  0  0  0  0  0  0
  144.3770  131.8483  150.3709 C   0  0  0  0  0  0  0  0  0  0  0  0
  143.6654  132.8186  151.1069 C   0  0  0  0  0  0  0  0  0  0  0  0
  144.3875  133.9250  151.5559 C   0  0  0  0  0  0  0  0  0  0  0  0
  138.6320  137.5667  153.9769 H   0  0  0  0  0  0  0  0  0  0  0  0
  139.0052  136.7677  155.5026 H   0  0  0  0  0  0  0  0  0  0  0  0
  138.5343  135.8110  154.0980 H   0  0  0  0  0  0  0  0  0  0  0  0
  140.6411  136.5176  152.9150 H   0  0  0  0  0  0  0  0  0  0  0  0
  141.1116  137.4665  154.3225 H   0  0  0  0  0  0  0  0  0  0  0  0
  143.0923  136.0563  154.6542 H   0  0  0  0  0  0  0  0  0  0  0  0
  142.8646  134.3099  154.6970 H   0  0  0  0  0  0  0  0  0  0  0  0
  142.0447  134.3578  152.3146 H   0  0  0  0  0  0  0  0  0  0  0  0
  142.1971  136.0885  152.2849 H   0  0  0  0  0  0  0  0  0  0  0  0
  144.4479  137.8349  152.8642 H   0  0  0  0  0  0  0  0  0  0  0  0
  144.9186  136.9525  154.2856 H   0  0  0  0  0  0  0  0  0  0  0  0
  149.1391  138.7772  154.4422 H   0  0  0  0  0  0  0  0  0  0  0  0
  149.6679  141.2107  155.5874 H   0  0  0  0  0  0  0  0  0  0  0  0
  147.7649  142.8855  154.5083 H   0  0  0  0  0  0  0  0  0  0  0  0
  147.5329  133.2201  150.3602 H   0  0  0  0  0  0  0  0  0  0  0  0
  146.2650  131.2273  149.5355 H   0  0  0  0  0  0  0  0  0  0  0  0
  143.8556  130.9759  150.0047 H   0  0  0  0  0  0  0  0  0  0  0  0
  142.6116  132.6957  151.3079 H   0  0  0  0  0  0  0  0  0  0  0  0
  147.1078  135.6448  151.8719 H   0  0  0  0  0  0  0  0  0  0  0  0
  1  2  1  0  0  0  0
  1 24  1  0  0  0  0
  1 25  1  0  0  0  0
  1 26  1  0  0  0  0
  2  3  1  0  0  0  0
  2 27  1  0  0  0  0
  2 28  1  0  0  0  0
  3  4  1  0  0  0  0
  4  5  1  0  0  0  0
  4 29  1  0  0  0  0
  4 30  1  0  0  0  0
  5  6  1  0  0  0  0
  5 31  1  0  0  0  0
  5 32  1  0  0  0  0
  6 23  1  0  0  0  0
  6  7  1  0  0  0  0
  7  8  1  0  0  0  0
  7 17  2  0  0  0  0
  8  9  1  0  0  0  0
  8 33  1  0  0  0  0
  8 34  1  0  0  0  0
  9 10  1  0  0  0  0
 10 11  2  0  0  0  0
 10 12  1  0  0  0  0
 12 16  1  0  0  0  0
 12 13  2  0  0  0  0
 13 14  1  0  0  0  0
 13 35  1  0  0  0  0
 14 15  2  0  0  0  0
 14 36  1  0  0  0  0
 15 16  1  0  0  0  0
 15 37  1  0  0  0  0
 17 18  1  0  0  0  0
 17 42  1  0  0  0  0
 18 23  2  0  0  0  0
 18 19  1  0  0  0  0
 19 20  2  0  0  0  0
 19 38  1  0  0  0  0
 20 21  1  0  0  0  0
 20 39  1  0  0  0  0
 21 22  2  0  0  0  0
 21 40  1  0  0  0  0
 22 23  1  0  0  0  0
 22 41  1  0  0  0  0
M  CHG  1   9  -1
M  CHG  1  17   1
M  END
> <s_m_source_file>
AV-unprocessed.smi

> <i_m_source_file_index>
498

> <i_lp_mmshare_version>
43012

> <i_f3d_flags>
0

> <s_epik_input>
W0NIM11bQ0gyXU9bQ0gyXVtDSDJdbihjKGMxMilbY0hdW2NIXVtjSF1bY0hdMiljKG4xKVtDSDJdW05IXUMoPU8pYzNbY0hdW2NIXVtjSF1vMw==

> <s_epik_cmdline>
J2VwaWtfcHl0aG9uJywgJy1waCcsICc3LjAnLCAnLXRuJywgJzgnLCAnLW1hJywgJzIwMCcsICctbWV0YWxfYmluZGluZycsICctaW1hZScsICc8aW5maWxlLm1hZT4nLCAnLW9tYWUnLCAnPG91dGZpbGUubWFlPic=

> <r_epik_Ionization_Penalty>
6.05973

> <r_epik_Ionization_Penalty_Charging>
6.05973

> <r_epik_Ionization_Penalty_Neutral>
2.61143e-12

> <r_epik_State_Penalty>
7.27867

> <r_epik_Charging_Adjusted_Penalty>
13.3384

> <i_epik_Tot_Q>
0

> <i_epik_Tot_abs_Q>
2

> <r_epik_Metal_State_Penalty>
3.28829

> <b_epik_Metal_Only>
1

> <s_lp_Force_Field>
OPLS_2005

> <r_lp_Energy>
13.3144

> <b_lp_Chiralities_Consistent>
1

> <s_lp_Variant>
AV-unprocessed.smi:498-4

> <Gold.Version>
5.8.1

> <Gold.Id.Protein>
6NUR|6NUR_protein|mol2

> <Gold.PLP.Fitness>
54.7105

> <Gold.PLP.PLP>
-45.4308

> <Gold.PLP.part.hbond>
-2.0000

> <Gold.PLP.part.metal>
0.0000

> <Gold.PLP.part.buried>
-5.5021

> <Gold.PLP.part.nonpolar>
-39.5628

> <Gold.PLP.part.repulsive>
1.4896

> <Gold.PLP.ligand.clash>
0.0000

> <Gold.PLP.ligand.torsion>
1.2081

> <Gold.PLP.Chemscore.Hbond>
2.8480

> <Gold.PLP.Chemscore.CHOScore>
1.0000

> <Gold.PLP.Chemscore.Metal>
0.0000

> <Gold.Chemscore.Hbonds>
donor molecule, donor type, donor heavy atom, donor atom, acceptor molecule, acceptor atom, score
      L1  H    17    42       P1  7948  2.00
      P1  H 11000 11005       L1     3  0.75
      L1  C    15    37       P1  8028  1.00

> <Gold.PLP.Chemscore.Internal.Correction>
0.1519

> <Gold.Rescore>
     Score         DG    S(hbond)    S(metal)    S(lipo)     H(rot)  DE(clash)    DE(int)     intcor
     17.38     -18.93       1.89        0.00     103.98       1.96       0.55       1.00       ----

> <Gold.Chemscore.Fitness>
17.3766

> <Gold.Chemscore.DG>
-18.9291

> <Gold.Chemscore.ZeroCoef>
-5.4800

> <Gold.Chemscore.Hbond>
1.8895

> <Gold.Chemscore.Metal>
0.0000

> <Gold.Chemscore.Lipo>
103.9750

> <Gold.Chemscore.Internal_Hbond>
0.0000

> <Gold.Chemscore.DEClash>
0.5544

> <Gold.Chemscore.DEInternal>
0.9980

> <Gold.Chemscore.Rot>
1.9637

> <Gold.Chemscore.Internal.Correction>
   9.000000E+99

> <Gold.Chemscore.Hbonds>
donor molecule, donor type, donor heavy atom, donor atom, acceptor molecule, acceptor atom, score
      L1  H    17    42       P1  7948  1.00
      P1  H 11000 11005       L1     3  0.74

> <Gold.Chemscore.Hbond.Weighted>
-6.3109

> <Gold.Chemscore.Metal.Weighted>
-0.0000

> <Gold.Chemscore.Lipo.Weighted>
-12.1651

> <Gold.Chemscore.Internal_Hbond.Weighted>
0.0000

> <Gold.Chemscore.DEClash.Weighted>
0.5544

> <Gold.Chemscore.DEInternal.Weighted>
0.9980

> <Gold.Chemscore.Rot.Weighted>
5.0270

> <Gold.Chemscore.Internal.Correction.Weighted>
   9.000000E+99

> <Gold.Protein.RotatedTorsions>
[ 6907 6896 6895 6894 ] final  145.63 input  -60.11 | X-H torsion
[ 7974 7965 7964 7962 ] final   91.77 input  175.53 | X-H torsion
[ 8008 7997 7996 7995 ] final   86.30 input   59.86 | X-H torsion
[ 10167 10162 10161 10158 ] final -133.52 input  -65.29 | X-H torsion
[ 10718 10713 10712 10709 ] final  154.54 input   66.30 | X-H torsion
[ 10763 10752 10751 10750 ] final  -35.26 input  -60.55 | X-H torsion
[ 11005 11000 10999 10996 ] final   31.40 input  -57.11 | X-H torsion

> <Gold.Protein.ActiveResidues>
 VAL166  LYS551  ARG553  GLY616  TRP617  ASP618  TYR619  PRO620  LYS621  CYS622 
 ASP623  PHE694  ASN695  SER759  ASP760  ASP761  ALA762  ILE779  LEU786  VAL792 
 PHE793  MET794  SER795  GLU796  ALA797  LYS798  CYS799  TRP800  GLU811  SER814 

> <Gold.Protein.RotatedAtoms>
  152.1783  133.4690  159.4944 H   0  0  0  0  0  0  0  0  0  0  0  0  # atno 6907 bound_to 6896
  150.6930  134.1865  159.4278 H   0  0  0  0  0  0  0  0  0  0  0  0  # atno 6908 bound_to 6896
  151.9775  135.0045  160.0606 H   0  0  0  0  0  0  0  0  0  0  0  0  # atno 6909 bound_to 6896
  145.5012  139.2276  143.2776 H   0  0  0  0  0  0  0  0  0  0  0  0  # atno 7974 bound_to 7965
  155.9610  140.3393  155.6491 H   0  0  0  0  0  0  0  0  0  0  0  0  # atno 8008 bound_to 7997
  155.6798  140.0736  157.2507 H   0  0  0  0  0  0  0  0  0  0  0  0  # atno 8009 bound_to 7997
  154.4143  140.1676  156.1957 H   0  0  0  0  0  0  0  0  0  0  0  0  # atno 8010 bound_to 7997
  139.8974  143.6648  152.2601 H   0  0  0  0  0  0  0  0  0  0  0  0  # atno 10167 bound_to 10162
  157.2302  131.0737  151.1858 H   0  0  0  0  0  0  0  0  0  0  0  0  # atno 10718 bound_to 10713
  153.8604  135.6840  153.4783 H   0  0  0  0  0  0  0  0  0  0  0  0  # atno 10763 bound_to 10752
  153.1345  135.4683  154.9399 H   0  0  0  0  0  0  0  0  0  0  0  0  # atno 10764 bound_to 10752
  154.7761  135.3254  154.8037 H   0  0  0  0  0  0  0  0  0  0  0  0  # atno 10765 bound_to 10752
  140.2843  134.2937  155.7792 H   0  0  0  0  0  0  0  0  0  0  0  0  # atno 11005 bound_to 11000
  146.2225  140.5813  142.9011 LP  0  0  0  0  0  0  0  0  0  0  0  0  # atno 17320 bound_to 7965
  144.7779  140.5779  143.6625 LP  0  0  0  0  0  0  0  0  0  0  0  0  # atno 17321 bound_to 7965
  139.7055  144.7628  151.1200 LP  0  0  0  0  0  0  0  0  0  0  0  0  # atno 17342 bound_to 10162
  140.7714  143.5400  150.9324 LP  0  0  0  0  0  0  0  0  0  0  0  0  # atno 17343 bound_to 10162
  157.3486  130.7070  149.6426 LP  0  0  0  0  0  0  0  0  0  0  0  0  # atno 17370 bound_to 10713
  155.9676  130.4259  150.4675 LP  0  0  0  0  0  0  0  0  0  0  0  0  # atno 17371 bound_to 10713
  141.2157  133.7545  156.9528 LP  0  0  0  0  0  0  0  0  0  0  0  0  # atno 17394 bound_to 11000
  140.1254  134.9390  157.2262 LP  0  0  0  0  0  0  0  0  0  0  0  0  # atno 17395 bound_to 11000

$$$$
