AV-unprocessed.smi:1199|AV-procd|sdf|5020|dock2
  -GOLD-   22720 4 43D 1   1.00000     0.00000
 Structure written by MMmdl.
 42 43  0  0  0  0  0  0  0  0  2 V2000
  150.5706  139.9851  154.9502 C   0  0  0  0  0  0  0  0  0  0  0  0
  149.6575  141.0895  155.4990 C   0  0  2  0  0  0  0  0  0  0  0  0
  148.7051  141.6331  154.4077 C   0  0  0  0  0  0  0  0  0  0  0  0
  147.5414  142.3766  154.9578 N   0  3  0  0  0  0  0  0  0  0  0  0
  146.4167  142.4848  153.9991 C   0  0  0  0  0  0  0  0  0  0  0  0
  145.2720  143.3186  154.6031 C   0  0  0  0  0  0  0  0  0  0  0  0
  144.8614  142.7533  155.8420 O   0  0  0  0  0  0  0  0  0  0  0  0
  145.9190  142.7269  156.7929 C   0  0  0  0  0  0  0  0  0  0  0  0
  147.0607  141.8483  156.2572 C   0  0  0  0  0  0  0  0  0  0  0  0
  150.4785  142.1653  156.0545 N   0  0  0  0  0  0  0  0  0  0  0  0
  150.6164  142.4541  157.3582 C   0  0  0  0  0  0  0  0  0  0  0  0
  150.1158  141.7813  158.2594 O   0  0  0  0  0  0  0  0  0  0  0  0
  151.4269  143.7113  157.6960 C   0  0  0  0  0  0  0  0  0  0  0  0
  151.8390  143.7317  159.1067 N   0  0  0  0  0  0  0  0  0  0  0  0
  152.5964  142.6373  159.4944 N   0  0  0  0  0  0  0  0  0  0  0  0
  152.9896  142.5270  160.7182 C   0  0  0  0  0  0  0  0  0  0  0  0
  153.7351  141.4258  161.0599 O   0  0  0  0  0  0  0  0  0  0  0  0
  152.6569  143.5308  161.7052 C   0  0  0  0  0  0  0  0  0  0  0  0
  151.9247  144.5976  161.3164 C   0  0  0  0  0  0  0  0  0  0  0  0
  151.4635  144.7542  159.9363 C   0  0  0  0  0  0  0  0  0  0  0  0
  150.7882  145.7105  159.5546 O   0  0  0  0  0  0  0  0  0  0  0  0
  154.4449  141.3997  160.4368 H   0  0  0  0  0  0  0  0  0  0  0  0
  149.9854  139.1554  154.5527 H   0  0  0  0  0  0  0  0  0  0  0  0
  151.2173  139.5850  155.7320 H   0  0  0  0  0  0  0  0  0  0  0  0
  151.2092  140.3559  154.1476 H   0  0  0  0  0  0  0  0  0  0  0  0
  149.0622  140.6373  156.2935 H   0  0  0  0  0  0  0  0  0  0  0  0
  149.2767  142.3066  153.7670 H   0  0  0  0  0  0  0  0  0  0  0  0
  148.3552  140.8259  153.7626 H   0  0  0  0  0  0  0  0  0  0  0  0
  146.7597  142.9514  153.0748 H   0  0  0  0  0  0  0  0  0  0  0  0
  146.0582  141.4864  153.7429 H   0  0  0  0  0  0  0  0  0  0  0  0
  145.5766  144.3548  154.7518 H   0  0  0  0  0  0  0  0  0  0  0  0
  144.4206  143.3345  153.9227 H   0  0  0  0  0  0  0  0  0  0  0  0
  146.2690  143.7401  156.9995 H   0  0  0  0  0  0  0  0  0  0  0  0
  145.5408  142.3218  157.7315 H   0  0  0  0  0  0  0  0  0  0  0  0
  146.7140  140.8215  156.1312 H   0  0  0  0  0  0  0  0  0  0  0  0
  147.8707  141.8218  156.9848 H   0  0  0  0  0  0  0  0  0  0  0  0
  150.9411  142.7693  155.3899 H   0  0  0  0  0  0  0  0  0  0  0  0
  152.2980  143.7417  157.0390 H   0  0  0  0  0  0  0  0  0  0  0  0
  150.8509  144.6099  157.4663 H   0  0  0  0  0  0  0  0  0  0  0  0
  152.9929  143.4215  162.7260 H   0  0  0  0  0  0  0  0  0  0  0  0
  151.6705  145.3555  162.0428 H   0  0  0  0  0  0  0  0  0  0  0  0
  147.8607  143.3210  155.1231 H   0  0  0  0  0  0  0  0  0  0  0  0
  1  2  1  0  0  0  0
  1 23  1  0  0  0  0
  1 24  1  0  0  0  0
  1 25  1  0  0  0  0
  2  3  1  0  0  0  0
  2 10  1  0  0  0  0
  2 26  1  0  0  0  0
  3  4  1  0  0  0  0
  3 27  1  0  0  0  0
  3 28  1  0  0  0  0
  4  9  1  0  0  0  0
  4  5  1  0  0  0  0
  4 42  1  0  0  0  0
  5  6  1  0  0  0  0
  5 29  1  0  0  0  0
  5 30  1  0  0  0  0
  6  7  1  0  0  0  0
  6 31  1  0  0  0  0
  6 32  1  0  0  0  0
  7  8  1  0  0  0  0
  8  9  1  0  0  0  0
  8 33  1  0  0  0  0
  8 34  1  0  0  0  0
  9 35  1  0  0  0  0
  9 36  1  0  0  0  0
 10 11  1  0  0  0  0
 10 37  1  0  0  0  0
 11 12  2  0  0  0  0
 11 13  1  0  0  0  0
 13 38  1  0  0  0  0
 13 39  1  0  0  0  0
 13 14  1  0  0  0  0
 14 15  1  0  0  0  0
 14 20  1  0  0  0  0
 15 16  2  0  0  0  0
 16 17  1  0  0  0  0
 16 18  1  0  0  0  0
 17 22  1  0  0  0  0
 18 40  1  0  0  0  0
 18 19  2  0  0  0  0
 19 41  1  0  0  0  0
 19 20  1  0  0  0  0
 20 21  2  0  0  0  0
M  CHG  1   4   1
M  END
> <s_m_source_file>
AV-unprocessed.smi

> <i_m_source_file_index>
1199

> <i_lp_mmshare_version>
43012

> <i_f3d_flags>
0

> <s_epik_input>
W0NIMl0xW0NIMl1PW0NIMl1bQ0gyXU4xW0NIMl1bQ0BASF0oW0NIM10pW05IXUMoPU8pW0NIMl1uMltuSF1jKD1PKVtjSF1bY0hdYzI9Tw==

> <s_epik_cmdline>
J2VwaWtfcHl0aG9uJywgJy1waCcsICc3LjAnLCAnLXRuJywgJzgnLCAnLW1hJywgJzIwMCcsICctbWV0YWxfYmluZGluZycsICctaW1hZScsICc8aW5maWxlLm1hZT4nLCAnLW9tYWUnLCAnPG91dGZpbGUubWFlPic=

> <r_lp_tautomer_probability>
0.9996

> <r_epik_Ionization_Penalty>
2.86815

> <r_epik_Ionization_Penalty_Charging>
0.656653

> <r_epik_Ionization_Penalty_Neutral>
2.21149

> <r_epik_State_Penalty>
2.43136

> <r_epik_Charging_Adjusted_Penalty>
3.08801

> <i_epik_Tot_Q>
1

> <i_epik_Tot_abs_Q>
1

> <r_epik_Metal_State_Penalty>
2.43136

> <b_epik_Metal_Only>
0

> <s_lp_Force_Field>
OPLS_2005

> <r_lp_Energy>
31.3185

> <b_lp_Chiralities_Consistent>
1

> <s_lp_Variant>
AV-unprocessed.smi:1199-7

> <Gold.Version>
5.8.1

> <Gold.Id.Protein>
6NUR|6NUR_protein|mol2

> <Gold.PLP.Fitness>
50.4797

> <Gold.PLP.PLP>
-45.8039

> <Gold.PLP.part.hbond>
-2.8111

> <Gold.PLP.part.metal>
0.0000

> <Gold.PLP.part.buried>
-5.1836

> <Gold.PLP.part.nonpolar>
-37.8504

> <Gold.PLP.part.repulsive>
0.6146

> <Gold.PLP.ligand.clash>
0.0000

> <Gold.PLP.ligand.torsion>
0.6927

> <Gold.PLP.Chemscore.Hbond>
2.0000

> <Gold.PLP.Chemscore.CHOScore>
0.0000

> <Gold.PLP.Chemscore.Metal>
0.0000

> <Gold.Chemscore.Hbonds>
donor molecule, donor type, donor heavy atom, donor atom, acceptor molecule, acceptor atom, score
      L1  H     4    42       P1  8028  2.00

> <Gold.PLP.Chemscore.Internal.Correction>
0.0613

> <Gold.Rescore>
     Score         DG    S(hbond)    S(metal)    S(lipo)     H(rot)  DE(clash)    DE(int)     intcor
      7.06      -8.55       0.94        0.00      65.78       3.03       0.01       1.48       ----

> <Gold.Chemscore.Fitness>
7.0626

> <Gold.Chemscore.DG>
-8.5542

> <Gold.Chemscore.ZeroCoef>
-5.4800

> <Gold.Chemscore.Hbond>
0.9413

> <Gold.Chemscore.Metal>
0.0000

> <Gold.Chemscore.Lipo>
65.7815

> <Gold.Chemscore.Internal_Hbond>
0.0000

> <Gold.Chemscore.DEClash>
0.0139

> <Gold.Chemscore.DEInternal>
1.4777

> <Gold.Chemscore.Rot>
3.0336

> <Gold.Chemscore.Internal.Correction>
   9.000000E+99

> <Gold.Chemscore.Hbonds>
donor molecule, donor type, donor heavy atom, donor atom, acceptor molecule, acceptor atom, score
      L1  H     4    42       P1  8028  0.60

> <Gold.Chemscore.Hbond.Weighted>
-3.1438

> <Gold.Chemscore.Metal.Weighted>
-0.0000

> <Gold.Chemscore.Lipo.Weighted>
-7.6964

> <Gold.Chemscore.Internal_Hbond.Weighted>
0.0000

> <Gold.Chemscore.DEClash.Weighted>
0.0139

> <Gold.Chemscore.DEInternal.Weighted>
1.4777

> <Gold.Chemscore.Rot.Weighted>
7.7661

> <Gold.Chemscore.Internal.Correction.Weighted>
   9.000000E+99

> <Gold.Protein.RotatedTorsions>
[ 6907 6896 6895 6894 ] final  -94.31 input  -60.11 | X-H torsion
[ 7974 7965 7964 7962 ] final -168.27 input  175.53 | X-H torsion
[ 8008 7997 7996 7995 ] final -139.49 input   59.86 | X-H torsion
[ 10167 10162 10161 10158 ] final   67.35 input  -65.29 | X-H torsion
[ 10718 10713 10712 10709 ] final  170.55 input   66.30 | X-H torsion
[ 10763 10752 10751 10750 ] final  119.69 input  -60.55 | X-H torsion
[ 11005 11000 10999 10996 ] final   56.44 input  -57.11 | X-H torsion

> <Gold.Protein.ActiveResidues>
 VAL166  LYS551  ARG553  GLY616  TRP617  ASP618  TYR619  PRO620  LYS621  CYS622 
 ASP623  PHE694  ASN695  SER759  ASP760  ASP761  ALA762  ILE779  LEU786  VAL792 
 PHE793  MET794  SER795  GLU796  ALA797  LYS798  CYS799  TRP800  GLU811  SER814 

> <Gold.Protein.RotatedAtoms>
  150.6939  134.1832  159.4256 H   0  0  0  0  0  0  0  0  0  0  0  0  # atno 6907 bound_to 6896
  151.9806  135.0028  160.0566 H   0  0  0  0  0  0  0  0  0  0  0  0  # atno 6908 bound_to 6896
  152.1759  133.4639  159.4970 H   0  0  0  0  0  0  0  0  0  0  0  0  # atno 6909 bound_to 6896
  144.7206  140.2394  143.6293 H   0  0  0  0  0  0  0  0  0  0  0  0  # atno 7974 bound_to 7965
  155.4457  140.0535  157.3006 H   0  0  0  0  0  0  0  0  0  0  0  0  # atno 8008 bound_to 7997
  154.4799  140.2077  155.9746 H   0  0  0  0  0  0  0  0  0  0  0  0  # atno 8009 bound_to 7997
  156.1189  140.3191  155.8184 H   0  0  0  0  0  0  0  0  0  0  0  0  # atno 8010 bound_to 7997
  140.0905  144.4992  150.7102 H   0  0  0  0  0  0  0  0  0  0  0  0  # atno 10167 bound_to 10162
  157.0064  131.0191  151.2816 H   0  0  0  0  0  0  0  0  0  0  0  0  # atno 10718 bound_to 10713
  153.5869  135.3473  155.2896 H   0  0  0  0  0  0  0  0  0  0  0  0  # atno 10763 bound_to 10752
  154.8659  135.4195  154.2558 H   0  0  0  0  0  0  0  0  0  0  0  0  # atno 10764 bound_to 10752
  153.3357  135.7047  153.6980 H   0  0  0  0  0  0  0  0  0  0  0  0  # atno 10765 bound_to 10752
  140.0529  134.5711  155.9242 H   0  0  0  0  0  0  0  0  0  0  0  0  # atno 11005 bound_to 11000
  145.8334  139.2096  143.1869 LP  0  0  0  0  0  0  0  0  0  0  0  0  # atno 17320 bound_to 7965
  146.0411  140.8164  142.9828 LP  0  0  0  0  0  0  0  0  0  0  0  0  # atno 17321 bound_to 7965
  140.7031  143.2448  151.4807 LP  0  0  0  0  0  0  0  0  0  0  0  0  # atno 17342 bound_to 10162
  139.5727  144.1890  152.1860 LP  0  0  0  0  0  0  0  0  0  0  0  0  # atno 17343 bound_to 10162
  157.5352  130.8084  149.7964 LP  0  0  0  0  0  0  0  0  0  0  0  0  # atno 17370 bound_to 10713
  156.0152  130.3816  150.2134 LP  0  0  0  0  0  0  0  0  0  0  0  0  # atno 17371 bound_to 10713
  141.1938  133.6580  156.5568 LP  0  0  0  0  0  0  0  0  0  0  0  0  # atno 17394 bound_to 11000
  140.3889  134.7457  157.4709 LP  0  0  0  0  0  0  0  0  0  0  0  0  # atno 17395 bound_to 11000

$$$$
