AV-unprocessed.smi:35|AV-procd|sdf|264|dock3
  -GOLD-   2262016 33D 1   1.00000     0.00000
 Structure written by MMmdl.
 28 29  0  0  0  0  0  0  0  0  2 V2000
  150.8470  137.0340  159.4472 O   0  0  0  0  0  0  0  0  0  0  0  0
  150.7100  137.7358  158.4466 C   0  0  0  0  0  0  0  0  0  0  0  0
  151.7664  138.2303  157.7383 N   0  5  0  0  0  0  0  0  0  0  0  0
  151.6096  139.0089  156.6273 C   0  0  0  0  0  0  0  0  0  0  0  0
  152.5566  139.4853  156.0014 O   0  0  0  0  0  0  0  0  0  0  0  0
  150.2938  139.3036  156.1750 N   0  0  0  0  0  0  0  0  0  0  0  0
  150.0955  140.1639  154.9444 C   0  0  1  0  0  0  0  0  0  0  0  0
  149.2381  139.4989  154.0640 O   0  0  0  0  0  0  0  0  0  0  0  0
  148.2937  140.4177  153.5230 C   0  0  1  0  0  0  0  0  0  0  0  0
  147.0358  139.6904  153.0161 C   0  0  0  0  0  0  0  0  0  0  0  0
  147.3769  138.7845  151.9882 O   0  0  0  0  0  0  0  0  0  0  0  0
  148.0666  141.4095  154.6718 C   0  0  1  0  0  0  0  0  0  0  0  0
  147.1286  140.8962  155.6035 O   0  0  0  0  0  0  0  0  0  0  0  0
  149.4651  141.5359  155.2651 C   0  0  1  0  0  0  0  0  0  0  0  0
  149.4563  141.9154  156.6314 O   0  0  0  0  0  0  0  0  0  0  0  0
  149.2027  138.8276  156.8813 C   0  0  0  0  0  0  0  0  0  0  0  0
  149.3652  138.0673  157.9825 C   0  0  0  0  0  0  0  0  0  0  0  0
  147.7147  137.4590  158.8949 Br  0  0  0  0  0  0  0  0  0  0  0  0
  151.0716  140.2468  154.4645 H   0  0  0  0  0  0  0  0  0  0  0  0
  148.7716  140.9567  152.7025 H   0  0  0  0  0  0  0  0  0  0  0  0
  146.5243  139.1692  153.8261 H   0  0  0  0  0  0  0  0  0  0  0  0
  146.3317  140.4086  152.5947 H   0  0  0  0  0  0  0  0  0  0  0  0
  148.2297  139.0173  151.6545 H   0  0  0  0  0  0  0  0  0  0  0  0
  147.6961  142.3698  154.3117 H   0  0  0  0  0  0  0  0  0  0  0  0
  147.5995  140.3829  156.2425 H   0  0  0  0  0  0  0  0  0  0  0  0
  150.0259  142.2831  154.7021 H   0  0  0  0  0  0  0  0  0  0  0  0
  149.3094  142.8485  156.6781 H   0  0  0  0  0  0  0  0  0  0  0  0
  148.2021  139.0684  156.5546 H   0  0  0  0  0  0  0  0  0  0  0  0
  1  2  2  0  0  0  0
  2 17  1  0  0  0  0
  2  3  1  0  0  0  0
  3  4  1  0  0  0  0
  4  5  2  0  0  0  0
  4  6  1  0  0  0  0
  6  7  1  0  0  0  0
  6 16  1  0  0  0  0
  7 14  1  0  0  0  0
  7  8  1  0  0  0  0
  7 19  1  0  0  0  0
  8  9  1  0  0  0  0
  9 10  1  0  0  0  0
  9 12  1  0  0  0  0
  9 20  1  0  0  0  0
 10 11  1  0  0  0  0
 10 21  1  0  0  0  0
 10 22  1  0  0  0  0
 11 23  1  0  0  0  0
 12 13  1  0  0  0  0
 12 14  1  0  0  0  0
 12 24  1  0  0  0  0
 13 25  1  0  0  0  0
 14 15  1  0  0  0  0
 14 26  1  0  0  0  0
 15 27  1  0  0  0  0
 16 17  2  0  0  0  0
 16 28  1  0  0  0  0
 17 18  1  0  0  0  0
M  CHG  1   3  -1
M  END
> <s_m_source_file>
AV-unprocessed.smi

> <i_m_source_file_index>
35

> <i_lp_mmshare_version>
43012

> <i_f3d_flags>
0

> <s_epik_input>
Tz1jMVtuSF1jKD1PKW4oW2NIXWMxQnIpW0NAQEhdMk9bQ0BASF0oW0NIMl1bT0hdKVtDQEBIXShbT0hdKVtDQEhdMltPSF0=

> <s_epik_cmdline>
J2VwaWtfcHl0aG9uJywgJy1waCcsICc3LjAnLCAnLXRuJywgJzgnLCAnLW1hJywgJzIwMCcsICctbWV0YWxfYmluZGluZycsICctaW1hZScsICc8aW5maWxlLm1hZT4nLCAnLW9tYWUnLCAnPG91dGZpbGUubWFlPic=

> <r_epik_Ionization_Penalty>
1.06112

> <r_epik_Ionization_Penalty_Charging>
2.1796e-09

> <r_epik_Ionization_Penalty_Neutral>
1.06112

> <r_epik_State_Penalty>
1.11484

> <r_epik_Charging_Adjusted_Penalty>
1.11484

> <i_epik_Tot_Q>
-1

> <i_epik_Tot_abs_Q>
1

> <r_epik_Metal_State_Penalty>
0.0032876

> <b_epik_Metal_Only>
0

> <s_epik_Chemistry_Notes>
This compound contains an acetal/aminal-like group ( X-CH(R)-Y where X, Y are N, S, or O) that may be acid/base labile, releasing an aldehyde.

> <s_lp_Force_Field>
OPLS_2005

> <r_lp_Energy>
48.9456

> <b_lp_Chiralities_Consistent>
1

> <s_lp_Variant>
AV-unprocessed.smi:35-18

> <Gold.Version>
5.8.1

> <Gold.Id.Protein>
6NUR|6NUR_protein|mol2

> <Gold.PLP.Fitness>
33.6538

> <Gold.PLP.PLP>
-22.9040

> <Gold.PLP.part.hbond>
-4.9769

> <Gold.PLP.part.metal>
0.0000

> <Gold.PLP.part.buried>
-0.3618

> <Gold.PLP.part.nonpolar>
-18.1755

> <Gold.PLP.part.repulsive>
0.9777

> <Gold.PLP.ligand.clash>
0.0000

> <Gold.PLP.ligand.torsion>
0.1068

> <Gold.PLP.Chemscore.Hbond>
3.6520

> <Gold.PLP.Chemscore.CHOScore>
0.0000

> <Gold.PLP.Chemscore.Metal>
0.0000

> <Gold.Chemscore.Hbonds>
donor molecule, donor type, donor heavy atom, donor atom, acceptor molecule, acceptor atom, score
      L1  H    11    23       P1  7957  1.00
      L1  H    15    27       P1  8028  0.64
      P1  H  6896  6907       L1     1  1.00
      P1  H  7997  8008       L1     5  1.00

> <Gold.PLP.Chemscore.Internal.Correction>
0.0072

> <Gold.Rescore>
     Score         DG    S(hbond)    S(metal)    S(lipo)     H(rot)  DE(clash)    DE(int)     intcor
     11.04     -11.77       3.45        0.00      34.59       3.63       0.62       0.11       ----

> <Gold.Chemscore.Fitness>
11.0385

> <Gold.Chemscore.DG>
-11.7741

> <Gold.Chemscore.ZeroCoef>
-5.4800

> <Gold.Chemscore.Hbond>
3.4522

> <Gold.Chemscore.Metal>
0.0000

> <Gold.Chemscore.Lipo>
34.5869

> <Gold.Chemscore.Internal_Hbond>
0.0000

> <Gold.Chemscore.DEClash>
0.6234

> <Gold.Chemscore.DEInternal>
0.1122

> <Gold.Chemscore.Rot>
3.6261

> <Gold.Chemscore.Internal.Correction>
   9.000000E+99

> <Gold.Chemscore.Hbonds>
donor molecule, donor type, donor heavy atom, donor atom, acceptor molecule, acceptor atom, score
      L1  H    11    23       P1  7957  0.88
      L1  H    15    27       P1  8028  0.60
      P1  H  6896  6907       L1     1  0.96
      P1  H  7997  8008       L1     5  0.99

> <Gold.Chemscore.Hbond.Weighted>
-11.5303

> <Gold.Chemscore.Metal.Weighted>
-0.0000

> <Gold.Chemscore.Lipo.Weighted>
-4.0467

> <Gold.Chemscore.Internal_Hbond.Weighted>
0.0000

> <Gold.Chemscore.DEClash.Weighted>
0.6234

> <Gold.Chemscore.DEInternal.Weighted>
0.1122

> <Gold.Chemscore.Rot.Weighted>
9.2828

> <Gold.Chemscore.Internal.Correction.Weighted>
   9.000000E+99

> <Gold.Protein.RotatedTorsions>
[ 6907 6896 6895 6894 ] final  -14.85 input  -60.11 | X-H torsion
[ 7974 7965 7964 7962 ] final   54.46 input  175.53 | X-H torsion
[ 8008 7997 7996 7995 ] final  -28.23 input   59.86 | X-H torsion
[ 10167 10162 10161 10158 ] final -106.49 input  -65.29 | X-H torsion
[ 10718 10713 10712 10709 ] final -144.73 input   66.30 | X-H torsion
[ 10763 10752 10751 10750 ] final -112.06 input  -60.55 | X-H torsion
[ 11005 11000 10999 10996 ] final   32.09 input  -57.11 | X-H torsion

> <Gold.Protein.ActiveResidues>
 VAL166  LYS551  ARG553  GLY616  TRP617  ASP618  TYR619  PRO620  LYS621  CYS622 
 ASP623  PHE694  ASN695  SER759  ASP760  ASP761  ALA762  ILE779  LEU786  VAL792 
 PHE793  MET794  SER795  GLU796  ALA797  LYS798  CYS799  TRP800  GLU811  SER814 

> <Gold.Protein.RotatedAtoms>
  151.3330  135.0846  159.9344 H   0  0  0  0  0  0  0  0  0  0  0  0  # atno 6907 bound_to 6896
  152.5230  133.9524  159.7688 H   0  0  0  0  0  0  0  0  0  0  0  0  # atno 6908 bound_to 6896
  150.9866  133.6139  159.2744 H   0  0  0  0  0  0  0  0  0  0  0  0  # atno 6909 bound_to 6896
  145.9606  139.4056  143.0250 H   0  0  0  0  0  0  0  0  0  0  0  0  # atno 7974 bound_to 7965
  154.4341  140.1851  156.1057 H   0  0  0  0  0  0  0  0  0  0  0  0  # atno 8008 bound_to 7997
  156.0257  140.3336  155.7060 H   0  0  0  0  0  0  0  0  0  0  0  0  # atno 8009 bound_to 7997
  155.5911  140.0631  157.2749 H   0  0  0  0  0  0  0  0  0  0  0  0  # atno 8010 bound_to 7997
  140.1872  143.3920  152.1235 H   0  0  0  0  0  0  0  0  0  0  0  0  # atno 10167 bound_to 10162
  156.3737  130.7801  151.1985 H   0  0  0  0  0  0  0  0  0  0  0  0  # atno 10718 bound_to 10713
  154.8331  135.4505  154.1135 H   0  0  0  0  0  0  0  0  0  0  0  0  # atno 10763 bound_to 10752
  153.2390  135.6914  153.7810 H   0  0  0  0  0  0  0  0  0  0  0  0  # atno 10764 bound_to 10752
  153.7164  135.3348  155.3233 H   0  0  0  0  0  0  0  0  0  0  0  0  # atno 10765 bound_to 10752
  140.2771  134.3015  155.7811 H   0  0  0  0  0  0  0  0  0  0  0  0  # atno 11005 bound_to 11000
  145.8045  140.9755  143.0981 LP  0  0  0  0  0  0  0  0  0  0  0  0  # atno 17320 bound_to 7965
  144.6814  139.9843  143.7484 LP  0  0  0  0  0  0  0  0  0  0  0  0  # atno 17321 bound_to 7965
  139.5271  144.7115  151.5190 LP  0  0  0  0  0  0  0  0  0  0  0  0  # atno 17342 bound_to 10162
  140.6480  143.8755  150.6756 LP  0  0  0  0  0  0  0  0  0  0  0  0  # atno 17343 bound_to 10162
  157.7486  131.0365  150.4411 LP  0  0  0  0  0  0  0  0  0  0  0  0  # atno 17370 bound_to 10713
  156.4642  130.4038  149.6557 LP  0  0  0  0  0  0  0  0  0  0  0  0  # atno 17371 bound_to 10713
  141.2168  133.7502  156.9424 LP  0  0  0  0  0  0  0  0  0  0  0  0  # atno 17394 bound_to 11000
  140.1318  134.9351  157.2347 LP  0  0  0  0  0  0  0  0  0  0  0  0  # atno 17395 bound_to 11000

$$$$
