AV-unprocessed.smi:2037|AV-procd|sdf|8276|dock8
  -GOLD-   2272010543D 1   1.00000     0.00000
 Structure written by MMmdl.
 39 40  0  0  0  0  0  0  0  0  2 V2000
  151.2224  141.4924  158.4096 C   0  0  0  0  0  0  0  0  0  0  0  0
  150.1991  141.1625  157.3138 C   0  0  2  0  0  0  0  0  0  0  0  0
  150.6041  141.7611  155.9567 C   0  0  0  0  0  0  0  0  0  0  0  0
  149.5569  141.4493  154.8743 C   0  0  0  0  0  0  0  0  0  0  0  0
  148.2104  141.9365  155.2710 N   0  3  1  0  0  0  0  0  0  0  0  0
  147.2101  141.7597  154.1886 C   0  0  0  0  0  0  0  0  0  0  0  0
  147.4819  140.5047  153.3360 C   0  0  0  0  0  0  0  0  0  0  0  0
  146.2470  139.8022  153.0072 N   0  0  0  0  0  0  0  0  0  0  0  0
  146.0260  138.4991  153.2343 C   0  0  0  0  0  0  0  0  0  0  0  0
  146.8614  137.7525  153.7454 O   0  0  0  0  0  0  0  0  0  0  0  0
  144.7958  138.1334  152.8334 N   0  0  0  0  0  0  0  0  0  0  0  0
  144.2018  136.8450  152.8916 C   0  0  0  0  0  0  0  0  0  0  0  0
  142.8825  136.6237  152.9298 N   0  0  0  0  0  0  0  0  0  0  0  0
  142.5813  135.2604  152.9860 C   0  0  0  0  0  0  0  0  0  0  0  0
  143.6915  134.4526  152.9912 C   0  0  0  0  0  0  0  0  0  0  0  0
  145.1681  135.3773  152.9254 S   0  0  0  0  0  0  0  0  0  0  0  0
  147.7794  141.3455  156.5664 C   0  0  0  0  0  0  0  0  0  0  0  0
  148.7903  141.6565  157.6828 C   0  0  0  0  0  0  0  0  0  0  0  0
  151.3086  142.5686  158.5623 H   0  0  0  0  0  0  0  0  0  0  0  0
  152.2112  141.1130  158.1501 H   0  0  0  0  0  0  0  0  0  0  0  0
  150.9368  141.0431  159.3611 H   0  0  0  0  0  0  0  0  0  0  0  0
  150.1630  140.0769  157.2094 H   0  0  0  0  0  0  0  0  0  0  0  0
  150.7226  142.8419  156.0485 H   0  0  0  0  0  0  0  0  0  0  0  0
  151.5749  141.3695  155.6506 H   0  0  0  0  0  0  0  0  0  0  0  0
  149.8611  141.9228  153.9400 H   0  0  0  0  0  0  0  0  0  0  0  0
  149.5161  140.3749  154.6871 H   0  0  0  0  0  0  0  0  0  0  0  0
  146.2168  141.6567  154.6279 H   0  0  0  0  0  0  0  0  0  0  0  0
  147.1801  142.6596  153.5723 H   0  0  0  0  0  0  0  0  0  0  0  0
  148.0056  140.7516  152.4121 H   0  0  0  0  0  0  0  0  0  0  0  0
  148.1271  139.8170  153.8835 H   0  0  0  0  0  0  0  0  0  0  0  0
  145.5079  140.3462  152.5857 H   0  0  0  0  0  0  0  0  0  0  0  0
  144.2158  138.8590  152.4386 H   0  0  0  0  0  0  0  0  0  0  0  0
  141.5468  134.9522  153.0200 H   0  0  0  0  0  0  0  0  0  0  0  0
  143.7299  133.3741  153.0299 H   0  0  0  0  0  0  0  0  0  0  0  0
  146.8046  141.7346  156.8578 H   0  0  0  0  0  0  0  0  0  0  0  0
  147.6654  140.2658  156.4554 H   0  0  0  0  0  0  0  0  0  0  0  0
  148.4630  141.1905  158.6129 H   0  0  0  0  0  0  0  0  0  0  0  0
  148.8098  142.7318  157.8671 H   0  0  0  0  0  0  0  0  0  0  0  0
  148.3028  142.9317  155.4157 H   0  0  0  0  0  0  0  0  0  0  0  0
  1  2  1  0  0  0  0
  1 19  1  0  0  0  0
  1 20  1  0  0  0  0
  1 21  1  0  0  0  0
  2 18  1  0  0  0  0
  2  3  1  0  0  0  0
  2 22  1  0  0  0  0
  3  4  1  0  0  0  0
  3 23  1  0  0  0  0
  3 24  1  0  0  0  0
  4  5  1  0  0  0  0
  4 25  1  0  0  0  0
  4 26  1  0  0  0  0
  5  6  1  0  0  0  0
  5 17  1  0  0  0  0
  5 39  1  0  0  0  0
  6  7  1  0  0  0  0
  6 27  1  0  0  0  0
  6 28  1  0  0  0  0
  7  8  1  0  0  0  0
  7 29  1  0  0  0  0
  7 30  1  0  0  0  0
  8  9  1  0  0  0  0
  8 31  1  0  0  0  0
  9 10  2  0  0  0  0
  9 11  1  0  0  0  0
 11 12  1  0  0  0  0
 11 32  1  0  0  0  0
 12 16  1  0  0  0  0
 12 13  2  0  0  0  0
 13 14  1  0  0  0  0
 14 15  2  0  0  0  0
 14 33  1  0  0  0  0
 15 16  1  0  0  0  0
 15 34  1  0  0  0  0
 17 18  1  0  0  0  0
 17 35  1  0  0  0  0
 17 36  1  0  0  0  0
 18 37  1  0  0  0  0
 18 38  1  0  0  0  0
M  CHG  1   5   1
M  END
> <s_m_source_file>
AV-unprocessed.smi

> <i_m_source_file_index>
2037

> <i_lp_mmshare_version>
43012

> <i_f3d_flags>
0

> <s_epik_input>
W0NIM11bQ0hdMVtDSDJdW0NIMl1OKFtDSDJdW0NIMl0xKVtDSDJdW0NIMl1bTkhdQyg9TylbTkhdYzJuW2NIXVtjSF1zMg==

> <s_epik_cmdline>
J2VwaWtfcHl0aG9uJywgJy1waCcsICc3LjAnLCAnLXRuJywgJzgnLCAnLW1hJywgJzIwMCcsICctbWV0YWxfYmluZGluZycsICctaW1hZScsICc8aW5maWxlLm1hZT4nLCAnLW9tYWUnLCAnPG91dGZpbGUubWFlPic=

> <r_lp_tautomer_probability>
0.999

> <r_epik_Ionization_Penalty>
0.00182893

> <r_epik_Ionization_Penalty_Charging>
0.00168873

> <r_epik_Ionization_Penalty_Neutral>
0.000140204

> <r_epik_State_Penalty>
0.00114045

> <r_epik_Charging_Adjusted_Penalty>
0.00282917

> <i_epik_Tot_Q>
1

> <i_epik_Tot_abs_Q>
1

> <r_epik_Metal_State_Penalty>
0.0569426

> <b_epik_Metal_Only>
0

> <s_lp_Force_Field>
OPLS_2005

> <r_lp_Energy>
13.393

> <b_lp_Chiralities_Consistent>
1

> <s_lp_Variant>
AV-unprocessed.smi:2037-1

> <Gold.Version>
5.8.1

> <Gold.Id.Protein>
6NUR|6NUR_protein|mol2

> <Gold.PLP.Fitness>
39.4839

> <Gold.PLP.PLP>
-26.7034

> <Gold.PLP.part.hbond>
-3.5005

> <Gold.PLP.part.metal>
0.0000

> <Gold.PLP.part.buried>
-3.6390

> <Gold.PLP.part.nonpolar>
-21.2123

> <Gold.PLP.part.repulsive>
0.4521

> <Gold.PLP.ligand.clash>
0.0000

> <Gold.PLP.ligand.torsion>
0.8255

> <Gold.PLP.Chemscore.Hbond>
3.8240

> <Gold.PLP.Chemscore.CHOScore>
0.9790

> <Gold.PLP.Chemscore.Metal>
0.0000

> <Gold.Chemscore.Hbonds>
donor molecule, donor type, donor heavy atom, donor atom, acceptor molecule, acceptor atom, score
      L1  H     5    39       P1  8028  2.00
      L1  H     8    31       P1 10175  0.86
      L1  H    11    32       P1 10175  1.00
      L1  C    15    34       P1 10957  0.81

> <Gold.PLP.Chemscore.Internal.Correction>
0.0225

> <Gold.Rescore>
     Score         DG    S(hbond)    S(metal)    S(lipo)     H(rot)  DE(clash)    DE(int)     intcor
     16.05     -17.80       2.89        0.00      57.89       1.60       0.16       1.58       ----

> <Gold.Chemscore.Fitness>
16.0520

> <Gold.Chemscore.DG>
-17.8005

> <Gold.Chemscore.ZeroCoef>
-5.4800

> <Gold.Chemscore.Hbond>
2.8873

> <Gold.Chemscore.Metal>
0.0000

> <Gold.Chemscore.Lipo>
57.8916

> <Gold.Chemscore.Internal_Hbond>
0.0000

> <Gold.Chemscore.DEClash>
0.1635

> <Gold.Chemscore.DEInternal>
1.5849

> <Gold.Chemscore.Rot>
1.6001

> <Gold.Chemscore.Internal.Correction>
   9.000000E+99

> <Gold.Chemscore.Hbonds>
donor molecule, donor type, donor heavy atom, donor atom, acceptor molecule, acceptor atom, score
      L1  H     5    39       P1  8028  0.98
      L1  H     8    31       P1 10175  0.63
      L1  H    11    32       P1 10175  0.94

> <Gold.Chemscore.Hbond.Weighted>
-9.6434

> <Gold.Chemscore.Metal.Weighted>
-0.0000

> <Gold.Chemscore.Lipo.Weighted>
-6.7733

> <Gold.Chemscore.Internal_Hbond.Weighted>
0.0000

> <Gold.Chemscore.DEClash.Weighted>
0.1635

> <Gold.Chemscore.DEInternal.Weighted>
1.5849

> <Gold.Chemscore.Rot.Weighted>
4.0963

> <Gold.Chemscore.Internal.Correction.Weighted>
   9.000000E+99

> <Gold.Protein.RotatedTorsions>
[ 6907 6896 6895 6894 ] final   94.38 input  -60.11 | X-H torsion
[ 7974 7965 7964 7962 ] final -152.70 input  175.53 | X-H torsion
[ 8008 7997 7996 7995 ] final  111.88 input   59.86 | X-H torsion
[ 10167 10162 10161 10158 ] final -161.42 input  -65.29 | X-H torsion
[ 10718 10713 10712 10709 ] final  148.73 input   66.30 | X-H torsion
[ 10763 10752 10751 10750 ] final -145.68 input  -60.55 | X-H torsion
[ 11005 11000 10999 10996 ] final  109.04 input  -57.11 | X-H torsion

> <Gold.Protein.ActiveResidues>
 VAL166  LYS551  ARG553  GLY616  TRP617  ASP618  TYR619  PRO620  LYS621  CYS622 
 ASP623  PHE694  ASN695  SER759  ASP760  ASP761  ALA762  ILE779  LEU786  VAL792 
 PHE793  MET794  SER795  GLU796  ALA797  LYS798  CYS799  TRP800  GLU811  SER814 

> <Gold.Protein.RotatedAtoms>
  152.5449  134.1203  159.8395 H   0  0  0  0  0  0  0  0  0  0  0  0  # atno 6907 bound_to 6896
  151.1260  133.5063  159.2608 H   0  0  0  0  0  0  0  0  0  0  0  0  # atno 6908 bound_to 6896
  151.1727  135.0335  159.8813 H   0  0  0  0  0  0  0  0  0  0  0  0  # atno 6909 bound_to 6896
  144.7780  140.4626  143.5860 H   0  0  0  0  0  0  0  0  0  0  0  0  # atno 7974 bound_to 7965
  156.2154  140.3010  155.9828 H   0  0  0  0  0  0  0  0  0  0  0  0  # atno 8008 bound_to 7997
  155.2618  140.0430  157.3015 H   0  0  0  0  0  0  0  0  0  0  0  0  # atno 8009 bound_to 7997
  154.5760  140.2362  155.8130 H   0  0  0  0  0  0  0  0  0  0  0  0  # atno 8010 bound_to 7997
  139.6467  144.0160  152.2132 H   0  0  0  0  0  0  0  0  0  0  0  0  # atno 10167 bound_to 10162
  157.3050  131.0877  151.1361 H   0  0  0  0  0  0  0  0  0  0  0  0  # atno 10718 bound_to 10713
  154.8372  135.3406  154.6543 H   0  0  0  0  0  0  0  0  0  0  0  0  # atno 10763 bound_to 10752
  153.7157  135.6961  153.5030 H   0  0  0  0  0  0  0  0  0  0  0  0  # atno 10764 bound_to 10752
  153.2419  135.4382  155.0660 H   0  0  0  0  0  0  0  0  0  0  0  0  # atno 10765 bound_to 10752
  139.8855  134.9447  156.6064 H   0  0  0  0  0  0  0  0  0  0  0  0  # atno 11005 bound_to 11000
  145.6131  139.1515  143.3064 LP  0  0  0  0  0  0  0  0  0  0  0  0  # atno 17320 bound_to 7965
  146.1971  140.6246  142.9119 LP  0  0  0  0  0  0  0  0  0  0  0  0  # atno 17321 bound_to 7965
  139.9863  144.6393  150.7854 LP  0  0  0  0  0  0  0  0  0  0  0  0  # atno 17342 bound_to 10162
  140.7518  143.2978  151.3158 LP  0  0  0  0  0  0  0  0  0  0  0  0  # atno 17343 bound_to 10162
  157.2705  130.6702  149.6017 LP  0  0  0  0  0  0  0  0  0  0  0  0  # atno 17370 bound_to 10713
  155.9674  130.4480  150.5604 LP  0  0  0  0  0  0  0  0  0  0  0  0  # atno 17371 bound_to 10713
  140.7844  133.8633  155.8594 LP  0  0  0  0  0  0  0  0  0  0  0  0  # atno 17394 bound_to 11000
  140.9732  134.1504  157.4559 LP  0  0  0  0  0  0  0  0  0  0  0  0  # atno 17395 bound_to 11000

$$$$
