AV-unprocessed.smi:1978|AV-procd|sdf|8006|dock2
  -GOLD-   2272010193D 1   1.00000     0.00000
 Structure written by MMmdl.
 44 45  0  0  0  0  0  0  0  0  3 V2000
  152.1773  140.9743  158.8202 C   0  0  0  0  0  0  0  0  0  0  0  0
  151.9694  140.3371  157.4888 C   0  0  0  0  0  0  0  0  0  0  0  0
  151.0279  140.5114  156.5145 C   0  0  0  0  0  0  0  0  0  0  0  0
  151.4262  139.5885  155.5091 C   0  0  0  0  0  0  0  0  0  0  0  0
  150.7998  139.3750  154.3417 N   0  5  0  0  0  0  0  0  0  0  0  0
  149.4989  139.7130  154.1953 C   0  0  0  0  0  0  0  0  0  0  0  0
  148.9278  140.6735  154.7173 O   0  0  0  0  0  0  0  0  0  0  0  0
  148.8126  138.8806  153.3994 N   0  0  0  0  0  0  0  0  0  0  0  0
  147.3901  138.9816  153.0854 C   0  0  0  0  0  0  0  0  0  0  0  0
  146.5267  137.9033  153.8025 C   0  0  2  0  0  0  0  0  0  0  0  0
  147.1160  137.6329  155.2118 C   0  0  0  0  0  0  0  0  0  0  0  0
  146.4015  136.6530  152.9750 N   0  3  2  0  0  0  0  0  0  0  0  0
  145.6321  136.8389  151.7063 C   0  0  0  0  0  0  0  0  0  0  0  0
  145.7423  135.6106  150.7879 C   0  0  0  0  0  0  0  0  0  0  0  0
  145.2823  134.3362  151.4986 C   0  0  0  0  0  0  0  0  0  0  0  0
  146.0565  134.1740  152.8114 C   0  0  0  0  0  0  0  0  0  0  0  0
  145.9496  135.4238  153.7107 C   0  0  2  0  0  0  0  0  0  0  0  0
  144.5440  135.5637  154.3394 C   0  0  0  0  0  0  0  0  0  0  0  0
  152.5039  138.9027  155.8504 N   0  0  0  0  0  0  0  0  0  0  0  0
  152.8622  139.3807  157.1167 O   0  0  0  0  0  0  0  0  0  0  0  0
  151.4129  140.6494  159.5258 H   0  0  0  0  0  0  0  0  0  0  0  0
  152.1248  142.0601  158.7403 H   0  0  0  0  0  0  0  0  0  0  0  0
  153.1522  140.7138  159.2332 H   0  0  0  0  0  0  0  0  0  0  0  0
  150.1898  141.1918  156.5186 H   0  0  0  0  0  0  0  0  0  0  0  0
  149.3204  138.1114  152.9870 H   0  0  0  0  0  0  0  0  0  0  0  0
  147.0923  139.9977  153.3350 H   0  0  0  0  0  0  0  0  0  0  0  0
  147.2780  138.8871  152.0048 H   0  0  0  0  0  0  0  0  0  0  0  0
  145.5210  138.3034  153.9374 H   0  0  0  0  0  0  0  0  0  0  0  0
  147.2437  138.5509  155.7849 H   0  0  0  0  0  0  0  0  0  0  0  0
  148.0926  137.1524  155.1464 H   0  0  0  0  0  0  0  0  0  0  0  0
  146.4710  137.0066  155.8257 H   0  0  0  0  0  0  0  0  0  0  0  0
  144.5876  137.0585  151.9290 H   0  0  0  0  0  0  0  0  0  0  0  0
  146.0000  137.6829  151.1303 H   0  0  0  0  0  0  0  0  0  0  0  0
  145.1497  135.7663  149.8859 H   0  0  0  0  0  0  0  0  0  0  0  0
  146.7762  135.4934  150.4606 H   0  0  0  0  0  0  0  0  0  0  0  0
  144.2104  134.3822  151.6926 H   0  0  0  0  0  0  0  0  0  0  0  0
  145.4435  133.4693  150.8573 H   0  0  0  0  0  0  0  0  0  0  0  0
  145.7026  133.2915  153.3459 H   0  0  0  0  0  0  0  0  0  0  0  0
  147.1068  133.9863  152.5835 H   0  0  0  0  0  0  0  0  0  0  0  0
  146.6507  135.2302  154.5211 H   0  0  0  0  0  0  0  0  0  0  0  0
  144.2807  134.6620  154.8927 H   0  0  0  0  0  0  0  0  0  0  0  0
  143.7664  135.7195  153.5928 H   0  0  0  0  0  0  0  0  0  0  0  0
  144.4886  136.3927  155.0438 H   0  0  0  0  0  0  0  0  0  0  0  0
  147.3461  136.4447  152.6848 H   0  0  0  0  0  0  0  0  0  0  0  0
  1  2  1  0  0  0  0
  1 21  1  0  0  0  0
  1 22  1  0  0  0  0
  1 23  1  0  0  0  0
  2 20  1  0  0  0  0
  2  3  2  0  0  0  0
  3  4  1  0  0  0  0
  3 24  1  0  0  0  0
  4  5  1  0  0  0  0
  4 19  2  0  0  0  0
  5  6  1  0  0  0  0
  6  7  2  0  0  0  0
  6  8  1  0  0  0  0
  8  9  1  0  0  0  0
  8 25  1  0  0  0  0
  9 10  1  0  0  0  0
  9 26  1  0  0  0  0
  9 27  1  0  0  0  0
 10 11  1  0  0  0  0
 10 12  1  0  0  0  0
 10 28  1  0  0  0  0
 11 29  1  0  0  0  0
 11 30  1  0  0  0  0
 11 31  1  0  0  0  0
 12 17  1  0  0  0  0
 12 13  1  0  0  0  0
 12 44  1  0  0  0  0
 13 14  1  0  0  0  0
 13 32  1  0  0  0  0
 13 33  1  0  0  0  0
 14 15  1  0  0  0  0
 14 34  1  0  0  0  0
 14 35  1  0  0  0  0
 15 16  1  0  0  0  0
 15 36  1  0  0  0  0
 15 37  1  0  0  0  0
 16 17  1  0  0  0  0
 16 38  1  0  0  0  0
 16 39  1  0  0  0  0
 17 18  1  0  0  0  0
 17 40  1  0  0  0  0
 18 41  1  0  0  0  0
 18 42  1  0  0  0  0
 18 43  1  0  0  0  0
 19 20  1  0  0  0  0
M  CHG  1   5  -1
M  CHG  1  12   1
M  END
> <s_m_source_file>
AV-unprocessed.smi

> <i_m_source_file_index>
1978

> <i_lp_mmshare_version>
43012

> <i_f3d_flags>
0

> <s_epik_input>
W0NIM11jMVtjSF1jKG5vMSlbTkhdQyg9TylbTkhdW0NIMl1bQ0BIXShbQ0gzXSlOMltDSDJdW0NIMl1bQ0gyXVtDSDJdW0NASF0yW0NIM10=

> <s_epik_cmdline>
J2VwaWtfcHl0aG9uJywgJy1waCcsICc3LjAnLCAnLXRuJywgJzgnLCAnLW1hJywgJzIwMCcsICctbWV0YWxfYmluZGluZycsICctaW1hZScsICc8aW5maWxlLm1hZT4nLCAnLW9tYWUnLCAnPG91dGZpbGUubWFlPic=

> <r_epik_Ionization_Penalty>
6.22372

> <r_epik_Ionization_Penalty_Charging>
6.22362

> <r_epik_Ionization_Penalty_Neutral>
9.65074e-05

> <r_epik_State_Penalty>
6.22363

> <r_epik_Charging_Adjusted_Penalty>
12.4472

> <i_epik_Tot_Q>
0

> <i_epik_Tot_abs_Q>
2

> <r_epik_Metal_State_Penalty>
2.16675

> <b_epik_Metal_Only>
1

> <s_lp_Force_Field>
OPLS_2005

> <r_lp_Energy>
13.4454

> <b_lp_Chiralities_Consistent>
1

> <s_lp_Variant>
AV-unprocessed.smi:1978-15

> <Gold.Version>
5.8.1

> <Gold.Id.Protein>
6NUR|6NUR_protein|mol2

> <Gold.PLP.Fitness>
39.6000

> <Gold.PLP.PLP>
-28.5340

> <Gold.PLP.part.hbond>
-5.3228

> <Gold.PLP.part.metal>
0.0000

> <Gold.PLP.part.buried>
-1.3375

> <Gold.PLP.part.nonpolar>
-21.7848

> <Gold.PLP.part.repulsive>
0.3621

> <Gold.PLP.ligand.clash>
0.0000

> <Gold.PLP.ligand.torsion>
0.9477

> <Gold.PLP.Chemscore.Hbond>
4.2614

> <Gold.PLP.Chemscore.CHOScore>
0.0000

> <Gold.PLP.Chemscore.Metal>
0.0000

> <Gold.Chemscore.Hbonds>
donor molecule, donor type, donor heavy atom, donor atom, acceptor molecule, acceptor atom, score
      L1  H     8    25       P1  7948  0.51
      L1  H    12    44       P1  7948  2.00
      P1  H  7989  7998       L1     5  0.70
      P1  H  7997  8008       L1    20  1.00

> <Gold.PLP.Chemscore.Internal.Correction>
0.1772

> <Gold.Rescore>
     Score         DG    S(hbond)    S(metal)    S(lipo)     H(rot)  DE(clash)    DE(int)     intcor
     12.56     -16.41       2.50        0.00      55.29       1.52       1.53       2.33       ----

> <Gold.Chemscore.Fitness>
12.5553

> <Gold.Chemscore.DG>
-16.4103

> <Gold.Chemscore.ZeroCoef>
-5.4800

> <Gold.Chemscore.Hbond>
2.5000

> <Gold.Chemscore.Metal>
0.0000

> <Gold.Chemscore.Lipo>
55.2891

> <Gold.Chemscore.Internal_Hbond>
0.0000

> <Gold.Chemscore.DEClash>
1.5300

> <Gold.Chemscore.DEInternal>
2.3251

> <Gold.Chemscore.Rot>
1.5190

> <Gold.Chemscore.Internal.Correction>
   9.000000E+99

> <Gold.Chemscore.Hbonds>
donor molecule, donor type, donor heavy atom, donor atom, acceptor molecule, acceptor atom, score
      L1  H     8    25       P1  7948  0.47
      L1  H    12    44       P1  7948  1.00
      P1  H  7989  7998       L1     5  0.02
      P1  H  7997  8008       L1    20  0.28

> <Gold.Chemscore.Hbond.Weighted>
-8.3501

> <Gold.Chemscore.Metal.Weighted>
-0.0000

> <Gold.Chemscore.Lipo.Weighted>
-6.4688

> <Gold.Chemscore.Internal_Hbond.Weighted>
0.0000

> <Gold.Chemscore.DEClash.Weighted>
1.5300

> <Gold.Chemscore.DEInternal.Weighted>
2.3251

> <Gold.Chemscore.Rot.Weighted>
3.8886

> <Gold.Chemscore.Internal.Correction.Weighted>
   9.000000E+99

> <Gold.Protein.RotatedTorsions>
[ 6907 6896 6895 6894 ] final  174.84 input  -60.11 | X-H torsion
[ 7974 7965 7964 7962 ] final  -69.06 input  175.53 | X-H torsion
[ 8008 7997 7996 7995 ] final  -71.96 input   59.86 | X-H torsion
[ 10167 10162 10161 10158 ] final -127.10 input  -65.29 | X-H torsion
[ 10718 10713 10712 10709 ] final  -56.38 input   66.30 | X-H torsion
[ 10763 10752 10751 10750 ] final   92.64 input  -60.55 | X-H torsion
[ 11005 11000 10999 10996 ] final  178.67 input  -57.11 | X-H torsion

> <Gold.Protein.ActiveResidues>
 VAL166  LYS551  ARG553  GLY616  TRP617  ASP618  TYR619  PRO620  LYS621  CYS622 
 ASP623  PHE694  ASN695  SER759  ASP760  ASP761  ALA762  ILE779  LEU786  VAL792 
 PHE793  MET794  SER795  GLU796  ALA797  LYS798  CYS799  TRP800  GLU811  SER814 

> <Gold.Protein.RotatedAtoms>
  151.7458  133.3324  159.3377 H   0  0  0  0  0  0  0  0  0  0  0  0  # atno 6907 bound_to 6896
  150.7555  134.6237  159.6159 H   0  0  0  0  0  0  0  0  0  0  0  0  # atno 6908 bound_to 6896
  152.3501  134.7019  160.0290 H   0  0  0  0  0  0  0  0  0  0  0  0  # atno 6909 bound_to 6896
  145.7086  140.9088  143.0693 H   0  0  0  0  0  0  0  0  0  0  0  0  # atno 7974 bound_to 7965
  154.5128  140.0806  156.8023 H   0  0  0  0  0  0  0  0  0  0  0  0  # atno 8008 bound_to 7997
  155.3746  140.3424  155.4226 H   0  0  0  0  0  0  0  0  0  0  0  0  # atno 8009 bound_to 7997
  156.1593  140.1583  156.8626 H   0  0  0  0  0  0  0  0  0  0  0  0  # atno 8010 bound_to 7997
  139.9645  143.5914  152.2434 H   0  0  0  0  0  0  0  0  0  0  0  0  # atno 10167 bound_to 10162
  156.1293  130.4160  150.0297 H   0  0  0  0  0  0  0  0  0  0  0  0  # atno 10718 bound_to 10713
  153.2214  135.4354  155.0494 H   0  0  0  0  0  0  0  0  0  0  0  0  # atno 10763 bound_to 10752
  154.8252  135.3357  154.6921 H   0  0  0  0  0  0  0  0  0  0  0  0  # atno 10764 bound_to 10752
  153.7353  135.7008  153.5035 H   0  0  0  0  0  0  0  0  0  0  0  0  # atno 10765 bound_to 10752
  140.3977  134.6805  157.4544 H   0  0  0  0  0  0  0  0  0  0  0  0  # atno 11005 bound_to 11000
  144.6948  139.9043  143.7460 LP  0  0  0  0  0  0  0  0  0  0  0  0  # atno 17320 bound_to 7965
  146.0733  139.3722  143.0509 LP  0  0  0  0  0  0  0  0  0  0  0  0  # atno 17321 bound_to 7965
  139.6529  144.7661  151.2113 LP  0  0  0  0  0  0  0  0  0  0  0  0  # atno 17342 bound_to 10162
  140.7542  143.6133  150.8584 LP  0  0  0  0  0  0  0  0  0  0  0  0  # atno 17343 bound_to 10162
  156.8214  130.9360  151.3641 LP  0  0  0  0  0  0  0  0  0  0  0  0  # atno 17370 bound_to 10713
  157.6472  130.8854  149.9563 LP  0  0  0  0  0  0  0  0  0  0  0  0  # atno 17371 bound_to 10713
  140.0359  134.6338  155.9044 LP  0  0  0  0  0  0  0  0  0  0  0  0  # atno 17394 bound_to 11000
  141.1868  133.6558  156.5254 LP  0  0  0  0  0  0  0  0  0  0  0  0  # atno 17395 bound_to 11000

$$$$
