AV-unprocessed.smi:2121|AV-procd|sdf|8645|dock7
  -GOLD-   2272011393D 1   1.00000     0.00000
 Structure written by MMmdl.
 49 50  0  0  0  0  0  0  0  0  1 V2000
  153.5861  141.7246  161.7025 C   0  0  0  0  0  0  0  0  0  0  0  0
  153.0924  142.2682  160.3575 C   0  0  1  0  0  0  0  0  0  0  0  0
  152.5831  141.1454  159.4364 C   0  0  0  0  0  0  0  0  0  0  0  0
  152.0102  141.7109  158.2188 N   0  0  0  0  0  0  0  0  0  0  0  0
  151.7667  140.8440  157.1331 C   0  0  0  0  0  0  0  0  0  0  0  0
  150.5248  140.8894  156.4580 C   0  0  0  0  0  0  0  0  0  0  0  0
  150.2983  140.0171  155.3767 C   0  0  0  0  0  0  0  0  0  0  0  0
  151.3161  139.1147  154.9981 C   0  0  0  0  0  0  0  0  0  0  0  0
  151.1592  138.1395  153.8377 C   0  0  0  0  0  0  0  0  0  0  0  0
  150.3106  136.9860  154.1191 N   0  0  0  0  0  0  0  0  0  0  0  0
  150.6135  135.9987  154.9754 C   0  0  0  0  0  0  0  0  0  0  0  0
  151.6795  135.9413  155.5907 O   0  0  0  0  0  0  0  0  0  0  0  0
  149.5425  134.9128  155.1626 C   0  0  1  0  0  0  0  0  0  0  0  0
  148.2912  135.5628  155.7755 C   0  0  0  0  0  0  0  0  0  0  0  0
  149.1719  134.3319  153.8727 N   0  0  0  0  0  0  0  0  0  0  0  0
  149.1184  133.0182  153.6067 C   0  0  0  0  0  0  0  0  0  0  0  0
  148.7712  132.7699  152.3437 N   0  0  0  0  0  0  0  0  0  0  0  0
  149.3613  132.1308  154.4225 O   0  0  0  0  0  0  0  0  0  0  0  0
  152.5231  139.1489  155.7248 C   0  0  0  0  0  0  0  0  0  0  0  0
  152.7476  139.9859  156.7594 N   0  0  0  0  0  0  0  0  0  0  0  0
  150.9651  142.6961  158.4788 C   0  0  0  0  0  0  0  0  0  0  0  0
  151.4624  143.7871  159.4474 C   0  0  2  0  0  0  0  0  0  0  0  0
  152.4107  144.8042  158.7878 C   0  0  0  0  0  0  0  0  0  0  0  0
  152.0350  143.1918  160.6144 O   0  0  0  0  0  0  0  0  0  0  0  0
  154.4050  141.0184  161.5638 H   0  0  0  0  0  0  0  0  0  0  0  0
  152.7871  141.2104  162.2377 H   0  0  0  0  0  0  0  0  0  0  0  0
  153.9482  142.5321  162.3393 H   0  0  0  0  0  0  0  0  0  0  0  0
  153.9236  142.7855  159.8782 H   0  0  0  0  0  0  0  0  0  0  0  0
  153.4090  140.4773  159.1887 H   0  0  0  0  0  0  0  0  0  0  0  0
  151.8243  140.5515  159.9478 H   0  0  0  0  0  0  0  0  0  0  0  0
  149.7547  141.5894  156.7464 H   0  0  0  0  0  0  0  0  0  0  0  0
  149.3549  140.0532  154.8525 H   0  0  0  0  0  0  0  0  0  0  0  0
  150.7255  138.6796  152.9960 H   0  0  0  0  0  0  0  0  0  0  0  0
  152.1442  137.8011  153.5112 H   0  0  0  0  0  0  0  0  0  0  0  0
  149.4156  136.9524  153.6526 H   0  0  0  0  0  0  0  0  0  0  0  0
  149.9092  134.1287  155.8281 H   0  0  0  0  0  0  0  0  0  0  0  0
  148.5133  136.0115  156.7445 H   0  0  0  0  0  0  0  0  0  0  0  0
  147.5068  134.8221  155.9347 H   0  0  0  0  0  0  0  0  0  0  0  0
  147.8811  136.3438  155.1331 H   0  0  0  0  0  0  0  0  0  0  0  0
  148.9610  134.9795  153.1278 H   0  0  0  0  0  0  0  0  0  0  0  0
  148.6912  131.8187  152.0159 H   0  0  0  0  0  0  0  0  0  0  0  0
  148.5855  133.5406  151.7183 H   0  0  0  0  0  0  0  0  0  0  0  0
  153.3357  138.4849  155.4687 H   0  0  0  0  0  0  0  0  0  0  0  0
  150.6044  143.1609  157.5620 H   0  0  0  0  0  0  0  0  0  0  0  0
  150.1131  142.1773  158.9202 H   0  0  0  0  0  0  0  0  0  0  0  0
  150.5913  144.3465  159.7896 H   0  0  0  0  0  0  0  0  0  0  0  0
  151.9034  145.3383  157.9841 H   0  0  0  0  0  0  0  0  0  0  0  0
  153.2907  144.3299  158.3539 H   0  0  0  0  0  0  0  0  0  0  0  0
  152.7515  145.5446  159.5117 H   0  0  0  0  0  0  0  0  0  0  0  0
  1  2  1  0  0  0  0
  1 25  1  0  0  0  0
  1 26  1  0  0  0  0
  1 27  1  0  0  0  0
  2 24  1  0  0  0  0
  2  3  1  0  0  0  0
  2 28  1  0  0  0  0
  3  4  1  0  0  0  0
  3 29  1  0  0  0  0
  3 30  1  0  0  0  0
  4  5  1  0  0  0  0
  4 21  1  0  0  0  0
  5 20  1  0  0  0  0
  5  6  2  0  0  0  0
  6  7  1  0  0  0  0
  6 31  1  0  0  0  0
  7  8  2  0  0  0  0
  7 32  1  0  0  0  0
  8  9  1  0  0  0  0
  8 19  1  0  0  0  0
  9 10  1  0  0  0  0
  9 33  1  0  0  0  0
  9 34  1  0  0  0  0
 10 11  1  0  0  0  0
 10 35  1  0  0  0  0
 11 12  2  0  0  0  0
 11 13  1  0  0  0  0
 13 14  1  0  0  0  0
 13 15  1  0  0  0  0
 13 36  1  0  0  0  0
 14 37  1  0  0  0  0
 14 38  1  0  0  0  0
 14 39  1  0  0  0  0
 15 16  1  0  0  0  0
 15 40  1  0  0  0  0
 16 17  1  0  0  0  0
 16 18  2  0  0  0  0
 17 41  1  0  0  0  0
 17 42  1  0  0  0  0
 19 20  2  0  0  0  0
 19 43  1  0  0  0  0
 21 22  1  0  0  0  0
 21 44  1  0  0  0  0
 21 45  1  0  0  0  0
 22 23  1  0  0  0  0
 22 24  1  0  0  0  0
 22 46  1  0  0  0  0
 23 47  1  0  0  0  0
 23 48  1  0  0  0  0
 23 49  1  0  0  0  0
M  END
> <s_m_source_file>
AV-unprocessed.smi

> <i_m_source_file_index>
2121

> <i_lp_mmshare_version>
43012

> <i_f3d_flags>
0

> <s_epik_input>
W0NIM11bQ0BASF0xW0NIMl1OKFtDSDJdW0NASF0oTzEpW0NIM10pYzJbY0hdW2NIXWMoW2NIXW4yKVtDSDJdW05IXUMoPU8pW0NASF0oW0NIM10pW05IXUMoPU8pW05IMl0=

> <s_epik_cmdline>
J2VwaWtfcHl0aG9uJywgJy1waCcsICc3LjAnLCAnLXRuJywgJzgnLCAnLW1hJywgJzIwMCcsICctbWV0YWxfYmluZGluZycsICctaW1hZScsICc8aW5maWxlLm1hZT4nLCAnLW9tYWUnLCAnPG91dGZpbGUubWFlPic=

> <r_lp_tautomer_probability>
1

> <r_epik_Ionization_Penalty>
0.0063713

> <r_epik_Ionization_Penalty_Charging>
0

> <r_epik_Ionization_Penalty_Neutral>
0.0063713

> <r_epik_State_Penalty>
0.00467069

> <r_epik_Charging_Adjusted_Penalty>
0.00467069

> <i_epik_Tot_Q>
0

> <i_epik_Tot_abs_Q>
0

> <r_epik_Metal_State_Penalty>
-0

> <b_epik_Metal_Only>
0

> <s_lp_Force_Field>
OPLS_2005

> <r_lp_Energy>
11.1976

> <b_lp_Chiralities_Consistent>
1

> <s_lp_Variant>
AV-unprocessed.smi:2121-6

> <Gold.Version>
5.8.1

> <Gold.Id.Protein>
6NUR|6NUR_protein|mol2

> <Gold.PLP.Fitness>
58.6678

> <Gold.PLP.PLP>
-47.1662

> <Gold.PLP.part.hbond>
-6.0000

> <Gold.PLP.part.metal>
0.0000

> <Gold.PLP.part.buried>
-2.4537

> <Gold.PLP.part.nonpolar>
-36.7969

> <Gold.PLP.part.repulsive>
0.2326

> <Gold.PLP.ligand.clash>
0.1409

> <Gold.PLP.ligand.torsion>
0.5201

> <Gold.PLP.Chemscore.Hbond>
4.1089

> <Gold.PLP.Chemscore.CHOScore>
0.0000

> <Gold.PLP.Chemscore.Metal>
0.0000

> <Gold.Chemscore.Hbonds>
donor molecule, donor type, donor heavy atom, donor atom, acceptor molecule, acceptor atom, score
      L1  H    10    35       P1  7948  0.56
      L1  H    15    40       P1  7948  0.90
      L1  H    17    41       P1 10747  0.72
      P1  H  7997  8010       L1    20  0.95
      P1  H 10752 10765       L1    12  1.00

> <Gold.PLP.Chemscore.Internal.Correction>
0.3560

> <Gold.Rescore>
     Score         DG    S(hbond)    S(metal)    S(lipo)     H(rot)  DE(clash)    DE(int)     intcor
     21.18     -22.44       3.29        0.00     107.66       2.58       0.54       0.72       ----

> <Gold.Chemscore.Fitness>
21.1825

> <Gold.Chemscore.DG>
-22.4417

> <Gold.Chemscore.ZeroCoef>
-5.4800

> <Gold.Chemscore.Hbond>
3.2874

> <Gold.Chemscore.Metal>
0.0000

> <Gold.Chemscore.Lipo>
107.6587

> <Gold.Chemscore.Internal_Hbond>
0.0000

> <Gold.Chemscore.DEClash>
0.5402

> <Gold.Chemscore.DEInternal>
0.7190

> <Gold.Chemscore.Rot>
2.5838

> <Gold.Chemscore.Internal.Correction>
   9.000000E+99

> <Gold.Chemscore.Hbonds>
donor molecule, donor type, donor heavy atom, donor atom, acceptor molecule, acceptor atom, score
      L1  H    10    35       P1  7948  0.51
      L1  H    15    40       P1  7948  0.18
      L1  H    17    41       P1 10747  0.68
      P1  H  7997  8010       L1    20  0.21
      P1  H 10752 10765       L1    12  0.84

> <Gold.Chemscore.Hbond.Weighted>
-10.9800

> <Gold.Chemscore.Metal.Weighted>
-0.0000

> <Gold.Chemscore.Lipo.Weighted>
-12.5961

> <Gold.Chemscore.Internal_Hbond.Weighted>
0.0000

> <Gold.Chemscore.DEClash.Weighted>
0.5402

> <Gold.Chemscore.DEInternal.Weighted>
0.7190

> <Gold.Chemscore.Rot.Weighted>
6.6145

> <Gold.Chemscore.Internal.Correction.Weighted>
   9.000000E+99

> <Gold.Protein.RotatedTorsions>
[ 6907 6896 6895 6894 ] final    1.73 input  -60.11 | X-H torsion
[ 7974 7965 7964 7962 ] final  -24.10 input  175.53 | X-H torsion
[ 8008 7997 7996 7995 ] final   59.39 input   59.86 | X-H torsion
[ 10167 10162 10161 10158 ] final   -2.29 input  -65.29 | X-H torsion
[ 10718 10713 10712 10709 ] final  158.36 input   66.30 | X-H torsion
[ 10763 10752 10751 10750 ] final -179.25 input  -60.55 | X-H torsion
[ 11005 11000 10999 10996 ] final   55.54 input  -57.11 | X-H torsion

> <Gold.Protein.ActiveResidues>
 VAL166  LYS551  ARG553  GLY616  TRP617  ASP618  TYR619  PRO620  LYS621  CYS622 
 ASP623  PHE694  ASN695  SER759  ASP760  ASP761  ALA762  ILE779  LEU786  VAL792 
 PHE793  MET794  SER795  GLU796  ALA797  LYS798  CYS799  TRP800  GLU811  SER814 

> <Gold.Protein.RotatedAtoms>
  151.5974  135.1049  160.0052 H   0  0  0  0  0  0  0  0  0  0  0  0  # atno 6907 bound_to 6896
  152.4275  133.7216  159.6547 H   0  0  0  0  0  0  0  0  0  0  0  0  # atno 6908 bound_to 6896
  150.8165  133.8256  159.3180 H   0  0  0  0  0  0  0  0  0  0  0  0  # atno 6909 bound_to 6896
  146.1576  140.4705  142.8585 H   0  0  0  0  0  0  0  0  0  0  0  0  # atno 7974 bound_to 7965
  155.5655  140.3489  155.4502 H   0  0  0  0  0  0  0  0  0  0  0  0  # atno 8008 bound_to 7997
  156.0483  140.1312  157.0104 H   0  0  0  0  0  0  0  0  0  0  0  0  # atno 8009 bound_to 7997
  154.4422  140.1010  156.6323 H   0  0  0  0  0  0  0  0  0  0  0  0  # atno 8010 bound_to 7997
  140.6845  143.6674  150.8214 H   0  0  0  0  0  0  0  0  0  0  0  0  # atno 10167 bound_to 10162
  157.1790  131.0628  151.2142 H   0  0  0  0  0  0  0  0  0  0  0  0  # atno 10718 bound_to 10713
  154.5375  135.2804  155.1125 H   0  0  0  0  0  0  0  0  0  0  0  0  # atno 10763 bound_to 10752
  154.2621  135.6319  153.5282 H   0  0  0  0  0  0  0  0  0  0  0  0  # atno 10764 bound_to 10752
  152.9971  135.5608  154.5905 H   0  0  0  0  0  0  0  0  0  0  0  0  # atno 10765 bound_to 10752
  140.0599  134.5617  155.9164 H   0  0  0  0  0  0  0  0  0  0  0  0  # atno 11005 bound_to 11000
  144.7983  140.6166  143.6495 LP  0  0  0  0  0  0  0  0  0  0  0  0  # atno 17320 bound_to 7965
  145.4670  139.1507  143.3835 LP  0  0  0  0  0  0  0  0  0  0  0  0  # atno 17321 bound_to 7965
  140.0379  143.5376  152.2731 LP  0  0  0  0  0  0  0  0  0  0  0  0  # atno 17342 bound_to 10162
  139.6192  144.7626  151.2777 LP  0  0  0  0  0  0  0  0  0  0  0  0  # atno 17343 bound_to 10162
  157.3971  130.7313  149.6740 LP  0  0  0  0  0  0  0  0  0  0  0  0  # atno 17370 bound_to 10713
  155.9727  130.4131  150.4064 LP  0  0  0  0  0  0  0  0  0  0  0  0  # atno 17371 bound_to 10713
  141.1968  133.6593  156.5712 LP  0  0  0  0  0  0  0  0  0  0  0  0  # atno 17394 bound_to 11000
  140.3786  134.7543  157.4646 LP  0  0  0  0  0  0  0  0  0  0  0  0  # atno 17395 bound_to 11000

$$$$
