AV-unprocessed.smi:3205|AV-procd|sdf|12254|dock5
  -GOLD-   2272018 93D 1   1.00000     0.00000
 Structure written by MMmdl.
 38 39  0  0  0  0  0  0  0  0  2 V2000
  148.0623  142.4290  158.1245 C   0  0  0  0  0  0  0  0  0  0  0  0
  149.4770  141.8553  157.9053 C   0  0  2  0  0  0  0  0  0  0  0  0
  150.4317  142.9609  157.6556 N   0  3  0  0  0  0  0  0  0  0  0  0
  150.7037  143.8411  158.8113 C   0  0  0  0  0  0  0  0  0  0  0  0
  152.2101  144.1044  158.9533 C   0  0  0  0  0  0  0  0  0  0  0  0
  152.8309  143.2068  159.9087 N   0  0  0  0  0  0  0  0  0  0  0  0
  152.6872  143.1805  161.2800 C   0  0  0  0  0  0  0  0  0  0  0  0
  153.4759  142.1705  161.7513 C   0  0  0  0  0  0  0  0  0  0  0  0
  154.0747  141.6328  160.5780 C   0  0  0  0  0  0  0  0  0  0  0  0
  153.6892  142.2579  159.4769 N   0  0  0  0  0  0  0  0  0  0  0  0
  149.5380  140.8379  156.7345 C   0  0  0  0  0  0  0  0  0  0  0  0
  150.9794  140.4376  156.3535 C   0  0  0  0  0  0  0  0  0  0  0  0
  150.9987  139.5046  155.1311 C   0  0  0  0  0  0  0  0  0  0  0  0
  150.3451  140.1261  154.0322 O   0  0  0  0  0  0  0  0  0  0  0  0
  148.9737  140.3945  154.2921 C   0  0  0  0  0  0  0  0  0  0  0  0
  148.8483  141.3809  155.4639 C   0  0  0  0  0  0  0  0  0  0  0  0
  147.3544  141.6556  158.4210 H   0  0  0  0  0  0  0  0  0  0  0  0
  147.6814  142.9018  157.2185 H   0  0  0  0  0  0  0  0  0  0  0  0
  148.0447  143.1750  158.9182 H   0  0  0  0  0  0  0  0  0  0  0  0
  149.7848  141.3374  158.8153 H   0  0  0  0  0  0  0  0  0  0  0  0
  151.3125  142.5423  157.3924 H   0  0  0  0  0  0  0  0  0  0  0  0
  150.1751  144.7870  158.6927 H   0  0  0  0  0  0  0  0  0  0  0  0
  150.3216  143.3687  159.7174 H   0  0  0  0  0  0  0  0  0  0  0  0
  152.7122  143.9851  157.9922 H   0  0  0  0  0  0  0  0  0  0  0  0
  152.3861  145.1309  159.2782 H   0  0  0  0  0  0  0  0  0  0  0  0
  152.0437  143.8739  161.8014 H   0  0  0  0  0  0  0  0  0  0  0  0
  153.6074  141.8635  162.7784 H   0  0  0  0  0  0  0  0  0  0  0  0
  154.7739  140.8141  160.4947 H   0  0  0  0  0  0  0  0  0  0  0  0
  149.0130  139.9319  157.0424 H   0  0  0  0  0  0  0  0  0  0  0  0
  151.5674  141.3304  156.1360 H   0  0  0  0  0  0  0  0  0  0  0  0
  151.4742  139.9295  157.1805 H   0  0  0  0  0  0  0  0  0  0  0  0
  152.0274  139.2820  154.8470 H   0  0  0  0  0  0  0  0  0  0  0  0
  150.5205  138.5513  155.3618 H   0  0  0  0  0  0  0  0  0  0  0  0
  148.5234  140.8199  153.3952 H   0  0  0  0  0  0  0  0  0  0  0  0
  148.4422  139.4657  154.5051 H   0  0  0  0  0  0  0  0  0  0  0  0
  147.7916  141.5761  155.6476 H   0  0  0  0  0  0  0  0  0  0  0  0
  149.2950  142.3346  155.1790 H   0  0  0  0  0  0  0  0  0  0  0  0
  150.0979  143.5153  156.8800 H   0  0  0  0  0  0  0  0  0  0  0  0
  1  2  1  0  0  0  0
  1 17  1  0  0  0  0
  1 18  1  0  0  0  0
  1 19  1  0  0  0  0
  2  3  1  0  0  0  0
  2 11  1  0  0  0  0
  2 20  1  0  0  0  0
  3  4  1  0  0  0  0
  3 21  1  0  0  0  0
  3 38  1  0  0  0  0
  4  5  1  0  0  0  0
  4 22  1  0  0  0  0
  4 23  1  0  0  0  0
  5  6  1  0  0  0  0
  5 24  1  0  0  0  0
  5 25  1  0  0  0  0
  6 10  1  0  0  0  0
  6  7  1  0  0  0  0
  7  8  2  0  0  0  0
  7 26  1  0  0  0  0
  8  9  1  0  0  0  0
  8 27  1  0  0  0  0
  9 10  2  0  0  0  0
  9 28  1  0  0  0  0
 11 16  1  0  0  0  0
 11 12  1  0  0  0  0
 11 29  1  0  0  0  0
 12 13  1  0  0  0  0
 12 30  1  0  0  0  0
 12 31  1  0  0  0  0
 13 14  1  0  0  0  0
 13 32  1  0  0  0  0
 13 33  1  0  0  0  0
 14 15  1  0  0  0  0
 15 16  1  0  0  0  0
 15 34  1  0  0  0  0
 15 35  1  0  0  0  0
 16 36  1  0  0  0  0
 16 37  1  0  0  0  0
M  CHG  1   3   1
M  END
> <s_m_source_file>
AV-unprocessed.smi

> <i_m_source_file_index>
3205

> <i_lp_mmshare_version>
43012

> <i_f3d_flags>
0

> <s_epik_input>
W0NIMl0xW0NIMl1PW0NIMl1bQ0gyXVtDSF0xW0NASF0oW0NIM10pW05IXVtDSDJdW0NIMl1uMltjSF1bY0hdW2NIXW4y

> <s_epik_cmdline>
J2VwaWtfcHl0aG9uJywgJy1waCcsICc3LjAnLCAnLXRuJywgJzgnLCAnLW1hJywgJzIwMCcsICctbWV0YWxfYmluZGluZycsICctaW1hZScsICc8aW5maWxlLm1hZT4nLCAnLW9tYWUnLCAnPG91dGZpbGUubWFlPic=

> <r_lp_tautomer_probability>
1

> <r_epik_Ionization_Penalty>
0.00310903

> <r_epik_Ionization_Penalty_Charging>
0.00310601

> <r_epik_Ionization_Penalty_Neutral>
3.02836e-06

> <r_epik_State_Penalty>
-0

> <r_epik_Charging_Adjusted_Penalty>
0.00310601

> <i_epik_Tot_Q>
1

> <i_epik_Tot_abs_Q>
1

> <r_epik_Metal_State_Penalty>
-0

> <b_epik_Metal_Only>
0

> <s_lp_Force_Field>
OPLS_2005

> <r_lp_Energy>
15.8656

> <b_lp_Chiralities_Consistent>
1

> <s_lp_Variant>
AV-unprocessed.smi:3205-1

> <Gold.Version>
5.8.1

> <Gold.Id.Protein>
6NUR|6NUR_protein|mol2

> <Gold.PLP.Fitness>
47.3086

> <Gold.PLP.PLP>
-39.9857

> <Gold.PLP.part.hbond>
-1.9361

> <Gold.PLP.part.metal>
0.0000

> <Gold.PLP.part.buried>
-6.2148

> <Gold.PLP.part.nonpolar>
-32.7370

> <Gold.PLP.part.repulsive>
0.1468

> <Gold.PLP.ligand.clash>
0.0000

> <Gold.PLP.ligand.torsion>
0.8635

> <Gold.PLP.Chemscore.Hbond>
3.0000

> <Gold.PLP.Chemscore.CHOScore>
0.0000

> <Gold.PLP.Chemscore.Metal>
0.0000

> <Gold.Chemscore.Hbonds>
donor molecule, donor type, donor heavy atom, donor atom, acceptor molecule, acceptor atom, score
      L1  H     3    38       P1  8028  1.69
      P1  H  7989  7998       L1    14  0.85

> <Gold.PLP.Chemscore.Internal.Correction>
0.0498

> <Gold.Rescore>
     Score         DG    S(hbond)    S(metal)    S(lipo)     H(rot)  DE(clash)    DE(int)     intcor
     17.45     -18.33       1.88        0.00      92.35       1.66       0.01       0.87       ----

> <Gold.Chemscore.Fitness>
17.4505

> <Gold.Chemscore.DG>
-18.3311

> <Gold.Chemscore.ZeroCoef>
-5.4800

> <Gold.Chemscore.Hbond>
1.8844

> <Gold.Chemscore.Metal>
0.0000

> <Gold.Chemscore.Lipo>
92.3545

> <Gold.Chemscore.Internal_Hbond>
0.0000

> <Gold.Chemscore.DEClash>
0.0149

> <Gold.Chemscore.DEInternal>
0.8657

> <Gold.Chemscore.Rot>
1.6594

> <Gold.Chemscore.Internal.Correction>
   9.000000E+99

> <Gold.Chemscore.Hbonds>
donor molecule, donor type, donor heavy atom, donor atom, acceptor molecule, acceptor atom, score
      L1  H     3    38       P1  8028  0.84
      P1  H  7989  7998       L1    14  0.13

> <Gold.Chemscore.Hbond.Weighted>
-6.2938

> <Gold.Chemscore.Metal.Weighted>
-0.0000

> <Gold.Chemscore.Lipo.Weighted>
-10.8055

> <Gold.Chemscore.Internal_Hbond.Weighted>
0.0000

> <Gold.Chemscore.DEClash.Weighted>
0.0149

> <Gold.Chemscore.DEInternal.Weighted>
0.8657

> <Gold.Chemscore.Rot.Weighted>
4.2482

> <Gold.Chemscore.Internal.Correction.Weighted>
   9.000000E+99

> <Gold.Protein.RotatedTorsions>
[ 6907 6896 6895 6894 ] final  -86.13 input  -60.11 | X-H torsion
[ 7974 7965 7964 7962 ] final   99.89 input  175.53 | X-H torsion
[ 8008 7997 7996 7995 ] final  140.13 input   59.86 | X-H torsion
[ 10167 10162 10161 10158 ] final  -79.02 input  -65.29 | X-H torsion
[ 10718 10713 10712 10709 ] final  105.28 input   66.30 | X-H torsion
[ 10763 10752 10751 10750 ] final -112.57 input  -60.55 | X-H torsion
[ 11005 11000 10999 10996 ] final  -95.38 input  -57.11 | X-H torsion

> <Gold.Protein.ActiveResidues>
 VAL166  LYS551  ARG553  GLY616  TRP617  ASP618  TYR619  PRO620  LYS621  CYS622 
 ASP623  PHE694  ASN695  SER759  ASP760  ASP761  ALA762  ILE779  LEU786  VAL792 
 PHE793  MET794  SER795  GLU796  ALA797  LYS798  CYS799  TRP800  GLU811  SER814 

> <Gold.Protein.RotatedAtoms>
  150.6868  134.3098  159.4741 H   0  0  0  0  0  0  0  0  0  0  0  0  # atno 6907 bound_to 6896
  152.0985  134.9355  160.0579 H   0  0  0  0  0  0  0  0  0  0  0  0  # atno 6908 bound_to 6896
  152.0643  133.4042  159.4468 H   0  0  0  0  0  0  0  0  0  0  0  0  # atno 6909 bound_to 6896
  145.3928  139.2360  143.3342 H   0  0  0  0  0  0  0  0  0  0  0  0  # atno 7974 bound_to 7965
  156.2982  140.2349  156.4351 H   0  0  0  0  0  0  0  0  0  0  0  0  # atno 8008 bound_to 7997
  154.8235  140.0436  157.1448 H   0  0  0  0  0  0  0  0  0  0  0  0  # atno 8009 bound_to 7997
  154.9287  140.3013  155.5182 H   0  0  0  0  0  0  0  0  0  0  0  0  # atno 8010 bound_to 7997
  140.4631  143.2448  151.8319 H   0  0  0  0  0  0  0  0  0  0  0  0  # atno 10167 bound_to 10162
  157.6711  131.0824  150.5832 H   0  0  0  0  0  0  0  0  0  0  0  0  # atno 10718 bound_to 10713
  154.8356  135.4486  154.1214 H   0  0  0  0  0  0  0  0  0  0  0  0  # atno 10763 bound_to 10752
  153.2449  135.6920  153.7748 H   0  0  0  0  0  0  0  0  0  0  0  0  # atno 10764 bound_to 10752
  153.7082  135.3361  155.3216 H   0  0  0  0  0  0  0  0  0  0  0  0  # atno 10765 bound_to 10752
  141.1443  133.8022  157.0427 H   0  0  0  0  0  0  0  0  0  0  0  0  # atno 11005 bound_to 11000
  146.2789  140.4613  142.8784 LP  0  0  0  0  0  0  0  0  0  0  0  0  # atno 17320 bound_to 7965
  144.8428  140.6884  143.6218 LP  0  0  0  0  0  0  0  0  0  0  0  0  # atno 17321 bound_to 7965
  139.4808  144.4984  151.9093 LP  0  0  0  0  0  0  0  0  0  0  0  0  # atno 17342 bound_to 10162
  140.4069  144.2420  150.5890 LP  0  0  0  0  0  0  0  0  0  0  0  0  # atno 17343 bound_to 10162
  156.6133  130.4386  149.5850 LP  0  0  0  0  0  0  0  0  0  0  0  0  # atno 17370 bound_to 10713
  156.2413  130.6853  151.1558 LP  0  0  0  0  0  0  0  0  0  0  0  0  # atno 17371 bound_to 10713
  140.0682  134.9717  157.1422 LP  0  0  0  0  0  0  0  0  0  0  0  0  # atno 17394 bound_to 11000
  140.3749  134.2350  155.7175 LP  0  0  0  0  0  0  0  0  0  0  0  0  # atno 17395 bound_to 11000

$$$$
