AV-unprocessed.smi:1840|AV-procd|sdf|7494|dock9
  -GOLD-   22720 9193D 1   1.00000     0.00000
 Structure written by MMmdl.
 43 44  0  0  0  0  0  0  0  0  1 V2000
  147.2668  141.4475  153.4940 C   0  0  0  0  0  0  0  0  0  0  0  0
  148.5818  140.9376  154.0992 C   0  0  2  0  0  0  0  0  0  0  0  0
  148.4340  139.4985  154.6361 C   0  0  0  0  0  0  0  0  0  0  0  0
  149.7150  138.8429  154.8356 N   0  0  0  0  0  0  0  0  0  0  0  0
  150.5238  138.2398  153.8958 C   0  0  0  0  0  0  0  0  0  0  0  0
  151.6306  137.7779  154.5484 C   0  0  0  0  0  0  0  0  0  0  0  0
  151.4003  138.1443  155.9038 C   0  0  0  0  0  0  0  0  0  0  0  0
  150.2526  138.7803  156.0732 N   0  0  0  0  0  0  0  0  0  0  0  0
  149.0026  141.8473  155.1647 N   0  0  0  0  0  0  0  0  0  0  0  0
  150.1945  141.8316  155.7792 C   0  0  0  0  0  0  0  0  0  0  0  0
  151.1094  141.0584  155.4939 O   0  0  0  0  0  0  0  0  0  0  0  0
  150.2601  142.7495  156.7546 N   0  0  0  0  0  0  0  0  0  0  0  0
  151.4121  142.9957  157.6217 C   0  0  1  0  0  0  0  0  0  0  0  0
  151.3551  144.4544  158.1173 C   0  0  0  0  0  0  0  0  0  0  0  0
  152.5130  144.7746  159.0735 C   0  0  0  0  0  0  0  0  0  0  0  0
  152.5337  143.7984  160.2574 C   0  0  0  0  0  0  0  0  0  0  0  0
  152.6019  142.3431  159.7706 C   0  0  0  0  0  0  0  0  0  0  0  0
  151.4426  142.0013  158.8122 C   0  0  2  0  0  0  0  0  0  0  0  0
  151.5305  140.5314  158.3643 C   0  0  0  0  0  0  0  0  0  0  0  0
  146.9375  140.8069  152.6754 H   0  0  0  0  0  0  0  0  0  0  0  0
  147.3829  142.4561  153.0956 H   0  0  0  0  0  0  0  0  0  0  0  0
  146.4696  141.4725  154.2378 H   0  0  0  0  0  0  0  0  0  0  0  0
  149.3231  140.9334  153.2978 H   0  0  0  0  0  0  0  0  0  0  0  0
  147.8773  139.4950  155.5748 H   0  0  0  0  0  0  0  0  0  0  0  0
  147.8590  138.8951  153.9327 H   0  0  0  0  0  0  0  0  0  0  0  0
  150.2505  138.1976  152.8517 H   0  0  0  0  0  0  0  0  0  0  0  0
  152.4759  137.2589  154.1222 H   0  0  0  0  0  0  0  0  0  0  0  0
  152.0301  137.9710  156.7641 H   0  0  0  0  0  0  0  0  0  0  0  0
  148.3195  142.5211  155.4782 H   0  0  0  0  0  0  0  0  0  0  0  0
  149.4467  143.3257  156.9139 H   0  0  0  0  0  0  0  0  0  0  0  0
  152.3362  142.8779  157.0521 H   0  0  0  0  0  0  0  0  0  0  0  0
  151.3839  145.1389  157.2685 H   0  0  0  0  0  0  0  0  0  0  0  0
  150.4074  144.6358  158.6268 H   0  0  0  0  0  0  0  0  0  0  0  0
  153.4597  144.7187  158.5346 H   0  0  0  0  0  0  0  0  0  0  0  0
  152.4231  145.7986  159.4370 H   0  0  0  0  0  0  0  0  0  0  0  0
  153.3851  144.0152  160.9030 H   0  0  0  0  0  0  0  0  0  0  0  0
  151.6396  143.9398  160.8660 H   0  0  0  0  0  0  0  0  0  0  0  0
  153.5557  142.1732  159.2690 H   0  0  0  0  0  0  0  0  0  0  0  0
  152.5844  141.6733  160.6310 H   0  0  0  0  0  0  0  0  0  0  0  0
  150.5116  142.1137  159.3705 H   0  0  0  0  0  0  0  0  0  0  0  0
  152.4083  140.3585  157.7409 H   0  0  0  0  0  0  0  0  0  0  0  0
  150.6519  140.2353  157.7924 H   0  0  0  0  0  0  0  0  0  0  0  0
  151.5938  139.8617  159.2222 H   0  0  0  0  0  0  0  0  0  0  0  0
  1  2  1  0  0  0  0
  1 20  1  0  0  0  0
  1 21  1  0  0  0  0
  1 22  1  0  0  0  0
  2  3  1  0  0  0  0
  2  9  1  0  0  0  0
  2 23  1  0  0  0  0
  3  4  1  0  0  0  0
  3 24  1  0  0  0  0
  3 25  1  0  0  0  0
  4  8  1  0  0  0  0
  4  5  1  0  0  0  0
  5  6  2  0  0  0  0
  5 26  1  0  0  0  0
  6  7  1  0  0  0  0
  6 27  1  0  0  0  0
  7  8  2  0  0  0  0
  7 28  1  0  0  0  0
  9 10  1  0  0  0  0
  9 29  1  0  0  0  0
 10 11  2  0  0  0  0
 10 12  1  0  0  0  0
 12 13  1  0  0  0  0
 12 30  1  0  0  0  0
 13 18  1  0  0  0  0
 13 14  1  0  0  0  0
 13 31  1  0  0  0  0
 14 15  1  0  0  0  0
 14 32  1  0  0  0  0
 14 33  1  0  0  0  0
 15 16  1  0  0  0  0
 15 34  1  0  0  0  0
 15 35  1  0  0  0  0
 16 17  1  0  0  0  0
 16 36  1  0  0  0  0
 16 37  1  0  0  0  0
 17 18  1  0  0  0  0
 17 38  1  0  0  0  0
 17 39  1  0  0  0  0
 18 19  1  0  0  0  0
 18 40  1  0  0  0  0
 19 41  1  0  0  0  0
 19 42  1  0  0  0  0
 19 43  1  0  0  0  0
M  END
> <s_m_source_file>
AV-unprocessed.smi

> <i_m_source_file_index>
1840

> <i_lp_mmshare_version>
43012

> <i_f3d_flags>
0

> <s_epik_input>
bjFbY0hdW2NIXVtjSF1uMVtDSDJdW0NAQEhdKFtDSDNdKVtOSF1DKD1PKVtOSF1bQ0BASF0yW0NIMl1bQ0gyXVtDSDJdW0NIMl1bQ0BIXTJbQ0gzXQ==

> <s_epik_cmdline>
J2VwaWtfcHl0aG9uJywgJy1waCcsICc3LjAnLCAnLXRuJywgJzgnLCAnLW1hJywgJzIwMCcsICctbWV0YWxfYmluZGluZycsICctaW1hZScsICc8aW5maWxlLm1hZT4nLCAnLW9tYWUnLCAnPG91dGZpbGUubWFlPic=

> <r_lp_tautomer_probability>
1

> <r_epik_Ionization_Penalty>
7.38659e-05

> <r_epik_Ionization_Penalty_Charging>
0

> <r_epik_Ionization_Penalty_Neutral>
7.38659e-05

> <r_epik_State_Penalty>
-0

> <r_epik_Charging_Adjusted_Penalty>
0

> <i_epik_Tot_Q>
0

> <i_epik_Tot_abs_Q>
0

> <r_epik_Metal_State_Penalty>
-0

> <b_epik_Metal_Only>
0

> <s_lp_Force_Field>
OPLS_2005

> <r_lp_Energy>
7.66905

> <b_lp_Chiralities_Consistent>
1

> <s_lp_Variant>
AV-unprocessed.smi:1840-7

> <Gold.Version>
5.8.1

> <Gold.Id.Protein>
6NUR|6NUR_protein|mol2

> <Gold.PLP.Fitness>
48.4998

> <Gold.PLP.PLP>
-42.0080

> <Gold.PLP.part.hbond>
-3.0000

> <Gold.PLP.part.metal>
0.0000

> <Gold.PLP.part.buried>
-3.7559

> <Gold.PLP.part.nonpolar>
-35.2271

> <Gold.PLP.part.repulsive>
0.2587

> <Gold.PLP.ligand.clash>
0.0000

> <Gold.PLP.ligand.torsion>
0.8455

> <Gold.PLP.Chemscore.Hbond>
1.1593

> <Gold.PLP.Chemscore.CHOScore>
1.5609

> <Gold.PLP.Chemscore.Metal>
0.0000

> <Gold.Chemscore.Hbonds>
donor molecule, donor type, donor heavy atom, donor atom, acceptor molecule, acceptor atom, score
      L1  H     9    29       P1  8028  0.18
      L1  H    12    30       P1  8028  0.46
      P1  H  7989  7998       L1    11  0.59
      L1  C     5    26       P1  7948  0.71
      L1  C     5    26       P1  7949  0.09
      L1  C     5    26       P1  7957  0.81

> <Gold.PLP.Chemscore.Internal.Correction>
0.0220

> <Gold.Rescore>
     Score         DG    S(hbond)    S(metal)    S(lipo)     H(rot)  DE(clash)    DE(int)     intcor
     14.91     -20.18       1.51        0.00     116.68       1.56       0.78       4.49       ----

> <Gold.Chemscore.Fitness>
14.9071

> <Gold.Chemscore.DG>
-20.1835

> <Gold.Chemscore.ZeroCoef>
-5.4800

> <Gold.Chemscore.Hbond>
1.5087

> <Gold.Chemscore.Metal>
0.0000

> <Gold.Chemscore.Lipo>
116.6839

> <Gold.Chemscore.Internal_Hbond>
0.0000

> <Gold.Chemscore.DEClash>
0.7823

> <Gold.Chemscore.DEInternal>
4.4941

> <Gold.Chemscore.Rot>
1.5576

> <Gold.Chemscore.Internal.Correction>
   9.000000E+99

> <Gold.Chemscore.Hbonds>
donor molecule, donor type, donor heavy atom, donor atom, acceptor molecule, acceptor atom, score
      L1  H     9    29       P1  8028  0.17
      L1  H    12    30       P1  8028  0.44
      P1  H  7989  7998       L1    11  0.54

> <Gold.Chemscore.Hbond.Weighted>
-5.0390

> <Gold.Chemscore.Metal.Weighted>
-0.0000

> <Gold.Chemscore.Lipo.Weighted>
-13.6520

> <Gold.Chemscore.Internal_Hbond.Weighted>
0.0000

> <Gold.Chemscore.DEClash.Weighted>
0.7823

> <Gold.Chemscore.DEInternal.Weighted>
4.4941

> <Gold.Chemscore.Rot.Weighted>
3.9875

> <Gold.Chemscore.Internal.Correction.Weighted>
   9.000000E+99

> <Gold.Protein.RotatedTorsions>
[ 6907 6896 6895 6894 ] final -139.52 input  -60.11 | X-H torsion
[ 7974 7965 7964 7962 ] final -123.07 input  175.53 | X-H torsion
[ 8008 7997 7996 7995 ] final  -16.42 input   59.86 | X-H torsion
[ 10167 10162 10161 10158 ] final   50.44 input  -65.29 | X-H torsion
[ 10718 10713 10712 10709 ] final  102.60 input   66.30 | X-H torsion
[ 10763 10752 10751 10750 ] final   13.38 input  -60.55 | X-H torsion
[ 11005 11000 10999 10996 ] final  140.38 input  -57.11 | X-H torsion

> <Gold.Protein.ActiveResidues>
 VAL166  LYS551  ARG553  GLY616  TRP617  ASP618  TYR619  PRO620  LYS621  CYS622 
 ASP623  PHE694  ASN695  SER759  ASP760  ASP761  ALA762  ILE779  LEU786  VAL792 
 PHE793  MET794  SER795  GLU796  ALA797  LYS798  CYS799  TRP800  GLU811  SER814 

> <Gold.Protein.RotatedAtoms>
  151.0488  133.5642  159.2643 H   0  0  0  0  0  0  0  0  0  0  0  0  # atno 6907 bound_to 6896
  151.2660  135.0669  159.9126 H   0  0  0  0  0  0  0  0  0  0  0  0  # atno 6908 bound_to 6896
  152.5378  134.0226  159.8042 H   0  0  0  0  0  0  0  0  0  0  0  0  # atno 6909 bound_to 6896
  145.0227  140.8001  143.4371 H   0  0  0  0  0  0  0  0  0  0  0  0  # atno 7974 bound_to 7965
  154.5055  140.2170  155.9261 H   0  0  0  0  0  0  0  0  0  0  0  0  # atno 8008 bound_to 7997
  156.1487  140.3165  155.8580 H   0  0  0  0  0  0  0  0  0  0  0  0  # atno 8009 bound_to 7997
  155.3980  140.0482  157.3028 H   0  0  0  0  0  0  0  0  0  0  0  0  # atno 8010 bound_to 7997
  140.2724  144.3250  150.6286 H   0  0  0  0  0  0  0  0  0  0  0  0  # atno 10167 bound_to 10162
  157.6797  131.0757  150.5428 H   0  0  0  0  0  0  0  0  0  0  0  0  # atno 10718 bound_to 10713
  153.1727  135.6815  153.8586 H   0  0  0  0  0  0  0  0  0  0  0  0  # atno 10763 bound_to 10752
  153.7945  135.3164  155.3383 H   0  0  0  0  0  0  0  0  0  0  0  0  # atno 10764 bound_to 10752
  154.8008  135.4779  154.0364 H   0  0  0  0  0  0  0  0  0  0  0  0  # atno 10765 bound_to 10752
  140.0323  134.9346  157.0686 H   0  0  0  0  0  0  0  0  0  0  0  0  # atno 11005 bound_to 11000
  145.1874  139.2319  143.5260 LP  0  0  0  0  0  0  0  0  0  0  0  0  # atno 17320 bound_to 7965
  146.3488  140.1663  142.8590 LP  0  0  0  0  0  0  0  0  0  0  0  0  # atno 17321 bound_to 7965
  140.5878  143.2169  151.7309 LP  0  0  0  0  0  0  0  0  0  0  0  0  # atno 17342 bound_to 10162
  139.4985  144.3984  152.0207 LP  0  0  0  0  0  0  0  0  0  0  0  0  # atno 17343 bound_to 10162
  156.5734  130.4286  149.6009 LP  0  0  0  0  0  0  0  0  0  0  0  0  # atno 17370 bound_to 10713
  156.2721  130.7023  151.1823 LP  0  0  0  0  0  0  0  0  0  0  0  0  # atno 17371 bound_to 10713
  140.4205  134.1886  155.7164 LP  0  0  0  0  0  0  0  0  0  0  0  0  # atno 17394 bound_to 11000
  141.1838  133.8357  157.1163 LP  0  0  0  0  0  0  0  0  0  0  0  0  # atno 17395 bound_to 11000

$$$$
