AV-unprocessed.smi:2004|AV-procd|sdf|8121|dock3
  -GOLD-   2272010353D 1   1.00000     0.00000
 Structure written by MMmdl.
 39 41  0  0  0  0  0  0  0  0  1 V2000
  150.1105  140.1171  153.8632 O   0  0  0  0  0  0  0  0  0  0  0  0
  149.1695  140.4126  154.8741 C   0  0  2  0  0  0  0  0  0  0  0  0
  147.7947  140.6143  154.2110 C   0  0  0  0  0  0  0  0  0  0  0  0
  147.4883  141.9989  154.2046 O   0  0  0  0  0  0  0  0  0  0  0  0
  146.4244  142.3227  153.3239 C   0  0  0  0  0  0  0  0  0  0  0  0
  145.3753  143.1829  154.0015 C   0  0  0  0  0  0  0  0  0  0  0  0
  144.8349  144.3001  153.3301 C   0  0  0  0  0  0  0  0  0  0  0  0
  143.8493  145.0918  153.9515 C   0  0  0  0  0  0  0  0  0  0  0  0
  143.3964  144.7664  155.2447 C   0  0  0  0  0  0  0  0  0  0  0  0
  143.9277  143.6477  155.9153 C   0  0  0  0  0  0  0  0  0  0  0  0
  144.9130  142.8555  155.2940 C   0  0  0  0  0  0  0  0  0  0  0  0
  149.6852  141.6564  155.6249 C   0  0  0  0  0  0  0  0  0  0  0  0
  150.7633  141.3497  156.5477 N   0  0  0  0  0  0  0  0  0  0  0  0
  151.5995  140.2954  156.4899 C   0  0  0  0  0  0  0  0  0  0  0  0
  152.5271  140.1996  157.4380 N   0  0  0  0  0  0  0  0  0  0  0  0
  152.2659  141.3264  158.1985 C   0  0  0  0  0  0  0  0  0  0  0  0
  152.9014  141.8135  159.3632 C   0  0  0  0  0  0  0  0  0  0  0  0
  152.4558  143.0031  159.9757 C   0  0  0  0  0  0  0  0  0  0  0  0
  151.3704  143.7226  159.4353 C   0  0  0  0  0  0  0  0  0  0  0  0
  150.7206  143.2567  158.2761 C   0  0  0  0  0  0  0  0  0  0  0  0
  151.1688  142.0696  157.6669 C   0  0  0  0  0  0  0  0  0  0  0  0
  149.6563  140.0848  153.0349 H   0  0  0  0  0  0  0  0  0  0  0  0
  149.1245  139.5712  155.5669 H   0  0  0  0  0  0  0  0  0  0  0  0
  147.8174  140.2731  153.1757 H   0  0  0  0  0  0  0  0  0  0  0  0
  147.0241  140.0363  154.7240 H   0  0  0  0  0  0  0  0  0  0  0  0
  146.8076  142.8660  152.4590 H   0  0  0  0  0  0  0  0  0  0  0  0
  145.9633  141.4055  152.9536 H   0  0  0  0  0  0  0  0  0  0  0  0
  145.1758  144.5525  152.3366 H   0  0  0  0  0  0  0  0  0  0  0  0
  143.4398  145.9476  153.4354 H   0  0  0  0  0  0  0  0  0  0  0  0
  142.6402  145.3729  155.7209 H   0  0  0  0  0  0  0  0  0  0  0  0
  143.5785  143.3958  156.9058 H   0  0  0  0  0  0  0  0  0  0  0  0
  145.3129  141.9977  155.8146 H   0  0  0  0  0  0  0  0  0  0  0  0
  150.0527  142.3990  154.9151 H   0  0  0  0  0  0  0  0  0  0  0  0
  148.8738  142.1311  156.1779 H   0  0  0  0  0  0  0  0  0  0  0  0
  151.5206  139.5550  155.7073 H   0  0  0  0  0  0  0  0  0  0  0  0
  153.7341  141.2709  159.7857 H   0  0  0  0  0  0  0  0  0  0  0  0
  152.9500  143.3656  160.8652 H   0  0  0  0  0  0  0  0  0  0  0  0
  151.0362  144.6329  159.9116 H   0  0  0  0  0  0  0  0  0  0  0  0
  149.8881  143.8054  157.8617 H   0  0  0  0  0  0  0  0  0  0  0  0
  1  2  1  0  0  0  0
  1 22  1  0  0  0  0
  2  3  1  0  0  0  0
  2 12  1  0  0  0  0
  2 23  1  0  0  0  0
  3  4  1  0  0  0  0
  3 24  1  0  0  0  0
  3 25  1  0  0  0  0
  4  5  1  0  0  0  0
  5  6  1  0  0  0  0
  5 26  1  0  0  0  0
  5 27  1  0  0  0  0
  6 11  1  0  0  0  0
  6  7  2  0  0  0  0
  7  8  1  0  0  0  0
  7 28  1  0  0  0  0
  8  9  2  0  0  0  0
  8 29  1  0  0  0  0
  9 10  1  0  0  0  0
  9 30  1  0  0  0  0
 10 11  2  0  0  0  0
 10 31  1  0  0  0  0
 11 32  1  0  0  0  0
 12 13  1  0  0  0  0
 12 33  1  0  0  0  0
 12 34  1  0  0  0  0
 13 21  1  0  0  0  0
 13 14  1  0  0  0  0
 14 15  2  0  0  0  0
 14 35  1  0  0  0  0
 15 16  1  0  0  0  0
 16 21  2  0  0  0  0
 16 17  1  0  0  0  0
 17 18  2  0  0  0  0
 17 36  1  0  0  0  0
 18 19  1  0  0  0  0
 18 37  1  0  0  0  0
 19 20  2  0  0  0  0
 19 38  1  0  0  0  0
 20 21  1  0  0  0  0
 20 39  1  0  0  0  0
M  END
> <s_m_source_file>
AV-unprocessed.smi

> <i_m_source_file_index>
2004

> <i_lp_mmshare_version>
43012

> <i_f3d_flags>
0

> <s_epik_input>
W2NIXTFbY0hdW2NIXVtjSF1jKGMxMiluKFtjSF1uMilbQ0gyXVtDQEhdKFtPSF0pW0NIMl1PW0NIMl1jM1tjSF1bY0hdW2NIXVtjSF1bY0hdMw==

> <s_epik_cmdline>
J2VwaWtfcHl0aG9uJywgJy1waCcsICc3LjAnLCAnLXRuJywgJzgnLCAnLW1hJywgJzIwMCcsICctbWV0YWxfYmluZGluZycsICctaW1hZScsICc8aW5maWxlLm1hZT4nLCAnLW9tYWUnLCAnPG91dGZpbGUubWFlPic=

> <r_epik_Ionization_Penalty>
0.0713119

> <r_epik_Ionization_Penalty_Charging>
0

> <r_epik_Ionization_Penalty_Neutral>
0.0713119

> <r_epik_State_Penalty>
0.06259

> <r_epik_Charging_Adjusted_Penalty>
0.06259

> <i_epik_Tot_Q>
0

> <i_epik_Tot_abs_Q>
0

> <r_epik_Metal_State_Penalty>
6.60119e-05

> <b_epik_Metal_Only>
0

> <s_lp_Force_Field>
OPLS_2005

> <r_lp_Energy>
16.1981

> <b_lp_Chiralities_Consistent>
1

> <s_lp_Variant>
AV-unprocessed.smi:2004-1

> <Gold.Version>
5.8.1

> <Gold.Id.Protein>
6NUR|6NUR_protein|mol2

> <Gold.PLP.Fitness>
54.0314

> <Gold.PLP.PLP>
-48.4832

> <Gold.PLP.part.hbond>
-3.1378

> <Gold.PLP.part.metal>
0.0000

> <Gold.PLP.part.buried>
-7.0078

> <Gold.PLP.part.nonpolar>
-37.3345

> <Gold.PLP.part.repulsive>
0.1617

> <Gold.PLP.ligand.clash>
0.0000

> <Gold.PLP.ligand.torsion>
1.7170

> <Gold.PLP.Chemscore.Hbond>
2.9440

> <Gold.PLP.Chemscore.CHOScore>
0.0000

> <Gold.PLP.Chemscore.Metal>
0.0000

> <Gold.Chemscore.Hbonds>
donor molecule, donor type, donor heavy atom, donor atom, acceptor molecule, acceptor atom, score
      L1  H     1    22       P1  7957  1.00
      P1  H  7989  7998       L1     1  0.85
      P1  H  7997  8008       L1    15  0.98

> <Gold.PLP.Chemscore.Internal.Correction>
0.1502

> <Gold.Rescore>
     Score         DG    S(hbond)    S(metal)    S(lipo)     H(rot)  DE(clash)    DE(int)     intcor
     17.83     -22.15       2.32        0.00     127.27       2.33       1.84       2.47       ----

> <Gold.Chemscore.Fitness>
17.8340

> <Gold.Chemscore.DG>
-22.1468

> <Gold.Chemscore.ZeroCoef>
-5.4800

> <Gold.Chemscore.Hbond>
2.3166

> <Gold.Chemscore.Metal>
0.0000

> <Gold.Chemscore.Lipo>
127.2722

> <Gold.Chemscore.Internal_Hbond>
0.0000

> <Gold.Chemscore.DEClash>
1.8412

> <Gold.Chemscore.DEInternal>
2.4716

> <Gold.Chemscore.Rot>
2.3288

> <Gold.Chemscore.Internal.Correction>
   9.000000E+99

> <Gold.Chemscore.Hbonds>
donor molecule, donor type, donor heavy atom, donor atom, acceptor molecule, acceptor atom, score
      L1  H     1    22       P1  7957  0.96
      P1  H  7989  7998       L1     1  0.33
      P1  H  7997  8008       L1    15  0.71

> <Gold.Chemscore.Hbond.Weighted>
-7.7376

> <Gold.Chemscore.Metal.Weighted>
-0.0000

> <Gold.Chemscore.Lipo.Weighted>
-14.8908

> <Gold.Chemscore.Internal_Hbond.Weighted>
0.0000

> <Gold.Chemscore.DEClash.Weighted>
1.8412

> <Gold.Chemscore.DEInternal.Weighted>
2.4716

> <Gold.Chemscore.Rot.Weighted>
5.9616

> <Gold.Chemscore.Internal.Correction.Weighted>
   9.000000E+99

> <Gold.Protein.RotatedTorsions>
[ 6907 6896 6895 6894 ] final  171.42 input  -60.11 | X-H torsion
[ 7974 7965 7964 7962 ] final  100.32 input  175.53 | X-H torsion
[ 8008 7997 7996 7995 ] final  -74.02 input   59.86 | X-H torsion
[ 10167 10162 10161 10158 ] final   53.16 input  -65.29 | X-H torsion
[ 10718 10713 10712 10709 ] final  141.46 input   66.30 | X-H torsion
[ 10763 10752 10751 10750 ] final  -73.14 input  -60.55 | X-H torsion
[ 11005 11000 10999 10996 ] final   67.79 input  -57.11 | X-H torsion

> <Gold.Protein.ActiveResidues>
 VAL166  LYS551  ARG553  GLY616  TRP617  ASP618  TYR619  PRO620  LYS621  CYS622 
 ASP623  PHE694  ASN695  SER759  ASP760  ASP761  ALA762  ILE779  LEU786  VAL792 
 PHE793  MET794  SER795  GLU796  ALA797  LYS798  CYS799  TRP800  GLU811  SER814 

> <Gold.Protein.RotatedAtoms>
  151.8005  133.3369  159.3525 H   0  0  0  0  0  0  0  0  0  0  0  0  # atno 6907 bound_to 6896
  150.7360  134.5758  159.5923 H   0  0  0  0  0  0  0  0  0  0  0  0  # atno 6908 bound_to 6896
  152.3146  134.7456  160.0379 H   0  0  0  0  0  0  0  0  0  0  0  0  # atno 6909 bound_to 6896
  145.3872  139.2369  143.3372 H   0  0  0  0  0  0  0  0  0  0  0  0  # atno 7974 bound_to 7965
  154.5295  140.0769  156.8319 H   0  0  0  0  0  0  0  0  0  0  0  0  # atno 8008 bound_to 7997
  155.3404  140.3407  155.4221 H   0  0  0  0  0  0  0  0  0  0  0  0  # atno 8009 bound_to 7997
  156.1767  140.1638  156.8337 H   0  0  0  0  0  0  0  0  0  0  0  0  # atno 8010 bound_to 7997
  140.2437  144.3555  150.6371 H   0  0  0  0  0  0  0  0  0  0  0  0  # atno 10167 bound_to 10162
  157.3917  131.1005  151.0639 H   0  0  0  0  0  0  0  0  0  0  0  0  # atno 10718 bound_to 10713
  154.4554  135.5907  153.6219 H   0  0  0  0  0  0  0  0  0  0  0  0  # atno 10763 bound_to 10752
  152.9817  135.6031  154.3553 H   0  0  0  0  0  0  0  0  0  0  0  0  # atno 10764 bound_to 10752
  154.3419  135.2841  155.2397 H   0  0  0  0  0  0  0  0  0  0  0  0  # atno 10765 bound_to 10752
  139.9750  134.6837  156.0372 H   0  0  0  0  0  0  0  0  0  0  0  0  # atno 11005 bound_to 11000
  146.2815  140.4548  142.8774 LP  0  0  0  0  0  0  0  0  0  0  0  0  # atno 17320 bound_to 7965
  144.8466  140.6938  143.6195 LP  0  0  0  0  0  0  0  0  0  0  0  0  # atno 17321 bound_to 7965
  140.6094  143.2169  151.6917 LP  0  0  0  0  0  0  0  0  0  0  0  0  # atno 17342 bound_to 10162
  139.5069  144.3666  152.0511 LP  0  0  0  0  0  0  0  0  0  0  0  0  # atno 17343 bound_to 10162
  157.1671  130.6251  149.5628 LP  0  0  0  0  0  0  0  0  0  0  0  0  # atno 17370 bound_to 10713
  155.9800  130.4798  150.6748 LP  0  0  0  0  0  0  0  0  0  0  0  0  # atno 17371 bound_to 10713
  141.1427  133.6561  156.3778 LP  0  0  0  0  0  0  0  0  0  0  0  0  # atno 17394 bound_to 11000
  140.5214  134.6301  157.5319 LP  0  0  0  0  0  0  0  0  0  0  0  0  # atno 17395 bound_to 11000

$$$$
