AV-unprocessed.smi:1830|AV-procd|sdf|7448|dock5
  -GOLD-   22720 9133D 1   1.00000     0.00000
 Structure written by MMmdl.
 54 57  0  0  0  0  0  0  0  0  3 V2000
  150.2507  137.8145  159.2658 O   0  0  0  0  0  0  0  0  0  0  0  0
  149.8170  137.8761  158.1161 C   0  0  0  0  0  0  0  0  0  0  0  0
  149.2701  136.8330  157.4797 N   0  0  0  0  0  0  0  0  0  0  0  0
  149.1255  135.5027  158.0598 C   0  0  0  0  0  0  0  0  0  0  0  0
  147.9091  135.4113  158.9970 C   0  0  2  0  0  0  0  0  0  0  0  0
  147.9793  136.3749  160.1962 C   0  0  0  0  0  0  0  0  0  0  0  0
  146.7877  136.2360  161.0711 N   0  3  2  0  0  0  0  0  0  0  0  0
  146.9639  136.9195  162.3713 C   0  0  0  0  0  0  0  0  0  0  0  0
  147.4191  135.8444  163.3756 C   0  0  0  0  0  0  0  0  0  0  0  0
  147.3580  134.5135  162.6166 C   0  0  0  0  0  0  0  0  0  0  0  0
  146.4771  134.8291  161.4076 C   0  0  2  0  0  0  0  0  0  0  0  0
  146.6059  133.8688  160.2073 C   0  0  0  0  0  0  0  0  0  0  0  0
  147.8189  134.0843  159.4995 O   0  0  0  0  0  0  0  0  0  0  0  0
  149.8104  138.9760  157.3447 N   0  0  0  0  0  0  0  0  0  0  0  0
  150.2667  140.2871  157.6659 C   0  0  0  0  0  0  0  0  0  0  0  0
  151.2783  140.5368  158.6292 C   0  0  0  0  0  0  0  0  0  0  0  0
  151.6889  141.8604  158.8849 C   0  0  0  0  0  0  0  0  0  0  0  0
  151.0915  142.9136  158.1687 C   0  0  0  0  0  0  0  0  0  0  0  0
  150.1446  142.6422  157.2464 N   0  3  0  0  0  0  0  0  0  0  0  0
  149.7139  141.3882  156.9633 C   0  0  0  0  0  0  0  0  0  0  0  0
  148.7280  141.2144  155.9765 N   0  0  0  0  0  0  0  0  0  0  0  0
  147.4708  141.9043  156.2131 C   0  0  0  0  0  0  0  0  0  0  0  0
  146.7380  141.8826  154.8697 C   0  0  0  0  0  0  0  0  0  0  0  0
  147.8416  141.6890  153.8223 C   0  0  0  0  0  0  0  0  0  0  0  0
  149.1378  141.5740  154.6292 C   0  0  0  0  0  0  0  0  0  0  0  0
  148.9228  136.9658  156.5411 H   0  0  0  0  0  0  0  0  0  0  0  0
  149.0236  134.7693  157.2583 H   0  0  0  0  0  0  0  0  0  0  0  0
  150.0346  135.2494  158.6073 H   0  0  0  0  0  0  0  0  0  0  0  0
  147.0185  135.6323  158.4056 H   0  0  0  0  0  0  0  0  0  0  0  0
  148.8798  136.1765  160.7796 H   0  0  0  0  0  0  0  0  0  0  0  0
  148.0494  137.4067  159.8499 H   0  0  0  0  0  0  0  0  0  0  0  0
  147.6576  137.7598  162.3132 H   0  0  0  0  0  0  0  0  0  0  0  0
  145.9975  137.3204  162.6792 H   0  0  0  0  0  0  0  0  0  0  0  0
  148.4284  136.0368  163.7410 H   0  0  0  0  0  0  0  0  0  0  0  0
  146.7540  135.8300  164.2400 H   0  0  0  0  0  0  0  0  0  0  0  0
  148.3588  134.2265  162.2909 H   0  0  0  0  0  0  0  0  0  0  0  0
  146.9601  133.7002  163.2245 H   0  0  0  0  0  0  0  0  0  0  0  0
  145.4403  134.8046  161.7481 H   0  0  0  0  0  0  0  0  0  0  0  0
  146.5669  132.8332  160.5458 H   0  0  0  0  0  0  0  0  0  0  0  0
  145.7641  134.0031  159.5260 H   0  0  0  0  0  0  0  0  0  0  0  0
  149.3459  138.8873  156.4527 H   0  0  0  0  0  0  0  0  0  0  0  0
  151.7601  139.7373  159.1700 H   0  0  0  0  0  0  0  0  0  0  0  0
  152.4560  142.0631  159.6180 H   0  0  0  0  0  0  0  0  0  0  0  0
  151.3453  143.9557  158.2987 H   0  0  0  0  0  0  0  0  0  0  0  0
  146.8919  141.4098  156.9939 H   0  0  0  0  0  0  0  0  0  0  0  0
  147.6483  142.9342  156.5259 H   0  0  0  0  0  0  0  0  0  0  0  0
  146.0408  141.0445  154.8323 H   0  0  0  0  0  0  0  0  0  0  0  0
  146.1664  142.7970  154.7080 H   0  0  0  0  0  0  0  0  0  0  0  0
  147.6614  140.7741  153.2566 H   0  0  0  0  0  0  0  0  0  0  0  0
  147.8869  142.5148  153.1116 H   0  0  0  0  0  0  0  0  0  0  0  0
  149.6636  142.5299  154.6315 H   0  0  0  0  0  0  0  0  0  0  0  0
  149.8070  140.8225  154.2091 H   0  0  0  0  0  0  0  0  0  0  0  0
  146.0014  136.6377  160.5799 H   0  0  0  0  0  0  0  0  0  0  0  0
  149.7327  143.4228  156.7350 H   0  0  0  0  0  0  0  0  0  0  0  0
  1  2  2  0  0  0  0
  2  3  1  0  0  0  0
  2 14  1  0  0  0  0
  3  4  1  0  0  0  0
  3 26  1  0  0  0  0
  4  5  1  0  0  0  0
  4 27  1  0  0  0  0
  4 28  1  0  0  0  0
  5 13  1  0  0  0  0
  5  6  1  0  0  0  0
  5 29  1  0  0  0  0
  6  7  1  0  0  0  0
  6 30  1  0  0  0  0
  6 31  1  0  0  0  0
  7 11  1  0  0  0  0
  7  8  1  0  0  0  0
  7 53  1  0  0  0  0
  8  9  1  0  0  0  0
  8 32  1  0  0  0  0
  8 33  1  0  0  0  0
  9 10  1  0  0  0  0
  9 34  1  0  0  0  0
  9 35  1  0  0  0  0
 10 11  1  0  0  0  0
 10 36  1  0  0  0  0
 10 37  1  0  0  0  0
 11 12  1  0  0  0  0
 11 38  1  0  0  0  0
 12 13  1  0  0  0  0
 12 39  1  0  0  0  0
 12 40  1  0  0  0  0
 14 15  1  0  0  0  0
 14 41  1  0  0  0  0
 15 20  1  0  0  0  0
 15 16  2  0  0  0  0
 16 17  1  0  0  0  0
 16 42  1  0  0  0  0
 17 18  2  0  0  0  0
 17 43  1  0  0  0  0
 18 19  1  0  0  0  0
 18 44  1  0  0  0  0
 19 20  2  0  0  0  0
 19 54  1  0  0  0  0
 20 21  1  0  0  0  0
 21 25  1  0  0  0  0
 21 22  1  0  0  0  0
 22 23  1  0  0  0  0
 22 45  1  0  0  0  0
 22 46  1  0  0  0  0
 23 24  1  0  0  0  0
 23 47  1  0  0  0  0
 23 48  1  0  0  0  0
 24 25  1  0  0  0  0
 24 49  1  0  0  0  0
 24 50  1  0  0  0  0
 25 51  1  0  0  0  0
 25 52  1  0  0  0  0
M  CHG  1   7   1
M  CHG  1  19   1
M  END
> <s_m_source_file>
AV-unprocessed.smi

> <i_m_source_file_index>
1830

> <i_lp_mmshare_version>
43012

> <i_f3d_flags>
0

> <s_epik_input>
W0NIMl0xW0NIMl1bQ0gyXVtDQEhdKE4xMilbQ0gyXU9bQ0BASF0oW0NIMl0yKVtDSDJdW05IXUMoPU8pW05IXWMzW2NIXVtjSF1bY0hdbmMzTjRbQ0gyXVtDSDJdW0NIMl1bQ0gyXTQ=

> <s_epik_cmdline>
J2VwaWtfcHl0aG9uJywgJy1waCcsICc3LjAnLCAnLXRuJywgJzgnLCAnLW1hJywgJzIwMCcsICctbWV0YWxfYmluZGluZycsICctaW1hZScsICc8aW5maWxlLm1hZT4nLCAnLW9tYWUnLCAnPG91dGZpbGUubWFlPic=

> <r_lp_tautomer_probability>
0.999994

> <r_epik_Ionization_Penalty>
1.29113

> <r_epik_Ionization_Penalty_Charging>
1.29111

> <r_epik_Ionization_Penalty_Neutral>
1.88144e-05

> <r_epik_State_Penalty>
1.32676

> <r_epik_Charging_Adjusted_Penalty>
2.61787

> <i_epik_Tot_Q>
2

> <i_epik_Tot_abs_Q>
2

> <r_epik_Metal_State_Penalty>
1.40425

> <b_epik_Metal_Only>
0

> <s_lp_Force_Field>
OPLS_2005

> <r_lp_Energy>
77.5794

> <b_lp_Chiralities_Consistent>
1

> <s_lp_Variant>
AV-unprocessed.smi:1830-17

> <Gold.Version>
5.8.1

> <Gold.Id.Protein>
6NUR|6NUR_protein|mol2

> <Gold.PLP.Fitness>
43.7691

> <Gold.PLP.PLP>
-38.3646

> <Gold.PLP.part.hbond>
-1.6285

> <Gold.PLP.part.metal>
0.0000

> <Gold.PLP.part.buried>
-5.4172

> <Gold.PLP.part.nonpolar>
-31.9880

> <Gold.PLP.part.repulsive>
0.2851

> <Gold.PLP.ligand.clash>
0.0000

> <Gold.PLP.ligand.torsion>
0.3138

> <Gold.PLP.Chemscore.Hbond>
2.0000

> <Gold.PLP.Chemscore.CHOScore>
0.0000

> <Gold.PLP.Chemscore.Metal>
0.0000

> <Gold.Chemscore.Hbonds>
donor molecule, donor type, donor heavy atom, donor atom, acceptor molecule, acceptor atom, score
      L1  H    19    54       P1  8028  2.00

> <Gold.PLP.Chemscore.Internal.Correction>
0.0322

> <Gold.Rescore>
     Score         DG    S(hbond)    S(metal)    S(lipo)     H(rot)  DE(clash)    DE(int)     intcor
     14.72     -17.49       1.00        0.00     105.36       1.43       0.03       2.73       ----

> <Gold.Chemscore.Fitness>
14.7244

> <Gold.Chemscore.DG>
-17.4925

> <Gold.Chemscore.ZeroCoef>
-5.4800

> <Gold.Chemscore.Hbond>
1.0000

> <Gold.Chemscore.Metal>
0.0000

> <Gold.Chemscore.Lipo>
105.3640

> <Gold.Chemscore.Internal_Hbond>
0.0000

> <Gold.Chemscore.DEClash>
0.0348

> <Gold.Chemscore.DEInternal>
2.7334

> <Gold.Chemscore.Rot>
1.4278

> <Gold.Chemscore.Internal.Correction>
   9.000000E+99

> <Gold.Chemscore.Hbonds>
donor molecule, donor type, donor heavy atom, donor atom, acceptor molecule, acceptor atom, score
      L1  H    19    54       P1  8028  1.00

> <Gold.Chemscore.Hbond.Weighted>
-3.3400

> <Gold.Chemscore.Metal.Weighted>
-0.0000

> <Gold.Chemscore.Lipo.Weighted>
-12.3276

> <Gold.Chemscore.Internal_Hbond.Weighted>
0.0000

> <Gold.Chemscore.DEClash.Weighted>
0.0348

> <Gold.Chemscore.DEInternal.Weighted>
2.7334

> <Gold.Chemscore.Rot.Weighted>
3.6551

> <Gold.Chemscore.Internal.Correction.Weighted>
   9.000000E+99

> <Gold.Protein.RotatedTorsions>
[ 6907 6896 6895 6894 ] final  -29.10 input  -60.11 | X-H torsion
[ 7974 7965 7964 7962 ] final  170.30 input  175.53 | X-H torsion
[ 8008 7997 7996 7995 ] final  -58.97 input   59.86 | X-H torsion
[ 10167 10162 10161 10158 ] final  125.98 input  -65.29 | X-H torsion
[ 10718 10713 10712 10709 ] final  -13.09 input   66.30 | X-H torsion
[ 10763 10752 10751 10750 ] final -127.56 input  -60.55 | X-H torsion
[ 11005 11000 10999 10996 ] final  -52.96 input  -57.11 | X-H torsion

> <Gold.Protein.ActiveResidues>
 VAL166  LYS551  ARG553  GLY616  TRP617  ASP618  TYR619  PRO620  LYS621  CYS622 
 ASP623  PHE694  ASN695  SER759  ASP760  ASP761  ALA762  ILE779  LEU786  VAL792 
 PHE793  MET794  SER795  GLU796  ALA797  LYS798  CYS799  TRP800  GLU811  SER814 

> <Gold.Protein.RotatedAtoms>
  151.1238  135.0093  159.8550 H   0  0  0  0  0  0  0  0  0  0  0  0  # atno 6907 bound_to 6896
  152.5449  134.1691  159.8599 H   0  0  0  0  0  0  0  0  0  0  0  0  # atno 6908 bound_to 6896
  151.1752  133.4714  159.2627 H   0  0  0  0  0  0  0  0  0  0  0  0  # atno 6909 bound_to 6896
  144.7328  139.9181  143.6418 H   0  0  0  0  0  0  0  0  0  0  0  0  # atno 7974 bound_to 7965
  154.4332  140.1072  156.6042 H   0  0  0  0  0  0  0  0  0  0  0  0  # atno 8008 bound_to 7997
  155.5878  140.3491  155.4539 H   0  0  0  0  0  0  0  0  0  0  0  0  # atno 8009 bound_to 7997
  156.0269  140.1252  157.0288 H   0  0  0  0  0  0  0  0  0  0  0  0  # atno 8010 bound_to 7997
  139.5656  144.6909  151.3920 H   0  0  0  0  0  0  0  0  0  0  0  0  # atno 10167 bound_to 10162
  156.6352  130.4912  149.6114 H   0  0  0  0  0  0  0  0  0  0  0  0  # atno 10718 bound_to 10713
  154.8753  135.3958  154.3613 H   0  0  0  0  0  0  0  0  0  0  0  0  # atno 10763 bound_to 10752
  153.4385  135.7026  153.6189 H   0  0  0  0  0  0  0  0  0  0  0  0  # atno 10764 bound_to 10752
  153.4780  135.3775  155.2396 H   0  0  0  0  0  0  0  0  0  0  0  0  # atno 10765 bound_to 10752
  141.0951  133.6626  156.4101 H   0  0  0  0  0  0  0  0  0  0  0  0  # atno 11005 bound_to 11000
  146.0950  139.3942  143.0382 LP  0  0  0  0  0  0  0  0  0  0  0  0  # atno 17320 bound_to 7965
  145.7658  140.9917  143.1176 LP  0  0  0  0  0  0  0  0  0  0  0  0  # atno 17321 bound_to 7965
  140.6939  143.7796  150.7297 LP  0  0  0  0  0  0  0  0  0  0  0  0  # atno 17342 bound_to 10162
  140.1286  143.4546  152.2268 LP  0  0  0  0  0  0  0  0  0  0  0  0  # atno 17343 bound_to 10162
  156.2203  130.6733  151.1361 LP  0  0  0  0  0  0  0  0  0  0  0  0  # atno 17370 bound_to 10713
  157.7188  131.0694  150.6221 LP  0  0  0  0  0  0  0  0  0  0  0  0  # atno 17371 bound_to 10713
  140.5159  134.6351  157.5301 LP  0  0  0  0  0  0  0  0  0  0  0  0  # atno 17394 bound_to 11000
  139.9786  134.7174  155.9902 LP  0  0  0  0  0  0  0  0  0  0  0  0  # atno 17395 bound_to 11000

$$$$
