AV-unprocessed.smi:1417|AV-procd|sdf|5766|dock8
  -GOLD-   22720 5403D 1   1.00000     0.00000
 Structure written by MMmdl.
 40 41  0  0  0  0  0  0  0  0  2 V2000
  153.3943  142.4356  160.1954 C   0  0  0  0  0  0  0  0  0  0  0  0
  152.3278  141.9075  159.2985 C   0  0  0  0  0  0  0  0  0  0  0  0
  152.3368  140.9968  158.2800 C   0  0  0  0  0  0  0  0  0  0  0  0
  150.9736  140.9698  157.8639 C   0  0  0  0  0  0  0  0  0  0  0  0
  150.4285  140.1789  156.8197 N   0  0  0  0  0  0  0  0  0  0  0  0
  149.1361  139.9809  156.5103 C   0  0  0  0  0  0  0  0  0  0  0  0
  148.1767  140.4824  157.0961 O   0  0  0  0  0  0  0  0  0  0  0  0
  149.0087  139.1513  155.4644 N   0  0  0  0  0  0  0  0  0  0  0  0
  147.7401  138.7269  154.8799 C   0  0  2  0  0  0  0  0  0  0  0  0
  147.5635  137.2017  155.0011 C   0  0  0  0  0  0  0  0  0  0  0  0
  146.2835  136.7332  154.2915 C   0  0  0  0  0  0  0  0  0  0  0  0
  146.2857  137.1451  152.8627 N   0  3  1  0  0  0  0  0  0  0  0  0
  145.1445  136.5871  152.0929 C   0  0  0  0  0  0  0  0  0  0  0  0
  145.5925  135.7027  150.9245 C   0  0  0  0  0  0  0  0  0  0  0  0
  145.2990  136.1321  149.6953 N   0  0  0  0  0  0  0  0  0  0  0  0
  146.2067  134.6562  151.1238 O   0  0  0  0  0  0  0  0  0  0  0  0
  146.4043  138.6185  152.7220 C   0  0  0  0  0  0  0  0  0  0  0  0
  147.6844  139.1373  153.3992 C   0  0  0  0  0  0  0  0  0  0  0  0
  150.2114  141.7887  158.5649 N   0  0  0  0  0  0  0  0  0  0  0  0
  151.0719  142.3942  159.4881 O   0  0  0  0  0  0  0  0  0  0  0  0
  154.3838  142.1739  159.8197 H   0  0  0  0  0  0  0  0  0  0  0  0
  153.2937  142.0222  161.1990 H   0  0  0  0  0  0  0  0  0  0  0  0
  153.3374  143.5217  160.2687 H   0  0  0  0  0  0  0  0  0  0  0  0
  153.1895  140.4496  157.9079 H   0  0  0  0  0  0  0  0  0  0  0  0
  151.1069  139.7035  156.2428 H   0  0  0  0  0  0  0  0  0  0  0  0
  149.8508  138.7871  155.0424 H   0  0  0  0  0  0  0  0  0  0  0  0
  146.9212  139.2240  155.4042 H   0  0  0  0  0  0  0  0  0  0  0  0
  148.4249  136.6913  154.5670 H   0  0  0  0  0  0  0  0  0  0  0  0
  147.5272  136.9066  156.0504 H   0  0  0  0  0  0  0  0  0  0  0  0
  146.2082  135.6483  154.3713 H   0  0  0  0  0  0  0  0  0  0  0  0
  145.4057  137.1473  154.7904 H   0  0  0  0  0  0  0  0  0  0  0  0
  144.4757  136.0382  152.7582 H   0  0  0  0  0  0  0  0  0  0  0  0
  144.5595  137.4001  151.6609 H   0  0  0  0  0  0  0  0  0  0  0  0
  145.5675  135.5884  148.8876 H   0  0  0  0  0  0  0  0  0  0  0  0
  144.8034  137.0043  149.5763 H   0  0  0  0  0  0  0  0  0  0  0  0
  146.4266  138.8877  151.6654 H   0  0  0  0  0  0  0  0  0  0  0  0
  145.5256  139.0997  153.1544 H   0  0  0  0  0  0  0  0  0  0  0  0
  147.7331  140.2233  153.3099 H   0  0  0  0  0  0  0  0  0  0  0  0
  148.5553  138.7445  152.8718 H   0  0  0  0  0  0  0  0  0  0  0  0
  147.1182  136.7527  152.4458 H   0  0  0  0  0  0  0  0  0  0  0  0
  1  2  1  0  0  0  0
  1 21  1  0  0  0  0
  1 22  1  0  0  0  0
  1 23  1  0  0  0  0
  2 20  1  0  0  0  0
  2  3  2  0  0  0  0
  3  4  1  0  0  0  0
  3 24  1  0  0  0  0
  4  5  1  0  0  0  0
  4 19  2  0  0  0  0
  5  6  1  0  0  0  0
  5 25  1  0  0  0  0
  6  7  2  0  0  0  0
  6  8  1  0  0  0  0
  8  9  1  0  0  0  0
  8 26  1  0  0  0  0
  9 18  1  0  0  0  0
  9 10  1  0  0  0  0
  9 27  1  0  0  0  0
 10 11  1  0  0  0  0
 10 28  1  0  0  0  0
 10 29  1  0  0  0  0
 11 12  1  0  0  0  0
 11 30  1  0  0  0  0
 11 31  1  0  0  0  0
 12 13  1  0  0  0  0
 12 17  1  0  0  0  0
 12 40  1  0  0  0  0
 13 14  1  0  0  0  0
 13 32  1  0  0  0  0
 13 33  1  0  0  0  0
 14 15  1  0  0  0  0
 14 16  2  0  0  0  0
 15 34  1  0  0  0  0
 15 35  1  0  0  0  0
 17 18  1  0  0  0  0
 17 36  1  0  0  0  0
 17 37  1  0  0  0  0
 18 38  1  0  0  0  0
 18 39  1  0  0  0  0
 19 20  1  0  0  0  0
M  CHG  1  12   1
M  END
> <s_m_source_file>
AV-unprocessed.smi

> <i_m_source_file_index>
1417

> <i_lp_mmshare_version>
43012

> <i_f3d_flags>
0

> <s_epik_input>
W0NIM11jMVtjSF1jKG5vMSlbTkhdQyg9TylbTkhdW0NIXTJbQ0gyXVtDSDJdTihbQ0gyXVtDSDJdMilbQ0gyXUMoPU8pW05IMl0=

> <s_epik_cmdline>
J2VwaWtfcHl0aG9uJywgJy1waCcsICc3LjAnLCAnLXRuJywgJzgnLCAnLW1hJywgJzIwMCcsICctbWV0YWxfYmluZGluZycsICctaW1hZScsICc8aW5maWxlLm1hZT4nLCAnLW9tYWUnLCAnPG91dGZpbGUubWFlPic=

> <r_epik_Ionization_Penalty>
0.867698

> <r_epik_Ionization_Penalty_Charging>
0.867623

> <r_epik_Ionization_Penalty_Neutral>
7.46743e-05

> <r_epik_State_Penalty>
0.904669

> <r_epik_Charging_Adjusted_Penalty>
1.77229

> <i_epik_Tot_Q>
1

> <i_epik_Tot_abs_Q>
1

> <r_epik_Metal_State_Penalty>
0.930696

> <b_epik_Metal_Only>
0

> <s_lp_Force_Field>
OPLS_2005

> <r_lp_Energy>
11.2149

> <b_lp_Chiralities_Consistent>
1

> <s_lp_Variant>
AV-unprocessed.smi:1417-2

> <Gold.Version>
5.8.1

> <Gold.Id.Protein>
6NUR|6NUR_protein|mol2

> <Gold.PLP.Fitness>
36.6304

> <Gold.PLP.PLP>
-26.1653

> <Gold.PLP.part.hbond>
-4.0071

> <Gold.PLP.part.metal>
0.0000

> <Gold.PLP.part.buried>
-3.8868

> <Gold.PLP.part.nonpolar>
-18.5799

> <Gold.PLP.part.repulsive>
0.4583

> <Gold.PLP.ligand.clash>
0.0000

> <Gold.PLP.ligand.torsion>
0.7811

> <Gold.PLP.Chemscore.Hbond>
4.0000

> <Gold.PLP.Chemscore.CHOScore>
0.0000

> <Gold.PLP.Chemscore.Metal>
0.0000

> <Gold.Chemscore.Hbonds>
donor molecule, donor type, donor heavy atom, donor atom, acceptor molecule, acceptor atom, score
      L1  H    12    40       P1  7948  2.00
      L1  H    15    34       P1  7921  1.00
      L1  H    15    35       P1 10171  1.00

> <Gold.PLP.Chemscore.Internal.Correction>
0.0273

> <Gold.Rescore>
     Score         DG    S(hbond)    S(metal)    S(lipo)     H(rot)  DE(clash)    DE(int)     intcor
     14.22     -16.49       2.98        0.00      53.65       2.05       0.12       2.15       ----

> <Gold.Chemscore.Fitness>
14.2206

> <Gold.Chemscore.DG>
-16.4884

> <Gold.Chemscore.ZeroCoef>
-5.4800

> <Gold.Chemscore.Hbond>
2.9847

> <Gold.Chemscore.Metal>
0.0000

> <Gold.Chemscore.Lipo>
53.6472

> <Gold.Chemscore.Internal_Hbond>
0.0000

> <Gold.Chemscore.DEClash>
0.1160

> <Gold.Chemscore.DEInternal>
2.1518

> <Gold.Chemscore.Rot>
2.0457

> <Gold.Chemscore.Internal.Correction>
   9.000000E+99

> <Gold.Chemscore.Hbonds>
donor molecule, donor type, donor heavy atom, donor atom, acceptor molecule, acceptor atom, score
      L1  H    12    40       P1  7948  0.97
      L1  H    15    34       P1  7921  0.97
      L1  H    15    35       P1 10171  1.00

> <Gold.Chemscore.Hbond.Weighted>
-9.9688

> <Gold.Chemscore.Metal.Weighted>
-0.0000

> <Gold.Chemscore.Lipo.Weighted>
-6.2767

> <Gold.Chemscore.Internal_Hbond.Weighted>
0.0000

> <Gold.Chemscore.DEClash.Weighted>
0.1160

> <Gold.Chemscore.DEInternal.Weighted>
2.1518

> <Gold.Chemscore.Rot.Weighted>
5.2371

> <Gold.Chemscore.Internal.Correction.Weighted>
   9.000000E+99

> <Gold.Protein.RotatedTorsions>
[ 6907 6896 6895 6894 ] final   31.06 input  -60.11 | X-H torsion
[ 7974 7965 7964 7962 ] final -149.52 input  175.53 | X-H torsion
[ 8008 7997 7996 7995 ] final  106.92 input   59.86 | X-H torsion
[ 10167 10162 10161 10158 ] final  -69.28 input  -65.29 | X-H torsion
[ 10718 10713 10712 10709 ] final   79.62 input   66.30 | X-H torsion
[ 10763 10752 10751 10750 ] final   10.36 input  -60.55 | X-H torsion
[ 11005 11000 10999 10996 ] final  102.11 input  -57.11 | X-H torsion

> <Gold.Protein.ActiveResidues>
 VAL166  LYS551  ARG553  GLY616  TRP617  ASP618  TYR619  PRO620  LYS621  CYS622 
 ASP623  PHE694  ASN695  SER759  ASP760  ASP761  ALA762  ILE779  LEU786  VAL792 
 PHE793  MET794  SER795  GLU796  ALA797  LYS798  CYS799  TRP800  GLU811  SER814 

> <Gold.Protein.RotatedAtoms>
  152.0548  134.9631  160.0574 H   0  0  0  0  0  0  0  0  0  0  0  0  # atno 6907 bound_to 6896
  152.1017  133.4248  159.4598 H   0  0  0  0  0  0  0  0  0  0  0  0  # atno 6908 bound_to 6896
  150.6839  134.2671  159.4616 H   0  0  0  0  0  0  0  0  0  0  0  0  # atno 6909 bound_to 6896
  144.7963  140.5054  143.5738 H   0  0  0  0  0  0  0  0  0  0  0  0  # atno 7974 bound_to 7965
  156.1782  140.3104  155.9099 H   0  0  0  0  0  0  0  0  0  0  0  0  # atno 8008 bound_to 7997
  155.3441  140.0467  157.3062 H   0  0  0  0  0  0  0  0  0  0  0  0  # atno 8009 bound_to 7997
  154.5314  140.2231  155.8809 H   0  0  0  0  0  0  0  0  0  0  0  0  # atno 8010 bound_to 7997
  140.5442  143.2313  151.7032 H   0  0  0  0  0  0  0  0  0  0  0  0  # atno 10167 bound_to 10162
  157.6782  130.9922  150.1958 H   0  0  0  0  0  0  0  0  0  0  0  0  # atno 10718 bound_to 10713
  153.2040  135.6860  153.8196 H   0  0  0  0  0  0  0  0  0  0  0  0  # atno 10763 bound_to 10752
  153.7452  135.3232  155.3312 H   0  0  0  0  0  0  0  0  0  0  0  0  # atno 10764 bound_to 10752
  154.8187  135.4668  154.0819 H   0  0  0  0  0  0  0  0  0  0  0  0  # atno 10765 bound_to 10752
  139.8776  134.9211  156.5009 H   0  0  0  0  0  0  0  0  0  0  0  0  # atno 11005 bound_to 11000
  145.5666  139.1481  143.3312 LP  0  0  0  0  0  0  0  0  0  0  0  0  # atno 17320 bound_to 7965
  146.2232  140.5800  142.9008 LP  0  0  0  0  0  0  0  0  0  0  0  0  # atno 17321 bound_to 7965
  139.5001  144.3920  152.0269 LP  0  0  0  0  0  0  0  0  0  0  0  0  # atno 17342 bound_to 10162
  140.3032  144.3623  150.6054 LP  0  0  0  0  0  0  0  0  0  0  0  0  # atno 17343 bound_to 10162
  156.2660  130.3716  149.8081 LP  0  0  0  0  0  0  0  0  0  0  0  0  # atno 17370 bound_to 10713
  156.5812  130.8466  151.3383 LP  0  0  0  0  0  0  0  0  0  0  0  0  # atno 17371 bound_to 10713
  140.8590  133.8074  155.9246 LP  0  0  0  0  0  0  0  0  0  0  0  0  # atno 17394 bound_to 11000
  140.9068  134.2310  157.5009 LP  0  0  0  0  0  0  0  0  0  0  0  0  # atno 17395 bound_to 11000

$$$$
