AV-unprocessed.smi:3128|AV-procd|sdf|11921|dock4
  -GOLD-   2272017303D 1   1.00000     0.00000
 Structure written by MMmdl.
 39 39  0  0  0  0  0  0  0  0  1 V2000
  150.5295  138.1637  154.4058 C   0  0  0  0  0  0  0  0  0  0  0  0
  150.3637  139.6942  154.4848 C   0  0  0  0  0  0  0  0  0  0  0  0
  151.1043  140.2250  155.7257 C   0  0  0  0  0  0  0  0  0  0  0  0
  148.8738  140.1275  154.4543 C   0  0  1  0  0  0  0  0  0  0  0  0
  148.6851  141.6565  154.4189 C   0  0  0  0  0  0  0  0  0  0  0  0
  148.2033  139.5396  153.2951 N   0  0  0  0  0  0  0  0  0  0  0  0
  146.9823  138.9818  153.2957 C   0  0  0  0  0  0  0  0  0  0  0  0
  146.2676  138.9115  154.2955 O   0  0  0  0  0  0  0  0  0  0  0  0
  146.4939  138.4127  151.9648 C   0  0  0  0  0  0  0  0  0  0  0  0
  146.4583  136.9476  151.9898 N   0  0  0  0  0  0  0  0  0  0  0  0
  145.8500  136.4306  150.7738 C   0  0  0  0  0  0  0  0  0  0  0  0
  144.6441  135.5514  151.1359 C   0  0  0  0  0  0  0  0  0  0  0  0
  144.8903  134.1548  150.8318 N   0  0  0  0  0  0  0  0  0  0  0  0
  144.0878  133.2744  150.1375 C   0  0  0  0  0  0  0  0  0  0  0  0
  144.7342  132.0719  150.1082 C   0  0  0  0  0  0  0  0  0  0  0  0
  145.9413  132.3199  150.8198 C   0  0  0  0  0  0  0  0  0  0  0  0
  146.0321  133.5676  151.2511 N   0  0  0  0  0  0  0  0  0  0  0  0
  150.0208  137.6686  155.2334 H   0  0  0  0  0  0  0  0  0  0  0  0
  151.5816  137.8805  154.4475 H   0  0  0  0  0  0  0  0  0  0  0  0
  150.1294  137.7562  153.4773 H   0  0  0  0  0  0  0  0  0  0  0  0
  150.8562  140.1169  153.6079 H   0  0  0  0  0  0  0  0  0  0  0  0
  150.6215  139.8961  156.6464 H   0  0  0  0  0  0  0  0  0  0  0  0
  151.1476  141.3136  155.7384 H   0  0  0  0  0  0  0  0  0  0  0  0
  152.1351  139.8705  155.7484 H   0  0  0  0  0  0  0  0  0  0  0  0
  148.3973  139.7464  155.3599 H   0  0  0  0  0  0  0  0  0  0  0  0
  149.0601  142.1313  155.3249 H   0  0  0  0  0  0  0  0  0  0  0  0
  147.6304  141.9226  154.3414 H   0  0  0  0  0  0  0  0  0  0  0  0
  149.2014  142.1009  153.5675 H   0  0  0  0  0  0  0  0  0  0  0  0
  148.7150  139.5484  152.4248 H   0  0  0  0  0  0  0  0  0  0  0  0
  145.4944  138.8042  151.7696 H   0  0  0  0  0  0  0  0  0  0  0  0
  147.1382  138.7532  151.1519 H   0  0  0  0  0  0  0  0  0  0  0  0
  147.3845  136.5581  152.0916 H   0  0  0  0  0  0  0  0  0  0  0  0
  145.5333  137.2578  150.1365 H   0  0  0  0  0  0  0  0  0  0  0  0
  146.5831  135.8470  150.2147 H   0  0  0  0  0  0  0  0  0  0  0  0
  144.4140  135.6369  152.1989 H   0  0  0  0  0  0  0  0  0  0  0  0
  143.7549  135.8747  150.5920 H   0  0  0  0  0  0  0  0  0  0  0  0
  143.1339  133.5727  149.7280 H   0  0  0  0  0  0  0  0  0  0  0  0
  144.3964  131.1550  149.6485 H   0  0  0  0  0  0  0  0  0  0  0  0
  146.7485  131.6353  151.0342 H   0  0  0  0  0  0  0  0  0  0  0  0
  1  2  1  0  0  0  0
  1 18  1  0  0  0  0
  1 19  1  0  0  0  0
  1 20  1  0  0  0  0
  2  3  1  0  0  0  0
  2  4  1  0  0  0  0
  2 21  1  0  0  0  0
  3 22  1  0  0  0  0
  3 23  1  0  0  0  0
  3 24  1  0  0  0  0
  4  5  1  0  0  0  0
  4  6  1  0  0  0  0
  4 25  1  0  0  0  0
  5 26  1  0  0  0  0
  5 27  1  0  0  0  0
  5 28  1  0  0  0  0
  6  7  1  0  0  0  0
  6 29  1  0  0  0  0
  7  8  2  0  0  0  0
  7  9  1  0  0  0  0
  9 10  1  0  0  0  0
  9 30  1  0  0  0  0
  9 31  1  0  0  0  0
 10 11  1  0  0  0  0
 10 32  1  0  0  0  0
 11 12  1  0  0  0  0
 11 33  1  0  0  0  0
 11 34  1  0  0  0  0
 12 13  1  0  0  0  0
 12 35  1  0  0  0  0
 12 36  1  0  0  0  0
 13 17  1  0  0  0  0
 13 14  1  0  0  0  0
 14 15  2  0  0  0  0
 14 37  1  0  0  0  0
 15 16  1  0  0  0  0
 15 38  1  0  0  0  0
 16 17  2  0  0  0  0
 16 39  1  0  0  0  0
M  END
> <s_m_source_file>
AV-unprocessed.smi

> <i_m_source_file_index>
3128

> <i_lp_mmshare_version>
43012

> <i_f3d_flags>
0

> <s_epik_input>
W0NIM11bQ0hdKFtDSDNdKVtDQEhdKFtDSDNdKVtOSF1DKD1PKVtDSDJdW05IXVtDSDJdW0NIMl1uMVtjSF1bY0hdW2NIXW4x

> <s_epik_cmdline>
J2VwaWtfcHl0aG9uJywgJy1waCcsICc3LjAnLCAnLXRuJywgJzgnLCAnLW1hJywgJzIwMCcsICctbWV0YWxfYmluZGluZycsICctaW1hZScsICc8aW5maWxlLm1hZT4nLCAnLW9tYWUnLCAnPG91dGZpbGUubWFlPic=

> <r_lp_tautomer_probability>
1

> <r_epik_Ionization_Penalty>
0.724947

> <r_epik_Ionization_Penalty_Charging>
0

> <r_epik_Ionization_Penalty_Neutral>
0.724947

> <r_epik_State_Penalty>
0.747959

> <r_epik_Charging_Adjusted_Penalty>
0.747959

> <i_epik_Tot_Q>
0

> <i_epik_Tot_abs_Q>
0

> <r_epik_Metal_State_Penalty>
0.746178

> <b_epik_Metal_Only>
0

> <s_lp_Force_Field>
OPLS_2005

> <r_lp_Energy>
7.09657

> <b_lp_Chiralities_Consistent>
1

> <s_lp_Variant>
AV-unprocessed.smi:3128-4

> <Gold.Version>
5.8.1

> <Gold.Id.Protein>
6NUR|6NUR_protein|mol2

> <Gold.PLP.Fitness>
47.7552

> <Gold.PLP.PLP>
-38.0352

> <Gold.PLP.part.hbond>
-2.0000

> <Gold.PLP.part.metal>
0.0000

> <Gold.PLP.part.buried>
-1.4388

> <Gold.PLP.part.nonpolar>
-35.5045

> <Gold.PLP.part.repulsive>
0.3772

> <Gold.PLP.ligand.clash>
0.0000

> <Gold.PLP.ligand.torsion>
1.2395

> <Gold.PLP.Chemscore.Hbond>
2.0000

> <Gold.PLP.Chemscore.CHOScore>
2.0000

> <Gold.PLP.Chemscore.Metal>
0.0000

> <Gold.Chemscore.Hbonds>
donor molecule, donor type, donor heavy atom, donor atom, acceptor molecule, acceptor atom, score
      L1  H     6    29       P1  7957  1.00
      L1  H    10    32       P1  7948  1.00
      L1  C    14    37       P1 10186  1.00
      L1  C    16    39       P1 10747  1.00

> <Gold.PLP.Chemscore.Internal.Correction>
0.1990

> <Gold.Rescore>
     Score         DG    S(hbond)    S(metal)    S(lipo)     H(rot)  DE(clash)    DE(int)     intcor
     16.17     -17.37       1.98        0.00      92.12       2.15       0.12       1.08       ----

> <Gold.Chemscore.Fitness>
16.1710

> <Gold.Chemscore.DG>
-17.3656

> <Gold.Chemscore.ZeroCoef>
-5.4800

> <Gold.Chemscore.Hbond>
1.9786

> <Gold.Chemscore.Metal>
0.0000

> <Gold.Chemscore.Lipo>
92.1209

> <Gold.Chemscore.Internal_Hbond>
0.0000

> <Gold.Chemscore.DEClash>
0.1158

> <Gold.Chemscore.DEInternal>
1.0789

> <Gold.Chemscore.Rot>
2.1488

> <Gold.Chemscore.Internal.Correction>
   9.000000E+99

> <Gold.Chemscore.Hbonds>
donor molecule, donor type, donor heavy atom, donor atom, acceptor molecule, acceptor atom, score
      L1  H     6    29       P1  7957  0.99
      L1  H    10    32       P1  7948  0.98

> <Gold.Chemscore.Hbond.Weighted>
-6.6085

> <Gold.Chemscore.Metal.Weighted>
-0.0000

> <Gold.Chemscore.Lipo.Weighted>
-10.7781

> <Gold.Chemscore.Internal_Hbond.Weighted>
0.0000

> <Gold.Chemscore.DEClash.Weighted>
0.1158

> <Gold.Chemscore.DEInternal.Weighted>
1.0789

> <Gold.Chemscore.Rot.Weighted>
5.5010

> <Gold.Chemscore.Internal.Correction.Weighted>
   9.000000E+99

> <Gold.Protein.RotatedTorsions>
[ 6907 6896 6895 6894 ] final  -94.55 input  -60.11 | X-H torsion
[ 7974 7965 7964 7962 ] final  -23.65 input  175.53 | X-H torsion
[ 8008 7997 7996 7995 ] final  -31.36 input   59.86 | X-H torsion
[ 10167 10162 10161 10158 ] final   12.35 input  -65.29 | X-H torsion
[ 10718 10713 10712 10709 ] final  -60.69 input   66.30 | X-H torsion
[ 10763 10752 10751 10750 ] final  173.49 input  -60.55 | X-H torsion
[ 11005 11000 10999 10996 ] final  -47.39 input  -57.11 | X-H torsion

> <Gold.Protein.ActiveResidues>
 VAL166  LYS551  ARG553  GLY616  TRP617  ASP618  TYR619  PRO620  LYS621  CYS622 
 ASP623  PHE694  ASN695  SER759  ASP760  ASP761  ALA762  ILE779  LEU786  VAL792 
 PHE793  MET794  SER795  GLU796  ALA797  LYS798  CYS799  TRP800  GLU811  SER814 

> <Gold.Protein.RotatedAtoms>
  150.6944  134.1794  159.4242 H   0  0  0  0  0  0  0  0  0  0  0  0  # atno 6907 bound_to 6896
  151.9769  135.0046  160.0565 H   0  0  0  0  0  0  0  0  0  0  0  0  # atno 6908 bound_to 6896
  152.1790  133.4659  159.4985 H   0  0  0  0  0  0  0  0  0  0  0  0  # atno 6909 bound_to 6896
  146.1603  140.4645  142.8574 H   0  0  0  0  0  0  0  0  0  0  0  0  # atno 7974 bound_to 7965
  154.4217  140.1766  156.1554 H   0  0  0  0  0  0  0  0  0  0  0  0  # atno 8008 bound_to 7997
  155.9881  140.3371  155.6703 H   0  0  0  0  0  0  0  0  0  0  0  0  # atno 8009 bound_to 7997
  155.6409  140.0680  157.2609 H   0  0  0  0  0  0  0  0  0  0  0  0  # atno 8010 bound_to 7997
  140.6074  143.8480  150.7028 H   0  0  0  0  0  0  0  0  0  0  0  0  # atno 10167 bound_to 10162
  156.0973  130.4191  150.0889 H   0  0  0  0  0  0  0  0  0  0  0  0  # atno 10718 bound_to 10713
  154.4408  135.2762  155.1849 H   0  0  0  0  0  0  0  0  0  0  0  0  # atno 10763 bound_to 10752
  154.3716  135.6107  153.5746 H   0  0  0  0  0  0  0  0  0  0  0  0  # atno 10764 bound_to 10752
  152.9841  135.5858  154.4735 H   0  0  0  0  0  0  0  0  0  0  0  0  # atno 10765 bound_to 10752
  141.0638  133.6700  156.3291 H   0  0  0  0  0  0  0  0  0  0  0  0  # atno 11005 bound_to 11000
  144.8018  140.6226  143.6473 LP  0  0  0  0  0  0  0  0  0  0  0  0  # atno 17320 bound_to 7965
  145.4605  139.1513  143.3869 LP  0  0  0  0  0  0  0  0  0  0  0  0  # atno 17321 bound_to 7965
  140.2040  143.3936  152.1770 LP  0  0  0  0  0  0  0  0  0  0  0  0  # atno 17342 bound_to 10162
  139.5335  144.7185  151.4974 LP  0  0  0  0  0  0  0  0  0  0  0  0  # atno 17343 bound_to 10162
  156.8884  130.9580  151.3591 LP  0  0  0  0  0  0  0  0  0  0  0  0  # atno 17370 bound_to 10713
  157.6137  130.8602  149.8993 LP  0  0  0  0  0  0  0  0  0  0  0  0  # atno 17371 bound_to 10713
  140.5816  134.5740  157.5480 LP  0  0  0  0  0  0  0  0  0  0  0  0  # atno 17394 bound_to 11000
  139.9457  134.7707  156.0569 LP  0  0  0  0  0  0  0  0  0  0  0  0  # atno 17395 bound_to 11000

$$$$
