AV-unprocessed.smi:218|AV-procd|sdf|1665|dock3
  -GOLD-   2262020 73D 1   1.00000     0.00000
 Structure written by MMmdl.
 54 57  0  0  0  0  0  0  0  0  1 V2000
  152.6388  142.5674  159.2341 C   0  0  0  0  0  0  0  0  0  0  0  0
  151.9637  141.4175  158.4766 C   0  0  0  0  0  0  0  0  0  0  0  0
  152.8575  140.1655  158.4544 C   0  0  0  0  0  0  0  0  0  0  0  0
  151.7240  141.8807  157.1462 O   0  0  0  0  0  0  0  0  0  0  0  0
  151.1905  141.0276  156.1992 C   0  0  0  0  0  0  0  0  0  0  0  0
  149.9538  141.3685  155.6145 C   0  0  0  0  0  0  0  0  0  0  0  0
  149.3931  140.5032  154.6538 C   0  0  0  0  0  0  0  0  0  0  0  0
  148.0717  140.8362  153.9959 C   0  0  0  0  0  0  0  0  0  0  0  0
  147.6985  139.8713  152.9718 N   0  0  0  0  0  0  0  0  0  0  0  0
  146.9534  138.7936  153.2972 C   0  0  0  0  0  0  0  0  0  0  0  0
  146.6664  138.5068  154.5939 N   0  0  0  0  0  0  0  0  0  0  0  0
  145.9277  137.4338  154.8911 C   0  0  0  0  0  0  0  0  0  0  0  0
  145.3917  136.5357  154.0626 N   0  0  0  0  0  0  0  0  0  0  0  0
  145.6748  136.8178  152.7577 C   0  0  0  0  0  0  0  0  0  0  0  0
  146.4449  137.9234  152.2984 C   0  0  0  0  0  0  0  0  0  0  0  0
  146.5286  137.8971  150.9128 N   0  0  0  0  0  0  0  0  0  0  0  0
  145.8456  136.8364  150.5765 C   0  0  0  0  0  0  0  0  0  0  0  0
  145.2979  136.1264  151.6218 N   0  0  0  0  0  0  0  0  0  0  0  0
  144.4705  134.8810  151.5253 C   0  0  1  0  0  0  0  0  0  0  0  0
  144.5371  134.3533  150.2334 O   0  0  0  0  0  0  0  0  0  0  0  0
  144.6194  132.9237  150.2598 C   0  0  1  0  0  0  0  0  0  0  0  0
  145.9846  132.5086  149.6732 C   0  0  0  0  0  0  0  0  0  0  0  0
  146.2655  131.1701  150.0205 O   0  0  0  0  0  0  0  0  0  0  0  0
  144.4109  132.5624  151.7421 C   0  0  1  0  0  0  0  0  0  0  0  0
  144.9942  131.3468  152.1742 O   0  0  0  0  0  0  0  0  0  0  0  0
  144.9216  133.7811  152.4907 C   0  0  1  0  0  0  0  0  0  0  0  0
  146.3235  133.7588  152.7033 O   0  0  0  0  0  0  0  0  0  0  0  0
  150.0947  139.3315  154.3069 C   0  0  0  0  0  0  0  0  0  0  0  0
  151.3238  139.0753  154.9447 C   0  0  0  0  0  0  0  0  0  0  0  0
  151.8634  139.8966  155.8703 N   0  0  0  0  0  0  0  0  0  0  0  0
  143.4484  135.2103  151.7182 H   0  0  0  0  0  0  0  0  0  0  0  0
  143.8159  132.4893  149.6634 H   0  0  0  0  0  0  0  0  0  0  0  0
  143.3369  132.4860  151.9196 H   0  0  0  0  0  0  0  0  0  0  0  0
  144.4269  133.9082  153.4542 H   0  0  0  0  0  0  0  0  0  0  0  0
  152.8398  142.2913  160.2695 H   0  0  0  0  0  0  0  0  0  0  0  0
  152.0028  143.4530  159.2457 H   0  0  0  0  0  0  0  0  0  0  0  0
  153.5866  142.8443  158.7716 H   0  0  0  0  0  0  0  0  0  0  0  0
  151.0272  141.1988  158.9917 H   0  0  0  0  0  0  0  0  0  0  0  0
  153.0794  139.8271  159.4667 H   0  0  0  0  0  0  0  0  0  0  0  0
  153.8055  140.3686  157.9560 H   0  0  0  0  0  0  0  0  0  0  0  0
  152.3810  139.3366  157.9315 H   0  0  0  0  0  0  0  0  0  0  0  0
  149.4461  142.2785  155.8997 H   0  0  0  0  0  0  0  0  0  0  0  0
  147.2934  140.8777  154.7591 H   0  0  0  0  0  0  0  0  0  0  0  0
  148.1410  141.8307  153.5528 H   0  0  0  0  0  0  0  0  0  0  0  0
  148.0433  140.0527  152.0401 H   0  0  0  0  0  0  0  0  0  0  0  0
  145.7400  137.2697  155.9421 H   0  0  0  0  0  0  0  0  0  0  0  0
  145.7194  136.5394  149.5456 H   0  0  0  0  0  0  0  0  0  0  0  0
  146.0226  132.6343  148.5922 H   0  0  0  0  0  0  0  0  0  0  0  0
  146.7866  133.1153  150.0930 H   0  0  0  0  0  0  0  0  0  0  0  0
  147.1986  131.0869  150.1481 H   0  0  0  0  0  0  0  0  0  0  0  0
  144.7034  131.1709  153.0563 H   0  0  0  0  0  0  0  0  0  0  0  0
  146.4933  134.0384  153.5900 H   0  0  0  0  0  0  0  0  0  0  0  0
  149.7035  138.6453  153.5702 H   0  0  0  0  0  0  0  0  0  0  0  0
  151.8892  138.1869  154.7051 H   0  0  0  0  0  0  0  0  0  0  0  0
  1  2  1  0  0  0  0
  1 35  1  0  0  0  0
  1 36  1  0  0  0  0
  1 37  1  0  0  0  0
  2  3  1  0  0  0  0
  2  4  1  0  0  0  0
  2 38  1  0  0  0  0
  3 39  1  0  0  0  0
  3 40  1  0  0  0  0
  3 41  1  0  0  0  0
  4  5  1  0  0  0  0
  5 30  1  0  0  0  0
  5  6  2  0  0  0  0
  6  7  1  0  0  0  0
  6 42  1  0  0  0  0
  7  8  1  0  0  0  0
  7 28  2  0  0  0  0
  8  9  1  0  0  0  0
  8 43  1  0  0  0  0
  8 44  1  0  0  0  0
  9 10  1  0  0  0  0
  9 45  1  0  0  0  0
 10 15  1  0  0  0  0
 10 11  2  0  0  0  0
 11 12  1  0  0  0  0
 12 13  2  0  0  0  0
 12 46  1  0  0  0  0
 13 14  1  0  0  0  0
 14 18  1  0  0  0  0
 14 15  2  0  0  0  0
 15 16  1  0  0  0  0
 16 17  2  0  0  0  0
 17 18  1  0  0  0  0
 17 47  1  0  0  0  0
 18 19  1  0  0  0  0
 19 31  1  0  0  0  0
 19 26  1  0  0  0  0
 19 20  1  0  0  0  0
 20 21  1  0  0  0  0
 21 32  1  0  0  0  0
 21 22  1  0  0  0  0
 21 24  1  0  0  0  0
 22 23  1  0  0  0  0
 22 48  1  0  0  0  0
 22 49  1  0  0  0  0
 23 50  1  0  0  0  0
 24 33  1  0  0  0  0
 24 25  1  0  0  0  0
 24 26  1  0  0  0  0
 25 51  1  0  0  0  0
 26 34  1  0  0  0  0
 26 27  1  0  0  0  0
 27 52  1  0  0  0  0
 28 29  1  0  0  0  0
 28 53  1  0  0  0  0
 29 30  2  0  0  0  0
 29 54  1  0  0  0  0
M  END
> <s_m_source_file>
AV-unprocessed.smi

> <i_m_source_file_index>
218

> <i_lp_mmshare_version>
43012

> <i_f3d_flags>
0

> <s_epik_input>
W0NIM11bQ0hdKFtDSDNdKU9jMVtjSF1jKFtjSF1bY0hdbjEpW0NIMl1bTkhdYyhuW2NIXW4yKWMoYzIzKW5bY0hdbjNbQ0BASF00T1tDQEhdKFtDSDJdW09IXSlbQ0BASF0oW09IXSlbQ0BIXTRbT0hd

> <s_epik_cmdline>
J2VwaWtfcHl0aG9uJywgJy1waCcsICc3LjAnLCAnLXRuJywgJzgnLCAnLW1hJywgJzIwMCcsICctbWV0YWxfYmluZGluZycsICctaW1hZScsICc8aW5maWxlLm1hZT4nLCAnLW9tYWUnLCAnPG91dGZpbGUubWFlPic=

> <r_lp_tautomer_probability>
1

> <r_epik_Ionization_Penalty>
0.00457014

> <r_epik_Ionization_Penalty_Charging>
0

> <r_epik_Ionization_Penalty_Neutral>
0.00457014

> <r_epik_State_Penalty>
-0

> <r_epik_Charging_Adjusted_Penalty>
0

> <i_epik_Tot_Q>
0

> <i_epik_Tot_abs_Q>
0

> <r_epik_Metal_State_Penalty>
-0

> <b_epik_Metal_Only>
0

> <s_epik_Chemistry_Notes>
This compound contains an acetal/aminal-like group ( X-CH(R)-Y where X, Y are N, S, or O) that may be acid/base labile, releasing an aldehyde.

> <s_lp_Force_Field>
OPLS_2005

> <r_lp_Energy>
50.2222

> <b_lp_Chiralities_Consistent>
1

> <s_lp_Variant>
AV-unprocessed.smi:218-4

> <Gold.Version>
5.8.1

> <Gold.Id.Protein>
6NUR|6NUR_protein|mol2

> <Gold.PLP.Fitness>
57.0257

> <Gold.PLP.PLP>
-46.4864

> <Gold.PLP.part.hbond>
-3.2022

> <Gold.PLP.part.metal>
0.0000

> <Gold.PLP.part.buried>
-2.2678

> <Gold.PLP.part.nonpolar>
-44.6682

> <Gold.PLP.part.repulsive>
3.2760

> <Gold.PLP.ligand.clash>
0.0000

> <Gold.PLP.ligand.torsion>
0.5853

> <Gold.PLP.Chemscore.Hbond>
2.8480

> <Gold.PLP.Chemscore.CHOScore>
1.0000

> <Gold.PLP.Chemscore.Metal>
0.0000

> <Gold.Chemscore.Hbonds>
donor molecule, donor type, donor heavy atom, donor atom, acceptor molecule, acceptor atom, score
      L1  H     9    45       P1  7957  0.80
      L1  H    23    50       P1 10747  1.00
      P1  H  7954  7966       L1    16  1.00
      L1  C    17    47       P1  7921  0.87

> <Gold.PLP.Chemscore.Internal.Correction>
0.1658

> <Gold.Rescore>
     Score         DG    S(hbond)    S(metal)    S(lipo)     H(rot)  DE(clash)    DE(int)     intcor
      9.38     -12.41       2.53        0.00      94.37       4.90       2.17       0.85       ----

> <Gold.Chemscore.Fitness>
9.3817

> <Gold.Chemscore.DG>
-12.4075

> <Gold.Chemscore.ZeroCoef>
-5.4800

> <Gold.Chemscore.Hbond>
2.5264

> <Gold.Chemscore.Metal>
0.0000

> <Gold.Chemscore.Lipo>
94.3656

> <Gold.Chemscore.Internal_Hbond>
0.0000

> <Gold.Chemscore.DEClash>
2.1744

> <Gold.Chemscore.DEInternal>
0.8514

> <Gold.Chemscore.Rot>
4.9029

> <Gold.Chemscore.Internal.Correction>
   9.000000E+99

> <Gold.Chemscore.Hbonds>
donor molecule, donor type, donor heavy atom, donor atom, acceptor molecule, acceptor atom, score
      L1  H     9    45       P1  7957  0.80
      L1  H    23    50       P1 10747  1.00
      P1  H  7954  7966       L1    16  0.59
      P1  H  7997  8010       L1    30  0.01

> <Gold.Chemscore.Hbond.Weighted>
-8.4383

> <Gold.Chemscore.Metal.Weighted>
-0.0000

> <Gold.Chemscore.Lipo.Weighted>
-11.0408

> <Gold.Chemscore.Internal_Hbond.Weighted>
0.0000

> <Gold.Chemscore.DEClash.Weighted>
2.1744

> <Gold.Chemscore.DEInternal.Weighted>
0.8514

> <Gold.Chemscore.Rot.Weighted>
12.5515

> <Gold.Chemscore.Internal.Correction.Weighted>
   9.000000E+99

> <Gold.Protein.RotatedTorsions>
[ 6907 6896 6895 6894 ] final  174.52 input  -60.11 | X-H torsion
[ 7974 7965 7964 7962 ] final  -83.75 input  175.53 | X-H torsion
[ 8008 7997 7996 7995 ] final   86.84 input   59.86 | X-H torsion
[ 10167 10162 10161 10158 ] final  149.47 input  -65.29 | X-H torsion
[ 10718 10713 10712 10709 ] final   84.10 input   66.30 | X-H torsion
[ 10763 10752 10751 10750 ] final -136.58 input  -60.55 | X-H torsion
[ 11005 11000 10999 10996 ] final  114.35 input  -57.11 | X-H torsion

> <Gold.Protein.ActiveResidues>
 VAL166  LYS551  ARG553  GLY616  TRP617  ASP618  TYR619  PRO620  LYS621  CYS622 
 ASP623  PHE694  ASN695  SER759  ASP760  ASP761  ALA762  ILE779  LEU786  VAL792 
 PHE793  MET794  SER795  GLU796  ALA797  LYS798  CYS799  TRP800  GLU811  SER814 

> <Gold.Protein.RotatedAtoms>
  151.7509  133.3327  159.3391 H   0  0  0  0  0  0  0  0  0  0  0  0  # atno 6907 bound_to 6896
  150.7535  134.6193  159.6137 H   0  0  0  0  0  0  0  0  0  0  0  0  # atno 6908 bound_to 6896
  152.3469  134.7061  160.0299 H   0  0  0  0  0  0  0  0  0  0  0  0  # atno 6909 bound_to 6896
  145.5158  140.9536  143.1682 H   0  0  0  0  0  0  0  0  0  0  0  0  # atno 7974 bound_to 7965
  155.9678  140.3388  155.6548 H   0  0  0  0  0  0  0  0  0  0  0  0  # atno 8008 bound_to 7997
  155.6714  140.0727  157.2537 H   0  0  0  0  0  0  0  0  0  0  0  0  # atno 8009 bound_to 7997
  154.4159  140.1691  156.1871 H   0  0  0  0  0  0  0  0  0  0  0  0  # atno 8010 bound_to 7997
  139.4861  144.5599  151.7250 H   0  0  0  0  0  0  0  0  0  0  0  0  # atno 10167 bound_to 10162
  157.6892  131.0119  150.2622 H   0  0  0  0  0  0  0  0  0  0  0  0  # atno 10718 bound_to 10713
  154.8680  135.3668  154.5085 H   0  0  0  0  0  0  0  0  0  0  0  0  # atno 10763 bound_to 10752
  153.5721  135.7020  153.5505 H   0  0  0  0  0  0  0  0  0  0  0  0  # atno 10764 bound_to 10752
  153.3532  135.4066  155.1625 H   0  0  0  0  0  0  0  0  0  0  0  0  # atno 10765 bound_to 10752
  139.8978  134.9566  156.6879 H   0  0  0  0  0  0  0  0  0  0  0  0  # atno 11005 bound_to 11000
  144.7703  139.6751  143.7197 LP  0  0  0  0  0  0  0  0  0  0  0  0  # atno 17320 bound_to 7965
  146.2138  139.5512  142.9664 LP  0  0  0  0  0  0  0  0  0  0  0  0  # atno 17321 bound_to 7965
  140.5167  144.0942  150.6010 LP  0  0  0  0  0  0  0  0  0  0  0  0  # atno 17342 bound_to 10162
  140.3886  143.2764  152.0086 LP  0  0  0  0  0  0  0  0  0  0  0  0  # atno 17343 bound_to 10162
  156.3199  130.3784  149.7584 LP  0  0  0  0  0  0  0  0  0  0  0  0  # atno 17370 bound_to 10713
  156.5157  130.8192  151.3185 LP  0  0  0  0  0  0  0  0  0  0  0  0  # atno 17371 bound_to 10713
  140.7248  133.9110  155.8171 LP  0  0  0  0  0  0  0  0  0  0  0  0  # atno 17394 bound_to 11000
  141.0199  134.0903  157.4131 LP  0  0  0  0  0  0  0  0  0  0  0  0  # atno 17395 bound_to 11000

$$$$
