AV-unprocessed.smi:3312|AV-procd|sdf|12727|dock7
  -GOLD-   2272019 73D 1   1.00000     0.00000
 Structure written by MMmdl.
 39 40  0  0  0  0  0  0  0  0  2 V2000
  143.5133  132.4579  150.4284 C   0  0  0  0  0  0  0  0  0  0  0  0
  144.0928  133.6903  151.0611 C   0  0  0  0  0  0  0  0  0  0  0  0
  144.1379  134.0228  152.4448 C   0  0  0  0  0  0  0  0  0  0  0  0
  144.7167  135.1899  152.6734 N   0  0  0  0  0  0  0  0  0  0  0  0
  145.0693  135.6386  151.4502 N   0  0  0  0  0  0  0  0  0  0  0  0
  145.7407  136.9197  151.3167 C   0  0  0  0  0  0  0  0  0  0  0  0
  146.0778  137.5456  152.6796 C   0  0  0  0  0  0  0  0  0  0  0  0
  146.9609  136.6633  153.4725 N   0  3  0  0  0  0  0  0  0  0  0  0
  147.5548  137.2976  154.6693 C   0  0  0  0  0  0  0  0  0  0  0  0
  147.6192  138.8318  154.5665 C   0  0  0  0  0  0  0  0  0  0  0  0
  146.5823  139.4803  154.7193 O   0  0  0  0  0  0  0  0  0  0  0  0
  148.8107  139.4252  154.3188 N   0  0  0  0  0  0  0  0  0  0  0  0
  149.0530  140.8673  154.2129 C   0  0  0  0  0  0  0  0  0  0  0  0
  149.9794  141.2858  155.3685 C   0  0  0  0  0  0  0  0  0  0  0  0
  151.1930  140.5407  155.3004 O   0  0  0  0  0  0  0  0  0  0  0  0
  150.9913  139.1306  155.3651 C   0  0  0  0  0  0  0  0  0  0  0  0
  150.0706  138.6834  154.2151 C   0  0  0  0  0  0  0  0  0  0  0  0
  144.6967  134.7569  150.4577 C   0  0  0  0  0  0  0  0  0  0  0  0
  142.8194  131.9482  151.0973 H   0  0  0  0  0  0  0  0  0  0  0  0
  144.2891  131.7397  150.1620 H   0  0  0  0  0  0  0  0  0  0  0  0
  142.9644  132.6923  149.5161 H   0  0  0  0  0  0  0  0  0  0  0  0
  143.7674  133.4541  153.2849 H   0  0  0  0  0  0  0  0  0  0  0  0
  146.6464  136.7842  150.7238 H   0  0  0  0  0  0  0  0  0  0  0  0
  145.0903  137.5867  150.7493 H   0  0  0  0  0  0  0  0  0  0  0  0
  146.5768  138.5043  152.5357 H   0  0  0  0  0  0  0  0  0  0  0  0
  145.1591  137.7514  153.2304 H   0  0  0  0  0  0  0  0  0  0  0  0
  146.4266  135.8629  153.7808 H   0  0  0  0  0  0  0  0  0  0  0  0
  146.9305  137.0410  155.5259 H   0  0  0  0  0  0  0  0  0  0  0  0
  148.5455  136.8767  154.8462 H   0  0  0  0  0  0  0  0  0  0  0  0
  149.5332  141.0798  153.2565 H   0  0  0  0  0  0  0  0  0  0  0  0
  148.1473  141.4711  154.2269 H   0  0  0  0  0  0  0  0  0  0  0  0
  150.2132  142.3483  155.2998 H   0  0  0  0  0  0  0  0  0  0  0  0
  149.4954  141.1251  156.3333 H   0  0  0  0  0  0  0  0  0  0  0  0
  151.9576  138.6318  155.2908 H   0  0  0  0  0  0  0  0  0  0  0  0
  150.5647  138.8598  156.3323 H   0  0  0  0  0  0  0  0  0  0  0  0
  149.9344  137.6019  154.2542 H   0  0  0  0  0  0  0  0  0  0  0  0
  150.5386  138.8947  153.2526 H   0  0  0  0  0  0  0  0  0  0  0  0
  144.8922  134.9563  149.4141 H   0  0  0  0  0  0  0  0  0  0  0  0
  147.7054  136.3442  152.8697 H   0  0  0  0  0  0  0  0  0  0  0  0
  1  2  1  0  0  0  0
  1 19  1  0  0  0  0
  1 20  1  0  0  0  0
  1 21  1  0  0  0  0
  2 18  2  0  0  0  0
  2  3  1  0  0  0  0
  3  4  2  0  0  0  0
  3 22  1  0  0  0  0
  4  5  1  0  0  0  0
  5  6  1  0  0  0  0
  5 18  1  0  0  0  0
  6  7  1  0  0  0  0
  6 23  1  0  0  0  0
  6 24  1  0  0  0  0
  7  8  1  0  0  0  0
  7 25  1  0  0  0  0
  7 26  1  0  0  0  0
  8  9  1  0  0  0  0
  8 27  1  0  0  0  0
  8 39  1  0  0  0  0
  9 10  1  0  0  0  0
  9 28  1  0  0  0  0
  9 29  1  0  0  0  0
 10 11  2  0  0  0  0
 10 12  1  0  0  0  0
 12 17  1  0  0  0  0
 12 13  1  0  0  0  0
 13 14  1  0  0  0  0
 13 30  1  0  0  0  0
 13 31  1  0  0  0  0
 14 15  1  0  0  0  0
 14 32  1  0  0  0  0
 14 33  1  0  0  0  0
 15 16  1  0  0  0  0
 16 17  1  0  0  0  0
 16 34  1  0  0  0  0
 16 35  1  0  0  0  0
 17 36  1  0  0  0  0
 17 37  1  0  0  0  0
 18 38  1  0  0  0  0
M  CHG  1   8   1
M  END
> <s_m_source_file>
AV-unprocessed.smi

> <i_m_source_file_index>
3312

> <i_lp_mmshare_version>
43012

> <i_f3d_flags>
0

> <s_epik_input>
W0NIM11jMVtjSF1ubihbY0hdMSlbQ0gyXVtDSDJdW05IXVtDSDJdQyg9TylOMltDSDJdW0NIMl1PW0NIMl1bQ0gyXTI=

> <s_epik_cmdline>
J2VwaWtfcHl0aG9uJywgJy1waCcsICc3LjAnLCAnLXRuJywgJzgnLCAnLW1hJywgJzIwMCcsICctbWV0YWxfYmluZGluZycsICctaW1hZScsICc8aW5maWxlLm1hZT4nLCAnLW9tYWUnLCAnPG91dGZpbGUubWFlPic=

> <r_lp_tautomer_probability>
1

> <r_epik_Ionization_Penalty>
0.325402

> <r_epik_Ionization_Penalty_Charging>
0.325398

> <r_epik_Ionization_Penalty_Neutral>
4.45308e-06

> <r_epik_State_Penalty>
0.321221

> <r_epik_Charging_Adjusted_Penalty>
0.646619

> <i_epik_Tot_Q>
1

> <i_epik_Tot_abs_Q>
1

> <r_epik_Metal_State_Penalty>
0.321643

> <b_epik_Metal_Only>
0

> <s_lp_Force_Field>
OPLS_2005

> <r_lp_Energy>
21.6744

> <b_lp_Chiralities_Consistent>
1

> <s_lp_Variant>
AV-unprocessed.smi:3312-1

> <Gold.Version>
5.8.1

> <Gold.Id.Protein>
6NUR|6NUR_protein|mol2

> <Gold.PLP.Fitness>
44.7436

> <Gold.PLP.PLP>
-31.0167

> <Gold.PLP.part.hbond>
-2.0000

> <Gold.PLP.part.metal>
0.0000

> <Gold.PLP.part.buried>
-1.1561

> <Gold.PLP.part.nonpolar>
-29.2906

> <Gold.PLP.part.repulsive>
0.1806

> <Gold.PLP.ligand.clash>
0.0000

> <Gold.PLP.ligand.torsion>
0.5127

> <Gold.PLP.Chemscore.Hbond>
2.9120

> <Gold.PLP.Chemscore.CHOScore>
2.0000

> <Gold.PLP.Chemscore.Metal>
0.0000

> <Gold.Chemscore.Hbonds>
donor molecule, donor type, donor heavy atom, donor atom, acceptor molecule, acceptor atom, score
      L1  H     8    39       P1  7948  2.00
      P1  H  7989  7998       L1    15  0.87
      L1  C     3    22       P1 10957  1.00
      L1  C    18    38       P1  7921  1.00

> <Gold.PLP.Chemscore.Internal.Correction>
0.0162

> <Gold.Rescore>
     Score         DG    S(hbond)    S(metal)    S(lipo)     H(rot)  DE(clash)    DE(int)     intcor
     11.19     -13.48       1.25        0.00      73.97       1.89       0.46       1.82       ----

> <Gold.Chemscore.Fitness>
11.1942

> <Gold.Chemscore.DG>
-13.4781

> <Gold.Chemscore.ZeroCoef>
-5.4800

> <Gold.Chemscore.Hbond>
1.2503

> <Gold.Chemscore.Metal>
0.0000

> <Gold.Chemscore.Lipo>
73.9650

> <Gold.Chemscore.Internal_Hbond>
0.0000

> <Gold.Chemscore.DEClash>
0.4638

> <Gold.Chemscore.DEInternal>
1.8201

> <Gold.Chemscore.Rot>
1.8874

> <Gold.Chemscore.Internal.Correction>
   9.000000E+99

> <Gold.Chemscore.Hbonds>
donor molecule, donor type, donor heavy atom, donor atom, acceptor molecule, acceptor atom, score
      L1  H     8    39       P1  7948  0.99
      P1  H  7989  7998       L1    15  0.09

> <Gold.Chemscore.Hbond.Weighted>
-4.1759

> <Gold.Chemscore.Metal.Weighted>
-0.0000

> <Gold.Chemscore.Lipo.Weighted>
-8.6539

> <Gold.Chemscore.Internal_Hbond.Weighted>
0.0000

> <Gold.Chemscore.DEClash.Weighted>
0.4638

> <Gold.Chemscore.DEInternal.Weighted>
1.8201

> <Gold.Chemscore.Rot.Weighted>
4.8317

> <Gold.Chemscore.Internal.Correction.Weighted>
   9.000000E+99

> <Gold.Protein.RotatedTorsions>
[ 6907 6896 6895 6894 ] final  -94.25 input  -60.11 | X-H torsion
[ 7974 7965 7964 7962 ] final    4.48 input  175.53 | X-H torsion
[ 8008 7997 7996 7995 ] final -134.76 input   59.86 | X-H torsion
[ 10167 10162 10161 10158 ] final  110.13 input  -65.29 | X-H torsion
[ 10718 10713 10712 10709 ] final  131.75 input   66.30 | X-H torsion
[ 10763 10752 10751 10750 ] final  134.48 input  -60.55 | X-H torsion
[ 11005 11000 10999 10996 ] final  127.27 input  -57.11 | X-H torsion

> <Gold.Protein.ActiveResidues>
 VAL166  LYS551  ARG553  GLY616  TRP617  ASP618  TYR619  PRO620  LYS621  CYS622 
 ASP623  PHE694  ASN695  SER759  ASP760  ASP761  ALA762  ILE779  LEU786  VAL792 
 PHE793  MET794  SER795  GLU796  ALA797  LYS798  CYS799  TRP800  GLU811  SER814 

> <Gold.Protein.RotatedAtoms>
  150.6938  134.1841  159.4259 H   0  0  0  0  0  0  0  0  0  0  0  0  # atno 6907 bound_to 6896
  151.9814  135.0024  160.0567 H   0  0  0  0  0  0  0  0  0  0  0  0  # atno 6908 bound_to 6896
  152.1751  133.4634  159.4966 H   0  0  0  0  0  0  0  0  0  0  0  0  # atno 6909 bound_to 6896
  146.2444  140.0528  142.8374 H   0  0  0  0  0  0  0  0  0  0  0  0  # atno 7974 bound_to 7965
  155.3674  140.0486  157.3046 H   0  0  0  0  0  0  0  0  0  0  0  0  # atno 8008 bound_to 7997
  154.5147  140.2204  155.9051 H   0  0  0  0  0  0  0  0  0  0  0  0  # atno 8009 bound_to 7997
  156.1623  140.3114  155.8834 H   0  0  0  0  0  0  0  0  0  0  0  0  # atno 8010 bound_to 7997
  139.6712  144.7125  151.1684 H   0  0  0  0  0  0  0  0  0  0  0  0  # atno 10167 bound_to 10162
  157.4937  131.1091  150.9521 H   0  0  0  0  0  0  0  0  0  0  0  0  # atno 10718 bound_to 10713
  153.8243  135.3112  155.3413 H   0  0  0  0  0  0  0  0  0  0  0  0  # atno 10763 bound_to 10752
  154.8000  135.4732  154.0255 H   0  0  0  0  0  0  0  0  0  0  0  0  # atno 10764 bound_to 10752
  153.1674  135.6872  153.8746 H   0  0  0  0  0  0  0  0  0  0  0  0  # atno 10765 bound_to 10752
  139.9499  134.9624  156.8830 H   0  0  0  0  0  0  0  0  0  0  0  0  # atno 11005 bound_to 11000
  145.0969  140.9320  143.4736 LP  0  0  0  0  0  0  0  0  0  0  0  0  # atno 17320 bound_to 7965
  145.0713  139.3029  143.5831 LP  0  0  0  0  0  0  0  0  0  0  0  0  # atno 17321 bound_to 7965
  140.7619  143.5841  150.8864 LP  0  0  0  0  0  0  0  0  0  0  0  0  # atno 17342 bound_to 10162
  139.9507  143.6276  152.3030 LP  0  0  0  0  0  0  0  0  0  0  0  0  # atno 17343 bound_to 10162
  157.0214  130.5675  149.5332 LP  0  0  0  0  0  0  0  0  0  0  0  0  # atno 17370 bound_to 10713
  156.0188  130.5283  150.8215 LP  0  0  0  0  0  0  0  0  0  0  0  0  # atno 17371 bound_to 10713
  140.5744  134.0412  155.7442 LP  0  0  0  0  0  0  0  0  0  0  0  0  # atno 17394 bound_to 11000
  141.1159  133.9541  157.2823 LP  0  0  0  0  0  0  0  0  0  0  0  0  # atno 17395 bound_to 11000

$$$$
