AV-unprocessed.smi:1278|AV-procd|sdf|5348|dock6
  -GOLD-   22720 4483D 1   1.00000     0.00000
 Structure written by MMmdl.
 39 40  0  0  0  0  0  0  0  0  2 V2000
  143.7911  132.6531  148.4919 C   0  0  0  0  0  0  0  0  0  0  0  0
  143.8114  132.7215  150.0292 C   0  0  1  0  0  0  0  0  0  0  0  0
  144.9185  131.8507  150.6517 C   0  0  0  0  0  0  0  0  0  0  0  0
  146.3021  132.4879  150.4617 C   0  0  0  0  0  0  0  0  0  0  0  0
  146.3186  133.9367  150.9743 C   0  0  0  0  0  0  0  0  0  0  0  0
  145.2618  134.7490  150.3182 N   0  3  2  0  0  0  0  0  0  0  0  0
  145.3542  136.1865  150.6762 C   0  0  0  0  0  0  0  0  0  0  0  0
  145.4004  136.4085  152.2004 C   0  0  0  0  0  0  0  0  0  0  0  0
  146.6715  136.9880  152.6192 N   0  0  0  0  0  0  0  0  0  0  0  0
  146.7999  138.1302  153.3098 C   0  0  0  0  0  0  0  0  0  0  0  0
  145.8406  138.8207  153.6555 O   0  0  0  0  0  0  0  0  0  0  0  0
  148.0909  138.4080  153.5626 N   0  0  0  0  0  0  0  0  0  0  0  0
  148.6270  139.5223  154.2600 C   0  0  0  0  0  0  0  0  0  0  0  0
  147.9091  140.5793  154.6582 N   0  0  0  0  0  0  0  0  0  0  0  0
  148.6941  141.5262  155.3211 C   0  0  0  0  0  0  0  0  0  0  0  0
  150.0168  141.1719  155.4180 C   0  0  0  0  0  0  0  0  0  0  0  0
  150.3316  139.6261  154.6756 S   0  0  0  0  0  0  0  0  0  0  0  0
  143.9088  134.1720  150.5453 C   0  0  0  0  0  0  0  0  0  0  0  0
  144.7014  133.0612  148.0527 H   0  0  0  0  0  0  0  0  0  0  0  0
  142.9506  133.2177  148.0873 H   0  0  0  0  0  0  0  0  0  0  0  0
  143.6890  131.6238  148.1472 H   0  0  0  0  0  0  0  0  0  0  0  0
  142.8552  132.3186  150.3661 H   0  0  0  0  0  0  0  0  0  0  0  0
  144.7254  131.7337  151.7190 H   0  0  0  0  0  0  0  0  0  0  0  0
  144.9018  130.8460  150.2275 H   0  0  0  0  0  0  0  0  0  0  0  0
  147.0549  131.9002  150.9879 H   0  0  0  0  0  0  0  0  0  0  0  0
  146.5817  132.4670  149.4079 H   0  0  0  0  0  0  0  0  0  0  0  0
  146.1771  133.9578  152.0561 H   0  0  0  0  0  0  0  0  0  0  0  0
  147.2986  134.3715  150.7740 H   0  0  0  0  0  0  0  0  0  0  0  0
  146.2222  136.6354  150.1905 H   0  0  0  0  0  0  0  0  0  0  0  0
  144.4797  136.7055  150.2812 H   0  0  0  0  0  0  0  0  0  0  0  0
  144.5769  137.0508  152.5181 H   0  0  0  0  0  0  0  0  0  0  0  0
  145.2824  135.4669  152.7352 H   0  0  0  0  0  0  0  0  0  0  0  0
  147.5096  136.4802  152.3752 H   0  0  0  0  0  0  0  0  0  0  0  0
  148.7702  137.7447  153.2200 H   0  0  0  0  0  0  0  0  0  0  0  0
  148.2280  142.4268  155.6925 H   0  0  0  0  0  0  0  0  0  0  0  0
  150.8217  141.7247  155.8793 H   0  0  0  0  0  0  0  0  0  0  0  0
  143.1448  134.7770  150.0584 H   0  0  0  0  0  0  0  0  0  0  0  0
  143.6872  134.1982  151.6136 H   0  0  0  0  0  0  0  0  0  0  0  0
  145.4440  134.6923  149.3261 H   0  0  0  0  0  0  0  0  0  0  0  0
  1  2  1  0  0  0  0
  1 19  1  0  0  0  0
  1 20  1  0  0  0  0
  1 21  1  0  0  0  0
  2 18  1  0  0  0  0
  2  3  1  0  0  0  0
  2 22  1  0  0  0  0
  3  4  1  0  0  0  0
  3 23  1  0  0  0  0
  3 24  1  0  0  0  0
  4  5  1  0  0  0  0
  4 25  1  0  0  0  0
  4 26  1  0  0  0  0
  5  6  1  0  0  0  0
  5 27  1  0  0  0  0
  5 28  1  0  0  0  0
  6  7  1  0  0  0  0
  6 18  1  0  0  0  0
  6 39  1  0  0  0  0
  7  8  1  0  0  0  0
  7 29  1  0  0  0  0
  7 30  1  0  0  0  0
  8  9  1  0  0  0  0
  8 31  1  0  0  0  0
  8 32  1  0  0  0  0
  9 10  1  0  0  0  0
  9 33  1  0  0  0  0
 10 11  2  0  0  0  0
 10 12  1  0  0  0  0
 12 13  1  0  0  0  0
 12 34  1  0  0  0  0
 13 17  1  0  0  0  0
 13 14  2  0  0  0  0
 14 15  1  0  0  0  0
 15 16  2  0  0  0  0
 15 35  1  0  0  0  0
 16 17  1  0  0  0  0
 16 36  1  0  0  0  0
 18 37  1  0  0  0  0
 18 38  1  0  0  0  0
M  CHG  1   6   1
M  END
> <s_m_source_file>
AV-unprocessed.smi

> <i_m_source_file_index>
1278

> <i_lp_mmshare_version>
43012

> <i_f3d_flags>
0

> <s_epik_input>
W0NIM11bQ0BASF0xW0NIMl1bQ0gyXVtDSDJdTihbQ0gyXTEpW0NIMl1bQ0gyXVtOSF1DKD1PKVtOSF1jMm5bY0hdW2NIXXMy

> <s_epik_cmdline>
J2VwaWtfcHl0aG9uJywgJy1waCcsICc3LjAnLCAnLXRuJywgJzgnLCAnLW1hJywgJzIwMCcsICctbWV0YWxfYmluZGluZycsICctaW1hZScsICc8aW5maWxlLm1hZT4nLCAnLW9tYWUnLCAnPG91dGZpbGUubWFlPic=

> <r_lp_tautomer_probability>
0.999

> <r_epik_Ionization_Penalty>
0.00222194

> <r_epik_Ionization_Penalty_Charging>
0.00208169

> <r_epik_Ionization_Penalty_Neutral>
0.000140251

> <r_epik_State_Penalty>
0.00142585

> <r_epik_Charging_Adjusted_Penalty>
0.00350754

> <i_epik_Tot_Q>
1

> <i_epik_Tot_abs_Q>
1

> <r_epik_Metal_State_Penalty>
0.0570424

> <b_epik_Metal_Only>
0

> <s_lp_Force_Field>
OPLS_2005

> <r_lp_Energy>
16.7193

> <b_lp_Chiralities_Consistent>
1

> <s_lp_Variant>
AV-unprocessed.smi:1278-2

> <Gold.Version>
5.8.1

> <Gold.Id.Protein>
6NUR|6NUR_protein|mol2

> <Gold.PLP.Fitness>
43.6886

> <Gold.PLP.PLP>
-33.2165

> <Gold.PLP.part.hbond>
-2.8414

> <Gold.PLP.part.metal>
0.0000

> <Gold.PLP.part.buried>
-0.9017

> <Gold.PLP.part.nonpolar>
-30.7164

> <Gold.PLP.part.repulsive>
0.3588

> <Gold.PLP.ligand.clash>
0.0000

> <Gold.PLP.ligand.torsion>
0.4631

> <Gold.PLP.Chemscore.Hbond>
2.7908

> <Gold.PLP.Chemscore.CHOScore>
1.0000

> <Gold.PLP.Chemscore.Metal>
0.0000

> <Gold.Chemscore.Hbonds>
donor molecule, donor type, donor heavy atom, donor atom, acceptor molecule, acceptor atom, score
      L1  H     6    39       P1  7921  1.00
      L1  H     9    33       P1  7948  1.00
      L1  H    12    34       P1  7948  0.83
      L1  C    15    35       P1  8028  1.00

> <Gold.PLP.Chemscore.Internal.Correction>
0.0261

> <Gold.Rescore>
     Score         DG    S(hbond)    S(metal)    S(lipo)     H(rot)  DE(clash)    DE(int)     intcor
     19.27     -21.49       2.84        0.00      90.65       1.60       0.47       1.75       ----

> <Gold.Chemscore.Fitness>
19.2664

> <Gold.Chemscore.DG>
-21.4857

> <Gold.Chemscore.ZeroCoef>
-5.4800

> <Gold.Chemscore.Hbond>
2.8432

> <Gold.Chemscore.Metal>
0.0000

> <Gold.Chemscore.Lipo>
90.6471

> <Gold.Chemscore.Internal_Hbond>
0.0000

> <Gold.Chemscore.DEClash>
0.4715

> <Gold.Chemscore.DEInternal>
1.7478

> <Gold.Chemscore.Rot>
1.6001

> <Gold.Chemscore.Internal.Correction>
   9.000000E+99

> <Gold.Chemscore.Hbonds>
donor molecule, donor type, donor heavy atom, donor atom, acceptor molecule, acceptor atom, score
      L1  H     6    39       P1  7921  0.99
      L1  H     9    33       P1  7948  0.94
      L1  H    12    34       P1  7948  0.76

> <Gold.Chemscore.Hbond.Weighted>
-9.4962

> <Gold.Chemscore.Metal.Weighted>
-0.0000

> <Gold.Chemscore.Lipo.Weighted>
-10.6057

> <Gold.Chemscore.Internal_Hbond.Weighted>
0.0000

> <Gold.Chemscore.DEClash.Weighted>
0.4715

> <Gold.Chemscore.DEInternal.Weighted>
1.7478

> <Gold.Chemscore.Rot.Weighted>
4.0963

> <Gold.Chemscore.Internal.Correction.Weighted>
   9.000000E+99

> <Gold.Protein.RotatedTorsions>
[ 6907 6896 6895 6894 ] final -173.49 input  -60.11 | X-H torsion
[ 7974 7965 7964 7962 ] final  -74.59 input  175.53 | X-H torsion
[ 8008 7997 7996 7995 ] final   38.72 input   59.86 | X-H torsion
[ 10167 10162 10161 10158 ] final    4.83 input  -65.29 | X-H torsion
[ 10718 10713 10712 10709 ] final -155.56 input   66.30 | X-H torsion
[ 10763 10752 10751 10750 ] final  105.26 input  -60.55 | X-H torsion
[ 11005 11000 10999 10996 ] final -105.08 input  -57.11 | X-H torsion

> <Gold.Protein.ActiveResidues>
 VAL166  LYS551  ARG553  GLY616  TRP617  ASP618  TYR619  PRO620  LYS621  CYS622 
 ASP623  PHE694  ASN695  SER759  ASP760  ASP761  ALA762  ILE779  LEU786  VAL792 
 PHE793  MET794  SER795  GLU796  ALA797  LYS798  CYS799  TRP800  GLU811  SER814 

> <Gold.Protein.RotatedAtoms>
  151.5570  133.3409  159.2963 H   0  0  0  0  0  0  0  0  0  0  0  0  # atno 6907 bound_to 6896
  150.8445  134.7751  159.6970 H   0  0  0  0  0  0  0  0  0  0  0  0  # atno 6908 bound_to 6896
  152.4505  134.5410  159.9891 H   0  0  0  0  0  0  0  0  0  0  0  0  # atno 6909 bound_to 6896
  145.6371  140.9321  143.1055 H   0  0  0  0  0  0  0  0  0  0  0  0  # atno 7974 bound_to 7965
  155.2248  140.3333  155.4311 H   0  0  0  0  0  0  0  0  0  0  0  0  # atno 8008 bound_to 7997
  156.2319  140.1854  156.7268 H   0  0  0  0  0  0  0  0  0  0  0  0  # atno 8009 bound_to 7997
  154.5992  140.0626  156.9330 H   0  0  0  0  0  0  0  0  0  0  0  0  # atno 8010 bound_to 7997
  140.6514  143.7536  150.7581 H   0  0  0  0  0  0  0  0  0  0  0  0  # atno 10167 bound_to 10162
  156.5145  130.8450  151.2659 H   0  0  0  0  0  0  0  0  0  0  0  0  # atno 10718 bound_to 10713
  153.3770  135.3916  155.1829 H   0  0  0  0  0  0  0  0  0  0  0  0  # atno 10763 bound_to 10752
  154.8702  135.3716  154.4905 H   0  0  0  0  0  0  0  0  0  0  0  0  # atno 10764 bound_to 10752
  153.5378  135.7085  153.5712 H   0  0  0  0  0  0  0  0  0  0  0  0  # atno 10765 bound_to 10752
  141.1070  133.8778  157.1691 H   0  0  0  0  0  0  0  0  0  0  0  0  # atno 11005 bound_to 11000
  144.7171  139.8158  143.7395 LP  0  0  0  0  0  0  0  0  0  0  0  0  # atno 17320 bound_to 7965
  146.1310  139.4346  143.0168 LP  0  0  0  0  0  0  0  0  0  0  0  0  # atno 17321 bound_to 7965
  140.1187  143.4632  152.2326 LP  0  0  0  0  0  0  0  0  0  0  0  0  # atno 17342 bound_to 10162
  139.5730  144.7472  151.3841 LP  0  0  0  0  0  0  0  0  0  0  0  0  # atno 17343 bound_to 10162
  157.7446  130.9938  150.2686 LP  0  0  0  0  0  0  0  0  0  0  0  0  # atno 17370 bound_to 10713
  156.3208  130.3785  149.7576 LP  0  0  0  0  0  0  0  0  0  0  0  0  # atno 17371 bound_to 10713
  139.9945  135.0052  157.0051 LP  0  0  0  0  0  0  0  0  0  0  0  0  # atno 17394 bound_to 11000
  140.4876  134.1226  155.7227 LP  0  0  0  0  0  0  0  0  0  0  0  0  # atno 17395 bound_to 11000

$$$$
