AV-unprocessed.smi:1007|AV-procd|sdf|4400|dock5
  -GOLD-   22720 2333D 1   1.00000     0.00000
 Structure written by MMmdl.
 56 58  0  0  0  0  0  0  0  0  2 V2000
  148.8777  141.3383  154.2438 C   0  0  0  0  0  0  0  0  0  0  0  0
  147.6277  140.8839  154.7330 O   0  0  0  0  0  0  0  0  0  0  0  0
  147.6991  139.5746  155.2730 C   0  0  0  0  0  0  0  0  0  0  0  0
  147.7741  138.5620  154.1198 C   0  0  0  0  0  0  0  0  0  0  0  0
  149.0013  137.7275  154.1688 N   0  3  0  0  0  0  0  0  0  0  0  0
  148.9297  136.6111  155.1498 C   0  0  0  0  0  0  0  0  0  0  0  0
  150.2239  135.7709  155.1076 C   0  0  0  0  0  0  0  0  0  0  0  0
  151.4343  136.5575  155.3432 N   0  0  0  0  0  0  0  0  0  0  0  0
  151.5643  136.9904  156.7422 C   0  0  0  0  0  0  0  0  0  0  0  0
  152.8456  137.7693  157.1144 C   0  0  2  0  0  0  0  0  0  0  0  0
  153.9099  136.8734  157.3695 O   0  0  0  0  0  0  0  0  0  0  0  0
  152.6650  138.7798  158.2664 C   0  0  0  0  0  0  0  0  0  0  0  0
  152.1258  140.0478  157.8105 N   0  0  0  0  0  0  0  0  0  0  0  0
  151.5919  140.3184  156.6038 C   0  0  0  0  0  0  0  0  0  0  0  0
  151.1564  141.5574  156.3949 N   0  0  0  0  0  0  0  0  0  0  0  0
  151.4456  142.1628  157.6058 C   0  0  0  0  0  0  0  0  0  0  0  0
  151.2343  143.4892  158.0418 C   0  0  0  0  0  0  0  0  0  0  0  0
  151.6135  143.8939  159.3416 C   0  0  0  0  0  0  0  0  0  0  0  0
  151.3677  145.3301  159.7689 C   0  0  0  0  0  0  0  0  0  0  0  0
  152.2142  142.9644  160.2285 C   0  0  0  0  0  0  0  0  0  0  0  0
  152.6263  143.3757  161.6309 C   0  0  0  0  0  0  0  0  0  0  0  0
  152.4335  141.6358  159.8086 C   0  0  0  0  0  0  0  0  0  0  0  0
  152.0522  141.2454  158.5129 C   0  0  0  0  0  0  0  0  0  0  0  0
  151.4774  137.6403  154.3576 C   0  0  0  0  0  0  0  0  0  0  0  0
  150.2261  138.5398  154.3872 C   0  0  0  0  0  0  0  0  0  0  0  0
  148.7688  142.3447  153.8394 H   0  0  0  0  0  0  0  0  0  0  0  0
  149.2483  140.6933  153.4459 H   0  0  0  0  0  0  0  0  0  0  0  0
  149.6230  141.3743  155.0396 H   0  0  0  0  0  0  0  0  0  0  0  0
  148.5957  139.4854  155.8882 H   0  0  0  0  0  0  0  0  0  0  0  0
  146.8478  139.3776  155.9249 H   0  0  0  0  0  0  0  0  0  0  0  0
  146.8943  137.9195  154.1759 H   0  0  0  0  0  0  0  0  0  0  0  0
  147.7192  139.0751  153.1587 H   0  0  0  0  0  0  0  0  0  0  0  0
  148.7549  137.0053  156.1514 H   0  0  0  0  0  0  0  0  0  0  0  0
  148.0865  135.9616  154.9192 H   0  0  0  0  0  0  0  0  0  0  0  0
  150.1620  134.9588  155.8330 H   0  0  0  0  0  0  0  0  0  0  0  0
  150.2988  135.2891  154.1316 H   0  0  0  0  0  0  0  0  0  0  0  0
  150.6894  137.5576  157.0593 H   0  0  0  0  0  0  0  0  0  0  0  0
  151.5609  136.0938  157.3635 H   0  0  0  0  0  0  0  0  0  0  0  0
  153.1465  138.3240  156.2248 H   0  0  0  0  0  0  0  0  0  0  0  0
  153.9804  136.7523  158.3044 H   0  0  0  0  0  0  0  0  0  0  0  0
  151.9896  138.3732  159.0200 H   0  0  0  0  0  0  0  0  0  0  0  0
  153.6138  138.9715  158.7691 H   0  0  0  0  0  0  0  0  0  0  0  0
  151.5160  139.5620  155.8362 H   0  0  0  0  0  0  0  0  0  0  0  0
  150.7765  144.1966  157.3661 H   0  0  0  0  0  0  0  0  0  0  0  0
  152.3068  145.8160  160.0341 H   0  0  0  0  0  0  0  0  0  0  0  0
  150.7038  145.3633  160.6329 H   0  0  0  0  0  0  0  0  0  0  0  0
  150.9061  145.9103  158.9693 H   0  0  0  0  0  0  0  0  0  0  0  0
  153.0886  142.5475  162.1688 H   0  0  0  0  0  0  0  0  0  0  0  0
  151.7576  143.7027  162.2027 H   0  0  0  0  0  0  0  0  0  0  0  0
  153.3460  144.1938  161.5945 H   0  0  0  0  0  0  0  0  0  0  0  0
  152.8901  140.9178  160.4736 H   0  0  0  0  0  0  0  0  0  0  0  0
  152.3752  138.2425  154.4877 H   0  0  0  0  0  0  0  0  0  0  0  0
  151.5691  137.2048  153.3616 H   0  0  0  0  0  0  0  0  0  0  0  0
  150.3086  139.2921  153.6018 H   0  0  0  0  0  0  0  0  0  0  0  0
  150.1550  139.0799  155.3322 H   0  0  0  0  0  0  0  0  0  0  0  0
  149.1019  137.3098  153.2543 H   0  0  0  0  0  0  0  0  0  0  0  0
  1  2  1  0  0  0  0
  1 26  1  0  0  0  0
  1 27  1  0  0  0  0
  1 28  1  0  0  0  0
  2  3  1  0  0  0  0
  3  4  1  0  0  0  0
  3 29  1  0  0  0  0
  3 30  1  0  0  0  0
  4  5  1  0  0  0  0
  4 31  1  0  0  0  0
  4 32  1  0  0  0  0
  5 25  1  0  0  0  0
  5  6  1  0  0  0  0
  5 56  1  0  0  0  0
  6  7  1  0  0  0  0
  6 33  1  0  0  0  0
  6 34  1  0  0  0  0
  7  8  1  0  0  0  0
  7 35  1  0  0  0  0
  7 36  1  0  0  0  0
  8  9  1  0  0  0  0
  8 24  1  0  0  0  0
  9 10  1  0  0  0  0
  9 37  1  0  0  0  0
  9 38  1  0  0  0  0
 10 11  1  0  0  0  0
 10 12  1  0  0  0  0
 10 39  1  0  0  0  0
 11 40  1  0  0  0  0
 12 13  1  0  0  0  0
 12 41  1  0  0  0  0
 12 42  1  0  0  0  0
 13 23  1  0  0  0  0
 13 14  1  0  0  0  0
 14 15  2  0  0  0  0
 14 43  1  0  0  0  0
 15 16  1  0  0  0  0
 16 23  2  0  0  0  0
 16 17  1  0  0  0  0
 17 18  2  0  0  0  0
 17 44  1  0  0  0  0
 18 19  1  0  0  0  0
 18 20  1  0  0  0  0
 19 45  1  0  0  0  0
 19 46  1  0  0  0  0
 19 47  1  0  0  0  0
 20 21  1  0  0  0  0
 20 22  2  0  0  0  0
 21 48  1  0  0  0  0
 21 49  1  0  0  0  0
 21 50  1  0  0  0  0
 22 23  1  0  0  0  0
 22 51  1  0  0  0  0
 24 25  1  0  0  0  0
 24 52  1  0  0  0  0
 24 53  1  0  0  0  0
 25 54  1  0  0  0  0
 25 55  1  0  0  0  0
M  CHG  1   5   1
M  END
> <s_m_source_file>
AV-unprocessed.smi

> <i_m_source_file_index>
1007

> <i_lp_mmshare_version>
43012

> <i_f3d_flags>
0

> <s_epik_input>
W0NIM11PW0NIMl1bQ0gyXU4xW0NIMl1bQ0gyXU4oW0NIMl1bQ0gyXTEpW0NIMl1bQ0BIXShbT0hdKVtDSDJdbihbY0hdbjIpYyhjMjMpW2NIXWMoW0NIM10pYyhbY0hdMylbQ0gzXQ==

> <s_epik_cmdline>
J2VwaWtfcHl0aG9uJywgJy1waCcsICc3LjAnLCAnLXRuJywgJzgnLCAnLW1hJywgJzIwMCcsICctbWV0YWxfYmluZGluZycsICctaW1hZScsICc8aW5maWxlLm1hZT4nLCAnLW9tYWUnLCAnPG91dGZpbGUubWFlPic=

> <r_epik_Ionization_Penalty>
0.186009

> <r_epik_Ionization_Penalty_Charging>
0.0613973

> <r_epik_Ionization_Penalty_Neutral>
0.124612

> <r_epik_State_Penalty>
1.21927

> <r_epik_Charging_Adjusted_Penalty>
1.28067

> <i_epik_Tot_Q>
1

> <i_epik_Tot_abs_Q>
1

> <r_epik_Metal_State_Penalty>
1.13901

> <b_epik_Metal_Only>
0

> <s_lp_Force_Field>
OPLS_2005

> <r_lp_Energy>
39.6127

> <b_lp_Chiralities_Consistent>
1

> <s_lp_Variant>
AV-unprocessed.smi:1007-3

> <Gold.Version>
5.8.1

> <Gold.Id.Protein>
6NUR|6NUR_protein|mol2

> <Gold.PLP.Fitness>
53.6439

> <Gold.PLP.PLP>
-46.8887

> <Gold.PLP.part.hbond>
-2.0000

> <Gold.PLP.part.metal>
0.0000

> <Gold.PLP.part.buried>
-5.5381

> <Gold.PLP.part.nonpolar>
-38.8482

> <Gold.PLP.part.repulsive>
0.2530

> <Gold.PLP.ligand.clash>
0.0000

> <Gold.PLP.ligand.torsion>
1.2986

> <Gold.PLP.Chemscore.Hbond>
3.0000

> <Gold.PLP.Chemscore.CHOScore>
0.0000

> <Gold.PLP.Chemscore.Metal>
0.0000

> <Gold.Chemscore.Hbonds>
donor molecule, donor type, donor heavy atom, donor atom, acceptor molecule, acceptor atom, score
      L1  H     5    56       P1  7948  2.00
      P1  H 10752 10763       L1     8  1.00

> <Gold.PLP.Chemscore.Internal.Correction>
0.3525

> <Gold.Rescore>
     Score         DG    S(hbond)    S(metal)    S(lipo)     H(rot)  DE(clash)    DE(int)     intcor
     16.85     -18.48       1.23        0.00     132.08       2.56       0.02       1.61       ----

> <Gold.Chemscore.Fitness>
16.8484

> <Gold.Chemscore.DG>
-18.4765

> <Gold.Chemscore.ZeroCoef>
-5.4800

> <Gold.Chemscore.Hbond>
1.2262

> <Gold.Chemscore.Metal>
0.0000

> <Gold.Chemscore.Lipo>
132.0782

> <Gold.Chemscore.Internal_Hbond>
0.0000

> <Gold.Chemscore.DEClash>
0.0153

> <Gold.Chemscore.DEInternal>
1.6128

> <Gold.Chemscore.Rot>
2.5594

> <Gold.Chemscore.Internal.Correction>
   9.000000E+99

> <Gold.Chemscore.Hbonds>
donor molecule, donor type, donor heavy atom, donor atom, acceptor molecule, acceptor atom, score
      L1  H     5    56       P1  7948  1.00
      P1  H 10752 10763       L1     8  0.16

> <Gold.Chemscore.Hbond.Weighted>
-4.0955

> <Gold.Chemscore.Metal.Weighted>
-0.0000

> <Gold.Chemscore.Lipo.Weighted>
-15.4531

> <Gold.Chemscore.Internal_Hbond.Weighted>
0.0000

> <Gold.Chemscore.DEClash.Weighted>
0.0153

> <Gold.Chemscore.DEInternal.Weighted>
1.6128

> <Gold.Chemscore.Rot.Weighted>
6.5522

> <Gold.Chemscore.Internal.Correction.Weighted>
   9.000000E+99

> <Gold.Protein.RotatedTorsions>
[ 6907 6896 6895 6894 ] final  -40.60 input  -60.11 | X-H torsion
[ 7974 7965 7964 7962 ] final   55.34 input  175.53 | X-H torsion
[ 8008 7997 7996 7995 ] final   72.97 input   59.86 | X-H torsion
[ 10167 10162 10161 10158 ] final  -31.18 input  -65.29 | X-H torsion
[ 10718 10713 10712 10709 ] final -109.54 input   66.30 | X-H torsion
[ 10763 10752 10751 10750 ] final   82.52 input  -60.55 | X-H torsion
[ 11005 11000 10999 10996 ] final  -82.01 input  -57.11 | X-H torsion

> <Gold.Protein.ActiveResidues>
 VAL166  LYS551  ARG553  GLY616  TRP617  ASP618  TYR619  PRO620  LYS621  CYS622 
 ASP623  PHE694  ASN695  SER759  ASP760  ASP761  ALA762  ILE779  LEU786  VAL792 
 PHE793  MET794  SER795  GLU796  ALA797  LYS798  CYS799  TRP800  GLU811  SER814 

> <Gold.Protein.RotatedAtoms>
  150.9766  134.9129  159.7819 H   0  0  0  0  0  0  0  0  0  0  0  0  # atno 6907 bound_to 6896
  152.5208  134.3468  159.9247 H   0  0  0  0  0  0  0  0  0  0  0  0  # atno 6908 bound_to 6896
  151.3476  133.3897  159.2711 H   0  0  0  0  0  0  0  0  0  0  0  0  # atno 6909 bound_to 6896
  145.9515  139.3976  143.0303 H   0  0  0  0  0  0  0  0  0  0  0  0  # atno 7974 bound_to 7965
  155.7768  140.3483  155.5276 H   0  0  0  0  0  0  0  0  0  0  0  0  # atno 8008 bound_to 7997
  155.8768  140.0995  157.1533 H   0  0  0  0  0  0  0  0  0  0  0  0  # atno 8009 bound_to 7997
  154.4021  140.1330  156.4134 H   0  0  0  0  0  0  0  0  0  0  0  0  # atno 8010 bound_to 7997
  140.7239  143.3791  151.1635 H   0  0  0  0  0  0  0  0  0  0  0  0  # atno 10167 bound_to 10162
  156.0542  130.5769  150.8114 H   0  0  0  0  0  0  0  0  0  0  0  0  # atno 10718 bound_to 10713
  153.1210  135.4725  154.9196 H   0  0  0  0  0  0  0  0  0  0  0  0  # atno 10763 bound_to 10752
  154.7576  135.3122  154.8443 H   0  0  0  0  0  0  0  0  0  0  0  0  # atno 10764 bound_to 10752
  153.9008  135.6875  153.4809 H   0  0  0  0  0  0  0  0  0  0  0  0  # atno 10765 bound_to 10752
  141.1665  133.7224  156.8508 H   0  0  0  0  0  0  0  0  0  0  0  0  # atno 11005 bound_to 11000
  145.8165  140.9700  143.0921 LP  0  0  0  0  0  0  0  0  0  0  0  0  # atno 17320 bound_to 7965
  144.6796  139.9987  143.7484 LP  0  0  0  0  0  0  0  0  0  0  0  0  # atno 17321 bound_to 7965
  139.7376  143.8974  152.3040 LP  0  0  0  0  0  0  0  0  0  0  0  0  # atno 17342 bound_to 10162
  139.8785  144.7030  150.8905 LP  0  0  0  0  0  0  0  0  0  0  0  0  # atno 17343 bound_to 10162
  157.5498  131.0943  150.9712 LP  0  0  0  0  0  0  0  0  0  0  0  0  # atno 17370 bound_to 10713
  156.9975  130.5587  149.5308 LP  0  0  0  0  0  0  0  0  0  0  0  0  # atno 17371 bound_to 10713
  140.1917  134.8961  157.3068 LP  0  0  0  0  0  0  0  0  0  0  0  0  # atno 17394 bound_to 11000
  140.2283  134.3940  155.7533 LP  0  0  0  0  0  0  0  0  0  0  0  0  # atno 17395 bound_to 11000

$$$$
