AV-unprocessed.smi:269|AV-procd|sdf|2042|dock7
  -GOLD-   2262021263D 1   1.00000     0.00000
 Structure written by MMmdl.
 62 65  0  0  0  0  0  0  0  0  2 V2000
  146.9889  129.1343  151.9737 C   0  0  0  0  0  0  0  0  0  0  0  0
  146.4735  130.4405  152.5922 C   0  0  0  0  0  0  0  0  0  0  0  0
  145.4929  131.0938  151.7326 N   0  0  0  0  0  0  0  0  0  0  0  0
  145.5586  132.3685  151.3194 C   0  0  0  0  0  0  0  0  0  0  0  0
  146.4804  133.1295  151.6158 O   0  0  0  0  0  0  0  0  0  0  0  0
  144.4136  132.8507  150.4225 C   0  0  0  0  0  0  0  0  0  0  0  0
  143.7888  134.1091  150.9049 N   0  3  0  0  0  0  0  0  0  0  0  0
  144.6999  135.2831  150.8293 C   0  0  0  0  0  0  0  0  0  0  0  0
  143.9770  136.5723  151.2565 C   0  0  0  0  0  0  0  0  0  0  0  0
  143.3863  136.4180  152.5833 N   0  0  0  0  0  0  0  0  0  0  0  0
  144.1722  136.7667  153.6376 C   0  0  0  0  0  0  0  0  0  0  0  0
  143.9077  136.2640  154.8731 N   0  0  0  0  0  0  0  0  0  0  0  0
  144.6796  136.5846  155.9151 C   0  0  0  0  0  0  0  0  0  0  0  0
  145.7481  137.3815  155.9459 N   0  0  0  0  0  0  0  0  0  0  0  0
  146.0128  137.9054  154.7156 C   0  0  0  0  0  0  0  0  0  0  0  0
  145.2842  137.6499  153.5188 C   0  0  0  0  0  0  0  0  0  0  0  0
  145.8478  138.3601  152.4658 N   0  0  0  0  0  0  0  0  0  0  0  0
  146.8590  138.9838  153.0044 C   0  0  0  0  0  0  0  0  0  0  0  0
  147.0228  138.7831  154.3571 N   0  0  0  0  0  0  0  0  0  0  0  0
  148.0639  139.3510  155.2046 C   0  0  0  0  0  0  0  0  0  0  0  0
  148.0252  140.9060  155.3523 C   0  0  0  0  0  0  0  0  0  0  0  0
  148.1200  141.6005  153.9675 C   0  0  0  0  0  0  0  0  0  0  0  0
  149.3578  141.3557  153.3294 O   0  0  0  0  0  0  0  0  0  0  0  0
  146.7173  141.3863  156.0309 C   0  0  0  0  0  0  0  0  0  0  0  0
  146.6518  141.0247  157.5263 C   0  0  0  0  0  0  0  0  0  0  0  0
  147.7787  141.5647  158.2037 O   0  0  0  0  0  0  0  0  0  0  0  0
  149.0095  141.0345  157.7295 C   0  0  0  0  0  0  0  0  0  0  0  0
  149.1978  141.3888  156.2430 C   0  0  0  0  0  0  0  0  0  0  0  0
  142.4944  135.2643  152.7046 C   0  0  0  0  0  0  0  0  0  0  0  0
  143.1878  133.9623  152.2555 C   0  0  0  0  0  0  0  0  0  0  0  0
  147.6978  128.6445  152.6416 H   0  0  0  0  0  0  0  0  0  0  0  0
  147.4994  129.3160  151.0274 H   0  0  0  0  0  0  0  0  0  0  0  0
  146.1720  128.4363  151.7869 H   0  0  0  0  0  0  0  0  0  0  0  0
  145.9987  130.2304  153.5510 H   0  0  0  0  0  0  0  0  0  0  0  0
  147.3048  131.1164  152.7996 H   0  0  0  0  0  0  0  0  0  0  0  0
  144.7049  130.5355  151.4366 H   0  0  0  0  0  0  0  0  0  0  0  0
  144.8389  133.0109  149.4308 H   0  0  0  0  0  0  0  0  0  0  0  0
  143.6539  132.0741  150.3165 H   0  0  0  0  0  0  0  0  0  0  0  0
  145.5656  135.1119  151.4712 H   0  0  0  0  0  0  0  0  0  0  0  0
  145.0788  135.4051  149.8145 H   0  0  0  0  0  0  0  0  0  0  0  0
  144.6707  137.4100  151.2090 H   0  0  0  0  0  0  0  0  0  0  0  0
  143.1778  136.7999  150.5500 H   0  0  0  0  0  0  0  0  0  0  0  0
  144.4020  136.1388  156.8591 H   0  0  0  0  0  0  0  0  0  0  0  0
  147.5128  139.6182  152.4239 H   0  0  0  0  0  0  0  0  0  0  0  0
  147.9992  138.8634  156.1763 H   0  0  0  0  0  0  0  0  0  0  0  0
  149.0261  139.0403  154.7959 H   0  0  0  0  0  0  0  0  0  0  0  0
  147.3131  141.2797  153.3088 H   0  0  0  0  0  0  0  0  0  0  0  0
  148.0102  142.6807  154.0723 H   0  0  0  0  0  0  0  0  0  0  0  0
  149.2288  140.6980  152.6636 H   0  0  0  0  0  0  0  0  0  0  0  0
  146.6462  142.4720  155.9507 H   0  0  0  0  0  0  0  0  0  0  0  0
  145.8410  140.9996  155.5115 H   0  0  0  0  0  0  0  0  0  0  0  0
  145.7477  141.4431  157.9685 H   0  0  0  0  0  0  0  0  0  0  0  0
  146.6039  139.9471  157.6816 H   0  0  0  0  0  0  0  0  0  0  0  0
  149.8209  141.4649  158.3168 H   0  0  0  0  0  0  0  0  0  0  0  0
  149.0453  139.9572  157.8941 H   0  0  0  0  0  0  0  0  0  0  0  0
  150.1436  140.9785  155.8871 H   0  0  0  0  0  0  0  0  0  0  0  0
  149.2927  142.4729  156.1649 H   0  0  0  0  0  0  0  0  0  0  0  0
  142.1111  135.1678  153.7212 H   0  0  0  0  0  0  0  0  0  0  0  0
  141.6242  135.4475  152.0734 H   0  0  0  0  0  0  0  0  0  0  0  0
  142.4605  133.1497  152.2500 H   0  0  0  0  0  0  0  0  0  0  0  0
  143.9672  133.6825  152.9655 H   0  0  0  0  0  0  0  0  0  0  0  0
  143.0210  134.2993  150.2763 H   0  0  0  0  0  0  0  0  0  0  0  0
  1  2  1  0  0  0  0
  1 31  1  0  0  0  0
  1 32  1  0  0  0  0
  1 33  1  0  0  0  0
  2  3  1  0  0  0  0
  2 34  1  0  0  0  0
  2 35  1  0  0  0  0
  3  4  1  0  0  0  0
  3 36  1  0  0  0  0
  4  5  2  0  0  0  0
  4  6  1  0  0  0  0
  6  7  1  0  0  0  0
  6 37  1  0  0  0  0
  6 38  1  0  0  0  0
  7 30  1  0  0  0  0
  7  8  1  0  0  0  0
  7 62  1  0  0  0  0
  8  9  1  0  0  0  0
  8 39  1  0  0  0  0
  8 40  1  0  0  0  0
  9 10  1  0  0  0  0
  9 41  1  0  0  0  0
  9 42  1  0  0  0  0
 10 11  1  0  0  0  0
 10 29  1  0  0  0  0
 11 16  1  0  0  0  0
 11 12  2  0  0  0  0
 12 13  1  0  0  0  0
 13 14  2  0  0  0  0
 13 43  1  0  0  0  0
 14 15  1  0  0  0  0
 15 19  1  0  0  0  0
 15 16  2  0  0  0  0
 16 17  1  0  0  0  0
 17 18  2  0  0  0  0
 18 19  1  0  0  0  0
 18 44  1  0  0  0  0
 19 20  1  0  0  0  0
 20 21  1  0  0  0  0
 20 45  1  0  0  0  0
 20 46  1  0  0  0  0
 21 28  1  0  0  0  0
 21 22  1  0  0  0  0
 21 24  1  0  0  0  0
 22 23  1  0  0  0  0
 22 47  1  0  0  0  0
 22 48  1  0  0  0  0
 23 49  1  0  0  0  0
 24 25  1  0  0  0  0
 24 50  1  0  0  0  0
 24 51  1  0  0  0  0
 25 26  1  0  0  0  0
 25 52  1  0  0  0  0
 25 53  1  0  0  0  0
 26 27  1  0  0  0  0
 27 28  1  0  0  0  0
 27 54  1  0  0  0  0
 27 55  1  0  0  0  0
 28 56  1  0  0  0  0
 28 57  1  0  0  0  0
 29 30  1  0  0  0  0
 29 58  1  0  0  0  0
 29 59  1  0  0  0  0
 30 60  1  0  0  0  0
 30 61  1  0  0  0  0
M  CHG  1   7   1
M  END
> <s_m_source_file>
AV-unprocessed.smi

> <i_m_source_file_index>
269

> <i_lp_mmshare_version>
43012

> <i_f3d_flags>
0

> <s_epik_input>
W0NIM11bQ0gyXVtOSF1DKD1PKVtDSDJdTjFbQ0gyXVtDSDJdTihbQ0gyXVtDSDJdMSljKG5bY0hdbjIpYyhjMjMpbltjSF1uM1tDSDJdQzQoW0NIMl1bT0hdKVtDSDJdW0NIMl1PW0NIMl1bQ0gyXTQ=

> <s_epik_cmdline>
J2VwaWtfcHl0aG9uJywgJy1waCcsICc3LjAnLCAnLXRuJywgJzgnLCAnLW1hJywgJzIwMCcsICctbWV0YWxfYmluZGluZycsICctaW1hZScsICc8aW5maWxlLm1hZT4nLCAnLW9tYWUnLCAnPG91dGZpbGUubWFlPic=

> <r_lp_tautomer_probability>
1

> <r_epik_Ionization_Penalty>
0.146524

> <r_epik_Ionization_Penalty_Charging>
0.146459

> <r_epik_Ionization_Penalty_Neutral>
6.45448e-05

> <r_epik_State_Penalty>
0.136576

> <r_epik_Charging_Adjusted_Penalty>
0.283035

> <i_epik_Tot_Q>
1

> <i_epik_Tot_abs_Q>
1

> <r_epik_Metal_State_Penalty>
0.148847

> <b_epik_Metal_Only>
0

> <s_lp_Force_Field>
OPLS_2005

> <r_lp_Energy>
42.6281

> <b_lp_Chiralities_Consistent>
1

> <s_lp_Variant>
AV-unprocessed.smi:269-1

> <Gold.Version>
5.8.1

> <Gold.Id.Protein>
6NUR|6NUR_protein|mol2

> <Gold.PLP.Fitness>
47.5776

> <Gold.PLP.PLP>
-33.2356

> <Gold.PLP.part.hbond>
-4.3984

> <Gold.PLP.part.metal>
0.0000

> <Gold.PLP.part.buried>
-5.2999

> <Gold.PLP.part.nonpolar>
-26.1915

> <Gold.PLP.part.repulsive>
0.6933

> <Gold.PLP.ligand.clash>
0.0000

> <Gold.PLP.ligand.torsion>
0.6415

> <Gold.PLP.Chemscore.Hbond>
4.0071

> <Gold.PLP.Chemscore.CHOScore>
1.0000

> <Gold.PLP.Chemscore.Metal>
0.0000

> <Gold.Chemscore.Hbonds>
donor molecule, donor type, donor heavy atom, donor atom, acceptor molecule, acceptor atom, score
      L1  H     7    62       P1 10186  1.46
      L1  H    23    49       P1  7957  0.99
      P1  H  7989  7998       L1    23  0.02
      P1  H  8011  8017       L1    23  0.63
      L1  C    18    44       P1  7957  1.00

> <Gold.PLP.Chemscore.Internal.Correction>
0.6036

> <Gold.Rescore>
     Score         DG    S(hbond)    S(metal)    S(lipo)     H(rot)  DE(clash)    DE(int)     intcor
      8.33     -11.81       1.92        0.00      72.99       3.37       1.43       2.05       ----

> <Gold.Chemscore.Fitness>
8.3263

> <Gold.Chemscore.DG>
-11.8097

> <Gold.Chemscore.ZeroCoef>
-5.4800

> <Gold.Chemscore.Hbond>
1.9241

> <Gold.Chemscore.Metal>
0.0000

> <Gold.Chemscore.Lipo>
72.9918

> <Gold.Chemscore.Internal_Hbond>
0.0000

> <Gold.Chemscore.DEClash>
1.4335

> <Gold.Chemscore.DEInternal>
2.0500

> <Gold.Chemscore.Rot>
3.3738

> <Gold.Chemscore.Internal.Correction>
   9.000000E+99

> <Gold.Chemscore.Hbonds>
donor molecule, donor type, donor heavy atom, donor atom, acceptor molecule, acceptor atom, score
      L1  H     7    62       P1 10186  0.64
      L1  H    23    49       P1  7957  0.94
      P1  H  8011  8017       L1    23  0.04

> <Gold.Chemscore.Hbond.Weighted>
-6.4265

> <Gold.Chemscore.Metal.Weighted>
-0.0000

> <Gold.Chemscore.Lipo.Weighted>
-8.5400

> <Gold.Chemscore.Internal_Hbond.Weighted>
0.0000

> <Gold.Chemscore.DEClash.Weighted>
1.4335

> <Gold.Chemscore.DEInternal.Weighted>
2.0500

> <Gold.Chemscore.Rot.Weighted>
8.6369

> <Gold.Chemscore.Internal.Correction.Weighted>
   9.000000E+99

> <Gold.Protein.RotatedTorsions>
[ 6907 6896 6895 6894 ] final -133.90 input  -60.11 | X-H torsion
[ 7974 7965 7964 7962 ] final  162.86 input  175.53 | X-H torsion
[ 8008 7997 7996 7995 ] final  162.44 input   59.86 | X-H torsion
[ 10167 10162 10161 10158 ] final  112.25 input  -65.29 | X-H torsion
[ 10718 10713 10712 10709 ] final   12.74 input   66.30 | X-H torsion
[ 10763 10752 10751 10750 ] final  178.80 input  -60.55 | X-H torsion
[ 11005 11000 10999 10996 ] final  167.55 input  -57.11 | X-H torsion

> <Gold.Protein.ActiveResidues>
 VAL166  LYS551  ARG553  GLY616  TRP617  ASP618  TYR619  PRO620  LYS621  CYS622 
 ASP623  PHE694  ASN695  SER759  ASP760  ASP761  ALA762  ILE779  LEU786  VAL792 
 PHE793  MET794  SER795  GLU796  ALA797  LYS798  CYS799  TRP800  GLU811  SER814 

> <Gold.Protein.RotatedAtoms>
  150.9795  133.6260  159.2724 H   0  0  0  0  0  0  0  0  0  0  0  0  # atno 6907 bound_to 6896
  151.3520  135.0885  159.9416 H   0  0  0  0  0  0  0  0  0  0  0  0  # atno 6908 bound_to 6896
  152.5211  133.9386  159.7670 H   0  0  0  0  0  0  0  0  0  0  0  0  # atno 6909 bound_to 6896
  144.7617  139.8100  143.6330 H   0  0  0  0  0  0  0  0  0  0  0  0  # atno 7974 bound_to 7965
  156.2031  140.1750  156.7858 H   0  0  0  0  0  0  0  0  0  0  0  0  # atno 8008 bound_to 7997
  154.5618  140.0698  156.8861 H   0  0  0  0  0  0  0  0  0  0  0  0  # atno 8009 bound_to 7997
  155.2834  140.3350  155.4259 H   0  0  0  0  0  0  0  0  0  0  0  0  # atno 8010 bound_to 7997
  139.6550  144.7129  151.1974 H   0  0  0  0  0  0  0  0  0  0  0  0  # atno 10167 bound_to 10162
  157.0145  130.6130  149.5712 H   0  0  0  0  0  0  0  0  0  0  0  0  # atno 10718 bound_to 10713
  154.5124  135.2789  155.1331 H   0  0  0  0  0  0  0  0  0  0  0  0  # atno 10763 bound_to 10752
  154.2921  135.6265  153.5393 H   0  0  0  0  0  0  0  0  0  0  0  0  # atno 10764 bound_to 10752
  152.9921  135.5676  154.5593 H   0  0  0  0  0  0  0  0  0  0  0  0  # atno 10765 bound_to 10752
  140.2780  134.7773  157.3733 H   0  0  0  0  0  0  0  0  0  0  0  0  # atno 11005 bound_to 11000
  146.1685  139.4827  142.9942 LP  0  0  0  0  0  0  0  0  0  0  0  0  # atno 17320 bound_to 7965
  145.6600  141.0243  143.1714 LP  0  0  0  0  0  0  0  0  0  0  0  0  # atno 17321 bound_to 7965
  140.7555  143.6087  150.8627 LP  0  0  0  0  0  0  0  0  0  0  0  0  # atno 17342 bound_to 10162
  139.9739  143.6026  152.2965 LP  0  0  0  0  0  0  0  0  0  0  0  0  # atno 17343 bound_to 10162
  156.0124  130.5216  150.8030 LP  0  0  0  0  0  0  0  0  0  0  0  0  # atno 17370 bound_to 10713
  157.5295  131.0936  150.9973 LP  0  0  0  0  0  0  0  0  0  0  0  0  # atno 17371 bound_to 10713
  140.1310  134.5095  155.8105 LP  0  0  0  0  0  0  0  0  0  0  0  0  # atno 17394 bound_to 11000
  141.2167  133.6790  156.7040 LP  0  0  0  0  0  0  0  0  0  0  0  0  # atno 17395 bound_to 11000

$$$$
