AV-unprocessed.smi:1673|AV-procd|sdf|6711|dock3
  -GOLD-   22720 7453D 1   1.00000     0.00000
 Structure written by MMmdl.
 39 40  0  0  0  0  0  0  0  0  1 V2000
  147.1003  140.8160  154.0387 C   0  0  0  0  0  0  0  0  0  0  0  0
  148.4616  140.2714  154.3721 C   0  0  0  0  0  0  0  0  0  0  0  0
  149.3871  141.0965  154.8393 N   0  0  0  0  0  0  0  0  0  0  0  0
  150.5599  140.3415  154.9945 O   0  0  0  0  0  0  0  0  0  0  0  0
  150.3121  139.0611  154.6140 C   0  0  0  0  0  0  0  0  0  0  0  0
  151.4487  138.0986  154.6900 C   0  0  0  0  0  0  0  0  0  0  0  0
  149.0043  138.9590  154.2422 C   0  0  0  0  0  0  0  0  0  0  0  0
  148.3957  137.7747  153.7570 N   0  0  0  0  0  0  0  0  0  0  0  0
  147.2156  137.2619  154.1360 C   0  0  0  0  0  0  0  0  0  0  0  0
  146.5027  137.7226  155.0270 O   0  0  0  0  0  0  0  0  0  0  0  0
  146.9132  136.1648  153.4275 N   0  0  0  0  0  0  0  0  0  0  0  0
  145.7017  135.3542  153.5667 C   0  0  2  0  0  0  0  0  0  0  0  0
  146.0431  133.8662  153.3508 C   0  0  0  0  0  0  0  0  0  0  0  0
  146.4005  133.5570  151.8864 C   0  0  0  0  0  0  0  0  0  0  0  0
  145.2857  134.0131  150.9333 C   0  0  0  0  0  0  0  0  0  0  0  0
  144.9543  135.5013  151.1287 C   0  0  0  0  0  0  0  0  0  0  0  0
  144.5841  135.8125  152.5938 C   0  0  2  0  0  0  0  0  0  0  0  0
  144.1875  137.2878  152.7756 C   0  0  0  0  0  0  0  0  0  0  0  0
  146.6592  140.2890  153.1926 H   0  0  0  0  0  0  0  0  0  0  0  0
  147.1473  141.8724  153.7725 H   0  0  0  0  0  0  0  0  0  0  0  0
  146.4221  140.7195  154.8866 H   0  0  0  0  0  0  0  0  0  0  0  0
  151.1812  137.1394  154.2469 H   0  0  0  0  0  0  0  0  0  0  0  0
  151.7356  137.9230  155.7265 H   0  0  0  0  0  0  0  0  0  0  0  0
  152.3183  138.4847  154.1583 H   0  0  0  0  0  0  0  0  0  0  0  0
  148.9436  137.2283  153.1086 H   0  0  0  0  0  0  0  0  0  0  0  0
  147.5697  135.8674  152.7207 H   0  0  0  0  0  0  0  0  0  0  0  0
  145.3236  135.4507  154.5861 H   0  0  0  0  0  0  0  0  0  0  0  0
  146.8619  133.5674  154.0066 H   0  0  0  0  0  0  0  0  0  0  0  0
  145.1862  133.2575  153.6424 H   0  0  0  0  0  0  0  0  0  0  0  0
  147.3350  134.0522  151.6203 H   0  0  0  0  0  0  0  0  0  0  0  0
  146.5758  132.4876  151.7663 H   0  0  0  0  0  0  0  0  0  0  0  0
  145.5830  133.8307  149.9003 H   0  0  0  0  0  0  0  0  0  0  0  0
  144.3901  133.4149  151.1062 H   0  0  0  0  0  0  0  0  0  0  0  0
  145.8069  136.1090  150.8225 H   0  0  0  0  0  0  0  0  0  0  0  0
  144.1303  135.7779  150.4704 H   0  0  0  0  0  0  0  0  0  0  0  0
  143.6971  135.2231  152.8316 H   0  0  0  0  0  0  0  0  0  0  0  0
  144.9939  137.9629  152.4887 H   0  0  0  0  0  0  0  0  0  0  0  0
  143.9287  137.4991  153.8136 H   0  0  0  0  0  0  0  0  0  0  0  0
  143.3201  137.5363  152.1638 H   0  0  0  0  0  0  0  0  0  0  0  0
  1  2  1  0  0  0  0
  1 19  1  0  0  0  0
  1 20  1  0  0  0  0
  1 21  1  0  0  0  0
  2  7  1  0  0  0  0
  2  3  2  0  0  0  0
  3  4  1  0  0  0  0
  4  5  1  0  0  0  0
  5  6  1  0  0  0  0
  5  7  2  0  0  0  0
  6 22  1  0  0  0  0
  6 23  1  0  0  0  0
  6 24  1  0  0  0  0
  7  8  1  0  0  0  0
  8  9  1  0  0  0  0
  8 25  1  0  0  0  0
  9 10  2  0  0  0  0
  9 11  1  0  0  0  0
 11 12  1  0  0  0  0
 11 26  1  0  0  0  0
 12 17  1  0  0  0  0
 12 13  1  0  0  0  0
 12 27  1  0  0  0  0
 13 14  1  0  0  0  0
 13 28  1  0  0  0  0
 13 29  1  0  0  0  0
 14 15  1  0  0  0  0
 14 30  1  0  0  0  0
 14 31  1  0  0  0  0
 15 16  1  0  0  0  0
 15 32  1  0  0  0  0
 15 33  1  0  0  0  0
 16 17  1  0  0  0  0
 16 34  1  0  0  0  0
 16 35  1  0  0  0  0
 17 18  1  0  0  0  0
 17 36  1  0  0  0  0
 18 37  1  0  0  0  0
 18 38  1  0  0  0  0
 18 39  1  0  0  0  0
M  END
> <s_m_source_file>
AV-unprocessed.smi

> <i_m_source_file_index>
1673

> <i_lp_mmshare_version>
43012

> <i_f3d_flags>
0

> <s_epik_input>
W0NIM11jMW5vYyhbQ0gzXSljMVtOSF1DKD1PKVtOSF1bQ0BASF0yW0NIMl1bQ0gyXVtDSDJdW0NIMl1bQ0BIXTJbQ0gzXQ==

> <s_epik_cmdline>
J2VwaWtfcHl0aG9uJywgJy1waCcsICc3LjAnLCAnLXRuJywgJzgnLCAnLW1hJywgJzIwMCcsICctbWV0YWxfYmluZGluZycsICctaW1hZScsICc8aW5maWxlLm1hZT4nLCAnLW9tYWUnLCAnPG91dGZpbGUubWFlPic=

> <r_lp_tautomer_probability>
1

> <r_epik_Ionization_Penalty>
4.01865e-05

> <r_epik_Ionization_Penalty_Charging>
0

> <r_epik_Ionization_Penalty_Neutral>
4.01865e-05

> <r_epik_State_Penalty>
-0

> <r_epik_Charging_Adjusted_Penalty>
0

> <i_epik_Tot_Q>
0

> <i_epik_Tot_abs_Q>
0

> <r_epik_Metal_State_Penalty>
-0

> <b_epik_Metal_Only>
0

> <s_lp_Force_Field>
OPLS_2005

> <r_lp_Energy>
11.4641

> <b_lp_Chiralities_Consistent>
1

> <s_lp_Variant>
AV-unprocessed.smi:1673-3

> <Gold.Version>
5.8.1

> <Gold.Id.Protein>
6NUR|6NUR_protein|mol2

> <Gold.PLP.Fitness>
34.5726

> <Gold.PLP.PLP>
-27.1662

> <Gold.PLP.part.hbond>
-3.1932

> <Gold.PLP.part.metal>
0.0000

> <Gold.PLP.part.buried>
-1.5934

> <Gold.PLP.part.nonpolar>
-22.6576

> <Gold.PLP.part.repulsive>
0.3026

> <Gold.PLP.ligand.clash>
0.0000

> <Gold.PLP.ligand.torsion>
0.7740

> <Gold.PLP.Chemscore.Hbond>
2.9040

> <Gold.PLP.Chemscore.CHOScore>
0.0000

> <Gold.PLP.Chemscore.Metal>
0.0000

> <Gold.Chemscore.Hbonds>
donor molecule, donor type, donor heavy atom, donor atom, acceptor molecule, acceptor atom, score
      L1  H     8    25       P1  7948  0.98
      L1  H    11    26       P1  7948  0.96
      P1  H  7989  7998       L1     4  0.95

> <Gold.PLP.Chemscore.Internal.Correction>
0.2424

> <Gold.Rescore>
     Score         DG    S(hbond)    S(metal)    S(lipo)     H(rot)  DE(clash)    DE(int)     intcor
     16.18     -16.89       2.08        0.00      59.97       1.00       0.01       0.70       ----

> <Gold.Chemscore.Fitness>
16.1843

> <Gold.Chemscore.DG>
-16.8882

> <Gold.Chemscore.ZeroCoef>
-5.4800

> <Gold.Chemscore.Hbond>
2.0813

> <Gold.Chemscore.Metal>
0.0000

> <Gold.Chemscore.Lipo>
59.9704

> <Gold.Chemscore.Internal_Hbond>
0.0000

> <Gold.Chemscore.DEClash>
0.0060

> <Gold.Chemscore.DEInternal>
0.6980

> <Gold.Chemscore.Rot>
1.0000

> <Gold.Chemscore.Internal.Correction>
   9.000000E+99

> <Gold.Chemscore.Hbonds>
donor molecule, donor type, donor heavy atom, donor atom, acceptor molecule, acceptor atom, score
      L1  H     8    25       P1  7948  0.91
      L1  H    11    26       P1  7948  0.92
      P1  H  7989  7998       L1     4  0.08

> <Gold.Chemscore.Hbond.Weighted>
-6.9517

> <Gold.Chemscore.Metal.Weighted>
-0.0000

> <Gold.Chemscore.Lipo.Weighted>
-7.0165

> <Gold.Chemscore.Internal_Hbond.Weighted>
0.0000

> <Gold.Chemscore.DEClash.Weighted>
0.0060

> <Gold.Chemscore.DEInternal.Weighted>
0.6980

> <Gold.Chemscore.Rot.Weighted>
2.5600

> <Gold.Chemscore.Internal.Correction.Weighted>
   9.000000E+99

> <Gold.Protein.RotatedTorsions>
[ 6907 6896 6895 6894 ] final   28.78 input  -60.11 | X-H torsion
[ 7974 7965 7964 7962 ] final -163.78 input  175.53 | X-H torsion
[ 8008 7997 7996 7995 ] final  -51.01 input   59.86 | X-H torsion
[ 10167 10162 10161 10158 ] final   31.34 input  -65.29 | X-H torsion
[ 10718 10713 10712 10709 ] final  -76.07 input   66.30 | X-H torsion
[ 10763 10752 10751 10750 ] final -136.90 input  -60.55 | X-H torsion
[ 11005 11000 10999 10996 ] final  141.87 input  -57.11 | X-H torsion

> <Gold.Protein.ActiveResidues>
 VAL166  LYS551  ARG553  GLY616  TRP617  ASP618  TYR619  PRO620  LYS621  CYS622 
 ASP623  PHE694  ASN695  SER759  ASP760  ASP761  ALA762  ILE779  LEU786  VAL792 
 PHE793  MET794  SER795  GLU796  ALA797  LYS798  CYS799  TRP800  GLU811  SER814 

> <Gold.Protein.RotatedAtoms>
  152.0219  134.9817  160.0570 H   0  0  0  0  0  0  0  0  0  0  0  0  # atno 6907 bound_to 6896
  152.1328  133.4413  159.4737 H   0  0  0  0  0  0  0  0  0  0  0  0  # atno 6908 bound_to 6896
  150.6858  134.2318  159.4480 H   0  0  0  0  0  0  0  0  0  0  0  0  # atno 6909 bound_to 6896
  144.7316  140.3057  143.6197 H   0  0  0  0  0  0  0  0  0  0  0  0  # atno 7974 bound_to 7965
  154.4074  140.1258  156.4759 H   0  0  0  0  0  0  0  0  0  0  0  0  # atno 8008 bound_to 7997
  155.7133  140.3493  155.4964 H   0  0  0  0  0  0  0  0  0  0  0  0  # atno 8009 bound_to 7997
  155.9280  140.1064  157.1144 H   0  0  0  0  0  0  0  0  0  0  0  0  # atno 8010 bound_to 7997
  140.4597  144.0925  150.6210 H   0  0  0  0  0  0  0  0  0  0  0  0  # atno 10167 bound_to 10162
  156.0187  130.4456  150.3138 H   0  0  0  0  0  0  0  0  0  0  0  0  # atno 10718 bound_to 10713
  154.8674  135.3658  154.5136 H   0  0  0  0  0  0  0  0  0  0  0  0  # atno 10763 bound_to 10752
  153.5770  135.7019  153.5484 H   0  0  0  0  0  0  0  0  0  0  0  0  # atno 10764 bound_to 10752
  153.3491  135.4077  155.1595 H   0  0  0  0  0  0  0  0  0  0  0  0  # atno 10765 bound_to 10752
  140.0434  134.9293  157.0885 H   0  0  0  0  0  0  0  0  0  0  0  0  # atno 11005 bound_to 11000
  145.7715  139.1859  143.2209 LP  0  0  0  0  0  0  0  0  0  0  0  0  # atno 17320 bound_to 7965
  146.0907  140.7659  142.9597 LP  0  0  0  0  0  0  0  0  0  0  0  0  # atno 17321 bound_to 7965
  140.4108  143.2658  151.9835 LP  0  0  0  0  0  0  0  0  0  0  0  0  # atno 17342 bound_to 10162
  139.4805  144.5917  151.7760 LP  0  0  0  0  0  0  0  0  0  0  0  0  # atno 17343 bound_to 10162
  157.1239  131.0254  151.2998 LP  0  0  0  0  0  0  0  0  0  0  0  0  # atno 17370 bound_to 10713
  157.4606  130.7651  149.7232 LP  0  0  0  0  0  0  0  0  0  0  0  0  # atno 17371 bound_to 10713
  140.4033  134.2059  155.7163 LP  0  0  0  0  0  0  0  0  0  0  0  0  # atno 17394 bound_to 11000
  141.1894  133.8238  157.0956 LP  0  0  0  0  0  0  0  0  0  0  0  0  # atno 17395 bound_to 11000

$$$$
