AV-unprocessed.smi:1730|AV-procd|sdf|6972|dock3
  -GOLD-   22720 8183D 1   1.00000     0.00000
 Structure written by MMmdl.
 38 39  0  0  0  0  0  0  0  0  1 V2000
  151.8010  138.3275  154.5845 C   0  0  0  0  0  0  0  0  0  0  0  0
  150.4444  138.2596  154.1589 O   0  0  0  0  0  0  0  0  0  0  0  0
  149.6676  139.3992  154.2472 C   0  0  0  0  0  0  0  0  0  0  0  0
  150.2271  140.5239  154.7602 N   0  0  0  0  0  0  0  0  0  0  0  0
  149.4689  141.6360  154.8497 C   0  0  0  0  0  0  0  0  0  0  0  0
  148.1229  141.6858  154.4431 C   0  0  0  0  0  0  0  0  0  0  0  0
  147.5404  140.5211  153.9101 C   0  0  0  0  0  0  0  0  0  0  0  0
  148.3281  139.3503  153.7961 C   0  0  0  0  0  0  0  0  0  0  0  0
  147.8265  138.1188  153.2942 N   0  0  0  0  0  0  0  0  0  0  0  0
  146.5453  137.7630  153.1032 C   0  0  0  0  0  0  0  0  0  0  0  0
  145.5700  138.4781  153.3329 O   0  0  0  0  0  0  0  0  0  0  0  0
  146.4586  136.5236  152.5990 N   0  0  0  0  0  0  0  0  0  0  0  0
  145.2232  135.8441  152.2147 C   0  0  2  0  0  0  0  0  0  0  0  0
  144.6251  135.1714  153.4600 C   0  0  0  0  0  0  0  0  0  0  0  0
  145.5160  134.8368  151.0834 C   0  0  1  0  0  0  0  0  0  0  0  0
  146.3959  133.6545  151.4935 C   0  0  0  0  0  0  0  0  0  0  0  0
  146.0076  132.6124  150.4705 C   0  0  0  0  0  0  0  0  0  0  0  0
  144.5081  132.8541  150.3370 C   0  0  0  0  0  0  0  0  0  0  0  0
  144.3078  134.2366  150.6177 O   0  0  0  0  0  0  0  0  0  0  0  0
  152.2723  137.3550  154.4431 H   0  0  0  0  0  0  0  0  0  0  0  0
  151.8744  138.5798  155.6433 H   0  0  0  0  0  0  0  0  0  0  0  0
  152.3668  139.0564  154.0021 H   0  0  0  0  0  0  0  0  0  0  0  0
  149.9476  142.5106  155.2646 H   0  0  0  0  0  0  0  0  0  0  0  0
  147.5485  142.5948  154.5425 H   0  0  0  0  0  0  0  0  0  0  0  0
  146.5026  140.5414  153.6147 H   0  0  0  0  0  0  0  0  0  0  0  0
  148.5249  137.4683  152.9652 H   0  0  0  0  0  0  0  0  0  0  0  0
  147.3178  136.0186  152.4402 H   0  0  0  0  0  0  0  0  0  0  0  0
  144.4954  136.5728  151.8527 H   0  0  0  0  0  0  0  0  0  0  0  0
  143.6728  134.6914  153.2344 H   0  0  0  0  0  0  0  0  0  0  0  0
  144.4397  135.9023  154.2480 H   0  0  0  0  0  0  0  0  0  0  0  0
  145.2948  134.4106  153.8621 H   0  0  0  0  0  0  0  0  0  0  0  0
  145.9781  135.3457  150.2356 H   0  0  0  0  0  0  0  0  0  0  0  0
  147.4608  133.8890  151.4776 H   0  0  0  0  0  0  0  0  0  0  0  0
  146.1354  133.3078  152.4948 H   0  0  0  0  0  0  0  0  0  0  0  0
  146.5081  132.8141  149.5223 H   0  0  0  0  0  0  0  0  0  0  0  0
  146.2507  131.5949  150.7775 H   0  0  0  0  0  0  0  0  0  0  0  0
  144.1312  132.5896  149.3490 H   0  0  0  0  0  0  0  0  0  0  0  0
  143.9598  132.2695  151.0768 H   0  0  0  0  0  0  0  0  0  0  0  0
  1  2  1  0  0  0  0
  1 20  1  0  0  0  0
  1 21  1  0  0  0  0
  1 22  1  0  0  0  0
  2  3  1  0  0  0  0
  3  8  1  0  0  0  0
  3  4  2  0  0  0  0
  4  5  1  0  0  0  0
  5  6  2  0  0  0  0
  5 23  1  0  0  0  0
  6  7  1  0  0  0  0
  6 24  1  0  0  0  0
  7  8  2  0  0  0  0
  7 25  1  0  0  0  0
  8  9  1  0  0  0  0
  9 10  1  0  0  0  0
  9 26  1  0  0  0  0
 10 11  2  0  0  0  0
 10 12  1  0  0  0  0
 12 13  1  0  0  0  0
 12 27  1  0  0  0  0
 13 14  1  0  0  0  0
 13 15  1  0  0  0  0
 13 28  1  0  0  0  0
 14 29  1  0  0  0  0
 14 30  1  0  0  0  0
 14 31  1  0  0  0  0
 15 19  1  0  0  0  0
 15 16  1  0  0  0  0
 15 32  1  0  0  0  0
 16 17  1  0  0  0  0
 16 33  1  0  0  0  0
 16 34  1  0  0  0  0
 17 18  1  0  0  0  0
 17 35  1  0  0  0  0
 17 36  1  0  0  0  0
 18 19  1  0  0  0  0
 18 37  1  0  0  0  0
 18 38  1  0  0  0  0
M  END
> <s_m_source_file>
AV-unprocessed.smi

> <i_m_source_file_index>
1730

> <i_lp_mmshare_version>
43012

> <i_f3d_flags>
0

> <s_epik_input>
W0NIM11PYzFuW2NIXVtjSF1bY0hdYzFbTkhdQyg9TylbTkhdW0NASF0oW0NIM10pW0NAQEhdMltDSDJdW0NIMl1bQ0gyXU8y

> <s_epik_cmdline>
J2VwaWtfcHl0aG9uJywgJy1waCcsICc3LjAnLCAnLXRuJywgJzgnLCAnLW1hJywgJzIwMCcsICctbWV0YWxfYmluZGluZycsICctaW1hZScsICc8aW5maWxlLm1hZT4nLCAnLW9tYWUnLCAnPG91dGZpbGUubWFlPic=

> <r_lp_tautomer_probability>
1

> <r_epik_Ionization_Penalty>
9.187e-05

> <r_epik_Ionization_Penalty_Charging>
0

> <r_epik_Ionization_Penalty_Neutral>
9.187e-05

> <r_epik_State_Penalty>
-0

> <r_epik_Charging_Adjusted_Penalty>
0

> <i_epik_Tot_Q>
0

> <i_epik_Tot_abs_Q>
0

> <r_epik_Metal_State_Penalty>
-0

> <b_epik_Metal_Only>
0

> <s_lp_Force_Field>
OPLS_2005

> <r_lp_Energy>
20.4817

> <b_lp_Chiralities_Consistent>
1

> <s_lp_Variant>
AV-unprocessed.smi:1730-3

> <Gold.Version>
5.8.1

> <Gold.Id.Protein>
6NUR|6NUR_protein|mol2

> <Gold.PLP.Fitness>
41.8194

> <Gold.PLP.PLP>
-31.3032

> <Gold.PLP.part.hbond>
-3.0407

> <Gold.PLP.part.metal>
0.0000

> <Gold.PLP.part.buried>
-3.5332

> <Gold.PLP.part.nonpolar>
-27.2265

> <Gold.PLP.part.repulsive>
2.4555

> <Gold.PLP.ligand.clash>
0.0000

> <Gold.PLP.ligand.torsion>
0.4463

> <Gold.PLP.Chemscore.Hbond>
2.9040

> <Gold.PLP.Chemscore.CHOScore>
0.8945

> <Gold.PLP.Chemscore.Metal>
0.0000

> <Gold.Chemscore.Hbonds>
donor molecule, donor type, donor heavy atom, donor atom, acceptor molecule, acceptor atom, score
      L1  H     9    26       P1  7948  0.98
      L1  H    12    27       P1  7948  0.85
      P1  H  7989  7998       L1     4  0.94
      L1  C     5    23       P1  8028  0.92

> <Gold.PLP.Chemscore.Internal.Correction>
0.0132

> <Gold.Rescore>
     Score         DG    S(hbond)    S(metal)    S(lipo)     H(rot)  DE(clash)    DE(int)     intcor
     14.03     -16.95       2.07        0.00      71.15       1.47       1.31       1.62       ----

> <Gold.Chemscore.Fitness>
14.0261

> <Gold.Chemscore.DG>
-16.9549

> <Gold.Chemscore.ZeroCoef>
-5.4800

> <Gold.Chemscore.Hbond>
2.0692

> <Gold.Chemscore.Metal>
0.0000

> <Gold.Chemscore.Lipo>
71.1540

> <Gold.Chemscore.Internal_Hbond>
0.0000

> <Gold.Chemscore.DEClash>
1.3061

> <Gold.Chemscore.DEInternal>
1.6228

> <Gold.Chemscore.Rot>
1.4693

> <Gold.Chemscore.Internal.Correction>
   9.000000E+99

> <Gold.Chemscore.Hbonds>
donor molecule, donor type, donor heavy atom, donor atom, acceptor molecule, acceptor atom, score
      L1  H     9    26       P1  7948  0.93
      L1  H    12    27       P1  7948  0.83
      P1  H  7989  7998       L1     4  0.19

> <Gold.Chemscore.Hbond.Weighted>
-6.9112

> <Gold.Chemscore.Metal.Weighted>
-0.0000

> <Gold.Chemscore.Lipo.Weighted>
-8.3250

> <Gold.Chemscore.Internal_Hbond.Weighted>
0.0000

> <Gold.Chemscore.DEClash.Weighted>
1.3061

> <Gold.Chemscore.DEInternal.Weighted>
1.6228

> <Gold.Chemscore.Rot.Weighted>
3.7613

> <Gold.Chemscore.Internal.Correction.Weighted>
   9.000000E+99

> <Gold.Protein.RotatedTorsions>
[ 6907 6896 6895 6894 ] final -157.21 input  -60.11 | X-H torsion
[ 7974 7965 7964 7962 ] final  106.98 input  175.53 | X-H torsion
[ 8008 7997 7996 7995 ] final  -34.11 input   59.86 | X-H torsion
[ 10167 10162 10161 10158 ] final -153.76 input  -65.29 | X-H torsion
[ 10718 10713 10712 10709 ] final   62.71 input   66.30 | X-H torsion
[ 10763 10752 10751 10750 ] final   60.04 input  -60.55 | X-H torsion
[ 11005 11000 10999 10996 ] final -169.28 input  -57.11 | X-H torsion

> <Gold.Protein.ActiveResidues>
 VAL166  LYS551  ARG553  GLY616  TRP617  ASP618  TYR619  PRO620  LYS621  CYS622 
 ASP623  PHE694  ASN695  SER759  ASP760  ASP761  ALA762  ILE779  LEU786  VAL792 
 PHE793  MET794  SER795  GLU796  ALA797  LYS798  CYS799  TRP800  GLU811  SER814 

> <Gold.Protein.RotatedAtoms>
  151.2994  133.4129  159.2638 H   0  0  0  0  0  0  0  0  0  0  0  0  # atno 6907 bound_to 6896
  151.0208  134.9468  159.8069 H   0  0  0  0  0  0  0  0  0  0  0  0  # atno 6908 bound_to 6896
  152.5324  134.2957  159.9112 H   0  0  0  0  0  0  0  0  0  0  0  0  # atno 6909 bound_to 6896
  145.2995  139.2574  143.3821 H   0  0  0  0  0  0  0  0  0  0  0  0  # atno 7974 bound_to 7965
  154.4130  140.1692  156.1997 H   0  0  0  0  0  0  0  0  0  0  0  0  # atno 8008 bound_to 7997
  155.9535  140.3399  155.6404 H   0  0  0  0  0  0  0  0  0  0  0  0  # atno 8009 bound_to 7997
  155.6840  140.0726  157.2464 H   0  0  0  0  0  0  0  0  0  0  0  0  # atno 8010 bound_to 7997
  139.7069  143.9171  152.2452 H   0  0  0  0  0  0  0  0  0  0  0  0  # atno 10167 bound_to 10162
  157.5920  130.9065  149.9622 H   0  0  0  0  0  0  0  0  0  0  0  0  # atno 10718 bound_to 10713
  152.9910  135.5550  154.5810 H   0  0  0  0  0  0  0  0  0  0  0  0  # atno 10763 bound_to 10752
  154.5191  135.2806  155.1280 H   0  0  0  0  0  0  0  0  0  0  0  0  # atno 10764 bound_to 10752
  154.2640  135.6375  153.5338 H   0  0  0  0  0  0  0  0  0  0  0  0  # atno 10765 bound_to 10752
  140.5325  134.5602  157.5078 H   0  0  0  0  0  0  0  0  0  0  0  0  # atno 11005 bound_to 11000
  146.3157  140.3506  142.8656 LP  0  0  0  0  0  0  0  0  0  0  0  0  # atno 17320 bound_to 7965
  144.9105  140.7752  143.5810 LP  0  0  0  0  0  0  0  0  0  0  0  0  # atno 17321 bound_to 7965
  139.9029  144.6901  150.8645 LP  0  0  0  0  0  0  0  0  0  0  0  0  # atno 17342 bound_to 10162
  140.7724  143.3500  151.2033 LP  0  0  0  0  0  0  0  0  0  0  0  0  # atno 17343 bound_to 10162
  156.0976  130.3658  150.0278 LP  0  0  0  0  0  0  0  0  0  0  0  0  # atno 17370 bound_to 10713
  156.8399  130.9422  151.3632 LP  0  0  0  0  0  0  0  0  0  0  0  0  # atno 17371 bound_to 10713
  139.9547  134.7556  156.0369 LP  0  0  0  0  0  0  0  0  0  0  0  0  # atno 17394 bound_to 11000
  141.1273  133.6596  156.3371 LP  0  0  0  0  0  0  0  0  0  0  0  0  # atno 17395 bound_to 11000

$$$$
