AV-unprocessed.smi:1768|AV-procd|sdf|7146|dock8
  -GOLD-   22720 8383D 1   1.00000     0.00000
 Structure written by MMmdl.
 33 34  0  0  0  0  0  0  0  0  1 V2000
  149.7557  129.4188  153.7259 C   0  0  0  0  0  0  0  0  0  0  0  0
  150.0084  130.8588  154.0164 C   0  0  0  0  0  0  0  0  0  0  0  0
  150.8165  131.2706  155.0011 N   0  0  0  0  0  0  0  0  0  0  0  0
  150.8897  132.6545  155.0777 N   0  0  0  0  0  0  0  0  0  0  0  0
  150.1316  133.2471  154.1450 C   0  0  0  0  0  0  0  0  0  0  0  0
  150.0203  134.6546  153.9941 N   0  0  0  0  0  0  0  0  0  0  0  0
  150.6345  135.6200  154.7001 C   0  0  0  0  0  0  0  0  0  0  0  0
  151.4052  135.4310  155.6412 O   0  0  0  0  0  0  0  0  0  0  0  0
  150.2956  136.8363  154.2480 N   0  0  0  0  0  0  0  0  0  0  0  0
  150.7773  138.1132  154.7729 C   0  0  1  0  0  0  0  0  0  0  0  0
  152.2978  138.1904  154.5724 C   0  0  0  0  0  0  0  0  0  0  0  0
  150.0431  139.2811  154.0847 C   0  0  1  0  0  0  0  0  0  0  0  0
  148.5163  139.2312  154.1912 C   0  0  0  0  0  0  0  0  0  0  0  0
  148.1498  140.6889  154.0376 C   0  0  0  0  0  0  0  0  0  0  0  0
  149.2697  141.3692  154.8175 C   0  0  0  0  0  0  0  0  0  0  0  0
  150.4094  140.5249  154.6803 O   0  0  0  0  0  0  0  0  0  0  0  0
  149.2610  132.1510  153.0860 S   0  0  0  0  0  0  0  0  0  0  0  0
  150.3170  128.7823  154.4108 H   0  0  0  0  0  0  0  0  0  0  0  0
  150.0588  129.1859  152.7051 H   0  0  0  0  0  0  0  0  0  0  0  0
  148.6938  129.1985  153.8356 H   0  0  0  0  0  0  0  0  0  0  0  0
  149.4057  134.9624  153.2551 H   0  0  0  0  0  0  0  0  0  0  0  0
  149.6514  136.8864  153.4725 H   0  0  0  0  0  0  0  0  0  0  0  0
  150.5830  138.1771  155.8450 H   0  0  0  0  0  0  0  0  0  0  0  0
  152.7034  139.1159  154.9819 H   0  0  0  0  0  0  0  0  0  0  0  0
  152.5625  138.1509  153.5154 H   0  0  0  0  0  0  0  0  0  0  0  0
  152.8015  137.3632  155.0736 H   0  0  0  0  0  0  0  0  0  0  0  0
  150.3200  139.3288  153.0300 H   0  0  0  0  0  0  0  0  0  0  0  0
  148.0564  138.5938  153.4354 H   0  0  0  0  0  0  0  0  0  0  0  0
  148.2087  138.8718  155.1745 H   0  0  0  0  0  0  0  0  0  0  0  0
  148.1925  140.9769  152.9863 H   0  0  0  0  0  0  0  0  0  0  0  0
  147.1569  140.9273  154.4201 H   0  0  0  0  0  0  0  0  0  0  0  0
  149.4749  142.3781  154.4586 H   0  0  0  0  0  0  0  0  0  0  0  0
  149.0131  141.4313  155.8757 H   0  0  0  0  0  0  0  0  0  0  0  0
  1  2  1  0  0  0  0
  1 18  1  0  0  0  0
  1 19  1  0  0  0  0
  1 20  1  0  0  0  0
  2 17  1  0  0  0  0
  2  3  2  0  0  0  0
  3  4  1  0  0  0  0
  4  5  2  0  0  0  0
  5  6  1  0  0  0  0
  5 17  1  0  0  0  0
  6  7  1  0  0  0  0
  6 21  1  0  0  0  0
  7  8  2  0  0  0  0
  7  9  1  0  0  0  0
  9 10  1  0  0  0  0
  9 22  1  0  0  0  0
 10 11  1  0  0  0  0
 10 12  1  0  0  0  0
 10 23  1  0  0  0  0
 11 24  1  0  0  0  0
 11 25  1  0  0  0  0
 11 26  1  0  0  0  0
 12 16  1  0  0  0  0
 12 13  1  0  0  0  0
 12 27  1  0  0  0  0
 13 14  1  0  0  0  0
 13 28  1  0  0  0  0
 13 29  1  0  0  0  0
 14 15  1  0  0  0  0
 14 30  1  0  0  0  0
 14 31  1  0  0  0  0
 15 16  1  0  0  0  0
 15 32  1  0  0  0  0
 15 33  1  0  0  0  0
M  END
> <s_m_source_file>
AV-unprocessed.smi

> <i_m_source_file_index>
1768

> <i_lp_mmshare_version>
43012

> <i_f3d_flags>
0

> <s_epik_input>
W0NIM11jMW5uYyhzMSlbTkhdQyg9TylbTkhdW0NASF0oW0NIM10pW0NAQEhdMltDSDJdW0NIMl1bQ0gyXU8y

> <s_epik_cmdline>
J2VwaWtfcHl0aG9uJywgJy1waCcsICc3LjAnLCAnLXRuJywgJzgnLCAnLW1hJywgJzIwMCcsICctbWV0YWxfYmluZGluZycsICctaW1hZScsICc8aW5maWxlLm1hZT4nLCAnLW9tYWUnLCAnPG91dGZpbGUubWFlPic=

> <r_lp_tautomer_probability>
1

> <r_epik_Ionization_Penalty>
0.000523083

> <r_epik_Ionization_Penalty_Charging>
0

> <r_epik_Ionization_Penalty_Neutral>
0.000523083

> <r_epik_State_Penalty>
-0

> <r_epik_Charging_Adjusted_Penalty>
0

> <i_epik_Tot_Q>
0

> <i_epik_Tot_abs_Q>
0

> <r_epik_Metal_State_Penalty>
0.223408

> <b_epik_Metal_Only>
0

> <s_lp_Force_Field>
OPLS_2005

> <r_lp_Energy>
16.9545

> <b_lp_Chiralities_Consistent>
1

> <s_lp_Variant>
AV-unprocessed.smi:1768-4

> <Gold.Version>
5.8.1

> <Gold.Id.Protein>
6NUR|6NUR_protein|mol2

> <Gold.PLP.Fitness>
43.1224

> <Gold.PLP.PLP>
-32.0926

> <Gold.PLP.part.hbond>
-4.7145

> <Gold.PLP.part.metal>
0.0000

> <Gold.PLP.part.buried>
-1.9413

> <Gold.PLP.part.nonpolar>
-25.7920

> <Gold.PLP.part.repulsive>
0.2582

> <Gold.PLP.ligand.clash>
0.0000

> <Gold.PLP.ligand.torsion>
0.0418

> <Gold.PLP.Chemscore.Hbond>
3.7016

> <Gold.PLP.Chemscore.CHOScore>
0.0000

> <Gold.PLP.Chemscore.Metal>
0.0000

> <Gold.Chemscore.Hbonds>
donor molecule, donor type, donor heavy atom, donor atom, acceptor molecule, acceptor atom, score
      L1  H     6    21       P1  7948  0.45
      L1  H     9    22       P1  7948  1.00
      P1  H  7989  7998       L1    16  0.68
      P1  H 10752 10764       L1     8  1.00

> <Gold.PLP.Chemscore.Internal.Correction>
0.0085

> <Gold.Rescore>
     Score         DG    S(hbond)    S(metal)    S(lipo)     H(rot)  DE(clash)    DE(int)     intcor
     16.12     -17.62       2.57        0.00      58.77       1.29       0.15       1.35       ----

> <Gold.Chemscore.Fitness>
16.1220

> <Gold.Chemscore.DG>
-17.6221

> <Gold.Chemscore.ZeroCoef>
-5.4800

> <Gold.Chemscore.Hbond>
2.5667

> <Gold.Chemscore.Metal>
0.0000

> <Gold.Chemscore.Lipo>
58.7728

> <Gold.Chemscore.Internal_Hbond>
0.0000

> <Gold.Chemscore.DEClash>
0.1476

> <Gold.Chemscore.DEInternal>
1.3525

> <Gold.Chemscore.Rot>
1.2919

> <Gold.Chemscore.Internal.Correction>
   9.000000E+99

> <Gold.Chemscore.Hbonds>
donor molecule, donor type, donor heavy atom, donor atom, acceptor molecule, acceptor atom, score
      L1  H     6    21       P1  7948  0.01
      L1  H     9    22       P1  7948  0.62
      P1  H  7989  7998       L1    16  0.07
      P1  H 10752 10764       L1     8  0.50

> <Gold.Chemscore.Hbond.Weighted>
-8.5729

> <Gold.Chemscore.Metal.Weighted>
-0.0000

> <Gold.Chemscore.Lipo.Weighted>
-6.8764

> <Gold.Chemscore.Internal_Hbond.Weighted>
0.0000

> <Gold.Chemscore.DEClash.Weighted>
0.1476

> <Gold.Chemscore.DEInternal.Weighted>
1.3525

> <Gold.Chemscore.Rot.Weighted>
3.3072

> <Gold.Chemscore.Internal.Correction.Weighted>
   9.000000E+99

> <Gold.Protein.RotatedTorsions>
[ 6907 6896 6895 6894 ] final -159.86 input  -60.11 | X-H torsion
[ 7974 7965 7964 7962 ] final  123.96 input  175.53 | X-H torsion
[ 8008 7997 7996 7995 ] final   12.97 input   59.86 | X-H torsion
[ 10167 10162 10161 10158 ] final  -17.15 input  -65.29 | X-H torsion
[ 10718 10713 10712 10709 ] final -149.25 input   66.30 | X-H torsion
[ 10763 10752 10751 10750 ] final  -39.51 input  -60.55 | X-H torsion
[ 11005 11000 10999 10996 ] final   78.56 input  -57.11 | X-H torsion

> <Gold.Protein.ActiveResidues>
 VAL166  LYS551  ARG553  GLY616  TRP617  ASP618  TYR619  PRO620  LYS621  CYS622 
 ASP623  PHE694  ASN695  SER759  ASP760  ASP761  ALA762  ILE779  LEU786  VAL792 
 PHE793  MET794  SER795  GLU796  ALA797  LYS798  CYS799  TRP800  GLU811  SER814 

> <Gold.Protein.RotatedAtoms>
  151.3401  133.3966  159.2670 H   0  0  0  0  0  0  0  0  0  0  0  0  # atno 6907 bound_to 6896
  150.9884  134.9225  159.7896 H   0  0  0  0  0  0  0  0  0  0  0  0  # atno 6908 bound_to 6896
  152.5239  134.3366  159.9254 H   0  0  0  0  0  0  0  0  0  0  0  0  # atno 6909 bound_to 6896
  145.0899  139.3594  143.4866 H   0  0  0  0  0  0  0  0  0  0  0  0  # atno 7974 bound_to 7965
  154.8280  140.2895  155.5741 H   0  0  0  0  0  0  0  0  0  0  0  0  # atno 8008 bound_to 7997
  156.3003  140.2537  156.3131 H   0  0  0  0  0  0  0  0  0  0  0  0  # atno 8009 bound_to 7997
  154.9263  140.0384  157.2014 H   0  0  0  0  0  0  0  0  0  0  0  0  # atno 8010 bound_to 7997
  140.7243  143.5044  150.9828 H   0  0  0  0  0  0  0  0  0  0  0  0  # atno 10167 bound_to 10162
  156.4307  130.8074  151.2301 H   0  0  0  0  0  0  0  0  0  0  0  0  # atno 10718 bound_to 10713
  153.9306  135.6772  153.4745 H   0  0  0  0  0  0  0  0  0  0  0  0  # atno 10763 bound_to 10752
  153.0981  135.4841  154.8814 H   0  0  0  0  0  0  0  0  0  0  0  0  # atno 10764 bound_to 10752
  154.7430  135.3165  154.8652 H   0  0  0  0  0  0  0  0  0  0  0  0  # atno 10765 bound_to 10752
  139.9207  134.7773  156.1666 H   0  0  0  0  0  0  0  0  0  0  0  0  # atno 11005 bound_to 11000
  146.3531  140.0729  142.8622 LP  0  0  0  0  0  0  0  0  0  0  0  0  # atno 17320 bound_to 7965
  145.1078  140.9386  143.4674 LP  0  0  0  0  0  0  0  0  0  0  0  0  # atno 17321 bound_to 7965
  139.8755  143.7138  152.3162 LP  0  0  0  0  0  0  0  0  0  0  0  0  # atno 17342 bound_to 10162
  139.7402  144.7561  151.0664 LP  0  0  0  0  0  0  0  0  0  0  0  0  # atno 17343 bound_to 10162
  157.7508  131.0199  150.3687 LP  0  0  0  0  0  0  0  0  0  0  0  0  # atno 17370 bound_to 10713
  156.4024  130.3918  149.6950 LP  0  0  0  0  0  0  0  0  0  0  0  0  # atno 17371 bound_to 10713
  141.0726  133.6790  156.2171 LP  0  0  0  0  0  0  0  0  0  0  0  0  # atno 17394 bound_to 11000
  140.6482  134.5095  157.5575 LP  0  0  0  0  0  0  0  0  0  0  0  0  # atno 17395 bound_to 11000

$$$$
