AV-unprocessed.smi:1536|AV-procd|sdf|6187|dock8
  -GOLD-   22720 6353D 1   1.00000     0.00000
 Structure written by MMmdl.
 48 49  0  0  0  0  0  0  0  0  2 V2000
  153.0293  143.1303  160.4846 C   0  0  0  0  0  0  0  0  0  0  0  0
  152.6129  142.2904  159.2692 C   0  0  2  0  0  0  0  0  0  0  0  0
  151.1398  142.5275  158.8918 C   0  0  0  0  0  0  0  0  0  0  0  0
  150.7229  141.6634  157.6902 C   0  0  0  0  0  0  0  0  0  0  0  0
  150.9763  140.2241  157.9672 N   0  3  1  0  0  0  0  0  0  0  0  0
  150.3329  139.2684  157.0099 C   0  0  1  0  0  0  0  0  0  0  0  0
  148.7924  139.1433  157.1859 C   0  0  0  0  0  0  0  0  0  0  0  0
  148.3977  137.8892  157.8188 N   0  0  0  0  0  0  0  0  0  0  0  0
  148.9835  137.3310  158.8905 C   0  0  0  0  0  0  0  0  0  0  0  0
  149.9253  137.8461  159.4911 O   0  0  0  0  0  0  0  0  0  0  0  0
  148.4551  135.9639  159.3349 C   0  0  0  0  0  0  0  0  0  0  0  0
  147.8494  136.0147  160.6534 N   0  0  0  0  0  0  0  0  0  0  0  0
  147.3631  135.0475  161.4341 C   0  0  0  0  0  0  0  0  0  0  0  0
  146.9093  135.5287  162.5814 N   0  0  0  0  0  0  0  0  0  0  0  0
  147.1449  136.8890  162.4685 N   0  0  0  0  0  0  0  0  0  0  0  0
  147.7016  137.1836  161.3260 N   0  0  0  0  0  0  0  0  0  0  0  0
  150.7493  139.6216  155.5521 C   0  0  0  0  0  0  0  0  0  0  0  0
  149.9285  138.8641  154.4916 C   0  0  0  0  0  0  0  0  0  0  0  0
  152.2479  139.3566  155.3026 C   0  0  0  0  0  0  0  0  0  0  0  0
  152.4015  139.9542  158.2979 C   0  0  0  0  0  0  0  0  0  0  0  0
  152.8425  140.7879  159.5115 C   0  0  0  0  0  0  0  0  0  0  0  0
  152.4461  142.8678  161.3678 H   0  0  0  0  0  0  0  0  0  0  0  0
  152.8852  144.1944  160.2949 H   0  0  0  0  0  0  0  0  0  0  0  0
  154.0822  142.9785  160.7246 H   0  0  0  0  0  0  0  0  0  0  0  0
  153.2332  142.5976  158.4257 H   0  0  0  0  0  0  0  0  0  0  0  0
  150.4978  142.2989  159.7438 H   0  0  0  0  0  0  0  0  0  0  0  0
  150.9789  143.5806  158.6576 H   0  0  0  0  0  0  0  0  0  0  0  0
  149.6634  141.8240  157.4879 H   0  0  0  0  0  0  0  0  0  0  0  0
  151.2680  141.9883  156.8051 H   0  0  0  0  0  0  0  0  0  0  0  0
  150.7530  138.2812  157.2090 H   0  0  0  0  0  0  0  0  0  0  0  0
  148.4072  140.0047  157.7337 H   0  0  0  0  0  0  0  0  0  0  0  0
  148.2974  139.1565  156.2157 H   0  0  0  0  0  0  0  0  0  0  0  0
  147.6217  137.3958  157.4008 H   0  0  0  0  0  0  0  0  0  0  0  0
  147.7201  135.6057  158.6126 H   0  0  0  0  0  0  0  0  0  0  0  0
  149.2682  135.2370  159.3543 H   0  0  0  0  0  0  0  0  0  0  0  0
  147.3458  134.0013  161.1663 H   0  0  0  0  0  0  0  0  0  0  0  0
  150.5750  140.6852  155.3869 H   0  0  0  0  0  0  0  0  0  0  0  0
  149.9732  137.7859  154.6495 H   0  0  0  0  0  0  0  0  0  0  0  0
  150.3038  139.0658  153.4877 H   0  0  0  0  0  0  0  0  0  0  0  0
  148.8811  139.1644  154.4950 H   0  0  0  0  0  0  0  0  0  0  0  0
  152.5000  138.3106  155.4801 H   0  0  0  0  0  0  0  0  0  0  0  0
  152.8852  139.9665  155.9430 H   0  0  0  0  0  0  0  0  0  0  0  0
  152.5222  139.5918  154.2737 H   0  0  0  0  0  0  0  0  0  0  0  0
  152.5434  138.8964  158.5181 H   0  0  0  0  0  0  0  0  0  0  0  0
  153.0402  140.1897  157.4472 H   0  0  0  0  0  0  0  0  0  0  0  0
  153.8960  140.5995  159.7215 H   0  0  0  0  0  0  0  0  0  0  0  0
  152.2892  140.4653  160.3948 H   0  0  0  0  0  0  0  0  0  0  0  0
  150.4781  140.0585  158.8302 H   0  0  0  0  0  0  0  0  0  0  0  0
  1  2  1  0  0  0  0
  1 22  1  0  0  0  0
  1 23  1  0  0  0  0
  1 24  1  0  0  0  0
  2 21  1  0  0  0  0
  2  3  1  0  0  0  0
  2 25  1  0  0  0  0
  3  4  1  0  0  0  0
  3 26  1  0  0  0  0
  3 27  1  0  0  0  0
  4  5  1  0  0  0  0
  4 28  1  0  0  0  0
  4 29  1  0  0  0  0
  5  6  1  0  0  0  0
  5 20  1  0  0  0  0
  5 48  1  0  0  0  0
  6  7  1  0  0  0  0
  6 17  1  0  0  0  0
  6 30  1  0  0  0  0
  7  8  1  0  0  0  0
  7 31  1  0  0  0  0
  7 32  1  0  0  0  0
  8  9  1  0  0  0  0
  8 33  1  0  0  0  0
  9 10  2  0  0  0  0
  9 11  1  0  0  0  0
 11 12  1  0  0  0  0
 11 34  1  0  0  0  0
 11 35  1  0  0  0  0
 12 16  1  0  0  0  0
 12 13  1  0  0  0  0
 13 14  2  0  0  0  0
 13 36  1  0  0  0  0
 14 15  1  0  0  0  0
 15 16  2  0  0  0  0
 17 18  1  0  0  0  0
 17 19  1  0  0  0  0
 17 37  1  0  0  0  0
 18 38  1  0  0  0  0
 18 39  1  0  0  0  0
 18 40  1  0  0  0  0
 19 41  1  0  0  0  0
 19 42  1  0  0  0  0
 19 43  1  0  0  0  0
 20 21  1  0  0  0  0
 20 44  1  0  0  0  0
 20 45  1  0  0  0  0
 21 46  1  0  0  0  0
 21 47  1  0  0  0  0
M  CHG  1   5   1
M  END
> <s_m_source_file>
AV-unprocessed.smi

> <i_m_source_file_index>
1536

> <i_lp_mmshare_version>
43012

> <i_f3d_flags>
0

> <s_epik_input>
W0NIM11bQ0hdMVtDSDJdW0NIMl1OKFtDSDJdW0NIMl0xKVtDQEBIXShbQ0hdKFtDSDNdKVtDSDNdKVtDSDJdW05IXUMoPU8pW0NIMl1uMltjSF1ubm4y

> <s_epik_cmdline>
J2VwaWtfcHl0aG9uJywgJy1waCcsICc3LjAnLCAnLXRuJywgJzgnLCAnLW1hJywgJzIwMCcsICctbWV0YWxfYmluZGluZycsICctaW1hZScsICc8aW5maWxlLm1hZT4nLCAnLW9tYWUnLCAnPG91dGZpbGUubWFlPic=

> <r_lp_tautomer_probability>
1

> <r_epik_Ionization_Penalty>
0.00109671

> <r_epik_Ionization_Penalty_Charging>
0.00109273

> <r_epik_Ionization_Penalty_Neutral>
3.97951e-06

> <r_epik_State_Penalty>
0.000716588

> <r_epik_Charging_Adjusted_Penalty>
0.00180932

> <i_epik_Tot_Q>
1

> <i_epik_Tot_abs_Q>
1

> <r_epik_Metal_State_Penalty>
-0

> <b_epik_Metal_Only>
0

> <s_lp_Force_Field>
OPLS_2005

> <r_lp_Energy>
35.3262

> <b_lp_Chiralities_Consistent>
1

> <s_lp_Variant>
AV-unprocessed.smi:1536-2

> <Gold.Version>
5.8.1

> <Gold.Id.Protein>
6NUR|6NUR_protein|mol2

> <Gold.PLP.Fitness>
40.2777

> <Gold.PLP.PLP>
-37.1031

> <Gold.PLP.part.hbond>
-3.4297

> <Gold.PLP.part.metal>
0.0000

> <Gold.PLP.part.buried>
-6.2512

> <Gold.PLP.part.nonpolar>
-27.8213

> <Gold.PLP.part.repulsive>
0.1830

> <Gold.PLP.ligand.clash>
0.0000

> <Gold.PLP.ligand.torsion>
1.3237

> <Gold.PLP.Chemscore.Hbond>
1.7840

> <Gold.PLP.Chemscore.CHOScore>
0.0000

> <Gold.PLP.Chemscore.Metal>
0.0000

> <Gold.Chemscore.Hbonds>
donor molecule, donor type, donor heavy atom, donor atom, acceptor molecule, acceptor atom, score
      P1  H  6931  6943       L1    16  0.98
      P1  H  6934  6947       L1    16  0.82

> <Gold.PLP.Chemscore.Internal.Correction>
0.4699

> <Gold.Rescore>
     Score         DG    S(hbond)    S(metal)    S(lipo)     H(rot)  DE(clash)    DE(int)     intcor
      8.61     -12.18       1.44        0.00      76.72       2.77       0.01       3.56       ----

> <Gold.Chemscore.Fitness>
8.6094

> <Gold.Chemscore.DG>
-12.1807

> <Gold.Chemscore.ZeroCoef>
-5.4800

> <Gold.Chemscore.Hbond>
1.4425

> <Gold.Chemscore.Metal>
0.0000

> <Gold.Chemscore.Lipo>
76.7207

> <Gold.Chemscore.Internal_Hbond>
0.0000

> <Gold.Chemscore.DEClash>
0.0069

> <Gold.Chemscore.DEInternal>
3.5644

> <Gold.Chemscore.Rot>
2.7709

> <Gold.Chemscore.Internal.Correction>
   9.000000E+99

> <Gold.Chemscore.Hbonds>
donor molecule, donor type, donor heavy atom, donor atom, acceptor molecule, acceptor atom, score
      P1  H  6931  6943       L1    16  0.24
      P1  H  6934  6947       L1    16  0.44

> <Gold.Chemscore.Hbond.Weighted>
-4.8179

> <Gold.Chemscore.Metal.Weighted>
-0.0000

> <Gold.Chemscore.Lipo.Weighted>
-8.9763

> <Gold.Chemscore.Internal_Hbond.Weighted>
0.0000

> <Gold.Chemscore.DEClash.Weighted>
0.0069

> <Gold.Chemscore.DEInternal.Weighted>
3.5644

> <Gold.Chemscore.Rot.Weighted>
7.0935

> <Gold.Chemscore.Internal.Correction.Weighted>
   9.000000E+99

> <Gold.Protein.RotatedTorsions>
[ 6907 6896 6895 6894 ] final  176.44 input  -60.11 | X-H torsion
[ 7974 7965 7964 7962 ] final   16.19 input  175.53 | X-H torsion
[ 8008 7997 7996 7995 ] final   52.50 input   59.86 | X-H torsion
[ 10167 10162 10161 10158 ] final  131.08 input  -65.29 | X-H torsion
[ 10718 10713 10712 10709 ] final  -57.90 input   66.30 | X-H torsion
[ 10763 10752 10751 10750 ] final  157.73 input  -60.55 | X-H torsion
[ 11005 11000 10999 10996 ] final   96.99 input  -57.11 | X-H torsion

> <Gold.Protein.ActiveResidues>
 VAL166  LYS551  ARG553  GLY616  TRP617  ASP618  TYR619  PRO620  LYS621  CYS622 
 ASP623  PHE694  ASN695  SER759  ASP760  ASP761  ALA762  ILE779  LEU786  VAL792 
 PHE793  MET794  SER795  GLU796  ALA797  LYS798  CYS799  TRP800  GLU811  SER814 

> <Gold.Protein.RotatedAtoms>
  151.7200  133.3314  159.3312 H   0  0  0  0  0  0  0  0  0  0  0  0  # atno 6907 bound_to 6896
  150.7657  134.6456  159.6270 H   0  0  0  0  0  0  0  0  0  0  0  0  # atno 6908 bound_to 6896
  152.3658  134.6809  160.0244 H   0  0  0  0  0  0  0  0  0  0  0  0  # atno 6909 bound_to 6896
  146.2257  139.8784  142.8575 H   0  0  0  0  0  0  0  0  0  0  0  0  # atno 7974 bound_to 7965
  155.4529  140.3459  155.4303 H   0  0  0  0  0  0  0  0  0  0  0  0  # atno 8008 bound_to 7997
  156.1209  140.1487  156.9235 H   0  0  0  0  0  0  0  0  0  0  0  0  # atno 8009 bound_to 7997
  154.4823  140.0866  156.7384 H   0  0  0  0  0  0  0  0  0  0  0  0  # atno 8010 bound_to 7997
  139.5400  144.6721  151.4656 H   0  0  0  0  0  0  0  0  0  0  0  0  # atno 10167 bound_to 10162
  156.1175  130.4169  150.0504 H   0  0  0  0  0  0  0  0  0  0  0  0  # atno 10718 bound_to 10713
  154.2048  135.2788  155.2978 H   0  0  0  0  0  0  0  0  0  0  0  0  # atno 10763 bound_to 10752
  154.5825  135.5585  153.7203 H   0  0  0  0  0  0  0  0  0  0  0  0  # atno 10764 bound_to 10752
  153.0078  135.6348  154.2187 H   0  0  0  0  0  0  0  0  0  0  0  0  # atno 10765 bound_to 10752
  139.8778  134.8978  156.4241 H   0  0  0  0  0  0  0  0  0  0  0  0  # atno 11005 bound_to 11000
  145.2537  141.0053  143.3866 LP  0  0  0  0  0  0  0  0  0  0  0  0  # atno 17320 bound_to 7965
  144.9354  139.4250  143.6475 LP  0  0  0  0  0  0  0  0  0  0  0  0  # atno 17321 bound_to 7965
  140.6625  143.8467  150.6904 LP  0  0  0  0  0  0  0  0  0  0  0  0  # atno 17342 bound_to 10162
  140.1866  143.4070  152.1894 LP  0  0  0  0  0  0  0  0  0  0  0  0  # atno 17343 bound_to 10162
  156.8451  130.9439  151.3629 LP  0  0  0  0  0  0  0  0  0  0  0  0  # atno 17370 bound_to 10713
  157.6359  130.8766  149.9357 LP  0  0  0  0  0  0  0  0  0  0  0  0  # atno 17371 bound_to 10713
  140.9113  133.7709  155.9795 LP  0  0  0  0  0  0  0  0  0  0  0  0  # atno 17394 bound_to 11000
  140.8543  134.2917  157.5262 LP  0  0  0  0  0  0  0  0  0  0  0  0  # atno 17395 bound_to 11000

$$$$
