AV-unprocessed.smi:3193|AV-procd|sdf|12203|dock7
  -GOLD-   2272018 43D 1   1.00000     0.00000
 Structure written by MMmdl.
 40 41  0  0  0  0  0  0  0  0  2 V2000
  152.7548  144.5863  157.5572 C   0  0  0  0  0  0  0  0  0  0  0  0
  151.5722  144.0458  158.3871 C   0  0  2  0  0  0  0  0  0  0  0  0
  151.6934  144.4426  159.8741 C   0  0  0  0  0  0  0  0  0  0  0  0
  152.7884  143.6477  160.6055 C   0  0  0  0  0  0  0  0  0  0  0  0
  152.5670  142.1353  160.4599 C   0  0  0  0  0  0  0  0  0  0  0  0
  152.4546  141.7219  158.9838 C   0  0  0  0  0  0  0  0  0  0  0  0
  151.3471  142.5155  158.2539 C   0  0  2  0  0  0  0  0  0  0  0  0
  151.1727  142.0654  156.7893 C   0  0  0  0  0  0  0  0  0  0  0  0
  149.7627  142.1471  156.3589 N   0  3  0  0  0  0  0  0  0  0  0  0
  149.5318  141.7050  154.9686 C   0  0  0  0  0  0  0  0  0  0  0  0
  149.0218  140.2565  154.9108 C   0  0  0  0  0  0  0  0  0  0  0  0
  150.1068  139.2947  154.8551 N   0  0  0  0  0  0  0  0  0  0  0  0
  150.3143  138.3200  153.8879 C   0  0  0  0  0  0  0  0  0  0  0  0
  151.4589  137.6455  154.2488 C   0  0  0  0  0  0  0  0  0  0  0  0
  151.9711  138.1885  155.4248 N   0  0  0  0  0  0  0  0  0  0  0  0
  151.1220  139.1636  155.7202 C   0  0  0  0  0  0  0  0  0  0  0  0
  153.6990  144.1157  157.8297 H   0  0  0  0  0  0  0  0  0  0  0  0
  152.8720  145.6604  157.7028 H   0  0  0  0  0  0  0  0  0  0  0  0
  152.6013  144.4286  156.4898 H   0  0  0  0  0  0  0  0  0  0  0  0
  150.6797  144.5413  158.0021 H   0  0  0  0  0  0  0  0  0  0  0  0
  151.8862  145.5122  159.9666 H   0  0  0  0  0  0  0  0  0  0  0  0
  150.7382  144.2671  160.3708 H   0  0  0  0  0  0  0  0  0  0  0  0
  153.7696  143.9154  160.2127 H   0  0  0  0  0  0  0  0  0  0  0  0
  152.7994  143.9196  161.6614 H   0  0  0  0  0  0  0  0  0  0  0  0
  153.3835  141.5927  160.9374 H   0  0  0  0  0  0  0  0  0  0  0  0
  151.6570  141.8487  160.9880 H   0  0  0  0  0  0  0  0  0  0  0  0
  153.4143  141.8691  158.4879 H   0  0  0  0  0  0  0  0  0  0  0  0
  152.2485  140.6525  158.9328 H   0  0  0  0  0  0  0  0  0  0  0  0
  150.4069  142.2999  158.7650 H   0  0  0  0  0  0  0  0  0  0  0  0
  151.7685  142.7016  156.1334 H   0  0  0  0  0  0  0  0  0  0  0  0
  151.5296  141.0432  156.6569 H   0  0  0  0  0  0  0  0  0  0  0  0
  149.2049  141.5752  156.9769 H   0  0  0  0  0  0  0  0  0  0  0  0
  148.8184  142.3749  154.4869 H   0  0  0  0  0  0  0  0  0  0  0  0
  150.4671  141.7831  154.4129 H   0  0  0  0  0  0  0  0  0  0  0  0
  148.4206  140.0386  155.7943 H   0  0  0  0  0  0  0  0  0  0  0  0
  148.3725  140.1119  154.0460 H   0  0  0  0  0  0  0  0  0  0  0  0
  149.6495  138.1882  153.0467 H   0  0  0  0  0  0  0  0  0  0  0  0
  151.9505  136.8195  153.7560 H   0  0  0  0  0  0  0  0  0  0  0  0
  151.2386  139.7927  156.5907 H   0  0  0  0  0  0  0  0  0  0  0  0
  149.4579  143.1065  156.4437 H   0  0  0  0  0  0  0  0  0  0  0  0
  1  2  1  0  0  0  0
  1 17  1  0  0  0  0
  1 18  1  0  0  0  0
  1 19  1  0  0  0  0
  2  7  1  0  0  0  0
  2  3  1  0  0  0  0
  2 20  1  0  0  0  0
  3  4  1  0  0  0  0
  3 21  1  0  0  0  0
  3 22  1  0  0  0  0
  4  5  1  0  0  0  0
  4 23  1  0  0  0  0
  4 24  1  0  0  0  0
  5  6  1  0  0  0  0
  5 25  1  0  0  0  0
  5 26  1  0  0  0  0
  6  7  1  0  0  0  0
  6 27  1  0  0  0  0
  6 28  1  0  0  0  0
  7  8  1  0  0  0  0
  7 29  1  0  0  0  0
  8  9  1  0  0  0  0
  8 30  1  0  0  0  0
  8 31  1  0  0  0  0
  9 10  1  0  0  0  0
  9 32  1  0  0  0  0
  9 40  1  0  0  0  0
 10 11  1  0  0  0  0
 10 33  1  0  0  0  0
 10 34  1  0  0  0  0
 11 12  1  0  0  0  0
 11 35  1  0  0  0  0
 11 36  1  0  0  0  0
 12 16  1  0  0  0  0
 12 13  1  0  0  0  0
 13 14  2  0  0  0  0
 13 37  1  0  0  0  0
 14 15  1  0  0  0  0
 14 38  1  0  0  0  0
 15 16  2  0  0  0  0
 16 39  1  0  0  0  0
M  CHG  1   9   1
M  END
> <s_m_source_file>
AV-unprocessed.smi

> <i_m_source_file_index>
3193

> <i_lp_mmshare_version>
43012

> <i_f3d_flags>
0

> <s_epik_input>
W0NIM11bQ0BASF0xW0NIMl1bQ0gyXVtDSDJdW0NIMl1bQ0BIXTFbQ0gyXVtOSF1bQ0gyXVtDSDJdbjJbY0hdW2NIXW5bY0hdMg==

> <s_epik_cmdline>
J2VwaWtfcHl0aG9uJywgJy1waCcsICc3LjAnLCAnLXRuJywgJzgnLCAnLW1hJywgJzIwMCcsICctbWV0YWxfYmluZGluZycsICctaW1hZScsICc8aW5maWxlLm1hZT4nLCAnLW9tYWUnLCAnPG91dGZpbGUubWFlPic=

> <r_lp_tautomer_probability>
1

> <r_epik_Ionization_Penalty>
0.0503046

> <r_epik_Ionization_Penalty_Charging>
0.0503046

> <r_epik_Ionization_Penalty_Neutral>
0

> <r_epik_State_Penalty>
0.0981804

> <r_epik_Charging_Adjusted_Penalty>
0.148485

> <i_epik_Tot_Q>
1

> <i_epik_Tot_abs_Q>
1

> <r_epik_Metal_State_Penalty>
0.000105854

> <b_epik_Metal_Only>
0

> <s_lp_Force_Field>
OPLS_2005

> <r_lp_Energy>
20.9297

> <b_lp_Chiralities_Consistent>
1

> <s_lp_Variant>
AV-unprocessed.smi:3193-3

> <Gold.Version>
5.8.1

> <Gold.Id.Protein>
6NUR|6NUR_protein|mol2

> <Gold.PLP.Fitness>
50.8465

> <Gold.PLP.PLP>
-39.1867

> <Gold.PLP.part.hbond>
-1.0000

> <Gold.PLP.part.metal>
0.0000

> <Gold.PLP.part.buried>
-3.3672

> <Gold.PLP.part.nonpolar>
-33.5544

> <Gold.PLP.part.repulsive>
0.0865

> <Gold.PLP.ligand.clash>
0.0000

> <Gold.PLP.ligand.torsion>
0.8519

> <Gold.PLP.Chemscore.Hbond>
1.9840

> <Gold.PLP.Chemscore.CHOScore>
2.4578

> <Gold.PLP.Chemscore.Metal>
0.0000

> <Gold.Chemscore.Hbonds>
donor molecule, donor type, donor heavy atom, donor atom, acceptor molecule, acceptor atom, score
      L1  H     9    40       P1  8028  2.00
      L1  C    13    37       P1  7948  1.00
      L1  C    13    37       P1  7957  0.60
      L1  C    14    38       P1  7949  0.83

> <Gold.PLP.Chemscore.Internal.Correction>
0.0381

> <Gold.Rescore>
     Score         DG    S(hbond)    S(metal)    S(lipo)     H(rot)  DE(clash)    DE(int)     intcor
     16.54     -18.25       0.99        0.00     122.38       1.89       0.69       1.02       ----

> <Gold.Chemscore.Fitness>
16.5408

> <Gold.Chemscore.DG>
-18.2519

> <Gold.Chemscore.ZeroCoef>
-5.4800

> <Gold.Chemscore.Hbond>
0.9850

> <Gold.Chemscore.Metal>
0.0000

> <Gold.Chemscore.Lipo>
122.3841

> <Gold.Chemscore.Internal_Hbond>
0.0000

> <Gold.Chemscore.DEClash>
0.6884

> <Gold.Chemscore.DEInternal>
1.0227

> <Gold.Chemscore.Rot>
1.8895

> <Gold.Chemscore.Internal.Correction>
   9.000000E+99

> <Gold.Chemscore.Hbonds>
donor molecule, donor type, donor heavy atom, donor atom, acceptor molecule, acceptor atom, score
      L1  H     9    40       P1  8028  0.95

> <Gold.Chemscore.Hbond.Weighted>
-3.2900

> <Gold.Chemscore.Metal.Weighted>
-0.0000

> <Gold.Chemscore.Lipo.Weighted>
-14.3189

> <Gold.Chemscore.Internal_Hbond.Weighted>
0.0000

> <Gold.Chemscore.DEClash.Weighted>
0.6884

> <Gold.Chemscore.DEInternal.Weighted>
1.0227

> <Gold.Chemscore.Rot.Weighted>
4.8371

> <Gold.Chemscore.Internal.Correction.Weighted>
   9.000000E+99

> <Gold.Protein.RotatedTorsions>
[ 6907 6896 6895 6894 ] final  174.04 input  -60.11 | X-H torsion
[ 7974 7965 7964 7962 ] final   42.58 input  175.53 | X-H torsion
[ 8008 7997 7996 7995 ] final  137.24 input   59.86 | X-H torsion
[ 10167 10162 10161 10158 ] final  -12.46 input  -65.29 | X-H torsion
[ 10718 10713 10712 10709 ] final  -11.74 input   66.30 | X-H torsion
[ 10763 10752 10751 10750 ] final  144.59 input  -60.55 | X-H torsion
[ 11005 11000 10999 10996 ] final   18.19 input  -57.11 | X-H torsion

> <Gold.Protein.ActiveResidues>
 VAL166  LYS551  ARG553  GLY616  TRP617  ASP618  TYR619  PRO620  LYS621  CYS622 
 ASP623  PHE694  ASN695  SER759  ASP760  ASP761  ALA762  ILE779  LEU786  VAL792 
 PHE793  MET794  SER795  GLU796  ALA797  LYS798  CYS799  TRP800  GLU811  SER814 

> <Gold.Protein.RotatedAtoms>
  151.7587  133.3332  159.3411 H   0  0  0  0  0  0  0  0  0  0  0  0  # atno 6907 bound_to 6896
  150.7506  134.6126  159.6103 H   0  0  0  0  0  0  0  0  0  0  0  0  # atno 6908 bound_to 6896
  152.3420  134.7124  160.0312 H   0  0  0  0  0  0  0  0  0  0  0  0  # atno 6909 bound_to 6896
  146.0728  139.5284  142.9587 H   0  0  0  0  0  0  0  0  0  0  0  0  # atno 7974 bound_to 7965
  156.3002  140.2424  156.3878 H   0  0  0  0  0  0  0  0  0  0  0  0  # atno 8008 bound_to 7997
  154.8642  140.0418  157.1704 H   0  0  0  0  0  0  0  0  0  0  0  0  # atno 8009 bound_to 7997
  154.8864  140.2957  155.5399 H   0  0  0  0  0  0  0  0  0  0  0  0  # atno 8010 bound_to 7997
  140.7161  143.5530  150.9280 H   0  0  0  0  0  0  0  0  0  0  0  0  # atno 10167 bound_to 10162
  156.6547  130.4964  149.6050 H   0  0  0  0  0  0  0  0  0  0  0  0  # atno 10718 bound_to 10713
  153.9913  135.2932  155.3411 H   0  0  0  0  0  0  0  0  0  0  0  0  # atno 10763 bound_to 10752
  154.7213  135.5108  153.8819 H   0  0  0  0  0  0  0  0  0  0  0  0  # atno 10764 bound_to 10752
  153.0808  135.6678  154.0165 H   0  0  0  0  0  0  0  0  0  0  0  0  # atno 10765 bound_to 10752
  140.4275  134.1454  155.7677 H   0  0  0  0  0  0  0  0  0  0  0  0  # atno 11005 bound_to 11000
  145.6360  141.0294  143.1837 LP  0  0  0  0  0  0  0  0  0  0  0  0  # atno 17320 bound_to 7965
  144.7242  139.7928  143.7371 LP  0  0  0  0  0  0  0  0  0  0  0  0  # atno 17321 bound_to 7965
  139.9255  143.6555  152.3088 LP  0  0  0  0  0  0  0  0  0  0  0  0  # atno 17342 bound_to 10162
  139.6987  144.7638  151.1310 LP  0  0  0  0  0  0  0  0  0  0  0  0  # atno 17343 bound_to 10162
  156.2057  130.6648  151.1216 LP  0  0  0  0  0  0  0  0  0  0  0  0  # atno 17370 bound_to 10713
  157.7129  131.0725  150.6433 LP  0  0  0  0  0  0  0  0  0  0  0  0  # atno 17371 bound_to 10713
  141.1759  133.8515  157.1422 LP  0  0  0  0  0  0  0  0  0  0  0  0  # atno 17394 bound_to 11000
  140.0157  134.9968  157.0488 LP  0  0  0  0  0  0  0  0  0  0  0  0  # atno 17395 bound_to 11000

$$$$
