AV-unprocessed.smi:712|AV-procd|sdf|3472|dock4
  -GOLD-   22720 0463D 1   1.00000     0.00000
 Structure written by MMmdl.
 50 51  0  0  0  0  0  0  0  0  1 V2000
  148.5841  130.6029  153.0053 C   0  0  0  0  0  0  0  0  0  0  0  0
  148.8447  131.8315  153.8519 C   0  0  0  0  0  0  0  0  0  0  0  0
  148.5917  133.1555  153.3244 C   0  0  0  0  0  0  0  0  0  0  0  0
  148.8564  134.2253  154.0893 C   0  0  0  0  0  0  0  0  0  0  0  0
  149.3640  134.0997  155.3953 N   0  0  0  0  0  0  0  0  0  0  0  0
  149.6521  135.3540  156.1151 C   0  0  0  0  0  0  0  0  0  0  0  0
  150.8820  136.1137  155.5878 C   0  0  0  0  0  0  0  0  0  0  0  0
  152.0068  135.6768  155.8271 O   0  0  0  0  0  0  0  0  0  0  0  0
  150.6714  137.2554  154.9125 N   0  0  0  0  0  0  0  0  0  0  0  0
  151.6982  138.1907  154.4708 C   0  0  0  0  0  0  0  0  0  0  0  0
  151.4083  139.6099  154.9891 C   0  0  2  0  0  0  0  0  0  0  0  0
  151.5655  139.7326  156.5214 C   0  0  0  0  0  0  0  0  0  0  0  0
  151.2186  141.0658  157.0051 N   0  0  0  0  0  0  0  0  0  0  0  0
  151.3474  141.1944  158.4580 C   0  0  0  0  0  0  0  0  0  0  0  0
  152.6276  141.8953  158.9631 C   0  0  0  0  0  0  0  0  0  0  0  0
  152.8498  141.6033  160.4537 C   0  0  0  0  0  0  0  0  0  0  0  0
  152.5914  143.4114  158.7102 C   0  0  0  0  0  0  0  0  0  0  0  0
  149.8649  141.3888  156.5695 C   0  0  0  0  0  0  0  0  0  0  0  0
  149.7068  141.2655  155.0446 C   0  0  0  0  0  0  0  0  0  0  0  0
  150.0722  139.9525  154.6319 O   0  0  0  0  0  0  0  0  0  0  0  0
  149.6068  132.8783  155.9599 C   0  0  0  0  0  0  0  0  0  0  0  0
  150.0539  132.7612  157.1007 O   0  0  0  0  0  0  0  0  0  0  0  0
  149.3224  131.7152  155.1108 C   0  0  0  0  0  0  0  0  0  0  0  0
  148.5394  130.8608  151.9469 H   0  0  0  0  0  0  0  0  0  0  0  0
  147.6363  130.1443  153.2873 H   0  0  0  0  0  0  0  0  0  0  0  0
  149.3775  129.8669  153.1392 H   0  0  0  0  0  0  0  0  0  0  0  0
  148.2030  133.2844  152.3251 H   0  0  0  0  0  0  0  0  0  0  0  0
  148.7030  135.2403  153.7516 H   0  0  0  0  0  0  0  0  0  0  0  0
  148.7865  136.0158  156.0567 H   0  0  0  0  0  0  0  0  0  0  0  0
  149.7934  135.1707  157.1813 H   0  0  0  0  0  0  0  0  0  0  0  0
  149.7140  137.5306  154.7479 H   0  0  0  0  0  0  0  0  0  0  0  0
  152.6881  137.8623  154.7912 H   0  0  0  0  0  0  0  0  0  0  0  0
  151.7106  138.1891  153.3806 H   0  0  0  0  0  0  0  0  0  0  0  0
  152.0894  140.3084  154.4988 H   0  0  0  0  0  0  0  0  0  0  0  0
  150.9401  138.9861  157.0132 H   0  0  0  0  0  0  0  0  0  0  0  0
  152.5962  139.5009  156.7856 H   0  0  0  0  0  0  0  0  0  0  0  0
  150.4907  141.7529  158.8379 H   0  0  0  0  0  0  0  0  0  0  0  0
  151.2791  140.2049  158.9124 H   0  0  0  0  0  0  0  0  0  0  0  0
  153.4889  141.4841  158.4389 H   0  0  0  0  0  0  0  0  0  0  0  0
  152.0264  141.9829  161.0595 H   0  0  0  0  0  0  0  0  0  0  0  0
  153.7687  142.0679  160.8125 H   0  0  0  0  0  0  0  0  0  0  0  0
  152.9319  140.5314  160.6362 H   0  0  0  0  0  0  0  0  0  0  0  0
  151.7330  143.8740  159.1981 H   0  0  0  0  0  0  0  0  0  0  0  0
  152.5300  143.6344  157.6447 H   0  0  0  0  0  0  0  0  0  0  0  0
  153.4912  143.8953  159.0907 H   0  0  0  0  0  0  0  0  0  0  0  0
  149.1504  140.7255  157.0598 H   0  0  0  0  0  0  0  0  0  0  0  0
  149.6093  142.4037  156.8763 H   0  0  0  0  0  0  0  0  0  0  0  0
  148.6735  141.4556  154.7541 H   0  0  0  0  0  0  0  0  0  0  0  0
  150.3255  142.0026  154.5304 H   0  0  0  0  0  0  0  0  0  0  0  0
  149.5136  130.7299  155.5110 H   0  0  0  0  0  0  0  0  0  0  0  0
  1  2  1  0  0  0  0
  1 24  1  0  0  0  0
  1 25  1  0  0  0  0
  1 26  1  0  0  0  0
  2 23  2  0  0  0  0
  2  3  1  0  0  0  0
  3  4  2  0  0  0  0
  3 27  1  0  0  0  0
  4  5  1  0  0  0  0
  4 28  1  0  0  0  0
  5  6  1  0  0  0  0
  5 21  1  0  0  0  0
  6  7  1  0  0  0  0
  6 29  1  0  0  0  0
  6 30  1  0  0  0  0
  7  8  2  0  0  0  0
  7  9  1  0  0  0  0
  9 10  1  0  0  0  0
  9 31  1  0  0  0  0
 10 11  1  0  0  0  0
 10 32  1  0  0  0  0
 10 33  1  0  0  0  0
 11 20  1  0  0  0  0
 11 12  1  0  0  0  0
 11 34  1  0  0  0  0
 12 13  1  0  0  0  0
 12 35  1  0  0  0  0
 12 36  1  0  0  0  0
 13 14  1  0  0  0  0
 13 18  1  0  0  0  0
 14 15  1  0  0  0  0
 14 37  1  0  0  0  0
 14 38  1  0  0  0  0
 15 16  1  0  0  0  0
 15 17  1  0  0  0  0
 15 39  1  0  0  0  0
 16 40  1  0  0  0  0
 16 41  1  0  0  0  0
 16 42  1  0  0  0  0
 17 43  1  0  0  0  0
 17 44  1  0  0  0  0
 17 45  1  0  0  0  0
 18 19  1  0  0  0  0
 18 46  1  0  0  0  0
 18 47  1  0  0  0  0
 19 20  1  0  0  0  0
 19 48  1  0  0  0  0
 19 49  1  0  0  0  0
 21 22  2  0  0  0  0
 21 23  1  0  0  0  0
 23 50  1  0  0  0  0
M  END
> <s_m_source_file>
AV-unprocessed.smi

> <i_m_source_file_index>
712

> <i_lp_mmshare_version>
43012

> <i_f3d_flags>
0

> <s_epik_input>
W0NIM11jMVtjSF1bY0hdbihjKD1PKVtjSF0xKVtDSDJdQyg9TylbTkhdW0NIMl1bQ0BASF0yW0NIMl1OKFtDSDJdW0NIMl1PMilbQ0gyXVtDSF0oW0NIM10pW0NIM10=

> <s_epik_cmdline>
J2VwaWtfcHl0aG9uJywgJy1waCcsICc3LjAnLCAnLXRuJywgJzgnLCAnLW1hJywgJzIwMCcsICctbWV0YWxfYmluZGluZycsICctaW1hZScsICc8aW5maWxlLm1hZT4nLCAnLW9tYWUnLCAnPG91dGZpbGUubWFlPic=

> <r_lp_tautomer_probability>
1

> <r_epik_Ionization_Penalty>
1.11669

> <r_epik_Ionization_Penalty_Charging>
4.93496e-07

> <r_epik_Ionization_Penalty_Neutral>
1.11669

> <r_epik_State_Penalty>
1.17516

> <r_epik_Charging_Adjusted_Penalty>
1.17516

> <i_epik_Tot_Q>
0

> <i_epik_Tot_abs_Q>
0

> <r_epik_Metal_State_Penalty>
1.17513

> <b_epik_Metal_Only>
0

> <s_lp_Force_Field>
OPLS_2005

> <r_lp_Energy>
32.9939

> <b_lp_Chiralities_Consistent>
1

> <s_lp_Variant>
AV-unprocessed.smi:712-5

> <Gold.Version>
5.8.1

> <Gold.Id.Protein>
6NUR|6NUR_protein|mol2

> <Gold.PLP.Fitness>
52.8491

> <Gold.PLP.PLP>
-45.8005

> <Gold.PLP.part.hbond>
-2.8328

> <Gold.PLP.part.metal>
0.0000

> <Gold.PLP.part.buried>
-2.2082

> <Gold.PLP.part.nonpolar>
-40.6780

> <Gold.PLP.part.repulsive>
0.1918

> <Gold.PLP.ligand.clash>
0.0000

> <Gold.PLP.ligand.torsion>
1.0237

> <Gold.PLP.Chemscore.Hbond>
2.0000

> <Gold.PLP.Chemscore.CHOScore>
1.0000

> <Gold.PLP.Chemscore.Metal>
0.0000

> <Gold.Chemscore.Hbonds>
donor molecule, donor type, donor heavy atom, donor atom, acceptor molecule, acceptor atom, score
      P1  H 10752 10763       L1     8  0.78
      L1  C     4    28       P1  7948  1.00

> <Gold.PLP.Chemscore.Internal.Correction>
0.0960

> <Gold.Rescore>
     Score         DG    S(hbond)    S(metal)    S(lipo)     H(rot)  DE(clash)    DE(int)     intcor
     17.59     -20.10       1.93        0.00     109.77       1.82       1.39       1.12       ----

> <Gold.Chemscore.Fitness>
17.5857

> <Gold.Chemscore.DG>
-20.0990

> <Gold.Chemscore.ZeroCoef>
-5.4800

> <Gold.Chemscore.Hbond>
1.9301

> <Gold.Chemscore.Metal>
0.0000

> <Gold.Chemscore.Lipo>
109.7684

> <Gold.Chemscore.Internal_Hbond>
0.0000

> <Gold.Chemscore.DEClash>
1.3899

> <Gold.Chemscore.DEInternal>
1.1234

> <Gold.Chemscore.Rot>
1.8243

> <Gold.Chemscore.Internal.Correction>
   9.000000E+99

> <Gold.Chemscore.Hbonds>
donor molecule, donor type, donor heavy atom, donor atom, acceptor molecule, acceptor atom, score
      P1  H  6896  6909       L1    22  0.03
      P1  H 10752 10763       L1     8  0.73

> <Gold.Chemscore.Hbond.Weighted>
-6.4464

> <Gold.Chemscore.Metal.Weighted>
-0.0000

> <Gold.Chemscore.Lipo.Weighted>
-12.8429

> <Gold.Chemscore.Internal_Hbond.Weighted>
0.0000

> <Gold.Chemscore.DEClash.Weighted>
1.3899

> <Gold.Chemscore.DEInternal.Weighted>
1.1234

> <Gold.Chemscore.Rot.Weighted>
4.6703

> <Gold.Chemscore.Internal.Correction.Weighted>
   9.000000E+99

> <Gold.Protein.RotatedTorsions>
[ 6907 6896 6895 6894 ] final  -28.87 input  -60.11 | X-H torsion
[ 7974 7965 7964 7962 ] final   77.68 input  175.53 | X-H torsion
[ 8008 7997 7996 7995 ] final  133.87 input   59.86 | X-H torsion
[ 10167 10162 10161 10158 ] final  124.61 input  -65.29 | X-H torsion
[ 10718 10713 10712 10709 ] final -173.46 input   66.30 | X-H torsion
[ 10763 10752 10751 10750 ] final  110.29 input  -60.55 | X-H torsion
[ 11005 11000 10999 10996 ] final   90.66 input  -57.11 | X-H torsion

> <Gold.Protein.ActiveResidues>
 VAL166  LYS551  ARG553  GLY616  TRP617  ASP618  TYR619  PRO620  LYS621  CYS622 
 ASP623  PHE694  ASN695  SER759  ASP760  ASP761  ALA762  ILE779  LEU786  VAL792 
 PHE793  MET794  SER795  GLU796  ALA797  LYS798  CYS799  TRP800  GLU811  SER814 

> <Gold.Protein.RotatedAtoms>
  151.1270  135.0110  159.8564 H   0  0  0  0  0  0  0  0  0  0  0  0  # atno 6907 bound_to 6896
  152.5450  134.1655  159.8585 H   0  0  0  0  0  0  0  0  0  0  0  0  # atno 6908 bound_to 6896
  151.1718  133.4734  159.2627 H   0  0  0  0  0  0  0  0  0  0  0  0  # atno 6909 bound_to 6896
  145.6869  139.2540  143.1782 H   0  0  0  0  0  0  0  0  0  0  0  0  # atno 7974 bound_to 7965
  156.2995  140.2510  156.3324 H   0  0  0  0  0  0  0  0  0  0  0  0  # atno 8008 bound_to 7997
  154.9132  140.0403  157.1977 H   0  0  0  0  0  0  0  0  0  0  0  0  # atno 8009 bound_to 7997
  154.8384  140.2887  155.5680 H   0  0  0  0  0  0  0  0  0  0  0  0  # atno 8010 bound_to 7997
  139.5732  144.6950  151.3724 H   0  0  0  0  0  0  0  0  0  0  0  0  # atno 10167 bound_to 10162
  156.7706  130.9447  151.3120 H   0  0  0  0  0  0  0  0  0  0  0  0  # atno 10718 bound_to 10713
  153.4469  135.3753  155.2261 H   0  0  0  0  0  0  0  0  0  0  0  0  # atno 10763 bound_to 10752
  154.8755  135.3876  154.4085 H   0  0  0  0  0  0  0  0  0  0  0  0  # atno 10764 bound_to 10752
  153.4639  135.7087  153.6098 H   0  0  0  0  0  0  0  0  0  0  0  0  # atno 10765 bound_to 10752
  139.8852  134.8627  156.3316 H   0  0  0  0  0  0  0  0  0  0  0  0  # atno 11005 bound_to 11000
  146.0915  140.7649  142.9593 LP  0  0  0  0  0  0  0  0  0  0  0  0  # atno 17320 bound_to 7965
  144.7008  140.3645  143.7157 LP  0  0  0  0  0  0  0  0  0  0  0  0  # atno 17321 bound_to 7965
  140.7015  143.7619  150.7411 LP  0  0  0  0  0  0  0  0  0  0  0  0  # atno 17342 bound_to 10162
  140.1131  143.4681  152.2358 LP  0  0  0  0  0  0  0  0  0  0  0  0  # atno 17343 bound_to 10162
  157.6693  130.9036  150.0003 LP  0  0  0  0  0  0  0  0  0  0  0  0  # atno 17370 bound_to 10713
  156.1280  130.3644  149.9777 LP  0  0  0  0  0  0  0  0  0  0  0  0  # atno 17371 bound_to 10713
  140.9719  133.7322  156.0546 LP  0  0  0  0  0  0  0  0  0  0  0  0  # atno 17394 bound_to 11000
  140.7860  134.3671  157.5476 LP  0  0  0  0  0  0  0  0  0  0  0  0  # atno 17395 bound_to 11000

$$$$
