AV-unprocessed.smi:3220|AV-procd|sdf|12299|dock1
  -GOLD-   2272018143D 1   1.00000     0.00000
 Structure written by MMmdl.
 33 34  0  0  0  0  0  0  0  0  1 V2000
  150.1070  140.3419  157.8171 C   0  0  0  0  0  0  0  0  0  0  0  0
  150.9789  141.2572  156.9470 C   0  0  2  0  0  0  0  0  0  0  0  0
  152.0806  140.4573  156.2189 C   0  0  0  0  0  0  0  0  0  0  0  0
  151.5556  139.3279  155.4719 N   0  0  0  0  0  0  0  0  0  0  0  0
  151.8562  137.9895  155.6163 C   0  0  0  0  0  0  0  0  0  0  0  0
  151.1300  137.3074  154.6826 C   0  0  0  0  0  0  0  0  0  0  0  0
  150.4022  138.3281  154.0093 C   0  0  0  0  0  0  0  0  0  0  0  0
  150.6557  139.5357  154.4869 N   0  0  0  0  0  0  0  0  0  0  0  0
  151.5647  142.2969  157.7925 N   0  0  0  0  0  0  0  0  0  0  0  0
  152.4288  142.0959  158.8001 C   0  0  0  0  0  0  0  0  0  0  0  0
  152.8548  140.9854  159.1187 O   0  0  0  0  0  0  0  0  0  0  0  0
  152.8768  143.3428  159.5690 C   0  0  1  0  0  0  0  0  0  0  0  0
  152.2553  144.6497  159.0420 C   0  0  0  0  0  0  0  0  0  0  0  0
  151.3176  145.0781  160.1541 C   0  0  0  0  0  0  0  0  0  0  0  0
  151.9948  144.4850  161.3810 C   0  0  0  0  0  0  0  0  0  0  0  0
  152.4341  143.2180  160.9190 O   0  0  0  0  0  0  0  0  0  0  0  0
  149.6358  139.5630  157.2168 H   0  0  0  0  0  0  0  0  0  0  0  0
  149.3113  140.9059  158.3050 H   0  0  0  0  0  0  0  0  0  0  0  0
  150.6950  139.8525  158.5945 H   0  0  0  0  0  0  0  0  0  0  0  0
  150.3226  141.7100  156.2014 H   0  0  0  0  0  0  0  0  0  0  0  0
  152.6346  141.1021  155.5351 H   0  0  0  0  0  0  0  0  0  0  0  0
  152.8050  140.0753  156.9398 H   0  0  0  0  0  0  0  0  0  0  0  0
  152.5596  137.6395  156.3572 H   0  0  0  0  0  0  0  0  0  0  0  0
  151.1211  136.2422  154.5058 H   0  0  0  0  0  0  0  0  0  0  0  0
  149.7013  138.2282  153.1938 H   0  0  0  0  0  0  0  0  0  0  0  0
  151.2801  143.2470  157.6034 H   0  0  0  0  0  0  0  0  0  0  0  0
  153.9652  143.4241  159.5590 H   0  0  0  0  0  0  0  0  0  0  0  0
  153.0371  145.3975  158.9042 H   0  0  0  0  0  0  0  0  0  0  0  0
  151.7351  144.5438  158.0887 H   0  0  0  0  0  0  0  0  0  0  0  0
  151.1906  146.1592  160.2156 H   0  0  0  0  0  0  0  0  0  0  0  0
  150.3360  144.6236  160.0132 H   0  0  0  0  0  0  0  0  0  0  0  0
  152.8555  145.0847  161.6807 H   0  0  0  0  0  0  0  0  0  0  0  0
  151.3216  144.3916  162.2334 H   0  0  0  0  0  0  0  0  0  0  0  0
  1  2  1  0  0  0  0
  1 17  1  0  0  0  0
  1 18  1  0  0  0  0
  1 19  1  0  0  0  0
  2  3  1  0  0  0  0
  2  9  1  0  0  0  0
  2 20  1  0  0  0  0
  3  4  1  0  0  0  0
  3 21  1  0  0  0  0
  3 22  1  0  0  0  0
  4  8  1  0  0  0  0
  4  5  1  0  0  0  0
  5  6  2  0  0  0  0
  5 23  1  0  0  0  0
  6  7  1  0  0  0  0
  6 24  1  0  0  0  0
  7  8  2  0  0  0  0
  7 25  1  0  0  0  0
  9 10  1  0  0  0  0
  9 26  1  0  0  0  0
 10 11  2  0  0  0  0
 10 12  1  0  0  0  0
 12 16  1  0  0  0  0
 12 13  1  0  0  0  0
 12 27  1  0  0  0  0
 13 14  1  0  0  0  0
 13 28  1  0  0  0  0
 13 29  1  0  0  0  0
 14 15  1  0  0  0  0
 14 30  1  0  0  0  0
 14 31  1  0  0  0  0
 15 16  1  0  0  0  0
 15 32  1  0  0  0  0
 15 33  1  0  0  0  0
M  END
> <s_m_source_file>
AV-unprocessed.smi

> <i_m_source_file_index>
3220

> <i_lp_mmshare_version>
43012

> <i_f3d_flags>
0

> <s_epik_input>
bjFbY0hdW2NIXVtjSF1uMVtDSDJdW0NAQEhdKFtDSDNdKVtOSF1DKD1PKVtDQEBIXTJbQ0gyXVtDSDJdW0NIMl1PMg==

> <s_epik_cmdline>
J2VwaWtfcHl0aG9uJywgJy1waCcsICc3LjAnLCAnLXRuJywgJzgnLCAnLW1hJywgJzIwMCcsICctbWV0YWxfYmluZGluZycsICctaW1hZScsICc8aW5maWxlLm1hZT4nLCAnLW9tYWUnLCAnPG91dGZpbGUubWFlPic=

> <r_lp_tautomer_probability>
1

> <r_epik_Ionization_Penalty>
0.00033363

> <r_epik_Ionization_Penalty_Charging>
0

> <r_epik_Ionization_Penalty_Neutral>
0.00033363

> <r_epik_State_Penalty>
-0

> <r_epik_Charging_Adjusted_Penalty>
0

> <i_epik_Tot_Q>
0

> <i_epik_Tot_abs_Q>
0

> <r_epik_Metal_State_Penalty>
-0

> <b_epik_Metal_Only>
0

> <s_lp_Force_Field>
OPLS_2005

> <r_lp_Energy>
17.4241

> <b_lp_Chiralities_Consistent>
1

> <s_lp_Variant>
AV-unprocessed.smi:3220-3

> <Gold.Version>
5.8.1

> <Gold.Id.Protein>
6NUR|6NUR_protein|mol2

> <Gold.PLP.Fitness>
42.7605

> <Gold.PLP.PLP>
-34.2501

> <Gold.PLP.part.hbond>
-1.0000

> <Gold.PLP.part.metal>
0.0000

> <Gold.PLP.part.buried>
-3.4833

> <Gold.PLP.part.nonpolar>
-30.1810

> <Gold.PLP.part.repulsive>
0.2445

> <Gold.PLP.ligand.clash>
0.0000

> <Gold.PLP.ligand.torsion>
0.0398

> <Gold.PLP.Chemscore.Hbond>
1.0000

> <Gold.PLP.Chemscore.CHOScore>
1.8505

> <Gold.PLP.Chemscore.Metal>
0.0000

> <Gold.Chemscore.Hbonds>
donor molecule, donor type, donor heavy atom, donor atom, acceptor molecule, acceptor atom, score
      P1  H  7989  7998       L1     8  0.95
      L1  C     7    25       P1  7948  1.00
      L1  C     7    25       P1  7957  0.47

> <Gold.PLP.Chemscore.Internal.Correction>
0.0382

> <Gold.Rescore>
     Score         DG    S(hbond)    S(metal)    S(lipo)     H(rot)  DE(clash)    DE(int)     intcor
     13.33     -14.70       0.88        0.00      89.14       1.62       0.33       1.04       ----

> <Gold.Chemscore.Fitness>
13.3304

> <Gold.Chemscore.DG>
-14.7025

> <Gold.Chemscore.ZeroCoef>
-5.4800

> <Gold.Chemscore.Hbond>
0.8817

> <Gold.Chemscore.Metal>
0.0000

> <Gold.Chemscore.Lipo>
89.1410

> <Gold.Chemscore.Internal_Hbond>
0.0000

> <Gold.Chemscore.DEClash>
0.3309

> <Gold.Chemscore.DEInternal>
1.0411

> <Gold.Chemscore.Rot>
1.6219

> <Gold.Chemscore.Internal.Correction>
   9.000000E+99

> <Gold.Chemscore.Hbonds>
donor molecule, donor type, donor heavy atom, donor atom, acceptor molecule, acceptor atom, score
      P1  H  7989  7998       L1     8  0.21

> <Gold.Chemscore.Hbond.Weighted>
-2.9449

> <Gold.Chemscore.Metal.Weighted>
-0.0000

> <Gold.Chemscore.Lipo.Weighted>
-10.4295

> <Gold.Chemscore.Internal_Hbond.Weighted>
0.0000

> <Gold.Chemscore.DEClash.Weighted>
0.3309

> <Gold.Chemscore.DEInternal.Weighted>
1.0411

> <Gold.Chemscore.Rot.Weighted>
4.1520

> <Gold.Chemscore.Internal.Correction.Weighted>
   9.000000E+99

> <Gold.Protein.RotatedTorsions>
[ 6907 6896 6895 6894 ] final -171.79 input  -60.11 | X-H torsion
[ 7974 7965 7964 7962 ] final   61.05 input  175.53 | X-H torsion
[ 8008 7997 7996 7995 ] final -157.90 input   59.86 | X-H torsion
[ 10167 10162 10161 10158 ] final  -90.77 input  -65.29 | X-H torsion
[ 10718 10713 10712 10709 ] final -111.02 input   66.30 | X-H torsion
[ 10763 10752 10751 10750 ] final -122.55 input  -60.55 | X-H torsion
[ 11005 11000 10999 10996 ] final -104.77 input  -57.11 | X-H torsion

> <Gold.Protein.ActiveResidues>
 VAL166  LYS551  ARG553  GLY616  TRP617  ASP618  TYR619  PRO620  LYS621  CYS622 
 ASP623  PHE694  ASN695  SER759  ASP760  ASP761  ALA762  ILE779  LEU786  VAL792 
 PHE793  MET794  SER795  GLU796  ALA797  LYS798  CYS799  TRP800  GLU811  SER814 

> <Gold.Protein.RotatedAtoms>
  151.5296  133.3451  159.2915 H   0  0  0  0  0  0  0  0  0  0  0  0  # atno 6907 bound_to 6896
  150.8602  134.7954  159.7088 H   0  0  0  0  0  0  0  0  0  0  0  0  # atno 6908 bound_to 6896
  152.4624  134.5163  159.9821 H   0  0  0  0  0  0  0  0  0  0  0  0  # atno 6909 bound_to 6896
  145.8891  139.3498  143.0660 H   0  0  0  0  0  0  0  0  0  0  0  0  # atno 7974 bound_to 7965
  155.7394  140.0812  157.2253 H   0  0  0  0  0  0  0  0  0  0  0  0  # atno 8008 bound_to 7997
  154.4023  140.1580  156.2654 H   0  0  0  0  0  0  0  0  0  0  0  0  # atno 8009 bound_to 7997
  155.9035  140.3408  155.6047 H   0  0  0  0  0  0  0  0  0  0  0  0  # atno 8010 bound_to 7997
  140.3515  143.2888  151.9720 H   0  0  0  0  0  0  0  0  0  0  0  0  # atno 10167 bound_to 10162
  156.0624  130.5846  150.8317 H   0  0  0  0  0  0  0  0  0  0  0  0  # atno 10718 bound_to 10713
  154.8691  135.4129  154.2800 H   0  0  0  0  0  0  0  0  0  0  0  0  # atno 10763 bound_to 10752
  153.3694  135.7007  153.6655 H   0  0  0  0  0  0  0  0  0  0  0  0  # atno 10764 bound_to 10752
  153.5523  135.3626  155.2736 H   0  0  0  0  0  0  0  0  0  0  0  0  # atno 10765 bound_to 10752
  141.1085  133.8751  157.1652 H   0  0  0  0  0  0  0  0  0  0  0  0  # atno 11005 bound_to 11000
  145.8930  140.9292  143.0542 LP  0  0  0  0  0  0  0  0  0  0  0  0  # atno 17320 bound_to 7965
  144.6730  140.0931  143.7464 LP  0  0  0  0  0  0  0  0  0  0  0  0  # atno 17321 bound_to 7965
  139.4826  144.6071  151.7500 LP  0  0  0  0  0  0  0  0  0  0  0  0  # atno 17342 bound_to 10162
  140.5214  144.0873  150.6024 LP  0  0  0  0  0  0  0  0  0  0  0  0  # atno 17343 bound_to 10162
  157.5641  131.0946  150.9515 LP  0  0  0  0  0  0  0  0  0  0  0  0  # atno 17370 bound_to 10713
  156.9746  130.5504  149.5292 LP  0  0  0  0  0  0  0  0  0  0  0  0  # atno 17371 bound_to 10713
  139.9966  135.0044  157.0097 LP  0  0  0  0  0  0  0  0  0  0  0  0  # atno 17394 bound_to 11000
  140.4839  134.1262  155.7221 LP  0  0  0  0  0  0  0  0  0  0  0  0  # atno 17395 bound_to 11000

$$$$
