AV-unprocessed.smi:2583|AV-procd|sdf|10142|dock4
  -GOLD-   2272014153D 1   1.00000     0.00000
 Structure written by MMmdl.
 54 56  0  0  0  0  0  0  0  0  2 V2000
  153.3952  142.3127  161.2069 C   0  0  0  0  0  0  0  0  0  0  0  0
  152.4674  143.1867  160.3894 C   0  0  0  0  0  0  0  0  0  0  0  0
  152.2006  144.5190  160.7671 C   0  0  0  0  0  0  0  0  0  0  0  0
  151.3724  145.3317  160.0780 N   0  0  0  0  0  0  0  0  0  0  0  0
  150.7788  144.8376  158.9710 C   0  0  0  0  0  0  0  0  0  0  0  0
  150.9835  143.5265  158.4919 C   0  0  0  0  0  0  0  0  0  0  0  0
  150.2800  143.1246  157.3249 N   0  0  0  0  0  0  0  0  0  0  0  0
  150.4752  142.0314  156.5680 C   0  0  0  0  0  0  0  0  0  0  0  0
  151.3634  141.1973  156.7402 O   0  0  0  0  0  0  0  0  0  0  0  0
  149.5806  141.9698  155.5714 N   0  0  0  0  0  0  0  0  0  0  0  0
  149.4996  140.9196  154.5597 C   0  0  2  0  0  0  0  0  0  0  0  0
  148.1142  140.9429  153.8871 C   0  0  0  0  0  0  0  0  0  0  0  0
  147.9313  139.7360  152.9464 C   0  0  0  0  0  0  0  0  0  0  0  0
  148.1376  138.4420  153.6583 N   0  3  2  0  0  0  0  0  0  0  0  0
  147.0507  138.0612  154.6233 C   0  0  0  0  0  0  0  0  0  0  0  0
  147.2407  136.6328  155.1880 C   0  0  0  0  0  0  0  0  0  0  0  0
  146.0651  136.1971  156.0788 C   0  0  0  0  0  0  0  0  0  0  0  0
  144.8179  136.2453  155.3215 N   0  0  0  0  0  0  0  0  0  0  0  0
  143.7277  135.7570  156.1544 C   0  0  0  0  0  0  0  0  0  0  0  0
  144.5445  137.6230  154.9232 C   0  0  0  0  0  0  0  0  0  0  0  0
  145.6464  138.1274  153.9765 C   0  0  0  0  0  0  0  0  0  0  0  0
  149.5223  138.4038  154.2098 C   0  0  0  0  0  0  0  0  0  0  0  0
  149.7698  139.5498  155.2090 C   0  0  0  0  0  0  0  0  0  0  0  0
  151.8441  142.6799  159.2314 C   0  0  0  0  0  0  0  0  0  0  0  0
  153.8212  142.8625  162.0468 H   0  0  0  0  0  0  0  0  0  0  0  0
  154.2146  141.9485  160.5867 H   0  0  0  0  0  0  0  0  0  0  0  0
  152.8532  141.4524  161.6003 H   0  0  0  0  0  0  0  0  0  0  0  0
  152.6571  144.9448  161.6486 H   0  0  0  0  0  0  0  0  0  0  0  0
  150.1202  145.5152  158.4474 H   0  0  0  0  0  0  0  0  0  0  0  0
  149.5724  143.7692  157.0041 H   0  0  0  0  0  0  0  0  0  0  0  0
  148.8953  142.7087  155.5105 H   0  0  0  0  0  0  0  0  0  0  0  0
  150.2530  141.0742  153.7851 H   0  0  0  0  0  0  0  0  0  0  0  0
  147.3265  140.9490  154.6413 H   0  0  0  0  0  0  0  0  0  0  0  0
  147.9961  141.8675  153.3211 H   0  0  0  0  0  0  0  0  0  0  0  0
  146.9694  139.7786  152.4401 H   0  0  0  0  0  0  0  0  0  0  0  0
  148.6666  139.8017  152.1432 H   0  0  0  0  0  0  0  0  0  0  0  0
  147.0633  138.7543  155.4643 H   0  0  0  0  0  0  0  0  0  0  0  0
  147.3626  135.9200  154.3710 H   0  0  0  0  0  0  0  0  0  0  0  0
  148.1408  136.5712  155.7977 H   0  0  0  0  0  0  0  0  0  0  0  0
  146.2370  135.1796  156.4322 H   0  0  0  0  0  0  0  0  0  0  0  0
  145.9995  136.8355  156.9618 H   0  0  0  0  0  0  0  0  0  0  0  0
  142.7866  135.7784  155.6034 H   0  0  0  0  0  0  0  0  0  0  0  0
  143.6104  136.3611  157.0554 H   0  0  0  0  0  0  0  0  0  0  0  0
  143.9098  134.7249  156.4560 H   0  0  0  0  0  0  0  0  0  0  0  0
  143.5810  137.6697  154.4140 H   0  0  0  0  0  0  0  0  0  0  0  0
  144.4731  138.2664  155.8019 H   0  0  0  0  0  0  0  0  0  0  0  0
  145.3893  139.1504  153.7054 H   0  0  0  0  0  0  0  0  0  0  0  0
  145.6309  137.5435  153.0547 H   0  0  0  0  0  0  0  0  0  0  0  0
  149.7632  137.4398  154.6528 H   0  0  0  0  0  0  0  0  0  0  0  0
  150.2214  138.5049  153.3785 H   0  0  0  0  0  0  0  0  0  0  0  0
  150.8003  139.5086  155.5639 H   0  0  0  0  0  0  0  0  0  0  0  0
  149.1412  139.4167  156.0902 H   0  0  0  0  0  0  0  0  0  0  0  0
  152.0231  141.6553  158.9439 H   0  0  0  0  0  0  0  0  0  0  0  0
  148.1101  137.7293  152.9429 H   0  0  0  0  0  0  0  0  0  0  0  0
  1  2  1  0  0  0  0
  1 25  1  0  0  0  0
  1 26  1  0  0  0  0
  1 27  1  0  0  0  0
  2 24  1  0  0  0  0
  2  3  2  0  0  0  0
  3  4  1  0  0  0  0
  3 28  1  0  0  0  0
  4  5  2  0  0  0  0
  5  6  1  0  0  0  0
  5 29  1  0  0  0  0
  6  7  1  0  0  0  0
  6 24  2  0  0  0  0
  7  8  1  0  0  0  0
  7 30  1  0  0  0  0
  8  9  2  0  0  0  0
  8 10  1  0  0  0  0
 10 11  1  0  0  0  0
 10 31  1  0  0  0  0
 11 23  1  0  0  0  0
 11 12  1  0  0  0  0
 11 32  1  0  0  0  0
 12 13  1  0  0  0  0
 12 33  1  0  0  0  0
 12 34  1  0  0  0  0
 13 14  1  0  0  0  0
 13 35  1  0  0  0  0
 13 36  1  0  0  0  0
 14 15  1  0  0  0  0
 14 22  1  0  0  0  0
 14 54  1  0  0  0  0
 15 21  1  0  0  0  0
 15 16  1  0  0  0  0
 15 37  1  0  0  0  0
 16 17  1  0  0  0  0
 16 38  1  0  0  0  0
 16 39  1  0  0  0  0
 17 18  1  0  0  0  0
 17 40  1  0  0  0  0
 17 41  1  0  0  0  0
 18 19  1  0  0  0  0
 18 20  1  0  0  0  0
 19 42  1  0  0  0  0
 19 43  1  0  0  0  0
 19 44  1  0  0  0  0
 20 21  1  0  0  0  0
 20 45  1  0  0  0  0
 20 46  1  0  0  0  0
 21 47  1  0  0  0  0
 21 48  1  0  0  0  0
 22 23  1  0  0  0  0
 22 49  1  0  0  0  0
 22 50  1  0  0  0  0
 23 51  1  0  0  0  0
 23 52  1  0  0  0  0
 24 53  1  0  0  0  0
M  CHG  1  14   1
M  END
> <s_m_source_file>
AV-unprocessed.smi

> <i_m_source_file_index>
2583

> <i_lp_mmshare_version>
43012

> <i_f3d_flags>
0

> <s_epik_input>
W0NIM11jMVtjSF1uW2NIXWMoW2NIXTEpW05IXUMoPU8pW05IXVtDSF0yW0NIMl1bQ0gyXU4oW0NIMl1bQ0gyXTIpW0NIXTNbQ0gyXVtDSDJdTihbQ0gzXSlbQ0gyXVtDSDJdMw==

> <s_epik_cmdline>
J2VwaWtfcHl0aG9uJywgJy1waCcsICc3LjAnLCAnLXRuJywgJzgnLCAnLW1hJywgJzIwMCcsICctbWV0YWxfYmluZGluZycsICctaW1hZScsICc8aW5maWxlLm1hZT4nLCAnLW9tYWUnLCAnPG91dGZpbGUubWFlPic=

> <r_epik_Ionization_Penalty>
1.38006

> <r_epik_Ionization_Penalty_Charging>
0.00081195

> <r_epik_Ionization_Penalty_Neutral>
1.37925

> <r_epik_State_Penalty>
1.55585

> <r_epik_Charging_Adjusted_Penalty>
1.55666

> <i_epik_Tot_Q>
1

> <i_epik_Tot_abs_Q>
1

> <r_epik_Metal_State_Penalty>
1.55173

> <b_epik_Metal_Only>
0

> <s_lp_Force_Field>
OPLS_2005

> <r_lp_Energy>
35.4229

> <b_lp_Chiralities_Consistent>
1

> <s_lp_Variant>
AV-unprocessed.smi:2583-8

> <Gold.Version>
5.8.1

> <Gold.Id.Protein>
6NUR|6NUR_protein|mol2

> <Gold.PLP.Fitness>
49.6705

> <Gold.PLP.PLP>
-36.0875

> <Gold.PLP.part.hbond>
-3.1042

> <Gold.PLP.part.metal>
0.0000

> <Gold.PLP.part.buried>
-0.4229

> <Gold.PLP.part.nonpolar>
-32.9084

> <Gold.PLP.part.repulsive>
0.3779

> <Gold.PLP.ligand.clash>
0.0000

> <Gold.PLP.ligand.torsion>
0.3378

> <Gold.PLP.Chemscore.Hbond>
3.7440

> <Gold.PLP.Chemscore.CHOScore>
0.9944

> <Gold.PLP.Chemscore.Metal>
0.0000

> <Gold.Chemscore.Hbonds>
donor molecule, donor type, donor heavy atom, donor atom, acceptor molecule, acceptor atom, score
      L1  H     7    30       P1  8028  0.98
      L1  H    10    31       P1  8028  0.75
      L1  H    14    54       P1  7948  2.00
      L1  C     5    29       P1  8029  1.00

> <Gold.PLP.Chemscore.Internal.Correction>
0.0433

> <Gold.Rescore>
     Score         DG    S(hbond)    S(metal)    S(lipo)     H(rot)  DE(clash)    DE(int)     intcor
     19.45     -24.68       2.74        0.00     112.06       1.19       2.23       2.99       ----

> <Gold.Chemscore.Fitness>
19.4530

> <Gold.Chemscore.DG>
-24.6780

> <Gold.Chemscore.ZeroCoef>
-5.4800

> <Gold.Chemscore.Hbond>
2.7353

> <Gold.Chemscore.Metal>
0.0000

> <Gold.Chemscore.Lipo>
112.0588

> <Gold.Chemscore.Internal_Hbond>
0.0000

> <Gold.Chemscore.DEClash>
2.2307

> <Gold.Chemscore.DEInternal>
2.9943

> <Gold.Chemscore.Rot>
1.1910

> <Gold.Chemscore.Internal.Correction>
   9.000000E+99

> <Gold.Chemscore.Hbonds>
donor molecule, donor type, donor heavy atom, donor atom, acceptor molecule, acceptor atom, score
      L1  H     7    30       P1  8028  0.82
      L1  H    10    31       P1  8028  0.70
      L1  H    14    54       P1  7948  0.91

> <Gold.Chemscore.Hbond.Weighted>
-9.1361

> <Gold.Chemscore.Metal.Weighted>
-0.0000

> <Gold.Chemscore.Lipo.Weighted>
-13.1109

> <Gold.Chemscore.Internal_Hbond.Weighted>
0.0000

> <Gold.Chemscore.DEClash.Weighted>
2.2307

> <Gold.Chemscore.DEInternal.Weighted>
2.9943

> <Gold.Chemscore.Rot.Weighted>
3.0489

> <Gold.Chemscore.Internal.Correction.Weighted>
   9.000000E+99

> <Gold.Protein.RotatedTorsions>
[ 6907 6896 6895 6894 ] final  -29.68 input  -60.11 | X-H torsion
[ 7974 7965 7964 7962 ] final -118.94 input  175.53 | X-H torsion
[ 8008 7997 7996 7995 ] final   98.82 input   59.86 | X-H torsion
[ 10167 10162 10161 10158 ] final  -57.97 input  -65.29 | X-H torsion
[ 10718 10713 10712 10709 ] final -163.61 input   66.30 | X-H torsion
[ 10763 10752 10751 10750 ] final -102.75 input  -60.55 | X-H torsion
[ 11005 11000 10999 10996 ] final  -46.77 input  -57.11 | X-H torsion

> <Gold.Protein.ActiveResidues>
 VAL166  LYS551  ARG553  GLY616  TRP617  ASP618  TYR619  PRO620  LYS621  CYS622 
 ASP623  PHE694  ASN695  SER759  ASP760  ASP761  ALA762  ILE779  LEU786  VAL792 
 PHE793  MET794  SER795  GLU796  ALA797  LYS798  CYS799  TRP800  GLU811  SER814 

> <Gold.Protein.RotatedAtoms>
  151.1158  135.0052  159.8515 H   0  0  0  0  0  0  0  0  0  0  0  0  # atno 6907 bound_to 6896
  152.5445  134.1781  159.8634 H   0  0  0  0  0  0  0  0  0  0  0  0  # atno 6908 bound_to 6896
  151.1835  133.4666  159.2627 H   0  0  0  0  0  0  0  0  0  0  0  0  # atno 6909 bound_to 6896
  145.0682  140.8340  143.4111 H   0  0  0  0  0  0  0  0  0  0  0  0  # atno 7974 bound_to 7965
  156.1042  140.3238  155.7984 H   0  0  0  0  0  0  0  0  0  0  0  0  # atno 8008 bound_to 7997
  155.4784  140.0552  157.2987 H   0  0  0  0  0  0  0  0  0  0  0  0  # atno 8009 bound_to 7997
  154.4717  140.2014  155.9993 H   0  0  0  0  0  0  0  0  0  0  0  0  # atno 8010 bound_to 7997
  140.6226  143.2425  151.5443 H   0  0  0  0  0  0  0  0  0  0  0  0  # atno 10167 bound_to 10162
  156.6272  130.8915  151.2970 H   0  0  0  0  0  0  0  0  0  0  0  0  # atno 10718 bound_to 10713
  154.7757  135.4849  153.9740 H   0  0  0  0  0  0  0  0  0  0  0  0  # atno 10763 bound_to 10752
  153.1426  135.6775  153.9011 H   0  0  0  0  0  0  0  0  0  0  0  0  # atno 10764 bound_to 10752
  153.8681  135.3147  155.3419 H   0  0  0  0  0  0  0  0  0  0  0  0  # atno 10765 bound_to 10752
  141.0599  133.6712  156.3202 H   0  0  0  0  0  0  0  0  0  0  0  0  # atno 11005 bound_to 11000
  145.1325  139.2623  143.5532 LP  0  0  0  0  0  0  0  0  0  0  0  0  # atno 17320 bound_to 7965
  146.3527  140.0980  142.8609 LP  0  0  0  0  0  0  0  0  0  0  0  0  # atno 17321 bound_to 7965
  139.5452  144.2541  152.1428 LP  0  0  0  0  0  0  0  0  0  0  0  0  # atno 17342 bound_to 10162
  140.1765  144.4886  150.6551 LP  0  0  0  0  0  0  0  0  0  0  0  0  # atno 17343 bound_to 10162
  157.7210  130.9559  150.1441 LP  0  0  0  0  0  0  0  0  0  0  0  0  # atno 17370 bound_to 10713
  156.2264  130.3678  149.8496 LP  0  0  0  0  0  0  0  0  0  0  0  0  # atno 17371 bound_to 10713
  140.5889  134.5671  157.5495 LP  0  0  0  0  0  0  0  0  0  0  0  0  # atno 17394 bound_to 11000
  139.9423  134.7764  156.0647 LP  0  0  0  0  0  0  0  0  0  0  0  0  # atno 17395 bound_to 11000

$$$$
