AV-unprocessed.smi:376|AV-procd|sdf|2455|dock7
  -GOLD-   2262022393D 1   1.00000     0.00000
 Structure written by MMmdl.
 32 33  0  0  0  0  0  0  0  0  1 V2000
  146.8593  142.5025  154.1078 C   0  0  0  0  0  0  0  0  0  0  0  0
  147.1477  141.3613  153.7828 C   0  0  0  0  0  0  0  0  0  0  0  0
  147.5001  139.9818  153.4058 C   0  0  0  0  0  0  0  0  0  0  0  0
  148.8892  139.6528  153.7057 N   0  0  0  0  0  0  0  0  0  0  0  0
  149.4244  139.5845  154.9348 C   0  0  0  0  0  0  0  0  0  0  0  0
  148.7803  139.7974  155.9633 O   0  0  0  0  0  0  0  0  0  0  0  0
  150.9147  139.2143  154.9935 C   0  0  0  0  0  0  0  0  0  0  0  0
  151.4726  139.2135  156.3638 N   0  0  0  0  0  0  0  0  0  0  0  0
  151.9865  137.9998  156.8882 C   0  0  0  0  0  0  0  0  0  0  0  0
  151.9948  136.9692  156.2130 O   0  0  0  0  0  0  0  0  0  0  0  0
  152.4773  138.0667  158.2628 C   0  0  0  0  0  0  0  0  0  0  0  0
  152.9718  136.8596  158.8373 C   0  0  0  0  0  0  0  0  0  0  0  0
  153.3963  135.8840  159.2928 N   0  0  0  0  0  0  0  0  0  0  0  0
  152.4540  139.2250  158.9537 C   0  0  0  0  0  0  0  0  0  0  0  0
  151.9864  140.4022  158.4115 N   0  0  0  0  0  0  0  0  0  0  0  0
  151.8258  141.5829  159.2125 C   0  0  0  0  0  0  0  0  0  0  0  0
  152.4885  142.8836  158.8019 C   0  0  0  0  0  0  0  0  0  0  0  0
  153.0137  142.1107  159.9869 C   0  0  0  0  0  0  0  0  0  0  0  0
  151.4310  140.4141  157.1134 C   0  0  0  0  0  0  0  0  0  0  0  0
  150.9155  141.4341  156.6488 O   0  0  0  0  0  0  0  0  0  0  0  0
  146.6109  143.5003  154.3919 H   0  0  0  0  0  0  0  0  0  0  0  0
  146.8507  139.3068  153.9631 H   0  0  0  0  0  0  0  0  0  0  0  0
  147.2774  139.8395  152.3472 H   0  0  0  0  0  0  0  0  0  0  0  0
  149.4902  139.4611  152.9171 H   0  0  0  0  0  0  0  0  0  0  0  0
  151.0474  138.2418  154.5169 H   0  0  0  0  0  0  0  0  0  0  0  0
  151.4677  139.9003  154.3496 H   0  0  0  0  0  0  0  0  0  0  0  0
  152.8200  139.2341  159.9704 H   0  0  0  0  0  0  0  0  0  0  0  0
  150.8597  141.6803  159.7046 H   0  0  0  0  0  0  0  0  0  0  0  0
  153.1010  142.8891  157.9022 H   0  0  0  0  0  0  0  0  0  0  0  0
  151.9473  143.8060  159.0020 H   0  0  0  0  0  0  0  0  0  0  0  0
  152.8251  142.5200  160.9773 H   0  0  0  0  0  0  0  0  0  0  0  0
  153.9701  141.6056  159.8664 H   0  0  0  0  0  0  0  0  0  0  0  0
  1  2  3  0  0  0  0
  1 21  1  0  0  0  0
  2  3  1  0  0  0  0
  3  4  1  0  0  0  0
  3 22  1  0  0  0  0
  3 23  1  0  0  0  0
  4  5  1  0  0  0  0
  4 24  1  0  0  0  0
  5  6  2  0  0  0  0
  5  7  1  0  0  0  0
  7  8  1  0  0  0  0
  7 25  1  0  0  0  0
  7 26  1  0  0  0  0
  8 19  1  0  0  0  0
  8  9  1  0  0  0  0
  9 10  2  0  0  0  0
  9 11  1  0  0  0  0
 11 12  1  0  0  0  0
 11 14  2  0  0  0  0
 12 13  3  0  0  0  0
 14 15  1  0  0  0  0
 14 27  1  0  0  0  0
 15 16  1  0  0  0  0
 15 19  1  0  0  0  0
 16 18  1  0  0  0  0
 16 17  1  0  0  0  0
 16 28  1  0  0  0  0
 17 18  1  0  0  0  0
 17 29  1  0  0  0  0
 17 30  1  0  0  0  0
 18 31  1  0  0  0  0
 18 32  1  0  0  0  0
 19 20  2  0  0  0  0
M  END
> <s_m_source_file>
AV-unprocessed.smi

> <i_m_source_file_index>
376

> <i_lp_mmshare_version>
43012

> <i_f3d_flags>
0

> <s_epik_input>
W0NIXSNDW0NIMl1bTkhdQyg9TylbQ0gyXW4xYyg9TyljKEMjTilbY0hdbihjMT1PKVtDSF0yW0NIMl1bQ0gyXTI=

> <s_epik_cmdline>
J2VwaWtfcHl0aG9uJywgJy1waCcsICc3LjAnLCAnLXRuJywgJzgnLCAnLW1hJywgJzIwMCcsICctbWV0YWxfYmluZGluZycsICctaW1hZScsICc8aW5maWxlLm1hZT4nLCAnLW9tYWUnLCAnPG91dGZpbGUubWFlPic=

> <r_lp_tautomer_probability>
1

> <r_epik_Ionization_Penalty>
1.51832e-07

> <r_epik_Ionization_Penalty_Charging>
6.72035e-11

> <r_epik_Ionization_Penalty_Neutral>
1.51764e-07

> <r_epik_State_Penalty>
-0

> <r_epik_Charging_Adjusted_Penalty>
6.72035e-11

> <i_epik_Tot_Q>
0

> <i_epik_Tot_abs_Q>
0

> <r_epik_Metal_State_Penalty>
-0

> <b_epik_Metal_Only>
0

> <s_lp_Force_Field>
OPLS_2005

> <r_lp_Energy>
28.1194

> <b_lp_Chiralities_Consistent>
1

> <s_lp_Variant>
AV-unprocessed.smi:376-1

> <Gold.Version>
5.8.1

> <Gold.Id.Protein>
6NUR|6NUR_protein|mol2

> <Gold.PLP.Fitness>
43.1338

> <Gold.PLP.PLP>
-35.8774

> <Gold.PLP.part.hbond>
-3.0000

> <Gold.PLP.part.metal>
0.0000

> <Gold.PLP.part.buried>
-3.8672

> <Gold.PLP.part.nonpolar>
-30.0672

> <Gold.PLP.part.repulsive>
0.2099

> <Gold.PLP.ligand.clash>
0.0000

> <Gold.PLP.ligand.torsion>
0.1618

> <Gold.PLP.Chemscore.Hbond>
2.4568

> <Gold.PLP.Chemscore.CHOScore>
0.0000

> <Gold.PLP.Chemscore.Metal>
0.0000

> <Gold.Chemscore.Hbonds>
donor molecule, donor type, donor heavy atom, donor atom, acceptor molecule, acceptor atom, score
      L1  H     4    24       P1  7957  0.74
      P1  H  6896  6909       L1    13  0.99
      P1  H 10752 10763       L1    10  0.54

> <Gold.PLP.Chemscore.Internal.Correction>
0.2096

> <Gold.Rescore>
     Score         DG    S(hbond)    S(metal)    S(lipo)     H(rot)  DE(clash)    DE(int)     intcor
     16.08     -16.52       2.53        0.00      64.18       1.92       0.04       0.40       ----

> <Gold.Chemscore.Fitness>
16.0752

> <Gold.Chemscore.DG>
-16.5169

> <Gold.Chemscore.ZeroCoef>
-5.4800

> <Gold.Chemscore.Hbond>
2.5281

> <Gold.Chemscore.Metal>
0.0000

> <Gold.Chemscore.Lipo>
64.1789

> <Gold.Chemscore.Internal_Hbond>
0.0000

> <Gold.Chemscore.DEClash>
0.0416

> <Gold.Chemscore.DEInternal>
0.4001

> <Gold.Chemscore.Rot>
1.9202

> <Gold.Chemscore.Internal.Correction>
   9.000000E+99

> <Gold.Chemscore.Hbonds>
donor molecule, donor type, donor heavy atom, donor atom, acceptor molecule, acceptor atom, score
      L1  H     4    24       P1  7957  0.74
      P1  H  6896  6909       L1    13  0.86
      P1  H 10752 10763       L1    10  0.52

> <Gold.Chemscore.Hbond.Weighted>
-8.4437

> <Gold.Chemscore.Metal.Weighted>
-0.0000

> <Gold.Chemscore.Lipo.Weighted>
-7.5089

> <Gold.Chemscore.Internal_Hbond.Weighted>
0.0000

> <Gold.Chemscore.DEClash.Weighted>
0.0416

> <Gold.Chemscore.DEInternal.Weighted>
0.4001

> <Gold.Chemscore.Rot.Weighted>
4.9158

> <Gold.Chemscore.Internal.Correction.Weighted>
   9.000000E+99

> <Gold.Protein.RotatedTorsions>
[ 6907 6896 6895 6894 ] final  165.04 input  -60.11 | X-H torsion
[ 7974 7965 7964 7962 ] final  139.29 input  175.53 | X-H torsion
[ 8008 7997 7996 7995 ] final    2.40 input   59.86 | X-H torsion
[ 10167 10162 10161 10158 ] final  -20.72 input  -65.29 | X-H torsion
[ 10718 10713 10712 10709 ] final  110.95 input   66.30 | X-H torsion
[ 10763 10752 10751 10750 ] final   77.75 input  -60.55 | X-H torsion
[ 11005 11000 10999 10996 ] final -129.06 input  -57.11 | X-H torsion

> <Gold.Protein.ActiveResidues>
 VAL166  LYS551  ARG553  GLY616  TRP617  ASP618  TYR619  PRO620  LYS621  CYS622 
 ASP623  PHE694  ASN695  SER759  ASP760  ASP761  ALA762  ILE779  LEU786  VAL792 
 PHE793  MET794  SER795  GLU796  ALA797  LYS798  CYS799  TRP800  GLU811  SER814 

> <Gold.Protein.RotatedAtoms>
  151.9005  133.3537  159.3828 H   0  0  0  0  0  0  0  0  0  0  0  0  # atno 6907 bound_to 6896
  150.7081  134.4832  159.5490 H   0  0  0  0  0  0  0  0  0  0  0  0  # atno 6908 bound_to 6896
  152.2420  134.8219  160.0510 H   0  0  0  0  0  0  0  0  0  0  0  0  # atno 6909 bound_to 6896
  144.9293  139.5068  143.5625 H   0  0  0  0  0  0  0  0  0  0  0  0  # atno 7974 bound_to 7965
  154.6912  140.2653  155.6811 H   0  0  0  0  0  0  0  0  0  0  0  0  # atno 8008 bound_to 7997
  156.2732  140.2791  156.1414 H   0  0  0  0  0  0  0  0  0  0  0  0  # atno 8009 bound_to 7997
  155.0894  140.0373  157.2654 H   0  0  0  0  0  0  0  0  0  0  0  0  # atno 8010 bound_to 7997
  140.7278  143.4696  151.0265 H   0  0  0  0  0  0  0  0  0  0  0  0  # atno 10167 bound_to 10162
  157.6469  131.0942  150.6678 H   0  0  0  0  0  0  0  0  0  0  0  0  # atno 10718 bound_to 10713
  153.0822  135.4902  154.8526 H   0  0  0  0  0  0  0  0  0  0  0  0  # atno 10763 bound_to 10752
  154.7166  135.3030  154.9117 H   0  0  0  0  0  0  0  0  0  0  0  0  # atno 10764 bound_to 10752
  153.9794  135.6791  153.4802 H   0  0  0  0  0  0  0  0  0  0  0  0  # atno 10765 bound_to 10752
  140.9464  134.1124  157.4103 H   0  0  0  0  0  0  0  0  0  0  0  0  # atno 11005 bound_to 11000
  146.3240  139.8231  142.8923 LP  0  0  0  0  0  0  0  0  0  0  0  0  # atno 17320 bound_to 7965
  145.3168  141.0234  143.3523 LP  0  0  0  0  0  0  0  0  0  0  0  0  # atno 17321 bound_to 7965
  139.8387  143.7593  152.3180 LP  0  0  0  0  0  0  0  0  0  0  0  0  # atno 17342 bound_to 10162
  139.7734  144.7469  151.0191 LP  0  0  0  0  0  0  0  0  0  0  0  0  # atno 17343 bound_to 10162
  156.6994  130.4618  149.5577 LP  0  0  0  0  0  0  0  0  0  0  0  0  # atno 17370 bound_to 10713
  156.1806  130.6496  151.0947 LP  0  0  0  0  0  0  0  0  0  0  0  0  # atno 17371 bound_to 10713
  139.8834  135.0052  156.6301 LP  0  0  0  0  0  0  0  0  0  0  0  0  # atno 17394 bound_to 11000
  140.7663  133.8775  155.8457 LP  0  0  0  0  0  0  0  0  0  0  0  0  # atno 17395 bound_to 11000

$$$$
