AV-unprocessed.smi:229|AV-procd|sdf|1747|dock1
  -GOLD-   2262020263D 1   1.00000     0.00000
 Structure written by MMmdl.
 58 62  0  0  0  0  0  0  0  0  1 V2000
  147.6435  133.1878  152.7572 C   0  0  0  0  0  0  0  0  0  0  0  0
  149.0668  132.7500  153.1274 C   0  0  0  0  0  0  0  0  0  0  0  0
  149.4647  133.0951  154.5720 C   0  0  2  0  0  0  0  0  0  0  0  0
  149.6878  134.6031  154.7892 C   0  0  0  0  0  0  0  0  0  0  0  0
  150.1775  134.8445  156.1403 N   0  0  0  0  0  0  0  0  0  0  0  0
  150.0961  136.1326  156.5597 C   0  0  0  0  0  0  0  0  0  0  0  0
  149.2304  136.4715  157.5528 N   0  0  0  0  0  0  0  0  0  0  0  0
  149.1510  137.7359  157.9781 C   0  0  0  0  0  0  0  0  0  0  0  0
  149.8304  138.8029  157.5542 N   0  0  0  0  0  0  0  0  0  0  0  0
  150.6947  138.4723  156.5528 C   0  0  0  0  0  0  0  0  0  0  0  0
  150.8885  137.1747  155.9998 C   0  0  0  0  0  0  0  0  0  0  0  0
  151.8406  137.2303  154.9877 N   0  0  0  0  0  0  0  0  0  0  0  0
  152.1979  138.4849  154.9537 C   0  0  0  0  0  0  0  0  0  0  0  0
  151.5612  139.3002  155.8610 N   0  0  0  0  0  0  0  0  0  0  0  0
  151.7688  140.7266  156.0387 C   0  0  0  0  0  0  0  0  0  0  0  0
  150.5483  141.4229  156.6720 C   0  0  2  0  0  0  0  0  0  0  0  0
  149.6857  141.9299  155.6711 O   0  0  0  0  0  0  0  0  0  0  0  0
  150.9439  142.5341  157.6660 C   0  0  2  0  0  0  0  0  0  0  0  0
  151.6436  143.7618  157.0755 C   0  0  0  0  0  0  0  0  0  0  0  0
  152.3729  144.2964  158.2880 C   0  0  0  0  0  0  0  0  0  0  0  0
  152.8133  143.0081  158.9787 C   0  0  0  0  0  0  0  0  0  0  0  0
  151.7957  142.0498  158.7018 O   0  0  0  0  0  0  0  0  0  0  0  0
  151.3930  134.0959  156.4434 C   0  0  0  0  0  0  0  0  0  0  0  0
  151.1863  132.5862  156.1827 C   0  0  1  0  0  0  0  0  0  0  0  0
  152.5054  131.8275  156.2871 C   0  0  0  0  0  0  0  0  0  0  0  0
  152.5048  131.3238  157.7223 C   0  0  0  0  0  0  0  0  0  0  0  0
  151.1568  130.9334  157.9044 O   0  0  0  0  0  0  0  0  0  0  0  0
  150.3242  131.8948  157.2654 C   0  0  0  0  0  0  0  0  0  0  0  0
  150.6780  132.3964  154.8587 O   0  0  0  0  0  0  0  0  0  0  0  0
  147.3914  132.8639  151.7474 H   0  0  0  0  0  0  0  0  0  0  0  0
  147.5350  134.2719  152.7892 H   0  0  0  0  0  0  0  0  0  0  0  0
  146.9091  132.7555  153.4372 H   0  0  0  0  0  0  0  0  0  0  0  0
  149.1399  131.6704  152.9913 H   0  0  0  0  0  0  0  0  0  0  0  0
  149.7803  133.1918  152.4306 H   0  0  0  0  0  0  0  0  0  0  0  0
  148.6758  132.7473  155.2394 H   0  0  0  0  0  0  0  0  0  0  0  0
  150.4207  134.9822  154.0757 H   0  0  0  0  0  0  0  0  0  0  0  0
  148.7609  135.1438  154.6053 H   0  0  0  0  0  0  0  0  0  0  0  0
  148.4417  137.9188  158.7716 H   0  0  0  0  0  0  0  0  0  0  0  0
  152.9418  138.8529  154.2621 H   0  0  0  0  0  0  0  0  0  0  0  0
  152.6494  140.8662  156.6666 H   0  0  0  0  0  0  0  0  0  0  0  0
  152.0046  141.1692  155.0701 H   0  0  0  0  0  0  0  0  0  0  0  0
  149.9741  140.6763  157.2219 H   0  0  0  0  0  0  0  0  0  0  0  0
  149.4190  142.8019  155.9182 H   0  0  0  0  0  0  0  0  0  0  0  0
  150.0384  142.8798  158.1673 H   0  0  0  0  0  0  0  0  0  0  0  0
  152.3680  143.4854  156.3088 H   0  0  0  0  0  0  0  0  0  0  0  0
  150.9470  144.4806  156.6431 H   0  0  0  0  0  0  0  0  0  0  0  0
  153.2071  144.9515  158.0352 H   0  0  0  0  0  0  0  0  0  0  0  0
  151.6834  144.8497  158.9273 H   0  0  0  0  0  0  0  0  0  0  0  0
  153.7502  142.6499  158.5499 H   0  0  0  0  0  0  0  0  0  0  0  0
  152.9592  143.1374  160.0512 H   0  0  0  0  0  0  0  0  0  0  0  0
  152.1988  134.4744  155.8125 H   0  0  0  0  0  0  0  0  0  0  0  0
  151.6928  134.2602  157.4796 H   0  0  0  0  0  0  0  0  0  0  0  0
  152.5008  130.9706  155.6117 H   0  0  0  0  0  0  0  0  0  0  0  0
  153.3810  132.4315  156.0473 H   0  0  0  0  0  0  0  0  0  0  0  0
  153.1906  130.4910  157.8794 H   0  0  0  0  0  0  0  0  0  0  0  0
  152.7583  132.1220  158.4217 H   0  0  0  0  0  0  0  0  0  0  0  0
  149.9646  132.6095  158.0067 H   0  0  0  0  0  0  0  0  0  0  0  0
  149.4559  131.3813  156.8535 H   0  0  0  0  0  0  0  0  0  0  0  0
  1  2  1  0  0  0  0
  1 30  1  0  0  0  0
  1 31  1  0  0  0  0
  1 32  1  0  0  0  0
  2  3  1  0  0  0  0
  2 33  1  0  0  0  0
  2 34  1  0  0  0  0
  3 29  1  0  0  0  0
  3  4  1  0  0  0  0
  3 35  1  0  0  0  0
  4  5  1  0  0  0  0
  4 36  1  0  0  0  0
  4 37  1  0  0  0  0
  5  6  1  0  0  0  0
  5 23  1  0  0  0  0
  6 11  1  0  0  0  0
  6  7  2  0  0  0  0
  7  8  1  0  0  0  0
  8  9  2  0  0  0  0
  8 38  1  0  0  0  0
  9 10  1  0  0  0  0
 10 14  1  0  0  0  0
 10 11  2  0  0  0  0
 11 12  1  0  0  0  0
 12 13  2  0  0  0  0
 13 14  1  0  0  0  0
 13 39  1  0  0  0  0
 14 15  1  0  0  0  0
 15 16  1  0  0  0  0
 15 40  1  0  0  0  0
 15 41  1  0  0  0  0
 16 17  1  0  0  0  0
 16 18  1  0  0  0  0
 16 42  1  0  0  0  0
 17 43  1  0  0  0  0
 18 22  1  0  0  0  0
 18 19  1  0  0  0  0
 18 44  1  0  0  0  0
 19 20  1  0  0  0  0
 19 45  1  0  0  0  0
 19 46  1  0  0  0  0
 20 21  1  0  0  0  0
 20 47  1  0  0  0  0
 20 48  1  0  0  0  0
 21 22  1  0  0  0  0
 21 49  1  0  0  0  0
 21 50  1  0  0  0  0
 23 24  1  0  0  0  0
 23 51  1  0  0  0  0
 23 52  1  0  0  0  0
 24 28  1  0  0  0  0
 24 25  1  0  0  0  0
 24 29  1  0  0  0  0
 25 26  1  0  0  0  0
 25 53  1  0  0  0  0
 25 54  1  0  0  0  0
 26 27  1  0  0  0  0
 26 55  1  0  0  0  0
 26 56  1  0  0  0  0
 27 28  1  0  0  0  0
 28 57  1  0  0  0  0
 28 58  1  0  0  0  0
M  END
> <s_m_source_file>
AV-unprocessed.smi

> <i_m_source_file_index>
229

> <i_lp_mmshare_version>
43012

> <i_f3d_flags>
0

> <s_epik_input>
W0NIMl0xT1tDSDJdW0NIMl1bQ0BdMTJbQ0gyXU4oW0NIMl1bQ0BIXShPMilbQ0gyXVtDSDNdKWMobltjSF1uMyljKGMzNCluW2NIXW40W0NIMl1bQ0BIXShbT0hdKVtDQEBIXTVbQ0gyXVtDSDJdW0NIMl1PNQ==

> <s_epik_cmdline>
J2VwaWtfcHl0aG9uJywgJy1waCcsICc3LjAnLCAnLXRuJywgJzgnLCAnLW1hJywgJzIwMCcsICctbWV0YWxfYmluZGluZycsICctaW1hZScsICc8aW5maWxlLm1hZT4nLCAnLW9tYWUnLCAnPG91dGZpbGUubWFlPic=

> <r_lp_tautomer_probability>
1

> <r_epik_Ionization_Penalty>
0.00318402

> <r_epik_Ionization_Penalty_Charging>
0

> <r_epik_Ionization_Penalty_Neutral>
0.00318402

> <r_epik_State_Penalty>
0.00215642

> <r_epik_Charging_Adjusted_Penalty>
0.00215642

> <i_epik_Tot_Q>
0

> <i_epik_Tot_abs_Q>
0

> <r_epik_Metal_State_Penalty>
-0

> <b_epik_Metal_Only>
0

> <s_lp_Force_Field>
OPLS_2005

> <r_lp_Energy>
57.781

> <b_lp_Chiralities_Consistent>
1

> <s_lp_Variant>
AV-unprocessed.smi:229-1

> <Gold.Version>
5.8.1

> <Gold.Id.Protein>
6NUR|6NUR_protein|mol2

> <Gold.PLP.Fitness>
47.7748

> <Gold.PLP.PLP>
-43.4484

> <Gold.PLP.part.hbond>
-2.0000

> <Gold.PLP.part.metal>
0.0000

> <Gold.PLP.part.buried>
-5.7015

> <Gold.PLP.part.nonpolar>
-36.0057

> <Gold.PLP.part.repulsive>
0.1208

> <Gold.PLP.ligand.clash>
0.0000

> <Gold.PLP.ligand.torsion>
1.0433

> <Gold.PLP.Chemscore.Hbond>
1.9913

> <Gold.PLP.Chemscore.CHOScore>
0.0000

> <Gold.PLP.Chemscore.Metal>
0.0000

> <Gold.Chemscore.Hbonds>
donor molecule, donor type, donor heavy atom, donor atom, acceptor molecule, acceptor atom, score
      L1  H    17    43       P1  8028  1.00
      P1  H 10752 10765       L1    12  0.98

> <Gold.PLP.Chemscore.Internal.Correction>
0.4392

> <Gold.Rescore>
     Score         DG    S(hbond)    S(metal)    S(lipo)     H(rot)  DE(clash)    DE(int)     intcor
     15.53     -17.97       1.82        0.00     108.69       2.46       0.11       2.32       ----

> <Gold.Chemscore.Fitness>
15.5321

> <Gold.Chemscore.DG>
-17.9679

> <Gold.Chemscore.ZeroCoef>
-5.4800

> <Gold.Chemscore.Hbond>
1.8165

> <Gold.Chemscore.Metal>
0.0000

> <Gold.Chemscore.Lipo>
108.6855

> <Gold.Chemscore.Internal_Hbond>
0.0000

> <Gold.Chemscore.DEClash>
0.1137

> <Gold.Chemscore.DEInternal>
2.3221

> <Gold.Chemscore.Rot>
2.4591

> <Gold.Chemscore.Internal.Correction>
   9.000000E+99

> <Gold.Chemscore.Hbonds>
donor molecule, donor type, donor heavy atom, donor atom, acceptor molecule, acceptor atom, score
      L1  H    17    43       P1  8028  0.94
      P1  H 10752 10765       L1    12  0.88

> <Gold.Chemscore.Hbond.Weighted>
-6.0671

> <Gold.Chemscore.Metal.Weighted>
-0.0000

> <Gold.Chemscore.Lipo.Weighted>
-12.7162

> <Gold.Chemscore.Internal_Hbond.Weighted>
0.0000

> <Gold.Chemscore.DEClash.Weighted>
0.1137

> <Gold.Chemscore.DEInternal.Weighted>
2.3221

> <Gold.Chemscore.Rot.Weighted>
6.2953

> <Gold.Chemscore.Internal.Correction.Weighted>
   9.000000E+99

> <Gold.Protein.RotatedTorsions>
[ 6907 6896 6895 6894 ] final  -47.99 input  -60.11 | X-H torsion
[ 7974 7965 7964 7962 ] final  -17.11 input  175.53 | X-H torsion
[ 8008 7997 7996 7995 ] final   41.42 input   59.86 | X-H torsion
[ 10167 10162 10161 10158 ] final   10.54 input  -65.29 | X-H torsion
[ 10718 10713 10712 10709 ] final    4.81 input   66.30 | X-H torsion
[ 10763 10752 10751 10750 ] final  169.46 input  -60.55 | X-H torsion
[ 11005 11000 10999 10996 ] final -106.06 input  -57.11 | X-H torsion

> <Gold.Protein.ActiveResidues>
 VAL166  LYS551  ARG553  GLY616  TRP617  ASP618  TYR619  PRO620  LYS621  CYS622 
 ASP623  PHE694  ASN695  SER759  ASP760  ASP761  ALA762  ILE779  LEU786  VAL792 
 PHE793  MET794  SER795  GLU796  ALA797  LYS798  CYS799  TRP800  GLU811  SER814 

> <Gold.Protein.RotatedAtoms>
  150.8951  134.8359  159.7320 H   0  0  0  0  0  0  0  0  0  0  0  0  # atno 6907 bound_to 6896
  152.4860  134.4588  159.9608 H   0  0  0  0  0  0  0  0  0  0  0  0  # atno 6908 bound_to 6896
  151.4646  133.3545  159.2849 H   0  0  0  0  0  0  0  0  0  0  0  0  # atno 6909 bound_to 6896
  146.1956  140.3732  142.8442 H   0  0  0  0  0  0  0  0  0  0  0  0  # atno 7974 bound_to 7965
  155.2693  140.3365  155.4266 H   0  0  0  0  0  0  0  0  0  0  0  0  # atno 8008 bound_to 7997
  156.2140  140.1781  156.7674 H   0  0  0  0  0  0  0  0  0  0  0  0  # atno 8009 bound_to 7997
  154.5726  140.0667  156.8971 H   0  0  0  0  0  0  0  0  0  0  0  0  # atno 8010 bound_to 7997
  140.6188  143.8250  150.7150 H   0  0  0  0  0  0  0  0  0  0  0  0  # atno 10167 bound_to 10162
  156.8981  130.5711  149.5648 H   0  0  0  0  0  0  0  0  0  0  0  0  # atno 10718 bound_to 10713
  154.3834  135.2753  155.2198 H   0  0  0  0  0  0  0  0  0  0  0  0  # atno 10763 bound_to 10752
  154.4295  135.5981  153.6063 H   0  0  0  0  0  0  0  0  0  0  0  0  # atno 10764 bound_to 10752
  152.9834  135.5992  154.4080 H   0  0  0  0  0  0  0  0  0  0  0  0  # atno 10765 bound_to 10752
  141.1023  133.8861  157.1811 H   0  0  0  0  0  0  0  0  0  0  0  0  # atno 11005 bound_to 11000
  144.8575  140.7091  143.6129 LP  0  0  0  0  0  0  0  0  0  0  0  0  # atno 17320 bound_to 7965
  145.3652  139.1672  143.4361 LP  0  0  0  0  0  0  0  0  0  0  0  0  # atno 17321 bound_to 7965
  140.1835  143.4095  152.1915 LP  0  0  0  0  0  0  0  0  0  0  0  0  # atno 17342 bound_to 10162
  139.5421  144.7266  151.4701 LP  0  0  0  0  0  0  0  0  0  0  0  0  # atno 17343 bound_to 10162
  156.0596  130.5651  150.9164 LP  0  0  0  0  0  0  0  0  0  0  0  0  # atno 17370 bound_to 10713
  157.6043  131.0940  150.8906 LP  0  0  0  0  0  0  0  0  0  0  0  0  # atno 17371 bound_to 10713
  139.9879  135.0075  156.9906 LP  0  0  0  0  0  0  0  0  0  0  0  0  # atno 17394 bound_to 11000
  140.4991  134.1115  155.7247 LP  0  0  0  0  0  0  0  0  0  0  0  0  # atno 17395 bound_to 11000

$$$$
