AV-unprocessed.smi:1047|AV-procd|sdf|4586|dock1
  -GOLD-   22720 3 63D 1   1.00000     0.00000
 Structure written by MMmdl.
 58 60  0  0  0  0  0  0  0  0  4 V2000
  144.9159  133.8512  151.0449 C   0  0  0  0  0  0  0  0  0  0  0  0
  145.7807  135.1167  151.1286 C   0  0  0  0  0  0  0  0  0  0  0  0
  144.9645  136.3466  151.3082 N   0  3  1  0  0  0  0  0  0  0  0  0
  144.0012  136.2930  152.4368 C   0  0  0  0  0  0  0  0  0  0  0  0
  144.7044  136.5212  153.7876 C   0  0  0  0  0  0  0  0  0  0  0  0
  145.4176  137.7517  153.7531 O   0  0  0  0  0  0  0  0  0  0  0  0
  146.4342  137.7708  152.7554 C   0  0  2  0  0  0  0  0  0  0  0  0
  147.1700  139.1158  152.8606 C   0  0  0  0  0  0  0  0  0  0  0  0
  146.4412  140.0656  153.7261 N   0  3  0  0  0  0  0  0  0  0  0  0
  147.2283  141.2551  154.1106 C   0  0  0  0  0  0  0  0  0  0  0  0
  148.6714  140.8765  154.4852 C   0  0  1  0  0  0  0  0  0  0  0  0
  149.4986  141.0772  153.3559 O   0  0  0  0  0  0  0  0  0  0  0  0
  149.1973  141.7148  155.6668 C   0  0  0  0  0  0  0  0  0  0  0  0
  150.3849  141.1255  156.3038 N   0  0  0  0  0  0  0  0  0  0  0  0
  151.0659  139.9905  155.9855 C   0  0  0  0  0  0  0  0  0  0  0  0
  152.0842  139.8567  156.8791 N   0  3  0  0  0  0  0  0  0  0  0  0
  152.0522  140.9186  157.7849 C   0  0  0  0  0  0  0  0  0  0  0  0
  152.8711  141.2138  158.8682 C   0  0  0  0  0  0  0  0  0  0  0  0
  152.5714  142.3821  159.6043 C   0  0  0  0  0  0  0  0  0  0  0  0
  153.4435  142.7297  160.7988 C   0  0  0  0  0  0  0  0  0  0  0  0
  151.4799  143.2131  159.2411 C   0  0  0  0  0  0  0  0  0  0  0  0
  151.1651  144.4667  160.0397 C   0  0  0  0  0  0  0  0  0  0  0  0
  150.6616  142.8978  158.1327 C   0  0  0  0  0  0  0  0  0  0  0  0
  150.9661  141.7391  157.4212 C   0  0  0  0  0  0  0  0  0  0  0  0
  145.7686  137.5925  151.3726 C   0  0  0  0  0  0  0  0  0  0  0  0
  145.5321  132.9806  150.8193 H   0  0  0  0  0  0  0  0  0  0  0  0
  144.1667  133.9365  150.2570 H   0  0  0  0  0  0  0  0  0  0  0  0
  144.3979  133.6446  151.9810 H   0  0  0  0  0  0  0  0  0  0  0  0
  146.5211  135.0196  151.9223 H   0  0  0  0  0  0  0  0  0  0  0  0
  146.3412  135.1942  150.1960 H   0  0  0  0  0  0  0  0  0  0  0  0
  143.2590  137.0782  152.2854 H   0  0  0  0  0  0  0  0  0  0  0  0
  143.4489  135.3542  152.4435 H   0  0  0  0  0  0  0  0  0  0  0  0
  143.9659  136.5679  154.5880 H   0  0  0  0  0  0  0  0  0  0  0  0
  145.3793  135.7003  154.0326 H   0  0  0  0  0  0  0  0  0  0  0  0
  147.1433  136.9604  152.9342 H   0  0  0  0  0  0  0  0  0  0  0  0
  148.1660  138.9626  153.2783 H   0  0  0  0  0  0  0  0  0  0  0  0
  147.3014  139.5490  151.8680 H   0  0  0  0  0  0  0  0  0  0  0  0
  145.6145  140.3773  153.2361 H   0  0  0  0  0  0  0  0  0  0  0  0
  147.2212  141.9839  153.2983 H   0  0  0  0  0  0  0  0  0  0  0  0
  146.7400  141.7263  154.9648 H   0  0  0  0  0  0  0  0  0  0  0  0
  148.7119  139.8206  154.7567 H   0  0  0  0  0  0  0  0  0  0  0  0
  149.2768  140.4307  152.7025 H   0  0  0  0  0  0  0  0  0  0  0  0
  149.4176  142.7378  155.3615 H   0  0  0  0  0  0  0  0  0  0  0  0
  148.4290  141.7889  156.4377 H   0  0  0  0  0  0  0  0  0  0  0  0
  150.8382  139.3143  155.1741 H   0  0  0  0  0  0  0  0  0  0  0  0
  153.6998  140.5760  159.1394 H   0  0  0  0  0  0  0  0  0  0  0  0
  152.8673  142.6639  161.7222 H   0  0  0  0  0  0  0  0  0  0  0  0
  153.8382  143.7417  160.7079 H   0  0  0  0  0  0  0  0  0  0  0  0
  154.2918  142.0498  160.8851 H   0  0  0  0  0  0  0  0  0  0  0  0
  150.2501  144.9443  159.6883 H   0  0  0  0  0  0  0  0  0  0  0  0
  151.9762  145.1898  159.9493 H   0  0  0  0  0  0  0  0  0  0  0  0
  151.0287  144.2278  161.0949 H   0  0  0  0  0  0  0  0  0  0  0  0
  149.8354  143.5360  157.8571 H   0  0  0  0  0  0  0  0  0  0  0  0
  146.5135  137.6065  150.5760 H   0  0  0  0  0  0  0  0  0  0  0  0
  145.1019  138.4343  151.1794 H   0  0  0  0  0  0  0  0  0  0  0  0
  146.1554  139.5883  154.5696 H   0  0  0  0  0  0  0  0  0  0  0  0
  144.4142  136.4183  150.4639 H   0  0  0  0  0  0  0  0  0  0  0  0
  152.7483  139.0928  156.8724 H   0  0  0  0  0  0  0  0  0  0  0  0
  1  2  1  0  0  0  0
  1 26  1  0  0  0  0
  1 27  1  0  0  0  0
  1 28  1  0  0  0  0
  2  3  1  0  0  0  0
  2 29  1  0  0  0  0
  2 30  1  0  0  0  0
  3 25  1  0  0  0  0
  3  4  1  0  0  0  0
  3 57  1  0  0  0  0
  4  5  1  0  0  0  0
  4 31  1  0  0  0  0
  4 32  1  0  0  0  0
  5  6  1  0  0  0  0
  5 33  1  0  0  0  0
  5 34  1  0  0  0  0
  6  7  1  0  0  0  0
  7  8  1  0  0  0  0
  7 25  1  0  0  0  0
  7 35  1  0  0  0  0
  8  9  1  0  0  0  0
  8 36  1  0  0  0  0
  8 37  1  0  0  0  0
  9 10  1  0  0  0  0
  9 38  1  0  0  0  0
  9 56  1  0  0  0  0
 10 11  1  0  0  0  0
 10 39  1  0  0  0  0
 10 40  1  0  0  0  0
 11 12  1  0  0  0  0
 11 13  1  0  0  0  0
 11 41  1  0  0  0  0
 12 42  1  0  0  0  0
 13 14  1  0  0  0  0
 13 43  1  0  0  0  0
 13 44  1  0  0  0  0
 14 24  1  0  0  0  0
 14 15  1  0  0  0  0
 15 16  2  0  0  0  0
 15 45  1  0  0  0  0
 16 17  1  0  0  0  0
 16 58  1  0  0  0  0
 17 24  2  0  0  0  0
 17 18  1  0  0  0  0
 18 19  2  0  0  0  0
 18 46  1  0  0  0  0
 19 20  1  0  0  0  0
 19 21  1  0  0  0  0
 20 47  1  0  0  0  0
 20 48  1  0  0  0  0
 20 49  1  0  0  0  0
 21 22  1  0  0  0  0
 21 23  2  0  0  0  0
 22 50  1  0  0  0  0
 22 51  1  0  0  0  0
 22 52  1  0  0  0  0
 23 24  1  0  0  0  0
 23 53  1  0  0  0  0
 25 54  1  0  0  0  0
 25 55  1  0  0  0  0
M  CHG  1   3   1
M  CHG  1   9   1
M  CHG  1  16   1
M  END
> <s_m_source_file>
AV-unprocessed.smi

> <i_m_source_file_index>
1047

> <i_lp_mmshare_version>
43012

> <i_f3d_flags>
0

> <s_epik_input>
W0NIM11bQ0gyXU4xW0NIMl1bQ0gyXU9bQ0BIXShbQ0gyXTEpW0NIMl1bTkhdW0NIMl1bQ0BIXShbT0hdKVtDSDJdbihbY0hdbjIpYyhjMjMpW2NIXWMoW0NIM10pYyhbY0hdMylbQ0gzXQ==

> <s_epik_cmdline>
J2VwaWtfcHl0aG9uJywgJy1waCcsICc3LjAnLCAnLXRuJywgJzgnLCAnLW1hJywgJzIwMCcsICctbWV0YWxfYmluZGluZycsICctaW1hZScsICc8aW5maWxlLm1hZT4nLCAnLW9tYWUnLCAnPG91dGZpbGUubWFlPic=

> <r_epik_Ionization_Penalty>
1.6114

> <r_epik_Ionization_Penalty_Charging>
1.61139

> <r_epik_Ionization_Penalty_Neutral>
5.04732e-06

> <r_epik_State_Penalty>
1.63724

> <r_epik_Charging_Adjusted_Penalty>
3.24864

> <i_epik_Tot_Q>
3

> <i_epik_Tot_abs_Q>
3

> <r_epik_Metal_State_Penalty>
5.64594

> <b_epik_Metal_Only>
0

> <s_lp_Force_Field>
OPLS_2005

> <r_lp_Energy>
39.9268

> <b_lp_Chiralities_Consistent>
1

> <s_lp_Variant>
AV-unprocessed.smi:1047-27

> <Gold.Version>
5.8.1

> <Gold.Id.Protein>
6NUR|6NUR_protein|mol2

> <Gold.PLP.Fitness>
58.4112

> <Gold.PLP.PLP>
-48.4779

> <Gold.PLP.part.hbond>
-4.4625

> <Gold.PLP.part.metal>
0.0000

> <Gold.PLP.part.buried>
1.3911

> <Gold.PLP.part.nonpolar>
-45.7462

> <Gold.PLP.part.repulsive>
0.3367

> <Gold.PLP.ligand.clash>
0.0000

> <Gold.PLP.ligand.torsion>
1.4517

> <Gold.PLP.Chemscore.Hbond>
4.2417

> <Gold.PLP.Chemscore.CHOScore>
0.0000

> <Gold.PLP.Chemscore.Metal>
0.0000

> <Gold.Chemscore.Hbonds>
donor molecule, donor type, donor heavy atom, donor atom, acceptor molecule, acceptor atom, score
      L1  H     3    57       P1 10171  0.09
      L1  H     9    38       P1 10175  1.79
      L1  H    12    42       P1  7957  0.80
      P1  H  7989  7998       L1    12  0.14
      P1  H  8011  8017       L1    12  0.95

> <Gold.PLP.Chemscore.Internal.Correction>
0.1115

> <Gold.Rescore>
     Score         DG    S(hbond)    S(metal)    S(lipo)     H(rot)  DE(clash)    DE(int)     intcor
     18.88     -21.29       2.33        0.00     129.56       2.78       0.82       1.60       ----

> <Gold.Chemscore.Fitness>
18.8794

> <Gold.Chemscore.DG>
-21.2903

> <Gold.Chemscore.ZeroCoef>
-5.4800

> <Gold.Chemscore.Hbond>
2.3295

> <Gold.Chemscore.Metal>
0.0000

> <Gold.Chemscore.Lipo>
129.5639

> <Gold.Chemscore.Internal_Hbond>
0.0000

> <Gold.Chemscore.DEClash>
0.8151

> <Gold.Chemscore.DEInternal>
1.5958

> <Gold.Chemscore.Rot>
2.7848

> <Gold.Chemscore.Internal.Correction>
   9.000000E+99

> <Gold.Chemscore.Hbonds>
donor molecule, donor type, donor heavy atom, donor atom, acceptor molecule, acceptor atom, score
      L1  H     3    57       P1 10171  0.09
      L1  H     9    38       P1 10175  0.83
      L1  H    12    42       P1  7957  0.79
      P1  H  7989  7998       L1    12  0.05
      P1  H  8011  8017       L1    12  0.21

> <Gold.Chemscore.Hbond.Weighted>
-7.7804

> <Gold.Chemscore.Metal.Weighted>
-0.0000

> <Gold.Chemscore.Lipo.Weighted>
-15.1590

> <Gold.Chemscore.Internal_Hbond.Weighted>
0.0000

> <Gold.Chemscore.DEClash.Weighted>
0.8151

> <Gold.Chemscore.DEInternal.Weighted>
1.5958

> <Gold.Chemscore.Rot.Weighted>
7.1291

> <Gold.Chemscore.Internal.Correction.Weighted>
   9.000000E+99

> <Gold.Protein.RotatedTorsions>
[ 6907 6896 6895 6894 ] final  168.36 input  -60.11 | X-H torsion
[ 7974 7965 7964 7962 ] final -173.50 input  175.53 | X-H torsion
[ 8008 7997 7996 7995 ] final  113.02 input   59.86 | X-H torsion
[ 10167 10162 10161 10158 ] final -152.87 input  -65.29 | X-H torsion
[ 10718 10713 10712 10709 ] final  126.44 input   66.30 | X-H torsion
[ 10763 10752 10751 10750 ] final  137.09 input  -60.55 | X-H torsion
[ 11005 11000 10999 10996 ] final  -64.21 input  -57.11 | X-H torsion

> <Gold.Protein.ActiveResidues>
 VAL166  LYS551  ARG553  GLY616  TRP617  ASP618  TYR619  PRO620  LYS621  CYS622 
 ASP623  PHE694  ASN695  SER759  ASP760  ASP761  ALA762  ILE779  LEU786  VAL792 
 PHE793  MET794  SER795  GLU796  ALA797  LYS798  CYS799  TRP800  GLU811  SER814 

> <Gold.Protein.RotatedAtoms>
  151.8489  133.3436  159.3666 H   0  0  0  0  0  0  0  0  0  0  0  0  # atno 6907 bound_to 6896
  150.7212  134.5318  159.5713 H   0  0  0  0  0  0  0  0  0  0  0  0  # atno 6908 bound_to 6896
  152.2808  134.7831  160.0448 H   0  0  0  0  0  0  0  0  0  0  0  0  # atno 6909 bound_to 6896
  144.7137  140.1612  143.6376 H   0  0  0  0  0  0  0  0  0  0  0  0  # atno 7974 bound_to 7965
  156.2231  140.2988  156.0000 H   0  0  0  0  0  0  0  0  0  0  0  0  # atno 8008 bound_to 7997
  155.2429  140.0423  157.2994 H   0  0  0  0  0  0  0  0  0  0  0  0  # atno 8009 bound_to 7997
  154.5872  140.2391  155.7979 H   0  0  0  0  0  0  0  0  0  0  0  0  # atno 8010 bound_to 7997
  139.7145  143.9055  152.2481 H   0  0  0  0  0  0  0  0  0  0  0  0  # atno 10167 bound_to 10162
  157.5419  131.1096  150.8845 H   0  0  0  0  0  0  0  0  0  0  0  0  # atno 10718 bound_to 10713
  153.8673  135.3060  155.3440 H   0  0  0  0  0  0  0  0  0  0  0  0  # atno 10763 bound_to 10752
  154.7822  135.4829  153.9871 H   0  0  0  0  0  0  0  0  0  0  0  0  # atno 10764 bound_to 10752
  153.1426  135.6827  153.9098 H   0  0  0  0  0  0  0  0  0  0  0  0  # atno 10765 bound_to 10752
  141.1417  133.6662  156.5797 H   0  0  0  0  0  0  0  0  0  0  0  0  # atno 11005 bound_to 11000
  145.9029  139.2441  143.1483 LP  0  0  0  0  0  0  0  0  0  0  0  0  # atno 17320 bound_to 7965
  145.9793  140.8696  143.0122 LP  0  0  0  0  0  0  0  0  0  0  0  0  # atno 17321 bound_to 7965
  139.8934  144.6953  150.8745 LP  0  0  0  0  0  0  0  0  0  0  0  0  # atno 17342 bound_to 10162
  140.7740  143.3569  151.1904 LP  0  0  0  0  0  0  0  0  0  0  0  0  # atno 17343 bound_to 10162
  156.9396  130.5379  149.5280 LP  0  0  0  0  0  0  0  0  0  0  0  0  # atno 17370 bound_to 10713
  156.0503  130.5574  150.8975 LP  0  0  0  0  0  0  0  0  0  0  0  0  # atno 17371 bound_to 10713
  140.3847  134.7492  157.4684 LP  0  0  0  0  0  0  0  0  0  0  0  0  # atno 17394 bound_to 11000
  140.0611  134.5994  155.8748 LP  0  0  0  0  0  0  0  0  0  0  0  0  # atno 17395 bound_to 11000

$$$$
