AV-unprocessed.smi:3132|AV-procd|sdf|11933|dock9
  -GOLD-   2272017323D 1   1.00000     0.00000
 Structure written by MMmdl.
 33 34  0  0  0  0  0  0  0  0  1 V2000
  152.0072  137.5360  159.5915 C   0  0  0  0  0  0  0  0  0  0  0  0
  151.3221  138.0180  158.3058 C   0  0  2  0  0  0  0  0  0  0  0  0
  152.2571  137.8851  157.0853 C   0  0  0  0  0  0  0  0  0  0  0  0
  151.6479  138.3681  155.8591 N   0  0  0  0  0  0  0  0  0  0  0  0
  151.2185  137.6077  154.7788 C   0  0  0  0  0  0  0  0  0  0  0  0
  150.7248  138.4926  153.8473 C   0  0  0  0  0  0  0  0  0  0  0  0
  150.8331  139.7936  154.3329 N   0  0  0  0  0  0  0  0  0  0  0  0
  151.3880  139.6402  155.5282 C   0  0  0  0  0  0  0  0  0  0  0  0
  150.9018  139.4071  158.4823 N   0  0  0  0  0  0  0  0  0  0  0  0
  151.6965  140.4852  158.3921 C   0  0  0  0  0  0  0  0  0  0  0  0
  152.8911  140.4244  158.0986 O   0  0  0  0  0  0  0  0  0  0  0  0
  151.0431  141.8311  158.7244 C   0  0  2  0  0  0  0  0  0  0  0  0
  151.2732  142.9270  157.6674 C   0  0  0  0  0  0  0  0  0  0  0  0
  152.2734  143.8535  158.3289 C   0  0  0  0  0  0  0  0  0  0  0  0
  151.9060  143.7032  159.7980 C   0  0  0  0  0  0  0  0  0  0  0  0
  151.6345  142.3163  159.9293 O   0  0  0  0  0  0  0  0  0  0  0  0
  152.3165  136.4941  159.5037 H   0  0  0  0  0  0  0  0  0  0  0  0
  151.3330  137.6069  160.4459 H   0  0  0  0  0  0  0  0  0  0  0  0
  152.8946  138.1284  159.8164 H   0  0  0  0  0  0  0  0  0  0  0  0
  150.4496  137.3808  158.1486 H   0  0  0  0  0  0  0  0  0  0  0  0
  153.1879  138.4289  157.2528 H   0  0  0  0  0  0  0  0  0  0  0  0
  152.5298  136.8401  156.9334 H   0  0  0  0  0  0  0  0  0  0  0  0
  151.3063  136.5314  154.7586 H   0  0  0  0  0  0  0  0  0  0  0  0
  150.3039  138.2945  152.8727 H   0  0  0  0  0  0  0  0  0  0  0  0
  151.6166  140.4734  156.1765 H   0  0  0  0  0  0  0  0  0  0  0  0
  149.9364  139.5584  158.7366 H   0  0  0  0  0  0  0  0  0  0  0  0
  149.9718  141.6938  158.8817 H   0  0  0  0  0  0  0  0  0  0  0  0
  151.6281  142.5559  156.7049 H   0  0  0  0  0  0  0  0  0  0  0  0
  150.3393  143.4599  157.4845 H   0  0  0  0  0  0  0  0  0  0  0  0
  153.2895  143.4956  158.1577 H   0  0  0  0  0  0  0  0  0  0  0  0
  152.2053  144.8820  157.9739 H   0  0  0  0  0  0  0  0  0  0  0  0
  152.7043  144.0214  160.4685 H   0  0  0  0  0  0  0  0  0  0  0  0
  151.0066  144.2736  160.0341 H   0  0  0  0  0  0  0  0  0  0  0  0
  1  2  1  0  0  0  0
  1 17  1  0  0  0  0
  1 18  1  0  0  0  0
  1 19  1  0  0  0  0
  2  3  1  0  0  0  0
  2  9  1  0  0  0  0
  2 20  1  0  0  0  0
  3  4  1  0  0  0  0
  3 21  1  0  0  0  0
  3 22  1  0  0  0  0
  4  8  1  0  0  0  0
  4  5  1  0  0  0  0
  5  6  2  0  0  0  0
  5 23  1  0  0  0  0
  6  7  1  0  0  0  0
  6 24  1  0  0  0  0
  7  8  2  0  0  0  0
  8 25  1  0  0  0  0
  9 10  1  0  0  0  0
  9 26  1  0  0  0  0
 10 11  2  0  0  0  0
 10 12  1  0  0  0  0
 12 16  1  0  0  0  0
 12 13  1  0  0  0  0
 12 27  1  0  0  0  0
 13 14  1  0  0  0  0
 13 28  1  0  0  0  0
 13 29  1  0  0  0  0
 14 15  1  0  0  0  0
 14 30  1  0  0  0  0
 14 31  1  0  0  0  0
 15 16  1  0  0  0  0
 15 32  1  0  0  0  0
 15 33  1  0  0  0  0
M  END
> <s_m_source_file>
AV-unprocessed.smi

> <i_m_source_file_index>
3132

> <i_lp_mmshare_version>
43012

> <i_f3d_flags>
0

> <s_epik_input>
W2NIXTFuW2NIXVtjSF1uMVtDSDJdW0NAQEhdKFtDSDNdKVtOSF1DKD1PKVtDQEBIXTJbQ0gyXVtDSDJdW0NIMl1PMg==

> <s_epik_cmdline>
J2VwaWtfcHl0aG9uJywgJy1waCcsICc3LjAnLCAnLXRuJywgJzgnLCAnLW1hJywgJzIwMCcsICctbWV0YWxfYmluZGluZycsICctaW1hZScsICc8aW5maWxlLm1hZT4nLCAnLW9tYWUnLCAnPG91dGZpbGUubWFlPic=

> <r_lp_tautomer_probability>
1

> <r_epik_Ionization_Penalty>
0.630322

> <r_epik_Ionization_Penalty_Charging>
0.630322

> <r_epik_Ionization_Penalty_Neutral>
3.82652e-08

> <r_epik_State_Penalty>
0.647117

> <r_epik_Charging_Adjusted_Penalty>
1.27744

> <i_epik_Tot_Q>
0

> <i_epik_Tot_abs_Q>
0

> <r_epik_Metal_State_Penalty>
0.309095

> <b_epik_Metal_Only>
0

> <s_lp_Force_Field>
OPLS_2005

> <r_lp_Energy>
19.5701

> <b_lp_Chiralities_Consistent>
1

> <s_lp_Variant>
AV-unprocessed.smi:3132-5

> <Gold.Version>
5.8.1

> <Gold.Id.Protein>
6NUR|6NUR_protein|mol2

> <Gold.PLP.Fitness>
39.5701

> <Gold.PLP.PLP>
-29.2769

> <Gold.PLP.part.hbond>
-2.3629

> <Gold.PLP.part.metal>
0.0000

> <Gold.PLP.part.buried>
-3.6829

> <Gold.PLP.part.nonpolar>
-23.9134

> <Gold.PLP.part.repulsive>
0.2744

> <Gold.PLP.ligand.clash>
0.0000

> <Gold.PLP.ligand.torsion>
0.4720

> <Gold.PLP.Chemscore.Hbond>
1.8160

> <Gold.PLP.Chemscore.CHOScore>
1.9203

> <Gold.PLP.Chemscore.Metal>
0.0000

> <Gold.Chemscore.Hbonds>
donor molecule, donor type, donor heavy atom, donor atom, acceptor molecule, acceptor atom, score
      P1  H  7989  7998       L1     7  1.00
      P1  H  7997  8009       L1    11  0.82
      L1  C     6    24       P1  7948  0.66
      L1  C     6    24       P1  7949  0.08
      L1  C     6    24       P1  7957  0.84

> <Gold.PLP.Chemscore.Internal.Correction>
0.0282

> <Gold.Rescore>
     Score         DG    S(hbond)    S(metal)    S(lipo)     H(rot)  DE(clash)    DE(int)     intcor
     13.38     -15.48       1.84        0.00      73.75       1.86       0.01       2.10       ----

> <Gold.Chemscore.Fitness>
13.3805

> <Gold.Chemscore.DG>
-15.4839

> <Gold.Chemscore.ZeroCoef>
-5.4800

> <Gold.Chemscore.Hbond>
1.8400

> <Gold.Chemscore.Metal>
0.0000

> <Gold.Chemscore.Lipo>
73.7534

> <Gold.Chemscore.Internal_Hbond>
0.0000

> <Gold.Chemscore.DEClash>
0.0075

> <Gold.Chemscore.DEInternal>
2.0959

> <Gold.Chemscore.Rot>
1.8636

> <Gold.Chemscore.Internal.Correction>
   9.000000E+99

> <Gold.Chemscore.Hbonds>
donor molecule, donor type, donor heavy atom, donor atom, acceptor molecule, acceptor atom, score
      P1  H  7989  7998       L1     7  0.74
      P1  H  7997  8009       L1    11  0.77

> <Gold.Chemscore.Hbond.Weighted>
-6.1456

> <Gold.Chemscore.Metal.Weighted>
-0.0000

> <Gold.Chemscore.Lipo.Weighted>
-8.6291

> <Gold.Chemscore.Internal_Hbond.Weighted>
0.0000

> <Gold.Chemscore.DEClash.Weighted>
0.0075

> <Gold.Chemscore.DEInternal.Weighted>
2.0959

> <Gold.Chemscore.Rot.Weighted>
4.7709

> <Gold.Chemscore.Internal.Correction.Weighted>
   9.000000E+99

> <Gold.Protein.RotatedTorsions>
[ 6907 6896 6895 6894 ] final  109.52 input  -60.11 | X-H torsion
[ 7974 7965 7964 7962 ] final    9.15 input  175.53 | X-H torsion
[ 8008 7997 7996 7995 ] final  154.96 input   59.86 | X-H torsion
[ 10167 10162 10161 10158 ] final   89.36 input  -65.29 | X-H torsion
[ 10718 10713 10712 10709 ] final   65.54 input   66.30 | X-H torsion
[ 10763 10752 10751 10750 ] final   61.86 input  -60.55 | X-H torsion
[ 11005 11000 10999 10996 ] final  173.87 input  -57.11 | X-H torsion

> <Gold.Protein.ActiveResidues>
 VAL166  LYS551  ARG553  GLY616  TRP617  ASP618  TYR619  PRO620  LYS621  CYS622 
 ASP623  PHE694  ASN695  SER759  ASP760  ASP761  ALA762  ILE779  LEU786  VAL792 
 PHE793  MET794  SER795  GLU796  ALA797  LYS798  CYS799  TRP800  GLU811  SER814 

> <Gold.Protein.RotatedAtoms>
  152.5063  133.8933  159.7404 H   0  0  0  0  0  0  0  0  0  0  0  0  # atno 6907 bound_to 6896
  150.9366  133.6696  159.2806 H   0  0  0  0  0  0  0  0  0  0  0  0  # atno 6908 bound_to 6896
  151.4022  135.0977  159.9612 H   0  0  0  0  0  0  0  0  0  0  0  0  # atno 6909 bound_to 6896
  146.2407  139.9827  142.8434 H   0  0  0  0  0  0  0  0  0  0  0  0  # atno 7974 bound_to 7965
  156.2504  140.1952  156.6727 H   0  0  0  0  0  0  0  0  0  0  0  0  # atno 8008 bound_to 7997
  154.6381  140.0587  156.9838 H   0  0  0  0  0  0  0  0  0  0  0  0  # atno 8009 bound_to 7997
  155.1606  140.3259  155.4415 H   0  0  0  0  0  0  0  0  0  0  0  0  # atno 8010 bound_to 7997
  139.8580  144.6559  150.9092 H   0  0  0  0  0  0  0  0  0  0  0  0  # atno 10167 bound_to 10162
  157.6112  130.9219  149.9989 H   0  0  0  0  0  0  0  0  0  0  0  0  # atno 10718 bound_to 10713
  152.9964  135.5485  154.6101 H   0  0  0  0  0  0  0  0  0  0  0  0  # atno 10763 bound_to 10752
  154.5424  135.2821  155.1086 H   0  0  0  0  0  0  0  0  0  0  0  0  # atno 10764 bound_to 10752
  154.2358  135.6425  153.5243 H   0  0  0  0  0  0  0  0  0  0  0  0  # atno 10765 bound_to 10752
  140.3451  134.7243  157.4229 H   0  0  0  0  0  0  0  0  0  0  0  0  # atno 11005 bound_to 11000
  145.1577  140.9656  143.4396 LP  0  0  0  0  0  0  0  0  0  0  0  0  # atno 17320 bound_to 7965
  145.0146  139.3479  143.6103 LP  0  0  0  0  0  0  0  0  0  0  0  0  # atno 17321 bound_to 7965
  140.7779  143.3769  151.1547 LP  0  0  0  0  0  0  0  0  0  0  0  0  # atno 17342 bound_to 10162
  139.7401  143.8938  152.3047 LP  0  0  0  0  0  0  0  0  0  0  0  0  # atno 17343 bound_to 10162
  156.1215  130.3646  149.9879 LP  0  0  0  0  0  0  0  0  0  0  0  0  # atno 17370 bound_to 10713
  156.7958  130.9273  151.3646 LP  0  0  0  0  0  0  0  0  0  0  0  0  # atno 17371 bound_to 10713
  140.0749  134.5812  155.8602 LP  0  0  0  0  0  0  0  0  0  0  0  0  # atno 17394 bound_to 11000
  141.2028  133.6627  156.6025 LP  0  0  0  0  0  0  0  0  0  0  0  0  # atno 17395 bound_to 11000

$$$$
