AV-unprocessed.smi:3030|AV-procd|sdf|11535|dock3
  -GOLD-   2272016483D 1   1.00000     0.00000
 Structure written by MMmdl.
 52 53  0  0  0  0  0  0  0  0  1 V2000
  148.0965  141.2071  154.3918 C   0  0  0  0  0  0  0  0  0  0  0  0
  149.3810  141.4322  155.1971 C   0  0  0  0  0  0  0  0  0  0  0  0
  150.1793  140.2185  155.2884 N   0  0  0  0  0  0  0  0  0  0  0  0
  151.3946  140.2016  155.9653 C   0  0  0  0  0  0  0  0  0  0  0  0
  152.1609  139.1036  156.1138 C   0  0  0  0  0  0  0  0  0  0  0  0
  151.7074  137.8213  155.5375 C   0  0  0  0  0  0  0  0  0  0  0  0
  152.3880  136.8010  155.6424 O   0  0  0  0  0  0  0  0  0  0  0  0
  150.3985  137.8353  154.8330 C   0  0  0  0  0  0  0  0  0  0  0  0
  149.9726  136.6185  154.2780 N   0  0  0  0  0  0  0  0  0  0  0  0
  149.9335  135.3998  154.8460 C   0  0  0  0  0  0  0  0  0  0  0  0
  150.3365  135.1204  155.9749 O   0  0  0  0  0  0  0  0  0  0  0  0
  149.3973  134.5022  154.0061 N   0  0  0  0  0  0  0  0  0  0  0  0
  149.2161  133.0738  154.2659 C   0  0  2  0  0  0  0  0  0  0  0  0
  150.5939  132.4783  154.6202 C   0  0  0  0  0  0  0  0  0  0  0  0
  150.5352  130.9584  154.8493 C   0  0  2  0  0  0  0  0  0  0  0  0
  151.9169  130.3881  155.1997 C   0  0  0  0  0  0  0  0  0  0  0  0
  149.9387  130.2644  153.6147 C   0  0  0  0  0  0  0  0  0  0  0  0
  148.5500  130.8256  153.2784 C   0  0  0  0  0  0  0  0  0  0  0  0
  148.5823  132.3547  153.0405 C   0  0  1  0  0  0  0  0  0  0  0  0
  147.2009  132.9322  152.6073 C   0  0  0  0  0  0  0  0  0  0  0  0
  146.1628  132.9989  153.7431 C   0  0  0  0  0  0  0  0  0  0  0  0
  146.6186  132.2042  151.3836 C   0  0  0  0  0  0  0  0  0  0  0  0
  149.7308  139.0140  154.7503 C   0  0  0  0  0  0  0  0  0  0  0  0
  147.5094  142.1238  154.3348 H   0  0  0  0  0  0  0  0  0  0  0  0
  147.4728  140.4395  154.8513 H   0  0  0  0  0  0  0  0  0  0  0  0
  148.3207  140.8917  153.3724 H   0  0  0  0  0  0  0  0  0  0  0  0
  149.9729  142.2234  154.7356 H   0  0  0  0  0  0  0  0  0  0  0  0
  149.1335  141.7814  156.2002 H   0  0  0  0  0  0  0  0  0  0  0  0
  151.6926  141.1583  156.3693 H   0  0  0  0  0  0  0  0  0  0  0  0
  153.1004  139.1390  156.6455 H   0  0  0  0  0  0  0  0  0  0  0  0
  149.6784  136.6769  153.3140 H   0  0  0  0  0  0  0  0  0  0  0  0
  149.0950  134.8326  153.1013 H   0  0  0  0  0  0  0  0  0  0  0  0
  148.5698  132.9277  155.1324 H   0  0  0  0  0  0  0  0  0  0  0  0
  151.3033  132.6952  153.8198 H   0  0  0  0  0  0  0  0  0  0  0  0
  150.9833  132.9669  155.5146 H   0  0  0  0  0  0  0  0  0  0  0  0
  149.8755  130.7684  155.6972 H   0  0  0  0  0  0  0  0  0  0  0  0
  152.6306  130.5530  154.3919 H   0  0  0  0  0  0  0  0  0  0  0  0
  151.8642  129.3145  155.3832 H   0  0  0  0  0  0  0  0  0  0  0  0
  152.3183  130.8556  156.0991 H   0  0  0  0  0  0  0  0  0  0  0  0
  150.6027  130.3917  152.7586 H   0  0  0  0  0  0  0  0  0  0  0  0
  149.8646  129.1908  153.7904 H   0  0  0  0  0  0  0  0  0  0  0  0
  148.1704  130.3078  152.3984 H   0  0  0  0  0  0  0  0  0  0  0  0
  147.8688  130.5860  154.0951 H   0  0  0  0  0  0  0  0  0  0  0  0
  149.2612  132.5244  152.2028 H   0  0  0  0  0  0  0  0  0  0  0  0
  147.3618  133.9567  152.2731 H   0  0  0  0  0  0  0  0  0  0  0  0
  145.8838  132.0067  154.0969 H   0  0  0  0  0  0  0  0  0  0  0  0
  145.2499  133.4887  153.4034 H   0  0  0  0  0  0  0  0  0  0  0  0
  146.5301  133.5674  154.5964 H   0  0  0  0  0  0  0  0  0  0  0  0
  146.3278  131.1803  151.6181 H   0  0  0  0  0  0  0  0  0  0  0  0
  147.3372  132.1709  150.5644 H   0  0  0  0  0  0  0  0  0  0  0  0
  145.7294  132.7164  151.0149 H   0  0  0  0  0  0  0  0  0  0  0  0
  148.7921  139.1181  154.2288 H   0  0  0  0  0  0  0  0  0  0  0  0
  1  2  1  0  0  0  0
  1 24  1  0  0  0  0
  1 25  1  0  0  0  0
  1 26  1  0  0  0  0
  2  3  1  0  0  0  0
  2 27  1  0  0  0  0
  2 28  1  0  0  0  0
  3 23  1  0  0  0  0
  3  4  1  0  0  0  0
  4  5  2  0  0  0  0
  4 29  1  0  0  0  0
  5  6  1  0  0  0  0
  5 30  1  0  0  0  0
  6  7  2  0  0  0  0
  6  8  1  0  0  0  0
  8  9  1  0  0  0  0
  8 23  2  0  0  0  0
  9 10  1  0  0  0  0
  9 31  1  0  0  0  0
 10 11  2  0  0  0  0
 10 12  1  0  0  0  0
 12 13  1  0  0  0  0
 12 32  1  0  0  0  0
 13 19  1  0  0  0  0
 13 14  1  0  0  0  0
 13 33  1  0  0  0  0
 14 15  1  0  0  0  0
 14 34  1  0  0  0  0
 14 35  1  0  0  0  0
 15 16  1  0  0  0  0
 15 17  1  0  0  0  0
 15 36  1  0  0  0  0
 16 37  1  0  0  0  0
 16 38  1  0  0  0  0
 16 39  1  0  0  0  0
 17 18  1  0  0  0  0
 17 40  1  0  0  0  0
 17 41  1  0  0  0  0
 18 19  1  0  0  0  0
 18 42  1  0  0  0  0
 18 43  1  0  0  0  0
 19 20  1  0  0  0  0
 19 44  1  0  0  0  0
 20 21  1  0  0  0  0
 20 22  1  0  0  0  0
 20 45  1  0  0  0  0
 21 46  1  0  0  0  0
 21 47  1  0  0  0  0
 21 48  1  0  0  0  0
 22 49  1  0  0  0  0
 22 50  1  0  0  0  0
 22 51  1  0  0  0  0
 23 52  1  0  0  0  0
M  END
> <s_m_source_file>
AV-unprocessed.smi

> <i_m_source_file_index>
3030

> <i_lp_mmshare_version>
43012

> <i_f3d_flags>
0

> <s_epik_input>
W0NIM11bQ0gyXW4xW2NIXVtjSF1jKD1PKWMoW2NIXTEpW05IXUMoPU8pW05IXVtDQEBIXTJbQ0gyXVtDQEBIXShbQ0gzXSlbQ0gyXVtDSDJdW0NASF0yW0NIXShbQ0gzXSlbQ0gzXQ==

> <s_epik_cmdline>
J2VwaWtfcHl0aG9uJywgJy1waCcsICc3LjAnLCAnLXRuJywgJzgnLCAnLW1hJywgJzIwMCcsICctbWV0YWxfYmluZGluZycsICctaW1hZScsICc8aW5maWxlLm1hZT4nLCAnLW9tYWUnLCAnPG91dGZpbGUubWFlPic=

> <r_lp_tautomer_probability>
1

> <r_epik_Ionization_Penalty>
0.00147933

> <r_epik_Ionization_Penalty_Charging>
0.00145753

> <r_epik_Ionization_Penalty_Neutral>
2.17987e-05

> <r_epik_State_Penalty>
0.00097457

> <r_epik_Charging_Adjusted_Penalty>
0.0024321

> <i_epik_Tot_Q>
0

> <i_epik_Tot_abs_Q>
0

> <r_epik_Metal_State_Penalty>
-0

> <b_epik_Metal_Only>
0

> <s_lp_Force_Field>
OPLS_2005

> <r_lp_Energy>
10.2365

> <b_lp_Chiralities_Consistent>
1

> <s_lp_Variant>
AV-unprocessed.smi:3030-3

> <Gold.Version>
5.8.1

> <Gold.Id.Protein>
6NUR|6NUR_protein|mol2

> <Gold.PLP.Fitness>
51.5939

> <Gold.PLP.PLP>
-43.4982

> <Gold.PLP.part.hbond>
-3.5773

> <Gold.PLP.part.metal>
0.0000

> <Gold.PLP.part.buried>
-2.7320

> <Gold.PLP.part.nonpolar>
-38.3549

> <Gold.PLP.part.repulsive>
0.1155

> <Gold.PLP.ligand.clash>
0.0000

> <Gold.PLP.ligand.torsion>
0.4841

> <Gold.PLP.Chemscore.Hbond>
2.9680

> <Gold.PLP.Chemscore.CHOScore>
0.0000

> <Gold.PLP.Chemscore.Metal>
0.0000

> <Gold.Chemscore.Hbonds>
donor molecule, donor type, donor heavy atom, donor atom, acceptor molecule, acceptor atom, score
      L1  H     9    31       P1  7948  1.00
      L1  H    12    32       P1  7948  0.64
      P1  H 10752 10763       L1     7  0.88

> <Gold.PLP.Chemscore.Internal.Correction>
0.1600

> <Gold.Rescore>
     Score         DG    S(hbond)    S(metal)    S(lipo)     H(rot)  DE(clash)    DE(int)     intcor
     17.61     -20.62       2.57        0.00      83.77       1.27       0.08       2.92       ----

> <Gold.Chemscore.Fitness>
17.6136

> <Gold.Chemscore.DG>
-20.6162

> <Gold.Chemscore.ZeroCoef>
-5.4800

> <Gold.Chemscore.Hbond>
2.5697

> <Gold.Chemscore.Metal>
0.0000

> <Gold.Chemscore.Lipo>
83.7668

> <Gold.Chemscore.Internal_Hbond>
0.0000

> <Gold.Chemscore.DEClash>
0.0849

> <Gold.Chemscore.DEInternal>
2.9177

> <Gold.Chemscore.Rot>
1.2685

> <Gold.Chemscore.Internal.Correction>
   9.000000E+99

> <Gold.Chemscore.Hbonds>
donor molecule, donor type, donor heavy atom, donor atom, acceptor molecule, acceptor atom, score
      L1  H     9    31       P1  7948  0.44
      L1  H    12    32       P1  7948  0.05
      P1  H 10752 10763       L1     7  0.86

> <Gold.Chemscore.Hbond.Weighted>
-8.5829

> <Gold.Chemscore.Metal.Weighted>
-0.0000

> <Gold.Chemscore.Lipo.Weighted>
-9.8007

> <Gold.Chemscore.Internal_Hbond.Weighted>
0.0000

> <Gold.Chemscore.DEClash.Weighted>
0.0849

> <Gold.Chemscore.DEInternal.Weighted>
2.9177

> <Gold.Chemscore.Rot.Weighted>
3.2474

> <Gold.Chemscore.Internal.Correction.Weighted>
   9.000000E+99

> <Gold.Protein.RotatedTorsions>
[ 6907 6896 6895 6894 ] final -121.66 input  -60.11 | X-H torsion
[ 7974 7965 7964 7962 ] final    6.82 input  175.53 | X-H torsion
[ 8008 7997 7996 7995 ] final    0.96 input   59.86 | X-H torsion
[ 10167 10162 10161 10158 ] final -133.91 input  -65.29 | X-H torsion
[ 10718 10713 10712 10709 ] final -167.57 input   66.30 | X-H torsion
[ 10763 10752 10751 10750 ] final   71.95 input  -60.55 | X-H torsion
[ 11005 11000 10999 10996 ] final   41.72 input  -57.11 | X-H torsion

> <Gold.Protein.ActiveResidues>
 VAL166  LYS551  ARG553  GLY616  TRP617  ASP618  TYR619  PRO620  LYS621  CYS622 
 ASP623  PHE694  ASN695  SER759  ASP760  ASP761  ALA762  ILE779  LEU786  VAL792 
 PHE793  MET794  SER795  GLU796  ALA797  LYS798  CYS799  TRP800  GLU811  SER814 

> <Gold.Protein.RotatedAtoms>
  150.8504  133.7796  159.3027 H   0  0  0  0  0  0  0  0  0  0  0  0  # atno 6907 bound_to 6896
  151.5469  135.1066  159.9950 H   0  0  0  0  0  0  0  0  0  0  0  0  # atno 6908 bound_to 6896
  152.4548  133.7658  159.6827 H   0  0  0  0  0  0  0  0  0  0  0  0  # atno 6909 bound_to 6896
  146.2432  140.0176  142.8401 H   0  0  0  0  0  0  0  0  0  0  0  0  # atno 7974 bound_to 7965
  154.6741  140.2618  155.6976 H   0  0  0  0  0  0  0  0  0  0  0  0  # atno 8008 bound_to 7997
  156.2671  140.2823  156.1183 H   0  0  0  0  0  0  0  0  0  0  0  0  # atno 8009 bound_to 7997
  155.1126  140.0376  157.2718 H   0  0  0  0  0  0  0  0  0  0  0  0  # atno 8010 bound_to 7997
  139.8935  143.6694  152.2608 H   0  0  0  0  0  0  0  0  0  0  0  0  # atno 10167 bound_to 10162
  156.6843  130.9134  151.3061 H   0  0  0  0  0  0  0  0  0  0  0  0  # atno 10718 bound_to 10713
  153.0429  135.5118  154.7670 H   0  0  0  0  0  0  0  0  0  0  0  0  # atno 10763 bound_to 10752
  154.6593  135.2936  154.9890 H   0  0  0  0  0  0  0  0  0  0  0  0  # atno 10764 bound_to 10752
  154.0746  135.6672  153.4881 H   0  0  0  0  0  0  0  0  0  0  0  0  # atno 10765 bound_to 10752
  140.1807  134.4107  155.8202 H   0  0  0  0  0  0  0  0  0  0  0  0  # atno 11005 bound_to 11000
  145.1271  140.9496  143.4566 LP  0  0  0  0  0  0  0  0  0  0  0  0  # atno 17320 bound_to 7965
  145.0424  139.3249  143.5970 LP  0  0  0  0  0  0  0  0  0  0  0  0  # atno 17321 bound_to 7965
  139.7089  144.7623  151.1146 LP  0  0  0  0  0  0  0  0  0  0  0  0  # atno 17342 bound_to 10162
  140.7722  143.5358  150.9370 LP  0  0  0  0  0  0  0  0  0  0  0  0  # atno 17343 bound_to 10162
  157.7032  130.9356  150.0849 LP  0  0  0  0  0  0  0  0  0  0  0  0  # atno 17370 bound_to 10713
  156.1844  130.3651  149.8992 LP  0  0  0  0  0  0  0  0  0  0  0  0  # atno 17371 bound_to 10713
  141.2223  133.6999  156.7925 LP  0  0  0  0  0  0  0  0  0  0  0  0  # atno 17394 bound_to 11000
  140.2271  134.8714  157.3438 LP  0  0  0  0  0  0  0  0  0  0  0  0  # atno 17395 bound_to 11000

$$$$
