AV-unprocessed.smi:110|AV-procd|sdf|1076|dock5
  -GOLD-   2262018163D 1   1.00000     0.00000
 Structure written by MMmdl.
 46 50  0  0  0  0  0  0  0  0  1 V2000
  147.6466  138.8306  151.6184 O   0  0  0  0  0  0  0  0  0  0  0  0
  147.1953  139.2983  152.8723 C   0  0  0  0  0  0  0  0  0  0  0  0
  148.1825  138.9647  154.0052 C   0  0  2  0  0  0  0  0  0  0  0  0
  149.4125  139.6537  153.8230 O   0  0  0  0  0  0  0  0  0  0  0  0
  150.4194  139.0114  154.5509 C   0  0  1  0  0  0  0  0  0  0  0  0
  150.8047  139.8955  155.6965 N   0  0  0  0  0  0  0  0  0  0  0  0
  150.2851  141.1157  156.0703 C   0  0  0  0  0  0  0  0  0  0  0  0
  150.8340  141.6522  157.1265 N   0  0  0  0  0  0  0  0  0  0  0  0
  151.8127  140.7407  157.5071 C   0  0  0  0  0  0  0  0  0  0  0  0
  152.7733  140.6809  158.5571 C   0  0  0  0  0  0  0  0  0  0  0  0
  152.9437  141.6368  159.5003 N   0  0  0  0  0  0  0  0  0  0  0  0
  153.4090  141.2555  160.8414 C   0  0  0  0  0  0  0  0  0  0  0  0
  153.0767  142.4179  161.7961 C   0  0  0  0  0  0  0  0  0  0  0  0
  152.5491  143.4341  160.8353 C   0  0  0  0  0  0  0  0  0  0  0  0
  152.1510  144.7514  161.1222 C   0  0  0  0  0  0  0  0  0  0  0  0
  151.7020  145.5578  160.0545 C   0  0  0  0  0  0  0  0  0  0  0  0
  151.6687  145.0452  158.7367 C   0  0  0  0  0  0  0  0  0  0  0  0
  152.0762  143.7191  158.4719 C   0  0  0  0  0  0  0  0  0  0  0  0
  152.5026  142.9116  159.5467 C   0  0  0  0  0  0  0  0  0  0  0  0
  153.5383  139.5626  158.6448 N   0  0  0  0  0  0  0  0  0  0  0  0
  153.4079  138.5854  157.7430 C   0  0  0  0  0  0  0  0  0  0  0  0
  152.5789  138.5183  156.6995 N   0  0  0  0  0  0  0  0  0  0  0  0
  151.7868  139.6259  156.6228 C   0  0  0  0  0  0  0  0  0  0  0  0
  149.8635  137.6424  155.0183 C   0  0  1  0  0  0  0  0  0  0  0  0
  149.5689  137.5915  156.4073 O   0  0  0  0  0  0  0  0  0  0  0  0
  148.6139  137.5048  154.1536 C   0  0  1  0  0  0  0  0  0  0  0  0
  147.6136  136.6806  154.7225 O   0  0  0  0  0  0  0  0  0  0  0  0
  147.7584  139.3134  154.9489 H   0  0  0  0  0  0  0  0  0  0  0  0
  151.3210  138.9328  153.9417 H   0  0  0  0  0  0  0  0  0  0  0  0
  150.5897  136.8604  154.7947 H   0  0  0  0  0  0  0  0  0  0  0  0
  148.9037  137.0924  153.1865 H   0  0  0  0  0  0  0  0  0  0  0  0
  148.2478  138.1159  151.7629 H   0  0  0  0  0  0  0  0  0  0  0  0
  147.0204  140.3732  152.8214 H   0  0  0  0  0  0  0  0  0  0  0  0
  146.2327  138.8285  153.0750 H   0  0  0  0  0  0  0  0  0  0  0  0
  149.4814  141.6008  155.5364 H   0  0  0  0  0  0  0  0  0  0  0  0
  152.9336  140.3305  161.1704 H   0  0  0  0  0  0  0  0  0  0  0  0
  154.4858  141.0849  160.8104 H   0  0  0  0  0  0  0  0  0  0  0  0
  152.3076  142.1453  162.5193 H   0  0  0  0  0  0  0  0  0  0  0  0
  153.9571  142.7870  162.3228 H   0  0  0  0  0  0  0  0  0  0  0  0
  152.1914  145.1376  162.1300 H   0  0  0  0  0  0  0  0  0  0  0  0
  151.3903  146.5744  160.2437 H   0  0  0  0  0  0  0  0  0  0  0  0
  151.3333  145.6738  157.9252 H   0  0  0  0  0  0  0  0  0  0  0  0
  152.0628  143.3405  157.4606 H   0  0  0  0  0  0  0  0  0  0  0  0
  154.0612  137.7360  157.8773 H   0  0  0  0  0  0  0  0  0  0  0  0
  148.7435  137.1455  156.5207 H   0  0  0  0  0  0  0  0  0  0  0  0
  147.8298  136.5300  155.6299 H   0  0  0  0  0  0  0  0  0  0  0  0
  1  2  1  0  0  0  0
  1 32  1  0  0  0  0
  2  3  1  0  0  0  0
  2 33  1  0  0  0  0
  2 34  1  0  0  0  0
  3 28  1  0  0  0  0
  3 26  1  0  0  0  0
  3  4  1  0  0  0  0
  4  5  1  0  0  0  0
  5 29  1  0  0  0  0
  5  6  1  0  0  0  0
  5 24  1  0  0  0  0
  6 23  1  0  0  0  0
  6  7  1  0  0  0  0
  7  8  2  0  0  0  0
  7 35  1  0  0  0  0
  8  9  1  0  0  0  0
  9 23  2  0  0  0  0
  9 10  1  0  0  0  0
 10 11  1  0  0  0  0
 10 20  2  0  0  0  0
 11 19  1  0  0  0  0
 11 12  1  0  0  0  0
 12 13  1  0  0  0  0
 12 36  1  0  0  0  0
 12 37  1  0  0  0  0
 13 14  1  0  0  0  0
 13 38  1  0  0  0  0
 13 39  1  0  0  0  0
 14 19  2  0  0  0  0
 14 15  1  0  0  0  0
 15 16  2  0  0  0  0
 15 40  1  0  0  0  0
 16 17  1  0  0  0  0
 16 41  1  0  0  0  0
 17 18  2  0  0  0  0
 17 42  1  0  0  0  0
 18 19  1  0  0  0  0
 18 43  1  0  0  0  0
 20 21  1  0  0  0  0
 21 22  2  0  0  0  0
 21 44  1  0  0  0  0
 22 23  1  0  0  0  0
 24 30  1  0  0  0  0
 24 25  1  0  0  0  0
 24 26  1  0  0  0  0
 25 45  1  0  0  0  0
 26 31  1  0  0  0  0
 26 27  1  0  0  0  0
 27 46  1  0  0  0  0
M  END
> <s_m_source_file>
AV-unprocessed.smi

> <i_m_source_file_index>
110

> <i_lp_mmshare_version>
43012

> <i_f3d_flags>
0

> <s_epik_input>
W09IXVtDSDJdW0NASF0xT1tDQEhdKFtDQEhdKFtPSF0pW0NAQEhdMVtPSF0pbihbY0hdbjIpYyhjMjMpbltjSF1uYzNOKFtDSDJdW0NIMl00KWMoYzQ1KVtjSF1bY0hdW2NIXVtjSF01

> <s_epik_cmdline>
J2VwaWtfcHl0aG9uJywgJy1waCcsICc3LjAnLCAnLXRuJywgJzgnLCAnLW1hJywgJzIwMCcsICctbWV0YWxfYmluZGluZycsICctaW1hZScsICc8aW5maWxlLm1hZT4nLCAnLW9tYWUnLCAnPG91dGZpbGUubWFlPic=

> <r_lp_tautomer_probability>
1

> <r_epik_Ionization_Penalty>
0.00068475

> <r_epik_Ionization_Penalty_Charging>
0

> <r_epik_Ionization_Penalty_Neutral>
0.00068475

> <r_epik_State_Penalty>
0.000417442

> <r_epik_Charging_Adjusted_Penalty>
0.000417442

> <i_epik_Tot_Q>
0

> <i_epik_Tot_abs_Q>
0

> <r_epik_Metal_State_Penalty>
-0

> <b_epik_Metal_Only>
0

> <s_epik_Chemistry_Notes>
This compound contains an acetal/aminal-like group ( X-CH(R)-Y where X, Y are N, S, or O) that may be acid/base labile, releasing an aldehyde.

> <s_lp_Force_Field>
OPLS_2005

> <r_lp_Energy>
66.8802

> <b_lp_Chiralities_Consistent>
1

> <s_lp_Variant>
AV-unprocessed.smi:110-14

> <Gold.Version>
5.8.1

> <Gold.Id.Protein>
6NUR|6NUR_protein|mol2

> <Gold.PLP.Fitness>
54.6699

> <Gold.PLP.PLP>
-51.9821

> <Gold.PLP.part.hbond>
-3.9370

> <Gold.PLP.part.metal>
0.0000

> <Gold.PLP.part.buried>
-3.3504

> <Gold.PLP.part.nonpolar>
-46.9271

> <Gold.PLP.part.repulsive>
2.1417

> <Gold.PLP.ligand.clash>
0.0000

> <Gold.PLP.ligand.torsion>
0.2525

> <Gold.PLP.Chemscore.Hbond>
1.0395

> <Gold.PLP.Chemscore.CHOScore>
0.0000

> <Gold.PLP.Chemscore.Metal>
0.0000

> <Gold.Chemscore.Hbonds>
donor molecule, donor type, donor heavy atom, donor atom, acceptor molecule, acceptor atom, score
      L1  H     1    32       P1  7948  1.00

> <Gold.PLP.Chemscore.Internal.Correction>
0.0744

> <Gold.Rescore>
     Score         DG    S(hbond)    S(metal)    S(lipo)     H(rot)  DE(clash)    DE(int)     intcor
     10.67     -13.63       0.95        0.00     116.49       3.38       0.54       2.42       ----

> <Gold.Chemscore.Fitness>
10.6718

> <Gold.Chemscore.DG>
-13.6316

> <Gold.Chemscore.ZeroCoef>
-5.4800

> <Gold.Chemscore.Hbond>
0.9535

> <Gold.Chemscore.Metal>
0.0000

> <Gold.Chemscore.Lipo>
116.4889

> <Gold.Chemscore.Internal_Hbond>
0.0000

> <Gold.Chemscore.DEClash>
0.5424

> <Gold.Chemscore.DEInternal>
2.4174

> <Gold.Chemscore.Rot>
3.3837

> <Gold.Chemscore.Internal.Correction>
   9.000000E+99

> <Gold.Chemscore.Hbonds>
donor molecule, donor type, donor heavy atom, donor atom, acceptor molecule, acceptor atom, score
      L1  H     1    32       P1  7948  0.97

> <Gold.Chemscore.Hbond.Weighted>
-3.1846

> <Gold.Chemscore.Metal.Weighted>
-0.0000

> <Gold.Chemscore.Lipo.Weighted>
-13.6292

> <Gold.Chemscore.Internal_Hbond.Weighted>
0.0000

> <Gold.Chemscore.DEClash.Weighted>
0.5424

> <Gold.Chemscore.DEInternal.Weighted>
2.4174

> <Gold.Chemscore.Rot.Weighted>
8.6622

> <Gold.Chemscore.Internal.Correction.Weighted>
   9.000000E+99

> <Gold.Protein.RotatedTorsions>
[ 6907 6896 6895 6894 ] final  111.25 input  -60.11 | X-H torsion
[ 7974 7965 7964 7962 ] final  173.83 input  175.53 | X-H torsion
[ 8008 7997 7996 7995 ] final -125.35 input   59.86 | X-H torsion
[ 10167 10162 10161 10158 ] final   85.60 input  -65.29 | X-H torsion
[ 10718 10713 10712 10709 ] final  177.34 input   66.30 | X-H torsion
[ 10763 10752 10751 10750 ] final  -43.86 input  -60.55 | X-H torsion
[ 11005 11000 10999 10996 ] final  -13.33 input  -57.11 | X-H torsion

> <Gold.Protein.ActiveResidues>
 VAL166  LYS551  ARG553  GLY616  TRP617  ASP618  TYR619  PRO620  LYS621  CYS622 
 ASP623  PHE694  ASN695  SER759  ASP760  ASP761  ALA762  ILE779  LEU786  VAL792 
 PHE793  MET794  SER795  GLU796  ALA797  LYS798  CYS799  TRP800  GLU811  SER814 

> <Gold.Protein.RotatedAtoms>
  152.4979  133.8685  159.7285 H   0  0  0  0  0  0  0  0  0  0  0  0  # atno 6907 bound_to 6896
  150.9178  133.6909  159.2846 H   0  0  0  0  0  0  0  0  0  0  0  0  # atno 6908 bound_to 6896
  151.4297  135.1012  159.9691 H   0  0  0  0  0  0  0  0  0  0  0  0  # atno 6909 bound_to 6896
  144.7235  139.9706  143.6437 H   0  0  0  0  0  0  0  0  0  0  0  0  # atno 7974 bound_to 7965
  155.2119  140.0419  157.2934 H   0  0  0  0  0  0  0  0  0  0  0  0  # atno 8008 bound_to 7997
  154.6006  140.2451  155.7769 H   0  0  0  0  0  0  0  0  0  0  0  0  # atno 8009 bound_to 7997
  156.2318  140.2935  156.0218 H   0  0  0  0  0  0  0  0  0  0  0  0  # atno 8010 bound_to 7997
  139.8960  144.6357  150.8687 H   0  0  0  0  0  0  0  0  0  0  0  0  # atno 10167 bound_to 10162
  156.9068  130.9896  151.3027 H   0  0  0  0  0  0  0  0  0  0  0  0  # atno 10718 bound_to 10713
  154.0025  135.6691  153.4760 H   0  0  0  0  0  0  0  0  0  0  0  0  # atno 10763 bound_to 10752
  153.0656  135.5003  154.8188 H   0  0  0  0  0  0  0  0  0  0  0  0  # atno 10764 bound_to 10752
  154.7044  135.3085  154.9256 H   0  0  0  0  0  0  0  0  0  0  0  0  # atno 10765 bound_to 10752
  140.7750  133.8408  155.9240 H   0  0  0  0  0  0  0  0  0  0  0  0  # atno 11005 bound_to 11000
  146.0565  139.3562  143.0607 LP  0  0  0  0  0  0  0  0  0  0  0  0  # atno 17320 bound_to 7965
  145.8147  140.9708  143.0930 LP  0  0  0  0  0  0  0  0  0  0  0  0  # atno 17321 bound_to 7965
  140.7717  143.3473  151.2085 LP  0  0  0  0  0  0  0  0  0  0  0  0  # atno 17342 bound_to 10162
  139.7067  143.9444  152.2930 LP  0  0  0  0  0  0  0  0  0  0  0  0  # atno 17343 bound_to 10162
  157.5992  130.8500  149.8776 LP  0  0  0  0  0  0  0  0  0  0  0  0  # atno 17370 bound_to 10713
  156.0555  130.3709  150.1101 LP  0  0  0  0  0  0  0  0  0  0  0  0  # atno 17371 bound_to 10713
  140.9538  134.1745  157.4708 LP  0  0  0  0  0  0  0  0  0  0  0  0  # atno 17394 bound_to 11000
  139.8750  134.9919  156.5571 LP  0  0  0  0  0  0  0  0  0  0  0  0  # atno 17395 bound_to 11000

$$$$
