AV-unprocessed.smi:3165|AV-procd|sdf|12085|dock9
  -GOLD-   2272017513D 1   1.00000     0.00000
 Structure written by MMmdl.
 38 39  0  0  0  0  0  0  0  0  2 V2000
  144.2753  136.4136  152.1987 C   0  0  0  0  0  0  0  0  0  0  0  0
  145.7361  136.0988  151.8358 C   0  0  2  0  0  0  0  0  0  0  0  0
  146.1021  134.6198  152.1005 C   0  0  0  0  0  0  0  0  0  0  0  0
  145.4116  133.6995  151.2151 N   0  0  0  0  0  0  0  0  0  0  0  0
  145.9433  132.7010  150.4259 C   0  0  0  0  0  0  0  0  0  0  0  0
  144.9046  132.1112  149.7639 C   0  0  0  0  0  0  0  0  0  0  0  0
  143.7632  132.8311  150.2148 C   0  0  0  0  0  0  0  0  0  0  0  0
  144.0704  133.7829  151.0811 N   0  0  0  0  0  0  0  0  0  0  0  0
  146.6331  137.0121  152.5787 N   0  3  0  0  0  0  0  0  0  0  0  0
  146.4550  138.4499  152.2838 C   0  0  0  0  0  0  0  0  0  0  0  0
  147.0862  139.3215  153.3786 C   0  0  2  0  0  0  0  0  0  0  0  0
  147.1524  140.8036  152.9607 C   0  0  0  0  0  0  0  0  0  0  0  0
  147.8755  141.6344  154.0266 C   0  0  0  0  0  0  0  0  0  0  0  0
  149.2406  141.0086  154.3289 C   0  0  0  0  0  0  0  0  0  0  0  0
  149.0798  139.5197  154.6733 C   0  0  0  0  0  0  0  0  0  0  0  0
  148.4103  138.8447  153.6118 O   0  0  0  0  0  0  0  0  0  0  0  0
  143.5773  135.8252  151.6027 H   0  0  0  0  0  0  0  0  0  0  0  0
  144.0441  137.4641  152.0185 H   0  0  0  0  0  0  0  0  0  0  0  0
  144.0737  136.2039  153.2495 H   0  0  0  0  0  0  0  0  0  0  0  0
  145.8563  136.3087  150.7718 H   0  0  0  0  0  0  0  0  0  0  0  0
  147.1724  134.4525  151.9787 H   0  0  0  0  0  0  0  0  0  0  0  0
  145.8620  134.3514  153.1302 H   0  0  0  0  0  0  0  0  0  0  0  0
  147.0030  132.4936  150.4016 H   0  0  0  0  0  0  0  0  0  0  0  0
  144.9521  131.2917  149.0621 H   0  0  0  0  0  0  0  0  0  0  0  0
  142.7280  132.6926  149.9391 H   0  0  0  0  0  0  0  0  0  0  0  0
  146.4498  136.8850  153.5639 H   0  0  0  0  0  0  0  0  0  0  0  0
  146.8912  138.6976  151.3162 H   0  0  0  0  0  0  0  0  0  0  0  0
  145.3870  138.6622  152.2189 H   0  0  0  0  0  0  0  0  0  0  0  0
  146.4983  139.2297  154.2941 H   0  0  0  0  0  0  0  0  0  0  0  0
  147.6787  140.8952  152.0096 H   0  0  0  0  0  0  0  0  0  0  0  0
  146.1481  141.1975  152.8010 H   0  0  0  0  0  0  0  0  0  0  0  0
  147.9947  142.6649  153.6905 H   0  0  0  0  0  0  0  0  0  0  0  0
  147.2760  141.6674  154.9372 H   0  0  0  0  0  0  0  0  0  0  0  0
  149.8928  141.1129  153.4609 H   0  0  0  0  0  0  0  0  0  0  0  0
  149.7254  141.5373  155.1500 H   0  0  0  0  0  0  0  0  0  0  0  0
  150.0583  139.0622  154.8197 H   0  0  0  0  0  0  0  0  0  0  0  0
  148.5268  139.3932  155.6053 H   0  0  0  0  0  0  0  0  0  0  0  0
  147.5923  136.7519  152.3971 H   0  0  0  0  0  0  0  0  0  0  0  0
  1  2  1  0  0  0  0
  1 17  1  0  0  0  0
  1 18  1  0  0  0  0
  1 19  1  0  0  0  0
  2  3  1  0  0  0  0
  2  9  1  0  0  0  0
  2 20  1  0  0  0  0
  3  4  1  0  0  0  0
  3 21  1  0  0  0  0
  3 22  1  0  0  0  0
  4  8  1  0  0  0  0
  4  5  1  0  0  0  0
  5  6  2  0  0  0  0
  5 23  1  0  0  0  0
  6  7  1  0  0  0  0
  6 24  1  0  0  0  0
  7  8  2  0  0  0  0
  7 25  1  0  0  0  0
  9 10  1  0  0  0  0
  9 26  1  0  0  0  0
  9 38  1  0  0  0  0
 10 11  1  0  0  0  0
 10 27  1  0  0  0  0
 10 28  1  0  0  0  0
 11 16  1  0  0  0  0
 11 12  1  0  0  0  0
 11 29  1  0  0  0  0
 12 13  1  0  0  0  0
 12 30  1  0  0  0  0
 12 31  1  0  0  0  0
 13 14  1  0  0  0  0
 13 32  1  0  0  0  0
 13 33  1  0  0  0  0
 14 15  1  0  0  0  0
 14 34  1  0  0  0  0
 14 35  1  0  0  0  0
 15 16  1  0  0  0  0
 15 36  1  0  0  0  0
 15 37  1  0  0  0  0
M  CHG  1   9   1
M  END
> <s_m_source_file>
AV-unprocessed.smi

> <i_m_source_file_index>
3165

> <i_lp_mmshare_version>
43012

> <i_f3d_flags>
0

> <s_epik_input>
bjFbY0hdW2NIXVtjSF1uMVtDSDJdW0NAQEhdKFtDSDNdKVtOSF1bQ0gyXVtDQEBIXTJbQ0gyXVtDSDJdW0NIMl1bQ0gyXU8y

> <s_epik_cmdline>
J2VwaWtfcHl0aG9uJywgJy1waCcsICc3LjAnLCAnLXRuJywgJzgnLCAnLW1hJywgJzIwMCcsICctbWV0YWxfYmluZGluZycsICctaW1hZScsICc8aW5maWxlLm1hZT4nLCAnLW9tYWUnLCAnPG91dGZpbGUubWFlPic=

> <r_lp_tautomer_probability>
1

> <r_epik_Ionization_Penalty>
0.00849196

> <r_epik_Ionization_Penalty_Charging>
0.00848754

> <r_epik_Ionization_Penalty_Neutral>
4.42049e-06

> <r_epik_State_Penalty>
0.00639836

> <r_epik_Charging_Adjusted_Penalty>
0.0148859

> <i_epik_Tot_Q>
1

> <i_epik_Tot_abs_Q>
1

> <r_epik_Metal_State_Penalty>
0.00639878

> <b_epik_Metal_Only>
0

> <s_lp_Force_Field>
OPLS_2005

> <r_lp_Energy>
12.7964

> <b_lp_Chiralities_Consistent>
1

> <s_lp_Variant>
AV-unprocessed.smi:3165-1

> <Gold.Version>
5.8.1

> <Gold.Id.Protein>
6NUR|6NUR_protein|mol2

> <Gold.PLP.Fitness>
44.8953

> <Gold.PLP.PLP>
-33.4799

> <Gold.PLP.part.hbond>
-0.9872

> <Gold.PLP.part.metal>
0.0000

> <Gold.PLP.part.buried>
-4.0023

> <Gold.PLP.part.nonpolar>
-29.9584

> <Gold.PLP.part.repulsive>
1.1869

> <Gold.PLP.ligand.clash>
0.0000

> <Gold.PLP.ligand.torsion>
0.2538

> <Gold.PLP.Chemscore.Hbond>
2.0000

> <Gold.PLP.Chemscore.CHOScore>
1.9662

> <Gold.PLP.Chemscore.Metal>
0.0000

> <Gold.Chemscore.Hbonds>
donor molecule, donor type, donor heavy atom, donor atom, acceptor molecule, acceptor atom, score
      L1  H     9    38       P1  7948  2.00
      L1  C     5    23       P1 10747  0.93
      L1  C     7    25       P1 10186  0.97

> <Gold.PLP.Chemscore.Internal.Correction>
0.0244

> <Gold.Rescore>
     Score         DG    S(hbond)    S(metal)    S(lipo)     H(rot)  DE(clash)    DE(int)     intcor
     13.69     -14.90       0.99        0.00      88.19       1.64       0.00       1.21       ----

> <Gold.Chemscore.Fitness>
13.6918

> <Gold.Chemscore.DG>
-14.9010

> <Gold.Chemscore.ZeroCoef>
-5.4800

> <Gold.Chemscore.Hbond>
0.9918

> <Gold.Chemscore.Metal>
0.0000

> <Gold.Chemscore.Lipo>
88.1900

> <Gold.Chemscore.Internal_Hbond>
0.0000

> <Gold.Chemscore.DEClash>
0.0038

> <Gold.Chemscore.DEInternal>
1.2054

> <Gold.Chemscore.Rot>
1.6444

> <Gold.Chemscore.Internal.Correction>
   9.000000E+99

> <Gold.Chemscore.Hbonds>
donor molecule, donor type, donor heavy atom, donor atom, acceptor molecule, acceptor atom, score
      L1  H     9    38       P1  7948  0.94

> <Gold.Chemscore.Hbond.Weighted>
-3.3125

> <Gold.Chemscore.Metal.Weighted>
-0.0000

> <Gold.Chemscore.Lipo.Weighted>
-10.3182

> <Gold.Chemscore.Internal_Hbond.Weighted>
0.0000

> <Gold.Chemscore.DEClash.Weighted>
0.0038

> <Gold.Chemscore.DEInternal.Weighted>
1.2054

> <Gold.Chemscore.Rot.Weighted>
4.2097

> <Gold.Chemscore.Internal.Correction.Weighted>
   9.000000E+99

> <Gold.Protein.RotatedTorsions>
[ 6907 6896 6895 6894 ] final  174.22 input  -60.11 | X-H torsion
[ 7974 7965 7964 7962 ] final   99.95 input  175.53 | X-H torsion
[ 8008 7997 7996 7995 ] final -101.20 input   59.86 | X-H torsion
[ 10167 10162 10161 10158 ] final   -3.85 input  -65.29 | X-H torsion
[ 10718 10713 10712 10709 ] final   24.58 input   66.30 | X-H torsion
[ 10763 10752 10751 10750 ] final -101.64 input  -60.55 | X-H torsion
[ 11005 11000 10999 10996 ] final  130.86 input  -57.11 | X-H torsion

> <Gold.Protein.ActiveResidues>
 VAL166  LYS551  ARG553  GLY616  TRP617  ASP618  TYR619  PRO620  LYS621  CYS622 
 ASP623  PHE694  ASN695  SER759  ASP760  ASP761  ALA762  ILE779  LEU786  VAL792 
 PHE793  MET794  SER795  GLU796  ALA797  LYS798  CYS799  TRP800  GLU811  SER814 

> <Gold.Protein.RotatedAtoms>
  151.7558  133.3330  159.3403 H   0  0  0  0  0  0  0  0  0  0  0  0  # atno 6907 bound_to 6896
  150.7517  134.6151  159.6116 H   0  0  0  0  0  0  0  0  0  0  0  0  # atno 6908 bound_to 6896
  152.3438  134.7100  160.0307 H   0  0  0  0  0  0  0  0  0  0  0  0  # atno 6909 bound_to 6896
  145.3920  139.2361  143.3346 H   0  0  0  0  0  0  0  0  0  0  0  0  # atno 7974 bound_to 7965
  154.8392  140.0436  157.1530 H   0  0  0  0  0  0  0  0  0  0  0  0  # atno 8008 bound_to 7997
  154.9065  140.3007  155.5269 H   0  0  0  0  0  0  0  0  0  0  0  0  # atno 8009 bound_to 7997
  156.2991  140.2366  156.4100 H   0  0  0  0  0  0  0  0  0  0  0  0  # atno 8010 bound_to 7997
  140.6906  143.6491  150.8366 H   0  0  0  0  0  0  0  0  0  0  0  0  # atno 10167 bound_to 10162
  157.1818  130.6806  149.6116 H   0  0  0  0  0  0  0  0  0  0  0  0  # atno 10718 bound_to 10713
  154.7673  135.4890  153.9579 H   0  0  0  0  0  0  0  0  0  0  0  0  # atno 10763 bound_to 10752
  153.1323  135.6755  153.9165 H   0  0  0  0  0  0  0  0  0  0  0  0  # atno 10764 bound_to 10752
  153.8865  135.3126  155.3425 H   0  0  0  0  0  0  0  0  0  0  0  0  # atno 10765 bound_to 10752
  139.9696  134.9581  156.9354 H   0  0  0  0  0  0  0  0  0  0  0  0  # atno 11005 bound_to 11000
  146.2793  140.4605  142.8783 LP  0  0  0  0  0  0  0  0  0  0  0  0  # atno 17320 bound_to 7965
  144.8433  140.6891  143.6215 LP  0  0  0  0  0  0  0  0  0  0  0  0  # atno 17321 bound_to 7965
  140.0204  143.5549  152.2803 LP  0  0  0  0  0  0  0  0  0  0  0  0  # atno 17342 bound_to 10162
  139.6305  144.7643  151.2547 LP  0  0  0  0  0  0  0  0  0  0  0  0  # atno 17343 bound_to 10162
  155.9723  130.4644  150.6217 LP  0  0  0  0  0  0  0  0  0  0  0  0  # atno 17370 bound_to 10713
  157.3945  131.0801  151.1364 LP  0  0  0  0  0  0  0  0  0  0  0  0  # atno 17371 bound_to 10713
  140.5321  134.0803  155.7318 LP  0  0  0  0  0  0  0  0  0  0  0  0  # atno 17394 bound_to 11000
  141.1376  133.9195  157.2399 LP  0  0  0  0  0  0  0  0  0  0  0  0  # atno 17395 bound_to 11000

$$$$
