AV-unprocessed.smi:1412|AV-procd|sdf|5744|dock2
  -GOLD-   22720 5383D 1   1.00000     0.00000
 Structure written by MMmdl.
 40 41  0  0  0  0  0  0  0  0  2 V2000
  151.3103  139.3122  154.9812 C   0  0  0  0  0  0  0  0  0  0  0  0
  151.7840  139.9912  156.2794 C   0  0  0  0  0  0  0  0  0  0  0  0
  150.7952  139.9136  157.4860 C   0  0  1  0  0  0  0  0  0  0  0  0
  149.5251  140.6992  157.0608 C   0  0  0  0  0  0  0  0  0  0  0  0
  150.3912  138.4199  157.7105 C   0  0  0  0  0  0  0  0  0  0  0  0
  149.3235  138.2347  158.6945 N   0  0  0  0  0  0  0  0  0  0  0  0
  148.8010  137.0680  159.1001 C   0  0  0  0  0  0  0  0  0  0  0  0
  149.2242  136.0063  158.6375 O   0  0  0  0  0  0  0  0  0  0  0  0
  147.8102  137.2056  160.0101 N   0  5  0  0  0  0  0  0  0  0  0  0
  147.2865  136.1194  160.6016 C   0  0  0  0  0  0  0  0  0  0  0  0
  147.0488  134.9803  159.9319 N   0  0  0  0  0  0  0  0  0  0  0  0
  146.5112  133.9798  160.7303 N   0  0  0  0  0  0  0  0  0  0  0  0
  146.3667  134.3887  161.9905 C   0  0  0  0  0  0  0  0  0  0  0  0
  146.8735  136.0325  162.3164 S   0  0  0  0  0  0  0  0  0  0  0  0
  151.4003  140.5177  158.7074 N   0  0  0  0  0  0  0  0  0  0  0  0
  152.5941  139.8355  159.2200 C   0  0  0  0  0  0  0  0  0  0  0  0
  153.0658  140.4300  160.5582 C   0  0  0  0  0  0  0  0  0  0  0  0
  153.3127  141.8228  160.4061 O   0  0  0  0  0  0  0  0  0  0  0  0
  152.1639  142.5327  159.9580 C   0  0  0  0  0  0  0  0  0  0  0  0
  151.6878  141.9543  158.6150 C   0  0  0  0  0  0  0  0  0  0  0  0
  152.0602  139.4262  154.1986 H   0  0  0  0  0  0  0  0  0  0  0  0
  150.3838  139.7483  154.6081 H   0  0  0  0  0  0  0  0  0  0  0  0
  151.1471  138.2439  155.1200 H   0  0  0  0  0  0  0  0  0  0  0  0
  152.7366  139.5348  156.5496 H   0  0  0  0  0  0  0  0  0  0  0  0
  152.0334  141.0299  156.0623 H   0  0  0  0  0  0  0  0  0  0  0  0
  149.1976  140.4350  156.0546 H   0  0  0  0  0  0  0  0  0  0  0  0
  149.6947  141.7760  157.0703 H   0  0  0  0  0  0  0  0  0  0  0  0
  148.6806  140.4971  157.7199 H   0  0  0  0  0  0  0  0  0  0  0  0
  150.1122  137.9441  156.7702 H   0  0  0  0  0  0  0  0  0  0  0  0
  151.2396  137.8491  158.0855 H   0  0  0  0  0  0  0  0  0  0  0  0
  148.9385  139.0736  159.1030 H   0  0  0  0  0  0  0  0  0  0  0  0
  145.9613  133.7178  162.7329 H   0  0  0  0  0  0  0  0  0  0  0  0
  152.4005  138.7759  159.3779 H   0  0  0  0  0  0  0  0  0  0  0  0
  153.4094  139.9056  158.5003 H   0  0  0  0  0  0  0  0  0  0  0  0
  152.3185  140.2692  161.3369 H   0  0  0  0  0  0  0  0  0  0  0  0
  153.9820  139.9403  160.8879 H   0  0  0  0  0  0  0  0  0  0  0  0
  151.3726  142.4706  160.7067 H   0  0  0  0  0  0  0  0  0  0  0  0
  152.4182  143.5868  159.8470 H   0  0  0  0  0  0  0  0  0  0  0  0
  152.4573  142.1386  157.8654 H   0  0  0  0  0  0  0  0  0  0  0  0
  150.8058  142.5115  158.3051 H   0  0  0  0  0  0  0  0  0  0  0  0
  1  2  1  0  0  0  0
  1 21  1  0  0  0  0
  1 22  1  0  0  0  0
  1 23  1  0  0  0  0
  2  3  1  0  0  0  0
  2 24  1  0  0  0  0
  2 25  1  0  0  0  0
  3  4  1  0  0  0  0
  3  5  1  0  0  0  0
  3 15  1  0  0  0  0
  4 26  1  0  0  0  0
  4 27  1  0  0  0  0
  4 28  1  0  0  0  0
  5  6  1  0  0  0  0
  5 29  1  0  0  0  0
  5 30  1  0  0  0  0
  6  7  1  0  0  0  0
  6 31  1  0  0  0  0
  7  8  2  0  0  0  0
  7  9  1  0  0  0  0
  9 10  1  0  0  0  0
 10 14  1  0  0  0  0
 10 11  2  0  0  0  0
 11 12  1  0  0  0  0
 12 13  2  0  0  0  0
 13 14  1  0  0  0  0
 13 32  1  0  0  0  0
 15 20  1  0  0  0  0
 15 16  1  0  0  0  0
 16 17  1  0  0  0  0
 16 33  1  0  0  0  0
 16 34  1  0  0  0  0
 17 18  1  0  0  0  0
 17 35  1  0  0  0  0
 17 36  1  0  0  0  0
 18 19  1  0  0  0  0
 19 20  1  0  0  0  0
 19 37  1  0  0  0  0
 19 38  1  0  0  0  0
 20 39  1  0  0  0  0
 20 40  1  0  0  0  0
M  CHG  1   9  -1
M  END
> <s_m_source_file>
AV-unprocessed.smi

> <i_m_source_file_index>
1412

> <i_lp_mmshare_version>
43012

> <i_f3d_flags>
0

> <s_epik_input>
W0NIMl0xW0NIMl1PW0NIMl1bQ0gyXU4xW0NAQF0oW0NIM10pKFtDSDJdW0NIM10pW0NIMl1bTkhdQyg9TylbTkhdYzJubltjSF1zMg==

> <s_epik_cmdline>
J2VwaWtfcHl0aG9uJywgJy1waCcsICc3LjAnLCAnLXRuJywgJzgnLCAnLW1hJywgJzIwMCcsICctbWV0YWxfYmluZGluZycsICctaW1hZScsICc8aW5maWxlLm1hZT4nLCAnLW9tYWUnLCAnPG91dGZpbGUubWFlPic=

> <r_lp_tautomer_probability>
1

> <r_epik_Ionization_Penalty>
4.84662

> <r_epik_Ionization_Penalty_Charging>
4.3852

> <r_epik_Ionization_Penalty_Neutral>
0.461421

> <r_epik_State_Penalty>
4.67356

> <r_epik_Charging_Adjusted_Penalty>
9.05877

> <i_epik_Tot_Q>
-1

> <i_epik_Tot_abs_Q>
1

> <r_epik_Metal_State_Penalty>
1.08474

> <b_epik_Metal_Only>
1

> <s_lp_Force_Field>
OPLS_2005

> <r_lp_Energy>
39.8978

> <b_lp_Chiralities_Consistent>
1

> <s_lp_Variant>
AV-unprocessed.smi:1412-5

> <Gold.Version>
5.8.1

> <Gold.Id.Protein>
6NUR|6NUR_protein|mol2

> <Gold.PLP.Fitness>
47.1776

> <Gold.PLP.PLP>
-37.7187

> <Gold.PLP.part.hbond>
-3.0000

> <Gold.PLP.part.metal>
0.0000

> <Gold.PLP.part.buried>
-5.8052

> <Gold.PLP.part.nonpolar>
-29.9033

> <Gold.PLP.part.repulsive>
0.2285

> <Gold.PLP.ligand.clash>
0.0000

> <Gold.PLP.ligand.torsion>
0.4034

> <Gold.PLP.Chemscore.Hbond>
3.3744

> <Gold.PLP.Chemscore.CHOScore>
0.0000

> <Gold.PLP.Chemscore.Metal>
0.0000

> <Gold.Chemscore.Hbonds>
donor molecule, donor type, donor heavy atom, donor atom, acceptor molecule, acceptor atom, score
      P1  H  6896  6907       L1     8  0.54
      P1  H  6934  6947       L1     9  1.22

> <Gold.PLP.Chemscore.Internal.Correction>
0.1424

> <Gold.Rescore>
     Score         DG    S(hbond)    S(metal)    S(lipo)     H(rot)  DE(clash)    DE(int)     intcor
     14.26     -16.33       1.97        0.00      76.48       1.82       0.08       2.00       ----

> <Gold.Chemscore.Fitness>
14.2559

> <Gold.Chemscore.DG>
-16.3292

> <Gold.Chemscore.ZeroCoef>
-5.4800

> <Gold.Chemscore.Hbond>
1.9673

> <Gold.Chemscore.Metal>
0.0000

> <Gold.Chemscore.Lipo>
76.4847

> <Gold.Chemscore.Internal_Hbond>
0.0000

> <Gold.Chemscore.DEClash>
0.0756

> <Gold.Chemscore.DEInternal>
1.9977

> <Gold.Chemscore.Rot>
1.8243

> <Gold.Chemscore.Internal.Correction>
   9.000000E+99

> <Gold.Chemscore.Hbonds>
donor molecule, donor type, donor heavy atom, donor atom, acceptor molecule, acceptor atom, score
      P1  H  6896  6907       L1     8  0.54
      P1  H  6934  6947       L1     9  0.52

> <Gold.Chemscore.Hbond.Weighted>
-6.5707

> <Gold.Chemscore.Metal.Weighted>
-0.0000

> <Gold.Chemscore.Lipo.Weighted>
-8.9487

> <Gold.Chemscore.Internal_Hbond.Weighted>
0.0000

> <Gold.Chemscore.DEClash.Weighted>
0.0756

> <Gold.Chemscore.DEInternal.Weighted>
1.9977

> <Gold.Chemscore.Rot.Weighted>
4.6702

> <Gold.Chemscore.Internal.Correction.Weighted>
   9.000000E+99

> <Gold.Protein.RotatedTorsions>
[ 6907 6896 6895 6894 ] final  -57.07 input  -60.11 | X-H torsion
[ 7974 7965 7964 7962 ] final -129.10 input  175.53 | X-H torsion
[ 8008 7997 7996 7995 ] final  108.54 input   59.86 | X-H torsion
[ 10167 10162 10161 10158 ] final  -74.82 input  -65.29 | X-H torsion
[ 10718 10713 10712 10709 ] final  -27.18 input   66.30 | X-H torsion
[ 10763 10752 10751 10750 ] final -173.02 input  -60.55 | X-H torsion
[ 11005 11000 10999 10996 ] final  132.36 input  -57.11 | X-H torsion

> <Gold.Protein.ActiveResidues>
 VAL166  LYS551  ARG553  GLY616  TRP617  ASP618  TYR619  PRO620  LYS621  CYS622 
 ASP623  PHE694  ASN695  SER759  ASP760  ASP761  ALA762  ILE779  LEU786  VAL792 
 PHE793  MET794  SER795  GLU796  ALA797  LYS798  CYS799  TRP800  GLU811  SER814 

> <Gold.Protein.RotatedAtoms>
  150.8116  134.7274  159.6692 H   0  0  0  0  0  0  0  0  0  0  0  0  # atno 6907 bound_to 6896
  152.4236  134.5907  159.9983 H   0  0  0  0  0  0  0  0  0  0  0  0  # atno 6908 bound_to 6896
  151.6115  133.3309  159.3104 H   0  0  0  0  0  0  0  0  0  0  0  0  # atno 6909 bound_to 6896
  144.9605  140.7441  143.4732 H   0  0  0  0  0  0  0  0  0  0  0  0  # atno 7974 bound_to 7965
  156.1911  140.3074  155.9333 H   0  0  0  0  0  0  0  0  0  0  0  0  # atno 8008 bound_to 7997
  155.3172  140.0454  157.3054 H   0  0  0  0  0  0  0  0  0  0  0  0  # atno 8009 bound_to 7997
  154.5453  140.2274  155.8583 H   0  0  0  0  0  0  0  0  0  0  0  0  # atno 8010 bound_to 7997
  140.4995  143.2364  151.7775 H   0  0  0  0  0  0  0  0  0  0  0  0  # atno 10167 bound_to 10162
  156.4415  130.4465  149.7049 H   0  0  0  0  0  0  0  0  0  0  0  0  # atno 10718 bound_to 10713
  154.6127  135.2866  155.0415 H   0  0  0  0  0  0  0  0  0  0  0  0  # atno 10763 bound_to 10752
  154.1639  135.6483  153.4996 H   0  0  0  0  0  0  0  0  0  0  0  0  # atno 10764 bound_to 10752
  153.0201  135.5385  154.6886 H   0  0  0  0  0  0  0  0  0  0  0  0  # atno 10765 bound_to 10752
  139.9785  134.9555  156.9571 H   0  0  0  0  0  0  0  0  0  0  0  0  # atno 11005 bound_to 11000
  145.2708  139.1955  143.4843 LP  0  0  0  0  0  0  0  0  0  0  0  0  # atno 17320 bound_to 7965
  146.3351  140.2654  142.8603 LP  0  0  0  0  0  0  0  0  0  0  0  0  # atno 17321 bound_to 7965
  139.4869  144.4541  151.9619 LP  0  0  0  0  0  0  0  0  0  0  0  0  # atno 17342 bound_to 10162
  140.3630  144.2950  150.5931 LP  0  0  0  0  0  0  0  0  0  0  0  0  # atno 17343 bound_to 10162
  156.3912  130.7628  151.2629 LP  0  0  0  0  0  0  0  0  0  0  0  0  # atno 17370 bound_to 10713
  157.7506  131.0267  150.3974 LP  0  0  0  0  0  0  0  0  0  0  0  0  # atno 17371 bound_to 10713
  140.5144  134.0970  155.7277 LP  0  0  0  0  0  0  0  0  0  0  0  0  # atno 17394 bound_to 11000
  141.1460  133.9054  157.2214 LP  0  0  0  0  0  0  0  0  0  0  0  0  # atno 17395 bound_to 11000

$$$$
