AV-unprocessed.smi:51|AV-procd|sdf|506|dock1
  -GOLD-   2262016373D 1   1.00000     0.00000
 Structure written by MMmdl.
 26 27  0  0  0  0  0  0  0  0  3 V2000
  152.8509  139.4111  155.8049 O   0  0  0  0  0  0  0  0  0  0  0  0
  151.6974  139.8534  155.9938 C   0  0  0  0  0  0  0  0  0  0  0  0
  150.9529  140.3368  155.1124 O   0  5  0  0  0  0  0  0  0  0  0  0
  151.1534  139.7683  157.4285 C   0  0  1  0  0  0  0  0  0  0  0  0
  151.0422  138.3168  157.9299 C   0  0  0  0  0  0  0  0  0  0  0  0
  152.3322  138.1017  158.7258 C   0  0  2  0  0  0  0  0  0  0  0  0
  152.2036  137.0925  159.7050 O   0  0  0  0  0  0  0  0  0  0  0  0
  152.6005  139.4778  159.3386 C   0  0  0  0  0  0  0  0  0  0  0  0
  152.0540  140.4229  158.3745 N   0  0  0  0  0  0  0  0  0  0  0  0
  152.1017  141.8176  158.5729 C   0  0  0  0  0  0  0  0  0  0  0  0
  152.7577  142.4000  159.6788 C   0  0  0  0  0  0  0  0  0  0  0  0
  152.7320  143.8025  159.7805 C   0  0  0  0  0  0  0  0  0  0  0  0
  152.1019  144.5467  158.8404 N   0  3  0  0  0  0  0  0  0  0  0  0
  151.5009  143.9349  157.8102 C   0  0  0  0  0  0  0  0  0  0  0  0
  151.4897  142.6056  157.6590 N   0  0  0  0  0  0  0  0  0  0  0  0
  150.1673  140.2336  157.4628 H   0  0  0  0  0  0  0  0  0  0  0  0
  150.1766  138.2339  158.5890 H   0  0  0  0  0  0  0  0  0  0  0  0
  150.9151  137.5834  157.1318 H   0  0  0  0  0  0  0  0  0  0  0  0
  153.1426  137.8388  158.0442 H   0  0  0  0  0  0  0  0  0  0  0  0
  152.8127  137.2738  160.4043 H   0  0  0  0  0  0  0  0  0  0  0  0
  152.0755  139.5979  160.2877 H   0  0  0  0  0  0  0  0  0  0  0  0
  153.6661  139.6354  159.5100 H   0  0  0  0  0  0  0  0  0  0  0  0
  153.2584  141.8112  160.4326 H   0  0  0  0  0  0  0  0  0  0  0  0
  153.1956  144.3538  160.5853 H   0  0  0  0  0  0  0  0  0  0  0  0
  151.0122  144.5692  157.0854 H   0  0  0  0  0  0  0  0  0  0  0  0
  152.0891  145.5632  158.9247 H   0  0  0  0  0  0  0  0  0  0  0  0
  1  2  2  0  0  0  0
  2  3  1  0  0  0  0
  2  4  1  0  0  0  0
  4  9  1  0  0  0  0
  4  5  1  0  0  0  0
  4 16  1  0  0  0  0
  5  6  1  0  0  0  0
  5 17  1  0  0  0  0
  5 18  1  0  0  0  0
  6  7  1  0  0  0  0
  6  8  1  0  0  0  0
  6 19  1  0  0  0  0
  7 20  1  0  0  0  0
  8  9  1  0  0  0  0
  8 21  1  0  0  0  0
  8 22  1  0  0  0  0
  9 10  1  0  0  0  0
 10 15  1  0  0  0  0
 10 11  2  0  0  0  0
 11 12  1  0  0  0  0
 11 23  1  0  0  0  0
 12 13  2  0  0  0  0
 12 24  1  0  0  0  0
 13 14  1  0  0  0  0
 13 26  1  0  0  0  0
 14 15  2  0  0  0  0
 14 25  1  0  0  0  0
M  CHG  1   3  -1
M  CHG  1  13   1
M  END
> <s_m_source_file>
AV-unprocessed.smi

> <i_m_source_file_index>
51

> <i_lp_mmshare_version>
43012

> <i_f3d_flags>
0

> <s_epik_input>
Tz1DKFtPSF0pW0NAQEhdMVtDSDJdW0NAQEhdKFtPSF0pW0NIMl1OMWMyW2NIXVtjSF1uW2NIXW4y

> <s_epik_cmdline>
J2VwaWtfcHl0aG9uJywgJy1waCcsICc3LjAnLCAnLXRuJywgJzgnLCAnLW1hJywgJzIwMCcsICctbWV0YWxfYmluZGluZycsICctaW1hZScsICc8aW5maWxlLm1hZT4nLCAnLW9tYWUnLCAnPG91dGZpbGUubWFlPic=

> <r_lp_tautomer_probability>
0.999336

> <r_epik_Ionization_Penalty>
0.688427

> <r_epik_Ionization_Penalty_Charging>
0.688427

> <r_epik_Ionization_Penalty_Neutral>
1.98379e-07

> <r_epik_State_Penalty>
0.709817

> <r_epik_Charging_Adjusted_Penalty>
1.39824

> <i_epik_Tot_Q>
0

> <i_epik_Tot_abs_Q>
2

> <r_epik_Metal_State_Penalty>
0.873261

> <b_epik_Metal_Only>
0

> <s_lp_Force_Field>
OPLS_2005

> <r_lp_Energy>
13.9279

> <b_lp_Chiralities_Consistent>
1

> <s_lp_Variant>
AV-unprocessed.smi:51-8

> <Gold.Version>
5.8.1

> <Gold.Id.Protein>
6NUR|6NUR_protein|mol2

> <Gold.PLP.Fitness>
43.8216

> <Gold.PLP.PLP>
-28.9072

> <Gold.PLP.part.hbond>
-3.0000

> <Gold.PLP.part.metal>
0.0000

> <Gold.PLP.part.buried>
-5.7651

> <Gold.PLP.part.nonpolar>
-21.0330

> <Gold.PLP.part.repulsive>
0.1610

> <Gold.PLP.ligand.clash>
0.0000

> <Gold.PLP.ligand.torsion>
0.0810

> <Gold.PLP.Chemscore.Hbond>
4.0000

> <Gold.PLP.Chemscore.CHOScore>
0.9972

> <Gold.PLP.Chemscore.Metal>
0.0000

> <Gold.Chemscore.Hbonds>
donor molecule, donor type, donor heavy atom, donor atom, acceptor molecule, acceptor atom, score
      P1  H  6896  6907       L1     7  1.00
      P1  H  7989  7998       L1     3  1.00
      P1  H  7997  8008       L1     1  2.00
      L1  C    14    25       P1  8028  1.00

> <Gold.PLP.Chemscore.Internal.Correction>
0.0847

> <Gold.Rescore>
     Score         DG    S(hbond)    S(metal)    S(lipo)     H(rot)  DE(clash)    DE(int)     intcor
     15.42     -15.46       2.87        0.00      40.67       1.70       0.00       0.04       ----

> <Gold.Chemscore.Fitness>
15.4164

> <Gold.Chemscore.DG>
-15.4596

> <Gold.Chemscore.ZeroCoef>
-5.4800

> <Gold.Chemscore.Hbond>
2.8677

> <Gold.Chemscore.Metal>
0.0000

> <Gold.Chemscore.Lipo>
40.6709

> <Gold.Chemscore.Internal_Hbond>
0.0000

> <Gold.Chemscore.DEClash>
0.0000

> <Gold.Chemscore.DEInternal>
0.0432

> <Gold.Chemscore.Rot>
1.7020

> <Gold.Chemscore.Internal.Correction>
   9.000000E+99

> <Gold.Chemscore.Hbonds>
donor molecule, donor type, donor heavy atom, donor atom, acceptor molecule, acceptor atom, score
      P1  H  6896  6907       L1     7  0.42
      P1  H  7989  7998       L1     3  0.97
      P1  H  7997  8008       L1     1  1.00

> <Gold.Chemscore.Hbond.Weighted>
-9.5782

> <Gold.Chemscore.Metal.Weighted>
-0.0000

> <Gold.Chemscore.Lipo.Weighted>
-4.7585

> <Gold.Chemscore.Internal_Hbond.Weighted>
0.0000

> <Gold.Chemscore.DEClash.Weighted>
0.0000

> <Gold.Chemscore.DEInternal.Weighted>
0.0432

> <Gold.Chemscore.Rot.Weighted>
4.3571

> <Gold.Chemscore.Internal.Correction.Weighted>
   9.000000E+99

> <Gold.Protein.RotatedTorsions>
[ 6907 6896 6895 6894 ] final    6.52 input  -60.11 | X-H torsion
[ 7974 7965 7964 7962 ] final  171.32 input  175.53 | X-H torsion
[ 8008 7997 7996 7995 ] final  -33.02 input   59.86 | X-H torsion
[ 10167 10162 10161 10158 ] final  104.75 input  -65.29 | X-H torsion
[ 10718 10713 10712 10709 ] final  168.57 input   66.30 | X-H torsion
[ 10763 10752 10751 10750 ] final   54.67 input  -60.55 | X-H torsion
[ 11005 11000 10999 10996 ] final   25.78 input  -57.11 | X-H torsion

> <Gold.Protein.ActiveResidues>
 VAL166  LYS551  ARG553  GLY616  TRP617  ASP618  TYR619  PRO620  LYS621  CYS622 
 ASP623  PHE694  ASN695  SER759  ASP760  ASP761  ALA762  ILE779  LEU786  VAL792 
 PHE793  MET794  SER795  GLU796  ALA797  LYS798  CYS799  TRP800  GLU811  SER814 

> <Gold.Protein.RotatedAtoms>
  151.6750  135.0970  160.0204 H   0  0  0  0  0  0  0  0  0  0  0  0  # atno 6907 bound_to 6896
  152.3869  133.6620  159.6215 H   0  0  0  0  0  0  0  0  0  0  0  0  # atno 6908 bound_to 6896
  150.7793  133.8936  159.3362 H   0  0  0  0  0  0  0  0  0  0  0  0  # atno 6909 bound_to 6896
  144.7298  139.9332  143.6425 H   0  0  0  0  0  0  0  0  0  0  0  0  # atno 7974 bound_to 7965
  154.4162  140.1722  156.1820 H   0  0  0  0  0  0  0  0  0  0  0  0  # atno 8008 bound_to 7997
  155.9674  140.3388  155.6521 H   0  0  0  0  0  0  0  0  0  0  0  0  # atno 8009 bound_to 7997
  155.6670  140.0707  157.2524 H   0  0  0  0  0  0  0  0  0  0  0  0  # atno 8010 bound_to 7997
  139.7150  144.7070  151.0964 H   0  0  0  0  0  0  0  0  0  0  0  0  # atno 10167 bound_to 10162
  157.0351  131.0270  151.2732 H   0  0  0  0  0  0  0  0  0  0  0  0  # atno 10718 bound_to 10713
  152.9807  135.5737  154.4942 H   0  0  0  0  0  0  0  0  0  0  0  0  # atno 10763 bound_to 10752
  154.4472  135.2777  155.1809 H   0  0  0  0  0  0  0  0  0  0  0  0  # atno 10764 bound_to 10752
  154.3452  135.6221  153.5669 H   0  0  0  0  0  0  0  0  0  0  0  0  # atno 10765 bound_to 10752
  140.3442  134.2300  155.7686 H   0  0  0  0  0  0  0  0  0  0  0  0  # atno 11005 bound_to 11000
  146.0841  139.3829  143.0446 LP  0  0  0  0  0  0  0  0  0  0  0  0  # atno 17320 bound_to 7965
  145.7800  140.9860  143.1104 LP  0  0  0  0  0  0  0  0  0  0  0  0  # atno 17321 bound_to 7965
  140.7742  143.5241  150.9501 LP  0  0  0  0  0  0  0  0  0  0  0  0  # atno 17342 bound_to 10162
  139.8927  143.6933  152.3143 LP  0  0  0  0  0  0  0  0  0  0  0  0  # atno 17343 bound_to 10162
  157.5147  130.7961  149.7743 LP  0  0  0  0  0  0  0  0  0  0  0  0  # atno 17370 bound_to 10713
  156.0056  130.3857  150.2443 LP  0  0  0  0  0  0  0  0  0  0  0  0  # atno 17371 bound_to 10713
  141.2030  133.7923  157.0361 LP  0  0  0  0  0  0  0  0  0  0  0  0  # atno 17394 bound_to 11000
  140.0756  134.9677  157.1540 LP  0  0  0  0  0  0  0  0  0  0  0  0  # atno 17395 bound_to 11000

$$$$
