AV-unprocessed.smi:99|AV-procd|sdf|870|dock2
  -GOLD-   2262017323D 1   1.00000     0.00000
 Structure written by MMmdl.
 53 56  0  0  0  0  0  0  0  0  1 V2000
  147.6282  137.2661  160.8972 O   0  0  0  0  0  0  0  0  0  0  0  0
  147.6295  136.2000  160.2782 C   0  0  0  0  0  0  0  0  0  0  0  0
  148.1618  136.0525  159.0493 O   0  0  0  0  0  0  0  0  0  0  0  0
  149.2029  136.9144  158.6212 C   0  0  0  0  0  0  0  0  0  0  0  0
  149.4451  136.7118  157.1194 C   0  0  1  0  0  0  0  0  0  0  0  0
  148.4088  137.3020  156.3497 O   0  0  0  0  0  0  0  0  0  0  0  0
  148.8698  137.4756  155.0473 C   0  0  1  0  0  0  0  0  0  0  0  0
  148.2570  138.7516  154.5153 N   0  0  0  0  0  0  0  0  0  0  0  0
  149.0234  139.9040  154.4090 C   0  0  0  0  0  0  0  0  0  0  0  0
  148.5291  141.0872  153.9758 C   0  0  0  0  0  0  0  0  0  0  0  0
  147.1248  141.2076  153.5999 C   0  0  0  0  0  0  0  0  0  0  0  0
  146.5854  142.2336  153.1913 O   0  0  0  0  0  0  0  0  0  0  0  0
  146.3847  140.0301  153.7399 N   0  0  0  0  0  0  0  0  0  0  0  0
  146.8827  138.8057  154.1896 C   0  0  0  0  0  0  0  0  0  0  0  0
  146.1295  137.8371  154.2761 O   0  0  0  0  0  0  0  0  0  0  0  0
  150.4074  137.5574  155.0914 C   0  0  2  0  0  0  0  0  0  0  0  0
  151.0226  136.5268  154.3449 O   0  0  0  0  0  0  0  0  0  0  0  0
  150.7197  137.3678  156.5752 C   0  0  1  0  0  0  0  0  0  0  0  0
  150.9386  138.6241  157.2076 O   0  0  0  0  0  0  0  0  0  0  0  0
  152.1678  139.1774  157.2571 C   0  0  0  0  0  0  0  0  0  0  0  0
  153.1610  138.6868  156.7172 O   0  0  0  0  0  0  0  0  0  0  0  0
  152.1917  140.4540  158.0267 C   0  0  0  0  0  0  0  0  0  0  0  0
  151.2793  141.4819  157.6932 C   0  0  0  0  0  0  0  0  0  0  0  0
  151.2762  142.6969  158.4058 C   0  0  0  0  0  0  0  0  0  0  0  0
  152.1851  142.8983  159.4608 C   0  0  0  0  0  0  0  0  0  0  0  0
  153.0978  141.8835  159.8024 C   0  0  0  0  0  0  0  0  0  0  0  0
  153.1029  140.6681  159.0910 C   0  0  0  0  0  0  0  0  0  0  0  0
  147.0429  134.9372  160.8128 C   0  0  0  0  0  0  0  0  0  0  0  0
  147.3886  133.7041  160.2122 C   0  0  0  0  0  0  0  0  0  0  0  0
  146.8504  132.4951  160.6942 C   0  0  0  0  0  0  0  0  0  0  0  0
  145.9595  132.5045  161.7831 C   0  0  0  0  0  0  0  0  0  0  0  0
  145.6083  133.7244  162.3900 C   0  0  0  0  0  0  0  0  0  0  0  0
  146.1459  134.9346  161.9094 C   0  0  0  0  0  0  0  0  0  0  0  0
  145.4055  140.0694  153.4973 H   0  0  0  0  0  0  0  0  0  0  0  0
  148.9515  137.9549  158.8322 H   0  0  0  0  0  0  0  0  0  0  0  0
  150.1095  136.6740  159.1784 H   0  0  0  0  0  0  0  0  0  0  0  0
  149.4792  135.6453  156.8887 H   0  0  0  0  0  0  0  0  0  0  0  0
  148.5112  136.6397  154.4455 H   0  0  0  0  0  0  0  0  0  0  0  0
  150.0646  139.8693  154.6886 H   0  0  0  0  0  0  0  0  0  0  0  0
  149.1755  141.9507  153.9121 H   0  0  0  0  0  0  0  0  0  0  0  0
  150.7625  138.5155  154.7095 H   0  0  0  0  0  0  0  0  0  0  0  0
  150.9283  136.7221  153.4252 H   0  0  0  0  0  0  0  0  0  0  0  0
  151.5814  136.7186  156.7411 H   0  0  0  0  0  0  0  0  0  0  0  0
  150.5719  141.3500  156.8871 H   0  0  0  0  0  0  0  0  0  0  0  0
  150.5750  143.4748  158.1420 H   0  0  0  0  0  0  0  0  0  0  0  0
  152.1831  143.8306  160.0063 H   0  0  0  0  0  0  0  0  0  0  0  0
  153.7963  142.0372  160.6118 H   0  0  0  0  0  0  0  0  0  0  0  0
  153.8175  139.9110  159.3797 H   0  0  0  0  0  0  0  0  0  0  0  0
  148.0703  133.6716  159.3744 H   0  0  0  0  0  0  0  0  0  0  0  0
  147.1218  131.5599  160.2271 H   0  0  0  0  0  0  0  0  0  0  0  0
  145.5463  131.5776  162.1526 H   0  0  0  0  0  0  0  0  0  0  0  0
  144.9250  133.7329  163.2262 H   0  0  0  0  0  0  0  0  0  0  0  0
  145.8553  135.8528  162.3984 H   0  0  0  0  0  0  0  0  0  0  0  0
  1  2  2  0  0  0  0
  2  3  1  0  0  0  0
  2 28  1  0  0  0  0
  3  4  1  0  0  0  0
  4  5  1  0  0  0  0
  4 35  1  0  0  0  0
  4 36  1  0  0  0  0
  5 18  1  0  0  0  0
  5  6  1  0  0  0  0
  5 37  1  0  0  0  0
  6  7  1  0  0  0  0
  7  8  1  0  0  0  0
  7 16  1  0  0  0  0
  7 38  1  0  0  0  0
  8 14  1  0  0  0  0
  8  9  1  0  0  0  0
  9 10  2  0  0  0  0
  9 39  1  0  0  0  0
 10 11  1  0  0  0  0
 10 40  1  0  0  0  0
 11 12  2  0  0  0  0
 11 13  1  0  0  0  0
 13 34  1  0  0  0  0
 13 14  1  0  0  0  0
 14 15  2  0  0  0  0
 16 17  1  0  0  0  0
 16 18  1  0  0  0  0
 16 41  1  0  0  0  0
 17 42  1  0  0  0  0
 18 19  1  0  0  0  0
 18 43  1  0  0  0  0
 19 20  1  0  0  0  0
 20 21  2  0  0  0  0
 20 22  1  0  0  0  0
 22 27  1  0  0  0  0
 22 23  2  0  0  0  0
 23 24  1  0  0  0  0
 23 44  1  0  0  0  0
 24 25  2  0  0  0  0
 24 45  1  0  0  0  0
 25 26  1  0  0  0  0
 25 46  1  0  0  0  0
 26 27  2  0  0  0  0
 26 47  1  0  0  0  0
 27 48  1  0  0  0  0
 28 33  1  0  0  0  0
 28 29  2  0  0  0  0
 29 30  1  0  0  0  0
 29 49  1  0  0  0  0
 30 31  2  0  0  0  0
 30 50  1  0  0  0  0
 31 32  1  0  0  0  0
 31 51  1  0  0  0  0
 32 33  2  0  0  0  0
 32 52  1  0  0  0  0
 33 53  1  0  0  0  0
M  END
> <s_m_source_file>
AV-unprocessed.smi

> <i_m_source_file_index>
99

> <i_lp_mmshare_version>
43012

> <i_f3d_flags>
0

> <s_epik_input>
W2NIXTFbY0hdW2NIXVtjSF1bY0hdYzFDKD1PKU9bQ0gyXVtDQEBIXTJPW0NAQEhdKG4zW2NIXVtjSF1jKD1PKVtuSF1jMz1PKVtDQEBIXShbT0hdKVtDQEhdMk9DKD1PKWM0W2NIXVtjSF1bY0hdW2NIXVtjSF00

> <s_epik_cmdline>
J2VwaWtfcHl0aG9uJywgJy1waCcsICc3LjAnLCAnLXRuJywgJzgnLCAnLW1hJywgJzIwMCcsICctbWV0YWxfYmluZGluZycsICctaW1hZScsICc8aW5maWxlLm1hZT4nLCAnLW9tYWUnLCAnPG91dGZpbGUubWFlPic=

> <r_lp_tautomer_probability>
1

> <r_epik_Ionization_Penalty>
0.00454555

> <r_epik_Ionization_Penalty_Charging>
0.0045191

> <r_epik_Ionization_Penalty_Neutral>
2.64449e-05

> <r_epik_State_Penalty>
-0

> <r_epik_Charging_Adjusted_Penalty>
0.0045191

> <i_epik_Tot_Q>
0

> <i_epik_Tot_abs_Q>
0

> <r_epik_Metal_State_Penalty>
1.27877

> <b_epik_Metal_Only>
0

> <s_epik_Chemistry_Notes>
This compound has an ester and may undergo hydrolysis at high or low pH. This compound contains an acetal/aminal-like group ( X-CH(R)-Y where X, Y are N, S, or O) that may be acid/base labile, releasing an aldehyde.

> <s_lp_Force_Field>
OPLS_2005

> <r_lp_Energy>
31.5911

> <b_lp_Chiralities_Consistent>
1

> <s_lp_Variant>
AV-unprocessed.smi:99-6

> <Gold.Version>
5.8.1

> <Gold.Id.Protein>
6NUR|6NUR_protein|mol2

> <Gold.PLP.Fitness>
60.4119

> <Gold.PLP.PLP>
-48.4134

> <Gold.PLP.part.hbond>
-5.9768

> <Gold.PLP.part.metal>
0.0000

> <Gold.PLP.part.buried>
-5.2928

> <Gold.PLP.part.nonpolar>
-38.4867

> <Gold.PLP.part.repulsive>
0.3211

> <Gold.PLP.ligand.clash>
0.0000

> <Gold.PLP.ligand.torsion>
2.1572

> <Gold.PLP.Chemscore.Hbond>
5.2127

> <Gold.PLP.Chemscore.CHOScore>
0.0000

> <Gold.PLP.Chemscore.Metal>
0.0000

> <Gold.Chemscore.Hbonds>
donor molecule, donor type, donor heavy atom, donor atom, acceptor molecule, acceptor atom, score
      L1  H    13    34       P1 10175  0.96
      L1  H    17    42       P1  7949  0.71
      P1  H  6931  6943       L1     1  0.82
      P1  H  6934  6947       L1     1  0.93
      P1  H  7997  8008       L1    21  1.00
      P1  H 10752 10765       L1    17  0.83

> <Gold.PLP.Chemscore.Internal.Correction>
0.6747

> <Gold.Rescore>
     Score         DG    S(hbond)    S(metal)    S(lipo)     H(rot)  DE(clash)    DE(int)     intcor
     22.49     -24.99       4.22        0.00     115.99       3.19       0.38       2.12       ----

> <Gold.Chemscore.Fitness>
22.4891

> <Gold.Chemscore.DG>
-24.9947

> <Gold.Chemscore.ZeroCoef>
-5.4800

> <Gold.Chemscore.Hbond>
4.2247

> <Gold.Chemscore.Metal>
0.0000

> <Gold.Chemscore.Lipo>
115.9935

> <Gold.Chemscore.Internal_Hbond>
0.0000

> <Gold.Chemscore.DEClash>
0.3848

> <Gold.Chemscore.DEInternal>
2.1208

> <Gold.Chemscore.Rot>
3.1903

> <Gold.Chemscore.Internal.Correction>
   9.000000E+99

> <Gold.Chemscore.Hbonds>
donor molecule, donor type, donor heavy atom, donor atom, acceptor molecule, acceptor atom, score
      L1  H    13    34       P1 10175  0.91
      L1  H    17    42       P1  7949  0.13
      P1  H  6931  6943       L1     1  0.79
      P1  H  6934  6947       L1     1  0.91
      P1  H  7997  8008       L1    21  0.54
      P1  H 10752 10765       L1    17  0.28

> <Gold.Chemscore.Hbond.Weighted>
-14.1106

> <Gold.Chemscore.Metal.Weighted>
-0.0000

> <Gold.Chemscore.Lipo.Weighted>
-13.5712

> <Gold.Chemscore.Internal_Hbond.Weighted>
0.0000

> <Gold.Chemscore.DEClash.Weighted>
0.3848

> <Gold.Chemscore.DEInternal.Weighted>
2.1208

> <Gold.Chemscore.Rot.Weighted>
8.1671

> <Gold.Chemscore.Internal.Correction.Weighted>
   9.000000E+99

> <Gold.Protein.RotatedTorsions>
[ 6907 6896 6895 6894 ] final  176.04 input  -60.11 | X-H torsion
[ 7974 7965 7964 7962 ] final  -77.26 input  175.53 | X-H torsion
[ 8008 7997 7996 7995 ] final  -54.21 input   59.86 | X-H torsion
[ 10167 10162 10161 10158 ] final    0.99 input  -65.29 | X-H torsion
[ 10718 10713 10712 10709 ] final  152.31 input   66.30 | X-H torsion
[ 10763 10752 10751 10750 ] final  169.23 input  -60.55 | X-H torsion
[ 11005 11000 10999 10996 ] final -162.39 input  -57.11 | X-H torsion

> <Gold.Protein.ActiveResidues>
 VAL166  LYS551  ARG553  GLY616  TRP617  ASP618  TYR619  PRO620  LYS621  CYS622 
 ASP623  PHE694  ASN695  SER759  ASP760  ASP761  ALA762  ILE779  LEU786  VAL792 
 PHE793  MET794  SER795  GLU796  ALA797  LYS798  CYS799  TRP800  GLU811  SER814 

> <Gold.Protein.RotatedAtoms>
  151.7265  133.3316  159.3328 H   0  0  0  0  0  0  0  0  0  0  0  0  # atno 6907 bound_to 6896
  150.7630  134.6401  159.6242 H   0  0  0  0  0  0  0  0  0  0  0  0  # atno 6908 bound_to 6896
  152.3619  134.6863  160.0256 H   0  0  0  0  0  0  0  0  0  0  0  0  # atno 6909 bound_to 6896
  145.6021  140.9406  143.1235 H   0  0  0  0  0  0  0  0  0  0  0  0  # atno 7974 bound_to 7965
  154.4156  140.1181  156.5279 H   0  0  0  0  0  0  0  0  0  0  0  0  # atno 8008 bound_to 7997
  155.6636  140.3496  155.4772 H   0  0  0  0  0  0  0  0  0  0  0  0  # atno 8009 bound_to 7997
  155.9692  140.1138  157.0817 H   0  0  0  0  0  0  0  0  0  0  0  0  # atno 8010 bound_to 7997
  140.6703  143.7065  150.7910 H   0  0  0  0  0  0  0  0  0  0  0  0  # atno 10167 bound_to 10162
  157.2594  131.0795  151.1676 H   0  0  0  0  0  0  0  0  0  0  0  0  # atno 10718 bound_to 10713
  154.3801  135.2753  155.2216 H   0  0  0  0  0  0  0  0  0  0  0  0  # atno 10763 bound_to 10752
  154.4326  135.5973  153.6082 H   0  0  0  0  0  0  0  0  0  0  0  0  # atno 10764 bound_to 10752
  152.9835  135.5999  154.4043 H   0  0  0  0  0  0  0  0  0  0  0  0  # atno 10765 bound_to 10752
  140.6098  134.4861  157.5214 H   0  0  0  0  0  0  0  0  0  0  0  0  # atno 11005 bound_to 11000
  144.7305  139.7739  143.7349 LP  0  0  0  0  0  0  0  0  0  0  0  0  # atno 17320 bound_to 7965
  146.1568  139.4669  143.0013 LP  0  0  0  0  0  0  0  0  0  0  0  0  # atno 17321 bound_to 7965
  140.0750  143.5024  152.2560 LP  0  0  0  0  0  0  0  0  0  0  0  0  # atno 17342 bound_to 10162
  139.5969  144.7570  151.3264 LP  0  0  0  0  0  0  0  0  0  0  0  0  # atno 17343 bound_to 10162
  157.3191  130.6928  149.6259 LP  0  0  0  0  0  0  0  0  0  0  0  0  # atno 17370 bound_to 10713
  155.9664  130.4340  150.5033 LP  0  0  0  0  0  0  0  0  0  0  0  0  # atno 17371 bound_to 10713
  139.9197  134.8174  156.1251 LP  0  0  0  0  0  0  0  0  0  0  0  0  # atno 17394 bound_to 11000
  141.0816  133.6752  156.2348 LP  0  0  0  0  0  0  0  0  0  0  0  0  # atno 17395 bound_to 11000

$$$$
