AV-unprocessed.smi:1684|AV-procd|sdf|6753|dock5
  -GOLD-   22720 7513D 1   1.00000     0.00000
 Structure written by MMmdl.
 42 43  0  0  0  0  0  0  0  0  1 V2000
  147.9839  133.0977  152.6113 C   0  0  0  0  0  0  0  0  0  0  0  0
  146.5913  133.1369  152.0033 C   0  0  0  0  0  0  0  0  0  0  0  0
  146.0207  131.9457  151.5068 C   0  0  0  0  0  0  0  0  0  0  0  0
  144.7324  131.9838  150.9465 C   0  0  0  0  0  0  0  0  0  0  0  0
  144.0654  133.2200  150.9053 C   0  0  0  0  0  0  0  0  0  0  0  0
  144.6037  134.3633  151.3758 N   0  0  0  0  0  0  0  0  0  0  0  0
  145.8464  134.3440  151.9202 C   0  0  0  0  0  0  0  0  0  0  0  0
  146.4763  135.5103  152.4395 N   0  0  0  0  0  0  0  0  0  0  0  0
  146.0618  136.3128  153.4355 C   0  0  0  0  0  0  0  0  0  0  0  0
  145.0166  136.1758  154.0719 O   0  0  0  0  0  0  0  0  0  0  0  0
  146.9416  137.3017  153.6545 N   0  0  0  0  0  0  0  0  0  0  0  0
  146.8174  138.3493  154.6666 C   0  0  2  0  0  0  0  0  0  0  0  0
  145.3607  138.8307  154.7064 C   0  0  0  0  0  0  0  0  0  0  0  0
  147.7779  139.5177  154.3540 C   0  0  0  0  0  0  0  0  0  0  0  0
  149.1082  139.4282  154.9575 N   0  0  0  0  0  0  0  0  0  0  0  0
  150.0332  138.7125  154.0861 C   0  0  0  0  0  0  0  0  0  0  0  0
  151.4374  138.6008  154.7053 C   0  0  0  0  0  0  0  0  0  0  0  0
  151.9308  139.9016  155.0079 O   0  0  0  0  0  0  0  0  0  0  0  0
  151.0771  140.6194  155.8929 C   0  0  0  0  0  0  0  0  0  0  0  0
  149.6744  140.7384  155.2728 C   0  0  0  0  0  0  0  0  0  0  0  0
  148.3956  132.0880  152.5968 H   0  0  0  0  0  0  0  0  0  0  0  0
  147.9575  133.4333  153.6484 H   0  0  0  0  0  0  0  0  0  0  0  0
  148.6620  133.7448  152.0539 H   0  0  0  0  0  0  0  0  0  0  0  0
  146.5613  131.0118  151.5539 H   0  0  0  0  0  0  0  0  0  0  0  0
  144.2679  131.0893  150.5588 H   0  0  0  0  0  0  0  0  0  0  0  0
  143.0738  133.2936  150.4838 H   0  0  0  0  0  0  0  0  0  0  0  0
  147.3508  135.7585  152.0016 H   0  0  0  0  0  0  0  0  0  0  0  0
  147.7717  137.3286  153.0810 H   0  0  0  0  0  0  0  0  0  0  0  0
  147.0370  137.9441  155.6547 H   0  0  0  0  0  0  0  0  0  0  0  0
  145.2222  139.5939  155.4726 H   0  0  0  0  0  0  0  0  0  0  0  0
  144.6812  138.0090  154.9352 H   0  0  0  0  0  0  0  0  0  0  0  0
  145.0556  139.2594  153.7511 H   0  0  0  0  0  0  0  0  0  0  0  0
  147.8860  139.5756  153.2701 H   0  0  0  0  0  0  0  0  0  0  0  0
  147.3114  140.4574  154.6532 H   0  0  0  0  0  0  0  0  0  0  0  0
  149.6510  137.7114  153.8831 H   0  0  0  0  0  0  0  0  0  0  0  0
  150.1031  139.2213  153.1234 H   0  0  0  0  0  0  0  0  0  0  0  0
  151.4131  137.9938  155.6116 H   0  0  0  0  0  0  0  0  0  0  0  0
  152.1205  138.1127  154.0103 H   0  0  0  0  0  0  0  0  0  0  0  0
  151.0299  140.1122  156.8579 H   0  0  0  0  0  0  0  0  0  0  0  0
  151.4984  141.6087  156.0707 H   0  0  0  0  0  0  0  0  0  0  0  0
  149.7299  141.3459  154.3684 H   0  0  0  0  0  0  0  0  0  0  0  0
  149.0328  141.2752  155.9694 H   0  0  0  0  0  0  0  0  0  0  0  0
  1  2  1  0  0  0  0
  1 21  1  0  0  0  0
  1 22  1  0  0  0  0
  1 23  1  0  0  0  0
  2  7  1  0  0  0  0
  2  3  2  0  0  0  0
  3  4  1  0  0  0  0
  3 24  1  0  0  0  0
  4  5  2  0  0  0  0
  4 25  1  0  0  0  0
  5  6  1  0  0  0  0
  5 26  1  0  0  0  0
  6  7  2  0  0  0  0
  7  8  1  0  0  0  0
  8  9  1  0  0  0  0
  8 27  1  0  0  0  0
  9 10  2  0  0  0  0
  9 11  1  0  0  0  0
 11 12  1  0  0  0  0
 11 28  1  0  0  0  0
 12 13  1  0  0  0  0
 12 14  1  0  0  0  0
 12 29  1  0  0  0  0
 13 30  1  0  0  0  0
 13 31  1  0  0  0  0
 13 32  1  0  0  0  0
 14 15  1  0  0  0  0
 14 33  1  0  0  0  0
 14 34  1  0  0  0  0
 15 20  1  0  0  0  0
 15 16  1  0  0  0  0
 16 17  1  0  0  0  0
 16 35  1  0  0  0  0
 16 36  1  0  0  0  0
 17 18  1  0  0  0  0
 17 37  1  0  0  0  0
 17 38  1  0  0  0  0
 18 19  1  0  0  0  0
 19 20  1  0  0  0  0
 19 39  1  0  0  0  0
 19 40  1  0  0  0  0
 20 41  1  0  0  0  0
 20 42  1  0  0  0  0
M  END
> <s_m_source_file>
AV-unprocessed.smi

> <i_m_source_file_index>
1684

> <i_lp_mmshare_version>
43012

> <i_f3d_flags>
0

> <s_epik_input>
W0NIM11jMVtjSF1bY0hdW2NIXW5jMVtOSF1DKD1PKVtOSF1bQ0BIXShbQ0gzXSlbQ0gyXU4yW0NIMl1bQ0gyXU9bQ0gyXVtDSDJdMg==

> <s_epik_cmdline>
J2VwaWtfcHl0aG9uJywgJy1waCcsICc3LjAnLCAnLXRuJywgJzgnLCAnLW1hJywgJzIwMCcsICctbWV0YWxfYmluZGluZycsICctaW1hZScsICc8aW5maWxlLm1hZT4nLCAnLW9tYWUnLCAnPG91dGZpbGUubWFlPic=

> <r_epik_Ionization_Penalty>
0.26605

> <r_epik_Ionization_Penalty_Charging>
0

> <r_epik_Ionization_Penalty_Neutral>
0.26605

> <r_epik_State_Penalty>
0.257924

> <r_epik_Charging_Adjusted_Penalty>
0.257924

> <i_epik_Tot_Q>
0

> <i_epik_Tot_abs_Q>
0

> <r_epik_Metal_State_Penalty>
0.257922

> <b_epik_Metal_Only>
0

> <s_lp_Force_Field>
OPLS_2005

> <r_lp_Energy>
27.9157

> <b_lp_Chiralities_Consistent>
1

> <s_lp_Variant>
AV-unprocessed.smi:1684-1

> <Gold.Version>
5.8.1

> <Gold.Id.Protein>
6NUR|6NUR_protein|mol2

> <Gold.PLP.Fitness>
40.2994

> <Gold.PLP.PLP>
-32.0216

> <Gold.PLP.part.hbond>
-3.0000

> <Gold.PLP.part.metal>
0.0000

> <Gold.PLP.part.buried>
-5.5094

> <Gold.PLP.part.nonpolar>
-24.9246

> <Gold.PLP.part.repulsive>
0.3108

> <Gold.PLP.ligand.clash>
0.0000

> <Gold.PLP.ligand.torsion>
1.5840

> <Gold.PLP.Chemscore.Hbond>
2.8080

> <Gold.PLP.Chemscore.CHOScore>
1.0000

> <Gold.PLP.Chemscore.Metal>
0.0000

> <Gold.Chemscore.Hbonds>
donor molecule, donor type, donor heavy atom, donor atom, acceptor molecule, acceptor atom, score
      L1  H     8    27       P1  7948  1.00
      L1  H    11    28       P1  7948  0.90
      P1  H  7989  7998       L1    18  0.85
      L1  C     5    26       P1 10186  1.00

> <Gold.PLP.Chemscore.Internal.Correction>
0.0218

> <Gold.Rescore>
     Score         DG    S(hbond)    S(metal)    S(lipo)     H(rot)  DE(clash)    DE(int)     intcor
     14.52     -17.51       2.14        0.00      73.64       1.46       0.01       2.98       ----

> <Gold.Chemscore.Fitness>
14.5191

> <Gold.Chemscore.DG>
-17.5128

> <Gold.Chemscore.ZeroCoef>
-5.4800

> <Gold.Chemscore.Hbond>
2.1407

> <Gold.Chemscore.Metal>
0.0000

> <Gold.Chemscore.Lipo>
73.6375

> <Gold.Chemscore.Internal_Hbond>
0.0000

> <Gold.Chemscore.DEClash>
0.0104

> <Gold.Chemscore.DEInternal>
2.9834

> <Gold.Chemscore.Rot>
1.4581

> <Gold.Chemscore.Internal.Correction>
   9.000000E+99

> <Gold.Chemscore.Hbonds>
donor molecule, donor type, donor heavy atom, donor atom, acceptor molecule, acceptor atom, score
      L1  H     8    27       P1  7948  0.99
      L1  H    11    28       P1  7948  0.83
      P1  H  7989  7998       L1    18  0.09

> <Gold.Chemscore.Hbond.Weighted>
-7.1499

> <Gold.Chemscore.Metal.Weighted>
-0.0000

> <Gold.Chemscore.Lipo.Weighted>
-8.6156

> <Gold.Chemscore.Internal_Hbond.Weighted>
0.0000

> <Gold.Chemscore.DEClash.Weighted>
0.0104

> <Gold.Chemscore.DEInternal.Weighted>
2.9834

> <Gold.Chemscore.Rot.Weighted>
3.7327

> <Gold.Chemscore.Internal.Correction.Weighted>
   9.000000E+99

> <Gold.Protein.RotatedTorsions>
[ 6907 6896 6895 6894 ] final   56.17 input  -60.11 | X-H torsion
[ 7974 7965 7964 7962 ] final  -20.62 input  175.53 | X-H torsion
[ 8008 7997 7996 7995 ] final -155.08 input   59.86 | X-H torsion
[ 10167 10162 10161 10158 ] final  120.19 input  -65.29 | X-H torsion
[ 10718 10713 10712 10709 ] final  -20.00 input   66.30 | X-H torsion
[ 10763 10752 10751 10750 ] final -175.74 input  -60.55 | X-H torsion
[ 11005 11000 10999 10996 ] final  173.05 input  -57.11 | X-H torsion

> <Gold.Protein.ActiveResidues>
 VAL166  LYS551  ARG553  GLY616  TRP617  ASP618  TYR619  PRO620  LYS621  CYS622 
 ASP623  PHE694  ASN695  SER759  ASP760  ASP761  ALA762  ILE779  LEU786  VAL792 
 PHE793  MET794  SER795  GLU796  ALA797  LYS798  CYS799  TRP800  GLU811  SER814 

> <Gold.Protein.RotatedAtoms>
  152.3610  134.6872  160.0206 H   0  0  0  0  0  0  0  0  0  0  0  0  # atno 6907 bound_to 6896
  151.7196  133.3308  159.3320 H   0  0  0  0  0  0  0  0  0  0  0  0  # atno 6908 bound_to 6896
  150.7604  134.6394  159.6273 H   0  0  0  0  0  0  0  0  0  0  0  0  # atno 6909 bound_to 6896
  146.1778  140.4227  142.8506 H   0  0  0  0  0  0  0  0  0  0  0  0  # atno 7974 bound_to 7965
  155.6962  140.0761  157.2428 H   0  0  0  0  0  0  0  0  0  0  0  0  # atno 8008 bound_to 7997
  154.4080  140.1655  156.2194 H   0  0  0  0  0  0  0  0  0  0  0  0  # atno 8009 bound_to 7997
  155.9408  140.3384  155.6328 H   0  0  0  0  0  0  0  0  0  0  0  0  # atno 8010 bound_to 7997
  139.5997  144.7053  151.3091 H   0  0  0  0  0  0  0  0  0  0  0  0  # atno 10167 bound_to 10162
  156.5378  130.4671  149.6514 H   0  0  0  0  0  0  0  0  0  0  0  0  # atno 10718 bound_to 10713
  154.5807  135.2836  155.0735 H   0  0  0  0  0  0  0  0  0  0  0  0  # atno 10763 bound_to 10752
  154.2072  135.6414  153.5108 H   0  0  0  0  0  0  0  0  0  0  0  0  # atno 10764 bound_to 10752
  153.0087  135.5483  154.6461 H   0  0  0  0  0  0  0  0  0  0  0  0  # atno 10765 bound_to 10752
  140.3363  134.7314  157.4170 H   0  0  0  0  0  0  0  0  0  0  0  0  # atno 11005 bound_to 11000
  144.8265  140.6637  143.6319 LP  0  0  0  0  0  0  0  0  0  0  0  0  # atno 17320 bound_to 7965
  145.4162  139.1571  143.4099 LP  0  0  0  0  0  0  0  0  0  0  0  0  # atno 17321 bound_to 7965
  140.7240  143.7055  150.7810 LP  0  0  0  0  0  0  0  0  0  0  0  0  # atno 17342 bound_to 10162
  140.0629  143.5137  152.2618 LP  0  0  0  0  0  0  0  0  0  0  0  0  # atno 17343 bound_to 10162
  156.2999  130.7171  151.2040 LP  0  0  0  0  0  0  0  0  0  0  0  0  # atno 17370 bound_to 10713
  157.7410  131.0509  150.5124 LP  0  0  0  0  0  0  0  0  0  0  0  0  # atno 17371 bound_to 10713
  140.0818  134.5720  155.8532 LP  0  0  0  0  0  0  0  0  0  0  0  0  # atno 17394 bound_to 11000
  141.2050  133.6644  156.6156 LP  0  0  0  0  0  0  0  0  0  0  0  0  # atno 17395 bound_to 11000

$$$$
