AV-unprocessed.smi:2953|AV-procd|sdf|11294|dock3
  -GOLD-   2272016183D 1   1.00000     0.00000
 Structure written by MMmdl.
 45 47  0  0  0  0  0  0  0  0  1 V2000
  147.7852  141.2712  153.5118 C   0  0  0  0  0  0  0  0  0  0  0  0
  146.8994  142.1078  154.4156 C   0  0  0  0  0  0  0  0  0  0  0  0
  145.8812  142.8900  153.8313 C   0  0  0  0  0  0  0  0  0  0  0  0
  145.0344  143.6731  154.6354 C   0  0  0  0  0  0  0  0  0  0  0  0
  145.2049  143.6774  156.0303 C   0  0  0  0  0  0  0  0  0  0  0  0
  146.2213  142.9018  156.6194 C   0  0  0  0  0  0  0  0  0  0  0  0
  147.0834  142.1062  155.8203 C   0  0  0  0  0  0  0  0  0  0  0  0
  148.0998  141.3304  156.3435 O   0  0  0  0  0  0  0  0  0  0  0  0
  148.5029  141.5774  157.6853 C   0  0  0  0  0  0  0  0  0  0  0  0
  149.8557  142.3019  157.7171 C   0  0  0  0  0  0  0  0  0  0  0  0
  150.9667  141.4036  158.0023 N   0  0  0  0  0  0  0  0  0  0  0  0
  151.2852  140.2133  157.4272 C   0  0  0  0  0  0  0  0  0  0  0  0
  150.4834  139.5969  156.3096 C   0  0  1  0  0  0  0  0  0  0  0  0
  150.4041  140.5125  155.0798 C   0  0  0  0  0  0  0  0  0  0  0  0
  151.0993  138.3238  155.9529 N   0  0  0  0  0  0  0  0  0  0  0  0
  152.3536  138.1917  155.5038 C   0  0  0  0  0  0  0  0  0  0  0  0
  153.1147  139.1429  155.3468 O   0  0  0  0  0  0  0  0  0  0  0  0
  152.3448  139.5895  157.9493 N   0  0  0  0  0  0  0  0  0  0  0  0
  152.7769  140.4707  158.9186 C   0  0  0  0  0  0  0  0  0  0  0  0
  153.8707  140.3917  159.8099 C   0  0  0  0  0  0  0  0  0  0  0  0
  154.1198  141.4326  160.7281 C   0  0  0  0  0  0  0  0  0  0  0  0
  153.2795  142.5638  160.7689 C   0  0  0  0  0  0  0  0  0  0  0  0
  152.1825  142.6602  159.8913 C   0  0  0  0  0  0  0  0  0  0  0  0
  151.9389  141.6186  158.9754 C   0  0  0  0  0  0  0  0  0  0  0  0
  147.2478  140.9761  152.6102 H   0  0  0  0  0  0  0  0  0  0  0  0
  148.1198  140.3601  154.0078 H   0  0  0  0  0  0  0  0  0  0  0  0
  148.6590  141.8475  153.2095 H   0  0  0  0  0  0  0  0  0  0  0  0
  145.7450  142.8903  152.7597 H   0  0  0  0  0  0  0  0  0  0  0  0
  144.2558  144.2693  154.1825 H   0  0  0  0  0  0  0  0  0  0  0  0
  144.5565  144.2784  156.6506 H   0  0  0  0  0  0  0  0  0  0  0  0
  146.3207  142.9406  157.6933 H   0  0  0  0  0  0  0  0  0  0  0  0
  147.7549  142.1790  158.2038 H   0  0  0  0  0  0  0  0  0  0  0  0
  148.6007  140.6310  158.2194 H   0  0  0  0  0  0  0  0  0  0  0  0
  150.0387  142.7581  156.7438 H   0  0  0  0  0  0  0  0  0  0  0  0
  149.8445  143.1289  158.4257 H   0  0  0  0  0  0  0  0  0  0  0  0
  149.4590  139.4194  156.6330 H   0  0  0  0  0  0  0  0  0  0  0  0
  149.9861  141.4828  155.3470 H   0  0  0  0  0  0  0  0  0  0  0  0
  149.7713  140.0770  154.3059 H   0  0  0  0  0  0  0  0  0  0  0  0
  151.3882  140.6875  154.6439 H   0  0  0  0  0  0  0  0  0  0  0  0
  150.5304  137.4942  156.0401 H   0  0  0  0  0  0  0  0  0  0  0  0
  152.6091  137.1407  155.2968 H   0  0  0  0  0  0  0  0  0  0  0  0
  154.5200  139.5289  159.7867 H   0  0  0  0  0  0  0  0  0  0  0  0
  154.9592  141.3624  161.4041 H   0  0  0  0  0  0  0  0  0  0  0  0
  153.4774  143.3572  161.4747 H   0  0  0  0  0  0  0  0  0  0  0  0
  151.5378  143.5258  159.9210 H   0  0  0  0  0  0  0  0  0  0  0  0
  1  2  1  0  0  0  0
  1 25  1  0  0  0  0
  1 26  1  0  0  0  0
  1 27  1  0  0  0  0
  2  7  1  0  0  0  0
  2  3  2  0  0  0  0
  3  4  1  0  0  0  0
  3 28  1  0  0  0  0
  4  5  2  0  0  0  0
  4 29  1  0  0  0  0
  5  6  1  0  0  0  0
  5 30  1  0  0  0  0
  6  7  2  0  0  0  0
  6 31  1  0  0  0  0
  7  8  1  0  0  0  0
  8  9  1  0  0  0  0
  9 10  1  0  0  0  0
  9 32  1  0  0  0  0
  9 33  1  0  0  0  0
 10 11  1  0  0  0  0
 10 34  1  0  0  0  0
 10 35  1  0  0  0  0
 11 24  1  0  0  0  0
 11 12  1  0  0  0  0
 12 13  1  0  0  0  0
 12 18  2  0  0  0  0
 13 14  1  0  0  0  0
 13 15  1  0  0  0  0
 13 36  1  0  0  0  0
 14 37  1  0  0  0  0
 14 38  1  0  0  0  0
 14 39  1  0  0  0  0
 15 16  1  0  0  0  0
 15 40  1  0  0  0  0
 16 17  2  0  0  0  0
 16 41  1  0  0  0  0
 18 19  1  0  0  0  0
 19 24  2  0  0  0  0
 19 20  1  0  0  0  0
 20 21  2  0  0  0  0
 20 42  1  0  0  0  0
 21 22  1  0  0  0  0
 21 43  1  0  0  0  0
 22 23  2  0  0  0  0
 22 44  1  0  0  0  0
 23 24  1  0  0  0  0
 23 45  1  0  0  0  0
M  END
> <s_m_source_file>
AV-unprocessed.smi

> <i_m_source_file_index>
2953

> <i_lp_mmshare_version>
43012

> <i_f3d_flags>
0

> <s_epik_input>
W0NIM11jMVtjSF1bY0hdW2NIXVtjSF1jMU9bQ0gyXVtDSDJdbihjKG4yKVtDQEhdKFtDSDNdKVtOSF1bQ0hdPU8pYyhjMjMpW2NIXVtjSF1bY0hdW2NIXTM=

> <s_epik_cmdline>
J2VwaWtfcHl0aG9uJywgJy1waCcsICc3LjAnLCAnLXRuJywgJzgnLCAnLW1hJywgJzIwMCcsICctbWV0YWxfYmluZGluZycsICctaW1hZScsICc8aW5maWxlLm1hZT4nLCAnLW9tYWUnLCAnPG91dGZpbGUubWFlPic=

> <r_lp_tautomer_probability>
1

> <r_epik_Ionization_Penalty>
0.0924205

> <r_epik_Ionization_Penalty_Charging>
0

> <r_epik_Ionization_Penalty_Neutral>
0.0924205

> <r_epik_State_Penalty>
0.0827154

> <r_epik_Charging_Adjusted_Penalty>
0.0827154

> <i_epik_Tot_Q>
0

> <i_epik_Tot_abs_Q>
0

> <r_epik_Metal_State_Penalty>
0.071464

> <b_epik_Metal_Only>
0

> <s_lp_Force_Field>
OPLS_2005

> <r_lp_Energy>
13.3209

> <b_lp_Chiralities_Consistent>
1

> <s_lp_Variant>
AV-unprocessed.smi:2953-2

> <Gold.Version>
5.8.1

> <Gold.Id.Protein>
6NUR|6NUR_protein|mol2

> <Gold.PLP.Fitness>
46.6647

> <Gold.PLP.PLP>
-45.3376

> <Gold.PLP.part.hbond>
-1.0000

> <Gold.PLP.part.metal>
0.0000

> <Gold.PLP.part.buried>
-3.9611

> <Gold.PLP.part.nonpolar>
-39.4099

> <Gold.PLP.part.repulsive>
0.1551

> <Gold.PLP.ligand.clash>
0.0000

> <Gold.PLP.ligand.torsion>
0.9101

> <Gold.PLP.Chemscore.Hbond>
1.0000

> <Gold.PLP.Chemscore.CHOScore>
0.0000

> <Gold.PLP.Chemscore.Metal>
0.0000

> <Gold.Chemscore.Hbonds>
donor molecule, donor type, donor heavy atom, donor atom, acceptor molecule, acceptor atom, score
      P1  H  7997  8008       L1    17  1.00

> <Gold.PLP.Chemscore.Internal.Correction>
0.1474

> <Gold.Rescore>
     Score         DG    S(hbond)    S(metal)    S(lipo)     H(rot)  DE(clash)    DE(int)     intcor
      9.51     -15.92       0.99        0.00     110.38       2.26       0.06       6.36       ----

> <Gold.Chemscore.Fitness>
9.5059

> <Gold.Chemscore.DG>
-15.9223

> <Gold.Chemscore.ZeroCoef>
-5.4800

> <Gold.Chemscore.Hbond>
0.9936

> <Gold.Chemscore.Metal>
0.0000

> <Gold.Chemscore.Lipo>
110.3793

> <Gold.Chemscore.Internal_Hbond>
0.0000

> <Gold.Chemscore.DEClash>
0.0599

> <Gold.Chemscore.DEInternal>
6.3565

> <Gold.Chemscore.Rot>
2.2619

> <Gold.Chemscore.Internal.Correction>
   9.000000E+99

> <Gold.Chemscore.Hbonds>
donor molecule, donor type, donor heavy atom, donor atom, acceptor molecule, acceptor atom, score
      P1  H  7997  8008       L1    17  0.99

> <Gold.Chemscore.Hbond.Weighted>
-3.3185

> <Gold.Chemscore.Metal.Weighted>
-0.0000

> <Gold.Chemscore.Lipo.Weighted>
-12.9144

> <Gold.Chemscore.Internal_Hbond.Weighted>
0.0000

> <Gold.Chemscore.DEClash.Weighted>
0.0599

> <Gold.Chemscore.DEInternal.Weighted>
6.3565

> <Gold.Chemscore.Rot.Weighted>
5.7906

> <Gold.Chemscore.Internal.Correction.Weighted>
   9.000000E+99

> <Gold.Protein.RotatedTorsions>
[ 6907 6896 6895 6894 ] final -157.32 input  -60.11 | X-H torsion
[ 7974 7965 7964 7962 ] final -129.54 input  175.53 | X-H torsion
[ 8008 7997 7996 7995 ] final  -13.17 input   59.86 | X-H torsion
[ 10167 10162 10161 10158 ] final -143.11 input  -65.29 | X-H torsion
[ 10718 10713 10712 10709 ] final -154.74 input   66.30 | X-H torsion
[ 10763 10752 10751 10750 ] final   -2.55 input  -60.55 | X-H torsion
[ 11005 11000 10999 10996 ] final   71.50 input  -57.11 | X-H torsion

> <Gold.Protein.ActiveResidues>
 VAL166  LYS551  ARG553  GLY616  TRP617  ASP618  TYR619  PRO620  LYS621  CYS622 
 ASP623  PHE694  ASN695  SER759  ASP760  ASP761  ALA762  ILE779  LEU786  VAL792 
 PHE793  MET794  SER795  GLU796  ALA797  LYS798  CYS799  TRP800  GLU811  SER814 

> <Gold.Protein.RotatedAtoms>
  151.3011  133.4122  159.2639 H   0  0  0  0  0  0  0  0  0  0  0  0  # atno 6907 bound_to 6896
  151.0194  134.9458  159.8061 H   0  0  0  0  0  0  0  0  0  0  0  0  # atno 6908 bound_to 6896
  152.5320  134.2975  159.9118 H   0  0  0  0  0  0  0  0  0  0  0  0  # atno 6909 bound_to 6896
  144.9562  140.7398  143.4757 H   0  0  0  0  0  0  0  0  0  0  0  0  # atno 7974 bound_to 7965
  154.5315  140.2257  155.8796 H   0  0  0  0  0  0  0  0  0  0  0  0  # atno 8008 bound_to 7997
  156.1769  140.3109  155.9039 H   0  0  0  0  0  0  0  0  0  0  0  0  # atno 8009 bound_to 7997
  155.3441  140.0452  157.3036 H   0  0  0  0  0  0  0  0  0  0  0  0  # atno 8010 bound_to 7997
  139.8025  143.7814  152.2659 H   0  0  0  0  0  0  0  0  0  0  0  0  # atno 10167 bound_to 10162
  156.5034  130.8402  151.2618 H   0  0  0  0  0  0  0  0  0  0  0  0  # atno 10718 bound_to 10713
  153.3595  135.6989  153.6724 H   0  0  0  0  0  0  0  0  0  0  0  0  # atno 10763 bound_to 10752
  153.5418  135.3571  155.2722 H   0  0  0  0  0  0  0  0  0  0  0  0  # atno 10764 bound_to 10752
  154.8666  135.4205  154.2848 H   0  0  0  0  0  0  0  0  0  0  0  0  # atno 10765 bound_to 10752
  139.9540  134.7177  156.0796 H   0  0  0  0  0  0  0  0  0  0  0  0  # atno 11005 bound_to 11000
  145.2768  139.1933  143.4812 LP  0  0  0  0  0  0  0  0  0  0  0  0  # atno 17320 bound_to 7965
  146.3338  140.2724  142.8606 LP  0  0  0  0  0  0  0  0  0  0  0  0  # atno 17321 bound_to 7965
  139.7938  144.7400  150.9918 LP  0  0  0  0  0  0  0  0  0  0  0  0  # atno 17342 bound_to 10162
  140.7820  143.4414  151.0546 LP  0  0  0  0  0  0  0  0  0  0  0  0  # atno 17343 bound_to 10162
  157.7460  130.9974  150.2814 LP  0  0  0  0  0  0  0  0  0  0  0  0  # atno 17370 bound_to 10713
  156.3310  130.3800  149.7491 LP  0  0  0  0  0  0  0  0  0  0  0  0  # atno 17371 bound_to 10713
  141.1208  133.6613  156.3210 LP  0  0  0  0  0  0  0  0  0  0  0  0  # atno 17394 bound_to 11000
  140.5652  134.5894  157.5444 LP  0  0  0  0  0  0  0  0  0  0  0  0  # atno 17395 bound_to 11000

$$$$
