AV-unprocessed.smi:1815|AV-procd|sdf|7351|dock3
  -GOLD-   22720 9 13D 1   1.00000     0.00000
 Structure written by MMmdl.
 39 40  0  0  0  0  0  0  0  0  1 V2000
  150.6576  142.0401  156.1715 C   0  0  0  0  0  0  0  0  0  0  0  0
  150.0531  140.6807  155.8055 C   0  0  1  0  0  0  0  0  0  0  0  0
  148.8660  140.8135  154.8327 C   0  0  0  0  0  0  0  0  0  0  0  0
  148.3425  139.5140  154.4282 N   0  0  0  0  0  0  0  0  0  0  0  0
  147.2101  139.6663  153.5139 C   0  0  0  0  0  0  0  0  0  0  0  0
  146.1498  138.5490  153.5812 C   0  0  0  0  0  0  0  0  0  0  0  0
  146.5174  137.3972  152.7641 N   0  0  0  0  0  0  0  0  0  0  0  0
  145.6494  136.5562  152.1845 C   0  0  0  0  0  0  0  0  0  0  0  0
  144.4269  136.6793  152.2669 O   0  0  0  0  0  0  0  0  0  0  0  0
  146.2898  135.5795  151.5182 N   0  0  0  0  0  0  0  0  0  0  0  0
  145.7273  134.5075  150.7770 C   0  0  0  0  0  0  0  0  0  0  0  0
  144.4968  134.5172  150.2510 N   0  0  0  0  0  0  0  0  0  0  0  0
  144.2073  133.3310  149.5720 C   0  0  0  0  0  0  0  0  0  0  0  0
  145.2358  132.4221  149.5913 C   0  0  0  0  0  0  0  0  0  0  0  0
  146.6176  133.0239  150.4679 S   0  0  0  0  0  0  0  0  0  0  0  0
  149.4273  138.7243  153.8520 C   0  0  0  0  0  0  0  0  0  0  0  0
  150.6185  138.5892  154.8197 C   0  0  1  0  0  0  0  0  0  0  0  0
  151.7938  137.8363  154.1878 C   0  0  0  0  0  0  0  0  0  0  0  0
  151.0676  139.8887  155.1941 O   0  0  0  0  0  0  0  0  0  0  0  0
  149.9184  142.6810  156.6527 H   0  0  0  0  0  0  0  0  0  0  0  0
  151.0264  142.5594  155.2865 H   0  0  0  0  0  0  0  0  0  0  0  0
  151.4938  141.9217  156.8611 H   0  0  0  0  0  0  0  0  0  0  0  0
  149.7218  140.1869  156.7208 H   0  0  0  0  0  0  0  0  0  0  0  0
  148.0757  141.3965  155.3072 H   0  0  0  0  0  0  0  0  0  0  0  0
  149.1800  141.3744  153.9508 H   0  0  0  0  0  0  0  0  0  0  0  0
  146.7101  140.6126  153.7251 H   0  0  0  0  0  0  0  0  0  0  0  0
  147.5762  139.7503  152.4897 H   0  0  0  0  0  0  0  0  0  0  0  0
  146.0114  138.2350  154.6171 H   0  0  0  0  0  0  0  0  0  0  0  0
  145.1779  138.9136  153.2507 H   0  0  0  0  0  0  0  0  0  0  0  0
  147.5042  137.2189  152.6486 H   0  0  0  0  0  0  0  0  0  0  0  0
  147.2985  135.6058  151.5441 H   0  0  0  0  0  0  0  0  0  0  0  0
  143.2411  133.2176  149.1028 H   0  0  0  0  0  0  0  0  0  0  0  0
  145.2640  131.4391  149.1449 H   0  0  0  0  0  0  0  0  0  0  0  0
  149.0718  137.7264  153.5970 H   0  0  0  0  0  0  0  0  0  0  0  0
  149.7638  139.1842  152.9215 H   0  0  0  0  0  0  0  0  0  0  0  0
  150.3008  138.0541  155.7165 H   0  0  0  0  0  0  0  0  0  0  0  0
  151.5005  136.8290  153.8915 H   0  0  0  0  0  0  0  0  0  0  0  0
  152.6228  137.7482  154.8904 H   0  0  0  0  0  0  0  0  0  0  0  0
  152.1619  138.3525  153.3007 H   0  0  0  0  0  0  0  0  0  0  0  0
  1  2  1  0  0  0  0
  1 20  1  0  0  0  0
  1 21  1  0  0  0  0
  1 22  1  0  0  0  0
  2 19  1  0  0  0  0
  2  3  1  0  0  0  0
  2 23  1  0  0  0  0
  3  4  1  0  0  0  0
  3 24  1  0  0  0  0
  3 25  1  0  0  0  0
  4  5  1  0  0  0  0
  4 16  1  0  0  0  0
  5  6  1  0  0  0  0
  5 26  1  0  0  0  0
  5 27  1  0  0  0  0
  6  7  1  0  0  0  0
  6 28  1  0  0  0  0
  6 29  1  0  0  0  0
  7  8  1  0  0  0  0
  7 30  1  0  0  0  0
  8  9  2  0  0  0  0
  8 10  1  0  0  0  0
 10 11  1  0  0  0  0
 10 31  1  0  0  0  0
 11 15  1  0  0  0  0
 11 12  2  0  0  0  0
 12 13  1  0  0  0  0
 13 14  2  0  0  0  0
 13 32  1  0  0  0  0
 14 15  1  0  0  0  0
 14 33  1  0  0  0  0
 16 17  1  0  0  0  0
 16 34  1  0  0  0  0
 16 35  1  0  0  0  0
 17 18  1  0  0  0  0
 17 19  1  0  0  0  0
 17 36  1  0  0  0  0
 18 37  1  0  0  0  0
 18 38  1  0  0  0  0
 18 39  1  0  0  0  0
M  END
> <s_m_source_file>
AV-unprocessed.smi

> <i_m_source_file_index>
1815

> <i_lp_mmshare_version>
43012

> <i_f3d_flags>
0

> <s_epik_input>
W0NIM11bQ0BASF0xW0NIMl1OKFtDSDJdW0NASF0oTzEpW0NIM10pW0NIMl1bQ0gyXVtOSF1DKD1PKVtOSF1jMm5bY0hdW2NIXXMy

> <s_epik_cmdline>
J2VwaWtfcHl0aG9uJywgJy1waCcsICc3LjAnLCAnLXRuJywgJzgnLCAnLW1hJywgJzIwMCcsICctbWV0YWxfYmluZGluZycsICctaW1hZScsICc8aW5maWxlLm1hZT4nLCAnLW9tYWUnLCAnPG91dGZpbGUubWFlPic=

> <r_lp_tautomer_probability>
0.999

> <r_epik_Ionization_Penalty>
0.219201

> <r_epik_Ionization_Penalty_Charging>
0

> <r_epik_Ionization_Penalty_Neutral>
0.219201

> <r_epik_State_Penalty>
0.209349

> <r_epik_Charging_Adjusted_Penalty>
0.209349

> <i_epik_Tot_Q>
0

> <i_epik_Tot_abs_Q>
0

> <r_epik_Metal_State_Penalty>
0.247737

> <b_epik_Metal_Only>
0

> <s_lp_Force_Field>
OPLS_2005

> <r_lp_Energy>
22.4698

> <b_lp_Chiralities_Consistent>
1

> <s_lp_Variant>
AV-unprocessed.smi:1815-2

> <Gold.Version>
5.8.1

> <Gold.Id.Protein>
6NUR|6NUR_protein|mol2

> <Gold.PLP.Fitness>
42.7699

> <Gold.PLP.PLP>
-32.3226

> <Gold.PLP.part.hbond>
-3.0000

> <Gold.PLP.part.metal>
0.0000

> <Gold.PLP.part.buried>
-2.9792

> <Gold.PLP.part.nonpolar>
-27.9584

> <Gold.PLP.part.repulsive>
0.6596

> <Gold.PLP.ligand.clash>
0.0000

> <Gold.PLP.ligand.torsion>
0.7893

> <Gold.PLP.Chemscore.Hbond>
3.0000

> <Gold.PLP.Chemscore.CHOScore>
1.0000

> <Gold.PLP.Chemscore.Metal>
0.0000

> <Gold.Chemscore.Hbonds>
donor molecule, donor type, donor heavy atom, donor atom, acceptor molecule, acceptor atom, score
      L1  H     7    30       P1  7948  1.00
      L1  H    10    31       P1  7948  1.00
      P1  H  7989  7998       L1    19  0.98
      L1  C    13    32       P1 10186  0.90

> <Gold.PLP.Chemscore.Internal.Correction>
0.0259

> <Gold.Rescore>
     Score         DG    S(hbond)    S(metal)    S(lipo)     H(rot)  DE(clash)    DE(int)     intcor
     16.44     -18.77       2.30        0.00      83.01       1.60       0.40       1.93       ----

> <Gold.Chemscore.Fitness>
16.4438

> <Gold.Chemscore.DG>
-18.7681

> <Gold.Chemscore.ZeroCoef>
-5.4800

> <Gold.Chemscore.Hbond>
2.2971

> <Gold.Chemscore.Metal>
0.0000

> <Gold.Chemscore.Lipo>
83.0093

> <Gold.Chemscore.Internal_Hbond>
0.0000

> <Gold.Chemscore.DEClash>
0.3961

> <Gold.Chemscore.DEInternal>
1.9282

> <Gold.Chemscore.Rot>
1.6001

> <Gold.Chemscore.Internal.Correction>
   9.000000E+99

> <Gold.Chemscore.Hbonds>
donor molecule, donor type, donor heavy atom, donor atom, acceptor molecule, acceptor atom, score
      L1  H     7    30       P1  7948  0.95
      L1  H    10    31       P1  7948  0.99
      P1  H  7989  7998       L1    19  0.36

> <Gold.Chemscore.Hbond.Weighted>
-7.6723

> <Gold.Chemscore.Metal.Weighted>
-0.0000

> <Gold.Chemscore.Lipo.Weighted>
-9.7121

> <Gold.Chemscore.Internal_Hbond.Weighted>
0.0000

> <Gold.Chemscore.DEClash.Weighted>
0.3961

> <Gold.Chemscore.DEInternal.Weighted>
1.9282

> <Gold.Chemscore.Rot.Weighted>
4.0963

> <Gold.Chemscore.Internal.Correction.Weighted>
   9.000000E+99

> <Gold.Protein.RotatedTorsions>
[ 6907 6896 6895 6894 ] final  168.35 input  -60.11 | X-H torsion
[ 7974 7965 7964 7962 ] final  108.47 input  175.53 | X-H torsion
[ 8008 7997 7996 7995 ] final -169.24 input   59.86 | X-H torsion
[ 10167 10162 10161 10158 ] final  129.47 input  -65.29 | X-H torsion
[ 10718 10713 10712 10709 ] final  -29.73 input   66.30 | X-H torsion
[ 10763 10752 10751 10750 ] final  124.50 input  -60.55 | X-H torsion
[ 11005 11000 10999 10996 ] final  106.28 input  -57.11 | X-H torsion

> <Gold.Protein.ActiveResidues>
 VAL166  LYS551  ARG553  GLY616  TRP617  ASP618  TYR619  PRO620  LYS621  CYS622 
 ASP623  PHE694  ASN695  SER759  ASP760  ASP761  ALA762  ILE779  LEU786  VAL792 
 PHE793  MET794  SER795  GLU796  ALA797  LYS798  CYS799  TRP800  GLU811  SER814 

> <Gold.Protein.RotatedAtoms>
  151.8491  133.3436  159.3667 H   0  0  0  0  0  0  0  0  0  0  0  0  # atno 6907 bound_to 6896
  150.7212  134.5317  159.5713 H   0  0  0  0  0  0  0  0  0  0  0  0  # atno 6908 bound_to 6896
  152.2807  134.7833  160.0448 H   0  0  0  0  0  0  0  0  0  0  0  0  # atno 6909 bound_to 6896
  145.2802  139.2635  143.3919 H   0  0  0  0  0  0  0  0  0  0  0  0  # atno 7974 bound_to 7965
  155.9023  140.1043  157.1341 H   0  0  0  0  0  0  0  0  0  0  0  0  # atno 8008 bound_to 7997
  154.4028  140.1290  156.4515 H   0  0  0  0  0  0  0  0  0  0  0  0  # atno 8009 bound_to 7997
  155.7409  140.3467  155.5106 H   0  0  0  0  0  0  0  0  0  0  0  0  # atno 8010 bound_to 7997
  139.5476  144.6786  151.4423 H   0  0  0  0  0  0  0  0  0  0  0  0  # atno 10167 bound_to 10162
  156.4087  130.4404  149.7268 H   0  0  0  0  0  0  0  0  0  0  0  0  # atno 10718 bound_to 10713
  153.6624  135.3344  155.3131 H   0  0  0  0  0  0  0  0  0  0  0  0  # atno 10763 bound_to 10752
  154.8511  135.4367  154.1790 H   0  0  0  0  0  0  0  0  0  0  0  0  # atno 10764 bound_to 10752
  153.2760  135.7004  153.7508 H   0  0  0  0  0  0  0  0  0  0  0  0  # atno 10765 bound_to 10752
  139.8812  134.9364  156.5642 H   0  0  0  0  0  0  0  0  0  0  0  0  # atno 11005 bound_to 11000
  146.3218  140.3268  142.8637 LP  0  0  0  0  0  0  0  0  0  0  0  0  # atno 17320 bound_to 7965
  144.9259  140.7921  143.5719 LP  0  0  0  0  0  0  0  0  0  0  0  0  # atno 17321 bound_to 7965
  140.6729  143.8253  150.7022 LP  0  0  0  0  0  0  0  0  0  0  0  0  # atno 17342 bound_to 10162
  140.1683  143.4216  152.2019 LP  0  0  0  0  0  0  0  0  0  0  0  0  # atno 17343 bound_to 10162
  156.4255  130.7790  151.2808 LP  0  0  0  0  0  0  0  0  0  0  0  0  # atno 17370 bound_to 10713
  157.7506  131.0170  150.3566 LP  0  0  0  0  0  0  0  0  0  0  0  0  # atno 17371 bound_to 10713
  140.8147  133.8401  155.8841 LP  0  0  0  0  0  0  0  0  0  0  0  0  # atno 17394 bound_to 11000
  140.9474  134.1823  157.4753 LP  0  0  0  0  0  0  0  0  0  0  0  0  # atno 17395 bound_to 11000

$$$$
