AV-unprocessed.smi:2104|AV-procd|sdf|8589|dock6
  -GOLD-   2272011323D 1   1.00000     0.00000
 Structure written by MMmdl.
 42 43  0  0  0  0  0  0  0  0  2 V2000
  147.1669  134.3674  162.7590 C   0  0  0  0  0  0  0  0  0  0  0  0
  147.6476  135.2971  161.6985 C   0  0  0  0  0  0  0  0  0  0  0  0
  148.0522  135.1054  160.4078 C   0  0  0  0  0  0  0  0  0  0  0  0
  148.3840  136.4176  159.9739 C   0  0  0  0  0  0  0  0  0  0  0  0
  148.8347  136.7583  158.7570 N   0  5  0  0  0  0  0  0  0  0  0  0
  149.2022  138.0357  158.5054 C   0  0  0  0  0  0  0  0  0  0  0  0
  148.4429  138.9886  158.3138 O   0  0  0  0  0  0  0  0  0  0  0  0
  150.5300  138.2148  158.4515 N   0  0  0  0  0  0  0  0  0  0  0  0
  151.2125  139.4482  158.0720 C   0  0  0  0  0  0  0  0  0  0  0  0
  152.2128  139.8801  159.1549 C   0  0  0  0  0  0  0  0  0  0  0  0
  151.9286  141.2153  159.5433 O   0  0  0  0  0  0  0  0  0  0  0  0
  153.0410  142.1004  159.5239 C   0  0  2  0  0  0  0  0  0  0  0  0
  154.1025  141.5224  160.4781 C   0  0  0  0  0  0  0  0  0  0  0  0
  153.6233  141.5293  161.9402 C   0  0  0  0  0  0  0  0  0  0  0  0
  153.1950  142.9367  162.3812 C   0  0  0  0  0  0  0  0  0  0  0  0
  152.1288  143.5164  161.4385 C   0  0  0  0  0  0  0  0  0  0  0  0
  152.6089  143.5185  159.9734 C   0  0  2  0  0  0  0  0  0  0  0  0
  151.5683  144.1553  159.0400 C   0  0  0  0  0  0  0  0  0  0  0  0
  148.1821  137.3274  160.9128 N   0  0  0  0  0  0  0  0  0  0  0  0
  147.7152  136.6159  162.0242 O   0  0  0  0  0  0  0  0  0  0  0  0
  146.0775  134.3403  162.7820 H   0  0  0  0  0  0  0  0  0  0  0  0
  147.5197  134.6817  163.7415 H   0  0  0  0  0  0  0  0  0  0  0  0
  147.5276  133.3545  162.5789 H   0  0  0  0  0  0  0  0  0  0  0  0
  148.1089  134.1757  159.8618 H   0  0  0  0  0  0  0  0  0  0  0  0
  151.1109  137.4074  158.6230 H   0  0  0  0  0  0  0  0  0  0  0  0
  151.7061  139.3456  157.1044 H   0  0  0  0  0  0  0  0  0  0  0  0
  150.4529  140.2204  157.9514 H   0  0  0  0  0  0  0  0  0  0  0  0
  152.1283  139.2314  160.0275 H   0  0  0  0  0  0  0  0  0  0  0  0
  153.2317  139.7852  158.7776 H   0  0  0  0  0  0  0  0  0  0  0  0
  153.4773  142.1502  158.5242 H   0  0  0  0  0  0  0  0  0  0  0  0
  154.3605  140.5068  160.1766 H   0  0  0  0  0  0  0  0  0  0  0  0
  155.0187  142.1083  160.3967 H   0  0  0  0  0  0  0  0  0  0  0  0
  152.7848  140.8410  162.0549 H   0  0  0  0  0  0  0  0  0  0  0  0
  154.4154  141.1607  162.5923 H   0  0  0  0  0  0  0  0  0  0  0  0
  152.8105  142.9055  163.4010 H   0  0  0  0  0  0  0  0  0  0  0  0
  154.0646  143.5949  162.3981 H   0  0  0  0  0  0  0  0  0  0  0  0
  151.2089  142.9374  161.5276 H   0  0  0  0  0  0  0  0  0  0  0  0
  151.8801  144.5310  161.7516 H   0  0  0  0  0  0  0  0  0  0  0  0
  153.4960  144.1520  159.9251 H   0  0  0  0  0  0  0  0  0  0  0  0
  150.6214  143.6167  159.0705 H   0  0  0  0  0  0  0  0  0  0  0  0
  151.9175  144.1640  158.0075 H   0  0  0  0  0  0  0  0  0  0  0  0
  151.3653  145.1870  159.3279 H   0  0  0  0  0  0  0  0  0  0  0  0
  1  2  1  0  0  0  0
  1 21  1  0  0  0  0
  1 22  1  0  0  0  0
  1 23  1  0  0  0  0
  2 20  1  0  0  0  0
  2  3  2  0  0  0  0
  3  4  1  0  0  0  0
  3 24  1  0  0  0  0
  4  5  1  0  0  0  0
  4 19  2  0  0  0  0
  5  6  1  0  0  0  0
  6  7  2  0  0  0  0
  6  8  1  0  0  0  0
  8  9  1  0  0  0  0
  8 25  1  0  0  0  0
  9 10  1  0  0  0  0
  9 26  1  0  0  0  0
  9 27  1  0  0  0  0
 10 11  1  0  0  0  0
 10 28  1  0  0  0  0
 10 29  1  0  0  0  0
 11 12  1  0  0  0  0
 12 17  1  0  0  0  0
 12 13  1  0  0  0  0
 12 30  1  0  0  0  0
 13 14  1  0  0  0  0
 13 31  1  0  0  0  0
 13 32  1  0  0  0  0
 14 15  1  0  0  0  0
 14 33  1  0  0  0  0
 14 34  1  0  0  0  0
 15 16  1  0  0  0  0
 15 35  1  0  0  0  0
 15 36  1  0  0  0  0
 16 17  1  0  0  0  0
 16 37  1  0  0  0  0
 16 38  1  0  0  0  0
 17 18  1  0  0  0  0
 17 39  1  0  0  0  0
 18 40  1  0  0  0  0
 18 41  1  0  0  0  0
 18 42  1  0  0  0  0
 19 20  1  0  0  0  0
M  CHG  1   5  -1
M  END
> <s_m_source_file>
AV-unprocessed.smi

> <i_m_source_file_index>
2104

> <i_lp_mmshare_version>
43012

> <i_f3d_flags>
0

> <s_epik_input>
W0NIM11jMVtjSF1jKG5vMSlbTkhdQyg9TylbTkhdW0NIMl1bQ0gyXU9bQ0BASF0yW0NIMl1bQ0gyXVtDSDJdW0NIMl1bQ0BIXTJbQ0gzXQ==

> <s_epik_cmdline>
J2VwaWtfcHl0aG9uJywgJy1waCcsICc3LjAnLCAnLXRuJywgJzgnLCAnLW1hJywgJzIwMCcsICctbWV0YWxfYmluZGluZycsICctaW1hZScsICc8aW5maWxlLm1hZT4nLCAnLW9tYWUnLCAnPG91dGZpbGUubWFlPic=

> <r_lp_tautomer_probability>
1

> <r_epik_Ionization_Penalty>
6.47137

> <r_epik_Ionization_Penalty_Charging>
6.47125

> <r_epik_Ionization_Penalty_Neutral>
0.000118933

> <r_epik_State_Penalty>
6.47124

> <r_epik_Charging_Adjusted_Penalty>
12.9425

> <i_epik_Tot_Q>
-1

> <i_epik_Tot_abs_Q>
1

> <r_epik_Metal_State_Penalty>
2.3995

> <b_epik_Metal_Only>
1

> <s_lp_Force_Field>
OPLS_2005

> <r_lp_Energy>
3.94735

> <b_lp_Chiralities_Consistent>
1

> <s_lp_Variant>
AV-unprocessed.smi:2104-7

> <Gold.Version>
5.8.1

> <Gold.Id.Protein>
6NUR|6NUR_protein|mol2

> <Gold.PLP.Fitness>
45.9651

> <Gold.PLP.PLP>
-45.6541

> <Gold.PLP.part.hbond>
-3.6197

> <Gold.PLP.part.metal>
0.0000

> <Gold.PLP.part.buried>
-5.6871

> <Gold.PLP.part.nonpolar>
-36.5723

> <Gold.PLP.part.repulsive>
0.1152

> <Gold.PLP.ligand.clash>
0.0000

> <Gold.PLP.ligand.torsion>
1.4512

> <Gold.PLP.Chemscore.Hbond>
1.0216

> <Gold.PLP.Chemscore.CHOScore>
0.0000

> <Gold.PLP.Chemscore.Metal>
0.0000

> <Gold.Chemscore.Hbonds>
donor molecule, donor type, donor heavy atom, donor atom, acceptor molecule, acceptor atom, score
      P1  H  6931  6943       L1    19  0.43
      P1  H  6934  6947       L1    19  0.62

> <Gold.PLP.Chemscore.Internal.Correction>
0.1487

> <Gold.Rescore>
     Score         DG    S(hbond)    S(metal)    S(lipo)     H(rot)  DE(clash)    DE(int)     intcor
     14.68     -16.18       0.65        0.00     110.30       1.71       0.02       1.49       ----

> <Gold.Chemscore.Fitness>
14.6769

> <Gold.Chemscore.DG>
-16.1787

> <Gold.Chemscore.ZeroCoef>
-5.4800

> <Gold.Chemscore.Hbond>
0.6502

> <Gold.Chemscore.Metal>
0.0000

> <Gold.Chemscore.Lipo>
110.3020

> <Gold.Chemscore.Internal_Hbond>
0.0000

> <Gold.Chemscore.DEClash>
0.0162

> <Gold.Chemscore.DEInternal>
1.4857

> <Gold.Chemscore.Rot>
1.7103

> <Gold.Chemscore.Internal.Correction>
   9.000000E+99

> <Gold.Chemscore.Hbonds>
donor molecule, donor type, donor heavy atom, donor atom, acceptor molecule, acceptor atom, score
      P1  H  6931  6943       L1    19  0.02
      P1  H  6934  6947       L1    19  0.34

> <Gold.Chemscore.Hbond.Weighted>
-2.1718

> <Gold.Chemscore.Metal.Weighted>
-0.0000

> <Gold.Chemscore.Lipo.Weighted>
-12.9053

> <Gold.Chemscore.Internal_Hbond.Weighted>
0.0000

> <Gold.Chemscore.DEClash.Weighted>
0.0162

> <Gold.Chemscore.DEInternal.Weighted>
1.4857

> <Gold.Chemscore.Rot.Weighted>
4.3784

> <Gold.Chemscore.Internal.Correction.Weighted>
   9.000000E+99

> <Gold.Protein.RotatedTorsions>
[ 6907 6896 6895 6894 ] final -151.67 input  -60.11 | X-H torsion
[ 7974 7965 7964 7962 ] final  142.66 input  175.53 | X-H torsion
[ 8008 7997 7996 7995 ] final  112.71 input   59.86 | X-H torsion
[ 10167 10162 10161 10158 ] final -155.57 input  -65.29 | X-H torsion
[ 10718 10713 10712 10709 ] final   96.85 input   66.30 | X-H torsion
[ 10763 10752 10751 10750 ] final  -67.12 input  -60.55 | X-H torsion
[ 11005 11000 10999 10996 ] final   44.27 input  -57.11 | X-H torsion

> <Gold.Protein.ActiveResidues>
 VAL166  LYS551  ARG553  GLY616  TRP617  ASP618  TYR619  PRO620  LYS621  CYS622 
 ASP623  PHE694  ASN695  SER759  ASP760  ASP761  ALA762  ILE779  LEU786  VAL792 
 PHE793  MET794  SER795  GLU796  ALA797  LYS798  CYS799  TRP800  GLU811  SER814 

> <Gold.Protein.RotatedAtoms>
  151.2165  133.4526  159.2599 H   0  0  0  0  0  0  0  0  0  0  0  0  # atno 6907 bound_to 6896
  151.0926  134.9925  159.8420 H   0  0  0  0  0  0  0  0  0  0  0  0  # atno 6908 bound_to 6896
  152.5436  134.2097  159.8798 H   0  0  0  0  0  0  0  0  0  0  0  0  # atno 6909 bound_to 6896
  144.8988  139.5453  143.5763 H   0  0  0  0  0  0  0  0  0  0  0  0  # atno 7974 bound_to 7965
  156.2210  140.2994  155.9953 H   0  0  0  0  0  0  0  0  0  0  0  0  # atno 8008 bound_to 7997
  155.2481  140.0425  157.3000 H   0  0  0  0  0  0  0  0  0  0  0  0  # atno 8009 bound_to 7997
  154.5841  140.2383  155.8020 H   0  0  0  0  0  0  0  0  0  0  0  0  # atno 8010 bound_to 7997
  139.6920  143.9404  152.2389 H   0  0  0  0  0  0  0  0  0  0  0  0  # atno 10167 bound_to 10162
  157.6921  131.0591  150.4553 H   0  0  0  0  0  0  0  0  0  0  0  0  # atno 10718 bound_to 10713
  154.3699  135.6097  153.5734 H   0  0  0  0  0  0  0  0  0  0  0  0  # atno 10763 bound_to 10752
  152.9790  135.5835  154.4534 H   0  0  0  0  0  0  0  0  0  0  0  0  # atno 10764 bound_to 10752
  154.4286  135.2847  155.1905 H   0  0  0  0  0  0  0  0  0  0  0  0  # atno 10765 bound_to 10752
  140.1568  134.4392  155.8344 H   0  0  0  0  0  0  0  0  0  0  0  0  # atno 11005 bound_to 11000
  146.3096  139.7701  142.9029 LP  0  0  0  0  0  0  0  0  0  0  0  0  # atno 17320 bound_to 7965
  145.3653  141.0333  143.3262 LP  0  0  0  0  0  0  0  0  0  0  0  0  # atno 17321 bound_to 7965
  139.9223  144.6792  150.8449 LP  0  0  0  0  0  0  0  0  0  0  0  0  # atno 17342 bound_to 10162
  140.7685  143.3366  151.2295 LP  0  0  0  0  0  0  0  0  0  0  0  0  # atno 17343 bound_to 10162
  156.4902  130.4093  149.6411 LP  0  0  0  0  0  0  0  0  0  0  0  0  # atno 17370 bound_to 10713
  156.3424  130.7389  151.2336 LP  0  0  0  0  0  0  0  0  0  0  0  0  # atno 17371 bound_to 10713
  141.2205  133.6896  156.7521 LP  0  0  0  0  0  0  0  0  0  0  0  0  # atno 17394 bound_to 11000
  140.2538  134.8520  157.3693 LP  0  0  0  0  0  0  0  0  0  0  0  0  # atno 17395 bound_to 11000

$$$$
