AV-unprocessed.smi:34|AV-procd|sdf|219|dock9
  -GOLD-   2262015533D 1   1.00000     0.00000
 Structure written by MMmdl.
 55 59  0  0  0  0  0  0  0  0  1 V2000
  152.1589  140.0665  158.5079 O   0  0  0  0  0  0  0  0  0  0  0  0
  151.6805  141.0891  158.0161 C   0  0  0  0  0  0  0  0  0  0  0  0
  150.8758  141.0619  156.8071 N   0  0  0  0  0  0  0  0  0  0  0  0
  150.6046  140.0027  156.0087 C   0  0  0  0  0  0  0  0  0  0  0  0
  150.5703  140.1017  154.6534 N   0  0  0  0  0  0  0  0  0  0  0  0
  150.2911  139.0298  153.9057 C   0  0  0  0  0  0  0  0  0  0  0  0
  150.0195  137.7843  154.3019 N   0  0  0  0  0  0  0  0  0  0  0  0
  150.0513  137.6787  155.6615 C   0  0  0  0  0  0  0  0  0  0  0  0
  150.3294  138.7312  156.5765 C   0  0  0  0  0  0  0  0  0  0  0  0
  150.2620  138.2497  157.8774 N   0  0  0  0  0  0  0  0  0  0  0  0
  149.9610  136.9863  157.7335 C   0  0  0  0  0  0  0  0  0  0  0  0
  149.8308  136.5560  156.4288 N   0  0  0  0  0  0  0  0  0  0  0  0
  149.4853  135.1984  155.8975 C   0  0  2  0  0  0  0  0  0  0  0  0
  149.3396  134.3238  156.9769 O   0  0  0  0  0  0  0  0  0  0  0  0
  150.5703  133.6474  157.1925 C   0  0  1  0  0  0  0  0  0  0  0  0
  150.3452  132.3849  158.0319 C   0  0  0  0  0  0  0  0  0  0  0  0
  149.9284  132.7564  159.3356 O   0  0  0  0  0  0  0  0  0  0  0  0
  149.2468  131.8830  160.1013 C   0  0  0  0  0  0  0  0  0  0  0  0
  149.3414  130.6590  159.9891 O   0  0  0  0  0  0  0  0  0  0  0  0
  148.3621  132.5528  161.0980 C   0  0  0  0  0  0  0  0  0  0  0  0
  148.6919  133.8495  161.5566 C   0  0  0  0  0  0  0  0  0  0  0  0
  147.8768  134.5061  162.4990 C   0  0  0  0  0  0  0  0  0  0  0  0
  146.7213  133.8744  162.9941 C   0  0  0  0  0  0  0  0  0  0  0  0
  146.3812  132.5853  162.5445 C   0  0  0  0  0  0  0  0  0  0  0  0
  147.1954  131.9267  161.6023 C   0  0  0  0  0  0  0  0  0  0  0  0
  151.0418  133.3838  155.7656 C   0  0  2  0  0  0  0  0  0  0  0  0
  152.3576  133.1747  155.7073 F   0  0  0  0  0  0  0  0  0  0  0  0
  150.6452  134.6593  155.0353 C   0  0  1  0  0  0  0  0  0  0  0  0
  150.2437  134.3692  153.7124 O   0  0  0  0  0  0  0  0  0  0  0  0
  151.8219  142.4254  158.6851 C   0  0  0  0  0  0  0  0  0  0  0  0
  152.5262  142.5333  159.9052 C   0  0  0  0  0  0  0  0  0  0  0  0
  152.6814  143.7856  160.5309 C   0  0  0  0  0  0  0  0  0  0  0  0
  152.1399  144.9418  159.9382 C   0  0  0  0  0  0  0  0  0  0  0  0
  151.4465  144.8454  158.7171 C   0  0  0  0  0  0  0  0  0  0  0  0
  151.2908  143.5935  158.0901 C   0  0  0  0  0  0  0  0  0  0  0  0
  150.4794  141.9450  156.5203 H   0  0  0  0  0  0  0  0  0  0  0  0
  150.2850  139.1946  152.8383 H   0  0  0  0  0  0  0  0  0  0  0  0
  149.8274  136.3357  158.5854 H   0  0  0  0  0  0  0  0  0  0  0  0
  148.5429  135.3419  155.3673 H   0  0  0  0  0  0  0  0  0  0  0  0
  151.2596  134.3233  157.7019 H   0  0  0  0  0  0  0  0  0  0  0  0
  149.5730  131.7681  157.5700 H   0  0  0  0  0  0  0  0  0  0  0  0
  151.2571  131.7882  158.0795 H   0  0  0  0  0  0  0  0  0  0  0  0
  149.5742  134.3550  161.1912 H   0  0  0  0  0  0  0  0  0  0  0  0
  148.1388  135.4963  162.8417 H   0  0  0  0  0  0  0  0  0  0  0  0
  146.0967  134.3777  163.7172 H   0  0  0  0  0  0  0  0  0  0  0  0
  145.4939  132.0998  162.9228 H   0  0  0  0  0  0  0  0  0  0  0  0
  146.9050  130.9381  161.2778 H   0  0  0  0  0  0  0  0  0  0  0  0
  150.5365  132.5106  155.3491 H   0  0  0  0  0  0  0  0  0  0  0  0
  151.4720  135.3715  155.0263 H   0  0  0  0  0  0  0  0  0  0  0  0
  149.8700  135.1518  153.3358 H   0  0  0  0  0  0  0  0  0  0  0  0
  152.9494  141.6554  160.3723 H   0  0  0  0  0  0  0  0  0  0  0  0
  153.2180  143.8587  161.4654 H   0  0  0  0  0  0  0  0  0  0  0  0
  152.2601  145.9021  160.4176 H   0  0  0  0  0  0  0  0  0  0  0  0
  151.0364  145.7333  158.2586 H   0  0  0  0  0  0  0  0  0  0  0  0
  150.7643  143.5439  157.1480 H   0  0  0  0  0  0  0  0  0  0  0  0
  1  2  2  0  0  0  0
  2  3  1  0  0  0  0
  2 30  1  0  0  0  0
  3  4  1  0  0  0  0
  3 36  1  0  0  0  0
  4  9  1  0  0  0  0
  4  5  2  0  0  0  0
  5  6  1  0  0  0  0
  6  7  2  0  0  0  0
  6 37  1  0  0  0  0
  7  8  1  0  0  0  0
  8 12  1  0  0  0  0
  8  9  2  0  0  0  0
  9 10  1  0  0  0  0
 10 11  2  0  0  0  0
 11 12  1  0  0  0  0
 11 38  1  0  0  0  0
 12 13  1  0  0  0  0
 13 28  1  0  0  0  0
 13 14  1  0  0  0  0
 13 39  1  0  0  0  0
 14 15  1  0  0  0  0
 15 16  1  0  0  0  0
 15 26  1  0  0  0  0
 15 40  1  0  0  0  0
 16 17  1  0  0  0  0
 16 41  1  0  0  0  0
 16 42  1  0  0  0  0
 17 18  1  0  0  0  0
 18 19  2  0  0  0  0
 18 20  1  0  0  0  0
 20 25  1  0  0  0  0
 20 21  2  0  0  0  0
 21 22  1  0  0  0  0
 21 43  1  0  0  0  0
 22 23  2  0  0  0  0
 22 44  1  0  0  0  0
 23 24  1  0  0  0  0
 23 45  1  0  0  0  0
 24 25  2  0  0  0  0
 24 46  1  0  0  0  0
 25 47  1  0  0  0  0
 26 27  1  0  0  0  0
 26 28  1  0  0  0  0
 26 48  1  0  0  0  0
 28 29  1  0  0  0  0
 28 49  1  0  0  0  0
 29 50  1  0  0  0  0
 30 35  1  0  0  0  0
 30 31  2  0  0  0  0
 31 32  1  0  0  0  0
 31 51  1  0  0  0  0
 32 33  2  0  0  0  0
 32 52  1  0  0  0  0
 33 34  1  0  0  0  0
 33 53  1  0  0  0  0
 34 35  2  0  0  0  0
 34 54  1  0  0  0  0
 35 55  1  0  0  0  0
M  END
> <s_m_source_file>
AV-unprocessed.smi

> <i_m_source_file_index>
34

> <i_lp_mmshare_version>
43012

> <i_f3d_flags>
0

> <s_epik_input>
W2NIXTFbY0hdW2NIXVtjSF1bY0hdYzFDKD1PKVtOSF1jKG5bY0hdbjIpYyhjMjMpbltjSF1uM1tDQEBIXTRPW0NASF0oW0NAQEhdKEYpW0NASF00W09IXSlbQ0gyXU9DKD1PKWM1W2NIXVtjSF1bY0hdW2NIXVtjSF01

> <s_epik_cmdline>
J2VwaWtfcHl0aG9uJywgJy1waCcsICc3LjAnLCAnLXRuJywgJzgnLCAnLW1hJywgJzIwMCcsICctbWV0YWxfYmluZGluZycsICctaW1hZScsICc8aW5maWxlLm1hZT4nLCAnLW9tYWUnLCAnPG91dGZpbGUubWFlPic=

> <r_lp_tautomer_probability>
1

> <r_epik_Ionization_Penalty>
0.00257489

> <r_epik_Ionization_Penalty_Charging>
0

> <r_epik_Ionization_Penalty_Neutral>
0.00257489

> <r_epik_State_Penalty>
0.00519398

> <r_epik_Charging_Adjusted_Penalty>
0.00519398

> <i_epik_Tot_Q>
0

> <i_epik_Tot_abs_Q>
0

> <r_epik_Metal_State_Penalty>
0.335891

> <b_epik_Metal_Only>
0

> <s_epik_Chemistry_Notes>
This compound has an ester and may undergo hydrolysis at high or low pH. This compound contains an acetal/aminal-like group ( X-CH(R)-Y where X, Y are N, S, or O) that may be acid/base labile, releasing an aldehyde.

> <s_lp_Force_Field>
OPLS_2005

> <r_lp_Energy>
42.7442

> <b_lp_Chiralities_Consistent>
1

> <s_lp_Variant>
AV-unprocessed.smi:34-5

> <Gold.Version>
5.8.1

> <Gold.Id.Protein>
6NUR|6NUR_protein|mol2

> <Gold.PLP.Fitness>
58.1405

> <Gold.PLP.PLP>
-51.0706

> <Gold.PLP.part.hbond>
-2.3151

> <Gold.PLP.part.metal>
0.0000

> <Gold.PLP.part.buried>
-6.0696

> <Gold.PLP.part.nonpolar>
-43.6485

> <Gold.PLP.part.repulsive>
0.9196

> <Gold.PLP.ligand.clash>
0.0000

> <Gold.PLP.ligand.torsion>
1.1120

> <Gold.PLP.Chemscore.Hbond>
2.0000

> <Gold.PLP.Chemscore.CHOScore>
1.0000

> <Gold.PLP.Chemscore.Metal>
0.0000

> <Gold.Chemscore.Hbonds>
donor molecule, donor type, donor heavy atom, donor atom, acceptor molecule, acceptor atom, score
      L1  H    29    50       P1  7948  0.10
      P1  H  7989  7998       L1     5  0.80
      L1  C     6    37       P1  7957  0.88

> <Gold.PLP.Chemscore.Internal.Correction>
0.2939

> <Gold.Rescore>
     Score         DG    S(hbond)    S(metal)    S(lipo)     H(rot)  DE(clash)    DE(int)     intcor
     12.51     -18.21       1.17        0.00     134.89       2.72       2.60       3.10       ----

> <Gold.Chemscore.Fitness>
12.5081

> <Gold.Chemscore.DG>
-18.2083

> <Gold.Chemscore.ZeroCoef>
-5.4800

> <Gold.Chemscore.Hbond>
1.1717

> <Gold.Chemscore.Metal>
0.0000

> <Gold.Chemscore.Lipo>
134.8869

> <Gold.Chemscore.Internal_Hbond>
0.0000

> <Gold.Chemscore.DEClash>
2.6036

> <Gold.Chemscore.DEInternal>
3.0965

> <Gold.Chemscore.Rot>
2.7215

> <Gold.Chemscore.Internal.Correction>
   9.000000E+99

> <Gold.Chemscore.Hbonds>
donor molecule, donor type, donor heavy atom, donor atom, acceptor molecule, acceptor atom, score
      P1  H  7989  7998       L1     5  0.12

> <Gold.Chemscore.Hbond.Weighted>
-3.9135

> <Gold.Chemscore.Metal.Weighted>
-0.0000

> <Gold.Chemscore.Lipo.Weighted>
-15.7818

> <Gold.Chemscore.Internal_Hbond.Weighted>
0.0000

> <Gold.Chemscore.DEClash.Weighted>
2.6036

> <Gold.Chemscore.DEInternal.Weighted>
3.0965

> <Gold.Chemscore.Rot.Weighted>
6.9670

> <Gold.Chemscore.Internal.Correction.Weighted>
   9.000000E+99

> <Gold.Protein.RotatedTorsions>
[ 6907 6896 6895 6894 ] final  125.24 input  -60.11 | X-H torsion
[ 7974 7965 7964 7962 ] final -122.95 input  175.53 | X-H torsion
[ 8008 7997 7996 7995 ] final  131.02 input   59.86 | X-H torsion
[ 10167 10162 10161 10158 ] final   60.50 input  -65.29 | X-H torsion
[ 10718 10713 10712 10709 ] final   52.28 input   66.30 | X-H torsion
[ 10763 10752 10751 10750 ] final   73.19 input  -60.55 | X-H torsion
[ 11005 11000 10999 10996 ] final   51.82 input  -57.11 | X-H torsion

> <Gold.Protein.ActiveResidues>
 VAL166  LYS551  ARG553  GLY616  TRP617  ASP618  TYR619  PRO620  LYS621  CYS622 
 ASP623  PHE694  ASN695  SER759  ASP760  ASP761  ALA762  ILE779  LEU786  VAL792 
 PHE793  MET794  SER795  GLU796  ALA797  LYS798  CYS799  TRP800  GLU811  SER814 

> <Gold.Protein.RotatedAtoms>
  152.4009  133.6816  159.6314 H   0  0  0  0  0  0  0  0  0  0  0  0  # atno 6907 bound_to 6896
  150.7900  133.8793  159.3290 H   0  0  0  0  0  0  0  0  0  0  0  0  # atno 6908 bound_to 6896
  151.6559  135.0997  160.0221 H   0  0  0  0  0  0  0  0  0  0  0  0  # atno 6909 bound_to 6896
  145.0240  140.8012  143.4364 H   0  0  0  0  0  0  0  0  0  0  0  0  # atno 7974 bound_to 7965
  156.2964  140.2581  156.2857 H   0  0  0  0  0  0  0  0  0  0  0  0  # atno 8008 bound_to 7997
  154.9559  140.0393  157.2185 H   0  0  0  0  0  0  0  0  0  0  0  0  # atno 8009 bound_to 7997
  154.7992  140.2825  155.5938 H   0  0  0  0  0  0  0  0  0  0  0  0  # atno 8010 bound_to 7997
  140.1650  144.4333  150.6690 H   0  0  0  0  0  0  0  0  0  0  0  0  # atno 10167 bound_to 10162
  157.5060  130.8469  149.8375 H   0  0  0  0  0  0  0  0  0  0  0  0  # atno 10718 bound_to 10713
  153.0505  135.5072  154.7856 H   0  0  0  0  0  0  0  0  0  0  0  0  # atno 10763 bound_to 10752
  154.6722  135.2955  154.9729 H   0  0  0  0  0  0  0  0  0  0  0  0  # atno 10764 bound_to 10752
  154.0544  135.6699  153.4857 H   0  0  0  0  0  0  0  0  0  0  0  0  # atno 10765 bound_to 10752
  140.0900  134.5222  155.8861 H   0  0  0  0  0  0  0  0  0  0  0  0  # atno 11005 bound_to 11000
  145.1858  139.2327  143.5268 LP  0  0  0  0  0  0  0  0  0  0  0  0  # atno 17320 bound_to 7965
  146.3489  140.1643  142.8590 LP  0  0  0  0  0  0  0  0  0  0  0  0  # atno 17321 bound_to 7965
  140.6619  143.2255  151.5836 LP  0  0  0  0  0  0  0  0  0  0  0  0  # atno 17342 bound_to 10162
  139.5364  144.2770  152.1260 LP  0  0  0  0  0  0  0  0  0  0  0  0  # atno 17343 bound_to 10162
  156.0258  130.3780  150.1826 LP  0  0  0  0  0  0  0  0  0  0  0  0  # atno 17370 bound_to 10713
  157.0016  130.9924  151.3389 LP  0  0  0  0  0  0  0  0  0  0  0  0  # atno 17371 bound_to 10713
  141.2075  133.6664  156.6309 LP  0  0  0  0  0  0  0  0  0  0  0  0  # atno 17394 bound_to 11000
  140.3365  134.7885  157.4366 LP  0  0  0  0  0  0  0  0  0  0  0  0  # atno 17395 bound_to 11000

$$$$
