AV-unprocessed.smi:844|AV-procd|sdf|3924|dock4
  -GOLD-   22720 1383D 1   1.00000     0.00000
 Structure written by MMmdl.
 32 34  0  0  0  0  0  0  0  0  1 V2000
  151.8083  139.9506  158.8658 O   0  0  0  0  0  0  0  0  0  0  0  0
  152.1453  141.3132  158.6996 C   0  0  1  0  0  0  0  0  0  0  0  0
  150.9823  142.0084  157.9640 C   0  0  0  0  0  0  0  0  0  0  0  0
  150.6625  141.3596  156.7049 N   0  0  0  0  0  0  0  0  0  0  0  0
  151.4912  140.6234  155.9399 C   0  0  0  0  0  0  0  0  0  0  0  0
  150.9975  140.1271  154.8089 N   0  0  0  0  0  0  0  0  0  0  0  0
  149.6956  140.5964  154.8431 C   0  0  0  0  0  0  0  0  0  0  0  0
  148.6355  140.4280  153.9238 C   0  0  0  0  0  0  0  0  0  0  0  0
  147.3758  141.0126  154.1709 C   0  0  0  0  0  0  0  0  0  0  0  0
  147.1560  141.7717  155.3387 C   0  0  0  0  0  0  0  0  0  0  0  0
  148.1963  141.9517  156.2701 C   0  0  0  0  0  0  0  0  0  0  0  0
  149.4525  141.3685  156.0191 C   0  0  0  0  0  0  0  0  0  0  0  0
  152.4815  141.9909  160.0240 C   0  0  0  0  0  0  0  0  0  0  0  0
  151.9083  143.2406  160.3503 C   0  0  0  0  0  0  0  0  0  0  0  0
  152.2362  143.8809  161.5607 C   0  0  0  0  0  0  0  0  0  0  0  0
  153.1409  143.2774  162.4539 C   0  0  0  0  0  0  0  0  0  0  0  0
  153.4575  143.8940  163.6171 F   0  0  0  0  0  0  0  0  0  0  0  0
  153.7178  142.0335  162.1355 C   0  0  0  0  0  0  0  0  0  0  0  0
  153.3918  141.3912  160.9250 C   0  0  0  0  0  0  0  0  0  0  0  0
  153.9675  140.2010  160.6292 F   0  0  0  0  0  0  0  0  0  0  0  0
  150.9847  139.9001  159.3265 H   0  0  0  0  0  0  0  0  0  0  0  0
  153.0271  141.3277  158.0580 H   0  0  0  0  0  0  0  0  0  0  0  0
  150.0844  141.9937  158.5836 H   0  0  0  0  0  0  0  0  0  0  0  0
  151.2117  143.0578  157.7743 H   0  0  0  0  0  0  0  0  0  0  0  0
  152.5172  140.4456  156.2275 H   0  0  0  0  0  0  0  0  0  0  0  0
  148.7926  139.8492  153.0256 H   0  0  0  0  0  0  0  0  0  0  0  0
  146.5738  140.8784  153.4599 H   0  0  0  0  0  0  0  0  0  0  0  0
  146.1882  142.2162  155.5188 H   0  0  0  0  0  0  0  0  0  0  0  0
  148.0324  142.5351  157.1638 H   0  0  0  0  0  0  0  0  0  0  0  0
  151.2199  143.7182  159.6684 H   0  0  0  0  0  0  0  0  0  0  0  0
  151.7954  144.8369  161.8022 H   0  0  0  0  0  0  0  0  0  0  0  0
  154.4147  141.5723  162.8194 H   0  0  0  0  0  0  0  0  0  0  0  0
  1  2  1  0  0  0  0
  1 21  1  0  0  0  0
  2  3  1  0  0  0  0
  2 13  1  0  0  0  0
  2 22  1  0  0  0  0
  3  4  1  0  0  0  0
  3 23  1  0  0  0  0
  3 24  1  0  0  0  0
  4 12  1  0  0  0  0
  4  5  1  0  0  0  0
  5  6  2  0  0  0  0
  5 25  1  0  0  0  0
  6  7  1  0  0  0  0
  7 12  2  0  0  0  0
  7  8  1  0  0  0  0
  8  9  2  0  0  0  0
  8 26  1  0  0  0  0
  9 10  1  0  0  0  0
  9 27  1  0  0  0  0
 10 11  2  0  0  0  0
 10 28  1  0  0  0  0
 11 12  1  0  0  0  0
 11 29  1  0  0  0  0
 13 19  1  0  0  0  0
 13 14  2  0  0  0  0
 14 15  1  0  0  0  0
 14 30  1  0  0  0  0
 15 16  2  0  0  0  0
 15 31  1  0  0  0  0
 16 17  1  0  0  0  0
 16 18  1  0  0  0  0
 18 19  2  0  0  0  0
 18 32  1  0  0  0  0
 19 20  1  0  0  0  0
M  END
> <s_m_source_file>
AV-unprocessed.smi

> <i_m_source_file_index>
844

> <i_lp_mmshare_version>
43012

> <i_f3d_flags>
0

> <s_epik_input>
RmMxW2NIXWMoRilbY0hdW2NIXWMxW0NASF0oW09IXSlbQ0gyXW4oW2NIXW4yKWMoYzIzKVtjSF1bY0hdW2NIXVtjSF0z

> <s_epik_cmdline>
J2VwaWtfcHl0aG9uJywgJy1waCcsICc3LjAnLCAnLXRuJywgJzgnLCAnLW1hJywgJzIwMCcsICctbWV0YWxfYmluZGluZycsICctaW1hZScsICc8aW5maWxlLm1hZT4nLCAnLW9tYWUnLCAnPG91dGZpbGUubWFlPic=

> <r_epik_Ionization_Penalty>
0.0696514

> <r_epik_Ionization_Penalty_Charging>
0

> <r_epik_Ionization_Penalty_Neutral>
0.0696514

> <r_epik_State_Penalty>
0.0610247

> <r_epik_Charging_Adjusted_Penalty>
0.0610247

> <i_epik_Tot_Q>
0

> <i_epik_Tot_abs_Q>
0

> <r_epik_Metal_State_Penalty>
6.42746e-05

> <b_epik_Metal_Only>
0

> <s_lp_Force_Field>
OPLS_2005

> <r_lp_Energy>
12.0275

> <b_lp_Chiralities_Consistent>
1

> <s_lp_Variant>
AV-unprocessed.smi:844-2

> <Gold.Version>
5.8.1

> <Gold.Id.Protein>
6NUR|6NUR_protein|mol2

> <Gold.PLP.Fitness>
49.3662

> <Gold.PLP.PLP>
-47.4826

> <Gold.PLP.part.hbond>
-1.0000

> <Gold.PLP.part.metal>
0.0000

> <Gold.PLP.part.buried>
-0.6976

> <Gold.PLP.part.nonpolar>
-43.7638

> <Gold.PLP.part.repulsive>
0.0718

> <Gold.PLP.ligand.clash>
0.0000

> <Gold.PLP.ligand.torsion>
0.5673

> <Gold.PLP.Chemscore.Hbond>
1.0000

> <Gold.PLP.Chemscore.CHOScore>
0.0000

> <Gold.PLP.Chemscore.Metal>
0.0000

> <Gold.Chemscore.Hbonds>
donor molecule, donor type, donor heavy atom, donor atom, acceptor molecule, acceptor atom, score
      P1  H  7989  7998       L1     6  1.00

> <Gold.PLP.Chemscore.Internal.Correction>
0.0181

> <Gold.Rescore>
     Score         DG    S(hbond)    S(metal)    S(lipo)     H(rot)  DE(clash)    DE(int)     intcor
     13.42     -16.27       0.90        0.00     110.29       2.00       0.04       2.81       ----

> <Gold.Chemscore.Fitness>
13.4187

> <Gold.Chemscore.DG>
-16.2687

> <Gold.Chemscore.ZeroCoef>
-5.4800

> <Gold.Chemscore.Hbond>
0.9027

> <Gold.Chemscore.Metal>
0.0000

> <Gold.Chemscore.Lipo>
110.2903

> <Gold.Chemscore.Internal_Hbond>
0.0000

> <Gold.Chemscore.DEClash>
0.0404

> <Gold.Chemscore.DEInternal>
2.8096

> <Gold.Chemscore.Rot>
2.0040

> <Gold.Chemscore.Internal.Correction>
   9.000000E+99

> <Gold.Chemscore.Hbonds>
donor molecule, donor type, donor heavy atom, donor atom, acceptor molecule, acceptor atom, score
      P1  H  7989  7998       L1     6  0.31

> <Gold.Chemscore.Hbond.Weighted>
-3.0150

> <Gold.Chemscore.Metal.Weighted>
-0.0000

> <Gold.Chemscore.Lipo.Weighted>
-12.9040

> <Gold.Chemscore.Internal_Hbond.Weighted>
0.0000

> <Gold.Chemscore.DEClash.Weighted>
0.0404

> <Gold.Chemscore.DEInternal.Weighted>
2.8096

> <Gold.Chemscore.Rot.Weighted>
5.1303

> <Gold.Chemscore.Internal.Correction.Weighted>
   9.000000E+99

> <Gold.Protein.RotatedTorsions>
[ 6907 6896 6895 6894 ] final -172.84 input  -60.11 | X-H torsion
[ 7974 7965 7964 7962 ] final  151.68 input  175.53 | X-H torsion
[ 8008 7997 7996 7995 ] final -175.09 input   59.86 | X-H torsion
[ 10167 10162 10161 10158 ] final  -54.18 input  -65.29 | X-H torsion
[ 10718 10713 10712 10709 ] final  102.23 input   66.30 | X-H torsion
[ 10763 10752 10751 10750 ] final -131.73 input  -60.55 | X-H torsion
[ 11005 11000 10999 10996 ] final  -33.76 input  -57.11 | X-H torsion

> <Gold.Protein.ActiveResidues>
 VAL166  LYS551  ARG553  GLY616  TRP617  ASP618  TYR619  PRO620  LYS621  CYS622 
 ASP623  PHE694  ASN695  SER759  ASP760  ASP761  ALA762  ILE779  LEU786  VAL792 
 PHE793  MET794  SER795  GLU796  ALA797  LYS798  CYS799  TRP800  GLU811  SER814 

> <Gold.Protein.RotatedAtoms>
  151.5465  133.3424  159.2944 H   0  0  0  0  0  0  0  0  0  0  0  0  # atno 6907 bound_to 6896
  150.8504  134.7830  159.7015 H   0  0  0  0  0  0  0  0  0  0  0  0  # atno 6908 bound_to 6896
  152.4552  134.5316  159.9864 H   0  0  0  0  0  0  0  0  0  0  0  0  # atno 6909 bound_to 6896
  144.8275  139.6569  143.6073 H   0  0  0  0  0  0  0  0  0  0  0  0  # atno 7974 bound_to 7965
  155.9783  140.1176  157.0750 H   0  0  0  0  0  0  0  0  0  0  0  0  # atno 8008 bound_to 7997
  154.4175  140.1149  156.5468 H   0  0  0  0  0  0  0  0  0  0  0  0  # atno 8009 bound_to 7997
  155.6505  140.3473  155.4749 H   0  0  0  0  0  0  0  0  0  0  0  0  # atno 8010 bound_to 7997
  140.6444  143.2527  151.4899 H   0  0  0  0  0  0  0  0  0  0  0  0  # atno 10167 bound_to 10162
  157.6808  131.0747  150.5372 H   0  0  0  0  0  0  0  0  0  0  0  0  # atno 10718 bound_to 10713
  154.8749  135.3821  154.4294 H   0  0  0  0  0  0  0  0  0  0  0  0  # atno 10763 bound_to 10752
  153.4989  135.7030  153.5848 H   0  0  0  0  0  0  0  0  0  0  0  0  # atno 10764 bound_to 10752
  153.4188  135.3906  155.2064 H   0  0  0  0  0  0  0  0  0  0  0  0  # atno 10765 bound_to 10752
  140.9661  133.7136  156.1447 H   0  0  0  0  0  0  0  0  0  0  0  0  # atno 11005 bound_to 11000
  146.2580  139.6346  142.9381 LP  0  0  0  0  0  0  0  0  0  0  0  0  # atno 17320 bound_to 7965
  145.4967  141.0438  143.2563 LP  0  0  0  0  0  0  0  0  0  0  0  0  # atno 17321 bound_to 7965
  139.5654  144.2054  152.1757 LP  0  0  0  0  0  0  0  0  0  0  0  0  # atno 17342 bound_to 10162
  140.1334  144.5267  150.6788 LP  0  0  0  0  0  0  0  0  0  0  0  0  # atno 17343 bound_to 10162
  156.5680  130.4272  149.6032 LP  0  0  0  0  0  0  0  0  0  0  0  0  # atno 17370 bound_to 10713
  156.2764  130.7046  151.1858 LP  0  0  0  0  0  0  0  0  0  0  0  0  # atno 17371 bound_to 10713
  140.7398  134.4163  157.5556 LP  0  0  0  0  0  0  0  0  0  0  0  0  # atno 17394 bound_to 11000
  139.8895  134.8829  156.2418 LP  0  0  0  0  0  0  0  0  0  0  0  0  # atno 17395 bound_to 11000

$$$$
