AV-unprocessed.smi:2528|AV-procd|sdf|9958|dock6
  -GOLD-   2272013593D 1   1.00000     0.00000
 Structure written by MMmdl.
 43 45  0  0  0  0  0  0  0  0  1 V2000
  144.4988  136.7604  152.6412 O   0  0  0  0  0  0  0  0  0  0  0  0
  145.7054  136.5621  152.4953 C   0  0  0  0  0  0  0  0  0  0  0  0
  146.6495  137.4167  152.9143 N   0  0  0  0  0  0  0  0  0  0  0  0
  146.3911  138.6758  153.6043 C   0  0  0  0  0  0  0  0  0  0  0  0
  147.2149  139.8352  153.0028 C   0  0  2  0  0  0  0  0  0  0  0  0
  148.7337  139.6613  153.1941 C   0  0  0  0  0  0  0  0  0  0  0  0
  149.1600  139.8844  154.5705 N   0  0  0  0  0  0  0  0  0  0  0  0
  150.6088  139.7363  154.7017 C   0  0  0  0  0  0  0  0  0  0  0  0
  151.0917  139.9336  156.1470 C   0  0  0  0  0  0  0  0  0  0  0  0
  150.6509  141.3074  156.6710 C   0  0  0  0  0  0  0  0  0  0  0  0
  149.1356  141.4783  156.4857 C   0  0  0  0  0  0  0  0  0  0  0  0
  148.7216  141.2074  155.0237 C   0  0  2  0  0  0  0  0  0  0  0  0
  147.1977  141.3708  154.8582 C   0  0  0  0  0  0  0  0  0  0  0  0
  146.8103  141.1079  153.5121 O   0  0  0  0  0  0  0  0  0  0  0  0
  146.2519  135.4815  151.9106 N   0  0  0  0  0  0  0  0  0  0  0  0
  145.5886  134.3654  151.3338 C   0  0  0  0  0  0  0  0  0  0  0  0
  146.4407  133.3768  150.7912 C   0  0  0  0  0  0  0  0  0  0  0  0
  145.8805  132.2302  150.1950 C   0  0  0  0  0  0  0  0  0  0  0  0
  144.4807  132.1018  150.1555 C   0  0  0  0  0  0  0  0  0  0  0  0
  143.7045  133.1315  150.7182 C   0  0  0  0  0  0  0  0  0  0  0  0
  144.2392  134.2309  151.2902 N   0  0  0  0  0  0  0  0  0  0  0  0
  147.6168  137.1750  152.7578 H   0  0  0  0  0  0  0  0  0  0  0  0
  145.3231  138.8838  153.5494 H   0  0  0  0  0  0  0  0  0  0  0  0
  146.6186  138.5671  154.6662 H   0  0  0  0  0  0  0  0  0  0  0  0
  147.0221  139.8560  151.9296 H   0  0  0  0  0  0  0  0  0  0  0  0
  149.0317  138.6640  152.8683 H   0  0  0  0  0  0  0  0  0  0  0  0
  149.2502  140.3639  152.5381 H   0  0  0  0  0  0  0  0  0  0  0  0
  150.9076  138.7449  154.3593 H   0  0  0  0  0  0  0  0  0  0  0  0
  151.1143  140.4520  154.0515 H   0  0  0  0  0  0  0  0  0  0  0  0
  150.6805  139.1473  156.7814 H   0  0  0  0  0  0  0  0  0  0  0  0
  152.1769  139.8416  156.1974 H   0  0  0  0  0  0  0  0  0  0  0  0
  150.9203  141.4183  157.7216 H   0  0  0  0  0  0  0  0  0  0  0  0
  151.1772  142.0926  156.1270 H   0  0  0  0  0  0  0  0  0  0  0  0
  148.6098  140.7922  157.1513 H   0  0  0  0  0  0  0  0  0  0  0  0
  148.8402  142.4852  156.7819 H   0  0  0  0  0  0  0  0  0  0  0  0
  149.2017  141.9620  154.3980 H   0  0  0  0  0  0  0  0  0  0  0  0
  146.6577  140.7130  155.5395 H   0  0  0  0  0  0  0  0  0  0  0  0
  146.8981  142.3888  155.1082 H   0  0  0  0  0  0  0  0  0  0  0  0
  147.2599  135.4550  151.8727 H   0  0  0  0  0  0  0  0  0  0  0  0
  147.5144  133.4916  150.8299 H   0  0  0  0  0  0  0  0  0  0  0  0
  146.5146  131.4633  149.7753 H   0  0  0  0  0  0  0  0  0  0  0  0
  144.0137  131.2378  149.7061 H   0  0  0  0  0  0  0  0  0  0  0  0
  142.6262  133.0720  150.7088 H   0  0  0  0  0  0  0  0  0  0  0  0
  1  2  2  0  0  0  0
  2  3  1  0  0  0  0
  2 15  1  0  0  0  0
  3  4  1  0  0  0  0
  3 22  1  0  0  0  0
  4  5  1  0  0  0  0
  4 23  1  0  0  0  0
  4 24  1  0  0  0  0
  5 14  1  0  0  0  0
  5  6  1  0  0  0  0
  5 25  1  0  0  0  0
  6  7  1  0  0  0  0
  6 26  1  0  0  0  0
  6 27  1  0  0  0  0
  7 12  1  0  0  0  0
  7  8  1  0  0  0  0
  8  9  1  0  0  0  0
  8 28  1  0  0  0  0
  8 29  1  0  0  0  0
  9 10  1  0  0  0  0
  9 30  1  0  0  0  0
  9 31  1  0  0  0  0
 10 11  1  0  0  0  0
 10 32  1  0  0  0  0
 10 33  1  0  0  0  0
 11 12  1  0  0  0  0
 11 34  1  0  0  0  0
 11 35  1  0  0  0  0
 12 13  1  0  0  0  0
 12 36  1  0  0  0  0
 13 14  1  0  0  0  0
 13 37  1  0  0  0  0
 13 38  1  0  0  0  0
 15 16  1  0  0  0  0
 15 39  1  0  0  0  0
 16 21  1  0  0  0  0
 16 17  2  0  0  0  0
 17 18  1  0  0  0  0
 17 40  1  0  0  0  0
 18 19  2  0  0  0  0
 18 41  1  0  0  0  0
 19 20  1  0  0  0  0
 19 42  1  0  0  0  0
 20 21  2  0  0  0  0
 20 43  1  0  0  0  0
M  END
> <s_m_source_file>
AV-unprocessed.smi

> <i_m_source_file_index>
2528

> <i_lp_mmshare_version>
43012

> <i_f3d_flags>
0

> <s_epik_input>
bjFbY0hdW2NIXVtjSF1bY0hdYzFbTkhdQyg9TylbTkhdW0NIMl1bQ0BIXShbQ0gyXTIpT1tDSDJdW0NAQEhdKE4yMylbQ0gyXVtDSDJdW0NIMl1bQ0gyXTM=

> <s_epik_cmdline>
J2VwaWtfcHl0aG9uJywgJy1waCcsICc3LjAnLCAnLXRuJywgJzgnLCAnLW1hJywgJzIwMCcsICctbWV0YWxfYmluZGluZycsICctaW1hZScsICc8aW5maWxlLm1hZT4nLCAnLW9tYWUnLCAnPG91dGZpbGUubWFlPic=

> <r_epik_Ionization_Penalty>
1.14192

> <r_epik_Ionization_Penalty_Charging>
0

> <r_epik_Ionization_Penalty_Neutral>
1.14192

> <r_epik_State_Penalty>
1.20248

> <r_epik_Charging_Adjusted_Penalty>
1.20248

> <i_epik_Tot_Q>
0

> <i_epik_Tot_abs_Q>
0

> <r_epik_Metal_State_Penalty>
1.20248

> <b_epik_Metal_Only>
0

> <s_lp_Force_Field>
OPLS_2005

> <r_lp_Energy>
38.2617

> <b_lp_Chiralities_Consistent>
1

> <s_lp_Variant>
AV-unprocessed.smi:2528-11

> <Gold.Version>
5.8.1

> <Gold.Id.Protein>
6NUR|6NUR_protein|mol2

> <Gold.PLP.Fitness>
40.2333

> <Gold.PLP.PLP>
-31.4386

> <Gold.PLP.part.hbond>
-2.0000

> <Gold.PLP.part.metal>
0.0000

> <Gold.PLP.part.buried>
2.1474

> <Gold.PLP.part.nonpolar>
-32.7842

> <Gold.PLP.part.repulsive>
0.6812

> <Gold.PLP.ligand.clash>
0.0000

> <Gold.PLP.ligand.torsion>
0.1059

> <Gold.PLP.Chemscore.Hbond>
2.0000

> <Gold.PLP.Chemscore.CHOScore>
1.0000

> <Gold.PLP.Chemscore.Metal>
0.0000

> <Gold.Chemscore.Hbonds>
donor molecule, donor type, donor heavy atom, donor atom, acceptor molecule, acceptor atom, score
      L1  H     3    22       P1  7948  1.00
      L1  H    15    39       P1  7948  1.00
      L1  C    20    43       P1 10186  1.00

> <Gold.PLP.Chemscore.Internal.Correction>
0.0064

> <Gold.Rescore>
     Score         DG    S(hbond)    S(metal)    S(lipo)     H(rot)  DE(clash)    DE(int)     intcor
     16.11     -19.52       1.93        0.00      92.60       1.27       2.02       1.40       ----

> <Gold.Chemscore.Fitness>
16.1085

> <Gold.Chemscore.DG>
-19.5250

> <Gold.Chemscore.ZeroCoef>
-5.4800

> <Gold.Chemscore.Hbond>
1.9343

> <Gold.Chemscore.Metal>
0.0000

> <Gold.Chemscore.Lipo>
92.6048

> <Gold.Chemscore.Internal_Hbond>
0.0000

> <Gold.Chemscore.DEClash>
2.0191

> <Gold.Chemscore.DEInternal>
1.3973

> <Gold.Chemscore.Rot>
1.2696

> <Gold.Chemscore.Internal.Correction>
   9.000000E+99

> <Gold.Chemscore.Hbonds>
donor molecule, donor type, donor heavy atom, donor atom, acceptor molecule, acceptor atom, score
      L1  H     3    22       P1  7948  0.96
      L1  H    15    39       P1  7948  0.98

> <Gold.Chemscore.Hbond.Weighted>
-6.4604

> <Gold.Chemscore.Metal.Weighted>
-0.0000

> <Gold.Chemscore.Lipo.Weighted>
-10.8348

> <Gold.Chemscore.Internal_Hbond.Weighted>
0.0000

> <Gold.Chemscore.DEClash.Weighted>
2.0191

> <Gold.Chemscore.DEInternal.Weighted>
1.3973

> <Gold.Chemscore.Rot.Weighted>
3.2502

> <Gold.Chemscore.Internal.Correction.Weighted>
   9.000000E+99

> <Gold.Protein.RotatedTorsions>
[ 6907 6896 6895 6894 ] final  159.70 input  -60.11 | X-H torsion
[ 7974 7965 7964 7962 ] final  -52.19 input  175.53 | X-H torsion
[ 8008 7997 7996 7995 ] final  -54.13 input   59.86 | X-H torsion
[ 10167 10162 10161 10158 ] final  -77.99 input  -65.29 | X-H torsion
[ 10718 10713 10712 10709 ] final   33.66 input   66.30 | X-H torsion
[ 10763 10752 10751 10750 ] final  126.46 input  -60.55 | X-H torsion
[ 11005 11000 10999 10996 ] final  -85.46 input  -57.11 | X-H torsion

> <Gold.Protein.ActiveResidues>
 VAL166  LYS551  ARG553  GLY616  TRP617  ASP618  TYR619  PRO620  LYS621  CYS622 
 ASP623  PHE694  ASN695  SER759  ASP760  ASP761  ALA762  ILE779  LEU786  VAL792 
 PHE793  MET794  SER795  GLU796  ALA797  LYS798  CYS799  TRP800  GLU811  SER814 

> <Gold.Protein.RotatedAtoms>
  151.9817  133.3760  159.4109 H   0  0  0  0  0  0  0  0  0  0  0  0  # atno 6907 bound_to 6896
  150.6934  134.4032  159.5137 H   0  0  0  0  0  0  0  0  0  0  0  0  # atno 6908 bound_to 6896
  152.1752  134.8801  160.0582 H   0  0  0  0  0  0  0  0  0  0  0  0  # atno 6909 bound_to 6896
  145.9107  140.7917  142.9696 H   0  0  0  0  0  0  0  0  0  0  0  0  # atno 7974 bound_to 7965
  154.4153  140.1183  156.5266 H   0  0  0  0  0  0  0  0  0  0  0  0  # atno 8008 bound_to 7997
  155.6648  140.3496  155.4777 H   0  0  0  0  0  0  0  0  0  0  0  0  # atno 8009 bound_to 7997
  155.9683  140.1136  157.0825 H   0  0  0  0  0  0  0  0  0  0  0  0  # atno 8010 bound_to 7997
  140.4721  143.2424  151.8189 H   0  0  0  0  0  0  0  0  0  0  0  0  # atno 10167 bound_to 10162
  157.3006  130.7349  149.6664 H   0  0  0  0  0  0  0  0  0  0  0  0  # atno 10718 bound_to 10713
  153.6937  135.3294  155.3208 H   0  0  0  0  0  0  0  0  0  0  0  0  # atno 10763 bound_to 10752
  154.8432  135.4438  154.1482 H   0  0  0  0  0  0  0  0  0  0  0  0  # atno 10764 bound_to 10752
  153.2530  135.6983  153.7736 H   0  0  0  0  0  0  0  0  0  0  0  0  # atno 10765 bound_to 10752
  141.1641  133.7400  156.9018 H   0  0  0  0  0  0  0  0  0  0  0  0  # atno 11005 bound_to 11000
  144.6743  140.1822  143.7404 LP  0  0  0  0  0  0  0  0  0  0  0  0  # atno 17320 bound_to 7965
  145.8675  139.2254  143.1681 LP  0  0  0  0  0  0  0  0  0  0  0  0  # atno 17321 bound_to 7965
  139.4820  144.4879  151.9223 LP  0  0  0  0  0  0  0  0  0  0  0  0  # atno 17342 bound_to 10162
  140.3964  144.2550  150.5896 LP  0  0  0  0  0  0  0  0  0  0  0  0  # atno 17343 bound_to 10162
  155.9671  130.4281  150.4773 LP  0  0  0  0  0  0  0  0  0  0  0  0  # atno 17370 bound_to 10713
  157.2754  131.0596  151.2233 LP  0  0  0  0  0  0  0  0  0  0  0  0  # atno 17371 bound_to 10713
  140.1577  134.9187  157.2675 LP  0  0  0  0  0  0  0  0  0  0  0  0  # atno 17394 bound_to 11000
  140.2647  134.3530  155.7394 LP  0  0  0  0  0  0  0  0  0  0  0  0  # atno 17395 bound_to 11000

$$$$
