AV-unprocessed.smi:1842|AV-procd|sdf|7498|dock9
  -GOLD-   22720 9203D 1   1.00000     0.00000
 Structure written by MMmdl.
 39 40  0  0  0  0  0  0  0  0  2 V2000
  145.6985  128.5611  152.4336 O   0  0  0  0  0  0  0  0  0  0  0  0
  146.7874  128.9850  152.0474 C   0  0  0  0  0  0  0  0  0  0  0  0
  148.0004  128.0520  151.9832 C   0  0  0  0  0  0  0  0  0  0  0  0
  147.9079  126.9950  150.8634 C   0  0  0  0  0  0  0  0  0  0  0  0
  149.2363  126.2802  150.5379 C   0  0  0  0  0  0  0  0  0  0  0  0
  149.1052  125.2195  149.4415 C   0  0  0  0  0  0  0  0  0  0  0  0
  150.3192  124.2989  149.6189 C   0  0  0  0  0  0  0  0  0  0  0  0
  150.8260  124.5224  151.0520 C   0  0  0  0  0  0  0  0  0  0  0  0
  149.8404  125.4955  151.7055 C   0  0  0  0  0  0  0  0  0  0  0  0
  146.9919  130.2566  151.6714 N   0  0  0  0  0  0  0  0  0  0  0  0
  145.9727  131.3015  151.6432 C   0  0  0  0  0  0  0  0  0  0  0  0
  146.5238  132.6602  151.1692 C   0  0  0  0  0  0  0  0  0  0  0  0
  145.4622  133.6255  150.8693 N   0  0  0  0  0  0  0  0  0  0  0  0
  145.5471  134.9935  150.9087 C   0  0  0  0  0  0  0  0  0  0  0  0
  144.3116  135.4715  150.5542 C   0  0  0  0  0  0  0  0  0  0  0  0
  143.5262  134.3761  150.3129 N   0  3  0  0  0  0  0  0  0  0  0  0
  144.2283  133.2543  150.5030 C   0  0  0  0  0  0  0  0  0  0  0  0
  148.9151  128.6352  151.8686 H   0  0  0  0  0  0  0  0  0  0  0  0
  148.0829  127.5481  152.9465 H   0  0  0  0  0  0  0  0  0  0  0  0
  147.1604  126.2537  151.1481 H   0  0  0  0  0  0  0  0  0  0  0  0
  147.5234  127.4630  149.9561 H   0  0  0  0  0  0  0  0  0  0  0  0
  149.9718  127.0122  150.2006 H   0  0  0  0  0  0  0  0  0  0  0  0
  148.1917  124.6417  149.5899 H   0  0  0  0  0  0  0  0  0  0  0  0
  149.0575  125.6565  148.4435 H   0  0  0  0  0  0  0  0  0  0  0  0
  150.0495  123.2568  149.4440 H   0  0  0  0  0  0  0  0  0  0  0  0
  151.1016  124.5573  148.9040 H   0  0  0  0  0  0  0  0  0  0  0  0
  150.9030  123.5899  151.6121 H   0  0  0  0  0  0  0  0  0  0  0  0
  151.8213  124.9679  151.0219 H   0  0  0  0  0  0  0  0  0  0  0  0
  150.3240  126.1406  152.4398 H   0  0  0  0  0  0  0  0  0  0  0  0
  149.0597  124.9335  152.2201 H   0  0  0  0  0  0  0  0  0  0  0  0
  147.9180  130.5141  151.3613 H   0  0  0  0  0  0  0  0  0  0  0  0
  145.1673  130.9757  150.9843 H   0  0  0  0  0  0  0  0  0  0  0  0
  145.5323  131.4047  152.6361 H   0  0  0  0  0  0  0  0  0  0  0  0
  147.1526  133.0977  151.9453 H   0  0  0  0  0  0  0  0  0  0  0  0
  147.1530  132.5471  150.2852 H   0  0  0  0  0  0  0  0  0  0  0  0
  146.4559  135.5113  151.1794 H   0  0  0  0  0  0  0  0  0  0  0  0
  143.9425  136.4824  150.4579 H   0  0  0  0  0  0  0  0  0  0  0  0
  143.8685  132.2471  150.3875 H   0  0  0  0  0  0  0  0  0  0  0  0
  142.5547  134.4074  150.0299 H   0  0  0  0  0  0  0  0  0  0  0  0
  1  2  2  0  0  0  0
  2  3  1  0  0  0  0
  2 10  1  0  0  0  0
  3  4  1  0  0  0  0
  3 18  1  0  0  0  0
  3 19  1  0  0  0  0
  4  5  1  0  0  0  0
  4 20  1  0  0  0  0
  4 21  1  0  0  0  0
  5  9  1  0  0  0  0
  5  6  1  0  0  0  0
  5 22  1  0  0  0  0
  6  7  1  0  0  0  0
  6 23  1  0  0  0  0
  6 24  1  0  0  0  0
  7  8  1  0  0  0  0
  7 25  1  0  0  0  0
  7 26  1  0  0  0  0
  8  9  1  0  0  0  0
  8 27  1  0  0  0  0
  8 28  1  0  0  0  0
  9 29  1  0  0  0  0
  9 30  1  0  0  0  0
 10 11  1  0  0  0  0
 10 31  1  0  0  0  0
 11 12  1  0  0  0  0
 11 32  1  0  0  0  0
 11 33  1  0  0  0  0
 12 13  1  0  0  0  0
 12 34  1  0  0  0  0
 12 35  1  0  0  0  0
 13 17  1  0  0  0  0
 13 14  1  0  0  0  0
 14 15  2  0  0  0  0
 14 36  1  0  0  0  0
 15 16  1  0  0  0  0
 15 37  1  0  0  0  0
 16 17  2  0  0  0  0
 16 39  1  0  0  0  0
 17 38  1  0  0  0  0
M  CHG  1  16   1
M  END
> <s_m_source_file>
AV-unprocessed.smi

> <i_m_source_file_index>
1842

> <i_lp_mmshare_version>
43012

> <i_f3d_flags>
0

> <s_epik_input>
W0NIMl0xW0NIMl1bQ0gyXVtDSDJdW0NIXTFbQ0gyXVtDSDJdQyg9TylbTkhdW0NIMl1bQ0gyXW4yW2NIXVtjSF1uW2NIXTI=

> <s_epik_cmdline>
J2VwaWtfcHl0aG9uJywgJy1waCcsICc3LjAnLCAnLXRuJywgJzgnLCAnLW1hJywgJzIwMCcsICctbWV0YWxfYmluZGluZycsICctaW1hZScsICc8aW5maWxlLm1hZT4nLCAnLW9tYWUnLCAnPG91dGZpbGUubWFlPic=

> <r_lp_tautomer_probability>
1

> <r_epik_Ionization_Penalty>
0.269886

> <r_epik_Ionization_Penalty_Charging>
0

> <r_epik_Ionization_Penalty_Neutral>
0.269886

> <r_epik_State_Penalty>
0.261983

> <r_epik_Charging_Adjusted_Penalty>
0.261983

> <i_epik_Tot_Q>
1

> <i_epik_Tot_abs_Q>
1

> <r_epik_Metal_State_Penalty>
0.546964

> <b_epik_Metal_Only>
0

> <s_lp_Force_Field>
OPLS_2005

> <r_lp_Energy>
23.3455

> <b_lp_Chiralities_Consistent>
1

> <s_lp_Variant>
AV-unprocessed.smi:1842-1

> <Gold.Version>
5.8.1

> <Gold.Id.Protein>
6NUR|6NUR_protein|mol2

> <Gold.PLP.Fitness>
46.5759

> <Gold.PLP.PLP>
-35.6322

> <Gold.PLP.part.hbond>
-2.0000

> <Gold.PLP.part.metal>
0.0000

> <Gold.PLP.part.buried>
-4.8999

> <Gold.PLP.part.nonpolar>
-29.6751

> <Gold.PLP.part.repulsive>
0.1665

> <Gold.PLP.ligand.clash>
0.0000

> <Gold.PLP.ligand.torsion>
0.5494

> <Gold.PLP.Chemscore.Hbond>
3.0000

> <Gold.PLP.Chemscore.CHOScore>
1.0000

> <Gold.PLP.Chemscore.Metal>
0.0000

> <Gold.Chemscore.Hbonds>
donor molecule, donor type, donor heavy atom, donor atom, acceptor molecule, acceptor atom, score
      L1  H    10    31       P1 10747  1.00
      L1  H    16    39       P1 10186  2.00
      L1  C    14    36       P1  7948  0.72

> <Gold.PLP.Chemscore.Internal.Correction>
0.0426

> <Gold.Rescore>
     Score         DG    S(hbond)    S(metal)    S(lipo)     H(rot)  DE(clash)    DE(int)     intcor
     14.15     -14.74       1.93        0.00      73.26       2.25       0.01       0.57       ----

> <Gold.Chemscore.Fitness>
14.1529

> <Gold.Chemscore.DG>
-14.7364

> <Gold.Chemscore.ZeroCoef>
-5.4800

> <Gold.Chemscore.Hbond>
1.9285

> <Gold.Chemscore.Metal>
0.0000

> <Gold.Chemscore.Lipo>
73.2602

> <Gold.Chemscore.Internal_Hbond>
0.0000

> <Gold.Chemscore.DEClash>
0.0137

> <Gold.Chemscore.DEInternal>
0.5698

> <Gold.Chemscore.Rot>
2.2485

> <Gold.Chemscore.Internal.Correction>
   9.000000E+99

> <Gold.Chemscore.Hbonds>
donor molecule, donor type, donor heavy atom, donor atom, acceptor molecule, acceptor atom, score
      L1  H    10    31       P1 10747  0.92
      L1  H    16    39       P1 10186  0.84

> <Gold.Chemscore.Hbond.Weighted>
-6.4412

> <Gold.Chemscore.Metal.Weighted>
-0.0000

> <Gold.Chemscore.Lipo.Weighted>
-8.5714

> <Gold.Chemscore.Internal_Hbond.Weighted>
0.0000

> <Gold.Chemscore.DEClash.Weighted>
0.0137

> <Gold.Chemscore.DEInternal.Weighted>
0.5698

> <Gold.Chemscore.Rot.Weighted>
5.7562

> <Gold.Chemscore.Internal.Correction.Weighted>
   9.000000E+99

> <Gold.Protein.RotatedTorsions>
[ 6907 6896 6895 6894 ] final -124.45 input  -60.11 | X-H torsion
[ 7974 7965 7964 7962 ] final -116.24 input  175.53 | X-H torsion
[ 8008 7997 7996 7995 ] final  179.43 input   59.86 | X-H torsion
[ 10167 10162 10161 10158 ] final  167.18 input  -65.29 | X-H torsion
[ 10718 10713 10712 10709 ] final -104.69 input   66.30 | X-H torsion
[ 10763 10752 10751 10750 ] final   72.50 input  -60.55 | X-H torsion
[ 11005 11000 10999 10996 ] final   28.67 input  -57.11 | X-H torsion

> <Gold.Protein.ActiveResidues>
 VAL166  LYS551  ARG553  GLY616  TRP617  ASP618  TYR619  PRO620  LYS621  CYS622 
 ASP623  PHE694  ASN695  SER759  ASP760  ASP761  ALA762  ILE779  LEU786  VAL792 
 PHE793  MET794  SER795  GLU796  ALA797  LYS798  CYS799  TRP800  GLU811  SER814 

> <Gold.Protein.RotatedAtoms>
  150.8769  133.7426  159.2943 H   0  0  0  0  0  0  0  0  0  0  0  0  # atno 6907 bound_to 6896
  151.5020  135.1060  159.9841 H   0  0  0  0  0  0  0  0  0  0  0  0  # atno 6908 bound_to 6896
  152.4733  133.8035  159.7021 H   0  0  0  0  0  0  0  0  0  0  0  0  # atno 6909 bound_to 6896
  145.0990  140.8539  143.3937 H   0  0  0  0  0  0  0  0  0  0  0  0  # atno 7974 bound_to 7965
  156.0434  140.1309  157.0130 H   0  0  0  0  0  0  0  0  0  0  0  0  # atno 8008 bound_to 7997
  154.4401  140.1025  156.6341 H   0  0  0  0  0  0  0  0  0  0  0  0  # atno 8009 bound_to 7997
  155.5632  140.3465  155.4498 H   0  0  0  0  0  0  0  0  0  0  0  0  # atno 8010 bound_to 7997
  139.4940  144.3949  151.9476 H   0  0  0  0  0  0  0  0  0  0  0  0  # atno 10167 bound_to 10162
  156.0315  130.5527  150.7433 H   0  0  0  0  0  0  0  0  0  0  0  0  # atno 10718 bound_to 10713
  153.0462  135.5098  154.7752 H   0  0  0  0  0  0  0  0  0  0  0  0  # atno 10763 bound_to 10752
  154.6650  135.2944  154.9819 H   0  0  0  0  0  0  0  0  0  0  0  0  # atno 10764 bound_to 10752
  154.0657  135.6684  153.4870 H   0  0  0  0  0  0  0  0  0  0  0  0  # atno 10765 bound_to 10752
  140.3131  134.2627  155.7730 H   0  0  0  0  0  0  0  0  0  0  0  0  # atno 11005 bound_to 11000
  145.0977  139.2844  143.5702 LP  0  0  0  0  0  0  0  0  0  0  0  0  # atno 17320 bound_to 7965
  146.3530  140.0535  142.8634 LP  0  0  0  0  0  0  0  0  0  0  0  0  # atno 17321 bound_to 7965
  140.3387  144.3230  150.5972 LP  0  0  0  0  0  0  0  0  0  0  0  0  # atno 17342 bound_to 10162
  140.5584  143.2195  151.7807 LP  0  0  0  0  0  0  0  0  0  0  0  0  # atno 17343 bound_to 10162
  157.4996  131.0917  151.0330 LP  0  0  0  0  0  0  0  0  0  0  0  0  # atno 17370 bound_to 10713
  157.0715  130.5866  149.5403 LP  0  0  0  0  0  0  0  0  0  0  0  0  # atno 17371 bound_to 10713
  141.2103  133.7722  156.9937 LP  0  0  0  0  0  0  0  0  0  0  0  0  # atno 17394 bound_to 11000
  140.1007  134.9537  157.1918 LP  0  0  0  0  0  0  0  0  0  0  0  0  # atno 17395 bound_to 11000

$$$$
