AV-unprocessed.smi:110|AV-procd|sdf|1067|dock1
  -GOLD-   2262018143D 1   1.00000     0.00000
 Structure written by MMmdl.
 46 50  0  0  0  0  0  0  0  0  1 V2000
  150.4884  132.8129  157.7237 O   0  0  0  0  0  0  0  0  0  0  0  0
  149.0939  132.7941  157.5067 C   0  0  0  0  0  0  0  0  0  0  0  0
  148.6821  133.9846  156.6261 C   0  0  1  0  0  0  0  0  0  0  0  0
  148.8336  135.1805  157.3872 O   0  0  0  0  0  0  0  0  0  0  0  0
  149.2948  136.1929  156.5587 C   0  0  1  0  0  0  0  0  0  0  0  0
  149.9506  137.2433  157.3921 N   0  0  0  0  0  0  0  0  0  0  0  0
  149.9327  137.4078  158.7594 C   0  0  0  0  0  0  0  0  0  0  0  0
  150.6142  138.4294  159.2035 N   0  0  0  0  0  0  0  0  0  0  0  0
  151.1331  139.0222  158.0572 C   0  0  0  0  0  0  0  0  0  0  0  0
  151.9576  140.1547  157.7982 C   0  0  0  0  0  0  0  0  0  0  0  0
  152.4513  140.9826  158.7488 N   0  0  0  0  0  0  0  0  0  0  0  0
  153.1612  140.4183  159.9055 C   0  0  0  0  0  0  0  0  0  0  0  0
  153.2024  141.5029  160.9984 C   0  0  0  0  0  0  0  0  0  0  0  0
  152.6190  142.6676  160.2653 C   0  0  0  0  0  0  0  0  0  0  0  0
  152.4847  143.9867  160.7321 C   0  0  0  0  0  0  0  0  0  0  0  0
  151.9269  144.9465  159.8608 C   0  0  0  0  0  0  0  0  0  0  0  0
  151.5277  144.5795  158.5546 C   0  0  0  0  0  0  0  0  0  0  0  0
  151.6738  143.2481  158.1067 C   0  0  0  0  0  0  0  0  0  0  0  0
  152.2120  142.2892  158.9895 C   0  0  0  0  0  0  0  0  0  0  0  0
  152.3145  140.3892  156.5090 N   0  0  0  0  0  0  0  0  0  0  0  0
  151.8648  139.5980  155.5310 C   0  0  0  0  0  0  0  0  0  0  0  0
  151.0727  138.5281  155.6211 N   0  0  0  0  0  0  0  0  0  0  0  0
  150.7334  138.2701  156.9168 C   0  0  0  0  0  0  0  0  0  0  0  0
  150.2601  135.5189  155.5834 C   0  0  1  0  0  0  0  0  0  0  0  0
  151.5652  135.3686  156.1130 O   0  0  0  0  0  0  0  0  0  0  0  0
  149.5905  134.1633  155.3881 C   0  0  2  0  0  0  0  0  0  0  0  0
  148.7915  134.1882  154.2205 O   0  0  0  0  0  0  0  0  0  0  0  0
  147.6383  133.8865  156.3205 H   0  0  0  0  0  0  0  0  0  0  0  0
  148.4559  136.6869  156.0660 H   0  0  0  0  0  0  0  0  0  0  0  0
  150.3281  136.1024  154.6641 H   0  0  0  0  0  0  0  0  0  0  0  0
  150.3219  133.3609  155.2786 H   0  0  0  0  0  0  0  0  0  0  0  0
  150.8445  131.9765  157.4656 H   0  0  0  0  0  0  0  0  0  0  0  0
  148.7890  131.8459  157.0624 H   0  0  0  0  0  0  0  0  0  0  0  0
  148.6150  132.8646  158.4837 H   0  0  0  0  0  0  0  0  0  0  0  0
  149.4001  136.7416  159.4225 H   0  0  0  0  0  0  0  0  0  0  0  0
  152.6669  139.5152  160.2662 H   0  0  0  0  0  0  0  0  0  0  0  0
  154.1732  140.1468  159.6023 H   0  0  0  0  0  0  0  0  0  0  0  0
  152.5777  141.2436  161.8537 H   0  0  0  0  0  0  0  0  0  0  0  0
  154.2167  141.7125  161.3390 H   0  0  0  0  0  0  0  0  0  0  0  0
  152.8048  144.2594  161.7268 H   0  0  0  0  0  0  0  0  0  0  0  0
  151.8125  145.9686  160.1906 H   0  0  0  0  0  0  0  0  0  0  0  0
  151.1132  145.3245  157.8917 H   0  0  0  0  0  0  0  0  0  0  0  0
  151.3832  142.9805  157.1018 H   0  0  0  0  0  0  0  0  0  0  0  0
  152.1856  139.8596  154.5336 H   0  0  0  0  0  0  0  0  0  0  0  0
  151.6176  134.5299  156.5449 H   0  0  0  0  0  0  0  0  0  0  0  0
  148.9227  135.0150  153.7820 H   0  0  0  0  0  0  0  0  0  0  0  0
  1  2  1  0  0  0  0
  1 32  1  0  0  0  0
  2  3  1  0  0  0  0
  2 33  1  0  0  0  0
  2 34  1  0  0  0  0
  3 28  1  0  0  0  0
  3 26  1  0  0  0  0
  3  4  1  0  0  0  0
  4  5  1  0  0  0  0
  5 29  1  0  0  0  0
  5  6  1  0  0  0  0
  5 24  1  0  0  0  0
  6 23  1  0  0  0  0
  6  7  1  0  0  0  0
  7  8  2  0  0  0  0
  7 35  1  0  0  0  0
  8  9  1  0  0  0  0
  9 23  2  0  0  0  0
  9 10  1  0  0  0  0
 10 11  1  0  0  0  0
 10 20  2  0  0  0  0
 11 19  1  0  0  0  0
 11 12  1  0  0  0  0
 12 13  1  0  0  0  0
 12 36  1  0  0  0  0
 12 37  1  0  0  0  0
 13 14  1  0  0  0  0
 13 38  1  0  0  0  0
 13 39  1  0  0  0  0
 14 19  2  0  0  0  0
 14 15  1  0  0  0  0
 15 16  2  0  0  0  0
 15 40  1  0  0  0  0
 16 17  1  0  0  0  0
 16 41  1  0  0  0  0
 17 18  2  0  0  0  0
 17 42  1  0  0  0  0
 18 19  1  0  0  0  0
 18 43  1  0  0  0  0
 20 21  1  0  0  0  0
 21 22  2  0  0  0  0
 21 44  1  0  0  0  0
 22 23  1  0  0  0  0
 24 30  1  0  0  0  0
 24 25  1  0  0  0  0
 24 26  1  0  0  0  0
 25 45  1  0  0  0  0
 26 31  1  0  0  0  0
 26 27  1  0  0  0  0
 27 46  1  0  0  0  0
M  END
> <s_m_source_file>
AV-unprocessed.smi

> <i_m_source_file_index>
110

> <i_lp_mmshare_version>
43012

> <i_f3d_flags>
0

> <s_epik_input>
W09IXVtDSDJdW0NASF0xT1tDQEhdKFtDQEhdKFtPSF0pW0NAQEhdMVtPSF0pbihbY0hdbjIpYyhjMjMpbltjSF1uYzNOKFtDSDJdW0NIMl00KWMoYzQ1KVtjSF1bY0hdW2NIXVtjSF01

> <s_epik_cmdline>
J2VwaWtfcHl0aG9uJywgJy1waCcsICc3LjAnLCAnLXRuJywgJzgnLCAnLW1hJywgJzIwMCcsICctbWV0YWxfYmluZGluZycsICctaW1hZScsICc8aW5maWxlLm1hZT4nLCAnLW9tYWUnLCAnPG91dGZpbGUubWFlPic=

> <r_lp_tautomer_probability>
1

> <r_epik_Ionization_Penalty>
0.00068475

> <r_epik_Ionization_Penalty_Charging>
0

> <r_epik_Ionization_Penalty_Neutral>
0.00068475

> <r_epik_State_Penalty>
0.000417442

> <r_epik_Charging_Adjusted_Penalty>
0.000417442

> <i_epik_Tot_Q>
0

> <i_epik_Tot_abs_Q>
0

> <r_epik_Metal_State_Penalty>
-0

> <b_epik_Metal_Only>
0

> <s_epik_Chemistry_Notes>
This compound contains an acetal/aminal-like group ( X-CH(R)-Y where X, Y are N, S, or O) that may be acid/base labile, releasing an aldehyde.

> <s_lp_Force_Field>
OPLS_2005

> <r_lp_Energy>
58.5768

> <b_lp_Chiralities_Consistent>
1

> <s_lp_Variant>
AV-unprocessed.smi:110-5

> <Gold.Version>
5.8.1

> <Gold.Id.Protein>
6NUR|6NUR_protein|mol2

> <Gold.PLP.Fitness>
53.2549

> <Gold.PLP.PLP>
-44.8402

> <Gold.PLP.part.hbond>
-4.4331

> <Gold.PLP.part.metal>
0.0000

> <Gold.PLP.part.buried>
-3.4555

> <Gold.PLP.part.nonpolar>
-36.5557

> <Gold.PLP.part.repulsive>
0.0220

> <Gold.PLP.ligand.clash>
0.0000

> <Gold.PLP.ligand.torsion>
1.3760

> <Gold.PLP.Chemscore.Hbond>
3.6956

> <Gold.PLP.Chemscore.CHOScore>
0.0000

> <Gold.PLP.Chemscore.Metal>
0.0000

> <Gold.Chemscore.Hbonds>
donor molecule, donor type, donor heavy atom, donor atom, acceptor molecule, acceptor atom, score
      L1  H    27    46       P1  7948  0.46
      P1  H  6896  6907       L1     1  0.80
      P1  H  7997  8010       L1    20  0.80
      P1  H 10752 10763       L1    25  1.00

> <Gold.PLP.Chemscore.Internal.Correction>
0.0800

> <Gold.Rescore>
     Score         DG    S(hbond)    S(metal)    S(lipo)     H(rot)  DE(clash)    DE(int)     intcor
     15.40     -17.01       2.33        0.00     106.16       3.38       0.19       1.42       ----

> <Gold.Chemscore.Fitness>
15.3954

> <Gold.Chemscore.DG>
-17.0096

> <Gold.Chemscore.ZeroCoef>
-5.4800

> <Gold.Chemscore.Hbond>
2.3265

> <Gold.Chemscore.Metal>
0.0000

> <Gold.Chemscore.Lipo>
106.1638

> <Gold.Chemscore.Internal_Hbond>
0.0000

> <Gold.Chemscore.DEClash>
0.1942

> <Gold.Chemscore.DEInternal>
1.4200

> <Gold.Chemscore.Rot>
3.3837

> <Gold.Chemscore.Internal.Correction>
   9.000000E+99

> <Gold.Chemscore.Hbonds>
donor molecule, donor type, donor heavy atom, donor atom, acceptor molecule, acceptor atom, score
      L1  H    27    46       P1  7948  0.25
      P1  H  6896  6907       L1     1  0.44
      P1  H  7997  8010       L1    20  0.14
      P1  H 10752 10763       L1    25  0.49

> <Gold.Chemscore.Hbond.Weighted>
-7.7706

> <Gold.Chemscore.Metal.Weighted>
-0.0000

> <Gold.Chemscore.Lipo.Weighted>
-12.4212

> <Gold.Chemscore.Internal_Hbond.Weighted>
0.0000

> <Gold.Chemscore.DEClash.Weighted>
0.1942

> <Gold.Chemscore.DEInternal.Weighted>
1.4200

> <Gold.Chemscore.Rot.Weighted>
8.6622

> <Gold.Chemscore.Internal.Correction.Weighted>
   9.000000E+99

> <Gold.Protein.RotatedTorsions>
[ 6907 6896 6895 6894 ] final -170.18 input  -60.11 | X-H torsion
[ 7974 7965 7964 7962 ] final    4.58 input  175.53 | X-H torsion
[ 8008 7997 7996 7995 ] final   85.76 input   59.86 | X-H torsion
[ 10167 10162 10161 10158 ] final   59.67 input  -65.29 | X-H torsion
[ 10718 10713 10712 10709 ] final   48.07 input   66.30 | X-H torsion
[ 10763 10752 10751 10750 ] final   88.22 input  -60.55 | X-H torsion
[ 11005 11000 10999 10996 ] final   86.62 input  -57.11 | X-H torsion

> <Gold.Protein.ActiveResidues>
 VAL166  LYS551  ARG553  GLY616  TRP617  ASP618  TYR619  PRO620  LYS621  CYS622 
 ASP623  PHE694  ASN695  SER759  ASP760  ASP761  ALA762  ILE779  LEU786  VAL792 
 PHE793  MET794  SER795  GLU796  ALA797  LYS798  CYS799  TRP800  GLU811  SER814 

> <Gold.Protein.RotatedAtoms>
  151.5035  133.3499  159.2872 H   0  0  0  0  0  0  0  0  0  0  0  0  # atno 6907 bound_to 6896
  150.8757  134.8142  159.7199 H   0  0  0  0  0  0  0  0  0  0  0  0  # atno 6908 bound_to 6896
  152.4729  134.4926  159.9752 H   0  0  0  0  0  0  0  0  0  0  0  0  # atno 6909 bound_to 6896
  146.2443  140.0513  142.8375 H   0  0  0  0  0  0  0  0  0  0  0  0  # atno 7974 bound_to 7965
  155.9541  140.3398  155.6433 H   0  0  0  0  0  0  0  0  0  0  0  0  # atno 8008 bound_to 7997
  155.6882  140.0746  157.2477 H   0  0  0  0  0  0  0  0  0  0  0  0  # atno 8009 bound_to 7997
  154.4128  140.1662  156.2044 H   0  0  0  0  0  0  0  0  0  0  0  0  # atno 8010 bound_to 7997
  140.1738  144.4250  150.6648 H   0  0  0  0  0  0  0  0  0  0  0  0  # atno 10167 bound_to 10162
  157.4650  130.8219  149.7926 H   0  0  0  0  0  0  0  0  0  0  0  0  # atno 10718 bound_to 10713
  153.1746  135.4515  154.9948 H   0  0  0  0  0  0  0  0  0  0  0  0  # atno 10763 bound_to 10752
  154.7989  135.3248  154.7600 H   0  0  0  0  0  0  0  0  0  0  0  0  # atno 10764 bound_to 10752
  153.8072  135.6958  153.4901 H   0  0  0  0  0  0  0  0  0  0  0  0  # atno 10765 bound_to 10752
  139.8940  134.8368  156.2746 H   0  0  0  0  0  0  0  0  0  0  0  0  # atno 11005 bound_to 11000
  145.0981  140.9328  143.4729 LP  0  0  0  0  0  0  0  0  0  0  0  0  # atno 17320 bound_to 7965
  145.0700  139.3038  143.5836 LP  0  0  0  0  0  0  0  0  0  0  0  0  # atno 17321 bound_to 7965
  140.6564  143.2239  151.5958 LP  0  0  0  0  0  0  0  0  0  0  0  0  # atno 17342 bound_to 10162
  139.5326  144.2873  152.1181 LP  0  0  0  0  0  0  0  0  0  0  0  0  # atno 17343 bound_to 10162
  156.0046  130.3862  150.2479 LP  0  0  0  0  0  0  0  0  0  0  0  0  # atno 17370 bound_to 10713
  157.0658  131.0103  151.3207 LP  0  0  0  0  0  0  0  0  0  0  0  0  # atno 17371 bound_to 10713
  141.0078  133.7113  156.1063 LP  0  0  0  0  0  0  0  0  0  0  0  0  # atno 17394 bound_to 11000
  140.7409  134.4151  157.5555 LP  0  0  0  0  0  0  0  0  0  0  0  0  # atno 17395 bound_to 11000

$$$$
