AV-unprocessed.smi:2741|AV-procd|sdf|10558|dock8
  -GOLD-   2272015 13D 1   1.00000     0.00000
 Structure written by MMmdl.
 39 40  0  0  0  0  0  0  0  0  1 V2000
  151.3714  140.5235  155.3101 O   0  0  0  0  0  0  0  0  0  0  0  0
  150.5142  140.2618  156.1551 C   0  0  0  0  0  0  0  0  0  0  0  0
  150.9110  139.7322  157.5404 C   0  0  0  0  0  0  0  0  0  0  0  0
  151.6950  140.6969  158.3299 N   0  0  0  0  0  0  0  0  0  0  0  0
  151.5026  142.0644  158.0506 C   0  0  0  0  0  0  0  0  0  0  0  0
  152.1675  143.0441  158.6925 C   0  0  0  0  0  0  0  0  0  0  0  0
  151.9003  144.5133  158.4040 C   0  0  0  0  0  0  0  0  0  0  0  0
  150.6058  144.8022  158.5396 F   0  0  0  0  0  0  0  0  0  0  0  0
  152.5872  145.2743  159.2547 F   0  0  0  0  0  0  0  0  0  0  0  0
  152.2736  144.8355  157.1648 F   0  0  0  0  0  0  0  0  0  0  0  0
  153.0874  142.6257  159.7321 C   0  0  0  0  0  0  0  0  0  0  0  0
  153.2787  141.3224  160.0158 C   0  0  0  0  0  0  0  0  0  0  0  0
  152.5665  140.2675  159.2914 C   0  0  0  0  0  0  0  0  0  0  0  0
  152.7400  139.0730  159.5353 O   0  0  0  0  0  0  0  0  0  0  0  0
  149.2005  140.4361  155.9477 N   0  0  0  0  0  0  0  0  0  0  0  0
  148.6033  140.9441  154.7173 C   0  0  0  0  0  0  0  0  0  0  0  0
  147.8309  142.2578  154.9478 C   0  0  2  0  0  0  0  0  0  0  0  0
  146.7993  142.1897  156.0849 C   0  0  0  0  0  0  0  0  0  0  0  0
  145.7551  143.2378  155.7119 C   0  0  0  0  0  0  0  0  0  0  0  0
  145.6332  143.0810  154.1970 C   0  0  1  0  0  0  0  0  0  0  0  0
  145.1171  144.2436  153.5841 O   0  0  0  0  0  0  0  0  0  0  0  0
  147.0499  142.7408  153.7093 C   0  0  0  0  0  0  0  0  0  0  0  0
  149.9983  139.4540  158.0692 H   0  0  0  0  0  0  0  0  0  0  0  0
  151.4692  138.8004  157.4285 H   0  0  0  0  0  0  0  0  0  0  0  0
  150.7796  142.2677  157.2738 H   0  0  0  0  0  0  0  0  0  0  0  0
  153.6370  143.3690  160.2907 H   0  0  0  0  0  0  0  0  0  0  0  0
  153.9741  141.0469  160.7951 H   0  0  0  0  0  0  0  0  0  0  0  0
  148.5666  140.2015  156.6979 H   0  0  0  0  0  0  0  0  0  0  0  0
  149.3749  141.0854  153.9584 H   0  0  0  0  0  0  0  0  0  0  0  0
  147.9296  140.1788  154.3309 H   0  0  0  0  0  0  0  0  0  0  0  0
  148.5465  143.0414  155.2019 H   0  0  0  0  0  0  0  0  0  0  0  0
  146.3302  141.2052  156.1119 H   0  0  0  0  0  0  0  0  0  0  0  0
  147.2435  142.3726  157.0640 H   0  0  0  0  0  0  0  0  0  0  0  0
  144.8063  143.0941  156.2300 H   0  0  0  0  0  0  0  0  0  0  0  0
  146.1293  144.2316  155.9636 H   0  0  0  0  0  0  0  0  0  0  0  0
  144.9683  142.2440  153.9783 H   0  0  0  0  0  0  0  0  0  0  0  0
  144.4688  143.9855  152.9467 H   0  0  0  0  0  0  0  0  0  0  0  0
  147.5451  143.6166  153.2872 H   0  0  0  0  0  0  0  0  0  0  0  0
  147.0114  141.9864  152.9224 H   0  0  0  0  0  0  0  0  0  0  0  0
  1  2  2  0  0  0  0
  2  3  1  0  0  0  0
  2 15  1  0  0  0  0
  3  4  1  0  0  0  0
  3 23  1  0  0  0  0
  3 24  1  0  0  0  0
  4 13  1  0  0  0  0
  4  5  1  0  0  0  0
  5  6  2  0  0  0  0
  5 25  1  0  0  0  0
  6  7  1  0  0  0  0
  6 11  1  0  0  0  0
  7  8  1  0  0  0  0
  7  9  1  0  0  0  0
  7 10  1  0  0  0  0
 11 12  2  0  0  0  0
 11 26  1  0  0  0  0
 12 13  1  0  0  0  0
 12 27  1  0  0  0  0
 13 14  2  0  0  0  0
 15 16  1  0  0  0  0
 15 28  1  0  0  0  0
 16 17  1  0  0  0  0
 16 29  1  0  0  0  0
 16 30  1  0  0  0  0
 17 22  1  0  0  0  0
 17 18  1  0  0  0  0
 17 31  1  0  0  0  0
 18 19  1  0  0  0  0
 18 32  1  0  0  0  0
 18 33  1  0  0  0  0
 19 20  1  0  0  0  0
 19 34  1  0  0  0  0
 19 35  1  0  0  0  0
 20 21  1  0  0  0  0
 20 22  1  0  0  0  0
 20 36  1  0  0  0  0
 21 37  1  0  0  0  0
 22 38  1  0  0  0  0
 22 39  1  0  0  0  0
M  END
> <s_m_source_file>
AV-unprocessed.smi

> <i_m_source_file_index>
2741

> <i_lp_mmshare_version>
43012

> <i_f3d_flags>
0

> <s_epik_input>
W09IXVtDQEBIXShbQ0gyXTEpW0NIMl1bQ0gyXVtDQEhdMVtDSDJdW05IXUMoPU8pW0NIMl1uMltjSF1jKEMoRikoRilGKVtjSF1bY0hdYzI9Tw==

> <s_epik_cmdline>
J2VwaWtfcHl0aG9uJywgJy1waCcsICc3LjAnLCAnLXRuJywgJzgnLCAnLW1hJywgJzIwMCcsICctbWV0YWxfYmluZGluZycsICctaW1hZScsICc8aW5maWxlLm1hZT4nLCAnLW9tYWUnLCAnPG91dGZpbGUubWFlPic=

> <r_lp_tautomer_probability>
1

> <r_epik_Ionization_Penalty>
1.17551e-06

> <r_epik_Ionization_Penalty_Charging>
1.78841e-08

> <r_epik_Ionization_Penalty_Neutral>
1.15762e-06

> <r_epik_State_Penalty>
-0

> <r_epik_Charging_Adjusted_Penalty>
1.78841e-08

> <i_epik_Tot_Q>
0

> <i_epik_Tot_abs_Q>
0

> <r_epik_Metal_State_Penalty>
-0

> <b_epik_Metal_Only>
0

> <s_lp_Force_Field>
OPLS_2005

> <r_lp_Energy>
33.5858

> <b_lp_Chiralities_Consistent>
1

> <s_lp_Variant>
AV-unprocessed.smi:2741-1

> <Gold.Version>
5.8.1

> <Gold.Id.Protein>
6NUR|6NUR_protein|mol2

> <Gold.PLP.Fitness>
49.7402

> <Gold.PLP.PLP>
-45.7198

> <Gold.PLP.part.hbond>
-2.0000

> <Gold.PLP.part.metal>
0.0000

> <Gold.PLP.part.buried>
-6.3025

> <Gold.PLP.part.nonpolar>
-38.7554

> <Gold.PLP.part.repulsive>
0.0529

> <Gold.PLP.ligand.clash>
0.4586

> <Gold.PLP.ligand.torsion>
0.4739

> <Gold.PLP.Chemscore.Hbond>
1.7895

> <Gold.PLP.Chemscore.CHOScore>
0.0000

> <Gold.PLP.Chemscore.Metal>
0.0000

> <Gold.Chemscore.Hbonds>
donor molecule, donor type, donor heavy atom, donor atom, acceptor molecule, acceptor atom, score
      P1  H  7989  7998       L1     1  0.86

> <Gold.PLP.Chemscore.Internal.Correction>
0.0582

> <Gold.Rescore>
     Score         DG    S(hbond)    S(metal)    S(lipo)     H(rot)  DE(clash)    DE(int)     intcor
     13.22     -13.84       1.77        0.00      75.20       2.48       0.15       0.47       ----

> <Gold.Chemscore.Fitness>
13.2225

> <Gold.Chemscore.DG>
-13.8423

> <Gold.Chemscore.ZeroCoef>
-5.4800

> <Gold.Chemscore.Hbond>
1.7709

> <Gold.Chemscore.Metal>
0.0000

> <Gold.Chemscore.Lipo>
75.1979

> <Gold.Chemscore.Internal_Hbond>
0.0000

> <Gold.Chemscore.DEClash>
0.1465

> <Gold.Chemscore.DEInternal>
0.4733

> <Gold.Chemscore.Rot>
2.4807

> <Gold.Chemscore.Internal.Correction>
   9.000000E+99

> <Gold.Chemscore.Hbonds>
donor molecule, donor type, donor heavy atom, donor atom, acceptor molecule, acceptor atom, score
      L1  H    21    37       P1 10174  0.01
      P1  H  7989  7998       L1     1  0.86

> <Gold.Chemscore.Hbond.Weighted>
-5.9148

> <Gold.Chemscore.Metal.Weighted>
-0.0000

> <Gold.Chemscore.Lipo.Weighted>
-8.7982

> <Gold.Chemscore.Internal_Hbond.Weighted>
0.0000

> <Gold.Chemscore.DEClash.Weighted>
0.1465

> <Gold.Chemscore.DEInternal.Weighted>
0.4733

> <Gold.Chemscore.Rot.Weighted>
6.3507

> <Gold.Chemscore.Internal.Correction.Weighted>
   9.000000E+99

> <Gold.Protein.RotatedTorsions>
[ 6907 6896 6895 6894 ] final   56.57 input  -60.11 | X-H torsion
[ 7974 7965 7964 7962 ] final   36.68 input  175.53 | X-H torsion
[ 8008 7997 7996 7995 ] final   56.96 input   59.86 | X-H torsion
[ 10167 10162 10161 10158 ] final  113.23 input  -65.29 | X-H torsion
[ 10718 10713 10712 10709 ] final   55.99 input   66.30 | X-H torsion
[ 10763 10752 10751 10750 ] final  169.12 input  -60.55 | X-H torsion
[ 11005 11000 10999 10996 ] final  -44.82 input  -57.11 | X-H torsion

> <Gold.Protein.ActiveResidues>
 VAL166  LYS551  ARG553  GLY616  TRP617  ASP618  TYR619  PRO620  LYS621  CYS622 
 ASP623  PHE694  ASN695  SER759  ASP760  ASP761  ALA762  ILE779  LEU786  VAL792 
 PHE793  MET794  SER795  GLU796  ALA797  LYS798  CYS799  TRP800  GLU811  SER814 

> <Gold.Protein.RotatedAtoms>
  152.3649  134.6819  160.0195 H   0  0  0  0  0  0  0  0  0  0  0  0  # atno 6907 bound_to 6896
  151.7130  133.3307  159.3304 H   0  0  0  0  0  0  0  0  0  0  0  0  # atno 6908 bound_to 6896
  150.7631  134.6450  159.6302 H   0  0  0  0  0  0  0  0  0  0  0  0  # atno 6909 bound_to 6896
  146.1193  139.5987  142.9300 H   0  0  0  0  0  0  0  0  0  0  0  0  # atno 7974 bound_to 7965
  155.5260  140.3481  155.4416 H   0  0  0  0  0  0  0  0  0  0  0  0  # atno 8008 bound_to 7997
  156.0751  140.1372  156.9808 H   0  0  0  0  0  0  0  0  0  0  0  0  # atno 8009 bound_to 7997
  154.4549  140.0957  156.6703 H   0  0  0  0  0  0  0  0  0  0  0  0  # atno 8010 bound_to 7997
  139.6477  144.7127  151.2110 H   0  0  0  0  0  0  0  0  0  0  0  0  # atno 10167 bound_to 10162
  157.5392  130.8685  149.8798 H   0  0  0  0  0  0  0  0  0  0  0  0  # atno 10718 bound_to 10713
  154.3786  135.2753  155.2225 H   0  0  0  0  0  0  0  0  0  0  0  0  # atno 10763 bound_to 10752
  154.4341  135.5970  153.6091 H   0  0  0  0  0  0  0  0  0  0  0  0  # atno 10764 bound_to 10752
  152.9835  135.6003  154.4025 H   0  0  0  0  0  0  0  0  0  0  0  0  # atno 10765 bound_to 10752
  141.0476  133.6755  156.2927 H   0  0  0  0  0  0  0  0  0  0  0  0  # atno 11005 bound_to 11000
  145.5500  141.0414  143.2284 LP  0  0  0  0  0  0  0  0  0  0  0  0  # atno 17320 bound_to 7965
  144.7582  139.7021  143.7245 LP  0  0  0  0  0  0  0  0  0  0  0  0  # atno 17321 bound_to 7965
  140.7522  143.6203  150.8519 LP  0  0  0  0  0  0  0  0  0  0  0  0  # atno 17342 bound_to 10162
  139.9848  143.5912  152.2930 LP  0  0  0  0  0  0  0  0  0  0  0  0  # atno 17343 bound_to 10162
  156.0483  130.3723  150.1263 LP  0  0  0  0  0  0  0  0  0  0  0  0  # atno 17370 bound_to 10713
  156.9443  130.9754  151.3510 LP  0  0  0  0  0  0  0  0  0  0  0  0  # atno 17371 bound_to 10713
  140.6118  134.5451  157.5534 LP  0  0  0  0  0  0  0  0  0  0  0  0  # atno 17394 bound_to 11000
  139.9324  134.7939  156.0895 LP  0  0  0  0  0  0  0  0  0  0  0  0  # atno 17395 bound_to 11000

$$$$
