AV-unprocessed.smi:2739|AV-procd|sdf|10550|dock2
  -GOLD-   2272015 03D 1   1.00000     0.00000
 Structure written by MMmdl.
 35 35  0  0  0  0  0  0  0  0  1 V2000
  151.8723  145.2134  159.7285 C   0  0  0  0  0  0  0  0  0  0  0  0
  151.8883  144.3892  158.4332 C   0  0  0  0  0  0  0  0  0  0  0  0
  151.3978  142.9407  158.6153 C   0  0  2  0  0  0  0  0  0  0  0  0
  152.3305  142.1397  159.5374 C   0  0  0  0  0  0  0  0  0  0  0  0
  151.2944  142.2740  157.3197 N   0  0  0  0  0  0  0  0  0  0  0  0
  150.1594  141.8252  156.7614 C   0  0  0  0  0  0  0  0  0  0  0  0
  149.0487  141.9540  157.2759 O   0  0  0  0  0  0  0  0  0  0  0  0
  150.3010  141.1028  155.4218 C   0  0  0  0  0  0  0  0  0  0  0  0
  149.0141  140.9933  154.7596 N   0  0  0  0  0  0  0  0  0  0  0  0
  147.9977  141.9227  154.7064 C   0  0  0  0  0  0  0  0  0  0  0  0
  146.9782  141.3669  153.9888 C   0  0  0  0  0  0  0  0  0  0  0  0
  147.4644  140.0731  153.6401 C   0  0  0  0  0  0  0  0  0  0  0  0
  146.7764  138.9949  152.8443 C   0  0  2  0  0  0  0  0  0  0  0  0
  146.5627  137.7272  153.6822 C   0  0  0  0  0  0  0  0  0  0  0  0
  147.5033  138.6437  151.6851 O   0  0  0  0  0  0  0  0  0  0  0  0
  148.6886  139.8593  154.1019 N   0  0  0  0  0  0  0  0  0  0  0  0
  152.2746  146.2118  159.5558 H   0  0  0  0  0  0  0  0  0  0  0  0
  152.4789  144.7410  160.5019 H   0  0  0  0  0  0  0  0  0  0  0  0
  150.8609  145.3292  160.1188 H   0  0  0  0  0  0  0  0  0  0  0  0
  151.2838  144.8930  157.6776 H   0  0  0  0  0  0  0  0  0  0  0  0
  152.9074  144.3750  158.0448 H   0  0  0  0  0  0  0  0  0  0  0  0
  150.4111  142.9800  159.0806 H   0  0  0  0  0  0  0  0  0  0  0  0
  152.4145  142.6117  160.5165 H   0  0  0  0  0  0  0  0  0  0  0  0
  153.3340  142.0636  159.1170 H   0  0  0  0  0  0  0  0  0  0  0  0
  151.9573  141.1269  159.6932 H   0  0  0  0  0  0  0  0  0  0  0  0
  152.1578  142.1172  156.8201 H   0  0  0  0  0  0  0  0  0  0  0  0
  150.9846  141.6530  154.7737 H   0  0  0  0  0  0  0  0  0  0  0  0
  150.7256  140.1077  155.5661 H   0  0  0  0  0  0  0  0  0  0  0  0
  148.0827  142.8890  155.1815 H   0  0  0  0  0  0  0  0  0  0  0  0
  146.0254  141.8156  153.7502 H   0  0  0  0  0  0  0  0  0  0  0  0
  145.8039  139.3571  152.5084 H   0  0  0  0  0  0  0  0  0  0  0  0
  145.9551  137.9368  154.5629 H   0  0  0  0  0  0  0  0  0  0  0  0
  147.5122  137.3139  154.0243 H   0  0  0  0  0  0  0  0  0  0  0  0
  146.0511  136.9559  153.1059 H   0  0  0  0  0  0  0  0  0  0  0  0
  148.1257  139.3315  151.5044 H   0  0  0  0  0  0  0  0  0  0  0  0
  1  2  1  0  0  0  0
  1 17  1  0  0  0  0
  1 18  1  0  0  0  0
  1 19  1  0  0  0  0
  2  3  1  0  0  0  0
  2 20  1  0  0  0  0
  2 21  1  0  0  0  0
  3  4  1  0  0  0  0
  3  5  1  0  0  0  0
  3 22  1  0  0  0  0
  4 23  1  0  0  0  0
  4 24  1  0  0  0  0
  4 25  1  0  0  0  0
  5  6  1  0  0  0  0
  5 26  1  0  0  0  0
  6  7  2  0  0  0  0
  6  8  1  0  0  0  0
  8  9  1  0  0  0  0
  8 27  1  0  0  0  0
  8 28  1  0  0  0  0
  9 16  1  0  0  0  0
  9 10  1  0  0  0  0
 10 11  2  0  0  0  0
 10 29  1  0  0  0  0
 11 12  1  0  0  0  0
 11 30  1  0  0  0  0
 12 13  1  0  0  0  0
 12 16  2  0  0  0  0
 13 14  1  0  0  0  0
 13 15  1  0  0  0  0
 13 31  1  0  0  0  0
 14 32  1  0  0  0  0
 14 33  1  0  0  0  0
 14 34  1  0  0  0  0
 15 35  1  0  0  0  0
M  END
> <s_m_source_file>
AV-unprocessed.smi

> <i_m_source_file_index>
2739

> <i_lp_mmshare_version>
43012

> <i_f3d_flags>
0

> <s_epik_input>
W0NIM11bQ0gyXVtDQEhdKFtDSDNdKVtOSF1DKD1PKVtDSDJdbjFbY0hdW2NIXWMobjEpW0NASF0oW0NIM10pW09IXQ==

> <s_epik_cmdline>
J2VwaWtfcHl0aG9uJywgJy1waCcsICc3LjAnLCAnLXRuJywgJzgnLCAnLW1hJywgJzIwMCcsICctbWV0YWxfYmluZGluZycsICctaW1hZScsICc8aW5maWxlLm1hZT4nLCAnLW9tYWUnLCAnPG91dGZpbGUubWFlPic=

> <r_lp_tautomer_probability>
1

> <r_epik_Ionization_Penalty>
5.22246e-06

> <r_epik_Ionization_Penalty_Charging>
0

> <r_epik_Ionization_Penalty_Neutral>
5.22246e-06

> <r_epik_State_Penalty>
-0

> <r_epik_Charging_Adjusted_Penalty>
0

> <i_epik_Tot_Q>
0

> <i_epik_Tot_abs_Q>
0

> <r_epik_Metal_State_Penalty>
-0

> <b_epik_Metal_Only>
0

> <s_lp_Force_Field>
OPLS_2005

> <r_lp_Energy>
0.862384

> <b_lp_Chiralities_Consistent>
1

> <s_lp_Variant>
AV-unprocessed.smi:2739-1

> <Gold.Version>
5.8.1

> <Gold.Id.Protein>
6NUR|6NUR_protein|mol2

> <Gold.PLP.Fitness>
40.7294

> <Gold.PLP.PLP>
-35.0217

> <Gold.PLP.part.hbond>
-2.9204

> <Gold.PLP.part.metal>
0.0000

> <Gold.PLP.part.buried>
-2.1748

> <Gold.PLP.part.nonpolar>
-30.4367

> <Gold.PLP.part.repulsive>
0.8195

> <Gold.PLP.ligand.clash>
0.0000

> <Gold.PLP.ligand.torsion>
0.5328

> <Gold.PLP.Chemscore.Hbond>
1.2419

> <Gold.PLP.Chemscore.CHOScore>
0.9998

> <Gold.PLP.Chemscore.Metal>
0.0000

> <Gold.Chemscore.Hbonds>
donor molecule, donor type, donor heavy atom, donor atom, acceptor molecule, acceptor atom, score
      L1  H    15    35       P1  7957  1.00
      P1  H  7954  7966       L1    15  0.14
      L1  C    10    29       P1  8028  1.00

> <Gold.PLP.Chemscore.Internal.Correction>
0.0483

> <Gold.Rescore>
     Score         DG    S(hbond)    S(metal)    S(lipo)     H(rot)  DE(clash)    DE(int)     intcor
     10.36     -12.28       0.96        0.00      82.11       2.34       0.09       1.83       ----

> <Gold.Chemscore.Fitness>
10.3552

> <Gold.Chemscore.DG>
-12.2806

> <Gold.Chemscore.ZeroCoef>
-5.4800

> <Gold.Chemscore.Hbond>
0.9570

> <Gold.Chemscore.Metal>
0.0000

> <Gold.Chemscore.Lipo>
82.1097

> <Gold.Chemscore.Internal_Hbond>
0.0000

> <Gold.Chemscore.DEClash>
0.0924

> <Gold.Chemscore.DEInternal>
1.8330

> <Gold.Chemscore.Rot>
2.3448

> <Gold.Chemscore.Internal.Correction>
   9.000000E+99

> <Gold.Chemscore.Hbonds>
donor molecule, donor type, donor heavy atom, donor atom, acceptor molecule, acceptor atom, score
      L1  H    15    35       P1  7957  0.93

> <Gold.Chemscore.Hbond.Weighted>
-3.1965

> <Gold.Chemscore.Metal.Weighted>
-0.0000

> <Gold.Chemscore.Lipo.Weighted>
-9.6068

> <Gold.Chemscore.Internal_Hbond.Weighted>
0.0000

> <Gold.Chemscore.DEClash.Weighted>
0.0924

> <Gold.Chemscore.DEInternal.Weighted>
1.8330

> <Gold.Chemscore.Rot.Weighted>
6.0027

> <Gold.Chemscore.Internal.Correction.Weighted>
   9.000000E+99

> <Gold.Protein.RotatedTorsions>
[ 6907 6896 6895 6894 ] final   25.47 input  -60.11 | X-H torsion
[ 7974 7965 7964 7962 ] final  -48.46 input  175.53 | X-H torsion
[ 8008 7997 7996 7995 ] final  -60.80 input   59.86 | X-H torsion
[ 10167 10162 10161 10158 ] final  129.83 input  -65.29 | X-H torsion
[ 10718 10713 10712 10709 ] final    9.27 input   66.30 | X-H torsion
[ 10763 10752 10751 10750 ] final -179.14 input  -60.55 | X-H torsion
[ 11005 11000 10999 10996 ] final   19.81 input  -57.11 | X-H torsion

> <Gold.Protein.ActiveResidues>
 VAL166  LYS551  ARG553  GLY616  TRP617  ASP618  TYR619  PRO620  LYS621  CYS622 
 ASP623  PHE694  ASN695  SER759  ASP760  ASP761  ALA762  ILE779  LEU786  VAL792 
 PHE793  MET794  SER795  GLU796  ALA797  LYS798  CYS799  TRP800  GLU811  SER814 

> <Gold.Protein.RotatedAtoms>
  151.9730  135.0067  160.0553 H   0  0  0  0  0  0  0  0  0  0  0  0  # atno 6907 bound_to 6896
  152.1765  133.4674  159.4944 H   0  0  0  0  0  0  0  0  0  0  0  0  # atno 6908 bound_to 6896
  150.6910  134.1804  159.4289 H   0  0  0  0  0  0  0  0  0  0  0  0  # atno 6909 bound_to 6896
  145.9509  140.7573  142.9505 H   0  0  0  0  0  0  0  0  0  0  0  0  # atno 7974 bound_to 7965
  154.4416  140.1031  156.6330 H   0  0  0  0  0  0  0  0  0  0  0  0  # atno 8008 bound_to 7997
  155.5584  140.3487  155.4467 H   0  0  0  0  0  0  0  0  0  0  0  0  # atno 8009 bound_to 7997
  156.0478  140.1297  157.0074 H   0  0  0  0  0  0  0  0  0  0  0  0  # atno 8010 bound_to 7997
  139.5459  144.6773  151.4475 H   0  0  0  0  0  0  0  0  0  0  0  0  # atno 10167 bound_to 10162
  156.9638  130.5943  149.5664 H   0  0  0  0  0  0  0  0  0  0  0  0  # atno 10718 bound_to 10713
  154.5388  135.2804  155.1114 H   0  0  0  0  0  0  0  0  0  0  0  0  # atno 10763 bound_to 10752
  154.2604  135.6322  153.5276 H   0  0  0  0  0  0  0  0  0  0  0  0  # atno 10764 bound_to 10752
  152.9974  135.5604  154.5922 H   0  0  0  0  0  0  0  0  0  0  0  0  # atno 10765 bound_to 10752
  140.4095  134.1633  155.7666 H   0  0  0  0  0  0  0  0  0  0  0  0  # atno 11005 bound_to 11000
  144.6795  140.2433  143.7341 LP  0  0  0  0  0  0  0  0  0  0  0  0  # atno 17320 bound_to 7965
  145.8172  139.2028  143.1959 LP  0  0  0  0  0  0  0  0  0  0  0  0  # atno 17321 bound_to 7965
  140.6707  143.8300  150.6995 LP  0  0  0  0  0  0  0  0  0  0  0  0  # atno 17342 bound_to 10162
  140.1724  143.4183  152.1992 LP  0  0  0  0  0  0  0  0  0  0  0  0  # atno 17343 bound_to 10162
  156.0311  130.5402  150.8536 LP  0  0  0  0  0  0  0  0  0  0  0  0  # atno 17370 bound_to 10713
  157.5639  131.0946  150.9518 LP  0  0  0  0  0  0  0  0  0  0  0  0  # atno 17371 bound_to 10713
  141.1826  133.8381  157.1202 LP  0  0  0  0  0  0  0  0  0  0  0  0  # atno 17394 bound_to 11000
  140.0277  134.9916  157.0719 LP  0  0  0  0  0  0  0  0  0  0  0  0  # atno 17395 bound_to 11000

$$$$
