AV-unprocessed.smi:1134|AV-procd|sdf|4857|dock7
  -GOLD-   22720 3423D 1   1.00000     0.00000
 Structure written by MMmdl.
 35 36  0  0  0  0  0  0  0  0  3 V2000
  150.4921  140.9513  158.3928 O   0  0  0  0  0  0  0  0  0  0  0  0
  150.5129  142.0698  157.8808 C   0  0  0  0  0  0  0  0  0  0  0  0
  151.3594  143.1737  158.5387 C   0  0  0  0  0  0  0  0  0  0  0  0
  152.1320  142.7476  159.7199 N   0  0  0  0  0  0  0  0  0  0  0  0
  153.1200  141.7649  159.5127 C   0  0  0  0  0  0  0  0  0  0  0  0
  153.8904  141.3011  160.5161 C   0  0  0  0  0  0  0  0  0  0  0  0
  154.9052  140.2974  160.2828 N   0  3  0  0  0  0  0  0  0  0  0  0
  155.6356  139.9721  161.2132 O   0  0  0  0  0  0  0  0  0  0  0  0
  155.0066  139.8021  159.1643 O   0  5  0  0  0  0  0  0  0  0  0  0
  153.6714  141.8471  161.8416 C   0  0  0  0  0  0  0  0  0  0  0  0
  152.7309  142.7902  162.0457 C   0  0  0  0  0  0  0  0  0  0  0  0
  151.8983  143.2984  160.9505 C   0  0  0  0  0  0  0  0  0  0  0  0
  151.0480  144.1704  161.1275 O   0  0  0  0  0  0  0  0  0  0  0  0
  149.8299  142.3681  156.7623 N   0  0  0  0  0  0  0  0  0  0  0  0
  148.9948  141.4380  156.0144 C   0  0  0  0  0  0  0  0  0  0  0  0
  149.6676  141.0180  154.6951 C   0  0  0  0  0  0  0  0  0  0  0  0
  150.1939  139.6501  154.7776 N   0  0  0  0  0  0  0  0  0  0  0  0
  151.4648  139.3756  155.1513 C   0  0  0  0  0  0  0  0  0  0  0  0
  152.3039  140.2207  155.4626 O   0  0  0  0  0  0  0  0  0  0  0  0
  151.8159  137.8827  155.1563 C   0  0  0  0  0  0  0  0  0  0  0  0
  150.3191  137.0550  154.6125 S   0  0  0  0  0  0  0  0  0  0  0  0
  149.4667  138.5671  154.4556 C   0  0  0  0  0  0  0  0  0  0  0  0
  148.2976  138.5976  154.0723 O   0  0  0  0  0  0  0  0  0  0  0  0
  152.0218  143.5959  157.7810 H   0  0  0  0  0  0  0  0  0  0  0  0
  150.6912  143.9927  158.8091 H   0  0  0  0  0  0  0  0  0  0  0  0
  153.2078  141.4281  158.4896 H   0  0  0  0  0  0  0  0  0  0  0  0
  154.2604  141.5047  162.6797 H   0  0  0  0  0  0  0  0  0  0  0  0
  152.5851  143.1835  163.0411 H   0  0  0  0  0  0  0  0  0  0  0  0
  149.8963  143.3091  156.4024 H   0  0  0  0  0  0  0  0  0  0  0  0
  148.7622  140.5645  156.6258 H   0  0  0  0  0  0  0  0  0  0  0  0
  148.0458  141.9342  155.8090 H   0  0  0  0  0  0  0  0  0  0  0  0
  148.9533  141.0964  153.8734 H   0  0  0  0  0  0  0  0  0  0  0  0
  150.4691  141.7148  154.4436 H   0  0  0  0  0  0  0  0  0  0  0  0
  152.6388  137.6767  154.4717 H   0  0  0  0  0  0  0  0  0  0  0  0
  152.0936  137.5547  156.1581 H   0  0  0  0  0  0  0  0  0  0  0  0
  1  2  2  0  0  0  0
  2  3  1  0  0  0  0
  2 14  1  0  0  0  0
  3  4  1  0  0  0  0
  3 24  1  0  0  0  0
  3 25  1  0  0  0  0
  4 12  1  0  0  0  0
  4  5  1  0  0  0  0
  5  6  2  0  0  0  0
  5 26  1  0  0  0  0
  6  7  1  0  0  0  0
  6 10  1  0  0  0  0
  7  8  2  0  0  0  0
  7  9  1  0  0  0  0
 10 11  2  0  0  0  0
 10 27  1  0  0  0  0
 11 12  1  0  0  0  0
 11 28  1  0  0  0  0
 12 13  2  0  0  0  0
 14 15  1  0  0  0  0
 14 29  1  0  0  0  0
 15 16  1  0  0  0  0
 15 30  1  0  0  0  0
 15 31  1  0  0  0  0
 16 17  1  0  0  0  0
 16 32  1  0  0  0  0
 16 33  1  0  0  0  0
 17 22  1  0  0  0  0
 17 18  1  0  0  0  0
 18 19  2  0  0  0  0
 18 20  1  0  0  0  0
 20 21  1  0  0  0  0
 20 34  1  0  0  0  0
 20 35  1  0  0  0  0
 21 22  1  0  0  0  0
 22 23  2  0  0  0  0
M  CHG  1   7   1
M  CHG  1   9  -1
M  END
> <s_m_source_file>
AV-unprocessed.smi

> <i_m_source_file_index>
1134

> <i_lp_mmshare_version>
43012

> <i_f3d_flags>
0

> <s_epik_input>
Tz1jMVtjSF1bY0hdYyhbTitdKD1PKVtPLV0pW2NIXW4xW0NIMl1DKD1PKVtOSF1bQ0gyXVtDSDJdTjJDKD1PKVtDSDJdU0MyPU8=

> <s_epik_cmdline>
J2VwaWtfcHl0aG9uJywgJy1waCcsICc3LjAnLCAnLXRuJywgJzgnLCAnLW1hJywgJzIwMCcsICctbWV0YWxfYmluZGluZycsICctaW1hZScsICc8aW5maWxlLm1hZT4nLCAnLW9tYWUnLCAnPG91dGZpbGUubWFlPic=

> <r_lp_tautomer_probability>
1

> <r_epik_Ionization_Penalty>
5.49556e-08

> <r_epik_Ionization_Penalty_Charging>
6.94392e-11

> <r_epik_Ionization_Penalty_Neutral>
5.48861e-08

> <r_epik_State_Penalty>
-0

> <r_epik_Charging_Adjusted_Penalty>
6.94392e-11

> <i_epik_Tot_Q>
0

> <i_epik_Tot_abs_Q>
2

> <r_epik_Metal_State_Penalty>
-0

> <b_epik_Metal_Only>
0

> <s_lp_Force_Field>
OPLS_2005

> <r_lp_Energy>
19.8089

> <b_lp_Chiralities_Consistent>
1

> <s_lp_Variant>
AV-unprocessed.smi:1134-1

> <Gold.Version>
5.8.1

> <Gold.Id.Protein>
6NUR|6NUR_protein|mol2

> <Gold.PLP.Fitness>
55.0859

> <Gold.PLP.PLP>
-47.8644

> <Gold.PLP.part.hbond>
-4.7083

> <Gold.PLP.part.metal>
0.0000

> <Gold.PLP.part.buried>
-2.5634

> <Gold.PLP.part.nonpolar>
-42.0987

> <Gold.PLP.part.repulsive>
0.4153

> <Gold.PLP.ligand.clash>
0.0000

> <Gold.PLP.ligand.torsion>
0.7919

> <Gold.PLP.Chemscore.Hbond>
2.9280

> <Gold.PLP.Chemscore.CHOScore>
0.0000

> <Gold.PLP.Chemscore.Metal>
0.0000

> <Gold.Chemscore.Hbonds>
donor molecule, donor type, donor heavy atom, donor atom, acceptor molecule, acceptor atom, score
      L1  H    14    29       P1  8028  0.88
      P1  H  7997  8009       L1     9  1.00
      P1  H  7997  8010       L1    19  0.65

> <Gold.PLP.Chemscore.Internal.Correction>
0.0213

> <Gold.Rescore>
     Score         DG    S(hbond)    S(metal)    S(lipo)     H(rot)  DE(clash)    DE(int)     intcor
     14.56     -16.69       2.71        0.00      78.39       2.74       0.12       2.01       ----

> <Gold.Chemscore.Fitness>
14.5648

> <Gold.Chemscore.DG>
-16.6901

> <Gold.Chemscore.ZeroCoef>
-5.4800

> <Gold.Chemscore.Hbond>
2.7088

> <Gold.Chemscore.Metal>
0.0000

> <Gold.Chemscore.Lipo>
78.3857

> <Gold.Chemscore.Internal_Hbond>
0.0000

> <Gold.Chemscore.DEClash>
0.1178

> <Gold.Chemscore.DEInternal>
2.0074

> <Gold.Chemscore.Rot>
2.7377

> <Gold.Chemscore.Internal.Correction>
   9.000000E+99

> <Gold.Chemscore.Hbonds>
donor molecule, donor type, donor heavy atom, donor atom, acceptor molecule, acceptor atom, score
      L1  H    14    29       P1  8028  0.86
      P1  H  7997  8009       L1     9  0.96
      P1  H  7997  8010       L1    19  0.64

> <Gold.Chemscore.Hbond.Weighted>
-9.0475

> <Gold.Chemscore.Metal.Weighted>
-0.0000

> <Gold.Chemscore.Lipo.Weighted>
-9.1711

> <Gold.Chemscore.Internal_Hbond.Weighted>
0.0000

> <Gold.Chemscore.DEClash.Weighted>
0.1178

> <Gold.Chemscore.DEInternal.Weighted>
2.0074

> <Gold.Chemscore.Rot.Weighted>
7.0085

> <Gold.Chemscore.Internal.Correction.Weighted>
   9.000000E+99

> <Gold.Protein.RotatedTorsions>
[ 6907 6896 6895 6894 ] final -164.58 input  -60.11 | X-H torsion
[ 7974 7965 7964 7962 ] final   86.47 input  175.53 | X-H torsion
[ 8008 7997 7996 7995 ] final  100.79 input   59.86 | X-H torsion
[ 10167 10162 10161 10158 ] final -177.01 input  -65.29 | X-H torsion
[ 10718 10713 10712 10709 ] final   20.98 input   66.30 | X-H torsion
[ 10763 10752 10751 10750 ] final -117.65 input  -60.55 | X-H torsion
[ 11005 11000 10999 10996 ] final   63.90 input  -57.11 | X-H torsion

> <Gold.Protein.ActiveResidues>
 VAL166  LYS551  ARG553  GLY616  TRP617  ASP618  TYR619  PRO620  LYS621  CYS622 
 ASP623  PHE694  ASN695  SER759  ASP760  ASP761  ALA762  ILE779  LEU786  VAL792 
 PHE793  MET794  SER795  GLU796  ALA797  LYS798  CYS799  TRP800  GLU811  SER814 

> <Gold.Protein.RotatedAtoms>
  151.4140  133.3718  159.2747 H   0  0  0  0  0  0  0  0  0  0  0  0  # atno 6907 bound_to 6896
  150.9342  134.8756  159.7581 H   0  0  0  0  0  0  0  0  0  0  0  0  # atno 6908 bound_to 6896
  152.5042  134.4087  159.9493 H   0  0  0  0  0  0  0  0  0  0  0  0  # atno 6909 bound_to 6896
  145.5718  139.2314  143.2401 H   0  0  0  0  0  0  0  0  0  0  0  0  # atno 7974 bound_to 7965
  156.1237  140.3208  155.8246 H   0  0  0  0  0  0  0  0  0  0  0  0  # atno 8008 bound_to 7997
  155.4458  140.0529  157.3023 H   0  0  0  0  0  0  0  0  0  0  0  0  # atno 8009 bound_to 7997
  154.4846  140.2067  155.9697 H   0  0  0  0  0  0  0  0  0  0  0  0  # atno 8010 bound_to 7997
  139.5501  144.2131  152.1062 H   0  0  0  0  0  0  0  0  0  0  0  0  # atno 10167 bound_to 10162
  157.1321  130.6595  149.5955 H   0  0  0  0  0  0  0  0  0  0  0  0  # atno 10718 bound_to 10713
  154.8562  135.4302  154.2013 H   0  0  0  0  0  0  0  0  0  0  0  0  # atno 10763 bound_to 10752
  153.3059  135.6972  153.7166 H   0  0  0  0  0  0  0  0  0  0  0  0  # atno 10764 bound_to 10752
  153.6277  135.3490  155.3006 H   0  0  0  0  0  0  0  0  0  0  0  0  # atno 10765 bound_to 10752
  139.9994  134.6466  155.9955 H   0  0  0  0  0  0  0  0  0  0  0  0  # atno 11005 bound_to 11000
  146.1778  140.6545  142.9203 LP  0  0  0  0  0  0  0  0  0  0  0  0  # atno 17320 bound_to 7965
  144.7434  140.5003  143.6853 LP  0  0  0  0  0  0  0  0  0  0  0  0  # atno 17321 bound_to 7965
  140.1625  144.5012  150.6624 LP  0  0  0  0  0  0  0  0  0  0  0  0  # atno 17342 bound_to 10162
  140.6761  143.2306  151.5503 LP  0  0  0  0  0  0  0  0  0  0  0  0  # atno 17343 bound_to 10162
  155.9806  130.4807  150.6780 LP  0  0  0  0  0  0  0  0  0  0  0  0  # atno 17370 bound_to 10713
  157.4383  131.0858  151.0969 LP  0  0  0  0  0  0  0  0  0  0  0  0  # atno 17371 bound_to 10713
  141.1630  133.6538  156.4383 LP  0  0  0  0  0  0  0  0  0  0  0  0  # atno 17394 bound_to 11000
  140.4756  134.6712  157.5148 LP  0  0  0  0  0  0  0  0  0  0  0  0  # atno 17395 bound_to 11000

$$$$
