AV-unprocessed.smi:1724|AV-procd|sdf|6951|dock5
  -GOLD-   22720 8163D 1   1.00000     0.00000
 Structure written by MMmdl.
 37 38  0  0  0  0  0  0  0  0  2 V2000
  148.4832  133.3850  155.2831 O   0  0  0  0  0  0  0  0  0  0  0  0
  148.6054  134.1843  154.3553 C   0  0  0  0  0  0  0  0  0  0  0  0
  149.3135  135.3190  154.4525 N   0  0  0  0  0  0  0  0  0  0  0  0
  150.0154  135.7846  155.6458 C   0  0  0  0  0  0  0  0  0  0  0  0
  151.0336  136.9005  155.3326 C   0  0  2  0  0  0  0  0  0  0  0  0
  152.0931  137.0815  156.4366 C   0  0  0  0  0  0  0  0  0  0  0  0
  153.0083  138.2660  156.1068 C   0  0  0  0  0  0  0  0  0  0  0  0
  152.1765  139.5249  155.8213 C   0  0  0  0  0  0  0  0  0  0  0  0
  151.2576  139.2640  154.7666 O   0  0  0  0  0  0  0  0  0  0  0  0
  150.3168  138.2444  155.0882 C   0  0  0  0  0  0  0  0  0  0  0  0
  148.0825  134.0540  153.1221 N   0  0  0  0  0  0  0  0  0  0  0  0
  147.2658  133.0393  152.5926 C   0  0  0  0  0  0  0  0  0  0  0  0
  147.3586  131.7168  152.9053 C   0  0  0  0  0  0  0  0  0  0  0  0
  146.4711  130.7141  152.3299 C   0  0  0  0  0  0  0  0  0  0  0  0
  146.6109  129.2231  152.5810 C   0  0  0  0  0  0  0  0  0  0  0  0
  146.5561  128.9486  153.8845 F   0  0  0  0  0  0  0  0  0  0  0  0
  145.6434  128.5423  151.9667 F   0  0  0  0  0  0  0  0  0  0  0  0
  147.7822  128.7926  152.1145 F   0  0  0  0  0  0  0  0  0  0  0  0
  145.5610  131.2634  151.4480 C   0  0  0  0  0  0  0  0  0  0  0  0
  145.3853  132.5577  151.1036 N   0  5  0  0  0  0  0  0  0  0  0  0
  146.2206  133.4870  151.6480 C   0  0  0  0  0  0  0  0  0  0  0  0
  146.1203  134.6829  151.3708 O   0  0  0  0  0  0  0  0  0  0  0  0
  149.3661  135.9112  153.6368 H   0  0  0  0  0  0  0  0  0  0  0  0
  149.2609  136.1644  156.3352 H   0  0  0  0  0  0  0  0  0  0  0  0
  150.5048  134.9571  156.1627 H   0  0  0  0  0  0  0  0  0  0  0  0
  151.5517  136.6317  154.4105 H   0  0  0  0  0  0  0  0  0  0  0  0
  151.6026  137.2530  157.3960 H   0  0  0  0  0  0  0  0  0  0  0  0
  152.6949  136.1795  156.5499 H   0  0  0  0  0  0  0  0  0  0  0  0
  153.6995  138.4482  156.9302 H   0  0  0  0  0  0  0  0  0  0  0  0
  153.6170  138.0267  155.2340 H   0  0  0  0  0  0  0  0  0  0  0  0
  151.6405  139.8499  156.7146 H   0  0  0  0  0  0  0  0  0  0  0  0
  152.8294  140.3462  155.5252 H   0  0  0  0  0  0  0  0  0  0  0  0
  149.6174  138.1509  154.2569 H   0  0  0  0  0  0  0  0  0  0  0  0
  149.7319  138.5409  155.9605 H   0  0  0  0  0  0  0  0  0  0  0  0
  148.3207  134.7763  152.4582 H   0  0  0  0  0  0  0  0  0  0  0  0
  148.0897  131.3616  153.6117 H   0  0  0  0  0  0  0  0  0  0  0  0
  144.8731  130.5552  150.9387 H   0  0  0  0  0  0  0  0  0  0  0  0
  1  2  2  0  0  0  0
  2  3  1  0  0  0  0
  2 11  1  0  0  0  0
  3  4  1  0  0  0  0
  3 23  1  0  0  0  0
  4  5  1  0  0  0  0
  4 24  1  0  0  0  0
  4 25  1  0  0  0  0
  5 10  1  0  0  0  0
  5  6  1  0  0  0  0
  5 26  1  0  0  0  0
  6  7  1  0  0  0  0
  6 27  1  0  0  0  0
  6 28  1  0  0  0  0
  7  8  1  0  0  0  0
  7 29  1  0  0  0  0
  7 30  1  0  0  0  0
  8  9  1  0  0  0  0
  8 31  1  0  0  0  0
  8 32  1  0  0  0  0
  9 10  1  0  0  0  0
 10 33  1  0  0  0  0
 10 34  1  0  0  0  0
 11 12  1  0  0  0  0
 11 35  1  0  0  0  0
 12 21  1  0  0  0  0
 12 13  2  0  0  0  0
 13 14  1  0  0  0  0
 13 36  1  0  0  0  0
 14 15  1  0  0  0  0
 14 19  2  0  0  0  0
 15 16  1  0  0  0  0
 15 17  1  0  0  0  0
 15 18  1  0  0  0  0
 19 20  1  0  0  0  0
 19 37  1  0  0  0  0
 20 21  1  0  0  0  0
 21 22  2  0  0  0  0
M  CHG  1  20  -1
M  END
> <s_m_source_file>
AV-unprocessed.smi

> <i_m_source_file_index>
1724

> <i_lp_mmshare_version>
43012

> <i_f3d_flags>
0

> <s_epik_input>
Tz1jMVtuSF1bY0hdYyhDKEYpKEYpRilbY0hdYzFbTkhdQyg9TylbTkhdW0NIMl1bQ0BASF0yW0NIMl1bQ0gyXVtDSDJdT1tDSDJdMg==

> <s_epik_cmdline>
J2VwaWtfcHl0aG9uJywgJy1waCcsICc3LjAnLCAnLXRuJywgJzgnLCAnLW1hJywgJzIwMCcsICctbWV0YWxfYmluZGluZycsICctaW1hZScsICc8aW5maWxlLm1hZT4nLCAnLW9tYWUnLCAnPG91dGZpbGUubWFlPic=

> <r_lp_tautomer_probability>
1

> <r_epik_Ionization_Penalty>
3.16025

> <r_epik_Ionization_Penalty_Charging>
0.171172

> <r_epik_Ionization_Penalty_Neutral>
2.98908

> <r_epik_State_Penalty>
2.98521

> <r_epik_Charging_Adjusted_Penalty>
3.15638

> <i_epik_Tot_Q>
-1

> <i_epik_Tot_abs_Q>
1

> <r_epik_Metal_State_Penalty>
0.452642

> <b_epik_Metal_Only>
1

> <s_lp_Force_Field>
OPLS_2005

> <r_lp_Energy>
24.3751

> <b_lp_Chiralities_Consistent>
1

> <s_lp_Variant>
AV-unprocessed.smi:1724-3

> <Gold.Version>
5.8.1

> <Gold.Id.Protein>
6NUR|6NUR_protein|mol2

> <Gold.PLP.Fitness>
42.2885

> <Gold.PLP.PLP>
-34.4527

> <Gold.PLP.part.hbond>
-3.0000

> <Gold.PLP.part.metal>
0.0000

> <Gold.PLP.part.buried>
-1.2189

> <Gold.PLP.part.nonpolar>
-29.5233

> <Gold.PLP.part.repulsive>
0.4278

> <Gold.PLP.ligand.clash>
0.0000

> <Gold.PLP.ligand.torsion>
0.6088

> <Gold.PLP.Chemscore.Hbond>
3.0000

> <Gold.PLP.Chemscore.CHOScore>
0.0000

> <Gold.PLP.Chemscore.Metal>
0.0000

> <Gold.Chemscore.Hbonds>
donor molecule, donor type, donor heavy atom, donor atom, acceptor molecule, acceptor atom, score
      L1  H     3    23       P1  7948  1.00
      L1  H    11    35       P1  7948  1.00
      P1  H  7989  7998       L1     9  0.89

> <Gold.PLP.Chemscore.Internal.Correction>
0.0534

> <Gold.Rescore>
     Score         DG    S(hbond)    S(metal)    S(lipo)     H(rot)  DE(clash)    DE(int)     intcor
     14.96     -15.72       1.70        0.00      67.86       1.32       0.12       0.64       ----

> <Gold.Chemscore.Fitness>
14.9622

> <Gold.Chemscore.DG>
-15.7185

> <Gold.Chemscore.ZeroCoef>
-5.4800

> <Gold.Chemscore.Hbond>
1.7039

> <Gold.Chemscore.Metal>
0.0000

> <Gold.Chemscore.Lipo>
67.8555

> <Gold.Chemscore.Internal_Hbond>
0.0000

> <Gold.Chemscore.DEClash>
0.1195

> <Gold.Chemscore.DEInternal>
0.6368

> <Gold.Chemscore.Rot>
1.3248

> <Gold.Chemscore.Internal.Correction>
   9.000000E+99

> <Gold.Chemscore.Hbonds>
donor molecule, donor type, donor heavy atom, donor atom, acceptor molecule, acceptor atom, score
      L1  H     3    23       P1  7948  0.57
      L1  H    11    35       P1  7948  0.30
      P1  H  7989  7998       L1     9  0.26

> <Gold.Chemscore.Hbond.Weighted>
-5.6909

> <Gold.Chemscore.Metal.Weighted>
-0.0000

> <Gold.Chemscore.Lipo.Weighted>
-7.9391

> <Gold.Chemscore.Internal_Hbond.Weighted>
0.0000

> <Gold.Chemscore.DEClash.Weighted>
0.1195

> <Gold.Chemscore.DEInternal.Weighted>
0.6368

> <Gold.Chemscore.Rot.Weighted>
3.3915

> <Gold.Chemscore.Internal.Correction.Weighted>
   9.000000E+99

> <Gold.Protein.RotatedTorsions>
[ 6907 6896 6895 6894 ] final  -38.50 input  -60.11 | X-H torsion
[ 7974 7965 7964 7962 ] final -107.91 input  175.53 | X-H torsion
[ 8008 7997 7996 7995 ] final -145.84 input   59.86 | X-H torsion
[ 10167 10162 10161 10158 ] final  -36.93 input  -65.29 | X-H torsion
[ 10718 10713 10712 10709 ] final -121.61 input   66.30 | X-H torsion
[ 10763 10752 10751 10750 ] final   74.70 input  -60.55 | X-H torsion
[ 11005 11000 10999 10996 ] final   79.45 input  -57.11 | X-H torsion

> <Gold.Protein.ActiveResidues>
 VAL166  LYS551  ARG553  GLY616  TRP617  ASP618  TYR619  PRO620  LYS621  CYS622 
 ASP623  PHE694  ASN695  SER759  ASP760  ASP761  ALA762  ILE779  LEU786  VAL792 
 PHE793  MET794  SER795  GLU796  ALA797  LYS798  CYS799  TRP800  GLU811  SER814 

> <Gold.Protein.RotatedAtoms>
  151.0017  134.9327  159.7957 H   0  0  0  0  0  0  0  0  0  0  0  0  # atno 6907 bound_to 6896
  152.5279  134.3146  159.9136 H   0  0  0  0  0  0  0  0  0  0  0  0  # atno 6908 bound_to 6896
  151.3151  133.4022  159.2684 H   0  0  0  0  0  0  0  0  0  0  0  0  # atno 6909 bound_to 6896
  145.1995  140.9050  143.3378 H   0  0  0  0  0  0  0  0  0  0  0  0  # atno 7974 bound_to 7965
  155.5497  140.0615  157.2852 H   0  0  0  0  0  0  0  0  0  0  0  0  # atno 8008 bound_to 7997
  154.4424  140.1904  156.0719 H   0  0  0  0  0  0  0  0  0  0  0  0  # atno 8009 bound_to 7997
  156.0525  140.3282  155.7371 H   0  0  0  0  0  0  0  0  0  0  0  0  # atno 8010 bound_to 7997
  140.7131  143.3375  151.2429 H   0  0  0  0  0  0  0  0  0  0  0  0  # atno 10167 bound_to 10162
  156.1351  130.6425  150.9684 H   0  0  0  0  0  0  0  0  0  0  0  0  # atno 10718 bound_to 10713
  153.0605  135.5016  154.8082 H   0  0  0  0  0  0  0  0  0  0  0  0  # atno 10763 bound_to 10752
  154.6875  135.2978  154.9529 H   0  0  0  0  0  0  0  0  0  0  0  0  # atno 10764 bound_to 10752
  154.0295  135.6731  153.4832 H   0  0  0  0  0  0  0  0  0  0  0  0  # atno 10765 bound_to 10752
  139.9172  134.7843  156.1780 H   0  0  0  0  0  0  0  0  0  0  0  0  # atno 11005 bound_to 11000
  144.9962  139.3642  143.6190 LP  0  0  0  0  0  0  0  0  0  0  0  0  # atno 17320 bound_to 7965
  146.3420  139.9165  142.8772 LP  0  0  0  0  0  0  0  0  0  0  0  0  # atno 17321 bound_to 7965
  139.6874  143.9750  152.2841 LP  0  0  0  0  0  0  0  0  0  0  0  0  # atno 17342 bound_to 10162
  139.9400  144.6688  150.8276 LP  0  0  0  0  0  0  0  0  0  0  0  0  # atno 17343 bound_to 10162
  157.6525  131.0895  150.8020 LP  0  0  0  0  0  0  0  0  0  0  0  0  # atno 17370 bound_to 10713
  156.8101  130.4949  149.5357 LP  0  0  0  0  0  0  0  0  0  0  0  0  # atno 17371 bound_to 10713
  141.0659  133.6819  156.2044 LP  0  0  0  0  0  0  0  0  0  0  0  0  # atno 17394 bound_to 11000
  140.6585  134.4992  157.5582 LP  0  0  0  0  0  0  0  0  0  0  0  0  # atno 17395 bound_to 11000

$$$$
