AV-unprocessed.smi:1019|AV-procd|sdf|4443|dock2
  -GOLD-   22720 2403D 1   1.00000     0.00000
 Structure written by MMmdl.
 44 46  0  0  0  0  0  0  0  0  2 V2000
  147.5550  142.4427  157.7204 C   0  0  0  0  0  0  0  0  0  0  0  0
  148.6614  142.3324  156.7405 N   0  3  1  0  0  0  0  0  0  0  0  0
  149.9268  141.8543  157.3550 C   0  0  0  0  0  0  0  0  0  0  0  0
  150.6800  142.9781  158.0441 C   0  0  0  0  0  0  0  0  0  0  0  0
  150.1185  143.6123  159.1725 C   0  0  0  0  0  0  0  0  0  0  0  0
  150.8147  144.6522  159.8189 C   0  0  0  0  0  0  0  0  0  0  0  0
  152.0732  145.0629  159.3385 C   0  0  0  0  0  0  0  0  0  0  0  0
  152.6352  144.4343  158.2105 C   0  0  0  0  0  0  0  0  0  0  0  0
  151.9399  143.3945  157.5632 C   0  0  0  0  0  0  0  0  0  0  0  0
  148.2678  141.5536  155.5384 C   0  0  0  0  0  0  0  0  0  0  0  0
  149.4850  141.1506  154.6829 C   0  0  2  0  0  0  0  0  0  0  0  0
  149.1843  141.3962  153.3220 O   0  0  0  0  0  0  0  0  0  0  0  0
  149.8504  139.6652  154.8685 C   0  0  0  0  0  0  0  0  0  0  0  0
  150.7878  139.4562  155.9577 N   0  0  0  0  0  0  0  0  0  0  0  0
  152.0145  139.9978  156.0844 C   0  0  0  0  0  0  0  0  0  0  0  0
  152.7180  139.6693  157.1637 N   0  0  0  0  0  0  0  0  0  0  0  0
  151.8453  138.8162  157.8169 C   0  0  0  0  0  0  0  0  0  0  0  0
  151.9885  138.1155  159.0359 C   0  0  0  0  0  0  0  0  0  0  0  0
  150.9486  137.2903  159.5121 C   0  0  0  0  0  0  0  0  0  0  0  0
  149.7522  137.1526  158.7788 C   0  0  0  0  0  0  0  0  0  0  0  0
  149.5863  137.8400  157.5610 C   0  0  0  0  0  0  0  0  0  0  0  0
  150.6265  138.6627  157.0892 C   0  0  0  0  0  0  0  0  0  0  0  0
  147.2934  141.4648  158.1262 H   0  0  0  0  0  0  0  0  0  0  0  0
  146.6663  142.8682  157.2530 H   0  0  0  0  0  0  0  0  0  0  0  0
  147.8237  143.0971  158.5494 H   0  0  0  0  0  0  0  0  0  0  0  0
  149.7198  141.0458  158.0581 H   0  0  0  0  0  0  0  0  0  0  0  0
  150.5882  141.4344  156.5976 H   0  0  0  0  0  0  0  0  0  0  0  0
  149.1537  143.3012  159.5467 H   0  0  0  0  0  0  0  0  0  0  0  0
  150.3836  145.1352  160.6836 H   0  0  0  0  0  0  0  0  0  0  0  0
  152.6070  145.8600  159.8348 H   0  0  0  0  0  0  0  0  0  0  0  0
  153.6002  144.7502  157.8419 H   0  0  0  0  0  0  0  0  0  0  0  0
  152.3789  142.9164  156.6997 H   0  0  0  0  0  0  0  0  0  0  0  0
  147.7046  140.6724  155.8501 H   0  0  0  0  0  0  0  0  0  0  0  0
  147.5892  142.1402  154.9165 H   0  0  0  0  0  0  0  0  0  0  0  0
  150.3517  141.7562  154.9478 H   0  0  0  0  0  0  0  0  0  0  0  0
  149.1322  140.5690  152.8673 H   0  0  0  0  0  0  0  0  0  0  0  0
  148.9534  139.0801  155.0756 H   0  0  0  0  0  0  0  0  0  0  0  0
  150.2808  139.2585  153.9525 H   0  0  0  0  0  0  0  0  0  0  0  0
  152.4156  140.6691  155.3389 H   0  0  0  0  0  0  0  0  0  0  0  0
  152.9005  138.2130  159.6061 H   0  0  0  0  0  0  0  0  0  0  0  0
  151.0693  136.7601  160.4454 H   0  0  0  0  0  0  0  0  0  0  0  0
  148.9614  136.5187  159.1526 H   0  0  0  0  0  0  0  0  0  0  0  0
  148.6708  137.7350  156.9986 H   0  0  0  0  0  0  0  0  0  0  0  0
  148.8375  143.2707  156.4093 H   0  0  0  0  0  0  0  0  0  0  0  0
  1  2  1  0  0  0  0
  1 23  1  0  0  0  0
  1 24  1  0  0  0  0
  1 25  1  0  0  0  0
  2  3  1  0  0  0  0
  2 10  1  0  0  0  0
  2 44  1  0  0  0  0
  3  4  1  0  0  0  0
  3 26  1  0  0  0  0
  3 27  1  0  0  0  0
  4  9  1  0  0  0  0
  4  5  2  0  0  0  0
  5  6  1  0  0  0  0
  5 28  1  0  0  0  0
  6  7  2  0  0  0  0
  6 29  1  0  0  0  0
  7  8  1  0  0  0  0
  7 30  1  0  0  0  0
  8  9  2  0  0  0  0
  8 31  1  0  0  0  0
  9 32  1  0  0  0  0
 10 11  1  0  0  0  0
 10 33  1  0  0  0  0
 10 34  1  0  0  0  0
 11 12  1  0  0  0  0
 11 13  1  0  0  0  0
 11 35  1  0  0  0  0
 12 36  1  0  0  0  0
 13 14  1  0  0  0  0
 13 37  1  0  0  0  0
 13 38  1  0  0  0  0
 14 22  1  0  0  0  0
 14 15  1  0  0  0  0
 15 16  2  0  0  0  0
 15 39  1  0  0  0  0
 16 17  1  0  0  0  0
 17 22  2  0  0  0  0
 17 18  1  0  0  0  0
 18 19  2  0  0  0  0
 18 40  1  0  0  0  0
 19 20  1  0  0  0  0
 19 41  1  0  0  0  0
 20 21  2  0  0  0  0
 20 42  1  0  0  0  0
 21 22  1  0  0  0  0
 21 43  1  0  0  0  0
M  CHG  1   2   1
M  END
> <s_m_source_file>
AV-unprocessed.smi

> <i_m_source_file_index>
1019

> <i_lp_mmshare_version>
43012

> <i_f3d_flags>
0

> <s_epik_input>
W2NIXTFbY0hdW2NIXVtjSF1bY0hdYzFbQ0gyXU4oW0NIM10pW0NIMl1bQ0BIXShbT0hdKVtDSDJdbihbY0hdbjIpYyhjMjMpW2NIXVtjSF1bY0hdW2NIXTM=

> <s_epik_cmdline>
J2VwaWtfcHl0aG9uJywgJy1waCcsICc3LjAnLCAnLXRuJywgJzgnLCAnLW1hJywgJzIwMCcsICctbWV0YWxfYmluZGluZycsICctaW1hZScsICc8aW5maWxlLm1hZT4nLCAnLW9tYWUnLCAnPG91dGZpbGUubWFlPic=

> <r_epik_Ionization_Penalty>
0.0996557

> <r_epik_Ionization_Penalty_Charging>
0.0475377

> <r_epik_Ionization_Penalty_Neutral>
0.0521179

> <r_epik_State_Penalty>
0.0851777

> <r_epik_Charging_Adjusted_Penalty>
0.132715

> <i_epik_Tot_Q>
1

> <i_epik_Tot_abs_Q>
1

> <r_epik_Metal_State_Penalty>
0.0423478

> <b_epik_Metal_Only>
0

> <s_lp_Force_Field>
OPLS_2005

> <r_lp_Energy>
15.2714

> <b_lp_Chiralities_Consistent>
1

> <s_lp_Variant>
AV-unprocessed.smi:1019-1

> <Gold.Version>
5.8.1

> <Gold.Id.Protein>
6NUR|6NUR_protein|mol2

> <Gold.PLP.Fitness>
56.1014

> <Gold.PLP.PLP>
-44.6152

> <Gold.PLP.part.hbond>
-4.7943

> <Gold.PLP.part.metal>
0.0000

> <Gold.PLP.part.buried>
-2.5013

> <Gold.PLP.part.nonpolar>
-35.6452

> <Gold.PLP.part.repulsive>
0.0031

> <Gold.PLP.ligand.clash>
0.0000

> <Gold.PLP.ligand.torsion>
1.4814

> <Gold.PLP.Chemscore.Hbond>
4.6320

> <Gold.PLP.Chemscore.CHOScore>
0.0000

> <Gold.PLP.Chemscore.Metal>
0.0000

> <Gold.Chemscore.Hbonds>
donor molecule, donor type, donor heavy atom, donor atom, acceptor molecule, acceptor atom, score
      L1  H     2    44       P1  8028  2.00
      L1  H    12    36       P1  7957  0.64
      P1  H  7997  8008       L1    16  1.00
      P1  H  8011  8017       L1    12  0.98

> <Gold.PLP.Chemscore.Internal.Correction>
0.5529

> <Gold.Rescore>
     Score         DG    S(hbond)    S(metal)    S(lipo)     H(rot)  DE(clash)    DE(int)     intcor
     20.32     -23.27       3.15        0.00     113.70       2.36       0.24       2.71       ----

> <Gold.Chemscore.Fitness>
20.3178

> <Gold.Chemscore.DG>
-23.2691

> <Gold.Chemscore.ZeroCoef>
-5.4800

> <Gold.Chemscore.Hbond>
3.1534

> <Gold.Chemscore.Metal>
0.0000

> <Gold.Chemscore.Lipo>
113.6981

> <Gold.Chemscore.Internal_Hbond>
0.0000

> <Gold.Chemscore.DEClash>
0.2404

> <Gold.Chemscore.DEInternal>
2.7109

> <Gold.Chemscore.Rot>
2.3616

> <Gold.Chemscore.Internal.Correction>
   9.000000E+99

> <Gold.Chemscore.Hbonds>
donor molecule, donor type, donor heavy atom, donor atom, acceptor molecule, acceptor atom, score
      L1  H     2    44       P1  8028  0.95
      L1  H    12    36       P1  7957  0.64
      P1  H  7997  8008       L1    16  0.50
      P1  H  8011  8017       L1    12  0.53

> <Gold.Chemscore.Hbond.Weighted>
-10.5322

> <Gold.Chemscore.Metal.Weighted>
-0.0000

> <Gold.Chemscore.Lipo.Weighted>
-13.3027

> <Gold.Chemscore.Internal_Hbond.Weighted>
0.0000

> <Gold.Chemscore.DEClash.Weighted>
0.2404

> <Gold.Chemscore.DEInternal.Weighted>
2.7109

> <Gold.Chemscore.Rot.Weighted>
6.0457

> <Gold.Chemscore.Internal.Correction.Weighted>
   9.000000E+99

> <Gold.Protein.RotatedTorsions>
[ 6907 6896 6895 6894 ] final  -20.10 input  -60.11 | X-H torsion
[ 7974 7965 7964 7962 ] final  160.23 input  175.53 | X-H torsion
[ 8008 7997 7996 7995 ] final  -67.32 input   59.86 | X-H torsion
[ 10167 10162 10161 10158 ] final   45.07 input  -65.29 | X-H torsion
[ 10718 10713 10712 10709 ] final   -7.30 input   66.30 | X-H torsion
[ 10763 10752 10751 10750 ] final   66.29 input  -60.55 | X-H torsion
[ 11005 11000 10999 10996 ] final   54.09 input  -57.11 | X-H torsion

> <Gold.Protein.ActiveResidues>
 VAL166  LYS551  ARG553  GLY616  TRP617  ASP618  TYR619  PRO620  LYS621  CYS622 
 ASP623  PHE694  ASN695  SER759  ASP760  ASP761  ALA762  ILE779  LEU786  VAL792 
 PHE793  MET794  SER795  GLU796  ALA797  LYS798  CYS799  TRP800  GLU811  SER814 

> <Gold.Protein.RotatedAtoms>
  151.2532  135.0629  159.9069 H   0  0  0  0  0  0  0  0  0  0  0  0  # atno 6907 bound_to 6896
  152.5377  134.0309  159.8035 H   0  0  0  0  0  0  0  0  0  0  0  0  # atno 6908 bound_to 6896
  151.0521  133.5566  159.2672 H   0  0  0  0  0  0  0  0  0  0  0  0  # atno 6909 bound_to 6896
  144.7748  139.7728  143.6283 H   0  0  0  0  0  0  0  0  0  0  0  0  # atno 7974 bound_to 7965
  154.4792  140.0895  156.7336 H   0  0  0  0  0  0  0  0  0  0  0  0  # atno 8008 bound_to 7997
  155.4515  140.3457  155.4283 H   0  0  0  0  0  0  0  0  0  0  0  0  # atno 8009 bound_to 7997
  156.1165  140.1462  156.9254 H   0  0  0  0  0  0  0  0  0  0  0  0  # atno 8010 bound_to 7997
  140.3279  144.2625  150.6172 H   0  0  0  0  0  0  0  0  0  0  0  0  # atno 10167 bound_to 10162
  156.7192  130.5145  149.5872 H   0  0  0  0  0  0  0  0  0  0  0  0  # atno 10718 bound_to 10713
  153.0133  135.5326  154.6800 H   0  0  0  0  0  0  0  0  0  0  0  0  # atno 10763 bound_to 10752
  154.5963  135.2863  155.0585 H   0  0  0  0  0  0  0  0  0  0  0  0  # atno 10764 bound_to 10752
  154.1659  135.6540  153.5050 H   0  0  0  0  0  0  0  0  0  0  0  0  # atno 10765 bound_to 10752
  140.0715  134.5464  155.9042 H   0  0  0  0  0  0  0  0  0  0  0  0  # atno 11005 bound_to 11000
  146.1920  139.5165  142.9799 LP  0  0  0  0  0  0  0  0  0  0  0  0  # atno 17320 bound_to 7965
  145.6218  141.0321  143.1911 LP  0  0  0  0  0  0  0  0  0  0  0  0  # atno 17321 bound_to 7965
  140.5424  143.2221  151.8063 LP  0  0  0  0  0  0  0  0  0  0  0  0  # atno 17342 bound_to 10162
  139.4862  144.4583  151.9572 LP  0  0  0  0  0  0  0  0  0  0  0  0  # atno 17343 bound_to 10162
  156.1606  130.6371  151.0714 LP  0  0  0  0  0  0  0  0  0  0  0  0  # atno 17370 bound_to 10713
  157.6905  131.0811  150.7122 LP  0  0  0  0  0  0  0  0  0  0  0  0  # atno 17371 bound_to 10713
  141.2013  133.6618  156.5945 LP  0  0  0  0  0  0  0  0  0  0  0  0  # atno 17394 bound_to 11000
  140.3621  134.7679  157.4541 LP  0  0  0  0  0  0  0  0  0  0  0  0  # atno 17395 bound_to 11000

$$$$
