AV-unprocessed.smi:1265|AV-procd|sdf|5317|dock6
  -GOLD-   22720 4443D 1   1.00000     0.00000
 Structure written by MMmdl.
 45 47  0  0  0  0  0  0  0  0  2 V2000
  144.5721  136.2938  153.6252 O   0  0  0  0  0  0  0  0  0  0  0  0
  145.6487  136.3015  153.0299 C   0  0  0  0  0  0  0  0  0  0  0  0
  146.6502  137.1432  153.3220 N   0  0  0  0  0  0  0  0  0  0  0  0
  146.6286  138.1765  154.3569 C   0  0  0  0  0  0  0  0  0  0  0  0
  147.9265  139.0503  154.3594 C   0  0  1  0  0  0  0  0  0  0  0  0
  149.1414  138.1778  154.3845 N   0  0  0  0  0  0  0  0  0  0  0  0
  150.4343  138.8719  154.4797 C   0  0  0  0  0  0  0  0  0  0  0  0
  151.6277  137.9029  154.4202 C   0  0  0  0  0  0  0  0  0  0  0  0
  151.5100  136.9283  155.4477 O   0  0  0  0  0  0  0  0  0  0  0  0
  150.3072  136.1800  155.3397 C   0  0  0  0  0  0  0  0  0  0  0  0
  149.0995  137.1292  155.4134 C   0  0  0  0  0  0  0  0  0  0  0  0
  147.8692  139.9941  153.1230 C   0  0  0  0  0  0  0  0  0  0  0  0
  146.7869  141.0558  153.3472 C   0  0  0  0  0  0  0  0  0  0  0  0
  146.7319  141.4023  155.1210 S   0  0  0  0  0  0  0  0  0  0  0  0
  147.8435  140.0350  155.5541 C   0  0  0  0  0  0  0  0  0  0  0  0
  145.9883  135.4837  152.0181 N   0  0  0  0  0  0  0  0  0  0  0  0
  145.2402  134.4352  151.4132 C   0  0  0  0  0  0  0  0  0  0  0  0
  145.9286  133.5892  150.5147 C   0  0  0  0  0  0  0  0  0  0  0  0
  145.2390  132.5371  149.8785 C   0  0  0  0  0  0  0  0  0  0  0  0
  143.9259  132.3474  150.1267 N   0  3  0  0  0  0  0  0  0  0  0  0
  143.2221  133.1337  150.9688 C   0  0  0  0  0  0  0  0  0  0  0  0
  143.8576  134.2026  151.6333 C   0  0  0  0  0  0  0  0  0  0  0  0
  147.4956  137.0824  152.7736 H   0  0  0  0  0  0  0  0  0  0  0  0
  145.7312  138.7874  154.2634 H   0  0  0  0  0  0  0  0  0  0  0  0
  146.4907  137.6782  155.3153 H   0  0  0  0  0  0  0  0  0  0  0  0
  150.5653  139.5717  153.6579 H   0  0  0  0  0  0  0  0  0  0  0  0
  150.4968  139.4446  155.4043 H   0  0  0  0  0  0  0  0  0  0  0  0
  151.6791  137.4123  153.4467 H   0  0  0  0  0  0  0  0  0  0  0  0
  152.5629  138.4470  154.5532 H   0  0  0  0  0  0  0  0  0  0  0  0
  150.3005  135.6171  154.4049 H   0  0  0  0  0  0  0  0  0  0  0  0
  150.2668  135.4531  156.1510 H   0  0  0  0  0  0  0  0  0  0  0  0
  149.0640  137.5812  156.4052 H   0  0  0  0  0  0  0  0  0  0  0  0
  148.2057  136.5176  155.3148 H   0  0  0  0  0  0  0  0  0  0  0  0
  148.7949  140.5539  153.0109 H   0  0  0  0  0  0  0  0  0  0  0  0
  147.7211  139.4587  152.1854 H   0  0  0  0  0  0  0  0  0  0  0  0
  146.9902  141.9664  152.7831 H   0  0  0  0  0  0  0  0  0  0  0  0
  145.8112  140.6891  153.0284 H   0  0  0  0  0  0  0  0  0  0  0  0
  147.5079  139.5530  156.4728 H   0  0  0  0  0  0  0  0  0  0  0  0
  148.8107  140.4858  155.7691 H   0  0  0  0  0  0  0  0  0  0  0  0
  146.9266  135.5983  151.6638 H   0  0  0  0  0  0  0  0  0  0  0  0
  146.9796  133.7397  150.3140 H   0  0  0  0  0  0  0  0  0  0  0  0
  145.6951  131.8480  149.1827 H   0  0  0  0  0  0  0  0  0  0  0  0
  142.1760  132.8892  151.0822 H   0  0  0  0  0  0  0  0  0  0  0  0
  143.2646  134.8209  152.2882 H   0  0  0  0  0  0  0  0  0  0  0  0
  143.4444  131.5807  149.6559 H   0  0  0  0  0  0  0  0  0  0  0  0
  1  2  2  0  0  0  0
  2  3  1  0  0  0  0
  2 16  1  0  0  0  0
  3  4  1  0  0  0  0
  3 23  1  0  0  0  0
  4  5  1  0  0  0  0
  4 24  1  0  0  0  0
  4 25  1  0  0  0  0
  5 15  1  0  0  0  0
  5  6  1  0  0  0  0
  5 12  1  0  0  0  0
  6 11  1  0  0  0  0
  6  7  1  0  0  0  0
  7  8  1  0  0  0  0
  7 26  1  0  0  0  0
  7 27  1  0  0  0  0
  8  9  1  0  0  0  0
  8 28  1  0  0  0  0
  8 29  1  0  0  0  0
  9 10  1  0  0  0  0
 10 11  1  0  0  0  0
 10 30  1  0  0  0  0
 10 31  1  0  0  0  0
 11 32  1  0  0  0  0
 11 33  1  0  0  0  0
 12 13  1  0  0  0  0
 12 34  1  0  0  0  0
 12 35  1  0  0  0  0
 13 14  1  0  0  0  0
 13 36  1  0  0  0  0
 13 37  1  0  0  0  0
 14 15  1  0  0  0  0
 15 38  1  0  0  0  0
 15 39  1  0  0  0  0
 16 17  1  0  0  0  0
 16 40  1  0  0  0  0
 17 22  1  0  0  0  0
 17 18  2  0  0  0  0
 18 19  1  0  0  0  0
 18 41  1  0  0  0  0
 19 20  2  0  0  0  0
 19 42  1  0  0  0  0
 20 21  1  0  0  0  0
 20 45  1  0  0  0  0
 21 22  2  0  0  0  0
 21 43  1  0  0  0  0
 22 44  1  0  0  0  0
M  CHG  1  20   1
M  END
> <s_m_source_file>
AV-unprocessed.smi

> <i_m_source_file_index>
1265

> <i_lp_mmshare_version>
43012

> <i_f3d_flags>
0

> <s_epik_input>
W2NIXTFbY0hdbltjSF1bY0hdYzFbTkhdQyg9TylbTkhdW0NIMl1bQ0BdMihbQ0gyXVtDSDJdU1tDSDJdMilOM1tDSDJdW0NIMl1PW0NIMl1bQ0gyXTM=

> <s_epik_cmdline>
J2VwaWtfcHl0aG9uJywgJy1waCcsICc3LjAnLCAnLXRuJywgJzgnLCAnLW1hJywgJzIwMCcsICctbWV0YWxfYmluZGluZycsICctaW1hZScsICc8aW5maWxlLm1hZT4nLCAnLW9tYWUnLCAnPG91dGZpbGUubWFlPic=

> <r_epik_Ionization_Penalty>
1.06168

> <r_epik_Ionization_Penalty_Charging>
1.04215

> <r_epik_Ionization_Penalty_Neutral>
0.019527

> <r_epik_State_Penalty>
1.12733

> <r_epik_Charging_Adjusted_Penalty>
2.16948

> <i_epik_Tot_Q>
1

> <i_epik_Tot_abs_Q>
1

> <r_epik_Metal_State_Penalty>
1.22116

> <b_epik_Metal_Only>
0

> <s_lp_Force_Field>
OPLS_2005

> <r_lp_Energy>
64.97

> <b_lp_Chiralities_Consistent>
1

> <s_lp_Variant>
AV-unprocessed.smi:1265-3

> <Gold.Version>
5.8.1

> <Gold.Id.Protein>
6NUR|6NUR_protein|mol2

> <Gold.PLP.Fitness>
39.4533

> <Gold.PLP.PLP>
-30.7986

> <Gold.PLP.part.hbond>
-3.0000

> <Gold.PLP.part.metal>
0.0000

> <Gold.PLP.part.buried>
-2.1571

> <Gold.PLP.part.nonpolar>
-27.1493

> <Gold.PLP.part.repulsive>
0.5475

> <Gold.PLP.ligand.clash>
0.0000

> <Gold.PLP.ligand.torsion>
0.2120

> <Gold.PLP.Chemscore.Hbond>
3.0000

> <Gold.PLP.Chemscore.CHOScore>
0.0000

> <Gold.PLP.Chemscore.Metal>
0.0000

> <Gold.Chemscore.Hbonds>
donor molecule, donor type, donor heavy atom, donor atom, acceptor molecule, acceptor atom, score
      L1  H     3    23       P1  7948  1.00
      L1  H    16    40       P1  7948  0.84
      P1  H 10752 10765       L1     9  0.68

> <Gold.PLP.Chemscore.Internal.Correction>
0.0785

> <Gold.Rescore>
     Score         DG    S(hbond)    S(metal)    S(lipo)     H(rot)  DE(clash)    DE(int)     intcor
     15.89     -19.24       2.04        0.00      91.51       1.47       1.78       1.57       ----

> <Gold.Chemscore.Fitness>
15.8917

> <Gold.Chemscore.DG>
-19.2417

> <Gold.Chemscore.ZeroCoef>
-5.4800

> <Gold.Chemscore.Hbond>
2.0446

> <Gold.Chemscore.Metal>
0.0000

> <Gold.Chemscore.Lipo>
91.5131

> <Gold.Chemscore.Internal_Hbond>
0.0000

> <Gold.Chemscore.DEClash>
1.7766

> <Gold.Chemscore.DEInternal>
1.5734

> <Gold.Chemscore.Rot>
1.4743

> <Gold.Chemscore.Internal.Correction>
   9.000000E+99

> <Gold.Chemscore.Hbonds>
donor molecule, donor type, donor heavy atom, donor atom, acceptor molecule, acceptor atom, score
      L1  H     3    23       P1  7948  0.99
      L1  H    16    40       P1  7948  0.80
      P1  H 10752 10765       L1     9  0.10

> <Gold.Chemscore.Hbond.Weighted>
-6.8289

> <Gold.Chemscore.Metal.Weighted>
-0.0000

> <Gold.Chemscore.Lipo.Weighted>
-10.7070

> <Gold.Chemscore.Internal_Hbond.Weighted>
0.0000

> <Gold.Chemscore.DEClash.Weighted>
1.7766

> <Gold.Chemscore.DEInternal.Weighted>
1.5734

> <Gold.Chemscore.Rot.Weighted>
3.7742

> <Gold.Chemscore.Internal.Correction.Weighted>
   9.000000E+99

> <Gold.Protein.RotatedTorsions>
[ 6907 6896 6895 6894 ] final -107.85 input  -60.11 | X-H torsion
[ 7974 7965 7964 7962 ] final   48.61 input  175.53 | X-H torsion
[ 8008 7997 7996 7995 ] final -115.45 input   59.86 | X-H torsion
[ 10167 10162 10161 10158 ] final  106.48 input  -65.29 | X-H torsion
[ 10718 10713 10712 10709 ] final   13.00 input   66.30 | X-H torsion
[ 10763 10752 10751 10750 ] final -158.67 input  -60.55 | X-H torsion
[ 11005 11000 10999 10996 ] final   61.93 input  -57.11 | X-H torsion

> <Gold.Protein.ActiveResidues>
 VAL166  LYS551  ARG553  GLY616  TRP617  ASP618  TYR619  PRO620  LYS621  CYS622 
 ASP623  PHE694  ASN695  SER759  ASP760  ASP761  ALA762  ILE779  LEU786  VAL792 
 PHE793  MET794  SER795  GLU796  ALA797  LYS798  CYS799  TRP800  GLU811  SER814 

> <Gold.Protein.RotatedAtoms>
  150.7467  133.9765  159.3562 H   0  0  0  0  0  0  0  0  0  0  0  0  # atno 6907 bound_to 6896
  151.7703  135.0786  160.0368 H   0  0  0  0  0  0  0  0  0  0  0  0  # atno 6908 bound_to 6896
  152.3344  133.5957  159.5868 H   0  0  0  0  0  0  0  0  0  0  0  0  # atno 6909 bound_to 6896
  146.0188  139.4627  142.9910 H   0  0  0  0  0  0  0  0  0  0  0  0  # atno 7974 bound_to 7965
  155.0523  140.0393  157.2548 H   0  0  0  0  0  0  0  0  0  0  0  0  # atno 8008 bound_to 7997
  154.7128  140.2696  155.6590 H   0  0  0  0  0  0  0  0  0  0  0  0  # atno 8009 bound_to 7997
  156.2794  140.2718  156.1774 H   0  0  0  0  0  0  0  0  0  0  0  0  # atno 8010 bound_to 7997
  139.7005  144.7095  151.1193 H   0  0  0  0  0  0  0  0  0  0  0  0  # atno 10167 bound_to 10162
  157.0183  130.6144  149.5717 H   0  0  0  0  0  0  0  0  0  0  0  0  # atno 10718 bound_to 10713
  154.7538  135.3099  154.8509 H   0  0  0  0  0  0  0  0  0  0  0  0  # atno 10763 bound_to 10752
  153.9289  135.6787  153.4750 H   0  0  0  0  0  0  0  0  0  0  0  0  # atno 10764 bound_to 10752
  153.1134  135.4856  154.9003 H   0  0  0  0  0  0  0  0  0  0  0  0  # atno 10765 bound_to 10752
  140.0127  134.6272  155.9757 H   0  0  0  0  0  0  0  0  0  0  0  0  # atno 11005 bound_to 11000
  145.7226  141.0070  143.1394 LP  0  0  0  0  0  0  0  0  0  0  0  0  # atno 17320 bound_to 7965
  144.6981  139.8888  143.7452 LP  0  0  0  0  0  0  0  0  0  0  0  0  # atno 17321 bound_to 7965
  140.7708  143.5430  150.9291 LP  0  0  0  0  0  0  0  0  0  0  0  0  # atno 17342 bound_to 10162
  139.9112  143.6718  152.3115 LP  0  0  0  0  0  0  0  0  0  0  0  0  # atno 17343 bound_to 10162
  156.0111  130.5203  150.7992 LP  0  0  0  0  0  0  0  0  0  0  0  0  # atno 17370 bound_to 10713
  157.5269  131.0934  151.0006 LP  0  0  0  0  0  0  0  0  0  0  0  0  # atno 17371 bound_to 10713
  141.1722  133.6538  156.4693 LP  0  0  0  0  0  0  0  0  0  0  0  0  # atno 17394 bound_to 11000
  140.4526  134.6914  157.5047 LP  0  0  0  0  0  0  0  0  0  0  0  0  # atno 17395 bound_to 11000

$$$$
