AV-unprocessed.smi:528|AV-procd|sdf|2837|dock5
  -GOLD-   2262023323D 1   1.00000     0.00000
 Structure written by MMmdl.
 45 47  0  0  0  0  0  0  0  0  1 V2000
  147.9158  136.7222  156.2048 C   0  0  0  0  0  0  0  0  0  0  0  0
  149.0519  137.5687  156.7988 C   0  0  2  0  0  0  0  0  0  0  0  0
  148.9319  137.5539  158.2563 N   0  0  0  0  0  0  0  0  0  0  0  0
  149.2360  136.5276  159.0663 C   0  0  0  0  0  0  0  0  0  0  0  0
  149.6377  135.4373  158.6573 O   0  0  0  0  0  0  0  0  0  0  0  0
  149.0564  136.7903  160.5683 C   0  0  0  0  0  0  0  0  0  0  0  0
  148.0765  135.8916  161.2001 N   0  0  0  0  0  0  0  0  0  0  0  0
  148.2187  134.5149  160.9375 C   0  0  0  0  0  0  0  0  0  0  0  0
  147.3775  133.5842  161.4267 C   0  0  0  0  0  0  0  0  0  0  0  0
  147.5836  132.1018  161.1575 C   0  0  0  0  0  0  0  0  0  0  0  0
  146.6270  131.3709  161.7301 F   0  0  0  0  0  0  0  0  0  0  0  0
  147.5533  131.8714  159.8456 F   0  0  0  0  0  0  0  0  0  0  0  0
  148.7627  131.6881  161.6236 F   0  0  0  0  0  0  0  0  0  0  0  0
  146.3146  134.0645  162.2877 C   0  0  0  0  0  0  0  0  0  0  0  0
  146.1670  135.3775  162.5523 C   0  0  0  0  0  0  0  0  0  0  0  0
  147.0717  136.3810  161.9865 C   0  0  0  0  0  0  0  0  0  0  0  0
  146.9343  137.5846  162.2060 O   0  0  0  0  0  0  0  0  0  0  0  0
  149.0290  139.0308  156.2876 C   0  0  1  0  0  0  0  0  0  0  0  0
  149.9421  140.0136  157.0584 C   0  0  0  0  0  0  0  0  0  0  0  0
  150.7064  140.7348  155.9332 C   0  0  1  0  0  0  0  0  0  0  0  0
  151.7609  139.7765  155.3503 C   0  0  0  0  0  0  0  0  0  0  0  0
  150.9031  138.7743  154.5570 C   0  0  0  0  0  0  0  0  0  0  0  0
  149.4653  139.2686  154.8202 C   0  0  2  0  0  0  0  0  0  0  0  0
  149.6702  140.7806  154.8164 C   0  0  0  0  0  0  0  0  0  0  0  0
  148.0076  136.6385  155.1217 H   0  0  0  0  0  0  0  0  0  0  0  0
  146.9394  137.1551  156.4246 H   0  0  0  0  0  0  0  0  0  0  0  0
  147.9298  135.7095  156.6091 H   0  0  0  0  0  0  0  0  0  0  0  0
  149.9940  137.1016  156.5117 H   0  0  0  0  0  0  0  0  0  0  0  0
  148.6035  138.4061  158.6869 H   0  0  0  0  0  0  0  0  0  0  0  0
  150.0228  136.6823  161.0640 H   0  0  0  0  0  0  0  0  0  0  0  0
  148.7823  137.8371  160.7089 H   0  0  0  0  0  0  0  0  0  0  0  0
  149.0557  134.2645  160.3017 H   0  0  0  0  0  0  0  0  0  0  0  0
  145.6215  133.3608  162.7248 H   0  0  0  0  0  0  0  0  0  0  0  0
  145.3616  135.6998  163.1961 H   0  0  0  0  0  0  0  0  0  0  0  0
  148.0023  139.3912  156.3793 H   0  0  0  0  0  0  0  0  0  0  0  0
  149.3433  140.7148  157.6407 H   0  0  0  0  0  0  0  0  0  0  0  0
  150.6270  139.5165  157.7457 H   0  0  0  0  0  0  0  0  0  0  0  0
  151.1117  141.7023  156.2301 H   0  0  0  0  0  0  0  0  0  0  0  0
  152.4450  140.3056  154.6858 H   0  0  0  0  0  0  0  0  0  0  0  0
  152.3552  139.2925  156.1264 H   0  0  0  0  0  0  0  0  0  0  0  0
  151.1363  138.8404  153.4935 H   0  0  0  0  0  0  0  0  0  0  0  0
  151.0712  137.7412  154.8579 H   0  0  0  0  0  0  0  0  0  0  0  0
  148.7412  138.9133  154.0864 H   0  0  0  0  0  0  0  0  0  0  0  0
  148.7729  141.3430  155.0808 H   0  0  0  0  0  0  0  0  0  0  0  0
  150.0664  141.1632  153.8741 H   0  0  0  0  0  0  0  0  0  0  0  0
  1  2  1  0  0  0  0
  1 25  1  0  0  0  0
  1 26  1  0  0  0  0
  1 27  1  0  0  0  0
  2  3  1  0  0  0  0
  2 18  1  0  0  0  0
  2 28  1  0  0  0  0
  3  4  1  0  0  0  0
  3 29  1  0  0  0  0
  4  5  2  0  0  0  0
  4  6  1  0  0  0  0
  6  7  1  0  0  0  0
  6 30  1  0  0  0  0
  6 31  1  0  0  0  0
  7 16  1  0  0  0  0
  7  8  1  0  0  0  0
  8  9  2  0  0  0  0
  8 32  1  0  0  0  0
  9 10  1  0  0  0  0
  9 14  1  0  0  0  0
 10 11  1  0  0  0  0
 10 12  1  0  0  0  0
 10 13  1  0  0  0  0
 14 15  2  0  0  0  0
 14 33  1  0  0  0  0
 15 16  1  0  0  0  0
 15 34  1  0  0  0  0
 16 17  2  0  0  0  0
 18 23  1  0  0  0  0
 18 19  1  0  0  0  0
 18 35  1  0  0  0  0
 19 20  1  0  0  0  0
 19 36  1  0  0  0  0
 19 37  1  0  0  0  0
 20 24  1  0  0  0  0
 20 21  1  0  0  0  0
 20 38  1  0  0  0  0
 21 22  1  0  0  0  0
 21 39  1  0  0  0  0
 21 40  1  0  0  0  0
 22 23  1  0  0  0  0
 22 41  1  0  0  0  0
 22 42  1  0  0  0  0
 23 24  1  0  0  0  0
 23 43  1  0  0  0  0
 24 44  1  0  0  0  0
 24 45  1  0  0  0  0
M  END
> <s_m_source_file>
AV-unprocessed.smi

> <i_m_source_file_index>
528

> <i_lp_mmshare_version>
43012

> <i_f3d_flags>
0

> <s_epik_input>
W0NIMl0xW0NIMl1bQ0BASF0oW0NIMl0yKVtDQEBIXShbQ0gyXVtDQEhdMTIpW0NASF0oW0NIM10pW05IXUMoPU8pW0NIMl1uM1tjSF1jKEMoRikoRilGKVtjSF1bY0hdYzM9Tw==

> <s_epik_cmdline>
J2VwaWtfcHl0aG9uJywgJy1waCcsICc3LjAnLCAnLXRuJywgJzgnLCAnLW1hJywgJzIwMCcsICctbWV0YWxfYmluZGluZycsICctaW1hZScsICc8aW5maWxlLm1hZT4nLCAnLW9tYWUnLCAnPG91dGZpbGUubWFlPic=

> <r_lp_tautomer_probability>
1

> <r_epik_Ionization_Penalty>
4.09479e-08

> <r_epik_Ionization_Penalty_Charging>
1.9321e-08

> <r_epik_Ionization_Penalty_Neutral>
2.16269e-08

> <r_epik_State_Penalty>
-0

> <r_epik_Charging_Adjusted_Penalty>
1.9321e-08

> <i_epik_Tot_Q>
0

> <i_epik_Tot_abs_Q>
0

> <r_epik_Metal_State_Penalty>
-0

> <b_epik_Metal_Only>
0

> <s_lp_Force_Field>
OPLS_2005

> <r_lp_Energy>
63.2054

> <b_lp_Chiralities_Consistent>
1

> <s_lp_Variant>
AV-unprocessed.smi:528-7

> <Gold.Version>
5.8.1

> <Gold.Id.Protein>
6NUR|6NUR_protein|mol2

> <Gold.PLP.Fitness>
44.8845

> <Gold.PLP.PLP>
-39.0949

> <Gold.PLP.part.hbond>
-3.0000

> <Gold.PLP.part.metal>
0.0000

> <Gold.PLP.part.buried>
-0.4366

> <Gold.PLP.part.nonpolar>
-34.4271

> <Gold.PLP.part.repulsive>
0.0988

> <Gold.PLP.ligand.clash>
0.0000

> <Gold.PLP.ligand.torsion>
0.4995

> <Gold.PLP.Chemscore.Hbond>
2.2476

> <Gold.PLP.Chemscore.CHOScore>
0.0000

> <Gold.PLP.Chemscore.Metal>
0.0000

> <Gold.Chemscore.Hbonds>
donor molecule, donor type, donor heavy atom, donor atom, acceptor molecule, acceptor atom, score
      P1  H  6896  6908       L1     5  1.00
      P1  H  6931  6943       L1    17  0.34
      P1  H  6934  6947       L1    17  0.62

> <Gold.PLP.Chemscore.Internal.Correction>
0.0457

> <Gold.Rescore>
     Score         DG    S(hbond)    S(metal)    S(lipo)     H(rot)  DE(clash)    DE(int)     intcor
     14.13     -16.56       1.78        0.00      81.23       1.71       0.41       2.02       ----

> <Gold.Chemscore.Fitness>
14.1330

> <Gold.Chemscore.DG>
-16.5592

> <Gold.Chemscore.ZeroCoef>
-5.4800

> <Gold.Chemscore.Hbond>
1.7844

> <Gold.Chemscore.Metal>
0.0000

> <Gold.Chemscore.Lipo>
81.2254

> <Gold.Chemscore.Internal_Hbond>
0.0000

> <Gold.Chemscore.DEClash>
0.4075

> <Gold.Chemscore.DEInternal>
2.0186

> <Gold.Chemscore.Rot>
1.7125

> <Gold.Chemscore.Internal.Correction>
   9.000000E+99

> <Gold.Chemscore.Hbonds>
donor molecule, donor type, donor heavy atom, donor atom, acceptor molecule, acceptor atom, score
      P1  H  6896  6908       L1     5  0.98
      P1  H  6931  6943       L1    17  0.08
      P1  H  6934  6947       L1    17  0.64

> <Gold.Chemscore.Hbond.Weighted>
-5.9598

> <Gold.Chemscore.Metal.Weighted>
-0.0000

> <Gold.Chemscore.Lipo.Weighted>
-9.5034

> <Gold.Chemscore.Internal_Hbond.Weighted>
0.0000

> <Gold.Chemscore.DEClash.Weighted>
0.4075

> <Gold.Chemscore.DEInternal.Weighted>
2.0186

> <Gold.Chemscore.Rot.Weighted>
4.3840

> <Gold.Chemscore.Internal.Correction.Weighted>
   9.000000E+99

> <Gold.Protein.RotatedTorsions>
[ 6907 6896 6895 6894 ] final  165.53 input  -60.11 | X-H torsion
[ 7974 7965 7964 7962 ] final -121.96 input  175.53 | X-H torsion
[ 8008 7997 7996 7995 ] final   75.42 input   59.86 | X-H torsion
[ 10167 10162 10161 10158 ] final  109.51 input  -65.29 | X-H torsion
[ 10718 10713 10712 10709 ] final  -21.74 input   66.30 | X-H torsion
[ 10763 10752 10751 10750 ] final   83.10 input  -60.55 | X-H torsion
[ 11005 11000 10999 10996 ] final -114.52 input  -57.11 | X-H torsion

> <Gold.Protein.ActiveResidues>
 VAL166  LYS551  ARG553  GLY616  TRP617  ASP618  TYR619  PRO620  LYS621  CYS622 
 ASP623  PHE694  ASN695  SER759  ASP760  ASP761  ALA762  ILE779  LEU786  VAL792 
 PHE793  MET794  SER795  GLU796  ALA797  LYS798  CYS799  TRP800  GLU811  SER814 

> <Gold.Protein.RotatedAtoms>
  151.8930  133.3520  159.3804 H   0  0  0  0  0  0  0  0  0  0  0  0  # atno 6907 bound_to 6896
  150.7098  134.4905  159.5522 H   0  0  0  0  0  0  0  0  0  0  0  0  # atno 6908 bound_to 6896
  152.2479  134.8163  160.0501 H   0  0  0  0  0  0  0  0  0  0  0  0  # atno 6909 bound_to 6896
  145.0346  140.8096  143.4303 H   0  0  0  0  0  0  0  0  0  0  0  0  # atno 7974 bound_to 7965
  155.8127  140.3472  155.5467 H   0  0  0  0  0  0  0  0  0  0  0  0  # atno 8008 bound_to 7997
  155.8424  140.0943  157.1746 H   0  0  0  0  0  0  0  0  0  0  0  0  # atno 8009 bound_to 7997
  154.4005  140.1392  156.3732 H   0  0  0  0  0  0  0  0  0  0  0  0  # atno 8010 bound_to 7997
  139.6761  144.7122  151.1599 H   0  0  0  0  0  0  0  0  0  0  0  0  # atno 10167 bound_to 10162
  156.5140  130.4617  149.6632 H   0  0  0  0  0  0  0  0  0  0  0  0  # atno 10718 bound_to 10713
  153.1261  135.4703  154.9275 H   0  0  0  0  0  0  0  0  0  0  0  0  # atno 10763 bound_to 10752
  154.7621  135.3134  154.8359 H   0  0  0  0  0  0  0  0  0  0  0  0  # atno 10764 bound_to 10752
  153.8912  135.6884  153.4814 H   0  0  0  0  0  0  0  0  0  0  0  0  # atno 10765 bound_to 10752
  141.0546  133.9632  157.2776 H   0  0  0  0  0  0  0  0  0  0  0  0  # atno 11005 bound_to 11000
  145.1726  139.2396  143.5334 LP  0  0  0  0  0  0  0  0  0  0  0  0  # atno 17320 bound_to 7965
  146.3502  140.1480  142.8593 LP  0  0  0  0  0  0  0  0  0  0  0  0  # atno 17321 bound_to 7965
  140.7636  143.5769  150.8935 LP  0  0  0  0  0  0  0  0  0  0  0  0  # atno 17342 bound_to 10162
  139.9438  143.6351  152.3047 LP  0  0  0  0  0  0  0  0  0  0  0  0  # atno 17343 bound_to 10162
  156.3213  130.7282  151.2194 LP  0  0  0  0  0  0  0  0  0  0  0  0  # atno 17370 bound_to 10713
  157.7446  131.0455  150.4846 LP  0  0  0  0  0  0  0  0  0  0  0  0  # atno 17371 bound_to 10713
  139.9379  135.0194  156.8616 LP  0  0  0  0  0  0  0  0  0  0  0  0  # atno 17394 bound_to 11000
  140.5988  134.0191  155.7529 LP  0  0  0  0  0  0  0  0  0  0  0  0  # atno 17395 bound_to 11000

$$$$
