AV-unprocessed.smi:1526|AV-procd|sdf|6146|dock9
  -GOLD-   22720 6293D 1   1.00000     0.00000
 Structure written by MMmdl.
 34 35  0  0  0  0  0  0  0  0  3 V2000
  149.9666  141.9100  158.6051 O   0  0  0  0  0  0  0  0  0  0  0  0
  150.5625  142.7162  157.8919 C   0  0  0  0  0  0  0  0  0  0  0  0
  150.2686  142.7394  156.3815 C   0  0  0  0  0  0  0  0  0  0  0  0
  150.0153  141.4182  155.7766 N   0  0  0  0  0  0  0  0  0  0  0  0
  151.0571  140.4725  155.8494 C   0  0  0  0  0  0  0  0  0  0  0  0
  150.9357  139.2320  155.3376 C   0  0  0  0  0  0  0  0  0  0  0  0
  152.0132  138.2714  155.4292 N   0  3  0  0  0  0  0  0  0  0  0  0
  153.1396  138.6747  155.7002 O   0  0  0  0  0  0  0  0  0  0  0  0
  151.7709  137.0843  155.2328 O   0  5  0  0  0  0  0  0  0  0  0  0
  149.6822  138.8879  154.6946 C   0  0  0  0  0  0  0  0  0  0  0  0
  148.6802  139.7863  154.6255 C   0  0  0  0  0  0  0  0  0  0  0  0
  148.8123  141.1335  155.1895 C   0  0  0  0  0  0  0  0  0  0  0  0
  147.8953  141.9534  155.1434 O   0  0  0  0  0  0  0  0  0  0  0  0
  151.4669  143.5815  158.3768 N   0  0  0  0  0  0  0  0  0  0  0  0
  151.8754  143.6674  159.7702 C   0  0  0  0  0  0  0  0  0  0  0  0
  152.5576  142.3725  160.1936 C   0  0  0  0  0  0  0  0  0  0  0  0
  153.2905  142.3007  161.5426 C   0  0  0  0  0  0  0  0  0  0  0  0
  154.3128  141.3705  160.8840 C   0  0  0  0  0  0  0  0  0  0  0  0
  153.8835  141.9603  159.5375 C   0  0  0  0  0  0  0  0  0  0  0  0
  149.4219  143.4050  156.2050 H   0  0  0  0  0  0  0  0  0  0  0  0
  151.1102  143.2232  155.8838 H   0  0  0  0  0  0  0  0  0  0  0  0
  151.9462  140.8242  156.3533 H   0  0  0  0  0  0  0  0  0  0  0  0
  149.5379  137.9079  154.2641 H   0  0  0  0  0  0  0  0  0  0  0  0
  147.7547  139.5090  154.1423 H   0  0  0  0  0  0  0  0  0  0  0  0
  151.9153  144.2147  157.7311 H   0  0  0  0  0  0  0  0  0  0  0  0
  152.5512  144.5141  159.8974 H   0  0  0  0  0  0  0  0  0  0  0  0
  151.0002  143.8610  160.3925 H   0  0  0  0  0  0  0  0  0  0  0  0
  151.8628  141.5316  160.1299 H   0  0  0  0  0  0  0  0  0  0  0  0
  153.7226  143.2572  161.8419 H   0  0  0  0  0  0  0  0  0  0  0  0
  152.7140  141.8503  162.3513 H   0  0  0  0  0  0  0  0  0  0  0  0
  155.3506  141.5638  161.1576 H   0  0  0  0  0  0  0  0  0  0  0  0
  154.0537  140.3156  160.9869 H   0  0  0  0  0  0  0  0  0  0  0  0
  153.7872  141.2340  158.7298 H   0  0  0  0  0  0  0  0  0  0  0  0
  154.4936  142.8146  159.2391 H   0  0  0  0  0  0  0  0  0  0  0  0
  1  2  2  0  0  0  0
  2  3  1  0  0  0  0
  2 14  1  0  0  0  0
  3  4  1  0  0  0  0
  3 20  1  0  0  0  0
  3 21  1  0  0  0  0
  4 12  1  0  0  0  0
  4  5  1  0  0  0  0
  5  6  2  0  0  0  0
  5 22  1  0  0  0  0
  6  7  1  0  0  0  0
  6 10  1  0  0  0  0
  7  8  2  0  0  0  0
  7  9  1  0  0  0  0
 10 11  2  0  0  0  0
 10 23  1  0  0  0  0
 11 12  1  0  0  0  0
 11 24  1  0  0  0  0
 12 13  2  0  0  0  0
 14 15  1  0  0  0  0
 14 25  1  0  0  0  0
 15 16  1  0  0  0  0
 15 26  1  0  0  0  0
 15 27  1  0  0  0  0
 16 19  1  0  0  0  0
 16 17  1  0  0  0  0
 16 28  1  0  0  0  0
 17 18  1  0  0  0  0
 17 29  1  0  0  0  0
 17 30  1  0  0  0  0
 18 19  1  0  0  0  0
 18 31  1  0  0  0  0
 18 32  1  0  0  0  0
 19 33  1  0  0  0  0
 19 34  1  0  0  0  0
M  CHG  1   7   1
M  CHG  1   9  -1
M  END
> <s_m_source_file>
AV-unprocessed.smi

> <i_m_source_file_index>
1526

> <i_lp_mmshare_version>
43012

> <i_f3d_flags>
0

> <s_epik_input>
W0NIMl0xW0NIMl1bQ0gyXVtDSF0xW0NIMl1bTkhdQyg9TylbQ0gyXW4yW2NIXWMoW04rXSg9TylbTy1dKVtjSF1bY0hdYzI9Tw==

> <s_epik_cmdline>
J2VwaWtfcHl0aG9uJywgJy1waCcsICc3LjAnLCAnLXRuJywgJzgnLCAnLW1hJywgJzIwMCcsICctbWV0YWxfYmluZGluZycsICctaW1hZScsICc8aW5maWxlLm1hZT4nLCAnLW9tYWUnLCAnPG91dGZpbGUubWFlPic=

> <r_lp_tautomer_probability>
1

> <r_epik_Ionization_Penalty>
1.93777e-08

> <r_epik_Ionization_Penalty_Charging>
7.59562e-11

> <r_epik_Ionization_Penalty_Neutral>
1.93017e-08

> <r_epik_State_Penalty>
-0

> <r_epik_Charging_Adjusted_Penalty>
7.59562e-11

> <i_epik_Tot_Q>
0

> <i_epik_Tot_abs_Q>
2

> <r_epik_Metal_State_Penalty>
-0

> <b_epik_Metal_Only>
0

> <s_lp_Force_Field>
OPLS_2005

> <r_lp_Energy>
24.467

> <b_lp_Chiralities_Consistent>
1

> <s_lp_Variant>
AV-unprocessed.smi:1526-1

> <Gold.Version>
5.8.1

> <Gold.Id.Protein>
6NUR|6NUR_protein|mol2

> <Gold.PLP.Fitness>
46.4432

> <Gold.PLP.PLP>
-42.1017

> <Gold.PLP.part.hbond>
-2.0000

> <Gold.PLP.part.metal>
0.0000

> <Gold.PLP.part.buried>
-3.0033

> <Gold.PLP.part.nonpolar>
-38.3520

> <Gold.PLP.part.repulsive>
0.9151

> <Gold.PLP.ligand.clash>
0.0000

> <Gold.PLP.ligand.torsion>
0.4919

> <Gold.PLP.Chemscore.Hbond>
1.7440

> <Gold.PLP.Chemscore.CHOScore>
0.0000

> <Gold.PLP.Chemscore.Metal>
0.0000

> <Gold.Chemscore.Hbonds>
donor molecule, donor type, donor heavy atom, donor atom, acceptor molecule, acceptor atom, score
      P1  H  7997  8009       L1     8  1.00
      P1  H 10752 10765       L1     9  0.99

> <Gold.PLP.Chemscore.Internal.Correction>
0.0934

> <Gold.Rescore>
     Score         DG    S(hbond)    S(metal)    S(lipo)     H(rot)  DE(clash)    DE(int)     intcor
     15.84     -16.89       1.70        0.00      88.72       1.82       0.39       0.66       ----

> <Gold.Chemscore.Fitness>
15.8448

> <Gold.Chemscore.DG>
-16.8902

> <Gold.Chemscore.ZeroCoef>
-5.4800

> <Gold.Chemscore.Hbond>
1.7024

> <Gold.Chemscore.Metal>
0.0000

> <Gold.Chemscore.Lipo>
88.7245

> <Gold.Chemscore.Internal_Hbond>
0.0000

> <Gold.Chemscore.DEClash>
0.3884

> <Gold.Chemscore.DEInternal>
0.6571

> <Gold.Chemscore.Rot>
1.8190

> <Gold.Chemscore.Internal.Correction>
   9.000000E+99

> <Gold.Chemscore.Hbonds>
donor molecule, donor type, donor heavy atom, donor atom, acceptor molecule, acceptor atom, score
      P1  H  7997  8009       L1     8  0.94
      P1  H 10752 10765       L1     9  0.88

> <Gold.Chemscore.Hbond.Weighted>
-5.6861

> <Gold.Chemscore.Metal.Weighted>
-0.0000

> <Gold.Chemscore.Lipo.Weighted>
-10.3808

> <Gold.Chemscore.Internal_Hbond.Weighted>
0.0000

> <Gold.Chemscore.DEClash.Weighted>
0.3884

> <Gold.Chemscore.DEInternal.Weighted>
0.6571

> <Gold.Chemscore.Rot.Weighted>
4.6567

> <Gold.Chemscore.Internal.Correction.Weighted>
   9.000000E+99

> <Gold.Protein.RotatedTorsions>
[ 6907 6896 6895 6894 ] final  160.33 input  -60.11 | X-H torsion
[ 7974 7965 7964 7962 ] final  -11.72 input  175.53 | X-H torsion
[ 8008 7997 7996 7995 ] final -160.75 input   59.86 | X-H torsion
[ 10167 10162 10161 10158 ] final -177.40 input  -65.29 | X-H torsion
[ 10718 10713 10712 10709 ] final  -97.98 input   66.30 | X-H torsion
[ 10763 10752 10751 10750 ] final -164.64 input  -60.55 | X-H torsion
[ 11005 11000 10999 10996 ] final  173.91 input  -57.11 | X-H torsion

> <Gold.Protein.ActiveResidues>
 VAL166  LYS551  ARG553  GLY616  TRP617  ASP618  TYR619  PRO620  LYS621  CYS622 
 ASP623  PHE694  ASN695  SER759  ASP760  ASP761  ALA762  ILE779  LEU786  VAL792 
 PHE793  MET794  SER795  GLU796  ALA797  LYS798  CYS799  TRP800  GLU811  SER814 

> <Gold.Protein.RotatedAtoms>
  151.9723  133.3730  159.4075 H   0  0  0  0  0  0  0  0  0  0  0  0  # atno 6907 bound_to 6896
  150.6947  134.4127  159.5178 H   0  0  0  0  0  0  0  0  0  0  0  0  # atno 6908 bound_to 6896
  152.1833  134.8735  160.0575 H   0  0  0  0  0  0  0  0  0  0  0  0  # atno 6909 bound_to 6896
  146.2177  140.2953  142.8371 H   0  0  0  0  0  0  0  0  0  0  0  0  # atno 7974 bound_to 7965
  155.7821  140.0866  157.2054 H   0  0  0  0  0  0  0  0  0  0  0  0  # atno 8008 bound_to 7997
  154.3989  140.1506  156.3121 H   0  0  0  0  0  0  0  0  0  0  0  0  # atno 8009 bound_to 7997
  155.8643  140.3428  155.5780 H   0  0  0  0  0  0  0  0  0  0  0  0  # atno 8010 bound_to 7997
  139.5482  144.2179  152.1028 H   0  0  0  0  0  0  0  0  0  0  0  0  # atno 10167 bound_to 10162
  156.0096  130.5218  150.6455 H   0  0  0  0  0  0  0  0  0  0  0  0  # atno 10718 bound_to 10713
  154.7009  135.2988  154.9342 H   0  0  0  0  0  0  0  0  0  0  0  0  # atno 10763 bound_to 10752
  154.0275  135.6674  153.4782 H   0  0  0  0  0  0  0  0  0  0  0  0  # atno 10764 bound_to 10752
  153.0680  135.5077  154.8153 H   0  0  0  0  0  0  0  0  0  0  0  0  # atno 10765 bound_to 10752
  140.3456  134.7239  157.4233 H   0  0  0  0  0  0  0  0  0  0  0  0  # atno 11005 bound_to 11000
  144.9097  140.7742  143.5815 LP  0  0  0  0  0  0  0  0  0  0  0  0  # atno 17320 bound_to 7965
  145.2883  139.1893  143.4754 LP  0  0  0  0  0  0  0  0  0  0  0  0  # atno 17321 bound_to 7965
  140.1669  144.4972  150.6601 LP  0  0  0  0  0  0  0  0  0  0  0  0  # atno 17342 bound_to 10162
  140.6737  143.2296  151.5561 LP  0  0  0  0  0  0  0  0  0  0  0  0  # atno 17343 bound_to 10162
  157.4227  131.0839  151.1116 LP  0  0  0  0  0  0  0  0  0  0  0  0  # atno 17370 bound_to 10713
  157.1713  130.6268  149.5641 LP  0  0  0  0  0  0  0  0  0  0  0  0  # atno 17371 bound_to 10713
  140.0745  134.5817  155.8606 LP  0  0  0  0  0  0  0  0  0  0  0  0  # atno 17394 bound_to 11000
  141.2026  133.6626  156.6017 LP  0  0  0  0  0  0  0  0  0  0  0  0  # atno 17395 bound_to 11000

$$$$
