AV-unprocessed.smi:686|AV-procd|sdf|3340|dock1
  -GOLD-   22720 0313D 1   1.00000     0.00000
 Structure written by MMmdl.
 41 42  0  0  0  0  0  0  0  0  2 V2000
  147.8942  140.5337  152.9294 C   0  0  0  0  0  0  0  0  0  0  0  0
  147.0781  139.2989  153.3456 C   0  0  1  0  0  0  0  0  0  0  0  0
  146.5116  138.4687  152.1843 C   0  0  0  0  0  0  0  0  0  0  0  0
  146.5231  137.0472  152.6158 N   0  3  2  0  0  0  0  0  0  0  0  0
  145.2941  136.2705  152.2891 C   0  0  0  0  0  0  0  0  0  0  0  0
  145.2465  135.8748  150.8005 C   0  0  0  0  0  0  0  0  0  0  0  0
  144.0250  137.0676  152.6465 C   0  0  0  0  0  0  0  0  0  0  0  0
  146.9407  137.0231  154.0371 C   0  0  0  0  0  0  0  0  0  0  0  0
  147.7891  138.2800  154.2416 C   0  0  1  0  0  0  0  0  0  0  0  0
  149.1723  138.0464  153.8112 N   0  0  0  0  0  0  0  0  0  0  0  0
  150.3528  137.5600  154.9711 S   0  0  0  0  0  0  0  0  0  0  0  0
  149.6965  137.5822  156.2869 O   0  0  0  0  0  0  0  0  0  0  0  0
  150.9743  136.3208  154.4796 O   0  0  0  0  0  0  0  0  0  0  0  0
  151.5748  138.9390  154.8872 C   0  0  0  0  0  0  0  0  0  0  0  0
  151.7598  139.5398  156.2526 C   0  0  0  0  0  0  0  0  0  0  0  0
  150.8384  140.3140  157.0107 C   0  0  0  0  0  0  0  0  0  0  0  0
  151.5200  140.5831  158.1625 C   0  0  0  0  0  0  0  0  0  0  0  0
  152.7570  140.0260  158.1241 O   0  0  0  0  0  0  0  0  0  0  0  0
  152.9025  139.3649  156.8995 N   0  0  0  0  0  0  0  0  0  0  0  0
  148.7466  140.2658  152.3043 H   0  0  0  0  0  0  0  0  0  0  0  0
  148.2735  141.0631  153.8038 H   0  0  0  0  0  0  0  0  0  0  0  0
  147.2783  141.2313  152.3612 H   0  0  0  0  0  0  0  0  0  0  0  0
  146.2224  139.6617  153.9176 H   0  0  0  0  0  0  0  0  0  0  0  0
  145.5097  138.8194  151.9329 H   0  0  0  0  0  0  0  0  0  0  0  0
  147.1284  138.5607  151.2894 H   0  0  0  0  0  0  0  0  0  0  0  0
  145.3043  135.3543  152.8815 H   0  0  0  0  0  0  0  0  0  0  0  0
  144.3175  135.3546  150.5649 H   0  0  0  0  0  0  0  0  0  0  0  0
  146.0593  135.2012  150.5287 H   0  0  0  0  0  0  0  0  0  0  0  0
  145.3066  136.7513  150.1543 H   0  0  0  0  0  0  0  0  0  0  0  0
  143.1265  136.5068  152.3872 H   0  0  0  0  0  0  0  0  0  0  0  0
  143.9883  138.0148  152.1072 H   0  0  0  0  0  0  0  0  0  0  0  0
  143.9621  137.2891  153.7116 H   0  0  0  0  0  0  0  0  0  0  0  0
  146.0563  137.0847  154.6738 H   0  0  0  0  0  0  0  0  0  0  0  0
  147.4646  136.1009  154.2872 H   0  0  0  0  0  0  0  0  0  0  0  0
  147.7918  138.6032  155.2835 H   0  0  0  0  0  0  0  0  0  0  0  0
  149.2308  137.4914  152.9576 H   0  0  0  0  0  0  0  0  0  0  0  0
  152.5107  138.5592  154.4763 H   0  0  0  0  0  0  0  0  0  0  0  0
  151.1889  139.6853  154.1929 H   0  0  0  0  0  0  0  0  0  0  0  0
  149.8356  140.6206  156.7524 H   0  0  0  0  0  0  0  0  0  0  0  0
  151.2731  141.1303  159.0604 H   0  0  0  0  0  0  0  0  0  0  0  0
  147.2808  136.6151  152.1064 H   0  0  0  0  0  0  0  0  0  0  0  0
  1  2  1  0  0  0  0
  1 20  1  0  0  0  0
  1 21  1  0  0  0  0
  1 22  1  0  0  0  0
  2  9  1  0  0  0  0
  2  3  1  0  0  0  0
  2 23  1  0  0  0  0
  3  4  1  0  0  0  0
  3 24  1  0  0  0  0
  3 25  1  0  0  0  0
  4  5  1  0  0  0  0
  4  8  1  0  0  0  0
  4 41  1  0  0  0  0
  5  6  1  0  0  0  0
  5  7  1  0  0  0  0
  5 26  1  0  0  0  0
  6 27  1  0  0  0  0
  6 28  1  0  0  0  0
  6 29  1  0  0  0  0
  7 30  1  0  0  0  0
  7 31  1  0  0  0  0
  7 32  1  0  0  0  0
  8  9  1  0  0  0  0
  8 33  1  0  0  0  0
  8 34  1  0  0  0  0
  9 10  1  0  0  0  0
  9 35  1  0  0  0  0
 10 11  1  0  0  0  0
 10 36  1  0  0  0  0
 11 12  2  0  0  0  0
 11 13  2  0  0  0  0
 11 14  1  0  0  0  0
 14 15  1  0  0  0  0
 14 37  1  0  0  0  0
 14 38  1  0  0  0  0
 15 19  2  0  0  0  0
 15 16  1  0  0  0  0
 16 17  2  0  0  0  0
 16 39  1  0  0  0  0
 17 18  1  0  0  0  0
 17 40  1  0  0  0  0
 18 19  1  0  0  0  0
M  CHG  1   4   1
M  END
> <s_m_source_file>
AV-unprocessed.smi

> <i_m_source_file_index>
686

> <i_lp_mmshare_version>
43012

> <i_f3d_flags>
0

> <s_epik_input>
W0NIM11bQ0BASF0xW0NIMl1OKFtDSF0oW0NIM10pW0NIM10pW0NIMl1bQ0BIXTFbTkhdUyg9TykoPU8pW0NIMl1jMltjSF1bY0hdb24y

> <s_epik_cmdline>
J2VwaWtfcHl0aG9uJywgJy1waCcsICc3LjAnLCAnLXRuJywgJzgnLCAnLW1hJywgJzIwMCcsICctbWV0YWxfYmluZGluZycsICctaW1hZScsICc8aW5maWxlLm1hZT4nLCAnLW9tYWUnLCAnPG91dGZpbGUubWFlPic=

> <r_epik_Ionization_Penalty>
0.00200818

> <r_epik_Ionization_Penalty_Charging>
0.000701289

> <r_epik_Ionization_Penalty_Neutral>
0.00130689

> <r_epik_State_Penalty>
0.00131314

> <r_epik_Charging_Adjusted_Penalty>
0.00201443

> <i_epik_Tot_Q>
1

> <i_epik_Tot_abs_Q>
1

> <r_epik_Metal_State_Penalty>
0.310831

> <b_epik_Metal_Only>
0

> <s_lp_Force_Field>
OPLS_2005

> <r_lp_Energy>
21.9273

> <b_lp_Chiralities_Consistent>
1

> <s_lp_Variant>
AV-unprocessed.smi:686-4

> <Gold.Version>
5.8.1

> <Gold.Id.Protein>
6NUR|6NUR_protein|mol2

> <Gold.PLP.Fitness>
41.9638

> <Gold.PLP.PLP>
-28.4791

> <Gold.PLP.part.hbond>
-5.1785

> <Gold.PLP.part.metal>
0.0000

> <Gold.PLP.part.buried>
2.0919

> <Gold.PLP.part.nonpolar>
-26.5333

> <Gold.PLP.part.repulsive>
1.3701

> <Gold.PLP.ligand.clash>
0.0000

> <Gold.PLP.ligand.torsion>
0.9064

> <Gold.PLP.Chemscore.Hbond>
5.0000

> <Gold.PLP.Chemscore.CHOScore>
0.0000

> <Gold.PLP.Chemscore.Metal>
0.0000

> <Gold.Chemscore.Hbonds>
donor molecule, donor type, donor heavy atom, donor atom, acceptor molecule, acceptor atom, score
      L1  H     4    41       P1  7948  2.00
      L1  H    10    36       P1  7948  1.00
      P1  H  7997  8010       L1    19  0.98
      P1  H 10752 10764       L1    13  0.89

> <Gold.PLP.Chemscore.Internal.Correction>
0.2976

> <Gold.Rescore>
     Score         DG    S(hbond)    S(metal)    S(lipo)     H(rot)  DE(clash)    DE(int)     intcor
     18.25     -21.21       3.80        0.00      67.79       1.91       1.61       1.35       ----

> <Gold.Chemscore.Fitness>
18.2454

> <Gold.Chemscore.DG>
-21.2052

> <Gold.Chemscore.ZeroCoef>
-5.4800

> <Gold.Chemscore.Hbond>
3.7987

> <Gold.Chemscore.Metal>
0.0000

> <Gold.Chemscore.Lipo>
67.7872

> <Gold.Chemscore.Internal_Hbond>
0.0000

> <Gold.Chemscore.DEClash>
1.6090

> <Gold.Chemscore.DEInternal>
1.3508

> <Gold.Chemscore.Rot>
1.9115

> <Gold.Chemscore.Internal.Correction>
   9.000000E+99

> <Gold.Chemscore.Hbonds>
donor molecule, donor type, donor heavy atom, donor atom, acceptor molecule, acceptor atom, score
      L1  H     4    41       P1  7948  0.98
      L1  H    10    36       P1  7948  0.97
      P1  H  7997  8010       L1    19  0.27
      P1  H 10752 10764       L1    13  0.86

> <Gold.Chemscore.Hbond.Weighted>
-12.6876

> <Gold.Chemscore.Metal.Weighted>
-0.0000

> <Gold.Chemscore.Lipo.Weighted>
-7.9311

> <Gold.Chemscore.Internal_Hbond.Weighted>
0.0000

> <Gold.Chemscore.DEClash.Weighted>
1.6090

> <Gold.Chemscore.DEInternal.Weighted>
1.3508

> <Gold.Chemscore.Rot.Weighted>
4.8935

> <Gold.Chemscore.Internal.Correction.Weighted>
   9.000000E+99

> <Gold.Protein.RotatedTorsions>
[ 6907 6896 6895 6894 ] final -148.17 input  -60.11 | X-H torsion
[ 7974 7965 7964 7962 ] final  -51.84 input  175.53 | X-H torsion
[ 8008 7997 7996 7995 ] final   83.17 input   59.86 | X-H torsion
[ 10167 10162 10161 10158 ] final  -46.76 input  -65.29 | X-H torsion
[ 10718 10713 10712 10709 ] final   80.72 input   66.30 | X-H torsion
[ 10763 10752 10751 10750 ] final  -62.92 input  -60.55 | X-H torsion
[ 11005 11000 10999 10996 ] final  -70.91 input  -57.11 | X-H torsion

> <Gold.Protein.ActiveResidues>
 VAL166  LYS551  ARG553  GLY616  TRP617  ASP618  TYR619  PRO620  LYS621  CYS622 
 ASP623  PHE694  ASN695  SER759  ASP760  ASP761  ALA762  ILE779  LEU786  VAL792 
 PHE793  MET794  SER795  GLU796  ALA797  LYS798  CYS799  TRP800  GLU811  SER814 

> <Gold.Protein.RotatedAtoms>
  151.1661  133.4814  159.2593 H   0  0  0  0  0  0  0  0  0  0  0  0  # atno 6907 bound_to 6896
  151.1404  135.0176  159.8633 H   0  0  0  0  0  0  0  0  0  0  0  0  # atno 6908 bound_to 6896
  152.5462  134.1555  159.8589 H   0  0  0  0  0  0  0  0  0  0  0  0  # atno 6909 bound_to 6896
  145.9146  140.7886  142.9678 H   0  0  0  0  0  0  0  0  0  0  0  0  # atno 7974 bound_to 7965
  155.9204  140.3421  155.6168 H   0  0  0  0  0  0  0  0  0  0  0  0  # atno 8008 bound_to 7997
  155.7280  140.0792  157.2320 H   0  0  0  0  0  0  0  0  0  0  0  0  # atno 8009 bound_to 7997
  154.4069  140.1593  156.2464 H   0  0  0  0  0  0  0  0  0  0  0  0  # atno 8010 bound_to 7997
  140.6804  143.2816  151.3829 H   0  0  0  0  0  0  0  0  0  0  0  0  # atno 10167 bound_to 10162
  157.6814  130.9972  150.2121 H   0  0  0  0  0  0  0  0  0  0  0  0  # atno 10718 bound_to 10713
  154.3073  135.6222  153.5450 H   0  0  0  0  0  0  0  0  0  0  0  0  # atno 10763 bound_to 10752
  152.9833  135.5693  154.5217 H   0  0  0  0  0  0  0  0  0  0  0  0  # atno 10764 bound_to 10752
  154.4859  135.2865  155.1510 H   0  0  0  0  0  0  0  0  0  0  0  0  # atno 10765 bound_to 10752
  141.1583  133.6803  156.6826 H   0  0  0  0  0  0  0  0  0  0  0  0  # atno 11005 bound_to 11000
  144.6746  140.1879  143.7399 LP  0  0  0  0  0  0  0  0  0  0  0  0  # atno 17320 bound_to 7965
  145.8628  139.2232  143.1706 LP  0  0  0  0  0  0  0  0  0  0  0  0  # atno 17321 bound_to 7965
  139.6123  144.1074  152.2311 LP  0  0  0  0  0  0  0  0  0  0  0  0  # atno 17342 bound_to 10162
  140.0492  144.5946  150.7350 LP  0  0  0  0  0  0  0  0  0  0  0  0  # atno 17343 bound_to 10162
  156.2790  130.3731  149.7955 LP  0  0  0  0  0  0  0  0  0  0  0  0  # atno 17370 bound_to 10713
  156.5649  130.8399  151.3339 LP  0  0  0  0  0  0  0  0  0  0  0  0  # atno 17371 bound_to 10713
  140.3091  134.8101  157.4161 LP  0  0  0  0  0  0  0  0  0  0  0  0  # atno 17394 bound_to 11000
  140.1194  134.5240  155.8197 LP  0  0  0  0  0  0  0  0  0  0  0  0  # atno 17395 bound_to 11000

$$$$
