AV-unprocessed.smi:47|AV-procd|sdf|426|dock2
  -GOLD-   2262016303D 1   1.00000     0.00000
 Structure written by MMmdl.
 32 34  0  0  0  0  0  0  0  0  2 V2000
  151.5695  136.2735  154.4428 O   0  0  0  0  0  0  0  0  0  0  0  0
  150.8842  137.3903  154.9685 C   0  0  2  0  0  0  0  0  0  0  0  0
  149.4377  137.0616  155.3324 C   0  0  0  0  0  0  0  0  0  0  0  0
  148.7247  138.3509  155.2837 N   0  3  0  0  0  0  0  0  0  0  0  0
  149.4865  139.2808  154.4198 C   0  0  1  0  0  0  0  0  0  0  0  0
  149.8493  140.5296  155.1640 C   0  0  0  0  0  0  0  0  0  0  0  0
  149.4733  141.7230  154.7171 N   0  0  0  0  0  0  0  0  0  0  0  0
  150.0318  142.5483  155.6261 N   0  0  0  0  0  0  0  0  0  0  0  0
  150.7102  141.8435  156.5405 C   0  0  0  0  0  0  0  0  0  0  0  0
  151.4436  142.4237  157.6676 C   0  0  0  0  0  0  0  0  0  0  0  0
  151.6634  143.8192  157.7374 C   0  0  0  0  0  0  0  0  0  0  0  0
  152.3693  144.3779  158.8205 C   0  0  0  0  0  0  0  0  0  0  0  0
  152.8624  143.5482  159.8448 C   0  0  0  0  0  0  0  0  0  0  0  0
  152.6487  142.1585  159.7852 C   0  0  0  0  0  0  0  0  0  0  0  0
  151.9433  141.5986  158.7022 C   0  0  0  0  0  0  0  0  0  0  0  0
  150.6317  140.5367  156.2852 N   0  0  0  0  0  0  0  0  0  0  0  0
  150.7240  138.5057  153.9387 C   0  0  0  0  0  0  0  0  0  0  0  0
  151.4129  137.7671  155.8454 H   0  0  0  0  0  0  0  0  0  0  0  0
  148.8647  139.5504  153.5649 H   0  0  0  0  0  0  0  0  0  0  0  0
  149.9364  143.5533  155.5846 H   0  0  0  0  0  0  0  0  0  0  0  0
  151.3223  136.1640  153.5369 H   0  0  0  0  0  0  0  0  0  0  0  0
  148.9957  136.4015  154.5844 H   0  0  0  0  0  0  0  0  0  0  0  0
  149.3429  136.5819  156.3068 H   0  0  0  0  0  0  0  0  0  0  0  0
  147.7816  138.2279  154.9450 H   0  0  0  0  0  0  0  0  0  0  0  0
  151.2946  144.4755  156.9632 H   0  0  0  0  0  0  0  0  0  0  0  0
  152.5326  145.4447  158.8652 H   0  0  0  0  0  0  0  0  0  0  0  0
  153.4037  143.9769  160.6754 H   0  0  0  0  0  0  0  0  0  0  0  0
  153.0266  141.5207  160.5708 H   0  0  0  0  0  0  0  0  0  0  0  0
  151.7917  140.5294  158.6769 H   0  0  0  0  0  0  0  0  0  0  0  0
  151.6149  139.1251  153.8257 H   0  0  0  0  0  0  0  0  0  0  0  0
  150.5066  138.0667  152.9633 H   0  0  0  0  0  0  0  0  0  0  0  0
  148.7037  138.7449  156.2140 H   0  0  0  0  0  0  0  0  0  0  0  0
  1  2  1  0  0  0  0
  1 21  1  0  0  0  0
  2 18  1  0  0  0  0
  2 17  1  0  0  0  0
  2  3  1  0  0  0  0
  3  4  1  0  0  0  0
  3 22  1  0  0  0  0
  3 23  1  0  0  0  0
  4  5  1  0  0  0  0
  4 24  1  0  0  0  0
  4 32  1  0  0  0  0
  5 19  1  0  0  0  0
  5  6  1  0  0  0  0
  5 17  1  0  0  0  0
  6 16  1  0  0  0  0
  6  7  2  0  0  0  0
  7  8  1  0  0  0  0
  8 20  1  0  0  0  0
  8  9  1  0  0  0  0
  9 10  1  0  0  0  0
  9 16  2  0  0  0  0
 10 15  1  0  0  0  0
 10 11  2  0  0  0  0
 11 12  1  0  0  0  0
 11 25  1  0  0  0  0
 12 13  2  0  0  0  0
 12 26  1  0  0  0  0
 13 14  1  0  0  0  0
 13 27  1  0  0  0  0
 14 15  2  0  0  0  0
 14 28  1  0  0  0  0
 15 29  1  0  0  0  0
 17 30  1  0  0  0  0
 17 31  1  0  0  0  0
M  CHG  1   4   1
M  END
> <s_m_source_file>
AV-unprocessed.smi

> <i_m_source_file_index>
47

> <i_lp_mmshare_version>
43012

> <i_f3d_flags>
0

> <s_epik_input>
W09IXVtDQEhdMVtDSDJdW05IXVtDQEBIXShbQ0gyXTEpYzJuW25IXWMobjIpLWMzW2NIXVtjSF1bY0hdW2NIXVtjSF0z

> <s_epik_cmdline>
J2VwaWtfcHl0aG9uJywgJy1waCcsICc3LjAnLCAnLXRuJywgJzgnLCAnLW1hJywgJzIwMCcsICctbWV0YWxfYmluZGluZycsICctaW1hZScsICc8aW5maWxlLm1hZT4nLCAnLW9tYWUnLCAnPG91dGZpbGUubWFlPic=

> <r_lp_tautomer_probability>
0.948284

> <r_epik_Ionization_Penalty>
0.163822

> <r_epik_Ionization_Penalty_Charging>
0.0371552

> <r_epik_Ionization_Penalty_Neutral>
0.126667

> <r_epik_State_Penalty>
0.318338

> <r_epik_Charging_Adjusted_Penalty>
0.355493

> <i_epik_Tot_Q>
1

> <i_epik_Tot_abs_Q>
1

> <r_epik_Metal_State_Penalty>
0.81572

> <b_epik_Metal_Only>
0

> <s_lp_Force_Field>
OPLS_2005

> <r_lp_Energy>
24.5404

> <b_lp_Chiralities_Consistent>
1

> <s_lp_Variant>
AV-unprocessed.smi:47-4

> <Gold.Version>
5.8.1

> <Gold.Id.Protein>
6NUR|6NUR_protein|mol2

> <Gold.PLP.Fitness>
45.3834

> <Gold.PLP.PLP>
-36.6799

> <Gold.PLP.part.hbond>
-3.4477

> <Gold.PLP.part.metal>
0.0000

> <Gold.PLP.part.buried>
-4.9523

> <Gold.PLP.part.nonpolar>
-29.7022

> <Gold.PLP.part.repulsive>
0.3688

> <Gold.PLP.ligand.clash>
0.0000

> <Gold.PLP.ligand.torsion>
0.0585

> <Gold.PLP.Chemscore.Hbond>
2.9353

> <Gold.PLP.Chemscore.CHOScore>
0.0000

> <Gold.PLP.Chemscore.Metal>
0.0000

> <Gold.Chemscore.Hbonds>
donor molecule, donor type, donor heavy atom, donor atom, acceptor molecule, acceptor atom, score
      L1  H     1    21       P1  7949  0.94
      L1  H     8    20       P1  8028  0.88
      P1  H 10752 10763       L1     1  1.00

> <Gold.PLP.Chemscore.Internal.Correction>
0.0148

> <Gold.Rescore>
     Score         DG    S(hbond)    S(metal)    S(lipo)     H(rot)  DE(clash)    DE(int)     intcor
     20.76     -20.80       2.46        0.00      93.47       1.50       0.00       0.04       ----

> <Gold.Chemscore.Fitness>
20.7594

> <Gold.Chemscore.DG>
-20.8019

> <Gold.Chemscore.ZeroCoef>
-5.4800

> <Gold.Chemscore.Hbond>
2.4603

> <Gold.Chemscore.Metal>
0.0000

> <Gold.Chemscore.Lipo>
93.4671

> <Gold.Chemscore.Internal_Hbond>
0.0000

> <Gold.Chemscore.DEClash>
0.0047

> <Gold.Chemscore.DEInternal>
0.0378

> <Gold.Chemscore.Rot>
1.4966

> <Gold.Chemscore.Internal.Correction>
   9.000000E+99

> <Gold.Chemscore.Hbonds>
donor molecule, donor type, donor heavy atom, donor atom, acceptor molecule, acceptor atom, score
      L1  H     1    21       P1  7949  0.54
      L1  H     8    20       P1  8028  0.84
      P1  H  8011  8017       L1     7  0.01
      P1  H 10752 10763       L1     1  0.51

> <Gold.Chemscore.Hbond.Weighted>
-8.2175

> <Gold.Chemscore.Metal.Weighted>
-0.0000

> <Gold.Chemscore.Lipo.Weighted>
-10.9357

> <Gold.Chemscore.Internal_Hbond.Weighted>
0.0000

> <Gold.Chemscore.DEClash.Weighted>
0.0047

> <Gold.Chemscore.DEInternal.Weighted>
0.0378

> <Gold.Chemscore.Rot.Weighted>
3.8312

> <Gold.Chemscore.Internal.Correction.Weighted>
   9.000000E+99

> <Gold.Protein.RotatedTorsions>
[ 6907 6896 6895 6894 ] final  -57.82 input  -60.11 | X-H torsion
[ 7974 7965 7964 7962 ] final -137.29 input  175.53 | X-H torsion
[ 8008 7997 7996 7995 ] final   84.87 input   59.86 | X-H torsion
[ 10167 10162 10161 10158 ] final   31.92 input  -65.29 | X-H torsion
[ 10718 10713 10712 10709 ] final   42.07 input   66.30 | X-H torsion
[ 10763 10752 10751 10750 ] final   60.84 input  -60.55 | X-H torsion
[ 11005 11000 10999 10996 ] final   32.76 input  -57.11 | X-H torsion

> <Gold.Protein.ActiveResidues>
 VAL166  LYS551  ARG553  GLY616  TRP617  ASP618  TYR619  PRO620  LYS621  CYS622 
 ASP623  PHE694  ASN695  SER759  ASP760  ASP761  ALA762  ILE779  LEU786  VAL792 
 PHE793  MET794  SER795  GLU796  ALA797  LYS798  CYS799  TRP800  GLU811  SER814 

> <Gold.Protein.RotatedAtoms>
  150.8056  134.7178  159.6640 H   0  0  0  0  0  0  0  0  0  0  0  0  # atno 6907 bound_to 6896
  152.4175  134.6012  160.0010 H   0  0  0  0  0  0  0  0  0  0  0  0  # atno 6908 bound_to 6896
  151.6237  133.3300  159.3129 H   0  0  0  0  0  0  0  0  0  0  0  0  # atno 6909 bound_to 6896
  144.8854  140.6567  143.5179 H   0  0  0  0  0  0  0  0  0  0  0  0  # atno 7974 bound_to 7965
  155.9426  140.3407  155.6340 H   0  0  0  0  0  0  0  0  0  0  0  0  # atno 8008 bound_to 7997
  155.7020  140.0761  157.2425 H   0  0  0  0  0  0  0  0  0  0  0  0  # atno 8009 bound_to 7997
  154.4105  140.1638  156.2189 H   0  0  0  0  0  0  0  0  0  0  0  0  # atno 8010 bound_to 7997
  140.4545  144.0998  150.6199 H   0  0  0  0  0  0  0  0  0  0  0  0  # atno 10167 bound_to 10162
  157.4007  130.7858  149.7346 H   0  0  0  0  0  0  0  0  0  0  0  0  # atno 10718 bound_to 10713
  152.9932  135.5522  154.5938 H   0  0  0  0  0  0  0  0  0  0  0  0  # atno 10763 bound_to 10752
  154.5294  135.2812  155.1195 H   0  0  0  0  0  0  0  0  0  0  0  0  # atno 10764 bound_to 10752
  154.2517  135.6397  153.5295 H   0  0  0  0  0  0  0  0  0  0  0  0  # atno 10765 bound_to 10752
  140.2701  134.3092  155.7830 H   0  0  0  0  0  0  0  0  0  0  0  0  # atno 11005 bound_to 11000
  145.3878  139.1623  143.4245 LP  0  0  0  0  0  0  0  0  0  0  0  0  # atno 17320 bound_to 7965
  146.3021  140.3964  142.8700 LP  0  0  0  0  0  0  0  0  0  0  0  0  # atno 17321 bound_to 7965
  140.4167  143.2631  151.9766 LP  0  0  0  0  0  0  0  0  0  0  0  0  # atno 17342 bound_to 10162
  139.4800  144.5867  151.7841 LP  0  0  0  0  0  0  0  0  0  0  0  0  # atno 17343 bound_to 10162
  155.9822  130.4012  150.3428 LP  0  0  0  0  0  0  0  0  0  0  0  0  # atno 17370 bound_to 10713
  157.1555  131.0332  151.2865 LP  0  0  0  0  0  0  0  0  0  0  0  0  # atno 17371 bound_to 10713
  141.2178  133.7462  156.9322 LP  0  0  0  0  0  0  0  0  0  0  0  0  # atno 17394 bound_to 11000
  140.1381  134.9312  157.2429 LP  0  0  0  0  0  0  0  0  0  0  0  0  # atno 17395 bound_to 11000

$$$$
