AV-unprocessed.smi:1385|AV-procd|sdf|5631|dock9
  -GOLD-   22720 5243D 1   1.00000     0.00000
 Structure written by MMmdl.
 37 38  0  0  0  0  0  0  0  0  2 V2000
  153.1903  138.1611  159.2427 C   0  0  0  0  0  0  0  0  0  0  0  0
  152.3930  137.3009  158.3231 C   0  0  0  0  0  0  0  0  0  0  0  0
  151.4615  136.4485  158.7572 N   0  0  0  0  0  0  0  0  0  0  0  0
  150.8571  135.7599  157.7155 N   0  0  0  0  0  0  0  0  0  0  0  0
  151.3468  136.0911  156.5120 C   0  0  0  0  0  0  0  0  0  0  0  0
  150.8964  135.5400  155.3729 N   0  5  0  0  0  0  0  0  0  0  0  0
  149.8764  134.6527  155.4098 C   0  0  0  0  0  0  0  0  0  0  0  0
  149.5528  133.9519  156.3717 O   0  0  0  0  0  0  0  0  0  0  0  0
  149.1887  134.5732  154.2616 N   0  0  0  0  0  0  0  0  0  0  0  0
  148.0355  133.7134  154.0103 C   0  0  0  0  0  0  0  0  0  0  0  0
  148.3998  132.6324  152.9838 C   0  0  0  0  0  0  0  0  0  0  0  0
  147.1699  131.7846  152.6154 C   0  0  0  0  0  0  0  0  0  0  0  0
  146.1014  132.6303  152.0726 N   0  0  0  0  0  0  0  0  0  0  0  0
  144.9861  131.7722  151.6129 C   0  0  0  0  0  0  0  0  0  0  0  0
  144.0338  132.4505  150.6211 C   0  0  0  0  0  0  0  0  0  0  0  0
  143.4586  133.5915  151.0090 N   0  0  0  0  0  0  0  0  0  0  0  0
  143.8265  131.9523  149.5169 O   0  0  0  0  0  0  0  0  0  0  0  0
  145.6768  133.6194  153.0749 C   0  0  0  0  0  0  0  0  0  0  0  0
  146.8508  134.5311  153.4718 C   0  0  0  0  0  0  0  0  0  0  0  0
  152.6062  137.3235  156.5808 S   0  0  0  0  0  0  0  0  0  0  0  0
  154.0030  137.5827  159.6820 H   0  0  0  0  0  0  0  0  0  0  0  0
  152.5587  138.5461  160.0439 H   0  0  0  0  0  0  0  0  0  0  0  0
  153.6147  139.0047  158.6981 H   0  0  0  0  0  0  0  0  0  0  0  0
  149.4882  135.1665  153.5019 H   0  0  0  0  0  0  0  0  0  0  0  0
  147.7401  133.2197  154.9381 H   0  0  0  0  0  0  0  0  0  0  0  0
  148.8059  133.0937  152.0818 H   0  0  0  0  0  0  0  0  0  0  0  0
  149.1850  131.9893  153.3828 H   0  0  0  0  0  0  0  0  0  0  0  0
  147.4660  131.0412  151.8740 H   0  0  0  0  0  0  0  0  0  0  0  0
  146.8140  131.2362  153.4895 H   0  0  0  0  0  0  0  0  0  0  0  0
  145.3904  130.8913  151.1118 H   0  0  0  0  0  0  0  0  0  0  0  0
  144.4235  131.4055  152.4739 H   0  0  0  0  0  0  0  0  0  0  0  0
  142.8215  134.0718  150.3903 H   0  0  0  0  0  0  0  0  0  0  0  0
  143.6617  133.9679  151.9235 H   0  0  0  0  0  0  0  0  0  0  0  0
  144.8793  134.2519  152.6853 H   0  0  0  0  0  0  0  0  0  0  0  0
  145.2775  133.1141  153.9559 H   0  0  0  0  0  0  0  0  0  0  0  0
  146.5188  135.2493  154.2224 H   0  0  0  0  0  0  0  0  0  0  0  0
  147.1648  135.1148  152.6048 H   0  0  0  0  0  0  0  0  0  0  0  0
  1  2  1  0  0  0  0
  1 21  1  0  0  0  0
  1 22  1  0  0  0  0
  1 23  1  0  0  0  0
  2 20  1  0  0  0  0
  2  3  2  0  0  0  0
  3  4  1  0  0  0  0
  4  5  2  0  0  0  0
  5  6  1  0  0  0  0
  5 20  1  0  0  0  0
  6  7  1  0  0  0  0
  7  8  2  0  0  0  0
  7  9  1  0  0  0  0
  9 10  1  0  0  0  0
  9 24  1  0  0  0  0
 10 19  1  0  0  0  0
 10 11  1  0  0  0  0
 10 25  1  0  0  0  0
 11 12  1  0  0  0  0
 11 26  1  0  0  0  0
 11 27  1  0  0  0  0
 12 13  1  0  0  0  0
 12 28  1  0  0  0  0
 12 29  1  0  0  0  0
 13 14  1  0  0  0  0
 13 18  1  0  0  0  0
 14 15  1  0  0  0  0
 14 30  1  0  0  0  0
 14 31  1  0  0  0  0
 15 16  1  0  0  0  0
 15 17  2  0  0  0  0
 16 32  1  0  0  0  0
 16 33  1  0  0  0  0
 18 19  1  0  0  0  0
 18 34  1  0  0  0  0
 18 35  1  0  0  0  0
 19 36  1  0  0  0  0
 19 37  1  0  0  0  0
M  CHG  1   6  -1
M  END
> <s_m_source_file>
AV-unprocessed.smi

> <i_m_source_file_index>
1385

> <i_lp_mmshare_version>
43012

> <i_f3d_flags>
0

> <s_epik_input>
W0NIM11jMW5uYyhzMSlbTkhdQyg9TylbTkhdW0NIXTJbQ0gyXVtDSDJdTihbQ0gyXVtDSDJdMilbQ0gyXUMoPU8pW05IMl0=

> <s_epik_cmdline>
J2VwaWtfcHl0aG9uJywgJy1waCcsICc3LjAnLCAnLXRuJywgJzgnLCAnLW1hJywgJzIwMCcsICctbWV0YWxfYmluZGluZycsICctaW1hZScsICc8aW5maWxlLm1hZT4nLCAnLW9tYWUnLCAnPG91dGZpbGUubWFlPic=

> <r_lp_tautomer_probability>
1

> <r_epik_Ionization_Penalty>
3.72698

> <r_epik_Ionization_Penalty_Charging>
3.38897

> <r_epik_Ionization_Penalty_Neutral>
0.338006

> <r_epik_State_Penalty>
3.53372

> <r_epik_Charging_Adjusted_Penalty>
6.92269

> <i_epik_Tot_Q>
-1

> <i_epik_Tot_abs_Q>
1

> <r_epik_Metal_State_Penalty>
0.657042

> <b_epik_Metal_Only>
1

> <s_lp_Force_Field>
OPLS_2005

> <r_lp_Energy>
7.29134

> <b_lp_Chiralities_Consistent>
1

> <s_lp_Variant>
AV-unprocessed.smi:1385-4

> <Gold.Version>
5.8.1

> <Gold.Id.Protein>
6NUR|6NUR_protein|mol2

> <Gold.PLP.Fitness>
37.1460

> <Gold.PLP.PLP>
-26.5630

> <Gold.PLP.part.hbond>
-5.1922

> <Gold.PLP.part.metal>
0.0000

> <Gold.PLP.part.buried>
-4.9659

> <Gold.PLP.part.nonpolar>
-16.6207

> <Gold.PLP.part.repulsive>
0.4391

> <Gold.PLP.ligand.clash>
0.0000

> <Gold.PLP.ligand.torsion>
0.3500

> <Gold.PLP.Chemscore.Hbond>
3.7358

> <Gold.PLP.Chemscore.CHOScore>
0.0000

> <Gold.PLP.Chemscore.Metal>
0.0000

> <Gold.Chemscore.Hbonds>
donor molecule, donor type, donor heavy atom, donor atom, acceptor molecule, acceptor atom, score
      L1  H     9    24       P1  7948  0.62
      L1  H    16    32       P1 10186  1.00
      P1  H  6896  6909       L1     3  0.67
      P1  H 10752 10763       L1     6  0.58
      P1  H 10785 10796       L1    17  0.76

> <Gold.PLP.Chemscore.Internal.Correction>
0.0756

> <Gold.Rescore>
     Score         DG    S(hbond)    S(metal)    S(lipo)     H(rot)  DE(clash)    DE(int)     intcor
     13.29     -15.47       3.01        0.00      43.68       2.02       0.04       2.14       ----

> <Gold.Chemscore.Fitness>
13.2925

> <Gold.Chemscore.DG>
-15.4720

> <Gold.Chemscore.ZeroCoef>
-5.4800

> <Gold.Chemscore.Hbond>
3.0070

> <Gold.Chemscore.Metal>
0.0000

> <Gold.Chemscore.Lipo>
43.6778

> <Gold.Chemscore.Internal_Hbond>
0.0000

> <Gold.Chemscore.DEClash>
0.0436

> <Gold.Chemscore.DEInternal>
2.1360

> <Gold.Chemscore.Rot>
2.0163

> <Gold.Chemscore.Internal.Correction>
   9.000000E+99

> <Gold.Chemscore.Hbonds>
donor molecule, donor type, donor heavy atom, donor atom, acceptor molecule, acceptor atom, score
      L1  H     9    24       P1  7948  0.05
      L1  H    16    32       P1 10186  0.83
      P1  H  6896  6909       L1     3  0.15
      P1  H 10752 10763       L1     6  0.01
      P1  H 10785 10796       L1    17  0.74

> <Gold.Chemscore.Hbond.Weighted>
-10.0434

> <Gold.Chemscore.Metal.Weighted>
-0.0000

> <Gold.Chemscore.Lipo.Weighted>
-5.1103

> <Gold.Chemscore.Internal_Hbond.Weighted>
0.0000

> <Gold.Chemscore.DEClash.Weighted>
0.0436

> <Gold.Chemscore.DEInternal.Weighted>
2.1360

> <Gold.Chemscore.Rot.Weighted>
5.1617

> <Gold.Chemscore.Internal.Correction.Weighted>
   9.000000E+99

> <Gold.Protein.RotatedTorsions>
[ 6907 6896 6895 6894 ] final  117.60 input  -60.11 | X-H torsion
[ 7974 7965 7964 7962 ] final -176.99 input  175.53 | X-H torsion
[ 8008 7997 7996 7995 ] final    1.69 input   59.86 | X-H torsion
[ 10167 10162 10161 10158 ] final -148.25 input  -65.29 | X-H torsion
[ 10718 10713 10712 10709 ] final   16.30 input   66.30 | X-H torsion
[ 10763 10752 10751 10750 ] final   60.49 input  -60.55 | X-H torsion
[ 11005 11000 10999 10996 ] final   74.23 input  -57.11 | X-H torsion

> <Gold.Protein.ActiveResidues>
 VAL166  LYS551  ARG553  GLY616  TRP617  ASP618  TYR619  PRO620  LYS621  CYS622 
 ASP623  PHE694  ASN695  SER759  ASP760  ASP761  ALA762  ILE779  LEU786  VAL792 
 PHE793  MET794  SER795  GLU796  ALA797  LYS798  CYS799  TRP800  GLU811  SER814 

> <Gold.Protein.RotatedAtoms>
  152.4601  133.7804  159.6847 H   0  0  0  0  0  0  0  0  0  0  0  0  # atno 6907 bound_to 6896
  150.8541  133.7732  159.3021 H   0  0  0  0  0  0  0  0  0  0  0  0  # atno 6908 bound_to 6896
  151.5318  135.1071  159.9956 H   0  0  0  0  0  0  0  0  0  0  0  0  # atno 6909 bound_to 6896
  144.7127  140.1087  143.6412 H   0  0  0  0  0  0  0  0  0  0  0  0  # atno 7974 bound_to 7965
  154.6828  140.2636  155.6891 H   0  0  0  0  0  0  0  0  0  0  0  0  # atno 8008 bound_to 7997
  156.2703  140.2807  156.1300 H   0  0  0  0  0  0  0  0  0  0  0  0  # atno 8009 bound_to 7997
  155.1008  140.0374  157.2686 H   0  0  0  0  0  0  0  0  0  0  0  0  # atno 8010 bound_to 7997
  139.7548  143.8464  152.2594 H   0  0  0  0  0  0  0  0  0  0  0  0  # atno 10167 bound_to 10162
  157.0659  130.6328  149.5795 H   0  0  0  0  0  0  0  0  0  0  0  0  # atno 10718 bound_to 10713
  152.9923  135.5534  154.5883 H   0  0  0  0  0  0  0  0  0  0  0  0  # atno 10763 bound_to 10752
  154.5250  135.2810  155.1232 H   0  0  0  0  0  0  0  0  0  0  0  0  # atno 10764 bound_to 10752
  154.2570  135.6388  153.5313 H   0  0  0  0  0  0  0  0  0  0  0  0  # atno 10765 bound_to 10752
  139.9401  134.7415  156.1122 H   0  0  0  0  0  0  0  0  0  0  0  0  # atno 11005 bound_to 11000
  145.9474  139.2710  143.1233 LP  0  0  0  0  0  0  0  0  0  0  0  0  # atno 17320 bound_to 7965
  145.9360  140.9014  143.0332 LP  0  0  0  0  0  0  0  0  0  0  0  0  # atno 17321 bound_to 7965
  139.8453  144.7190  150.9280 LP  0  0  0  0  0  0  0  0  0  0  0  0  # atno 17342 bound_to 10162
  140.7801  143.3947  151.1250 LP  0  0  0  0  0  0  0  0  0  0  0  0  # atno 17343 bound_to 10162
  155.9965  130.5034  150.7498 LP  0  0  0  0  0  0  0  0  0  0  0  0  # atno 17370 bound_to 10713
  157.4917  131.0911  151.0419 LP  0  0  0  0  0  0  0  0  0  0  0  0  # atno 17371 bound_to 10713
  141.1032  133.6669  156.2802 LP  0  0  0  0  0  0  0  0  0  0  0  0  # atno 17394 bound_to 11000
  140.5974  134.5590  157.5511 LP  0  0  0  0  0  0  0  0  0  0  0  0  # atno 17395 bound_to 11000

$$$$
