AV-unprocessed.smi:3173|AV-procd|sdf|12118|dock2
  -GOLD-   2272017553D 1   1.00000     0.00000
 Structure written by MMmdl.
 35 36  0  0  0  0  0  0  0  0  1 V2000
  153.6518  139.3625  157.9438 O   0  0  0  0  0  0  0  0  0  0  0  0
  152.5940  139.9917  157.9772 C   0  0  0  0  0  0  0  0  0  0  0  0
  152.1065  140.6270  159.2841 C   0  0  0  0  0  0  0  0  0  0  0  0
  152.8881  141.8958  159.6856 C   0  0  1  0  0  0  0  0  0  0  0  0
  152.4542  143.1054  158.8984 C   0  0  0  0  0  0  0  0  0  0  0  0
  152.1586  144.1463  159.6737 C   0  0  0  0  0  0  0  0  0  0  0  0
  152.3335  143.8427  161.1355 C   0  0  0  0  0  0  0  0  0  0  0  0
  152.6857  142.3389  161.1599 C   0  0  0  0  0  0  0  0  0  0  0  0
  151.8116  140.1710  156.9020 N   0  0  0  0  0  0  0  0  0  0  0  0
  152.0904  139.6530  155.5675 C   0  0  0  0  0  0  0  0  0  0  0  0
  150.9777  138.7096  155.0811 C   0  0  0  0  0  0  0  0  0  0  0  0
  149.7330  139.4629  154.6518 C   0  0  0  0  0  0  0  0  0  0  0  0
  148.5821  138.7677  154.2226 C   0  0  0  0  0  0  0  0  0  0  0  0
  147.4510  139.5144  153.8397 C   0  0  0  0  0  0  0  0  0  0  0  0
  147.5133  140.9198  153.9017 C   0  0  0  0  0  0  0  0  0  0  0  0
  148.7091  141.5188  154.3462 C   0  0  0  0  0  0  0  0  0  0  0  0
  149.7995  140.8121  154.7151 N   0  0  0  0  0  0  0  0  0  0  0  0
  151.0504  140.8703  159.1618 H   0  0  0  0  0  0  0  0  0  0  0  0
  152.1619  139.8917  160.0888 H   0  0  0  0  0  0  0  0  0  0  0  0
  153.9516  141.7548  159.4861 H   0  0  0  0  0  0  0  0  0  0  0  0
  152.4128  143.1051  157.8191 H   0  0  0  0  0  0  0  0  0  0  0  0
  151.8408  145.1162  159.3203 H   0  0  0  0  0  0  0  0  0  0  0  0
  153.1386  144.4528  161.5456 H   0  0  0  0  0  0  0  0  0  0  0  0
  151.4175  144.0545  161.6879 H   0  0  0  0  0  0  0  0  0  0  0  0
  151.8657  141.7866  161.6205 H   0  0  0  0  0  0  0  0  0  0  0  0
  153.5761  142.1453  161.7592 H   0  0  0  0  0  0  0  0  0  0  0  0
  150.9611  140.7031  157.0167 H   0  0  0  0  0  0  0  0  0  0  0  0
  152.2260  140.4781  154.8660 H   0  0  0  0  0  0  0  0  0  0  0  0
  153.0405  139.1195  155.6051 H   0  0  0  0  0  0  0  0  0  0  0  0
  151.3352  138.1107  154.2422 H   0  0  0  0  0  0  0  0  0  0  0  0
  150.7107  138.0035  155.8686 H   0  0  0  0  0  0  0  0  0  0  0  0
  148.5643  137.6881  154.1879 H   0  0  0  0  0  0  0  0  0  0  0  0
  146.5521  139.0180  153.5053 H   0  0  0  0  0  0  0  0  0  0  0  0
  146.6653  141.5244  153.6165 H   0  0  0  0  0  0  0  0  0  0  0  0
  148.7916  142.5939  154.4080 H   0  0  0  0  0  0  0  0  0  0  0  0
  1  2  2  0  0  0  0
  2  3  1  0  0  0  0
  2  9  1  0  0  0  0
  3  4  1  0  0  0  0
  3 18  1  0  0  0  0
  3 19  1  0  0  0  0
  4  8  1  0  0  0  0
  4  5  1  0  0  0  0
  4 20  1  0  0  0  0
  5  6  2  0  0  0  0
  5 21  1  0  0  0  0
  6  7  1  0  0  0  0
  6 22  1  0  0  0  0
  7  8  1  0  0  0  0
  7 23  1  0  0  0  0
  7 24  1  0  0  0  0
  8 25  1  0  0  0  0
  8 26  1  0  0  0  0
  9 10  1  0  0  0  0
  9 27  1  0  0  0  0
 10 11  1  0  0  0  0
 10 28  1  0  0  0  0
 10 29  1  0  0  0  0
 11 12  1  0  0  0  0
 11 30  1  0  0  0  0
 11 31  1  0  0  0  0
 12 17  1  0  0  0  0
 12 13  2  0  0  0  0
 13 14  1  0  0  0  0
 13 32  1  0  0  0  0
 14 15  2  0  0  0  0
 14 33  1  0  0  0  0
 15 16  1  0  0  0  0
 15 34  1  0  0  0  0
 16 17  2  0  0  0  0
 16 35  1  0  0  0  0
M  END
> <s_m_source_file>
AV-unprocessed.smi

> <i_m_source_file_index>
3173

> <i_lp_mmshare_version>
43012

> <i_f3d_flags>
0

> <s_epik_input>
W0NIMl0xW0NIMl1bQ0hdPVtDSF1bQ0BIXTFbQ0gyXUMoPU8pW05IXVtDSDJdW0NIMl1jMltjSF1bY0hdW2NIXVtjSF1uMg==

> <s_epik_cmdline>
J2VwaWtfcHl0aG9uJywgJy1waCcsICc3LjAnLCAnLXRuJywgJzgnLCAnLW1hJywgJzIwMCcsICctbWV0YWxfYmluZGluZycsICctaW1hZScsICc8aW5maWxlLm1hZT4nLCAnLW9tYWUnLCAnPG91dGZpbGUubWFlPic=

> <r_epik_Ionization_Penalty>
0.0258754

> <r_epik_Ionization_Penalty_Charging>
0

> <r_epik_Ionization_Penalty_Neutral>
0.0258754

> <r_epik_State_Penalty>
0.0210899

> <r_epik_Charging_Adjusted_Penalty>
0.0210899

> <i_epik_Tot_Q>
0

> <i_epik_Tot_abs_Q>
0

> <r_epik_Metal_State_Penalty>
0.0202045

> <b_epik_Metal_Only>
0

> <s_lp_Force_Field>
OPLS_2005

> <r_lp_Energy>
13.8907

> <b_lp_Chiralities_Consistent>
1

> <s_lp_Variant>
AV-unprocessed.smi:3173-2

> <Gold.Version>
5.8.1

> <Gold.Id.Protein>
6NUR|6NUR_protein|mol2

> <Gold.PLP.Fitness>
48.3820

> <Gold.PLP.PLP>
-41.3137

> <Gold.PLP.part.hbond>
-2.0000

> <Gold.PLP.part.metal>
0.0000

> <Gold.PLP.part.buried>
-2.5299

> <Gold.PLP.part.nonpolar>
-37.6951

> <Gold.PLP.part.repulsive>
0.2367

> <Gold.PLP.ligand.clash>
0.0000

> <Gold.PLP.ligand.torsion>
0.3791

> <Gold.PLP.Chemscore.Hbond>
1.5984

> <Gold.PLP.Chemscore.CHOScore>
1.0000

> <Gold.PLP.Chemscore.Metal>
0.0000

> <Gold.Chemscore.Hbonds>
donor molecule, donor type, donor heavy atom, donor atom, acceptor molecule, acceptor atom, score
      P1  H  7989  7998       L1    17  0.28
      P1  H  7997  8009       L1     1  0.96
      L1  C    16    35       P1  8028  1.00

> <Gold.PLP.Chemscore.Internal.Correction>
0.0313

> <Gold.Rescore>
     Score         DG    S(hbond)    S(metal)    S(lipo)     H(rot)  DE(clash)    DE(int)     intcor
     16.43     -18.06       0.90        0.00     114.61       1.50       0.10       1.54       ----

> <Gold.Chemscore.Fitness>
16.4299

> <Gold.Chemscore.DG>
-18.0615

> <Gold.Chemscore.ZeroCoef>
-5.4800

> <Gold.Chemscore.Hbond>
0.9047

> <Gold.Chemscore.Metal>
0.0000

> <Gold.Chemscore.Lipo>
114.6073

> <Gold.Chemscore.Internal_Hbond>
0.0000

> <Gold.Chemscore.DEClash>
0.0960

> <Gold.Chemscore.DEInternal>
1.5356

> <Gold.Chemscore.Rot>
1.5037

> <Gold.Chemscore.Internal.Correction>
   9.000000E+99

> <Gold.Chemscore.Hbonds>
donor molecule, donor type, donor heavy atom, donor atom, acceptor molecule, acceptor atom, score
      P1  H  7989  7998       L1    17  0.02
      P1  H  7997  8009       L1     1  0.83

> <Gold.Chemscore.Hbond.Weighted>
-3.0218

> <Gold.Chemscore.Metal.Weighted>
-0.0000

> <Gold.Chemscore.Lipo.Weighted>
-13.4090

> <Gold.Chemscore.Internal_Hbond.Weighted>
0.0000

> <Gold.Chemscore.DEClash.Weighted>
0.0960

> <Gold.Chemscore.DEInternal.Weighted>
1.5356

> <Gold.Chemscore.Rot.Weighted>
3.8494

> <Gold.Chemscore.Internal.Correction.Weighted>
   9.000000E+99

> <Gold.Protein.RotatedTorsions>
[ 6907 6896 6895 6894 ] final -111.50 input  -60.11 | X-H torsion
[ 7974 7965 7964 7962 ] final   64.34 input  175.53 | X-H torsion
[ 8008 7997 7996 7995 ] final  138.60 input   59.86 | X-H torsion
[ 10167 10162 10161 10158 ] final  156.51 input  -65.29 | X-H torsion
[ 10718 10713 10712 10709 ] final -122.69 input   66.30 | X-H torsion
[ 10763 10752 10751 10750 ] final  124.18 input  -60.55 | X-H torsion
[ 11005 11000 10999 10996 ] final  132.50 input  -57.11 | X-H torsion

> <Gold.Protein.ActiveResidues>
 VAL166  LYS551  ARG553  GLY616  TRP617  ASP618  TYR619  PRO620  LYS621  CYS622 
 ASP623  PHE694  ASN695  SER759  ASP760  ASP761  ALA762  ILE779  LEU786  VAL792 
 PHE793  MET794  SER795  GLU796  ALA797  LYS798  CYS799  TRP800  GLU811  SER814 

> <Gold.Protein.RotatedAtoms>
  150.7694  133.9227  159.3402 H   0  0  0  0  0  0  0  0  0  0  0  0  # atno 6907 bound_to 6896
  151.7117  135.0909  160.0278 H   0  0  0  0  0  0  0  0  0  0  0  0  # atno 6908 bound_to 6896
  152.3705  133.6375  159.6119 H   0  0  0  0  0  0  0  0  0  0  0  0  # atno 6909 bound_to 6896
  145.8513  139.3256  143.0873 H   0  0  0  0  0  0  0  0  0  0  0  0  # atno 7974 bound_to 7965
  156.2996  140.2389  156.4100 H   0  0  0  0  0  0  0  0  0  0  0  0  # atno 8008 bound_to 7997
  154.8449  140.0426  157.1586 H   0  0  0  0  0  0  0  0  0  0  0  0  # atno 8009 bound_to 7997
  154.9061  140.2984  155.5295 H   0  0  0  0  0  0  0  0  0  0  0  0  # atno 8010 bound_to 7997
  139.4821  144.5002  151.8179 H   0  0  0  0  0  0  0  0  0  0  0  0  # atno 10167 bound_to 10162
  156.1440  130.6486  150.9814 H   0  0  0  0  0  0  0  0  0  0  0  0  # atno 10718 bound_to 10713
  153.6573  135.3352  155.3117 H   0  0  0  0  0  0  0  0  0  0  0  0  # atno 10763 bound_to 10752
  154.8523  135.4355  154.1841 H   0  0  0  0  0  0  0  0  0  0  0  0  # atno 10764 bound_to 10752
  153.2799  135.7008  153.7471 H   0  0  0  0  0  0  0  0  0  0  0  0  # atno 10765 bound_to 10752
  139.9794  134.9553  156.9591 H   0  0  0  0  0  0  0  0  0  0  0  0  # atno 11005 bound_to 11000
  145.9354  140.9018  143.0335 LP  0  0  0  0  0  0  0  0  0  0  0  0  # atno 17320 bound_to 7965
  144.6729  140.1475  143.7432 LP  0  0  0  0  0  0  0  0  0  0  0  0  # atno 17321 bound_to 7965
  140.4495  144.1875  150.5896 LP  0  0  0  0  0  0  0  0  0  0  0  0  # atno 17342 bound_to 10162
  140.4600  143.2453  151.9233 LP  0  0  0  0  0  0  0  0  0  0  0  0  # atno 17343 bound_to 10162
  157.6600  131.0882  150.7859 LP  0  0  0  0  0  0  0  0  0  0  0  0  # atno 17370 bound_to 10713
  156.7932  130.4897  149.5381 LP  0  0  0  0  0  0  0  0  0  0  0  0  # atno 17371 bound_to 10713
  140.5128  134.0985  155.7274 LP  0  0  0  0  0  0  0  0  0  0  0  0  # atno 17394 bound_to 11000
  141.1468  133.9041  157.2197 LP  0  0  0  0  0  0  0  0  0  0  0  0  # atno 17395 bound_to 11000

$$$$
