AV-unprocessed.smi:2810|AV-procd|sdf|10828|dock9
  -GOLD-   2272015273D 1   1.00000     0.00000
 Structure written by MMmdl.
 39 40  0  0  0  0  0  0  0  0  1 V2000
  151.7304  145.2968  158.9061 C   0  0  0  0  0  0  0  0  0  0  0  0
  151.9168  143.7996  158.7831 C   0  0  0  0  0  0  0  0  0  0  0  0
  151.3051  143.0631  157.7473 C   0  0  0  0  0  0  0  0  0  0  0  0
  151.5460  141.6708  157.7305 C   0  0  0  0  0  0  0  0  0  0  0  0
  150.9709  140.8679  156.7222 N   0  0  0  0  0  0  0  0  0  0  0  0
  150.2433  141.7001  155.7648 C   0  0  0  0  0  0  0  0  0  0  0  0
  149.4852  140.8361  154.7482 C   0  0  0  0  0  0  0  0  0  0  0  0
  150.4053  139.9688  154.1027 O   0  0  0  0  0  0  0  0  0  0  0  0
  151.0021  139.0666  155.0253 C   0  0  0  0  0  0  0  0  0  0  0  0
  151.8150  139.8298  156.0990 C   0  0  2  0  0  0  0  0  0  0  0  0
  152.4277  138.7790  157.0506 C   0  0  0  0  0  0  0  0  0  0  0  0
  151.6109  137.9108  157.6568 N   0  0  0  0  0  0  0  0  0  0  0  0
  153.6413  138.7627  157.2441 O   0  0  0  0  0  0  0  0  0  0  0  0
  152.3391  141.0964  158.6665 N   0  0  0  0  0  0  0  0  0  0  0  0
  152.8656  141.8862  159.6073 C   0  0  0  0  0  0  0  0  0  0  0  0
  153.7328  141.2133  160.6629 C   0  0  0  0  0  0  0  0  0  0  0  0
  153.6876  141.9600  162.0050 C   0  0  0  0  0  0  0  0  0  0  0  0
  155.1640  140.9718  160.1578 C   0  0  0  0  0  0  0  0  0  0  0  0
  152.6957  143.2076  159.7138 N   0  0  0  0  0  0  0  0  0  0  0  0
  151.0090  145.6652  158.1763 H   0  0  0  0  0  0  0  0  0  0  0  0
  152.6773  145.8107  158.7394 H   0  0  0  0  0  0  0  0  0  0  0  0
  151.3685  145.5551  159.9017 H   0  0  0  0  0  0  0  0  0  0  0  0
  150.6790  143.5397  157.0072 H   0  0  0  0  0  0  0  0  0  0  0  0
  149.5317  142.3503  156.2752 H   0  0  0  0  0  0  0  0  0  0  0  0
  150.9492  142.3492  155.2435 H   0  0  0  0  0  0  0  0  0  0  0  0
  148.6931  140.2617  155.2317 H   0  0  0  0  0  0  0  0  0  0  0  0
  149.0089  141.4686  153.9990 H   0  0  0  0  0  0  0  0  0  0  0  0
  150.2266  138.4482  155.4825 H   0  0  0  0  0  0  0  0  0  0  0  0
  151.6499  138.3914  154.4647 H   0  0  0  0  0  0  0  0  0  0  0  0
  152.6399  140.3318  155.5896 H   0  0  0  0  0  0  0  0  0  0  0  0
  151.9925  137.2140  158.2799 H   0  0  0  0  0  0  0  0  0  0  0  0
  150.6167  137.9537  157.4860 H   0  0  0  0  0  0  0  0  0  0  0  0
  153.3049  140.2266  160.8494 H   0  0  0  0  0  0  0  0  0  0  0  0
  152.6632  142.0510  162.3673 H   0  0  0  0  0  0  0  0  0  0  0  0
  154.1004  142.9654  161.9163 H   0  0  0  0  0  0  0  0  0  0  0  0
  154.2619  141.4326  162.7669 H   0  0  0  0  0  0  0  0  0  0  0  0
  155.1607  140.3784  159.2430 H   0  0  0  0  0  0  0  0  0  0  0  0
  155.7563  140.4343  160.8986 H   0  0  0  0  0  0  0  0  0  0  0  0
  155.6750  141.9111  159.9434 H   0  0  0  0  0  0  0  0  0  0  0  0
  1  2  1  0  0  0  0
  1 20  1  0  0  0  0
  1 21  1  0  0  0  0
  1 22  1  0  0  0  0
  2 19  1  0  0  0  0
  2  3  2  0  0  0  0
  3  4  1  0  0  0  0
  3 23  1  0  0  0  0
  4  5  1  0  0  0  0
  4 14  2  0  0  0  0
  5 10  1  0  0  0  0
  5  6  1  0  0  0  0
  6  7  1  0  0  0  0
  6 24  1  0  0  0  0
  6 25  1  0  0  0  0
  7  8  1  0  0  0  0
  7 26  1  0  0  0  0
  7 27  1  0  0  0  0
  8  9  1  0  0  0  0
  9 10  1  0  0  0  0
  9 28  1  0  0  0  0
  9 29  1  0  0  0  0
 10 11  1  0  0  0  0
 10 30  1  0  0  0  0
 11 12  1  0  0  0  0
 11 13  2  0  0  0  0
 12 31  1  0  0  0  0
 12 32  1  0  0  0  0
 14 15  1  0  0  0  0
 15 16  1  0  0  0  0
 15 19  2  0  0  0  0
 16 17  1  0  0  0  0
 16 18  1  0  0  0  0
 16 33  1  0  0  0  0
 17 34  1  0  0  0  0
 17 35  1  0  0  0  0
 17 36  1  0  0  0  0
 18 37  1  0  0  0  0
 18 38  1  0  0  0  0
 18 39  1  0  0  0  0
M  END
> <s_m_source_file>
AV-unprocessed.smi

> <i_m_source_file_index>
2810

> <i_lp_mmshare_version>
43012

> <i_f3d_flags>
0

> <s_epik_input>
W0NIM11bQ0hdKFtDSDNdKWMobjEpbmMoW2NIXWMxW0NIM10pTjJbQ0gyXVtDSDJdT1tDSDJdW0NASF0yQyg9TylbTkgyXQ==

> <s_epik_cmdline>
J2VwaWtfcHl0aG9uJywgJy1waCcsICc3LjAnLCAnLXRuJywgJzgnLCAnLW1hJywgJzIwMCcsICctbWV0YWxfYmluZGluZycsICctaW1hZScsICc8aW5maWxlLm1hZT4nLCAnLW9tYWUnLCAnPG91dGZpbGUubWFlPic=

> <r_lp_tautomer_probability>
1

> <r_epik_Ionization_Penalty>
0.00607782

> <r_epik_Ionization_Penalty_Charging>
0

> <r_epik_Ionization_Penalty_Neutral>
0.00607782

> <r_epik_State_Penalty>
0.00441345

> <r_epik_Charging_Adjusted_Penalty>
0.00441345

> <i_epik_Tot_Q>
0

> <i_epik_Tot_abs_Q>
0

> <r_epik_Metal_State_Penalty>
-0

> <b_epik_Metal_Only>
0

> <s_lp_Force_Field>
OPLS_2005

> <r_lp_Energy>
6.30102

> <b_lp_Chiralities_Consistent>
1

> <s_lp_Variant>
AV-unprocessed.smi:2810-2

> <Gold.Version>
5.8.1

> <Gold.Id.Protein>
6NUR|6NUR_protein|mol2

> <Gold.PLP.Fitness>
42.3793

> <Gold.PLP.PLP>
-42.4094

> <Gold.PLP.part.hbond>
-1.9052

> <Gold.PLP.part.metal>
0.0000

> <Gold.PLP.part.buried>
-5.3209

> <Gold.PLP.part.nonpolar>
-35.1809

> <Gold.PLP.part.repulsive>
0.7801

> <Gold.PLP.ligand.clash>
4.2795

> <Gold.PLP.ligand.torsion>
1.0055

> <Gold.PLP.Chemscore.Hbond>
2.0000

> <Gold.PLP.Chemscore.CHOScore>
0.0000

> <Gold.PLP.Chemscore.Metal>
0.0000

> <Gold.Chemscore.Hbonds>
donor molecule, donor type, donor heavy atom, donor atom, acceptor molecule, acceptor atom, score
      P1  H  7989  7998       L1     8  1.00
      P1  H  7997  8010       L1    13  1.00

> <Gold.PLP.Chemscore.Internal.Correction>
0.2604

> <Gold.Rescore>
     Score         DG    S(hbond)    S(metal)    S(lipo)     H(rot)  DE(clash)    DE(int)     intcor
     14.80     -17.30       1.66        0.00      91.10       1.71       0.08       2.43       ----

> <Gold.Chemscore.Fitness>
14.7969

> <Gold.Chemscore.DG>
-17.2974

> <Gold.Chemscore.ZeroCoef>
-5.4800

> <Gold.Chemscore.Hbond>
1.6589

> <Gold.Chemscore.Metal>
0.0000

> <Gold.Chemscore.Lipo>
91.0997

> <Gold.Chemscore.Internal_Hbond>
0.0000

> <Gold.Chemscore.DEClash>
0.0754

> <Gold.Chemscore.DEInternal>
2.4252

> <Gold.Chemscore.Rot>
1.7117

> <Gold.Chemscore.Internal.Correction>
   9.000000E+99

> <Gold.Chemscore.Hbonds>
donor molecule, donor type, donor heavy atom, donor atom, acceptor molecule, acceptor atom, score
      P1  H  7989  7998       L1     8  0.41
      P1  H  7997  8010       L1    13  0.86

> <Gold.Chemscore.Hbond.Weighted>
-5.5407

> <Gold.Chemscore.Metal.Weighted>
-0.0000

> <Gold.Chemscore.Lipo.Weighted>
-10.6587

> <Gold.Chemscore.Internal_Hbond.Weighted>
0.0000

> <Gold.Chemscore.DEClash.Weighted>
0.0754

> <Gold.Chemscore.DEInternal.Weighted>
2.4252

> <Gold.Chemscore.Rot.Weighted>
4.3820

> <Gold.Chemscore.Internal.Correction.Weighted>
   9.000000E+99

> <Gold.Protein.RotatedTorsions>
[ 6907 6896 6895 6894 ] final -167.33 input  -60.11 | X-H torsion
[ 7974 7965 7964 7962 ] final -112.90 input  175.53 | X-H torsion
[ 8008 7997 7996 7995 ] final   54.38 input   59.86 | X-H torsion
[ 10167 10162 10161 10158 ] final -114.78 input  -65.29 | X-H torsion
[ 10718 10713 10712 10709 ] final  167.94 input   66.30 | X-H torsion
[ 10763 10752 10751 10750 ] final   44.99 input  -60.55 | X-H torsion
[ 11005 11000 10999 10996 ] final  -45.91 input  -57.11 | X-H torsion

> <Gold.Protein.ActiveResidues>
 VAL166  LYS551  ARG553  GLY616  TRP617  ASP618  TYR619  PRO620  LYS621  CYS622 
 ASP623  PHE694  ASN695  SER759  ASP760  ASP761  ALA762  ILE779  LEU786  VAL792 
 PHE793  MET794  SER795  GLU796  ALA797  LYS798  CYS799  TRP800  GLU811  SER814 

> <Gold.Protein.RotatedAtoms>
  151.4578  133.3600  159.2804 H   0  0  0  0  0  0  0  0  0  0  0  0  # atno 6907 bound_to 6896
  150.9046  134.8462  159.7394 H   0  0  0  0  0  0  0  0  0  0  0  0  # atno 6908 bound_to 6896
  152.4899  134.4502  159.9624 H   0  0  0  0  0  0  0  0  0  0  0  0  # atno 6909 bound_to 6896
  145.1385  140.8764  143.3716 H   0  0  0  0  0  0  0  0  0  0  0  0  # atno 7974 bound_to 7965
  155.4837  140.3469  155.4344 H   0  0  0  0  0  0  0  0  0  0  0  0  # atno 8008 bound_to 7997
  156.1022  140.1438  156.9480 H   0  0  0  0  0  0  0  0  0  0  0  0  # atno 8009 bound_to 7997
  154.4701  140.0904  156.7100 H   0  0  0  0  0  0  0  0  0  0  0  0  # atno 8010 bound_to 7997
  140.0973  143.4645  152.1834 H   0  0  0  0  0  0  0  0  0  0  0  0  # atno 10167 bound_to 10162
  157.0443  131.0295  151.2703 H   0  0  0  0  0  0  0  0  0  0  0  0  # atno 10718 bound_to 10713
  152.9832  135.6053  154.3363 H   0  0  0  0  0  0  0  0  0  0  0  0  # atno 10763 bound_to 10752
  154.3063  135.2772  155.2589 H   0  0  0  0  0  0  0  0  0  0  0  0  # atno 10764 bound_to 10752
  154.4819  135.5915  153.6451 H   0  0  0  0  0  0  0  0  0  0  0  0  # atno 10765 bound_to 10752
  141.0546  133.6730  156.3080 H   0  0  0  0  0  0  0  0  0  0  0  0  # atno 11005 bound_to 11000
  145.0558  139.3145  143.5905 LP  0  0  0  0  0  0  0  0  0  0  0  0  # atno 17320 bound_to 7965
  146.3507  139.9982  142.8679 LP  0  0  0  0  0  0  0  0  0  0  0  0  # atno 17321 bound_to 7965
  139.5691  144.7452  151.3940 LP  0  0  0  0  0  0  0  0  0  0  0  0  # atno 17342 bound_to 10162
  140.6997  143.7663  150.7382 LP  0  0  0  0  0  0  0  0  0  0  0  0  # atno 17343 bound_to 10162
  157.5080  130.7921  149.7675 LP  0  0  0  0  0  0  0  0  0  0  0  0  # atno 17370 bound_to 10713
  156.0028  130.3871  150.2542 LP  0  0  0  0  0  0  0  0  0  0  0  0  # atno 17371 bound_to 10713
  140.5990  134.5574  157.5514 LP  0  0  0  0  0  0  0  0  0  0  0  0  # atno 17394 bound_to 11000
  139.9379  134.7841  156.0755 LP  0  0  0  0  0  0  0  0  0  0  0  0  # atno 17395 bound_to 11000

$$$$
