AV-unprocessed.smi:1762|AV-procd|sdf|7101|dock10
  -GOLD-   22720 8323D 1   1.00000     0.00000
 Structure written by MMmdl.
 52 53  0  0  0  0  0  0  0  0  1 V2000
  151.9152  138.0879  154.4555 C   0  0  0  0  0  0  0  0  0  0  0  0
  150.8082  138.9759  155.0349 C   0  0  2  0  0  0  0  0  0  0  0  0
  149.5480  138.9860  154.1505 C   0  0  0  0  0  0  0  0  0  0  0  0
  148.5113  139.9036  154.6517 N   0  0  0  0  0  0  0  0  0  0  0  0
  147.2492  139.9037  153.8597 C   0  0  1  0  0  0  0  0  0  0  0  0
  146.7140  138.4845  153.5540 C   0  0  0  0  0  0  0  0  0  0  0  0
  147.2279  137.4970  154.0811 O   0  0  0  0  0  0  0  0  0  0  0  0
  145.6887  138.4013  152.6914 N   0  0  0  0  0  0  0  0  0  0  0  0
  145.0346  137.1636  152.2850 C   0  0  0  0  0  0  0  0  0  0  0  0
  145.6363  136.6083  150.9830 C   0  0  0  0  0  0  0  0  0  0  0  0
  145.4826  135.1030  150.8766 C   0  0  0  0  0  0  0  0  0  0  0  0
  144.2245  134.5258  150.6027 C   0  0  0  0  0  0  0  0  0  0  0  0
  144.1328  133.1228  150.5227 C   0  0  0  0  0  0  0  0  0  0  0  0
  145.2966  132.3548  150.7197 C   0  0  0  0  0  0  0  0  0  0  0  0
  146.5051  133.0271  150.9903 C   0  0  0  0  0  0  0  0  0  0  0  0
  146.6036  134.3718  151.0703 N   0  0  0  0  0  0  0  0  0  0  0  0
  146.1082  140.8068  154.4393 C   0  0  0  0  0  0  0  0  0  0  0  0
  146.3531  142.3164  154.2459 C   0  0  0  0  0  0  0  0  0  0  0  0
  145.7677  140.5051  155.9135 C   0  0  0  0  0  0  0  0  0  0  0  0
  149.1029  141.2410  154.7857 C   0  0  0  0  0  0  0  0  0  0  0  0
  150.3885  141.2617  155.6369 C   0  0  1  0  0  0  0  0  0  0  0  0
  150.1241  141.0990  157.1443 C   0  0  0  0  0  0  0  0  0  0  0  0
  151.3214  140.2984  155.1524 O   0  0  0  0  0  0  0  0  0  0  0  0
  151.5792  137.0554  154.3582 H   0  0  0  0  0  0  0  0  0  0  0  0
  152.7944  138.0911  155.1003 H   0  0  0  0  0  0  0  0  0  0  0  0
  152.2244  138.4342  153.4690 H   0  0  0  0  0  0  0  0  0  0  0  0
  150.5531  138.5960  156.0246 H   0  0  0  0  0  0  0  0  0  0  0  0
  149.8167  139.2586  153.1284 H   0  0  0  0  0  0  0  0  0  0  0  0
  149.1895  137.9582  154.1133 H   0  0  0  0  0  0  0  0  0  0  0  0
  147.4966  140.3338  152.8867 H   0  0  0  0  0  0  0  0  0  0  0  0
  145.3287  139.2587  152.2979 H   0  0  0  0  0  0  0  0  0  0  0  0
  145.1551  136.4386  153.0903 H   0  0  0  0  0  0  0  0  0  0  0  0
  143.9615  137.3277  152.1721 H   0  0  0  0  0  0  0  0  0  0  0  0
  145.1628  137.0745  150.1179 H   0  0  0  0  0  0  0  0  0  0  0  0
  146.6958  136.8621  150.9235 H   0  0  0  0  0  0  0  0  0  0  0  0
  143.3492  135.1425  150.4596 H   0  0  0  0  0  0  0  0  0  0  0  0
  143.1869  132.6444  150.3158 H   0  0  0  0  0  0  0  0  0  0  0  0
  145.2642  131.2767  150.6654 H   0  0  0  0  0  0  0  0  0  0  0  0
  147.4166  132.4698  151.1479 H   0  0  0  0  0  0  0  0  0  0  0  0
  145.1905  140.5641  153.9062 H   0  0  0  0  0  0  0  0  0  0  0  0
  147.2138  142.6656  154.8157 H   0  0  0  0  0  0  0  0  0  0  0  0
  145.4898  142.8946  154.5758 H   0  0  0  0  0  0  0  0  0  0  0  0
  146.5251  142.5642  153.1983 H   0  0  0  0  0  0  0  0  0  0  0  0
  146.5626  140.8178  156.5913 H   0  0  0  0  0  0  0  0  0  0  0  0
  145.5942  139.4401  156.0682 H   0  0  0  0  0  0  0  0  0  0  0  0
  144.8619  141.0302  156.2177 H   0  0  0  0  0  0  0  0  0  0  0  0
  149.3292  141.6395  153.7951 H   0  0  0  0  0  0  0  0  0  0  0  0
  148.4042  141.9374  155.2444 H   0  0  0  0  0  0  0  0  0  0  0  0
  150.8617  142.2347  155.5032 H   0  0  0  0  0  0  0  0  0  0  0  0
  149.5121  141.9192  157.5205 H   0  0  0  0  0  0  0  0  0  0  0  0
  151.0583  141.1004  157.7058 H   0  0  0  0  0  0  0  0  0  0  0  0
  149.5973  140.1724  157.3714 H   0  0  0  0  0  0  0  0  0  0  0  0
  1  2  1  0  0  0  0
  1 24  1  0  0  0  0
  1 25  1  0  0  0  0
  1 26  1  0  0  0  0
  2 23  1  0  0  0  0
  2  3  1  0  0  0  0
  2 27  1  0  0  0  0
  3  4  1  0  0  0  0
  3 28  1  0  0  0  0
  3 29  1  0  0  0  0
  4  5  1  0  0  0  0
  4 20  1  0  0  0  0
  5  6  1  0  0  0  0
  5 17  1  0  0  0  0
  5 30  1  0  0  0  0
  6  7  2  0  0  0  0
  6  8  1  0  0  0  0
  8  9  1  0  0  0  0
  8 31  1  0  0  0  0
  9 10  1  0  0  0  0
  9 32  1  0  0  0  0
  9 33  1  0  0  0  0
 10 11  1  0  0  0  0
 10 34  1  0  0  0  0
 10 35  1  0  0  0  0
 11 16  1  0  0  0  0
 11 12  2  0  0  0  0
 12 13  1  0  0  0  0
 12 36  1  0  0  0  0
 13 14  2  0  0  0  0
 13 37  1  0  0  0  0
 14 15  1  0  0  0  0
 14 38  1  0  0  0  0
 15 16  2  0  0  0  0
 15 39  1  0  0  0  0
 17 18  1  0  0  0  0
 17 19  1  0  0  0  0
 17 40  1  0  0  0  0
 18 41  1  0  0  0  0
 18 42  1  0  0  0  0
 18 43  1  0  0  0  0
 19 44  1  0  0  0  0
 19 45  1  0  0  0  0
 19 46  1  0  0  0  0
 20 21  1  0  0  0  0
 20 47  1  0  0  0  0
 20 48  1  0  0  0  0
 21 22  1  0  0  0  0
 21 23  1  0  0  0  0
 21 49  1  0  0  0  0
 22 50  1  0  0  0  0
 22 51  1  0  0  0  0
 22 52  1  0  0  0  0
M  END
> <s_m_source_file>
AV-unprocessed.smi

> <i_m_source_file_index>
1762

> <i_lp_mmshare_version>
43012

> <i_f3d_flags>
0

> <s_epik_input>
W0NIM11bQ0BASF0xW0NIMl1OKFtDSDJdW0NASF0oTzEpW0NIM10pW0NAQEhdKFtDSF0oW0NIM10pW0NIM10pQyg9TylbTkhdW0NIMl1bQ0gyXWMyW2NIXVtjSF1bY0hdW2NIXW4y

> <s_epik_cmdline>
J2VwaWtfcHl0aG9uJywgJy1waCcsICc3LjAnLCAnLXRuJywgJzgnLCAnLW1hJywgJzIwMCcsICctbWV0YWxfYmluZGluZycsICctaW1hZScsICc8aW5maWxlLm1hZT4nLCAnLW9tYWUnLCAnPG91dGZpbGUubWFlPic=

> <r_epik_Ionization_Penalty>
0.0399736

> <r_epik_Ionization_Penalty_Charging>
0

> <r_epik_Ionization_Penalty_Neutral>
0.0399736

> <r_epik_State_Penalty>
0.0317634

> <r_epik_Charging_Adjusted_Penalty>
0.0317634

> <i_epik_Tot_Q>
0

> <i_epik_Tot_abs_Q>
0

> <r_epik_Metal_State_Penalty>
0.0307795

> <b_epik_Metal_Only>
0

> <s_lp_Force_Field>
OPLS_2005

> <r_lp_Energy>
29.8059

> <b_lp_Chiralities_Consistent>
1

> <s_lp_Variant>
AV-unprocessed.smi:1762-3

> <Gold.Version>
5.8.1

> <Gold.Id.Protein>
6NUR|6NUR_protein|mol2

> <Gold.PLP.Fitness>
47.6826

> <Gold.PLP.PLP>
-40.2254

> <Gold.PLP.part.hbond>
-2.0000

> <Gold.PLP.part.metal>
0.0000

> <Gold.PLP.part.buried>
-5.1672

> <Gold.PLP.part.nonpolar>
-34.3199

> <Gold.PLP.part.repulsive>
0.4758

> <Gold.PLP.ligand.clash>
0.0000

> <Gold.PLP.ligand.torsion>
0.8595

> <Gold.PLP.Chemscore.Hbond>
1.9760

> <Gold.PLP.Chemscore.CHOScore>
1.0000

> <Gold.PLP.Chemscore.Metal>
0.0000

> <Gold.Chemscore.Hbonds>
donor molecule, donor type, donor heavy atom, donor atom, acceptor molecule, acceptor atom, score
      L1  H     8    31       P1 10175  0.75
      P1  H  7989  7998       L1    23  1.00
      L1  C    15    39       P1 10747  1.00

> <Gold.PLP.Chemscore.Internal.Correction>
0.2483

> <Gold.Rescore>
     Score         DG    S(hbond)    S(metal)    S(lipo)     H(rot)  DE(clash)    DE(int)     intcor
     15.25     -18.15       1.26        0.00     107.35       1.60       0.26       2.64       ----

> <Gold.Chemscore.Fitness>
15.2504

> <Gold.Chemscore.DG>
-18.1489

> <Gold.Chemscore.ZeroCoef>
-5.4800

> <Gold.Chemscore.Hbond>
1.2583

> <Gold.Chemscore.Metal>
0.0000

> <Gold.Chemscore.Lipo>
107.3532

> <Gold.Chemscore.Internal_Hbond>
0.0000

> <Gold.Chemscore.DEClash>
0.2630

> <Gold.Chemscore.DEInternal>
2.6356

> <Gold.Chemscore.Rot>
1.5993

> <Gold.Chemscore.Internal.Correction>
   9.000000E+99

> <Gold.Chemscore.Hbonds>
donor molecule, donor type, donor heavy atom, donor atom, acceptor molecule, acceptor atom, score
      L1  H     8    31       P1 10175  0.71
      P1  H  7989  7998       L1    23  0.20

> <Gold.Chemscore.Hbond.Weighted>
-4.2027

> <Gold.Chemscore.Metal.Weighted>
-0.0000

> <Gold.Chemscore.Lipo.Weighted>
-12.5603

> <Gold.Chemscore.Internal_Hbond.Weighted>
0.0000

> <Gold.Chemscore.DEClash.Weighted>
0.2630

> <Gold.Chemscore.DEInternal.Weighted>
2.6356

> <Gold.Chemscore.Rot.Weighted>
4.0941

> <Gold.Chemscore.Internal.Correction.Weighted>
   9.000000E+99

> <Gold.Protein.RotatedTorsions>
[ 6907 6896 6895 6894 ] final  109.71 input  -60.11 | X-H torsion
[ 7974 7965 7964 7962 ] final  144.89 input  175.53 | X-H torsion
[ 8008 7997 7996 7995 ] final -140.13 input   59.86 | X-H torsion
[ 10167 10162 10161 10158 ] final  -96.19 input  -65.29 | X-H torsion
[ 10718 10713 10712 10709 ] final -141.81 input   66.30 | X-H torsion
[ 10763 10752 10751 10750 ] final   92.46 input  -60.55 | X-H torsion
[ 11005 11000 10999 10996 ] final -103.27 input  -57.11 | X-H torsion

> <Gold.Protein.ActiveResidues>
 VAL166  LYS551  ARG553  GLY616  TRP617  ASP618  TYR619  PRO620  LYS621  CYS622 
 ASP623  PHE694  ASN695  SER759  ASP760  ASP761  ALA762  ILE779  LEU786  VAL792 
 PHE793  MET794  SER795  GLU796  ALA797  LYS798  CYS799  TRP800  GLU811  SER814 

> <Gold.Protein.RotatedAtoms>
  152.5054  133.8905  159.7391 H   0  0  0  0  0  0  0  0  0  0  0  0  # atno 6907 bound_to 6896
  150.9345  133.6719  159.2810 H   0  0  0  0  0  0  0  0  0  0  0  0  # atno 6908 bound_to 6896
  151.4052  135.0982  159.9621 H   0  0  0  0  0  0  0  0  0  0  0  0  # atno 6909 bound_to 6896
  144.8797  139.5717  143.5848 H   0  0  0  0  0  0  0  0  0  0  0  0  # atno 7974 bound_to 7965
  155.4563  140.0542  157.2996 H   0  0  0  0  0  0  0  0  0  0  0  0  # atno 8008 bound_to 7997
  154.4756  140.2059  155.9842 H   0  0  0  0  0  0  0  0  0  0  0  0  # atno 8009 bound_to 7997
  156.1126  140.3201  155.8099 H   0  0  0  0  0  0  0  0  0  0  0  0  # atno 8010 bound_to 7997
  140.2964  143.3189  152.0294 H   0  0  0  0  0  0  0  0  0  0  0  0  # atno 10167 bound_to 10162
  156.3385  130.7624  151.1756 H   0  0  0  0  0  0  0  0  0  0  0  0  # atno 10718 bound_to 10713
  153.2195  135.4360  155.0472 H   0  0  0  0  0  0  0  0  0  0  0  0  # atno 10763 bound_to 10752
  154.8242  135.3352  154.6949 H   0  0  0  0  0  0  0  0  0  0  0  0  # atno 10764 bound_to 10752
  153.7382  135.7006  153.5029 H   0  0  0  0  0  0  0  0  0  0  0  0  # atno 10765 bound_to 10752
  141.1153  133.8626  157.1465 H   0  0  0  0  0  0  0  0  0  0  0  0  # atno 11005 bound_to 11000
  146.2986  139.7357  142.9108 LP  0  0  0  0  0  0  0  0  0  0  0  0  # atno 17320 bound_to 7965
  145.3976  141.0381  143.3088 LP  0  0  0  0  0  0  0  0  0  0  0  0  # atno 17321 bound_to 7965
  139.4925  144.6488  151.6721 LP  0  0  0  0  0  0  0  0  0  0  0  0  # atno 17342 bound_to 10162
  140.5689  144.0143  150.6206 LP  0  0  0  0  0  0  0  0  0  0  0  0  # atno 17343 bound_to 10162
  157.7443  131.0461  150.4877 LP  0  0  0  0  0  0  0  0  0  0  0  0  # atno 17370 bound_to 10713
  156.5054  130.4127  149.6330 LP  0  0  0  0  0  0  0  0  0  0  0  0  # atno 17371 bound_to 10713
  140.0071  135.0004  157.0316 LP  0  0  0  0  0  0  0  0  0  0  0  0  # atno 17394 bound_to 11000
  140.4663  134.1432  155.7197 LP  0  0  0  0  0  0  0  0  0  0  0  0  # atno 17395 bound_to 11000

$$$$
