AV-unprocessed.smi:2784|AV-procd|sdf|10742|dock2
  -GOLD-   2272015173D 1   1.00000     0.00000
 Structure written by MMmdl.
 30 31  0  0  0  0  0  0  0  0  2 V2000
  148.6921  144.9934  160.6887 C   0  0  0  0  0  0  0  0  0  0  0  0
  149.6770  145.2721  159.7065 O   0  0  0  0  0  0  0  0  0  0  0  0
  150.5658  144.1894  159.4622 C   0  0  2  0  0  0  0  0  0  0  0  0
  151.6349  144.0703  160.5585 C   0  0  0  0  0  0  0  0  0  0  0  0
  152.8693  143.5418  159.8374 C   0  0  0  0  0  0  0  0  0  0  0  0
  152.8312  144.2515  158.4860 C   0  0  0  0  0  0  0  0  0  0  0  0
  151.3375  144.4202  158.1438 C   0  0  1  0  0  0  0  0  0  0  0  0
  150.9176  143.4581  157.1263 N   0  0  0  0  0  0  0  0  0  0  0  0
  151.2246  142.1532  157.1012 C   0  0  0  0  0  0  0  0  0  0  0  0
  151.9199  141.6680  157.9968 O   0  0  0  0  0  0  0  0  0  0  0  0
  150.7034  141.4915  156.0433 N   0  5  0  0  0  0  0  0  0  0  0  0
  151.2883  140.3651  155.6051 C   0  0  0  0  0  0  0  0  0  0  0  0
  152.3987  139.8089  156.0927 N   0  0  0  0  0  0  0  0  0  0  0  0
  152.6222  138.6746  155.3275 C   0  0  0  0  0  0  0  0  0  0  0  0
  151.6271  138.5968  154.3919 C   0  0  0  0  0  0  0  0  0  0  0  0
  150.7822  139.6598  154.5539 O   0  0  0  0  0  0  0  0  0  0  0  0
  148.0375  145.8574  160.8014 H   0  0  0  0  0  0  0  0  0  0  0  0
  149.1402  144.7869  161.6611 H   0  0  0  0  0  0  0  0  0  0  0  0
  148.0752  144.1418  160.3990 H   0  0  0  0  0  0  0  0  0  0  0  0
  150.0071  143.2527  159.4021 H   0  0  0  0  0  0  0  0  0  0  0  0
  151.8558  145.0561  160.9704 H   0  0  0  0  0  0  0  0  0  0  0  0
  151.3229  143.4278  161.3823 H   0  0  0  0  0  0  0  0  0  0  0  0
  153.7923  143.7313  160.3860 H   0  0  0  0  0  0  0  0  0  0  0  0
  152.7794  142.4644  159.6910 H   0  0  0  0  0  0  0  0  0  0  0  0
  153.2870  145.2373  158.5872 H   0  0  0  0  0  0  0  0  0  0  0  0
  153.3980  143.7147  157.7239 H   0  0  0  0  0  0  0  0  0  0  0  0
  151.1603  145.4331  157.7770 H   0  0  0  0  0  0  0  0  0  0  0  0
  150.3478  143.8131  156.3726 H   0  0  0  0  0  0  0  0  0  0  0  0
  153.4627  138.0209  155.5069 H   0  0  0  0  0  0  0  0  0  0  0  0
  151.3919  137.9036  153.5984 H   0  0  0  0  0  0  0  0  0  0  0  0
  1  2  1  0  0  0  0
  1 17  1  0  0  0  0
  1 18  1  0  0  0  0
  1 19  1  0  0  0  0
  2  3  1  0  0  0  0
  3  7  1  0  0  0  0
  3  4  1  0  0  0  0
  3 20  1  0  0  0  0
  4  5  1  0  0  0  0
  4 21  1  0  0  0  0
  4 22  1  0  0  0  0
  5  6  1  0  0  0  0
  5 23  1  0  0  0  0
  5 24  1  0  0  0  0
  6  7  1  0  0  0  0
  6 25  1  0  0  0  0
  6 26  1  0  0  0  0
  7  8  1  0  0  0  0
  7 27  1  0  0  0  0
  8 28  1  0  0  0  0
  8  9  1  0  0  0  0
  9 11  1  0  0  0  0
  9 10  2  0  0  0  0
 11 12  1  0  0  0  0
 12 16  1  0  0  0  0
 12 13  2  0  0  0  0
 13 14  1  0  0  0  0
 14 29  1  0  0  0  0
 14 15  2  0  0  0  0
 15 30  1  0  0  0  0
 15 16  1  0  0  0  0
M  CHG  1  11  -1
M  END
> <s_m_source_file>
AV-unprocessed.smi

> <i_m_source_file_index>
2784

> <i_lp_mmshare_version>
43012

> <i_f3d_flags>
0

> <s_epik_input>
W0NIM11PW0NAQEhdMVtDSDJdW0NIMl1bQ0gyXVtDQEhdMVtOSF1DKD1PKVtOSF1jMm5bY0hdW2NIXW8y

> <s_epik_cmdline>
J2VwaWtfcHl0aG9uJywgJy1waCcsICc3LjAnLCAnLXRuJywgJzgnLCAnLW1hJywgJzIwMCcsICctbWV0YWxfYmluZGluZycsICctaW1hZScsICc8aW5maWxlLm1hZT4nLCAnLW9tYWUnLCAnPG91dGZpbGUubWFlPic=

> <r_lp_tautomer_probability>
0.107061

> <r_epik_Ionization_Penalty>
10.8857

> <r_epik_Ionization_Penalty_Charging>
7.67908

> <r_epik_Ionization_Penalty_Neutral>
3.20665

> <r_epik_State_Penalty>
5.80296

> <r_epik_Charging_Adjusted_Penalty>
13.482

> <i_epik_Tot_Q>
-1

> <i_epik_Tot_abs_Q>
1

> <r_epik_Metal_State_Penalty>
1.73217

> <b_epik_Metal_Only>
1

> <s_lp_Force_Field>
OPLS_2005

> <r_lp_Energy>
14.4726

> <b_lp_Chiralities_Consistent>
1

> <s_lp_Variant>
AV-unprocessed.smi:2784-17

> <Gold.Version>
5.8.1

> <Gold.Id.Protein>
6NUR|6NUR_protein|mol2

> <Gold.PLP.Fitness>
43.6722

> <Gold.PLP.PLP>
-37.6858

> <Gold.PLP.part.hbond>
-3.7232

> <Gold.PLP.part.metal>
0.0000

> <Gold.PLP.part.buried>
-6.0994

> <Gold.PLP.part.nonpolar>
-28.1090

> <Gold.PLP.part.repulsive>
0.5128

> <Gold.PLP.ligand.clash>
0.0000

> <Gold.PLP.ligand.torsion>
0.4383

> <Gold.PLP.Chemscore.Hbond>
2.1125

> <Gold.PLP.Chemscore.CHOScore>
0.1728

> <Gold.PLP.Chemscore.Metal>
0.0000

> <Gold.Chemscore.Hbonds>
donor molecule, donor type, donor heavy atom, donor atom, acceptor molecule, acceptor atom, score
      L1  H     8    28       P1  8028  1.00
      P1  H  7989  7998       L1    16  0.29
      P1  H  7997  8009       L1    13  0.72
      L1  C    15    30       P1  7949  0.19

> <Gold.PLP.Chemscore.Internal.Correction>
0.0070

> <Gold.Rescore>
     Score         DG    S(hbond)    S(metal)    S(lipo)     H(rot)  DE(clash)    DE(int)     intcor
     10.76     -15.95       1.12        0.00      86.13       1.31       0.42       4.77       ----

> <Gold.Chemscore.Fitness>
10.7620

> <Gold.Chemscore.DG>
-15.9457

> <Gold.Chemscore.ZeroCoef>
-5.4800

> <Gold.Chemscore.Hbond>
1.1209

> <Gold.Chemscore.Metal>
0.0000

> <Gold.Chemscore.Lipo>
86.1276

> <Gold.Chemscore.Internal_Hbond>
0.0000

> <Gold.Chemscore.DEClash>
0.4164

> <Gold.Chemscore.DEInternal>
4.7672

> <Gold.Chemscore.Rot>
1.3106

> <Gold.Chemscore.Internal.Correction>
   9.000000E+99

> <Gold.Chemscore.Hbonds>
donor molecule, donor type, donor heavy atom, donor atom, acceptor molecule, acceptor atom, score
      L1  H     8    28       P1  8028  0.98
      P1  H  7997  8009       L1    13  0.08

> <Gold.Chemscore.Hbond.Weighted>
-3.7438

> <Gold.Chemscore.Metal.Weighted>
-0.0000

> <Gold.Chemscore.Lipo.Weighted>
-10.0769

> <Gold.Chemscore.Internal_Hbond.Weighted>
0.0000

> <Gold.Chemscore.DEClash.Weighted>
0.4164

> <Gold.Chemscore.DEInternal.Weighted>
4.7672

> <Gold.Chemscore.Rot.Weighted>
3.3550

> <Gold.Chemscore.Internal.Correction.Weighted>
   9.000000E+99

> <Gold.Protein.RotatedTorsions>
[ 6907 6896 6895 6894 ] final  -11.95 input  -60.11 | X-H torsion
[ 7974 7965 7964 7962 ] final -150.52 input  175.53 | X-H torsion
[ 8008 7997 7996 7995 ] final -178.33 input   59.86 | X-H torsion
[ 10167 10162 10161 10158 ] final  173.51 input  -65.29 | X-H torsion
[ 10718 10713 10712 10709 ] final   73.44 input   66.30 | X-H torsion
[ 10763 10752 10751 10750 ] final  -34.82 input  -60.55 | X-H torsion
[ 11005 11000 10999 10996 ] final    6.48 input  -57.11 | X-H torsion

> <Gold.Protein.ActiveResidues>
 VAL166  LYS551  ARG553  GLY616  TRP617  ASP618  TYR619  PRO620  LYS621  CYS622 
 ASP623  PHE694  ASN695  SER759  ASP760  ASP761  ALA762  ILE779  LEU786  VAL792 
 PHE793  MET794  SER795  GLU796  ALA797  LYS798  CYS799  TRP800  GLU811  SER814 

> <Gold.Protein.RotatedAtoms>
  151.3781  135.0935  159.9487 H   0  0  0  0  0  0  0  0  0  0  0  0  # atno 6907 bound_to 6896
  152.5116  133.9098  159.7493 H   0  0  0  0  0  0  0  0  0  0  0  0  # atno 6908 bound_to 6896
  150.9526  133.6477  159.2798 H   0  0  0  0  0  0  0  0  0  0  0  0  # atno 6909 bound_to 6896
  144.7902  140.4920  143.5778 H   0  0  0  0  0  0  0  0  0  0  0  0  # atno 7974 bound_to 7965
  156.0175  140.1254  157.0391 H   0  0  0  0  0  0  0  0  0  0  0  0  # atno 8008 bound_to 7997
  154.4299  140.1075  156.5987 H   0  0  0  0  0  0  0  0  0  0  0  0  # atno 8009 bound_to 7997
  155.5992  140.3470  155.4591 H   0  0  0  0  0  0  0  0  0  0  0  0  # atno 8010 bound_to 7997
  139.5110  144.3253  152.0164 H   0  0  0  0  0  0  0  0  0  0  0  0  # atno 10167 bound_to 10162
  157.6548  130.9629  150.1070 H   0  0  0  0  0  0  0  0  0  0  0  0  # atno 10718 bound_to 10713
  153.8531  135.6847  153.4790 H   0  0  0  0  0  0  0  0  0  0  0  0  # atno 10763 bound_to 10752
  153.1385  135.4667  154.9458 H   0  0  0  0  0  0  0  0  0  0  0  0  # atno 10764 bound_to 10752
  154.7793  135.3263  154.7972 H   0  0  0  0  0  0  0  0  0  0  0  0  # atno 10765 bound_to 10752
  140.5589  134.0211  155.7964 H   0  0  0  0  0  0  0  0  0  0  0  0  # atno 11005 bound_to 11000
  145.5813  139.1489  143.3233 LP  0  0  0  0  0  0  0  0  0  0  0  0  # atno 17320 bound_to 7965
  146.2151  140.5943  142.9042 LP  0  0  0  0  0  0  0  0  0  0  0  0  # atno 17321 bound_to 7965
  140.2693  144.3981  150.6157 LP  0  0  0  0  0  0  0  0  0  0  0  0  # atno 17342 bound_to 10162
  140.6100  143.2169  151.6905 LP  0  0  0  0  0  0  0  0  0  0  0  0  # atno 17343 bound_to 10162
  156.1977  130.3658  149.8828 LP  0  0  0  0  0  0  0  0  0  0  0  0  # atno 17370 bound_to 10713
  156.6740  130.8831  151.3566 LP  0  0  0  0  0  0  0  0  0  0  0  0  # atno 17371 bound_to 10713
  141.1126  133.9591  157.2882 LP  0  0  0  0  0  0  0  0  0  0  0  0  # atno 17394 bound_to 11000
  139.9417  135.0190  156.8729 LP  0  0  0  0  0  0  0  0  0  0  0  0  # atno 17395 bound_to 11000

$$$$
