AV-unprocessed.smi:1013|AV-procd|sdf|4429|dock3
  -GOLD-   22720 2383D 1   1.00000     0.00000
 Structure written by MMmdl.
 29 30  0  0  0  0  0  0  0  0  2 V2000
  148.3732  137.0666  160.4814 O   0  0  0  0  0  0  0  0  0  0  0  0
  148.8558  136.7084  159.3833 C   0  0  0  0  0  0  0  0  0  0  0  0
  148.9952  135.5230  159.0107 O   0  5  0  0  0  0  0  0  0  0  0  0
  149.3065  137.7975  158.4001 C   0  0  1  0  0  0  0  0  0  0  0  0
  150.6697  137.3953  157.7873 C   0  0  0  0  0  0  0  0  0  0  0  0
  151.8087  137.7787  158.6006 N   0  0  0  0  0  0  0  0  0  0  0  0
  152.5376  137.0003  159.4732 C   0  0  0  0  0  0  0  0  0  0  0  0
  153.5061  137.7964  160.0138 C   0  0  0  0  0  0  0  0  0  0  0  0
  153.2856  139.0689  159.4105 C   0  0  0  0  0  0  0  0  0  0  0  0
  154.0503  140.3486  159.6222 C   0  0  0  0  0  0  0  0  0  0  0  0
  153.5116  141.3274  158.8952 F   0  0  0  0  0  0  0  0  0  0  0  0
  154.0151  140.7010  160.9075 F   0  0  0  0  0  0  0  0  0  0  0  0
  155.3221  140.1855  159.2580 F   0  0  0  0  0  0  0  0  0  0  0  0
  152.2613  139.0502  158.5686 N   0  0  0  0  0  0  0  0  0  0  0  0
  148.2787  138.0178  157.3676 N   0  0  0  0  0  0  0  0  0  0  0  0
  148.6056  139.1521  156.5217 C   0  0  0  0  0  0  0  0  0  0  0  0
  147.6549  139.4815  155.3956 C   0  0  0  0  0  0  0  0  0  0  0  0
  148.9960  138.8533  155.0946 C   0  0  0  0  0  0  0  0  0  0  0  0
  149.4227  138.7081  158.9907 H   0  0  0  0  0  0  0  0  0  0  0  0
  150.7206  136.3139  157.6475 H   0  0  0  0  0  0  0  0  0  0  0  0
  150.7853  137.8365  156.7960 H   0  0  0  0  0  0  0  0  0  0  0  0
  152.3120  135.9558  159.6300 H   0  0  0  0  0  0  0  0  0  0  0  0
  154.2595  137.5127  160.7333 H   0  0  0  0  0  0  0  0  0  0  0  0
  147.3782  138.1733  157.7985 H   0  0  0  0  0  0  0  0  0  0  0  0
  149.1188  140.0045  156.9595 H   0  0  0  0  0  0  0  0  0  0  0  0
  146.7696  138.8591  155.2785 H   0  0  0  0  0  0  0  0  0  0  0  0
  147.5218  140.5320  155.1455 H   0  0  0  0  0  0  0  0  0  0  0  0
  149.7558  139.4854  154.6398 H   0  0  0  0  0  0  0  0  0  0  0  0
  149.0020  137.8133  154.7735 H   0  0  0  0  0  0  0  0  0  0  0  0
  1  2  2  0  0  0  0
  2  3  1  0  0  0  0
  2  4  1  0  0  0  0
  4  5  1  0  0  0  0
  4 15  1  0  0  0  0
  4 19  1  0  0  0  0
  5  6  1  0  0  0  0
  5 20  1  0  0  0  0
  5 21  1  0  0  0  0
  6 14  1  0  0  0  0
  6  7  1  0  0  0  0
  7  8  2  0  0  0  0
  7 22  1  0  0  0  0
  8  9  1  0  0  0  0
  8 23  1  0  0  0  0
  9 10  1  0  0  0  0
  9 14  2  0  0  0  0
 10 11  1  0  0  0  0
 10 12  1  0  0  0  0
 10 13  1  0  0  0  0
 15 16  1  0  0  0  0
 15 24  1  0  0  0  0
 16 18  1  0  0  0  0
 16 17  1  0  0  0  0
 16 25  1  0  0  0  0
 17 18  1  0  0  0  0
 17 26  1  0  0  0  0
 17 27  1  0  0  0  0
 18 28  1  0  0  0  0
 18 29  1  0  0  0  0
M  CHG  1   3  -1
M  END
> <s_m_source_file>
AV-unprocessed.smi

> <i_m_source_file_index>
1013

> <i_lp_mmshare_version>
43012

> <i_f3d_flags>
0

> <s_epik_input>
W0NIMl0xW0NIMl1bQ0hdMVtOSF1bQ0BIXShDKD1PKVtPSF0pW0NIMl1uMltjSF1bY0hdYyhuMilDKEYpKEYpRg==

> <s_epik_cmdline>
J2VwaWtfcHl0aG9uJywgJy1waCcsICc3LjAnLCAnLXRuJywgJzgnLCAnLW1hJywgJzIwMCcsICctbWV0YWxfYmluZGluZycsICctaW1hZScsICc8aW5maWxlLm1hZT4nLCAnLW9tYWUnLCAnPG91dGZpbGUubWFlPic=

> <r_lp_tautomer_probability>
1

> <r_epik_Ionization_Penalty>
0.786284

> <r_epik_Ionization_Penalty_Charging>
0.00153368

> <r_epik_Ionization_Penalty_Neutral>
0.78475

> <r_epik_State_Penalty>
0.814638

> <r_epik_Charging_Adjusted_Penalty>
0.816172

> <i_epik_Tot_Q>
-1

> <i_epik_Tot_abs_Q>
1

> <r_epik_Metal_State_Penalty>
0.814638

> <b_epik_Metal_Only>
0

> <s_lp_Force_Field>
OPLS_2005

> <r_lp_Energy>
17.111

> <b_lp_Chiralities_Consistent>
1

> <s_lp_Variant>
AV-unprocessed.smi:1013-4

> <Gold.Version>
5.8.1

> <Gold.Id.Protein>
6NUR|6NUR_protein|mol2

> <Gold.PLP.Fitness>
38.3993

> <Gold.PLP.PLP>
-27.4552

> <Gold.PLP.part.hbond>
-3.0000

> <Gold.PLP.part.metal>
0.0000

> <Gold.PLP.part.buried>
-4.0110

> <Gold.PLP.part.nonpolar>
-20.6039

> <Gold.PLP.part.repulsive>
0.0000

> <Gold.PLP.ligand.clash>
0.0000

> <Gold.PLP.ligand.torsion>
1.4735

> <Gold.PLP.Chemscore.Hbond>
4.3963

> <Gold.PLP.Chemscore.CHOScore>
0.0000

> <Gold.PLP.Chemscore.Metal>
0.0000

> <Gold.Chemscore.Hbonds>
donor molecule, donor type, donor heavy atom, donor atom, acceptor molecule, acceptor atom, score
      P1  H  6896  6909       L1     3  2.00
      P1  H  6931  6943       L1     1  1.57
      P1  H  6934  6947       L1     1  0.34

> <Gold.PLP.Chemscore.Internal.Correction>
0.7021

> <Gold.Rescore>
     Score         DG    S(hbond)    S(metal)    S(lipo)     H(rot)  DE(clash)    DE(int)     intcor
     10.18     -11.60       2.32        0.00      40.96       2.52       0.03       1.39       ----

> <Gold.Chemscore.Fitness>
10.1770

> <Gold.Chemscore.DG>
-11.5953

> <Gold.Chemscore.ZeroCoef>
-5.4800

> <Gold.Chemscore.Hbond>
2.3245

> <Gold.Chemscore.Metal>
0.0000

> <Gold.Chemscore.Lipo>
40.9556

> <Gold.Chemscore.Internal_Hbond>
0.0000

> <Gold.Chemscore.DEClash>
0.0266

> <Gold.Chemscore.DEInternal>
1.3917

> <Gold.Chemscore.Rot>
2.5157

> <Gold.Chemscore.Internal.Correction>
   9.000000E+99

> <Gold.Chemscore.Hbonds>
donor molecule, donor type, donor heavy atom, donor atom, acceptor molecule, acceptor atom, score
      P1  H  6896  6909       L1     3  0.93
      P1  H  6931  6943       L1     1  0.77
      P1  H  6934  6947       L1     1  0.17

> <Gold.Chemscore.Hbond.Weighted>
-7.7637

> <Gold.Chemscore.Metal.Weighted>
-0.0000

> <Gold.Chemscore.Lipo.Weighted>
-4.7918

> <Gold.Chemscore.Internal_Hbond.Weighted>
0.0000

> <Gold.Chemscore.DEClash.Weighted>
0.0266

> <Gold.Chemscore.DEInternal.Weighted>
1.3917

> <Gold.Chemscore.Rot.Weighted>
6.4402

> <Gold.Chemscore.Internal.Correction.Weighted>
   9.000000E+99

> <Gold.Protein.RotatedTorsions>
[ 6907 6896 6895 6894 ] final   41.96 input  -60.11 | X-H torsion
[ 7974 7965 7964 7962 ] final    5.39 input  175.53 | X-H torsion
[ 8008 7997 7996 7995 ] final  -51.52 input   59.86 | X-H torsion
[ 10167 10162 10161 10158 ] final  131.28 input  -65.29 | X-H torsion
[ 10718 10713 10712 10709 ] final   76.42 input   66.30 | X-H torsion
[ 10763 10752 10751 10750 ] final -138.61 input  -60.55 | X-H torsion
[ 11005 11000 10999 10996 ] final -101.86 input  -57.11 | X-H torsion

> <Gold.Protein.ActiveResidues>
 VAL166  LYS551  ARG553  GLY616  TRP617  ASP618  TYR619  PRO620  LYS621  CYS622 
 ASP623  PHE694  ASN695  SER759  ASP760  ASP761  ALA762  ILE779  LEU786  VAL792 
 PHE793  MET794  SER795  GLU796  ALA797  LYS798  CYS799  TRP800  GLU811  SER814 

> <Gold.Protein.RotatedAtoms>
  152.2018  134.8580  160.0506 H   0  0  0  0  0  0  0  0  0  0  0  0  # atno 6907 bound_to 6896
  151.9431  133.3638  159.3980 H   0  0  0  0  0  0  0  0  0  0  0  0  # atno 6908 bound_to 6896
  150.6956  134.4343  159.5306 H   0  0  0  0  0  0  0  0  0  0  0  0  # atno 6909 bound_to 6896
  146.2440  140.0392  142.8383 H   0  0  0  0  0  0  0  0  0  0  0  0  # atno 7974 bound_to 7965
  154.4085  140.1246  156.4842 H   0  0  0  0  0  0  0  0  0  0  0  0  # atno 8008 bound_to 7997
  155.7054  140.3494  155.4931 H   0  0  0  0  0  0  0  0  0  0  0  0  # atno 8009 bound_to 7997
  155.9348  140.1076  157.1093 H   0  0  0  0  0  0  0  0  0  0  0  0  # atno 8010 bound_to 7997
  139.5391  144.6713  151.4685 H   0  0  0  0  0  0  0  0  0  0  0  0  # atno 10167 bound_to 10162
  157.6673  130.9773  150.1494 H   0  0  0  0  0  0  0  0  0  0  0  0  # atno 10718 bound_to 10713
  154.8632  135.3607  154.5412 H   0  0  0  0  0  0  0  0  0  0  0  0  # atno 10763 bound_to 10752
  153.6034  135.7012  153.5380 H   0  0  0  0  0  0  0  0  0  0  0  0  # atno 10764 bound_to 10752
  153.3271  135.4135  155.1426 H   0  0  0  0  0  0  0  0  0  0  0  0  # atno 10765 bound_to 10752
  141.1213  133.8512  157.1286 H   0  0  0  0  0  0  0  0  0  0  0  0  # atno 11005 bound_to 11000
  145.1085  140.9390  143.4670 LP  0  0  0  0  0  0  0  0  0  0  0  0  # atno 17320 bound_to 7965
  145.0600  139.3113  143.5885 LP  0  0  0  0  0  0  0  0  0  0  0  0  # atno 17321 bound_to 7965
  140.6613  143.8493  150.6890 LP  0  0  0  0  0  0  0  0  0  0  0  0  # atno 17342 bound_to 10162
  140.1888  143.4053  152.1878 LP  0  0  0  0  0  0  0  0  0  0  0  0  # atno 17343 bound_to 10162
  156.2297  130.3681  149.8459 LP  0  0  0  0  0  0  0  0  0  0  0  0  # atno 17370 bound_to 10713
  156.6289  130.8657  151.3491 LP  0  0  0  0  0  0  0  0  0  0  0  0  # atno 17371 bound_to 10713
  140.0173  134.9961  157.0520 LP  0  0  0  0  0  0  0  0  0  0  0  0  # atno 17394 bound_to 11000
  140.4498  134.1594  155.7180 LP  0  0  0  0  0  0  0  0  0  0  0  0  # atno 17395 bound_to 11000

$$$$
