AV-unprocessed.smi:1389|AV-procd|sdf|5646|dock4
  -GOLD-   22720 5263D 1   1.00000     0.00000
 Structure written by MMmdl.
 51 53  0  0  0  0  0  0  0  0  1 V2000
  148.9495  138.8183  155.5832 C   0  0  0  0  0  0  0  0  0  0  0  0
  150.3556  139.1765  155.0374 C   0  0  2  0  0  0  0  0  0  0  0  0
  151.1948  137.8753  154.8912 C   0  0  0  0  0  0  0  0  0  0  0  0
  150.4406  136.7730  154.2983 N   0  0  0  0  0  0  0  0  0  0  0  0
  150.4642  135.4986  154.7142 C   0  0  0  0  0  0  0  0  0  0  0  0
  151.1519  135.0981  155.6532 O   0  0  0  0  0  0  0  0  0  0  0  0
  149.6239  134.7399  153.9912 N   0  0  0  0  0  0  0  0  0  0  0  0
  149.3192  133.3588  154.1575 C   0  0  0  0  0  0  0  0  0  0  0  0
  150.1688  132.4737  154.8651 C   0  0  0  0  0  0  0  0  0  0  0  0
  149.8074  131.1196  154.9799 C   0  0  0  0  0  0  0  0  0  0  0  0
  148.6120  130.6946  154.3747 C   0  0  0  0  0  0  0  0  0  0  0  0
  147.8018  131.5205  153.6823 N   0  0  0  0  0  0  0  0  0  0  0  0
  148.1393  132.8285  153.5694 C   0  0  0  0  0  0  0  0  0  0  0  0
  147.2894  133.6608  152.8119 N   0  0  0  0  0  0  0  0  0  0  0  0
  147.1827  133.2658  151.4103 C   0  0  0  0  0  0  0  0  0  0  0  0
  145.7456  133.5713  150.9852 C   0  0  0  0  0  0  0  0  0  0  0  0
  144.9684  133.4317  152.2880 C   0  0  0  0  0  0  0  0  0  0  0  0
  145.9548  133.9733  153.3215 C   0  0  0  0  0  0  0  0  0  0  0  0
  151.0336  140.2171  155.8459 N   0  0  0  0  0  0  0  0  0  0  0  0
  150.3218  141.5005  155.8381 C   0  0  0  0  0  0  0  0  0  0  0  0
  151.0147  142.5730  156.6963 C   0  0  0  0  0  0  0  0  0  0  0  0
  151.1569  142.1025  158.0293 O   0  0  0  0  0  0  0  0  0  0  0  0
  151.9094  140.8990  158.0914 C   0  0  0  0  0  0  0  0  0  0  0  0
  151.2226  139.8139  157.2444 C   0  0  0  0  0  0  0  0  0  0  0  0
  148.4636  138.0357  155.0023 H   0  0  0  0  0  0  0  0  0  0  0  0
  148.2608  139.6606  155.5437 H   0  0  0  0  0  0  0  0  0  0  0  0
  149.0039  138.4733  156.6164 H   0  0  0  0  0  0  0  0  0  0  0  0
  150.2114  139.5747  154.0320 H   0  0  0  0  0  0  0  0  0  0  0  0
  152.0361  138.0243  154.2169 H   0  0  0  0  0  0  0  0  0  0  0  0
  151.6210  137.5968  155.8566 H   0  0  0  0  0  0  0  0  0  0  0  0
  149.8401  137.0052  153.5209 H   0  0  0  0  0  0  0  0  0  0  0  0
  149.0550  135.2280  153.3151 H   0  0  0  0  0  0  0  0  0  0  0  0
  151.0946  132.8058  155.3092 H   0  0  0  0  0  0  0  0  0  0  0  0
  150.4347  130.4227  155.5157 H   0  0  0  0  0  0  0  0  0  0  0  0
  148.3019  129.6622  154.4402 H   0  0  0  0  0  0  0  0  0  0  0  0
  147.9019  133.8046  150.7930 H   0  0  0  0  0  0  0  0  0  0  0  0
  147.3842  132.1984  151.3037 H   0  0  0  0  0  0  0  0  0  0  0  0
  145.6757  134.5978  150.6231 H   0  0  0  0  0  0  0  0  0  0  0  0
  145.3854  132.9086  150.1978 H   0  0  0  0  0  0  0  0  0  0  0  0
  144.0204  133.9699  152.2823 H   0  0  0  0  0  0  0  0  0  0  0  0
  144.7624  132.3791  152.4872 H   0  0  0  0  0  0  0  0  0  0  0  0
  145.7489  133.5850  154.3190 H   0  0  0  0  0  0  0  0  0  0  0  0
  145.8701  135.0588  153.3816 H   0  0  0  0  0  0  0  0  0  0  0  0
  150.2574  141.9002  154.8280 H   0  0  0  0  0  0  0  0  0  0  0  0
  149.2993  141.3589  156.1911 H   0  0  0  0  0  0  0  0  0  0  0  0
  151.9933  142.8248  156.2842 H   0  0  0  0  0  0  0  0  0  0  0  0
  150.4259  143.4903  156.7042 H   0  0  0  0  0  0  0  0  0  0  0  0
  152.9271  141.0769  157.7400 H   0  0  0  0  0  0  0  0  0  0  0  0
  151.9823  140.5788  159.1307 H   0  0  0  0  0  0  0  0  0  0  0  0
  150.2594  139.5619  157.6905 H   0  0  0  0  0  0  0  0  0  0  0  0
  151.8442  138.9228  157.3078 H   0  0  0  0  0  0  0  0  0  0  0  0
  1  2  1  0  0  0  0
  1 25  1  0  0  0  0
  1 26  1  0  0  0  0
  1 27  1  0  0  0  0
  2  3  1  0  0  0  0
  2 19  1  0  0  0  0
  2 28  1  0  0  0  0
  3  4  1  0  0  0  0
  3 29  1  0  0  0  0
  3 30  1  0  0  0  0
  4  5  1  0  0  0  0
  4 31  1  0  0  0  0
  5  6  2  0  0  0  0
  5  7  1  0  0  0  0
  7  8  1  0  0  0  0
  7 32  1  0  0  0  0
  8 13  1  0  0  0  0
  8  9  2  0  0  0  0
  9 10  1  0  0  0  0
  9 33  1  0  0  0  0
 10 11  2  0  0  0  0
 10 34  1  0  0  0  0
 11 12  1  0  0  0  0
 11 35  1  0  0  0  0
 12 13  2  0  0  0  0
 13 14  1  0  0  0  0
 14 18  1  0  0  0  0
 14 15  1  0  0  0  0
 15 16  1  0  0  0  0
 15 36  1  0  0  0  0
 15 37  1  0  0  0  0
 16 17  1  0  0  0  0
 16 38  1  0  0  0  0
 16 39  1  0  0  0  0
 17 18  1  0  0  0  0
 17 40  1  0  0  0  0
 17 41  1  0  0  0  0
 18 42  1  0  0  0  0
 18 43  1  0  0  0  0
 19 24  1  0  0  0  0
 19 20  1  0  0  0  0
 20 21  1  0  0  0  0
 20 44  1  0  0  0  0
 20 45  1  0  0  0  0
 21 22  1  0  0  0  0
 21 46  1  0  0  0  0
 21 47  1  0  0  0  0
 22 23  1  0  0  0  0
 23 24  1  0  0  0  0
 23 48  1  0  0  0  0
 23 49  1  0  0  0  0
 24 50  1  0  0  0  0
 24 51  1  0  0  0  0
M  END
> <s_m_source_file>
AV-unprocessed.smi

> <i_m_source_file_index>
1389

> <i_lp_mmshare_version>
43012

> <i_f3d_flags>
0

> <s_epik_input>
W0NIMl0xW0NIMl1PW0NIMl1bQ0gyXU4xW0NASF0oW0NIM10pW0NIMl1bTkhdQyg9TylbTkhdYzJbY0hdW2NIXVtjSF1uYzJOM1tDSDJdW0NIMl1bQ0gyXVtDSDJdMw==

> <s_epik_cmdline>
J2VwaWtfcHl0aG9uJywgJy1waCcsICc3LjAnLCAnLXRuJywgJzgnLCAnLW1hJywgJzIwMCcsICctbWV0YWxfYmluZGluZycsICctaW1hZScsICc8aW5maWxlLm1hZT4nLCAnLW9tYWUnLCAnPG91dGZpbGUubWFlPic=

> <r_lp_tautomer_probability>
1

> <r_epik_Ionization_Penalty>
0.365229

> <r_epik_Ionization_Penalty_Charging>
0

> <r_epik_Ionization_Penalty_Neutral>
0.365229

> <r_epik_State_Penalty>
0.350519

> <r_epik_Charging_Adjusted_Penalty>
0.350519

> <i_epik_Tot_Q>
0

> <i_epik_Tot_abs_Q>
0

> <r_epik_Metal_State_Penalty>
0.33386

> <b_epik_Metal_Only>
0

> <s_lp_Force_Field>
OPLS_2005

> <r_lp_Energy>
57.3938

> <b_lp_Chiralities_Consistent>
1

> <s_lp_Variant>
AV-unprocessed.smi:1389-1

> <Gold.Version>
5.8.1

> <Gold.Id.Protein>
6NUR|6NUR_protein|mol2

> <Gold.PLP.Fitness>
43.7114

> <Gold.PLP.PLP>
-36.2635

> <Gold.PLP.part.hbond>
-4.5734

> <Gold.PLP.part.metal>
0.0000

> <Gold.PLP.part.buried>
-3.3984

> <Gold.PLP.part.nonpolar>
-28.8504

> <Gold.PLP.part.repulsive>
0.4322

> <Gold.PLP.ligand.clash>
0.0000

> <Gold.PLP.ligand.torsion>
0.3802

> <Gold.PLP.Chemscore.Hbond>
2.6797

> <Gold.PLP.Chemscore.CHOScore>
0.0000

> <Gold.PLP.Chemscore.Metal>
0.0000

> <Gold.Chemscore.Hbonds>
donor molecule, donor type, donor heavy atom, donor atom, acceptor molecule, acceptor atom, score
      L1  H     4    31       P1  7948  0.85
      L1  H     7    32       P1  7948  0.94
      P1  H 10752 10763       L1     6  0.86

> <Gold.PLP.Chemscore.Internal.Correction>
0.1690

> <Gold.Rescore>
     Score         DG    S(hbond)    S(metal)    S(lipo)     H(rot)  DE(clash)    DE(int)     intcor
     14.45     -16.95       1.73        0.00      83.01       1.57       0.73       1.77       ----

> <Gold.Chemscore.Fitness>
14.4451

> <Gold.Chemscore.DG>
-16.9464

> <Gold.Chemscore.ZeroCoef>
-5.4800

> <Gold.Chemscore.Hbond>
1.7300

> <Gold.Chemscore.Metal>
0.0000

> <Gold.Chemscore.Lipo>
83.0091

> <Gold.Chemscore.Internal_Hbond>
0.0000

> <Gold.Chemscore.DEClash>
0.7274

> <Gold.Chemscore.DEInternal>
1.7739

> <Gold.Chemscore.Rot>
1.5718

> <Gold.Chemscore.Internal.Correction>
   9.000000E+99

> <Gold.Chemscore.Hbonds>
donor molecule, donor type, donor heavy atom, donor atom, acceptor molecule, acceptor atom, score
      L1  H     4    31       P1  7948  0.41
      L1  H     7    32       P1  7948  0.32
      P1  H 10752 10763       L1     6  0.18

> <Gold.Chemscore.Hbond.Weighted>
-5.7782

> <Gold.Chemscore.Metal.Weighted>
-0.0000

> <Gold.Chemscore.Lipo.Weighted>
-9.7121

> <Gold.Chemscore.Internal_Hbond.Weighted>
0.0000

> <Gold.Chemscore.DEClash.Weighted>
0.7274

> <Gold.Chemscore.DEInternal.Weighted>
1.7739

> <Gold.Chemscore.Rot.Weighted>
4.0239

> <Gold.Chemscore.Internal.Correction.Weighted>
   9.000000E+99

> <Gold.Protein.RotatedTorsions>
[ 6907 6896 6895 6894 ] final   27.46 input  -60.11 | X-H torsion
[ 7974 7965 7964 7962 ] final  130.08 input  175.53 | X-H torsion
[ 8008 7997 7996 7995 ] final  -42.43 input   59.86 | X-H torsion
[ 10167 10162 10161 10158 ] final   64.17 input  -65.29 | X-H torsion
[ 10718 10713 10712 10709 ] final  126.63 input   66.30 | X-H torsion
[ 10763 10752 10751 10750 ] final   77.75 input  -60.55 | X-H torsion
[ 11005 11000 10999 10996 ] final   21.22 input  -57.11 | X-H torsion

> <Gold.Protein.ActiveResidues>
 VAL166  LYS551  ARG553  GLY616  TRP617  ASP618  TYR619  PRO620  LYS621  CYS622 
 ASP623  PHE694  ASN695  SER759  ASP760  ASP761  ALA762  ILE779  LEU786  VAL792 
 PHE793  MET794  SER795  GLU796  ALA797  LYS798  CYS799  TRP800  GLU811  SER814 

> <Gold.Protein.RotatedAtoms>
  152.0026  134.9920  160.0565 H   0  0  0  0  0  0  0  0  0  0  0  0  # atno 6907 bound_to 6896
  152.1505  133.4514  159.4819 H   0  0  0  0  0  0  0  0  0  0  0  0  # atno 6908 bound_to 6896
  150.6875  134.2113  159.4403 H   0  0  0  0  0  0  0  0  0  0  0  0  # atno 6909 bound_to 6896
  145.0218  139.4125  143.5194 H   0  0  0  0  0  0  0  0  0  0  0  0  # atno 7974 bound_to 7965
  154.3999  140.1474  156.3353 H   0  0  0  0  0  0  0  0  0  0  0  0  # atno 8008 bound_to 7997
  155.8406  140.3462  155.5608 H   0  0  0  0  0  0  0  0  0  0  0  0  # atno 8009 bound_to 7997
  155.8091  140.0881  157.1904 H   0  0  0  0  0  0  0  0  0  0  0  0  # atno 8010 bound_to 7997
  140.1251  144.4695  150.6897 H   0  0  0  0  0  0  0  0  0  0  0  0  # atno 10167 bound_to 10162
  157.5402  131.1097  150.8870 H   0  0  0  0  0  0  0  0  0  0  0  0  # atno 10718 bound_to 10713
  153.0822  135.4902  154.8525 H   0  0  0  0  0  0  0  0  0  0  0  0  # atno 10763 bound_to 10752
  154.7165  135.3030  154.9118 H   0  0  0  0  0  0  0  0  0  0  0  0  # atno 10764 bound_to 10752
  153.9795  135.6791  153.4802 H   0  0  0  0  0  0  0  0  0  0  0  0  # atno 10765 bound_to 10752
  140.3940  134.1789  155.7663 H   0  0  0  0  0  0  0  0  0  0  0  0  # atno 11005 bound_to 11000
  146.3486  139.9719  142.8705 LP  0  0  0  0  0  0  0  0  0  0  0  0  # atno 17320 bound_to 7965
  145.1886  140.9801  143.4224 LP  0  0  0  0  0  0  0  0  0  0  0  0  # atno 17321 bound_to 7965
  140.6849  143.2345  151.5286 LP  0  0  0  0  0  0  0  0  0  0  0  0  # atno 17342 bound_to 10162
  139.5548  144.2303  152.1594 LP  0  0  0  0  0  0  0  0  0  0  0  0  # atno 17343 bound_to 10162
  156.9425  130.5390  149.5280 LP  0  0  0  0  0  0  0  0  0  0  0  0  # atno 17370 bound_to 10713
  156.0491  130.5563  150.8948 LP  0  0  0  0  0  0  0  0  0  0  0  0  # atno 17371 bound_to 10713
  141.1881  133.8268  157.1009 LP  0  0  0  0  0  0  0  0  0  0  0  0  # atno 17394 bound_to 11000
  140.0385  134.9866  157.0917 LP  0  0  0  0  0  0  0  0  0  0  0  0  # atno 17395 bound_to 11000

$$$$
