AV-unprocessed.smi:1064|AV-procd|sdf|4664|dock7
  -GOLD-   22720 3173D 1   1.00000     0.00000
 Structure written by MMmdl.
 35 36  0  0  0  0  0  0  0  0  1 V2000
  150.5919  140.1198  154.8838 O   0  0  0  0  0  0  0  0  0  0  0  0
  149.7347  140.9979  154.9959 C   0  0  0  0  0  0  0  0  0  0  0  0
  149.8738  142.0254  155.8509 N   0  0  0  0  0  0  0  0  0  0  0  0
  151.0012  142.2169  156.7553 C   0  0  0  0  0  0  0  0  0  0  0  0
  150.6990  141.6579  158.1550 C   0  0  0  0  0  0  0  0  0  0  0  0
  151.8176  141.8969  159.1201 C   0  0  0  0  0  0  0  0  0  0  0  0
  152.5426  140.9213  159.6588 N   0  0  0  0  0  0  0  0  0  0  0  0
  153.4310  141.5680  160.5104 C   0  0  0  0  0  0  0  0  0  0  0  0
  153.2048  142.9220  160.4614 C   0  0  0  0  0  0  0  0  0  0  0  0
  152.1667  143.1230  159.5585 N   0  0  0  0  0  0  0  0  0  0  0  0
  151.5710  144.4007  159.2013 C   0  0  0  0  0  0  0  0  0  0  0  0
  151.8914  145.3214  160.1097 F   0  0  0  0  0  0  0  0  0  0  0  0
  151.9906  144.7942  157.9983 F   0  0  0  0  0  0  0  0  0  0  0  0
  148.5991  141.0261  154.2530 N   0  0  0  0  0  0  0  0  0  0  0  0
  147.6206  142.1257  154.2179 C   0  0  0  0  0  0  0  0  0  0  0  0
  146.4866  141.8213  155.2110 C   0  0  0  0  0  0  0  0  0  0  0  0
  145.5944  140.3073  154.7366 S   0  0  0  0  0  0  0  0  0  0  0  0
  147.0039  139.1801  154.4991 C   0  0  0  0  0  0  0  0  0  0  0  0
  148.0781  139.8184  153.6018 C   0  0  0  0  0  0  0  0  0  0  0  0
  149.1418  142.7202  155.8795 H   0  0  0  0  0  0  0  0  0  0  0  0
  151.8953  141.7506  156.3387 H   0  0  0  0  0  0  0  0  0  0  0  0
  151.2109  143.2849  156.8189 H   0  0  0  0  0  0  0  0  0  0  0  0
  149.7976  142.1281  158.5505 H   0  0  0  0  0  0  0  0  0  0  0  0
  150.4812  140.5919  158.1040 H   0  0  0  0  0  0  0  0  0  0  0  0
  154.1529  141.0143  161.0923 H   0  0  0  0  0  0  0  0  0  0  0  0
  153.6845  143.7365  160.9838 H   0  0  0  0  0  0  0  0  0  0  0  0
  150.4853  144.3194  159.1557 H   0  0  0  0  0  0  0  0  0  0  0  0
  148.0598  143.0977  154.4423 H   0  0  0  0  0  0  0  0  0  0  0  0
  147.2144  142.2283  153.2108 H   0  0  0  0  0  0  0  0  0  0  0  0
  146.8846  141.7010  156.2191 H   0  0  0  0  0  0  0  0  0  0  0  0
  145.7768  142.6480  155.2438 H   0  0  0  0  0  0  0  0  0  0  0  0
  147.4237  138.9242  155.4728 H   0  0  0  0  0  0  0  0  0  0  0  0
  146.6395  138.2537  154.0552 H   0  0  0  0  0  0  0  0  0  0  0  0
  147.6552  140.0684  152.6277 H   0  0  0  0  0  0  0  0  0  0  0  0
  148.8694  139.0962  153.3957 H   0  0  0  0  0  0  0  0  0  0  0  0
  1  2  2  0  0  0  0
  2  3  1  0  0  0  0
  2 14  1  0  0  0  0
  3  4  1  0  0  0  0
  3 20  1  0  0  0  0
  4  5  1  0  0  0  0
  4 21  1  0  0  0  0
  4 22  1  0  0  0  0
  5  6  1  0  0  0  0
  5 23  1  0  0  0  0
  5 24  1  0  0  0  0
  6 10  1  0  0  0  0
  6  7  2  0  0  0  0
  7  8  1  0  0  0  0
  8  9  2  0  0  0  0
  8 25  1  0  0  0  0
  9 10  1  0  0  0  0
  9 26  1  0  0  0  0
 10 11  1  0  0  0  0
 11 12  1  0  0  0  0
 11 13  1  0  0  0  0
 11 27  1  0  0  0  0
 14 19  1  0  0  0  0
 14 15  1  0  0  0  0
 15 16  1  0  0  0  0
 15 28  1  0  0  0  0
 15 29  1  0  0  0  0
 16 17  1  0  0  0  0
 16 30  1  0  0  0  0
 16 31  1  0  0  0  0
 17 18  1  0  0  0  0
 18 19  1  0  0  0  0
 18 32  1  0  0  0  0
 18 33  1  0  0  0  0
 19 34  1  0  0  0  0
 19 35  1  0  0  0  0
M  END
> <s_m_source_file>
AV-unprocessed.smi

> <i_m_source_file_index>
1064

> <i_lp_mmshare_version>
43012

> <i_f3d_flags>
0

> <s_epik_input>
W0NIMl0xW0NIMl1TW0NIMl1bQ0gyXU4xQyg9TylbTkhdW0NIMl1bQ0gyXWMybltjSF1bY0hdbjJbQ0hdKEYpRg==

> <s_epik_cmdline>
J2VwaWtfcHl0aG9uJywgJy1waCcsICc3LjAnLCAnLXRuJywgJzgnLCAnLW1hJywgJzIwMCcsICctbWV0YWxfYmluZGluZycsICctaW1hZScsICc8aW5maWxlLm1hZT4nLCAnLW9tYWUnLCAnPG91dGZpbGUubWFlPic=

> <r_lp_tautomer_probability>
1

> <r_epik_Ionization_Penalty>
0.100551

> <r_epik_Ionization_Penalty_Charging>
0.100507

> <r_epik_Ionization_Penalty_Neutral>
4.37624e-05

> <r_epik_State_Penalty>
0.0905262

> <r_epik_Charging_Adjusted_Penalty>
0.191033

> <i_epik_Tot_Q>
0

> <i_epik_Tot_abs_Q>
0

> <r_epik_Metal_State_Penalty>
0.077291

> <b_epik_Metal_Only>
0

> <s_lp_Force_Field>
OPLS_2005

> <r_lp_Energy>
25.4045

> <b_lp_Chiralities_Consistent>
1

> <s_lp_Variant>
AV-unprocessed.smi:1064-1

> <Gold.Version>
5.8.1

> <Gold.Id.Protein>
6NUR|6NUR_protein|mol2

> <Gold.PLP.Fitness>
48.6393

> <Gold.PLP.PLP>
-44.7362

> <Gold.PLP.part.hbond>
-2.0000

> <Gold.PLP.part.metal>
0.0000

> <Gold.PLP.part.buried>
-2.1491

> <Gold.PLP.part.nonpolar>
-40.3798

> <Gold.PLP.part.repulsive>
0.1876

> <Gold.PLP.ligand.clash>
0.0000

> <Gold.PLP.ligand.torsion>
0.7822

> <Gold.PLP.Chemscore.Hbond>
1.8000

> <Gold.PLP.Chemscore.CHOScore>
0.0000

> <Gold.PLP.Chemscore.Metal>
0.0000

> <Gold.Chemscore.Hbonds>
donor molecule, donor type, donor heavy atom, donor atom, acceptor molecule, acceptor atom, score
      L1  H     3    20       P1  8028  0.82
      P1  H  7989  7998       L1     1  0.95

> <Gold.PLP.Chemscore.Internal.Correction>
0.0675

> <Gold.Rescore>
     Score         DG    S(hbond)    S(metal)    S(lipo)     H(rot)  DE(clash)    DE(int)     intcor
     13.40     -14.19       1.49        0.00      67.03       1.61       0.03       0.76       ----

> <Gold.Chemscore.Fitness>
13.4037

> <Gold.Chemscore.DG>
-14.1914

> <Gold.Chemscore.ZeroCoef>
-5.4800

> <Gold.Chemscore.Hbond>
1.4941

> <Gold.Chemscore.Metal>
0.0000

> <Gold.Chemscore.Lipo>
67.0307

> <Gold.Chemscore.Internal_Hbond>
0.0000

> <Gold.Chemscore.DEClash>
0.0276

> <Gold.Chemscore.DEInternal>
0.7601

> <Gold.Chemscore.Rot>
1.6100

> <Gold.Chemscore.Internal.Correction>
   9.000000E+99

> <Gold.Chemscore.Hbonds>
donor molecule, donor type, donor heavy atom, donor atom, acceptor molecule, acceptor atom, score
      L1  H     3    20       P1  8028  0.74
      P1  H  7989  7998       L1     1  0.21

> <Gold.Chemscore.Hbond.Weighted>
-4.9905

> <Gold.Chemscore.Metal.Weighted>
-0.0000

> <Gold.Chemscore.Lipo.Weighted>
-7.8426

> <Gold.Chemscore.Internal_Hbond.Weighted>
0.0000

> <Gold.Chemscore.DEClash.Weighted>
0.0276

> <Gold.Chemscore.DEInternal.Weighted>
0.7601

> <Gold.Chemscore.Rot.Weighted>
4.1216

> <Gold.Chemscore.Internal.Correction.Weighted>
   9.000000E+99

> <Gold.Protein.RotatedTorsions>
[ 6907 6896 6895 6894 ] final -171.31 input  -60.11 | X-H torsion
[ 7974 7965 7964 7962 ] final   71.52 input  175.53 | X-H torsion
[ 8008 7997 7996 7995 ] final  -86.35 input   59.86 | X-H torsion
[ 10167 10162 10161 10158 ] final -113.18 input  -65.29 | X-H torsion
[ 10718 10713 10712 10709 ] final  -34.30 input   66.30 | X-H torsion
[ 10763 10752 10751 10750 ] final -106.27 input  -60.55 | X-H torsion
[ 11005 11000 10999 10996 ] final   91.79 input  -57.11 | X-H torsion

> <Gold.Protein.ActiveResidues>
 VAL166  LYS551  ARG553  GLY616  TRP617  ASP618  TYR619  PRO620  LYS621  CYS622 
 ASP623  PHE694  ASN695  SER759  ASP760  ASP761  ALA762  ILE779  LEU786  VAL792 
 PHE793  MET794  SER795  GLU796  ALA797  LYS798  CYS799  TRP800  GLU811  SER814 

> <Gold.Protein.RotatedAtoms>
  151.5218  133.3465  159.2902 H   0  0  0  0  0  0  0  0  0  0  0  0  # atno 6907 bound_to 6896
  150.8648  134.8010  159.7121 H   0  0  0  0  0  0  0  0  0  0  0  0  # atno 6908 bound_to 6896
  152.4656  134.5093  159.9800 H   0  0  0  0  0  0  0  0  0  0  0  0  # atno 6909 bound_to 6896
  145.7648  139.2816  143.1355 H   0  0  0  0  0  0  0  0  0  0  0  0  # atno 7974 bound_to 7965
  154.6509  140.0579  156.9954 H   0  0  0  0  0  0  0  0  0  0  0  0  # atno 8008 bound_to 7997
  155.1373  140.3262  155.4441 H   0  0  0  0  0  0  0  0  0  0  0  0  # atno 8009 bound_to 7997
  156.2575  140.1970  156.6490 H   0  0  0  0  0  0  0  0  0  0  0  0  # atno 8010 bound_to 7997
  140.1147  143.4496  152.1730 H   0  0  0  0  0  0  0  0  0  0  0  0  # atno 10167 bound_to 10162
  156.3523  130.4310  149.7694 H   0  0  0  0  0  0  0  0  0  0  0  0  # atno 10718 bound_to 10713
  154.8001  135.4718  154.0255 H   0  0  0  0  0  0  0  0  0  0  0  0  # atno 10763 bound_to 10752
  153.1767  135.6834  153.8540 H   0  0  0  0  0  0  0  0  0  0  0  0  # atno 10764 bound_to 10752
  153.8104  135.3217  155.3378 H   0  0  0  0  0  0  0  0  0  0  0  0  # atno 10765 bound_to 10752
  139.8833  134.8695  156.3479 H   0  0  0  0  0  0  0  0  0  0  0  0  # atno 11005 bound_to 11000
  146.0228  140.8331  142.9914 LP  0  0  0  0  0  0  0  0  0  0  0  0  # atno 17320 bound_to 7965
  144.6823  140.2654  143.7313 LP  0  0  0  0  0  0  0  0  0  0  0  0  # atno 17321 bound_to 7965
  139.5600  144.7399  151.4181 LP  0  0  0  0  0  0  0  0  0  0  0  0  # atno 17342 bound_to 10162
  140.6906  143.7870  150.7250 LP  0  0  0  0  0  0  0  0  0  0  0  0  # atno 17343 bound_to 10162
  156.4890  130.8076  151.3087 LP  0  0  0  0  0  0  0  0  0  0  0  0  # atno 17370 bound_to 10713
  157.7463  130.9981  150.2842 LP  0  0  0  0  0  0  0  0  0  0  0  0  # atno 17371 bound_to 10713
  140.9614  133.7386  156.0406 LP  0  0  0  0  0  0  0  0  0  0  0  0  # atno 17394 bound_to 11000
  140.7985  134.3536  157.5446 LP  0  0  0  0  0  0  0  0  0  0  0  0  # atno 17395 bound_to 11000

$$$$
