AV-unprocessed.smi:13|AV-procd|sdf|69|dock2
  -GOLD-   2262015193D 1   1.00000     0.00000
 Structure written by MMmdl.
 54 58  0  0  0  0  0  0  0  0  1 V2000
  152.8300  144.6429  158.2723 C   0  0  0  0  0  0  0  0  0  0  0  0
  151.6377  143.7242  158.5705 C   0  0  0  0  0  0  0  0  0  0  0  0
  150.6102  144.5695  159.3224 C   0  0  0  0  0  0  0  0  0  0  0  0
  151.0976  142.9267  157.3733 C   0  0  0  0  0  0  0  0  0  0  0  0
  151.9204  141.8185  157.8297 N   0  0  0  0  0  0  0  0  0  0  0  0
  151.3380  140.5314  157.6839 C   0  0  0  0  0  0  0  0  0  0  0  0
  151.2498  139.7785  158.8091 N   0  0  0  0  0  0  0  0  0  0  0  0
  150.7092  138.5574  158.7835 C   0  0  0  0  0  0  0  0  0  0  0  0
  150.1961  137.8956  157.7468 N   0  0  0  0  0  0  0  0  0  0  0  0
  150.2775  138.6361  156.6060 C   0  0  0  0  0  0  0  0  0  0  0  0
  150.8256  139.9458  156.4866 C   0  0  0  0  0  0  0  0  0  0  0  0
  150.7275  140.3727  155.1664 N   0  0  0  0  0  0  0  0  0  0  0  0
  150.1567  139.3776  154.5456 C   0  0  0  0  0  0  0  0  0  0  0  0
  149.8583  138.2899  155.3334 N   0  0  0  0  0  0  0  0  0  0  0  0
  149.2302  137.0499  154.9041 C   0  0  0  0  0  0  0  0  0  0  0  0
  150.2222  135.8689  154.7979 C   0  0  1  0  0  0  0  0  0  0  0  0
  151.3054  136.2540  153.9688 O   0  0  0  0  0  0  0  0  0  0  0  0
  150.7812  135.3991  156.1373 C   0  0  0  0  0  0  0  0  0  0  0  0
  151.0229  133.9154  155.8998 C   0  0  0  0  0  0  0  0  0  0  0  0
  149.8962  133.5368  155.1272 O   0  0  0  0  0  0  0  0  0  0  0  0
  149.5927  134.5881  154.2148 C   0  0  0  0  0  0  0  0  0  0  0  0
  151.9424  142.3435  159.1894 C   0  0  1  0  0  0  0  0  0  0  0  0
  153.2704  142.0429  159.8849 C   0  0  2  0  0  0  0  0  0  0  0  0
  153.7244  140.5889  159.7592 C   0  0  0  0  0  0  0  0  0  0  0  0
  154.6117  140.3878  160.9765 C   0  0  0  0  0  0  0  0  0  0  0  0
  154.2406  141.5505  161.9017 C   0  0  0  0  0  0  0  0  0  0  0  0
  153.1204  142.1743  161.2891 O   0  0  0  0  0  0  0  0  0  0  0  0
  152.5294  145.5083  157.6811 H   0  0  0  0  0  0  0  0  0  0  0  0
  153.6069  144.1264  157.7078 H   0  0  0  0  0  0  0  0  0  0  0  0
  153.2886  145.0145  159.1894 H   0  0  0  0  0  0  0  0  0  0  0  0
  149.7153  143.9930  159.5591 H   0  0  0  0  0  0  0  0  0  0  0  0
  150.2917  145.4311  158.7349 H   0  0  0  0  0  0  0  0  0  0  0  0
  151.0128  144.9408  160.2653 H   0  0  0  0  0  0  0  0  0  0  0  0
  150.0244  142.7397  157.4229 H   0  0  0  0  0  0  0  0  0  0  0  0
  151.3967  143.3182  156.4006 H   0  0  0  0  0  0  0  0  0  0  0  0
  150.6852  138.0366  159.7295 H   0  0  0  0  0  0  0  0  0  0  0  0
  149.9422  139.4067  153.4873 H   0  0  0  0  0  0  0  0  0  0  0  0
  148.4345  136.8083  155.6101 H   0  0  0  0  0  0  0  0  0  0  0  0
  148.7426  137.2249  153.9441 H   0  0  0  0  0  0  0  0  0  0  0  0
  151.0120  136.2445  153.0704 H   0  0  0  0  0  0  0  0  0  0  0  0
  151.6742  135.9381  156.4575 H   0  0  0  0  0  0  0  0  0  0  0  0
  150.0290  135.5083  156.9194 H   0  0  0  0  0  0  0  0  0  0  0  0
  151.9366  133.7523  155.3261 H   0  0  0  0  0  0  0  0  0  0  0  0
  151.0873  133.3441  156.8259 H   0  0  0  0  0  0  0  0  0  0  0  0
  148.5092  134.6672  154.1201 H   0  0  0  0  0  0  0  0  0  0  0  0
  149.9882  134.3465  153.2269 H   0  0  0  0  0  0  0  0  0  0  0  0
  151.0861  142.0056  159.7735 H   0  0  0  0  0  0  0  0  0  0  0  0
  154.0633  142.7155  159.5515 H   0  0  0  0  0  0  0  0  0  0  0  0
  152.8653  139.9190  159.8189 H   0  0  0  0  0  0  0  0  0  0  0  0
  154.2401  140.3879  158.8198 H   0  0  0  0  0  0  0  0  0  0  0  0
  154.4243  139.4198  161.4423 H   0  0  0  0  0  0  0  0  0  0  0  0
  155.6679  140.4341  160.7091 H   0  0  0  0  0  0  0  0  0  0  0  0
  153.9985  141.2208  162.9122 H   0  0  0  0  0  0  0  0  0  0  0  0
  155.0609  142.2669  161.9645 H   0  0  0  0  0  0  0  0  0  0  0  0
  1  2  1  0  0  0  0
  1 28  1  0  0  0  0
  1 29  1  0  0  0  0
  1 30  1  0  0  0  0
  2 22  1  0  0  0  0
  2  3  1  0  0  0  0
  2  4  1  0  0  0  0
  3 31  1  0  0  0  0
  3 32  1  0  0  0  0
  3 33  1  0  0  0  0
  4  5  1  0  0  0  0
  4 34  1  0  0  0  0
  4 35  1  0  0  0  0
  5  6  1  0  0  0  0
  5 22  1  0  0  0  0
  6 11  1  0  0  0  0
  6  7  2  0  0  0  0
  7  8  1  0  0  0  0
  8  9  2  0  0  0  0
  8 36  1  0  0  0  0
  9 10  1  0  0  0  0
 10 14  1  0  0  0  0
 10 11  2  0  0  0  0
 11 12  1  0  0  0  0
 12 13  2  0  0  0  0
 13 14  1  0  0  0  0
 13 37  1  0  0  0  0
 14 15  1  0  0  0  0
 15 16  1  0  0  0  0
 15 38  1  0  0  0  0
 15 39  1  0  0  0  0
 16 21  1  0  0  0  0
 16 17  1  0  0  0  0
 16 18  1  0  0  0  0
 17 40  1  0  0  0  0
 18 19  1  0  0  0  0
 18 41  1  0  0  0  0
 18 42  1  0  0  0  0
 19 20  1  0  0  0  0
 19 43  1  0  0  0  0
 19 44  1  0  0  0  0
 20 21  1  0  0  0  0
 21 45  1  0  0  0  0
 21 46  1  0  0  0  0
 22 23  1  0  0  0  0
 22 47  1  0  0  0  0
 23 27  1  0  0  0  0
 23 24  1  0  0  0  0
 23 48  1  0  0  0  0
 24 25  1  0  0  0  0
 24 49  1  0  0  0  0
 24 50  1  0  0  0  0
 25 26  1  0  0  0  0
 25 51  1  0  0  0  0
 25 52  1  0  0  0  0
 26 27  1  0  0  0  0
 26 53  1  0  0  0  0
 26 54  1  0  0  0  0
M  END
> <s_m_source_file>
AV-unprocessed.smi

> <i_m_source_file_index>
13

> <i_lp_mmshare_version>
43012

> <i_f3d_flags>
0

> <s_epik_input>
TzFbQ0gyXVtDSDJdW0NIMl1bQ0BIXTFbQ0BASF0yTihbQ0gyXUMyKFtDSDNdKVtDSDNdKWMobltjSF1uMyljKGMzNCluW2NIXW40W0NIMl1bQ0BAXTUoW09IXSlbQ0gyXVtDSDJdT1tDSDJdNQ==

> <s_epik_cmdline>
J2VwaWtfcHl0aG9uJywgJy1waCcsICc3LjAnLCAnLXRuJywgJzgnLCAnLW1hJywgJzIwMCcsICctbWV0YWxfYmluZGluZycsICctaW1hZScsICc8aW5maWxlLm1hZT4nLCAnLW9tYWUnLCAnPG91dGZpbGUubWFlPic=

> <r_lp_tautomer_probability>
1

> <r_epik_Ionization_Penalty>
0.00202764

> <r_epik_Ionization_Penalty_Charging>
0

> <r_epik_Ionization_Penalty_Neutral>
0.00202764

> <r_epik_State_Penalty>
0.00134017

> <r_epik_Charging_Adjusted_Penalty>
0.00134017

> <i_epik_Tot_Q>
0

> <i_epik_Tot_abs_Q>
0

> <r_epik_Metal_State_Penalty>
-0

> <b_epik_Metal_Only>
0

> <s_lp_Force_Field>
OPLS_2005

> <r_lp_Energy>
60.4132

> <b_lp_Chiralities_Consistent>
1

> <s_lp_Variant>
AV-unprocessed.smi:13-1

> <Gold.Version>
5.8.1

> <Gold.Id.Protein>
6NUR|6NUR_protein|mol2

> <Gold.PLP.Fitness>
55.1818

> <Gold.PLP.PLP>
-46.2745

> <Gold.PLP.part.hbond>
-3.1131

> <Gold.PLP.part.metal>
0.0000

> <Gold.PLP.part.buried>
-3.4244

> <Gold.PLP.part.nonpolar>
-39.7111

> <Gold.PLP.part.repulsive>
0.1283

> <Gold.PLP.ligand.clash>
0.0000

> <Gold.PLP.ligand.torsion>
1.1010

> <Gold.PLP.Chemscore.Hbond>
2.5500

> <Gold.PLP.Chemscore.CHOScore>
1.0000

> <Gold.PLP.Chemscore.Metal>
0.0000

> <Gold.Chemscore.Hbonds>
donor molecule, donor type, donor heavy atom, donor atom, acceptor molecule, acceptor atom, score
      L1  H    17    40       P1  7949  0.90
      P1  H  7989  7998       L1    12  0.50
      P1  H 10752 10763       L1    17  1.00
      L1  C    13    37       P1  7957  1.00

> <Gold.PLP.Chemscore.Internal.Correction>
0.4593

> <Gold.Rescore>
     Score         DG    S(hbond)    S(metal)    S(lipo)     H(rot)  DE(clash)    DE(int)     intcor
     15.94     -18.86       1.37        0.00     125.65       2.30       0.21       2.71       ----

> <Gold.Chemscore.Fitness>
15.9432

> <Gold.Chemscore.DG>
-18.8615

> <Gold.Chemscore.ZeroCoef>
-5.4800

> <Gold.Chemscore.Hbond>
1.3675

> <Gold.Chemscore.Metal>
0.0000

> <Gold.Chemscore.Lipo>
125.6478

> <Gold.Chemscore.Internal_Hbond>
0.0000

> <Gold.Chemscore.DEClash>
0.2052

> <Gold.Chemscore.DEInternal>
2.7131

> <Gold.Chemscore.Rot>
2.2996

> <Gold.Chemscore.Internal.Correction>
   9.000000E+99

> <Gold.Chemscore.Hbonds>
donor molecule, donor type, donor heavy atom, donor atom, acceptor molecule, acceptor atom, score
      L1  H    17    40       P1  7949  0.17
      P1  H  7989  7998       L1    12  0.02
      P1  H 10752 10763       L1    17  0.93

> <Gold.Chemscore.Hbond.Weighted>
-4.5676

> <Gold.Chemscore.Metal.Weighted>
-0.0000

> <Gold.Chemscore.Lipo.Weighted>
-14.7008

> <Gold.Chemscore.Internal_Hbond.Weighted>
0.0000

> <Gold.Chemscore.DEClash.Weighted>
0.2052

> <Gold.Chemscore.DEInternal.Weighted>
2.7131

> <Gold.Chemscore.Rot.Weighted>
5.8869

> <Gold.Chemscore.Internal.Correction.Weighted>
   9.000000E+99

> <Gold.Protein.RotatedTorsions>
[ 6907 6896 6895 6894 ] final  -47.93 input  -60.11 | X-H torsion
[ 7974 7965 7964 7962 ] final -151.65 input  175.53 | X-H torsion
[ 8008 7997 7996 7995 ] final  -22.08 input   59.86 | X-H torsion
[ 10167 10162 10161 10158 ] final  154.11 input  -65.29 | X-H torsion
[ 10718 10713 10712 10709 ] final -175.71 input   66.30 | X-H torsion
[ 10763 10752 10751 10750 ] final   44.78 input  -60.55 | X-H torsion
[ 11005 11000 10999 10996 ] final  123.91 input  -57.11 | X-H torsion

> <Gold.Protein.ActiveResidues>
 VAL166  LYS551  ARG553  GLY616  TRP617  ASP618  TYR619  PRO620  LYS621  CYS622 
 ASP623  PHE694  ASN695  SER759  ASP760  ASP761  ALA762  ILE779  LEU786  VAL792 
 PHE793  MET794  SER795  GLU796  ALA797  LYS798  CYS799  TRP800  GLU811  SER814 

> <Gold.Protein.RotatedAtoms>
  150.8957  134.8365  159.7324 H   0  0  0  0  0  0  0  0  0  0  0  0  # atno 6907 bound_to 6896
  152.4863  134.4580  159.9605 H   0  0  0  0  0  0  0  0  0  0  0  0  # atno 6908 bound_to 6896
  151.4637  133.3547  159.2848 H   0  0  0  0  0  0  0  0  0  0  0  0  # atno 6909 bound_to 6896
  144.7838  140.4769  143.5821 H   0  0  0  0  0  0  0  0  0  0  0  0  # atno 7974 bound_to 7965
  154.4666  140.2017  156.0103 H   0  0  0  0  0  0  0  0  0  0  0  0  # atno 8008 bound_to 7997
  156.0937  140.3254  155.7821 H   0  0  0  0  0  0  0  0  0  0  0  0  # atno 8009 bound_to 7997
  155.4913  140.0546  157.2944 H   0  0  0  0  0  0  0  0  0  0  0  0  # atno 8010 bound_to 7997
  139.4824  144.5215  151.7868 H   0  0  0  0  0  0  0  0  0  0  0  0  # atno 10167 bound_to 10162
  156.8039  130.9562  151.3118 H   0  0  0  0  0  0  0  0  0  0  0  0  # atno 10718 bound_to 10713
  152.9835  135.6060  154.3330 H   0  0  0  0  0  0  0  0  0  0  0  0  # atno 10763 bound_to 10752
  154.3032  135.2772  155.2603 H   0  0  0  0  0  0  0  0  0  0  0  0  # atno 10764 bound_to 10752
  154.4846  135.5908  153.6470 H   0  0  0  0  0  0  0  0  0  0  0  0  # atno 10765 bound_to 10752
  139.9334  134.9640  156.8330 H   0  0  0  0  0  0  0  0  0  0  0  0  # atno 11005 bound_to 11000
  145.5978  139.1501  143.3146 LP  0  0  0  0  0  0  0  0  0  0  0  0  # atno 17320 bound_to 7965
  146.2059  140.6100  142.9081 LP  0  0  0  0  0  0  0  0  0  0  0  0  # atno 17321 bound_to 7965
  140.4730  144.1560  150.5920 LP  0  0  0  0  0  0  0  0  0  0  0  0  # atno 17342 bound_to 10162
  140.4362  143.2546  151.9532 LP  0  0  0  0  0  0  0  0  0  0  0  0  # atno 17343 bound_to 10162
  157.6540  130.8908  149.9691 LP  0  0  0  0  0  0  0  0  0  0  0  0  # atno 17370 bound_to 10713
  156.1085  130.3651  150.0091 LP  0  0  0  0  0  0  0  0  0  0  0  0  # atno 17371 bound_to 10713
  140.6140  134.0056  155.7589 LP  0  0  0  0  0  0  0  0  0  0  0  0  # atno 17394 bound_to 11000
  141.0935  133.9879  157.3198 LP  0  0  0  0  0  0  0  0  0  0  0  0  # atno 17395 bound_to 11000

$$$$
