AV-unprocessed.smi:2003|AV-procd|sdf|8119|dock2
  -GOLD-   2272010353D 1   1.00000     0.00000
 Structure written by MMmdl.
 44 45  0  0  0  0  0  0  0  0  2 V2000
  143.2271  132.3579  150.7329 C   0  0  0  0  0  0  0  0  0  0  0  0
  144.4043  133.1923  151.1437 C   0  0  0  0  0  0  0  0  0  0  0  0
  144.5427  134.6093  151.0762 C   0  0  0  0  0  0  0  0  0  0  0  0
  145.8003  134.8131  151.5751 C   0  0  0  0  0  0  0  0  0  0  0  0
  146.4754  135.9812  151.7425 N   0  0  0  0  0  0  0  0  0  0  0  0
  145.9822  137.2117  151.9648 C   0  0  0  0  0  0  0  0  0  0  0  0
  144.7903  137.4927  152.0874 O   0  0  0  0  0  0  0  0  0  0  0  0
  146.9657  138.1200  152.0361 N   0  0  0  0  0  0  0  0  0  0  0  0
  146.7838  139.5523  152.2694 C   0  0  0  0  0  0  0  0  0  0  0  0
  147.3157  140.0274  153.6487 C   0  0  2  0  0  0  0  0  0  0  0  0
  147.0441  141.5373  153.8264 C   0  0  0  0  0  0  0  0  0  0  0  0
  148.7556  139.6687  153.8640 N   0  3  0  0  0  0  0  0  0  0  0  0
  149.4949  140.6002  154.7595 C   0  0  0  0  0  0  0  0  0  0  0  0
  150.9664  140.1771  154.9079 C   0  0  0  0  0  0  0  0  0  0  0  0
  151.0392  138.8441  155.3906 O   0  0  0  0  0  0  0  0  0  0  0  0
  150.4352  137.9308  154.4874 C   0  0  0  0  0  0  0  0  0  0  0  0
  148.9434  138.2690  154.3343 C   0  0  0  0  0  0  0  0  0  0  0  0
  146.3503  133.5950  151.9067 N   0  0  0  0  0  0  0  0  0  0  0  0
  147.6545  133.2937  152.4638 C   0  0  0  0  0  0  0  0  0  0  0  0
  145.4837  132.5953  151.6367 N   0  0  0  0  0  0  0  0  0  0  0  0
  142.3972  132.9828  150.4019 H   0  0  0  0  0  0  0  0  0  0  0  0
  142.8703  131.7457  151.5617 H   0  0  0  0  0  0  0  0  0  0  0  0
  143.4875  131.6900  149.9115 H   0  0  0  0  0  0  0  0  0  0  0  0
  143.8271  135.3335  150.7174 H   0  0  0  0  0  0  0  0  0  0  0  0
  147.4803  135.9063  151.6857 H   0  0  0  0  0  0  0  0  0  0  0  0
  147.9162  137.7941  151.9396 H   0  0  0  0  0  0  0  0  0  0  0  0
  147.2331  140.1325  151.4615 H   0  0  0  0  0  0  0  0  0  0  0  0
  145.7163  139.7585  152.1939 H   0  0  0  0  0  0  0  0  0  0  0  0
  146.7310  139.5156  154.4150 H   0  0  0  0  0  0  0  0  0  0  0  0
  146.0253  141.7913  153.5320 H   0  0  0  0  0  0  0  0  0  0  0  0
  147.7214  142.1431  153.2240 H   0  0  0  0  0  0  0  0  0  0  0  0
  147.1457  141.8499  154.8655 H   0  0  0  0  0  0  0  0  0  0  0  0
  149.4849  141.6144  154.3628 H   0  0  0  0  0  0  0  0  0  0  0  0
  149.0118  140.6282  155.7375 H   0  0  0  0  0  0  0  0  0  0  0  0
  151.4943  140.2627  153.9566 H   0  0  0  0  0  0  0  0  0  0  0  0
  151.4756  140.8348  155.6126 H   0  0  0  0  0  0  0  0  0  0  0  0
  150.9438  137.9594  153.5221 H   0  0  0  0  0  0  0  0  0  0  0  0
  150.5523  136.9201  154.8787 H   0  0  0  0  0  0  0  0  0  0  0  0
  148.4321  138.1327  155.2885 H   0  0  0  0  0  0  0  0  0  0  0  0
  148.5058  137.5592  153.6339 H   0  0  0  0  0  0  0  0  0  0  0  0
  147.8332  133.9168  153.3406 H   0  0  0  0  0  0  0  0  0  0  0  0
  148.4247  133.4957  151.7192 H   0  0  0  0  0  0  0  0  0  0  0  0
  147.7129  132.2455  152.7603 H   0  0  0  0  0  0  0  0  0  0  0  0
  149.2015  139.7343  152.9601 H   0  0  0  0  0  0  0  0  0  0  0  0
  1  2  1  0  0  0  0
  1 21  1  0  0  0  0
  1 22  1  0  0  0  0
  1 23  1  0  0  0  0
  2 20  2  0  0  0  0
  2  3  1  0  0  0  0
  3  4  2  0  0  0  0
  3 24  1  0  0  0  0
  4  5  1  0  0  0  0
  4 18  1  0  0  0  0
  5  6  1  0  0  0  0
  5 25  1  0  0  0  0
  6  7  2  0  0  0  0
  6  8  1  0  0  0  0
  8  9  1  0  0  0  0
  8 26  1  0  0  0  0
  9 10  1  0  0  0  0
  9 27  1  0  0  0  0
  9 28  1  0  0  0  0
 10 11  1  0  0  0  0
 10 12  1  0  0  0  0
 10 29  1  0  0  0  0
 11 30  1  0  0  0  0
 11 31  1  0  0  0  0
 11 32  1  0  0  0  0
 12 17  1  0  0  0  0
 12 13  1  0  0  0  0
 12 44  1  0  0  0  0
 13 14  1  0  0  0  0
 13 33  1  0  0  0  0
 13 34  1  0  0  0  0
 14 15  1  0  0  0  0
 14 35  1  0  0  0  0
 14 36  1  0  0  0  0
 15 16  1  0  0  0  0
 16 17  1  0  0  0  0
 16 37  1  0  0  0  0
 16 38  1  0  0  0  0
 17 39  1  0  0  0  0
 17 40  1  0  0  0  0
 18 19  1  0  0  0  0
 18 20  1  0  0  0  0
 19 41  1  0  0  0  0
 19 42  1  0  0  0  0
 19 43  1  0  0  0  0
M  CHG  1  12   1
M  END
> <s_m_source_file>
AV-unprocessed.smi

> <i_m_source_file_index>
2003

> <i_lp_mmshare_version>
43012

> <i_f3d_flags>
0

> <s_epik_input>
W0NIM11jMVtjSF1jKG4objEpW0NIM10pW05IXUMoPU8pW05IXVtDSDJdW0NASF0oW0NIM10pTjJbQ0gyXVtDSDJdT1tDSDJdW0NIMl0y

> <s_epik_cmdline>
J2VwaWtfcHl0aG9uJywgJy1waCcsICc3LjAnLCAnLXRuJywgJzgnLCAnLW1hJywgJzIwMCcsICctbWV0YWxfYmluZGluZycsICctaW1hZScsICc8aW5maWxlLm1hZT4nLCAnLW9tYWUnLCAnPG91dGZpbGUubWFlPic=

> <r_lp_tautomer_probability>
1

> <r_epik_Ionization_Penalty>
0.663903

> <r_epik_Ionization_Penalty_Charging>
0.663826

> <r_epik_Ionization_Penalty_Neutral>
7.78239e-05

> <r_epik_State_Penalty>
0.683414

> <r_epik_Charging_Adjusted_Penalty>
1.34724

> <i_epik_Tot_Q>
1

> <i_epik_Tot_abs_Q>
1

> <r_epik_Metal_State_Penalty>
0.683419

> <b_epik_Metal_Only>
0

> <s_lp_Force_Field>
OPLS_2005

> <r_lp_Energy>
28.7948

> <b_lp_Chiralities_Consistent>
1

> <s_lp_Variant>
AV-unprocessed.smi:2003-3

> <Gold.Version>
5.8.1

> <Gold.Id.Protein>
6NUR|6NUR_protein|mol2

> <Gold.PLP.Fitness>
39.3475

> <Gold.PLP.PLP>
-32.6883

> <Gold.PLP.part.hbond>
-2.8041

> <Gold.PLP.part.metal>
0.0000

> <Gold.PLP.part.buried>
0.5189

> <Gold.PLP.part.nonpolar>
-33.4848

> <Gold.PLP.part.repulsive>
3.2157

> <Gold.PLP.ligand.clash>
0.0000

> <Gold.PLP.ligand.torsion>
0.8838

> <Gold.PLP.Chemscore.Hbond>
2.7900

> <Gold.PLP.Chemscore.CHOScore>
0.0000

> <Gold.PLP.Chemscore.Metal>
0.0000

> <Gold.Chemscore.Hbonds>
donor molecule, donor type, donor heavy atom, donor atom, acceptor molecule, acceptor atom, score
      L1  H     5    25       P1  7948  0.88
      L1  H     8    26       P1  7948  0.86
      L1  H    12    44       P1  7957  1.00

> <Gold.PLP.Chemscore.Internal.Correction>
0.0569

> <Gold.Rescore>
     Score         DG    S(hbond)    S(metal)    S(lipo)     H(rot)  DE(clash)    DE(int)     intcor
     16.37     -19.72       2.89        0.00      72.83       1.54       1.48       1.87       ----

> <Gold.Chemscore.Fitness>
16.3651

> <Gold.Chemscore.DG>
-19.7172

> <Gold.Chemscore.ZeroCoef>
-5.4800

> <Gold.Chemscore.Hbond>
2.8916

> <Gold.Chemscore.Metal>
0.0000

> <Gold.Chemscore.Lipo>
72.8307

> <Gold.Chemscore.Internal_Hbond>
0.0000

> <Gold.Chemscore.DEClash>
1.4789

> <Gold.Chemscore.DEInternal>
1.8733

> <Gold.Chemscore.Rot>
1.5398

> <Gold.Chemscore.Internal.Correction>
   9.000000E+99

> <Gold.Chemscore.Hbonds>
donor molecule, donor type, donor heavy atom, donor atom, acceptor molecule, acceptor atom, score
      L1  H     5    25       P1  7948  0.85
      L1  H     8    26       P1  7948  0.85
      L1  H    12    44       P1  7957  1.00

> <Gold.Chemscore.Hbond.Weighted>
-9.6580

> <Gold.Chemscore.Metal.Weighted>
-0.0000

> <Gold.Chemscore.Lipo.Weighted>
-8.5212

> <Gold.Chemscore.Internal_Hbond.Weighted>
0.0000

> <Gold.Chemscore.DEClash.Weighted>
1.4789

> <Gold.Chemscore.DEInternal.Weighted>
1.8733

> <Gold.Chemscore.Rot.Weighted>
3.9420

> <Gold.Chemscore.Internal.Correction.Weighted>
   9.000000E+99

> <Gold.Protein.RotatedTorsions>
[ 6907 6896 6895 6894 ] final  124.25 input  -60.11 | X-H torsion
[ 7974 7965 7964 7962 ] final  -26.23 input  175.53 | X-H torsion
[ 8008 7997 7996 7995 ] final -126.18 input   59.86 | X-H torsion
[ 10167 10162 10161 10158 ] final  166.91 input  -65.29 | X-H torsion
[ 10718 10713 10712 10709 ] final -120.45 input   66.30 | X-H torsion
[ 10763 10752 10751 10750 ] final  -39.06 input  -60.55 | X-H torsion
[ 11005 11000 10999 10996 ] final -173.10 input  -57.11 | X-H torsion

> <Gold.Protein.ActiveResidues>
 VAL166  LYS551  ARG553  GLY616  TRP617  ASP618  TYR619  PRO620  LYS621  CYS622 
 ASP623  PHE694  ASN695  SER759  ASP760  ASP761  ALA762  ILE779  LEU786  VAL792 
 PHE793  MET794  SER795  GLU796  ALA797  LYS798  CYS799  TRP800  GLU811  SER814 

> <Gold.Protein.RotatedAtoms>
  152.4094  133.6939  159.6384 H   0  0  0  0  0  0  0  0  0  0  0  0  # atno 6907 bound_to 6896
  150.7976  133.8651  159.3251 H   0  0  0  0  0  0  0  0  0  0  0  0  # atno 6908 bound_to 6896
  151.6397  135.1016  160.0190 H   0  0  0  0  0  0  0  0  0  0  0  0  # atno 6909 bound_to 6896
  146.1439  140.4991  142.8640 H   0  0  0  0  0  0  0  0  0  0  0  0  # atno 7974 bound_to 7965
  155.2255  140.0423  157.2954 H   0  0  0  0  0  0  0  0  0  0  0  0  # atno 8008 bound_to 7997
  154.5922  140.2430  155.7876 H   0  0  0  0  0  0  0  0  0  0  0  0  # atno 8009 bound_to 7997
  156.2266  140.2952  156.0092 H   0  0  0  0  0  0  0  0  0  0  0  0  # atno 8010 bound_to 7997
  139.4934  144.3978  151.9444 H   0  0  0  0  0  0  0  0  0  0  0  0  # atno 10167 bound_to 10162
  156.1259  130.6359  150.9542 H   0  0  0  0  0  0  0  0  0  0  0  0  # atno 10718 bound_to 10713
  153.9231  135.6780  153.4747 H   0  0  0  0  0  0  0  0  0  0  0  0  # atno 10763 bound_to 10752
  153.1018  135.4824  154.8878 H   0  0  0  0  0  0  0  0  0  0  0  0  # atno 10764 bound_to 10752
  154.7467  135.3174  154.8588 H   0  0  0  0  0  0  0  0  0  0  0  0  # atno 10765 bound_to 10752
  140.4896  134.5997  157.4949 H   0  0  0  0  0  0  0  0  0  0  0  0  # atno 11005 bound_to 11000
  144.7824  140.5867  143.6596 LP  0  0  0  0  0  0  0  0  0  0  0  0  # atno 17320 bound_to 7965
  145.4982  139.1485  143.3672 LP  0  0  0  0  0  0  0  0  0  0  0  0  # atno 17321 bound_to 7965
  140.3416  144.3196  150.5966 LP  0  0  0  0  0  0  0  0  0  0  0  0  # atno 17342 bound_to 10162
  140.5561  143.2199  151.7845 LP  0  0  0  0  0  0  0  0  0  0  0  0  # atno 17343 bound_to 10162
  157.6440  131.0906  150.8191 LP  0  0  0  0  0  0  0  0  0  0  0  0  # atno 17370 bound_to 10713
  156.8282  130.5007  149.5335 LP  0  0  0  0  0  0  0  0  0  0  0  0  # atno 17371 bound_to 10713
  139.9777  134.7188  155.9918 LP  0  0  0  0  0  0  0  0  0  0  0  0  # atno 17394 bound_to 11000
  141.1491  133.6551  156.3957 LP  0  0  0  0  0  0  0  0  0  0  0  0  # atno 17395 bound_to 11000

$$$$
