AV-unprocessed.smi:2538|AV-procd|sdf|9982|dock9
  -GOLD-   2272014 33D 1   1.00000     0.00000
 Structure written by MMmdl.
 48 49  0  0  0  0  0  0  0  0  1 V2000
  153.3781  142.2710  161.7986 C   0  0  0  0  0  0  0  0  0  0  0  0
  152.7463  142.1382  160.4239 C   0  0  0  0  0  0  0  0  0  0  0  0
  153.0319  140.9947  159.6443 C   0  0  0  0  0  0  0  0  0  0  0  0
  152.4643  140.8320  158.3619 C   0  0  0  0  0  0  0  0  0  0  0  0
  152.6014  139.8059  157.4425 N   0  0  0  0  0  0  0  0  0  0  0  0
  151.8305  140.2337  156.4472 C   0  0  0  0  0  0  0  0  0  0  0  0
  151.2079  141.4162  156.6143 N   0  0  0  0  0  0  0  0  0  0  0  0
  150.3255  142.0721  155.6674 C   0  0  0  0  0  0  0  0  0  0  0  0
  149.0273  141.2730  155.4329 C   0  0  1  0  0  0  0  0  0  0  0  0
  148.0466  142.1733  154.9541 O   0  0  0  0  0  0  0  0  0  0  0  0
  149.2087  140.1325  154.4044 C   0  0  0  0  0  0  0  0  0  0  0  0
  148.2842  139.0168  154.6709 N   0  0  0  0  0  0  0  0  0  0  0  0
  147.3952  138.6598  153.5605 C   0  0  0  0  0  0  0  0  0  0  0  0
  148.7016  137.7825  155.8172 S   0  0  0  0  0  0  0  0  0  0  0  0
  149.2907  138.4562  156.9852 O   0  0  0  0  0  0  0  0  0  0  0  0
  147.5340  136.9052  155.9914 O   0  0  0  0  0  0  0  0  0  0  0  0
  150.0186  136.8401  154.9070 C   0  0  0  0  0  0  0  0  0  0  0  0
  150.4676  135.6127  155.7130 C   0  0  0  0  0  0  0  0  0  0  0  0
  151.1994  137.7575  154.5600 C   0  0  0  0  0  0  0  0  0  0  0  0
  151.5976  141.8540  157.8752 C   0  0  0  0  0  0  0  0  0  0  0  0
  151.3043  142.9957  158.6419 C   0  0  0  0  0  0  0  0  0  0  0  0
  151.8782  143.1411  159.9224 C   0  0  0  0  0  0  0  0  0  0  0  0
  151.5511  144.3749  160.7450 C   0  0  0  0  0  0  0  0  0  0  0  0
  154.0483  141.4376  162.0107 H   0  0  0  0  0  0  0  0  0  0  0  0
  152.6089  142.2874  162.5710 H   0  0  0  0  0  0  0  0  0  0  0  0
  153.9588  143.1912  161.8671 H   0  0  0  0  0  0  0  0  0  0  0  0
  153.6910  140.2294  160.0266 H   0  0  0  0  0  0  0  0  0  0  0  0
  151.7074  139.6536  155.5438 H   0  0  0  0  0  0  0  0  0  0  0  0
  150.1011  143.0777  156.0260 H   0  0  0  0  0  0  0  0  0  0  0  0
  150.8765  142.1998  154.7362 H   0  0  0  0  0  0  0  0  0  0  0  0
  148.6722  140.8736  156.3842 H   0  0  0  0  0  0  0  0  0  0  0  0
  148.2640  143.0415  155.2577 H   0  0  0  0  0  0  0  0  0  0  0  0
  149.0644  140.5044  153.3883 H   0  0  0  0  0  0  0  0  0  0  0  0
  150.2274  139.7435  154.4274 H   0  0  0  0  0  0  0  0  0  0  0  0
  146.8909  139.5450  153.1718 H   0  0  0  0  0  0  0  0  0  0  0  0
  146.6331  137.9556  153.8941 H   0  0  0  0  0  0  0  0  0  0  0  0
  147.9661  138.1950  152.7562 H   0  0  0  0  0  0  0  0  0  0  0  0
  149.5756  136.4881  153.9753 H   0  0  0  0  0  0  0  0  0  0  0  0
  151.2141  135.0368  155.1654 H   0  0  0  0  0  0  0  0  0  0  0  0
  149.6275  134.9484  155.9180 H   0  0  0  0  0  0  0  0  0  0  0  0
  150.9065  135.9043  156.6677 H   0  0  0  0  0  0  0  0  0  0  0  0
  151.9679  137.2168  154.0073 H   0  0  0  0  0  0  0  0  0  0  0  0
  151.6610  138.1653  155.4599 H   0  0  0  0  0  0  0  0  0  0  0  0
  150.8781  138.5945  153.9395 H   0  0  0  0  0  0  0  0  0  0  0  0
  150.6410  143.7518  158.2480 H   0  0  0  0  0  0  0  0  0  0  0  0
  150.8603  145.0329  160.2170 H   0  0  0  0  0  0  0  0  0  0  0  0
  152.4567  144.9429  160.9597 H   0  0  0  0  0  0  0  0  0  0  0  0
  151.0865  144.0921  161.6899 H   0  0  0  0  0  0  0  0  0  0  0  0
  1  2  1  0  0  0  0
  1 24  1  0  0  0  0
  1 25  1  0  0  0  0
  1 26  1  0  0  0  0
  2 22  1  0  0  0  0
  2  3  2  0  0  0  0
  3  4  1  0  0  0  0
  3 27  1  0  0  0  0
  4 20  2  0  0  0  0
  4  5  1  0  0  0  0
  5  6  2  0  0  0  0
  6  7  1  0  0  0  0
  6 28  1  0  0  0  0
  7  8  1  0  0  0  0
  7 20  1  0  0  0  0
  8  9  1  0  0  0  0
  8 29  1  0  0  0  0
  8 30  1  0  0  0  0
  9 10  1  0  0  0  0
  9 11  1  0  0  0  0
  9 31  1  0  0  0  0
 10 32  1  0  0  0  0
 11 12  1  0  0  0  0
 11 33  1  0  0  0  0
 11 34  1  0  0  0  0
 12 13  1  0  0  0  0
 12 14  1  0  0  0  0
 13 35  1  0  0  0  0
 13 36  1  0  0  0  0
 13 37  1  0  0  0  0
 14 15  2  0  0  0  0
 14 16  2  0  0  0  0
 14 17  1  0  0  0  0
 17 18  1  0  0  0  0
 17 19  1  0  0  0  0
 17 38  1  0  0  0  0
 18 39  1  0  0  0  0
 18 40  1  0  0  0  0
 18 41  1  0  0  0  0
 19 42  1  0  0  0  0
 19 43  1  0  0  0  0
 19 44  1  0  0  0  0
 20 21  1  0  0  0  0
 21 22  2  0  0  0  0
 21 45  1  0  0  0  0
 22 23  1  0  0  0  0
 23 46  1  0  0  0  0
 23 47  1  0  0  0  0
 23 48  1  0  0  0  0
M  END
> <s_m_source_file>
AV-unprocessed.smi

> <i_m_source_file_index>
2538

> <i_lp_mmshare_version>
43012

> <i_f3d_flags>
0

> <s_epik_input>
W0NIM11jKFtjSF0xKWMoW0NIM10pW2NIXWMoYzEyKW4oW2NIXW4yKVtDSDJdW0NASF0oW09IXSlbQ0gyXU4oW0NIM10pUyg9TykoPU8pW0NIXShbQ0gzXSlbQ0gzXQ==

> <s_epik_cmdline>
J2VwaWtfcHl0aG9uJywgJy1waCcsICc3LjAnLCAnLXRuJywgJzgnLCAnLW1hJywgJzIwMCcsICctbWV0YWxfYmluZGluZycsICctaW1hZScsICc8aW5maWxlLm1hZT4nLCAnLW9tYWUnLCAnPG91dGZpbGUubWFlPic=

> <r_epik_Ionization_Penalty>
0.105018

> <r_epik_Ionization_Penalty_Charging>
0

> <r_epik_Ionization_Penalty_Neutral>
0.105018

> <r_epik_State_Penalty>
0.094904

> <r_epik_Charging_Adjusted_Penalty>
0.094904

> <i_epik_Tot_Q>
0

> <i_epik_Tot_abs_Q>
0

> <r_epik_Metal_State_Penalty>
0.000102919

> <b_epik_Metal_Only>
0

> <s_lp_Force_Field>
OPLS_2005

> <r_lp_Energy>
6.99225

> <b_lp_Chiralities_Consistent>
1

> <s_lp_Variant>
AV-unprocessed.smi:2538-2

> <Gold.Version>
5.8.1

> <Gold.Id.Protein>
6NUR|6NUR_protein|mol2

> <Gold.PLP.Fitness>
47.8851

> <Gold.PLP.PLP>
-43.0924

> <Gold.PLP.part.hbond>
-2.0000

> <Gold.PLP.part.metal>
0.0000

> <Gold.PLP.part.buried>
-4.6947

> <Gold.PLP.part.nonpolar>
-35.5908

> <Gold.PLP.part.repulsive>
0.0245

> <Gold.PLP.ligand.clash>
0.0000

> <Gold.PLP.ligand.torsion>
1.9266

> <Gold.PLP.Chemscore.Hbond>
2.0000

> <Gold.PLP.Chemscore.CHOScore>
0.0000

> <Gold.PLP.Chemscore.Metal>
0.0000

> <Gold.Chemscore.Hbonds>
donor molecule, donor type, donor heavy atom, donor atom, acceptor molecule, acceptor atom, score
      L1  H    10    32       P1  8028  1.00
      P1  H  7997  8009       L1     5  1.00

> <Gold.PLP.Chemscore.Internal.Correction>
2.6460

> <Gold.Rescore>
     Score         DG    S(hbond)    S(metal)    S(lipo)     H(rot)  DE(clash)    DE(int)     intcor
     16.16     -18.86       1.58        0.00     119.29       2.29       0.71       1.99       ----

> <Gold.Chemscore.Fitness>
16.1632

> <Gold.Chemscore.DG>
-18.8622

> <Gold.Chemscore.ZeroCoef>
-5.4800

> <Gold.Chemscore.Hbond>
1.5843

> <Gold.Chemscore.Metal>
0.0000

> <Gold.Chemscore.Lipo>
119.2950

> <Gold.Chemscore.Internal_Hbond>
0.0000

> <Gold.Chemscore.DEClash>
0.7111

> <Gold.Chemscore.DEInternal>
1.9879

> <Gold.Chemscore.Rot>
2.2917

> <Gold.Chemscore.Internal.Correction>
   9.000000E+99

> <Gold.Chemscore.Hbonds>
donor molecule, donor type, donor heavy atom, donor atom, acceptor molecule, acceptor atom, score
      L1  H    10    32       P1  8028  0.98
      P1  H  7997  8009       L1     5  0.14

> <Gold.Chemscore.Hbond.Weighted>
-5.2915

> <Gold.Chemscore.Metal.Weighted>
-0.0000

> <Gold.Chemscore.Lipo.Weighted>
-13.9575

> <Gold.Chemscore.Internal_Hbond.Weighted>
0.0000

> <Gold.Chemscore.DEClash.Weighted>
0.7111

> <Gold.Chemscore.DEInternal.Weighted>
1.9879

> <Gold.Chemscore.Rot.Weighted>
5.8669

> <Gold.Chemscore.Internal.Correction.Weighted>
   9.000000E+99

> <Gold.Protein.RotatedTorsions>
[ 6907 6896 6895 6894 ] final  178.47 input  -60.11 | X-H torsion
[ 7974 7965 7964 7962 ] final -135.67 input  175.53 | X-H torsion
[ 8008 7997 7996 7995 ] final  175.38 input   59.86 | X-H torsion
[ 10167 10162 10161 10158 ] final  -25.54 input  -65.29 | X-H torsion
[ 10718 10713 10712 10709 ] final  135.11 input   66.30 | X-H torsion
[ 10763 10752 10751 10750 ] final -178.33 input  -60.55 | X-H torsion
[ 11005 11000 10999 10996 ] final -124.69 input  -57.11 | X-H torsion

> <Gold.Protein.ActiveResidues>
 VAL166  LYS551  ARG553  GLY616  TRP617  ASP618  TYR619  PRO620  LYS621  CYS622 
 ASP623  PHE694  ASN695  SER759  ASP760  ASP761  ALA762  ILE779  LEU786  VAL792 
 PHE793  MET794  SER795  GLU796  ALA797  LYS798  CYS799  TRP800  GLU811  SER814 

> <Gold.Protein.RotatedAtoms>
  151.6873  133.3311  159.3233 H   0  0  0  0  0  0  0  0  0  0  0  0  # atno 6907 bound_to 6896
  150.7795  134.6729  159.6411 H   0  0  0  0  0  0  0  0  0  0  0  0  # atno 6908 bound_to 6896
  152.3848  134.6537  160.0181 H   0  0  0  0  0  0  0  0  0  0  0  0  # atno 6909 bound_to 6896
  144.8994  140.6750  143.5095 H   0  0  0  0  0  0  0  0  0  0  0  0  # atno 7974 bound_to 7965
  156.0876  140.1410  156.9633 H   0  0  0  0  0  0  0  0  0  0  0  0  # atno 8008 bound_to 7997
  154.4622  140.0939  156.6972 H   0  0  0  0  0  0  0  0  0  0  0  0  # atno 8009 bound_to 7997
  155.4973  140.3450  155.4367 H   0  0  0  0  0  0  0  0  0  0  0  0  # atno 8010 bound_to 7997
  140.7286  143.4256  151.0882 H   0  0  0  0  0  0  0  0  0  0  0  0  # atno 10167 bound_to 10162
  157.4605  131.1073  150.9926 H   0  0  0  0  0  0  0  0  0  0  0  0  # atno 10718 bound_to 10713
  154.5490  135.2811  155.1026 H   0  0  0  0  0  0  0  0  0  0  0  0  # atno 10763 bound_to 10752
  154.2479  135.6345  153.5233 H   0  0  0  0  0  0  0  0  0  0  0  0  # atno 10764 bound_to 10752
  152.9998  135.5576  154.6050 H   0  0  0  0  0  0  0  0  0  0  0  0  # atno 10765 bound_to 10752
  140.9821  134.0658  157.3752 H   0  0  0  0  0  0  0  0  0  0  0  0  # atno 11005 bound_to 11000
  145.3643  139.1674  143.4366 LP  0  0  0  0  0  0  0  0  0  0  0  0  # atno 17320 bound_to 7965
  146.3100  140.3709  142.8674 LP  0  0  0  0  0  0  0  0  0  0  0  0  # atno 17321 bound_to 7965
  139.7907  143.8223  152.3151 LP  0  0  0  0  0  0  0  0  0  0  0  0  # atno 17342 bound_to 10162
  139.8206  144.7297  150.9578 LP  0  0  0  0  0  0  0  0  0  0  0  0  # atno 17343 bound_to 10162
  157.0725  130.5870  149.5405 LP  0  0  0  0  0  0  0  0  0  0  0  0  # atno 17370 bound_to 10713
  156.0026  130.5108  150.7718 LP  0  0  0  0  0  0  0  0  0  0  0  0  # atno 17371 bound_to 10713
  139.8955  135.0141  156.7004 LP  0  0  0  0  0  0  0  0  0  0  0  0  # atno 17394 bound_to 11000
  140.7170  133.9174  155.8121 LP  0  0  0  0  0  0  0  0  0  0  0  0  # atno 17395 bound_to 11000

$$$$
