AV-unprocessed.smi:3351|AV-procd|sdf|12949|dock2
  -GOLD-   2272019383D 1   1.00000     0.00000
 Structure written by MMmdl.
 34 35  0  0  0  0  0  0  0  0  1 V2000
  154.4160  140.1262  160.4410 C   0  0  0  0  0  0  0  0  0  0  0  0
  153.4859  141.1921  159.8461 C   0  0  2  0  0  0  0  0  0  0  0  0
  153.1806  142.3068  160.8717 C   0  0  0  0  0  0  0  0  0  0  0  0
  152.5037  143.4497  160.2831 N   0  0  0  0  0  0  0  0  0  0  0  0
  152.3873  143.7485  158.9317 C   0  0  0  0  0  0  0  0  0  0  0  0
  151.6881  144.9309  158.8481 C   0  0  0  0  0  0  0  0  0  0  0  0
  151.3511  145.3671  160.1271 N   0  0  0  0  0  0  0  0  0  0  0  0
  151.8614  144.4365  160.9236 C   0  0  0  0  0  0  0  0  0  0  0  0
  152.2524  140.5496  159.3934 N   0  0  0  0  0  0  0  0  0  0  0  0
  152.1300  139.7876  158.2949 C   0  0  0  0  0  0  0  0  0  0  0  0
  153.0777  139.4802  157.5716 O   0  0  0  0  0  0  0  0  0  0  0  0
  150.7214  139.2991  157.9529 C   0  0  0  0  0  0  0  0  0  0  0  0
  150.7015  138.6817  156.6280 N   0  0  0  0  0  0  0  0  0  0  0  0
  150.3817  137.2661  156.4976 C   0  0  0  0  0  0  0  0  0  0  0  0
  150.9111  136.7986  155.1408 C   0  0  0  0  0  0  0  0  0  0  0  0
  150.9796  138.2419  154.0612 S   0  0  0  0  0  0  0  0  0  0  0  0
  150.9721  139.3735  155.4551 C   0  0  0  0  0  0  0  0  0  0  0  0
  151.1965  140.5758  155.3274 O   0  0  0  0  0  0  0  0  0  0  0  0
  155.3596  140.5665  160.7642 H   0  0  0  0  0  0  0  0  0  0  0  0
  154.6488  139.3536  159.7073 H   0  0  0  0  0  0  0  0  0  0  0  0
  153.9631  139.6400  161.3057 H   0  0  0  0  0  0  0  0  0  0  0  0
  154.0071  141.6330  158.9944 H   0  0  0  0  0  0  0  0  0  0  0  0
  152.5667  141.9180  161.6855 H   0  0  0  0  0  0  0  0  0  0  0  0
  154.1069  142.6643  161.3230 H   0  0  0  0  0  0  0  0  0  0  0  0
  152.8115  143.1203  158.1624 H   0  0  0  0  0  0  0  0  0  0  0  0
  151.4041  145.4961  157.9727 H   0  0  0  0  0  0  0  0  0  0  0  0
  151.7784  144.4806  161.9995 H   0  0  0  0  0  0  0  0  0  0  0  0
  151.4175  140.7440  159.9273 H   0  0  0  0  0  0  0  0  0  0  0  0
  150.4069  138.5732  158.7038 H   0  0  0  0  0  0  0  0  0  0  0  0
  150.0050  140.1216  157.9992 H   0  0  0  0  0  0  0  0  0  0  0  0
  150.8093  136.6791  157.3112 H   0  0  0  0  0  0  0  0  0  0  0  0
  149.2979  137.1530  156.5416 H   0  0  0  0  0  0  0  0  0  0  0  0
  151.9265  136.4158  155.2506 H   0  0  0  0  0  0  0  0  0  0  0  0
  150.3002  136.0067  154.7073 H   0  0  0  0  0  0  0  0  0  0  0  0
  1  2  1  0  0  0  0
  1 19  1  0  0  0  0
  1 20  1  0  0  0  0
  1 21  1  0  0  0  0
  2  3  1  0  0  0  0
  2  9  1  0  0  0  0
  2 22  1  0  0  0  0
  3  4  1  0  0  0  0
  3 23  1  0  0  0  0
  3 24  1  0  0  0  0
  4  8  1  0  0  0  0
  4  5  1  0  0  0  0
  5  6  2  0  0  0  0
  5 25  1  0  0  0  0
  6  7  1  0  0  0  0
  6 26  1  0  0  0  0
  7  8  2  0  0  0  0
  8 27  1  0  0  0  0
  9 10  1  0  0  0  0
  9 28  1  0  0  0  0
 10 11  2  0  0  0  0
 10 12  1  0  0  0  0
 12 13  1  0  0  0  0
 12 29  1  0  0  0  0
 12 30  1  0  0  0  0
 13 17  1  0  0  0  0
 13 14  1  0  0  0  0
 14 15  1  0  0  0  0
 14 31  1  0  0  0  0
 14 32  1  0  0  0  0
 15 16  1  0  0  0  0
 15 33  1  0  0  0  0
 15 34  1  0  0  0  0
 16 17  1  0  0  0  0
 17 18  2  0  0  0  0
M  END
> <s_m_source_file>
AV-unprocessed.smi

> <i_m_source_file_index>
3351

> <i_lp_mmshare_version>
43012

> <i_f3d_flags>
0

> <s_epik_input>
W2NIXTFuW2NIXVtjSF1uMVtDSDJdW0NAQEhdKFtDSDNdKVtOSF1DKD1PKVtDSDJdTjJbQ0gyXVtDSDJdU0MyPU8=

> <s_epik_cmdline>
J2VwaWtfcHl0aG9uJywgJy1waCcsICc3LjAnLCAnLXRuJywgJzgnLCAnLW1hJywgJzIwMCcsICctbWV0YWxfYmluZGluZycsICctaW1hZScsICc8aW5maWxlLm1hZT4nLCAnLW9tYWUnLCAnPG91dGZpbGUubWFlPic=

> <r_lp_tautomer_probability>
1

> <r_epik_Ionization_Penalty>
0.618163

> <r_epik_Ionization_Penalty_Charging>
0.618163

> <r_epik_Ionization_Penalty_Neutral>
6.6929e-08

> <r_epik_State_Penalty>
0.633954

> <r_epik_Charging_Adjusted_Penalty>
1.25212

> <i_epik_Tot_Q>
0

> <i_epik_Tot_abs_Q>
0

> <r_epik_Metal_State_Penalty>
0.305924

> <b_epik_Metal_Only>
0

> <s_lp_Force_Field>
OPLS_2005

> <r_lp_Energy>
3.88922

> <b_lp_Chiralities_Consistent>
1

> <s_lp_Variant>
AV-unprocessed.smi:3351-3

> <Gold.Version>
5.8.1

> <Gold.Id.Protein>
6NUR|6NUR_protein|mol2

> <Gold.PLP.Fitness>
45.5270

> <Gold.PLP.PLP>
-40.7676

> <Gold.PLP.part.hbond>
-2.0000

> <Gold.PLP.part.metal>
0.0000

> <Gold.PLP.part.buried>
-6.2828

> <Gold.PLP.part.nonpolar>
-32.8290

> <Gold.PLP.part.repulsive>
0.3284

> <Gold.PLP.ligand.clash>
0.0000

> <Gold.PLP.ligand.torsion>
0.5350

> <Gold.PLP.Chemscore.Hbond>
1.9120

> <Gold.PLP.Chemscore.CHOScore>
0.0000

> <Gold.PLP.Chemscore.Metal>
0.0000

> <Gold.Chemscore.Hbonds>
donor molecule, donor type, donor heavy atom, donor atom, acceptor molecule, acceptor atom, score
      P1  H  7989  7998       L1    18  0.88
      P1  H  7997  8008       L1    11  1.00

> <Gold.PLP.Chemscore.Internal.Correction>
0.0935

> <Gold.Rescore>
     Score         DG    S(hbond)    S(metal)    S(lipo)     H(rot)  DE(clash)    DE(int)     intcor
     14.49     -15.25       2.00        0.00      77.57       2.33       0.05       0.70       ----

> <Gold.Chemscore.Fitness>
14.4914

> <Gold.Chemscore.DG>
-15.2504

> <Gold.Chemscore.ZeroCoef>
-5.4800

> <Gold.Chemscore.Hbond>
1.9953

> <Gold.Chemscore.Metal>
0.0000

> <Gold.Chemscore.Lipo>
77.5659

> <Gold.Chemscore.Internal_Hbond>
0.0000

> <Gold.Chemscore.DEClash>
0.0544

> <Gold.Chemscore.DEInternal>
0.7046

> <Gold.Chemscore.Rot>
2.3317

> <Gold.Chemscore.Internal.Correction>
   9.000000E+99

> <Gold.Chemscore.Hbonds>
donor molecule, donor type, donor heavy atom, donor atom, acceptor molecule, acceptor atom, score
      P1  H  7989  7998       L1    18  0.56
      P1  H  7997  8008       L1    11  1.00

> <Gold.Chemscore.Hbond.Weighted>
-6.6644

> <Gold.Chemscore.Metal.Weighted>
-0.0000

> <Gold.Chemscore.Lipo.Weighted>
-9.0752

> <Gold.Chemscore.Internal_Hbond.Weighted>
0.0000

> <Gold.Chemscore.DEClash.Weighted>
0.0544

> <Gold.Chemscore.DEInternal.Weighted>
0.7046

> <Gold.Chemscore.Rot.Weighted>
5.9692

> <Gold.Chemscore.Internal.Correction.Weighted>
   9.000000E+99

> <Gold.Protein.RotatedTorsions>
[ 6907 6896 6895 6894 ] final  -65.01 input  -60.11 | X-H torsion
[ 7974 7965 7964 7962 ] final  103.44 input  175.53 | X-H torsion
[ 8008 7997 7996 7995 ] final  -72.91 input   59.86 | X-H torsion
[ 10167 10162 10161 10158 ] final  124.75 input  -65.29 | X-H torsion
[ 10718 10713 10712 10709 ] final  137.87 input   66.30 | X-H torsion
[ 10763 10752 10751 10750 ] final -157.29 input  -60.55 | X-H torsion
[ 11005 11000 10999 10996 ] final   24.23 input  -57.11 | X-H torsion

> <Gold.Protein.ActiveResidues>
 VAL166  LYS551  ARG553  GLY616  TRP617  ASP618  TYR619  PRO620  LYS621  CYS622 
 ASP623  PHE694  ASN695  SER759  ASP760  ASP761  ALA762  ILE779  LEU786  VAL792 
 PHE793  MET794  SER795  GLU796  ALA797  LYS798  CYS799  TRP800  GLU811  SER814 

> <Gold.Protein.RotatedAtoms>
  150.7550  134.6219  159.6140 H   0  0  0  0  0  0  0  0  0  0  0  0  # atno 6907 bound_to 6896
  152.3523  134.6985  160.0241 H   0  0  0  0  0  0  0  0  0  0  0  0  # atno 6908 bound_to 6896
  151.7402  133.3285  159.3400 H   0  0  0  0  0  0  0  0  0  0  0  0  # atno 6909 bound_to 6896
  145.3459  139.2451  143.3584 H   0  0  0  0  0  0  0  0  0  0  0  0  # atno 7974 bound_to 7965
  154.5205  140.0788  156.8162 H   0  0  0  0  0  0  0  0  0  0  0  0  # atno 8008 bound_to 7997
  155.3587  140.3416  155.4222 H   0  0  0  0  0  0  0  0  0  0  0  0  # atno 8009 bound_to 7997
  156.1675  140.1609  156.8493 H   0  0  0  0  0  0  0  0  0  0  0  0  # atno 8010 bound_to 7997
  139.5724  144.6946  151.3744 H   0  0  0  0  0  0  0  0  0  0  0  0  # atno 10167 bound_to 10162
  157.4314  131.1049  151.0245 H   0  0  0  0  0  0  0  0  0  0  0  0  # atno 10718 bound_to 10713
  154.7647  135.3128  154.8308 H   0  0  0  0  0  0  0  0  0  0  0  0  # atno 10763 bound_to 10752
  153.9060  135.6811  153.4757 H   0  0  0  0  0  0  0  0  0  0  0  0  # atno 10764 bound_to 10752
  153.1252  135.4804  154.9193 H   0  0  0  0  0  0  0  0  0  0  0  0  # atno 10765 bound_to 10752
  140.3609  134.2126  155.7672 H   0  0  0  0  0  0  0  0  0  0  0  0  # atno 11005 bound_to 11000
  146.2988  140.4066  142.8712 LP  0  0  0  0  0  0  0  0  0  0  0  0  # atno 17320 bound_to 7965
  144.8754  140.7330  143.6020 LP  0  0  0  0  0  0  0  0  0  0  0  0  # atno 17321 bound_to 7965
  140.7008  143.7637  150.7399 LP  0  0  0  0  0  0  0  0  0  0  0  0  # atno 17342 bound_to 10162
  140.1147  143.4667  152.2349 LP  0  0  0  0  0  0  0  0  0  0  0  0  # atno 17343 bound_to 10162
  157.1140  130.6033  149.5489 LP  0  0  0  0  0  0  0  0  0  0  0  0  # atno 17370 bound_to 10713
  155.9915  130.4969  150.7300 LP  0  0  0  0  0  0  0  0  0  0  0  0  # atno 17371 bound_to 10713
  141.1984  133.8036  157.0583 LP  0  0  0  0  0  0  0  0  0  0  0  0  # atno 17394 bound_to 11000
  140.0627  134.9746  157.1333 LP  0  0  0  0  0  0  0  0  0  0  0  0  # atno 17395 bound_to 11000

$$$$
