AV-unprocessed.smi:1373|AV-procd|sdf|5586|dock8
  -GOLD-   22720 5183D 1   1.00000     0.00000
 Structure written by MMmdl.
 42 43  0  0  0  0  0  0  0  0  1 V2000
  151.3376  145.2789  159.3215 C   0  0  0  0  0  0  0  0  0  0  0  0
  152.2166  144.3825  158.4424 C   0  0  0  0  0  0  0  0  0  0  0  0
  152.2439  142.9264  158.9270 C   0  0  0  0  0  0  0  0  0  0  0  0
  150.9964  142.1398  158.4949 C   0  0  0  0  0  0  0  0  0  0  0  0
  151.0563  140.7557  158.9485 N   0  0  0  0  0  0  0  0  0  0  0  0
  151.8836  139.8158  158.4623 C   0  0  0  0  0  0  0  0  0  0  0  0
  152.7047  140.0345  157.5716 O   0  0  0  0  0  0  0  0  0  0  0  0
  151.7883  138.4191  159.0848 C   0  0  0  0  0  0  0  0  0  0  0  0
  150.4198  137.8387  158.9111 C   0  0  0  0  0  0  0  0  0  0  0  0
  149.4699  138.4892  158.2486 N   0  0  0  0  0  0  0  0  0  0  0  0
  148.3627  137.6341  158.3462 O   0  0  0  0  0  0  0  0  0  0  0  0
  148.7867  136.5611  159.0557 C   0  0  0  0  0  0  0  0  0  0  0  0
  147.8167  135.4676  159.3659 C   0  0  0  0  0  0  0  0  0  0  0  0
  146.7010  135.8987  160.2065 N   0  0  0  0  0  0  0  0  0  0  0  0
  147.1772  136.4612  161.4648 C   0  0  0  0  0  0  0  0  0  0  0  0
  146.0157  136.9180  162.3644 C   0  0  0  0  0  0  0  0  0  0  0  0
  145.2104  137.8594  161.6620 O   0  0  0  0  0  0  0  0  0  0  0  0
  144.6859  137.3345  160.4467 C   0  0  0  0  0  0  0  0  0  0  0  0
  145.8415  136.8761  159.5403 C   0  0  0  0  0  0  0  0  0  0  0  0
  150.0639  136.6271  159.4221 N   0  0  0  0  0  0  0  0  0  0  0  0
  151.3429  146.3065  158.9571 H   0  0  0  0  0  0  0  0  0  0  0  0
  151.6931  145.2900  160.3523 H   0  0  0  0  0  0  0  0  0  0  0  0
  150.3035  144.9329  159.3267 H   0  0  0  0  0  0  0  0  0  0  0  0
  151.8534  144.4207  157.4148 H   0  0  0  0  0  0  0  0  0  0  0  0
  153.2319  144.7804  158.4258 H   0  0  0  0  0  0  0  0  0  0  0  0
  153.1387  142.4360  158.5413 H   0  0  0  0  0  0  0  0  0  0  0  0
  152.3258  142.9073  160.0146 H   0  0  0  0  0  0  0  0  0  0  0  0
  150.1029  142.5962  158.9220 H   0  0  0  0  0  0  0  0  0  0  0  0
  150.8752  142.1774  157.4108 H   0  0  0  0  0  0  0  0  0  0  0  0
  150.4165  140.4890  159.6832 H   0  0  0  0  0  0  0  0  0  0  0  0
  152.5268  137.7581  158.6284 H   0  0  0  0  0  0  0  0  0  0  0  0
  152.0303  138.4803  160.1465 H   0  0  0  0  0  0  0  0  0  0  0  0
  147.4361  135.0871  158.4173 H   0  0  0  0  0  0  0  0  0  0  0  0
  148.3519  134.6433  159.8399 H   0  0  0  0  0  0  0  0  0  0  0  0
  147.7765  135.7223  161.9974 H   0  0  0  0  0  0  0  0  0  0  0  0
  147.8333  137.3104  161.2661 H   0  0  0  0  0  0  0  0  0  0  0  0
  145.4075  136.0659  162.6721 H   0  0  0  0  0  0  0  0  0  0  0  0
  146.3993  137.3832  163.2725 H   0  0  0  0  0  0  0  0  0  0  0  0
  144.0118  136.5038  160.6618 H   0  0  0  0  0  0  0  0  0  0  0  0
  144.0969  138.1048  159.9490 H   0  0  0  0  0  0  0  0  0  0  0  0
  146.4313  137.7437  159.2401 H   0  0  0  0  0  0  0  0  0  0  0  0
  145.4233  136.4523  158.6270 H   0  0  0  0  0  0  0  0  0  0  0  0
  1  2  1  0  0  0  0
  1 21  1  0  0  0  0
  1 22  1  0  0  0  0
  1 23  1  0  0  0  0
  2  3  1  0  0  0  0
  2 24  1  0  0  0  0
  2 25  1  0  0  0  0
  3  4  1  0  0  0  0
  3 26  1  0  0  0  0
  3 27  1  0  0  0  0
  4  5  1  0  0  0  0
  4 28  1  0  0  0  0
  4 29  1  0  0  0  0
  5  6  1  0  0  0  0
  5 30  1  0  0  0  0
  6  7  2  0  0  0  0
  6  8  1  0  0  0  0
  8  9  1  0  0  0  0
  8 31  1  0  0  0  0
  8 32  1  0  0  0  0
  9 20  1  0  0  0  0
  9 10  2  0  0  0  0
 10 11  1  0  0  0  0
 11 12  1  0  0  0  0
 12 13  1  0  0  0  0
 12 20  2  0  0  0  0
 13 14  1  0  0  0  0
 13 33  1  0  0  0  0
 13 34  1  0  0  0  0
 14 19  1  0  0  0  0
 14 15  1  0  0  0  0
 15 16  1  0  0  0  0
 15 35  1  0  0  0  0
 15 36  1  0  0  0  0
 16 17  1  0  0  0  0
 16 37  1  0  0  0  0
 16 38  1  0  0  0  0
 17 18  1  0  0  0  0
 18 19  1  0  0  0  0
 18 39  1  0  0  0  0
 18 40  1  0  0  0  0
 19 41  1  0  0  0  0
 19 42  1  0  0  0  0
M  END
> <s_m_source_file>
AV-unprocessed.smi

> <i_m_source_file_index>
1373

> <i_lp_mmshare_version>
43012

> <i_f3d_flags>
0

> <s_epik_input>
W0NIM11bQ0gyXVtDSDJdW0NIMl1bTkhdQyg9TylbQ0gyXWMxbm9jKG4xKVtDSDJdTjJbQ0gyXVtDSDJdT1tDSDJdW0NIMl0y

> <s_epik_cmdline>
J2VwaWtfcHl0aG9uJywgJy1waCcsICc3LjAnLCAnLXRuJywgJzgnLCAnLW1hJywgJzIwMCcsICctbWV0YWxfYmluZGluZycsICctaW1hZScsICc8aW5maWxlLm1hZT4nLCAnLW9tYWUnLCAnPG91dGZpbGUubWFlPic=

> <r_lp_tautomer_probability>
1

> <r_epik_Ionization_Penalty>
0.0010147

> <r_epik_Ionization_Penalty_Charging>
0

> <r_epik_Ionization_Penalty_Neutral>
0.0010147

> <r_epik_State_Penalty>
0.00066205

> <r_epik_Charging_Adjusted_Penalty>
0.00066205

> <i_epik_Tot_Q>
0

> <i_epik_Tot_abs_Q>
0

> <r_epik_Metal_State_Penalty>
-0

> <b_epik_Metal_Only>
0

> <s_lp_Force_Field>
OPLS_2005

> <r_lp_Energy>
19.0751

> <b_lp_Chiralities_Consistent>
1

> <s_lp_Variant>
AV-unprocessed.smi:1373-1

> <Gold.Version>
5.8.1

> <Gold.Id.Protein>
6NUR|6NUR_protein|mol2

> <Gold.PLP.Fitness>
41.6836

> <Gold.PLP.PLP>
-35.9644

> <Gold.PLP.part.hbond>
-3.9604

> <Gold.PLP.part.metal>
0.0000

> <Gold.PLP.part.buried>
-4.0529

> <Gold.PLP.part.nonpolar>
-27.6092

> <Gold.PLP.part.repulsive>
0.1787

> <Gold.PLP.ligand.clash>
0.0000

> <Gold.PLP.ligand.torsion>
0.1736

> <Gold.PLP.Chemscore.Hbond>
2.0049

> <Gold.PLP.Chemscore.CHOScore>
0.0000

> <Gold.PLP.Chemscore.Metal>
0.0000

> <Gold.Chemscore.Hbonds>
donor molecule, donor type, donor heavy atom, donor atom, acceptor molecule, acceptor atom, score
      P1  H  6896  6909       L1    20  1.00
      P1  H  6934  6947       L1    17  0.06
      P1  H  7997  8009       L1     7  1.00

> <Gold.PLP.Chemscore.Internal.Correction>
0.0516

> <Gold.Rescore>
     Score         DG    S(hbond)    S(metal)    S(lipo)     H(rot)  DE(clash)    DE(int)     intcor
     12.49     -15.60       1.98        0.00      80.05       2.29       0.07       3.04       ----

> <Gold.Chemscore.Fitness>
12.4869

> <Gold.Chemscore.DG>
-15.5966

> <Gold.Chemscore.ZeroCoef>
-5.4800

> <Gold.Chemscore.Hbond>
1.9810

> <Gold.Chemscore.Metal>
0.0000

> <Gold.Chemscore.Lipo>
80.0461

> <Gold.Chemscore.Internal_Hbond>
0.0000

> <Gold.Chemscore.DEClash>
0.0679

> <Gold.Chemscore.DEInternal>
3.0418

> <Gold.Chemscore.Rot>
2.2912

> <Gold.Chemscore.Internal.Correction>
   9.000000E+99

> <Gold.Chemscore.Hbonds>
donor molecule, donor type, donor heavy atom, donor atom, acceptor molecule, acceptor atom, score
      P1  H  6896  6909       L1    20  0.85
      P1  H  7997  8009       L1     7  0.98

> <Gold.Chemscore.Hbond.Weighted>
-6.6166

> <Gold.Chemscore.Metal.Weighted>
-0.0000

> <Gold.Chemscore.Lipo.Weighted>
-9.3654

> <Gold.Chemscore.Internal_Hbond.Weighted>
0.0000

> <Gold.Chemscore.DEClash.Weighted>
0.0679

> <Gold.Chemscore.DEInternal.Weighted>
3.0418

> <Gold.Chemscore.Rot.Weighted>
5.8654

> <Gold.Chemscore.Internal.Correction.Weighted>
   9.000000E+99

> <Gold.Protein.RotatedTorsions>
[ 6907 6896 6895 6894 ] final   71.07 input  -60.11 | X-H torsion
[ 7974 7965 7964 7962 ] final  -54.14 input  175.53 | X-H torsion
[ 8008 7997 7996 7995 ] final  172.92 input   59.86 | X-H torsion
[ 10167 10162 10161 10158 ] final -127.07 input  -65.29 | X-H torsion
[ 10718 10713 10712 10709 ] final  151.36 input   66.30 | X-H torsion
[ 10763 10752 10751 10750 ] final  -45.03 input  -60.55 | X-H torsion
[ 11005 11000 10999 10996 ] final  -67.24 input  -57.11 | X-H torsion

> <Gold.Protein.ActiveResidues>
 VAL166  LYS551  ARG553  GLY616  TRP617  ASP618  TYR619  PRO620  LYS621  CYS622 
 ASP623  PHE694  ASN695  SER759  ASP760  ASP761  ALA762  ILE779  LEU786  VAL792 
 PHE793  MET794  SER795  GLU796  ALA797  LYS798  CYS799  TRP800  GLU811  SER814 

> <Gold.Protein.RotatedAtoms>
  152.4788  134.4775  159.9654 H   0  0  0  0  0  0  0  0  0  0  0  0  # atno 6907 bound_to 6896
  151.4786  133.3546  159.2842 H   0  0  0  0  0  0  0  0  0  0  0  0  # atno 6908 bound_to 6896
  150.8845  134.8266  159.7310 H   0  0  0  0  0  0  0  0  0  0  0  0  # atno 6909 bound_to 6896
  145.8890  140.8086  142.9801 H   0  0  0  0  0  0  0  0  0  0  0  0  # atno 7974 bound_to 7965
  156.1126  140.1473  156.9317 H   0  0  0  0  0  0  0  0  0  0  0  0  # atno 8008 bound_to 7997
  154.4778  140.0889  156.7347 H   0  0  0  0  0  0  0  0  0  0  0  0  # atno 8009 bound_to 7997
  155.4569  140.3437  155.4310 H   0  0  0  0  0  0  0  0  0  0  0  0  # atno 8010 bound_to 7997
  139.9648  143.5910  152.2433 H   0  0  0  0  0  0  0  0  0  0  0  0  # atno 10167 bound_to 10162
  157.2717  131.0818  151.1595 H   0  0  0  0  0  0  0  0  0  0  0  0  # atno 10718 bound_to 10713
  154.0218  135.6668  153.4773 H   0  0  0  0  0  0  0  0  0  0  0  0  # atno 10763 bound_to 10752
  153.0577  135.5046  154.8016 H   0  0  0  0  0  0  0  0  0  0  0  0  # atno 10764 bound_to 10752
  154.6932  135.3065  154.9413 H   0  0  0  0  0  0  0  0  0  0  0  0  # atno 10765 bound_to 10752
  141.1503  133.6715  156.6262 H   0  0  0  0  0  0  0  0  0  0  0  0  # atno 11005 bound_to 11000
  144.6729  140.1500  143.7431 LP  0  0  0  0  0  0  0  0  0  0  0  0  # atno 17320 bound_to 7965
  145.8932  139.2387  143.1537 LP  0  0  0  0  0  0  0  0  0  0  0  0  # atno 17321 bound_to 7965
  139.6526  144.7661  151.2118 LP  0  0  0  0  0  0  0  0  0  0  0  0  # atno 17342 bound_to 10162
  140.7541  143.6136  150.8581 LP  0  0  0  0  0  0  0  0  0  0  0  0  # atno 17343 bound_to 10162
  157.3064  130.6868  149.6192 LP  0  0  0  0  0  0  0  0  0  0  0  0  # atno 17370 bound_to 10713
  155.9663  130.4376  150.5184 LP  0  0  0  0  0  0  0  0  0  0  0  0  # atno 17371 bound_to 10713
  140.3502  134.7775  157.4461 LP  0  0  0  0  0  0  0  0  0  0  0  0  # atno 17394 bound_to 11000
  140.0867  134.5657  155.8485 LP  0  0  0  0  0  0  0  0  0  0  0  0  # atno 17395 bound_to 11000

$$$$
