AV-unprocessed.smi:102|AV-procd|sdf|954|dock5
  -GOLD-   2262017483D 1   1.00000     0.00000
 Structure written by MMmdl.
 44 45  0  0  0  0  0  0  0  0  1 V2000
  147.1121  135.1020  162.0005 C   0  0  0  0  0  0  0  0  0  0  0  0
  147.3009  136.2585  161.0278 C   0  0  0  0  0  0  0  0  0  0  0  0
  146.9394  137.4011  161.3093 O   0  0  0  0  0  0  0  0  0  0  0  0
  147.8832  135.8740  159.8813 O   0  0  0  0  0  0  0  0  0  0  0  0
  148.1013  136.8245  158.8518 C   0  0  0  0  0  0  0  0  0  0  0  0
  148.1749  136.1065  157.4956 C   0  0  1  0  0  0  0  0  0  0  0  0
  148.2073  137.0687  156.4434 O   0  0  0  0  0  0  0  0  0  0  0  0
  149.5099  137.2909  155.9857 C   0  0  1  0  0  0  0  0  0  0  0  0
  149.8870  138.7479  156.1792 N   0  0  0  0  0  0  0  0  0  0  0  0
  149.0602  139.6574  156.8284 C   0  0  0  0  0  0  0  0  0  0  0  0
  149.3950  140.9565  157.0116 C   0  0  0  0  0  0  0  0  0  0  0  0
  148.5435  141.7768  157.6504 F   0  0  0  0  0  0  0  0  0  0  0  0
  150.6669  141.4759  156.5172 C   0  0  0  0  0  0  0  0  0  0  0  0
  151.0600  142.6341  156.6396 O   0  0  0  0  0  0  0  0  0  0  0  0
  151.4578  140.5316  155.8564 N   0  0  0  0  0  0  0  0  0  0  0  0
  151.1237  139.1907  155.6596 C   0  0  0  0  0  0  0  0  0  0  0  0
  151.8966  138.4425  155.0625 O   0  0  0  0  0  0  0  0  0  0  0  0
  150.4444  136.3165  156.7356 C   0  0  1  0  0  0  0  0  0  0  0  0
  151.1849  136.9676  157.7654 O   0  0  0  0  0  0  0  0  0  0  0  0
  152.4741  136.6596  157.9759 C   0  0  0  0  0  0  0  0  0  0  0  0
  153.0496  137.3834  159.1855 C   0  0  0  0  0  0  0  0  0  0  0  0
  153.1543  135.8854  157.3031 O   0  0  0  0  0  0  0  0  0  0  0  0
  149.4765  135.3144  157.3419 C   0  0  2  0  0  0  0  0  0  0  0  0
  149.3234  134.2131  156.4544 O   0  0  0  0  0  0  0  0  0  0  0  0
  150.2236  133.2138  156.4480 C   0  0  0  0  0  0  0  0  0  0  0  0
  150.3226  132.5307  155.0905 C   0  0  0  0  0  0  0  0  0  0  0  0
  150.9091  132.8489  157.4034 O   0  0  0  0  0  0  0  0  0  0  0  0
  152.3449  140.8467  155.4914 H   0  0  0  0  0  0  0  0  0  0  0  0
  146.6344  134.2587  161.5010 H   0  0  0  0  0  0  0  0  0  0  0  0
  146.4856  135.4063  162.8393 H   0  0  0  0  0  0  0  0  0  0  0  0
  148.0763  134.7747  162.3895 H   0  0  0  0  0  0  0  0  0  0  0  0
  147.3151  137.5800  158.8400 H   0  0  0  0  0  0  0  0  0  0  0  0
  149.0407  137.3407  159.0526 H   0  0  0  0  0  0  0  0  0  0  0  0
  147.3036  135.4593  157.3870 H   0  0  0  0  0  0  0  0  0  0  0  0
  149.5117  137.1327  154.9055 H   0  0  0  0  0  0  0  0  0  0  0  0
  148.1013  139.3444  157.2094 H   0  0  0  0  0  0  0  0  0  0  0  0
  151.1214  135.8543  156.0151 H   0  0  0  0  0  0  0  0  0  0  0  0
  152.8495  138.4530  159.1182 H   0  0  0  0  0  0  0  0  0  0  0  0
  154.1282  137.2365  159.2433 H   0  0  0  0  0  0  0  0  0  0  0  0
  152.5987  137.0034  160.1023 H   0  0  0  0  0  0  0  0  0  0  0  0
  149.8451  134.9528  158.3034 H   0  0  0  0  0  0  0  0  0  0  0  0
  150.4870  133.2684  154.3048 H   0  0  0  0  0  0  0  0  0  0  0  0
  149.4015  131.9901  154.8723 H   0  0  0  0  0  0  0  0  0  0  0  0
  151.1508  131.8219  155.0774 H   0  0  0  0  0  0  0  0  0  0  0  0
  1  2  1  0  0  0  0
  1 29  1  0  0  0  0
  1 30  1  0  0  0  0
  1 31  1  0  0  0  0
  2  3  2  0  0  0  0
  2  4  1  0  0  0  0
  4  5  1  0  0  0  0
  5  6  1  0  0  0  0
  5 32  1  0  0  0  0
  5 33  1  0  0  0  0
  6 23  1  0  0  0  0
  6  7  1  0  0  0  0
  6 34  1  0  0  0  0
  7  8  1  0  0  0  0
  8  9  1  0  0  0  0
  8 18  1  0  0  0  0
  8 35  1  0  0  0  0
  9 16  1  0  0  0  0
  9 10  1  0  0  0  0
 10 11  2  0  0  0  0
 10 36  1  0  0  0  0
 11 12  1  0  0  0  0
 11 13  1  0  0  0  0
 13 14  2  0  0  0  0
 13 15  1  0  0  0  0
 15 28  1  0  0  0  0
 15 16  1  0  0  0  0
 16 17  2  0  0  0  0
 18 19  1  0  0  0  0
 18 23  1  0  0  0  0
 18 37  1  0  0  0  0
 19 20  1  0  0  0  0
 20 21  1  0  0  0  0
 20 22  2  0  0  0  0
 21 38  1  0  0  0  0
 21 39  1  0  0  0  0
 21 40  1  0  0  0  0
 23 24  1  0  0  0  0
 23 41  1  0  0  0  0
 24 25  1  0  0  0  0
 25 26  1  0  0  0  0
 25 27  2  0  0  0  0
 26 42  1  0  0  0  0
 26 43  1  0  0  0  0
 26 44  1  0  0  0  0
M  END
> <s_m_source_file>
AV-unprocessed.smi

> <i_m_source_file_index>
102

> <i_lp_mmshare_version>
43012

> <i_f3d_flags>
0

> <s_epik_input>
W0NIM11DKD1PKU9bQ0gyXVtDQEBIXTFPW0NASF0oW0NAQEhdKE9DKD1PKVtDSDNdKVtDQEhdMU9DKD1PKVtDSDNdKW4yW2NIXWMoRiljKD1PKVtuSF1jMj1P

> <s_epik_cmdline>
J2VwaWtfcHl0aG9uJywgJy1waCcsICc3LjAnLCAnLXRuJywgJzgnLCAnLW1hJywgJzIwMCcsICctbWV0YWxfYmluZGluZycsICctaW1hZScsICc8aW5maWxlLm1hZT4nLCAnLW9tYWUnLCAnPG91dGZpbGUubWFlPic=

> <r_lp_tautomer_probability>
0.999537

> <r_epik_Ionization_Penalty>
0.058267

> <r_epik_Ionization_Penalty_Charging>
0.058267

> <r_epik_Ionization_Penalty_Neutral>
6.57791e-16

> <r_epik_State_Penalty>
0.0503774

> <r_epik_Charging_Adjusted_Penalty>
0.108644

> <i_epik_Tot_Q>
0

> <i_epik_Tot_abs_Q>
0

> <r_epik_Metal_State_Penalty>
2.6644

> <b_epik_Metal_Only>
0

> <s_epik_Chemistry_Notes>
This compound has an ester and may undergo hydrolysis at high or low pH. This compound contains an acetal/aminal-like group ( X-CH(R)-Y where X, Y are N, S, or O) that may be acid/base labile, releasing an aldehyde.

> <s_lp_Force_Field>
OPLS_2005

> <r_lp_Energy>
14.5716

> <b_lp_Chiralities_Consistent>
1

> <s_lp_Variant>
AV-unprocessed.smi:102-10

> <Gold.Version>
5.8.1

> <Gold.Id.Protein>
6NUR|6NUR_protein|mol2

> <Gold.PLP.Fitness>
37.0796

> <Gold.PLP.PLP>
-28.6337

> <Gold.PLP.part.hbond>
-4.0000

> <Gold.PLP.part.metal>
0.0000

> <Gold.PLP.part.buried>
-6.4814

> <Gold.PLP.part.nonpolar>
-18.3269

> <Gold.PLP.part.repulsive>
0.6571

> <Gold.PLP.ligand.clash>
0.0000

> <Gold.PLP.ligand.torsion>
1.4277

> <Gold.PLP.Chemscore.Hbond>
3.7353

> <Gold.PLP.Chemscore.CHOScore>
0.0000

> <Gold.PLP.Chemscore.Metal>
0.0000

> <Gold.Chemscore.Hbonds>
donor molecule, donor type, donor heavy atom, donor atom, acceptor molecule, acceptor atom, score
      P1  H  6896  6909       L1    27  1.00
      P1  H  6931  6943       L1     3  0.16
      P1  H  6934  6947       L1     3  1.00
      P1  H 10752 10764       L1    22  0.88

> <Gold.PLP.Chemscore.Internal.Correction>
0.0956

> <Gold.Rescore>
     Score         DG    S(hbond)    S(metal)    S(lipo)     H(rot)  DE(clash)    DE(int)     intcor
      9.78     -11.39       3.65        0.00      35.03       4.05       0.03       1.58       ----

> <Gold.Chemscore.Fitness>
9.7820

> <Gold.Chemscore.DG>
-11.3946

> <Gold.Chemscore.ZeroCoef>
-5.4800

> <Gold.Chemscore.Hbond>
3.6493

> <Gold.Chemscore.Metal>
0.0000

> <Gold.Chemscore.Lipo>
35.0348

> <Gold.Chemscore.Internal_Hbond>
0.0000

> <Gold.Chemscore.DEClash>
0.0291

> <Gold.Chemscore.DEInternal>
1.5835

> <Gold.Chemscore.Rot>
4.0520

> <Gold.Chemscore.Internal.Correction>
   9.000000E+99

> <Gold.Chemscore.Hbonds>
donor molecule, donor type, donor heavy atom, donor atom, acceptor molecule, acceptor atom, score
      P1  H  6896  6909       L1    27  0.97
      P1  H  6931  6943       L1     3  0.03
      P1  H  6934  6947       L1     3  0.99
      P1  H 10752 10764       L1    22  0.86

> <Gold.Chemscore.Hbond.Weighted>
-12.1887

> <Gold.Chemscore.Metal.Weighted>
-0.0000

> <Gold.Chemscore.Lipo.Weighted>
-4.0991

> <Gold.Chemscore.Internal_Hbond.Weighted>
0.0000

> <Gold.Chemscore.DEClash.Weighted>
0.0291

> <Gold.Chemscore.DEInternal.Weighted>
1.5835

> <Gold.Chemscore.Rot.Weighted>
10.3732

> <Gold.Chemscore.Internal.Correction.Weighted>
   9.000000E+99

> <Gold.Protein.RotatedTorsions>
[ 6907 6896 6895 6894 ] final  -36.44 input  -60.11 | X-H torsion
[ 7974 7965 7964 7962 ] final   34.94 input  175.53 | X-H torsion
[ 8008 7997 7996 7995 ] final   75.33 input   59.86 | X-H torsion
[ 10167 10162 10161 10158 ] final   41.76 input  -65.29 | X-H torsion
[ 10718 10713 10712 10709 ] final  141.19 input   66.30 | X-H torsion
[ 10763 10752 10751 10750 ] final   -6.51 input  -60.55 | X-H torsion
[ 11005 11000 10999 10996 ] final  -89.80 input  -57.11 | X-H torsion

> <Gold.Protein.ActiveResidues>
 VAL166  LYS551  ARG553  GLY616  TRP617  ASP618  TYR619  PRO620  LYS621  CYS622 
 ASP623  PHE694  ASN695  SER759  ASP760  ASP761  ALA762  ILE779  LEU786  VAL792 
 PHE793  MET794  SER795  GLU796  ALA797  LYS798  CYS799  TRP800  GLU811  SER814 

> <Gold.Protein.RotatedAtoms>
  151.0272  134.9512  159.8091 H   0  0  0  0  0  0  0  0  0  0  0  0  # atno 6907 bound_to 6896
  152.5338  134.2827  159.9023 H   0  0  0  0  0  0  0  0  0  0  0  0  # atno 6908 bound_to 6896
  151.2836  133.4156  159.2662 H   0  0  0  0  0  0  0  0  0  0  0  0  # atno 6909 bound_to 6896
  146.1318  139.6205  142.9222 H   0  0  0  0  0  0  0  0  0  0  0  0  # atno 7974 bound_to 7965
  155.8114  140.3473  155.5460 H   0  0  0  0  0  0  0  0  0  0  0  0  # atno 8008 bound_to 7997
  155.8437  140.0945  157.1739 H   0  0  0  0  0  0  0  0  0  0  0  0  # atno 8009 bound_to 7997
  154.4006  140.1389  156.3747 H   0  0  0  0  0  0  0  0  0  0  0  0  # atno 8010 bound_to 7997
  140.3611  144.2227  150.6138 H   0  0  0  0  0  0  0  0  0  0  0  0  # atno 10167 bound_to 10162
  157.3948  131.1009  151.0610 H   0  0  0  0  0  0  0  0  0  0  0  0  # atno 10718 bound_to 10713
  153.4133  135.7008  153.6344 H   0  0  0  0  0  0  0  0  0  0  0  0  # atno 10763 bound_to 10752
  153.4829  135.3689  155.2452 H   0  0  0  0  0  0  0  0  0  0  0  0  # atno 10764 bound_to 10752
  154.8718  135.4070  154.3489 H   0  0  0  0  0  0  0  0  0  0  0  0  # atno 10765 bound_to 10752
  141.1578  133.7652  156.9646 H   0  0  0  0  0  0  0  0  0  0  0  0  # atno 11005 bound_to 11000
  145.5244  141.0430  143.2417 LP  0  0  0  0  0  0  0  0  0  0  0  0  # atno 17320 bound_to 7965
  144.7698  139.6761  143.7199 LP  0  0  0  0  0  0  0  0  0  0  0  0  # atno 17321 bound_to 7965
  140.5126  143.2286  151.8512 LP  0  0  0  0  0  0  0  0  0  0  0  0  # atno 17342 bound_to 10162
  139.4814  144.4932  151.9158 LP  0  0  0  0  0  0  0  0  0  0  0  0  # atno 17343 bound_to 10162
  157.1630  130.6234  149.5617 LP  0  0  0  0  0  0  0  0  0  0  0  0  # atno 17370 bound_to 10713
  155.9807  130.4810  150.6790 LP  0  0  0  0  0  0  0  0  0  0  0  0  # atno 17371 bound_to 10713
  140.1170  134.9441  157.2148 LP  0  0  0  0  0  0  0  0  0  0  0  0  # atno 17394 bound_to 11000
  140.3121  134.3012  155.7264 LP  0  0  0  0  0  0  0  0  0  0  0  0  # atno 17395 bound_to 11000

$$$$
