AV-unprocessed.smi:2721|AV-procd|sdf|10502|dock4
  -GOLD-   2272014543D 1   1.00000     0.00000
 Structure written by MMmdl.
 29 30  0  0  0  0  0  0  0  0  2 V2000
  152.1937  144.9977  159.0952 C   0  0  0  0  0  0  0  0  0  0  0  0
  151.7750  143.7835  158.4283 N   0  0  0  0  0  0  0  0  0  0  0  0
  151.2292  143.6355  157.1723 C   0  0  0  0  0  0  0  0  0  0  0  0
  150.9960  142.3009  156.9728 C   0  0  0  0  0  0  0  0  0  0  0  0
  150.4307  141.5542  155.7791 C   0  0  1  0  0  0  0  0  0  0  0  0
  151.2844  140.5064  155.3124 O   0  0  0  0  0  0  0  0  0  0  0  0
  151.3332  139.3287  156.1161 C   0  0  0  0  0  0  0  0  0  0  0  0
  149.9314  138.7190  156.2679 C   0  0  0  0  0  0  0  0  0  0  0  0
  148.9472  139.7491  156.8304 C   0  0  0  0  0  0  0  0  0  0  0  0
  148.9882  141.0206  155.9706 C   0  0  1  0  0  0  0  0  0  0  0  0
  148.0792  142.0586  156.4920 N   0  3  0  0  0  0  0  0  0  0  0  0
  151.4450  141.7148  158.1920 C   0  0  0  0  0  0  0  0  0  0  0  0
  151.9115  142.5997  159.0563 N   0  0  0  0  0  0  0  0  0  0  0  0
  150.3868  142.2554  154.9446 H   0  0  0  0  0  0  0  0  0  0  0  0
  148.6091  140.7492  154.9843 H   0  0  0  0  0  0  0  0  0  0  0  0
  151.9583  145.8646  158.4772 H   0  0  0  0  0  0  0  0  0  0  0  0
  153.2693  144.9689  159.2714 H   0  0  0  0  0  0  0  0  0  0  0  0
  151.6762  145.0929  160.0505 H   0  0  0  0  0  0  0  0  0  0  0  0
  151.0578  144.4911  156.5367 H   0  0  0  0  0  0  0  0  0  0  0  0
  151.9956  138.6111  155.6320 H   0  0  0  0  0  0  0  0  0  0  0  0
  151.7750  139.5401  157.0884 H   0  0  0  0  0  0  0  0  0  0  0  0
  149.5804  138.3734  155.2945 H   0  0  0  0  0  0  0  0  0  0  0  0
  149.9697  137.8417  156.9145 H   0  0  0  0  0  0  0  0  0  0  0  0
  147.9403  139.3300  156.8395 H   0  0  0  0  0  0  0  0  0  0  0  0
  149.1934  139.9731  157.8676 H   0  0  0  0  0  0  0  0  0  0  0  0
  148.0072  141.9701  157.4957 H   0  0  0  0  0  0  0  0  0  0  0  0
  147.1652  141.9476  156.0769 H   0  0  0  0  0  0  0  0  0  0  0  0
  151.4502  140.6712  158.4704 H   0  0  0  0  0  0  0  0  0  0  0  0
  148.4440  142.9720  156.2624 H   0  0  0  0  0  0  0  0  0  0  0  0
  1  2  1  0  0  0  0
  1 16  1  0  0  0  0
  1 17  1  0  0  0  0
  1 18  1  0  0  0  0
  2 13  1  0  0  0  0
  2  3  1  0  0  0  0
  3  4  2  0  0  0  0
  3 19  1  0  0  0  0
  4  5  1  0  0  0  0
  4 12  1  0  0  0  0
  5 14  1  0  0  0  0
  5 10  1  0  0  0  0
  5  6  1  0  0  0  0
  6  7  1  0  0  0  0
  7  8  1  0  0  0  0
  7 20  1  0  0  0  0
  7 21  1  0  0  0  0
  8  9  1  0  0  0  0
  8 22  1  0  0  0  0
  8 23  1  0  0  0  0
  9 10  1  0  0  0  0
  9 24  1  0  0  0  0
  9 25  1  0  0  0  0
 10 15  1  0  0  0  0
 10 11  1  0  0  0  0
 11 26  1  0  0  0  0
 11 27  1  0  0  0  0
 11 29  1  0  0  0  0
 12 13  2  0  0  0  0
 12 28  1  0  0  0  0
M  CHG  1  11   1
M  END
> <s_m_source_file>
AV-unprocessed.smi

> <i_m_source_file_index>
2721

> <i_lp_mmshare_version>
43012

> <i_f3d_flags>
0

> <s_epik_input>
W0NIM11uMVtjSF1jKFtjSF1uMSlbQ0BIXTJPW0NIMl1bQ0gyXVtDSDJdW0NAQEhdMltOSDJd

> <s_epik_cmdline>
J2VwaWtfcHl0aG9uJywgJy1waCcsICc3LjAnLCAnLXRuJywgJzgnLCAnLW1hJywgJzIwMCcsICctbWV0YWxfYmluZGluZycsICctaW1hZScsICc8aW5maWxlLm1hZT4nLCAnLW9tYWUnLCAnPG91dGZpbGUubWFlPic=

> <r_lp_tautomer_probability>
1

> <r_epik_Ionization_Penalty>
0.0061467

> <r_epik_Ionization_Penalty_Charging>
0.00611941

> <r_epik_Ionization_Penalty_Neutral>
2.72888e-05

> <r_epik_State_Penalty>
0.00451057

> <r_epik_Charging_Adjusted_Penalty>
0.01063

> <i_epik_Tot_Q>
1

> <i_epik_Tot_abs_Q>
1

> <r_epik_Metal_State_Penalty>
-0

> <b_epik_Metal_Only>
0

> <s_lp_Force_Field>
OPLS_2005

> <r_lp_Energy>
14.6487

> <b_lp_Chiralities_Consistent>
1

> <s_lp_Variant>
AV-unprocessed.smi:2721-3

> <Gold.Version>
5.8.1

> <Gold.Id.Protein>
6NUR|6NUR_protein|mol2

> <Gold.PLP.Fitness>
34.9445

> <Gold.PLP.PLP>
-24.3244

> <Gold.PLP.part.hbond>
-2.0000

> <Gold.PLP.part.metal>
0.0000

> <Gold.PLP.part.buried>
-2.0947

> <Gold.PLP.part.nonpolar>
-20.7012

> <Gold.PLP.part.repulsive>
0.0290

> <Gold.PLP.ligand.clash>
0.0000

> <Gold.PLP.ligand.torsion>
0.1966

> <Gold.PLP.Chemscore.Hbond>
2.9120

> <Gold.PLP.Chemscore.CHOScore>
0.7388

> <Gold.PLP.Chemscore.Metal>
0.0000

> <Gold.Chemscore.Hbonds>
donor molecule, donor type, donor heavy atom, donor atom, acceptor molecule, acceptor atom, score
      L1  H    11    29       P1  8028  2.00
      P1  H  7989  7998       L1     6  0.90
      L1  C     3    19       P1  8028  0.75

> <Gold.PLP.Chemscore.Internal.Correction>
0.0610

> <Gold.Rescore>
     Score         DG    S(hbond)    S(metal)    S(lipo)     H(rot)  DE(clash)    DE(int)     intcor
     15.85     -15.99       1.71        0.00      62.81       1.00       0.10       0.05       ----

> <Gold.Chemscore.Fitness>
15.8454

> <Gold.Chemscore.DG>
-15.9893

> <Gold.Chemscore.ZeroCoef>
-5.4800

> <Gold.Chemscore.Hbond>
1.7127

> <Gold.Chemscore.Metal>
0.0000

> <Gold.Chemscore.Lipo>
62.8117

> <Gold.Chemscore.Internal_Hbond>
0.0000

> <Gold.Chemscore.DEClash>
0.0956

> <Gold.Chemscore.DEInternal>
0.0483

> <Gold.Chemscore.Rot>
1.0000

> <Gold.Chemscore.Internal.Correction>
   9.000000E+99

> <Gold.Chemscore.Hbonds>
donor molecule, donor type, donor heavy atom, donor atom, acceptor molecule, acceptor atom, score
      L1  H    11    29       P1  8028  0.88
      P1  H  7989  7998       L1     6  0.49

> <Gold.Chemscore.Hbond.Weighted>
-5.7203

> <Gold.Chemscore.Metal.Weighted>
-0.0000

> <Gold.Chemscore.Lipo.Weighted>
-7.3490

> <Gold.Chemscore.Internal_Hbond.Weighted>
0.0000

> <Gold.Chemscore.DEClash.Weighted>
0.0956

> <Gold.Chemscore.DEInternal.Weighted>
0.0483

> <Gold.Chemscore.Rot.Weighted>
2.5600

> <Gold.Chemscore.Internal.Correction.Weighted>
   9.000000E+99

> <Gold.Protein.RotatedTorsions>
[ 6907 6896 6895 6894 ] final  -71.95 input  -60.11 | X-H torsion
[ 7974 7965 7964 7962 ] final  124.17 input  175.53 | X-H torsion
[ 8008 7997 7996 7995 ] final -169.88 input   59.86 | X-H torsion
[ 10167 10162 10161 10158 ] final   73.71 input  -65.29 | X-H torsion
[ 10718 10713 10712 10709 ] final  -61.23 input   66.30 | X-H torsion
[ 10763 10752 10751 10750 ] final   89.21 input  -60.55 | X-H torsion
[ 11005 11000 10999 10996 ] final   26.09 input  -57.11 | X-H torsion

> <Gold.Protein.ActiveResidues>
 VAL166  LYS551  ARG553  GLY616  TRP617  ASP618  TYR619  PRO620  LYS621  CYS622 
 ASP623  PHE694  ASN695  SER759  ASP760  ASP761  ALA762  ILE779  LEU786  VAL792 
 PHE793  MET794  SER795  GLU796  ALA797  LYS798  CYS799  TRP800  GLU811  SER814 

> <Gold.Protein.RotatedAtoms>
  150.7190  134.5234  159.5664 H   0  0  0  0  0  0  0  0  0  0  0  0  # atno 6907 bound_to 6896
  152.2784  134.7853  160.0410 H   0  0  0  0  0  0  0  0  0  0  0  0  # atno 6908 bound_to 6896
  151.8508  133.3404  159.3709 H   0  0  0  0  0  0  0  0  0  0  0  0  # atno 6909 bound_to 6896
  145.0875  139.3611  143.4877 H   0  0  0  0  0  0  0  0  0  0  0  0  # atno 7974 bound_to 7965
  155.9108  140.1057  157.1280 H   0  0  0  0  0  0  0  0  0  0  0  0  # atno 8008 bound_to 7997
  154.4039  140.1274  156.4620 H   0  0  0  0  0  0  0  0  0  0  0  0  # atno 8009 bound_to 7997
  155.7312  140.3468  155.5062 H   0  0  0  0  0  0  0  0  0  0  0  0  # atno 8010 bound_to 7997
  140.0215  144.5536  150.7578 H   0  0  0  0  0  0  0  0  0  0  0  0  # atno 10167 bound_to 10162
  156.0936  130.4196  150.0964 H   0  0  0  0  0  0  0  0  0  0  0  0  # atno 10718 bound_to 10713
  153.1847  135.4478  155.0074 H   0  0  0  0  0  0  0  0  0  0  0  0  # atno 10763 bound_to 10752
  154.8053  135.3272  154.7450 H   0  0  0  0  0  0  0  0  0  0  0  0  # atno 10764 bound_to 10752
  153.7910  135.6970  153.4926 H   0  0  0  0  0  0  0  0  0  0  0  0  # atno 10765 bound_to 10752
  140.3408  134.2335  155.7690 H   0  0  0  0  0  0  0  0  0  0  0  0  # atno 11005 bound_to 11000
  146.3531  140.0694  142.8624 LP  0  0  0  0  0  0  0  0  0  0  0  0  # atno 17320 bound_to 7965
  145.1105  140.9402  143.4659 LP  0  0  0  0  0  0  0  0  0  0  0  0  # atno 17321 bound_to 7965
  140.7340  143.2724  151.3847 LP  0  0  0  0  0  0  0  0  0  0  0  0  # atno 17342 bound_to 10162
  139.6136  144.1048  152.2323 LP  0  0  0  0  0  0  0  0  0  0  0  0  # atno 17343 bound_to 10162
  156.8969  130.9607  151.3581 LP  0  0  0  0  0  0  0  0  0  0  0  0  # atno 17370 bound_to 10713
  157.6092  130.8570  149.8923 LP  0  0  0  0  0  0  0  0  0  0  0  0  # atno 17371 bound_to 10713
  141.2039  133.7901  157.0316 LP  0  0  0  0  0  0  0  0  0  0  0  0  # atno 17394 bound_to 11000
  140.0782  134.9663  157.1581 LP  0  0  0  0  0  0  0  0  0  0  0  0  # atno 17395 bound_to 11000

$$$$
