AV-unprocessed.smi:2083|AV-procd|sdf|8491|dock1
  -GOLD-   2272011193D 1   1.00000     0.00000
 Structure written by MMmdl.
 45 46  0  0  0  0  0  0  0  0  2 V2000
  149.1362  141.8198  158.5271 C   0  0  0  0  0  0  0  0  0  0  0  0
  149.3426  141.1241  157.2255 C   0  0  0  0  0  0  0  0  0  0  0  0
  148.4880  140.7342  156.2331 C   0  0  0  0  0  0  0  0  0  0  0  0
  149.3544  140.1299  155.2841 C   0  0  0  0  0  0  0  0  0  0  0  0
  148.8450  139.5833  154.0785 N   0  0  0  0  0  0  0  0  0  0  0  0
  147.6532  138.9930  153.8879 C   0  0  0  0  0  0  0  0  0  0  0  0
  146.8019  138.8153  154.7596 O   0  0  0  0  0  0  0  0  0  0  0  0
  147.4983  138.6051  152.6131 N   0  0  0  0  0  0  0  0  0  0  0  0
  146.3095  137.9568  152.0654 C   0  0  0  0  0  0  0  0  0  0  0  0
  145.8269  136.7686  152.9370 C   0  0  1  0  0  0  0  0  0  0  0  0
  144.2928  136.6717  153.0464 C   0  0  0  0  0  0  0  0  0  0  0  0
  146.3999  135.4588  152.5083 N   0  3  1  0  0  0  0  0  0  0  0  0
  146.7084  134.5050  153.6085 C   0  0  0  0  0  0  0  0  0  0  0  0
  147.5188  133.3129  153.0774 C   0  0  0  0  0  0  0  0  0  0  0  0
  146.7686  132.6068  151.9398 C   0  0  0  0  0  0  0  0  0  0  0  0
  146.4143  133.6082  150.8266 C   0  0  1  0  0  0  0  0  0  0  0  0
  145.6332  132.9316  149.6912 C   0  0  0  0  0  0  0  0  0  0  0  0
  145.6371  134.8055  151.4110 C   0  0  0  0  0  0  0  0  0  0  0  0
  150.6232  140.1479  155.6629 N   0  0  0  0  0  0  0  0  0  0  0  0
  150.6220  140.7849  156.9095 O   0  0  0  0  0  0  0  0  0  0  0  0
  148.0901  142.0971  158.6595 H   0  0  0  0  0  0  0  0  0  0  0  0
  149.7359  142.7286  158.5787 H   0  0  0  0  0  0  0  0  0  0  0  0
  149.4231  141.1765  159.3590 H   0  0  0  0  0  0  0  0  0  0  0  0
  147.4166  140.8628  156.1952 H   0  0  0  0  0  0  0  0  0  0  0  0
  149.4514  139.6567  153.2753 H   0  0  0  0  0  0  0  0  0  0  0  0
  148.2524  138.7902  151.9677 H   0  0  0  0  0  0  0  0  0  0  0  0
  145.5151  138.6920  151.9320 H   0  0  0  0  0  0  0  0  0  0  0  0
  146.5699  137.6100  151.0656 H   0  0  0  0  0  0  0  0  0  0  0  0
  146.1803  136.9454  153.9539 H   0  0  0  0  0  0  0  0  0  0  0  0
  143.8769  137.5355  153.5649 H   0  0  0  0  0  0  0  0  0  0  0  0
  143.9937  135.7881  153.6113 H   0  0  0  0  0  0  0  0  0  0  0  0
  143.8159  136.6206  152.0677 H   0  0  0  0  0  0  0  0  0  0  0  0
  147.2764  134.9986  154.3966 H   0  0  0  0  0  0  0  0  0  0  0  0
  145.7848  134.1410  154.0602 H   0  0  0  0  0  0  0  0  0  0  0  0
  148.4901  133.6579  152.7202 H   0  0  0  0  0  0  0  0  0  0  0  0
  147.7182  132.6081  153.8853 H   0  0  0  0  0  0  0  0  0  0  0  0
  147.3788  131.7963  151.5397 H   0  0  0  0  0  0  0  0  0  0  0  0
  145.8596  132.1478  152.3314 H   0  0  0  0  0  0  0  0  0  0  0  0
  147.3465  133.9862  150.4033 H   0  0  0  0  0  0  0  0  0  0  0  0
  144.6839  132.5293  150.0466 H   0  0  0  0  0  0  0  0  0  0  0  0
  146.2024  132.1077  149.2596 H   0  0  0  0  0  0  0  0  0  0  0  0
  145.4159  133.6363  148.8879 H   0  0  0  0  0  0  0  0  0  0  0  0
  144.6653  134.4758  151.7807 H   0  0  0  0  0  0  0  0  0  0  0  0
  145.4455  135.5282  150.6168 H   0  0  0  0  0  0  0  0  0  0  0  0
  147.2925  135.6939  152.0980 H   0  0  0  0  0  0  0  0  0  0  0  0
  1  2  1  0  0  0  0
  1 21  1  0  0  0  0
  1 22  1  0  0  0  0
  1 23  1  0  0  0  0
  2 20  1  0  0  0  0
  2  3  2  0  0  0  0
  3  4  1  0  0  0  0
  3 24  1  0  0  0  0
  4  5  1  0  0  0  0
  4 19  2  0  0  0  0
  5  6  1  0  0  0  0
  5 25  1  0  0  0  0
  6  7  2  0  0  0  0
  6  8  1  0  0  0  0
  8  9  1  0  0  0  0
  8 26  1  0  0  0  0
  9 10  1  0  0  0  0
  9 27  1  0  0  0  0
  9 28  1  0  0  0  0
 10 11  1  0  0  0  0
 10 12  1  0  0  0  0
 10 29  1  0  0  0  0
 11 30  1  0  0  0  0
 11 31  1  0  0  0  0
 11 32  1  0  0  0  0
 12 18  1  0  0  0  0
 12 13  1  0  0  0  0
 12 45  1  0  0  0  0
 13 14  1  0  0  0  0
 13 33  1  0  0  0  0
 13 34  1  0  0  0  0
 14 15  1  0  0  0  0
 14 35  1  0  0  0  0
 14 36  1  0  0  0  0
 15 16  1  0  0  0  0
 15 37  1  0  0  0  0
 15 38  1  0  0  0  0
 16 17  1  0  0  0  0
 16 18  1  0  0  0  0
 16 39  1  0  0  0  0
 17 40  1  0  0  0  0
 17 41  1  0  0  0  0
 17 42  1  0  0  0  0
 18 43  1  0  0  0  0
 18 44  1  0  0  0  0
 19 20  1  0  0  0  0
M  CHG  1  12   1
M  END
> <s_m_source_file>
AV-unprocessed.smi

> <i_m_source_file_index>
2083

> <i_lp_mmshare_version>
43012

> <i_f3d_flags>
0

> <s_epik_input>
W0NIM11jMVtjSF1jKG5vMSlbTkhdQyg9TylbTkhdW0NIMl1bQ0BIXShbQ0gzXSlOMltDSDJdW0NIMl1bQ0gyXVtDQEBIXShbQ0gzXSlbQ0gyXTI=

> <s_epik_cmdline>
J2VwaWtfcHl0aG9uJywgJy1waCcsICc3LjAnLCAnLXRuJywgJzgnLCAnLW1hJywgJzIwMCcsICctbWV0YWxfYmluZGluZycsICctaW1hZScsICc8aW5maWxlLm1hZT4nLCAnLW9tYWUnLCAnPG91dGZpbGUubWFlPic=

> <r_epik_Ionization_Penalty>
0.00216453

> <r_epik_Ionization_Penalty_Charging>
0.00212879

> <r_epik_Ionization_Penalty_Neutral>
3.57418e-05

> <r_epik_State_Penalty>
0.00146033

> <r_epik_Charging_Adjusted_Penalty>
0.00358912

> <i_epik_Tot_Q>
1

> <i_epik_Tot_abs_Q>
1

> <r_epik_Metal_State_Penalty>
0.0215827

> <b_epik_Metal_Only>
0

> <s_lp_Force_Field>
OPLS_2005

> <r_lp_Energy>
17.3533

> <b_lp_Chiralities_Consistent>
1

> <s_lp_Variant>
AV-unprocessed.smi:2083-2

> <Gold.Version>
5.8.1

> <Gold.Id.Protein>
6NUR|6NUR_protein|mol2

> <Gold.PLP.Fitness>
44.5160

> <Gold.PLP.PLP>
-32.6058

> <Gold.PLP.part.hbond>
-4.9547

> <Gold.PLP.part.metal>
0.0000

> <Gold.PLP.part.buried>
-2.2553

> <Gold.PLP.part.nonpolar>
-24.9528

> <Gold.PLP.part.repulsive>
0.4442

> <Gold.PLP.ligand.clash>
0.0000

> <Gold.PLP.ligand.torsion>
1.3776

> <Gold.PLP.Chemscore.Hbond>
4.8320

> <Gold.PLP.Chemscore.CHOScore>
0.0000

> <Gold.PLP.Chemscore.Metal>
0.0000

> <Gold.Chemscore.Hbonds>
donor molecule, donor type, donor heavy atom, donor atom, acceptor molecule, acceptor atom, score
      L1  H     5    25       P1  7957  0.66
      L1  H     8    26       P1  7957  1.00
      L1  H    12    45       P1  7948  2.00

> <Gold.PLP.Chemscore.Internal.Correction>
0.1693

> <Gold.Rescore>
     Score         DG    S(hbond)    S(metal)    S(lipo)     H(rot)  DE(clash)    DE(int)     intcor
     14.32     -19.21       3.16        0.00      61.03       1.55       1.53       3.37       ----

> <Gold.Chemscore.Fitness>
14.3227

> <Gold.Chemscore.DG>
-19.2147

> <Gold.Chemscore.ZeroCoef>
-5.4800

> <Gold.Chemscore.Hbond>
3.1604

> <Gold.Chemscore.Metal>
0.0000

> <Gold.Chemscore.Lipo>
61.0262

> <Gold.Chemscore.Internal_Hbond>
0.0000

> <Gold.Chemscore.DEClash>
1.5254

> <Gold.Chemscore.DEInternal>
3.3666

> <Gold.Chemscore.Rot>
1.5474

> <Gold.Chemscore.Internal.Correction>
   9.000000E+99

> <Gold.Chemscore.Hbonds>
donor molecule, donor type, donor heavy atom, donor atom, acceptor molecule, acceptor atom, score
      L1  H     5    25       P1  7957  0.63
      L1  H     8    26       P1  7957  0.85
      L1  H    12    45       P1  7948  1.00

> <Gold.Chemscore.Hbond.Weighted>
-10.5559

> <Gold.Chemscore.Metal.Weighted>
-0.0000

> <Gold.Chemscore.Lipo.Weighted>
-7.1401

> <Gold.Chemscore.Internal_Hbond.Weighted>
0.0000

> <Gold.Chemscore.DEClash.Weighted>
1.5254

> <Gold.Chemscore.DEInternal.Weighted>
3.3666

> <Gold.Chemscore.Rot.Weighted>
3.9612

> <Gold.Chemscore.Internal.Correction.Weighted>
   9.000000E+99

> <Gold.Protein.RotatedTorsions>
[ 6907 6896 6895 6894 ] final -156.18 input  -60.11 | X-H torsion
[ 7974 7965 7964 7962 ] final   34.16 input  175.53 | X-H torsion
[ 8008 7997 7996 7995 ] final  -44.12 input   59.86 | X-H torsion
[ 10167 10162 10161 10158 ] final  -22.13 input  -65.29 | X-H torsion
[ 10718 10713 10712 10709 ] final  138.14 input   66.30 | X-H torsion
[ 10763 10752 10751 10750 ] final  -58.66 input  -60.55 | X-H torsion
[ 11005 11000 10999 10996 ] final  -62.16 input  -57.11 | X-H torsion

> <Gold.Protein.ActiveResidues>
 VAL166  LYS551  ARG553  GLY616  TRP617  ASP618  TYR619  PRO620  LYS621  CYS622 
 ASP623  PHE694  ASN695  SER759  ASP760  ASP761  ALA762  ILE779  LEU786  VAL792 
 PHE793  MET794  SER795  GLU796  ALA797  LYS798  CYS799  TRP800  GLU811  SER814 

> <Gold.Protein.RotatedAtoms>
  151.2838  133.4197  159.2628 H   0  0  0  0  0  0  0  0  0  0  0  0  # atno 6907 bound_to 6896
  151.0337  134.9558  159.8135 H   0  0  0  0  0  0  0  0  0  0  0  0  # atno 6908 bound_to 6896
  152.5351  134.2798  159.9055 H   0  0  0  0  0  0  0  0  0  0  0  0  # atno 6909 bound_to 6896
  146.1371  139.6304  142.9188 H   0  0  0  0  0  0  0  0  0  0  0  0  # atno 7974 bound_to 7965
  154.3997  140.1430  156.3631 H   0  0  0  0  0  0  0  0  0  0  0  0  # atno 8008 bound_to 7997
  155.8162  140.3471  155.5466 H   0  0  0  0  0  0  0  0  0  0  0  0  # atno 8009 bound_to 7997
  155.8335  140.0916  157.1769 H   0  0  0  0  0  0  0  0  0  0  0  0  # atno 8010 bound_to 7997
  140.7285  143.4563  151.0443 H   0  0  0  0  0  0  0  0  0  0  0  0  # atno 10167 bound_to 10162
  157.4286  131.1046  151.0275 H   0  0  0  0  0  0  0  0  0  0  0  0  # atno 10718 bound_to 10713
  154.2415  135.6342  153.5209 H   0  0  0  0  0  0  0  0  0  0  0  0  # atno 10763 bound_to 10752
  152.9929  135.5543  154.5905 H   0  0  0  0  0  0  0  0  0  0  0  0  # atno 10764 bound_to 10752
  154.5412  135.2895  155.1069 H   0  0  0  0  0  0  0  0  0  0  0  0  # atno 10765 bound_to 10752
  141.1350  133.6637  156.5484 H   0  0  0  0  0  0  0  0  0  0  0  0  # atno 11005 bound_to 11000
  145.5130  141.0435  143.2477 LP  0  0  0  0  0  0  0  0  0  0  0  0  # atno 17320 bound_to 7965
  144.7752  139.6646  143.7178 LP  0  0  0  0  0  0  0  0  0  0  0  0  # atno 17321 bound_to 7965
  139.8244  143.7776  152.3178 LP  0  0  0  0  0  0  0  0  0  0  0  0  # atno 17342 bound_to 10162
  139.7870  144.7424  151.0008 LP  0  0  0  0  0  0  0  0  0  0  0  0  # atno 17343 bound_to 10162
  157.1180  130.6050  149.5498 LP  0  0  0  0  0  0  0  0  0  0  0  0  # atno 17370 bound_to 10713
  155.9905  130.4956  150.7259 LP  0  0  0  0  0  0  0  0  0  0  0  0  # atno 17371 bound_to 10713
  140.4083  134.7295  157.4821 LP  0  0  0  0  0  0  0  0  0  0  0  0  # atno 17394 bound_to 11000
  140.0446  134.6218  155.8938 LP  0  0  0  0  0  0  0  0  0  0  0  0  # atno 17395 bound_to 11000

$$$$
