AV-unprocessed.smi:2846|AV-procd|sdf|10952|dock2
  -GOLD-   2272015403D 1   1.00000     0.00000
 Structure written by MMmdl.
 49 51  0  0  0  0  0  0  0  0  2 V2000
  152.5755  140.4072  157.3493 O   0  0  0  0  0  0  0  0  0  0  0  0
  151.5633  141.0994  157.4603 C   0  0  0  0  0  0  0  0  0  0  0  0
  151.6485  142.5304  157.9968 C   0  0  0  0  0  0  0  0  0  0  0  0
  152.0891  142.6816  159.4437 C   0  0  0  0  0  0  0  0  0  0  0  0
  151.6330  143.6750  160.2316 C   0  0  0  0  0  0  0  0  0  0  0  0
  152.0329  143.8615  161.6844 C   0  0  0  0  0  0  0  0  0  0  0  0
  152.7244  142.6161  162.2642 C   0  0  0  0  0  0  0  0  0  0  0  0
  153.7479  142.0404  161.2773 C   0  0  0  0  0  0  0  0  0  0  0  0
  153.0857  141.6437  159.9452 C   0  0  0  0  0  0  0  0  0  0  0  0
  150.3375  140.6707  157.1233 N   0  0  0  0  0  0  0  0  0  0  0  0
  150.0175  139.3464  156.5923 C   0  0  0  0  0  0  0  0  0  0  0  0
  150.1300  139.2563  155.0439 C   0  0  0  0  0  0  0  0  0  0  0  0
  148.7912  139.6481  154.3985 C   0  0  0  0  0  0  0  0  0  0  0  0
  148.0110  138.6757  153.7263 C   0  0  0  0  0  0  0  0  0  0  0  0
  146.7763  139.0426  153.1539 C   0  0  0  0  0  0  0  0  0  0  0  0
  146.3395  140.3155  153.2564 N   0  3  0  0  0  0  0  0  0  0  0  0
  147.0382  141.2762  153.8971 C   0  0  0  0  0  0  0  0  0  0  0  0
  148.2799  140.9671  154.4882 C   0  0  0  0  0  0  0  0  0  0  0  0
  151.3232  140.0785  154.5048 C   0  0  0  0  0  0  0  0  0  0  0  0
  152.5761  139.2358  154.7570 C   0  0  0  0  0  0  0  0  0  0  0  0
  152.0963  137.7810  154.7889 C   0  0  0  0  0  0  0  0  0  0  0  0
  150.5705  137.8338  154.6369 C   0  0  0  0  0  0  0  0  0  0  0  0
  152.3549  143.0707  157.3649 H   0  0  0  0  0  0  0  0  0  0  0  0
  150.6864  143.0274  157.8657 H   0  0  0  0  0  0  0  0  0  0  0  0
  150.9469  144.4060  159.8294 H   0  0  0  0  0  0  0  0  0  0  0  0
  152.6977  144.7239  161.7424 H   0  0  0  0  0  0  0  0  0  0  0  0
  151.1478  144.1025  162.2737 H   0  0  0  0  0  0  0  0  0  0  0  0
  153.2058  142.8633  163.2107 H   0  0  0  0  0  0  0  0  0  0  0  0
  151.9761  141.8546  162.4875 H   0  0  0  0  0  0  0  0  0  0  0  0
  154.5213  142.7864  161.0898 H   0  0  0  0  0  0  0  0  0  0  0  0
  154.2517  141.1773  161.7133 H   0  0  0  0  0  0  0  0  0  0  0  0
  152.5573  140.6967  160.0582 H   0  0  0  0  0  0  0  0  0  0  0  0
  153.8576  141.4862  159.1910 H   0  0  0  0  0  0  0  0  0  0  0  0
  149.5645  141.3073  157.2531 H   0  0  0  0  0  0  0  0  0  0  0  0
  150.6229  138.5805  157.0791 H   0  0  0  0  0  0  0  0  0  0  0  0
  148.9902  139.1341  156.8906 H   0  0  0  0  0  0  0  0  0  0  0  0
  148.3478  137.6526  153.6488 H   0  0  0  0  0  0  0  0  0  0  0  0
  146.1281  138.3597  152.6244 H   0  0  0  0  0  0  0  0  0  0  0  0
  146.5843  142.2562  153.9213 H   0  0  0  0  0  0  0  0  0  0  0  0
  148.8210  141.7438  155.0078 H   0  0  0  0  0  0  0  0  0  0  0  0
  151.2235  140.1980  153.4245 H   0  0  0  0  0  0  0  0  0  0  0  0
  151.4005  141.0806  154.9255 H   0  0  0  0  0  0  0  0  0  0  0  0
  153.3349  139.4028  153.9920 H   0  0  0  0  0  0  0  0  0  0  0  0
  153.0184  139.5010  155.7182 H   0  0  0  0  0  0  0  0  0  0  0  0
  152.5513  137.1863  153.9960 H   0  0  0  0  0  0  0  0  0  0  0  0
  152.3696  137.3206  155.7390 H   0  0  0  0  0  0  0  0  0  0  0  0
  150.0696  137.0463  155.2011 H   0  0  0  0  0  0  0  0  0  0  0  0
  150.3350  137.6692  153.5839 H   0  0  0  0  0  0  0  0  0  0  0  0
  145.4424  140.5604  152.8365 H   0  0  0  0  0  0  0  0  0  0  0  0
  1  2  2  0  0  0  0
  2  3  1  0  0  0  0
  2 10  1  0  0  0  0
  3  4  1  0  0  0  0
  3 23  1  0  0  0  0
  3 24  1  0  0  0  0
  4  9  1  0  0  0  0
  4  5  2  0  0  0  0
  5  6  1  0  0  0  0
  5 25  1  0  0  0  0
  6  7  1  0  0  0  0
  6 26  1  0  0  0  0
  6 27  1  0  0  0  0
  7  8  1  0  0  0  0
  7 28  1  0  0  0  0
  7 29  1  0  0  0  0
  8  9  1  0  0  0  0
  8 30  1  0  0  0  0
  8 31  1  0  0  0  0
  9 32  1  0  0  0  0
  9 33  1  0  0  0  0
 10 11  1  0  0  0  0
 10 34  1  0  0  0  0
 11 12  1  0  0  0  0
 11 35  1  0  0  0  0
 11 36  1  0  0  0  0
 12 22  1  0  0  0  0
 12 13  1  0  0  0  0
 12 19  1  0  0  0  0
 13 18  1  0  0  0  0
 13 14  2  0  0  0  0
 14 15  1  0  0  0  0
 14 37  1  0  0  0  0
 15 16  2  0  0  0  0
 15 38  1  0  0  0  0
 16 17  1  0  0  0  0
 16 49  1  0  0  0  0
 17 18  2  0  0  0  0
 17 39  1  0  0  0  0
 18 40  1  0  0  0  0
 19 20  1  0  0  0  0
 19 41  1  0  0  0  0
 19 42  1  0  0  0  0
 20 21  1  0  0  0  0
 20 43  1  0  0  0  0
 20 44  1  0  0  0  0
 21 22  1  0  0  0  0
 21 45  1  0  0  0  0
 21 46  1  0  0  0  0
 22 47  1  0  0  0  0
 22 48  1  0  0  0  0
M  CHG  1  16   1
M  END
> <s_m_source_file>
AV-unprocessed.smi

> <i_m_source_file_index>
2846

> <i_lp_mmshare_version>
43012

> <i_f3d_flags>
0

> <s_epik_input>
W0NIMl0xW0NIMl1bQ0gyXVtDSDJdW0NIXT1DMVtDSDJdQyg9TylbTkhdW0NIMl1DMihbQ0gyXVtDSDJdW0NIMl1bQ0gyXTIpYzNbY0hdW2NIXW5bY0hdW2NIXTM=

> <s_epik_cmdline>
J2VwaWtfcHl0aG9uJywgJy1waCcsICc3LjAnLCAnLXRuJywgJzgnLCAnLW1hJywgJzIwMCcsICctbWV0YWxfYmluZGluZycsICctaW1hZScsICc8aW5maWxlLm1hZT4nLCAnLW9tYWUnLCAnPG91dGZpbGUubWFlPic=

> <r_epik_Ionization_Penalty>
1.37043

> <r_epik_Ionization_Penalty_Charging>
1.37043

> <r_epik_Ionization_Penalty_Neutral>
1.66368e-08

> <r_epik_State_Penalty>
1.45009

> <r_epik_Charging_Adjusted_Penalty>
2.82052

> <i_epik_Tot_Q>
1

> <i_epik_Tot_abs_Q>
1

> <r_epik_Metal_State_Penalty>
1.50668

> <b_epik_Metal_Only>
0

> <s_lp_Force_Field>
OPLS_2005

> <r_lp_Energy>
37.4584

> <b_lp_Chiralities_Consistent>
1

> <s_lp_Variant>
AV-unprocessed.smi:2846-2

> <Gold.Version>
5.8.1

> <Gold.Id.Protein>
6NUR|6NUR_protein|mol2

> <Gold.PLP.Fitness>
54.2089

> <Gold.PLP.PLP>
-47.7897

> <Gold.PLP.part.hbond>
-2.0000

> <Gold.PLP.part.metal>
0.0000

> <Gold.PLP.part.buried>
-1.6250

> <Gold.PLP.part.nonpolar>
-45.3070

> <Gold.PLP.part.repulsive>
0.0401

> <Gold.PLP.ligand.clash>
0.0000

> <Gold.PLP.ligand.torsion>
1.2086

> <Gold.PLP.Chemscore.Hbond>
2.8640

> <Gold.PLP.Chemscore.CHOScore>
0.0000

> <Gold.PLP.Chemscore.Metal>
0.0000

> <Gold.Chemscore.Hbonds>
donor molecule, donor type, donor heavy atom, donor atom, acceptor molecule, acceptor atom, score
      L1  H    16    49       P1 10175  2.00
      P1  H  7997  8009       L1     1  0.85

> <Gold.PLP.Chemscore.Internal.Correction>
0.2444

> <Gold.Rescore>
     Score         DG    S(hbond)    S(metal)    S(lipo)     H(rot)  DE(clash)    DE(int)     intcor
     19.44     -24.38       1.72        0.00     144.40       1.46       1.57       3.37       ----

> <Gold.Chemscore.Fitness>
19.4423

> <Gold.Chemscore.DG>
-24.3818

> <Gold.Chemscore.ZeroCoef>
-5.4800

> <Gold.Chemscore.Hbond>
1.7221

> <Gold.Chemscore.Metal>
0.0000

> <Gold.Chemscore.Lipo>
144.3952

> <Gold.Chemscore.Internal_Hbond>
0.0000

> <Gold.Chemscore.DEClash>
1.5667

> <Gold.Chemscore.DEInternal>
3.3728

> <Gold.Chemscore.Rot>
1.4625

> <Gold.Chemscore.Internal.Correction>
   9.000000E+99

> <Gold.Chemscore.Hbonds>
donor molecule, donor type, donor heavy atom, donor atom, acceptor molecule, acceptor atom, score
      L1  H    16    49       P1 10175  0.70
      P1  H  7997  8009       L1     1  0.83

> <Gold.Chemscore.Hbond.Weighted>
-5.7517

> <Gold.Chemscore.Metal.Weighted>
-0.0000

> <Gold.Chemscore.Lipo.Weighted>
-16.8942

> <Gold.Chemscore.Internal_Hbond.Weighted>
0.0000

> <Gold.Chemscore.DEClash.Weighted>
1.5667

> <Gold.Chemscore.DEInternal.Weighted>
3.3728

> <Gold.Chemscore.Rot.Weighted>
3.7441

> <Gold.Chemscore.Internal.Correction.Weighted>
   9.000000E+99

> <Gold.Protein.RotatedTorsions>
[ 6907 6896 6895 6894 ] final -115.01 input  -60.11 | X-H torsion
[ 7974 7965 7964 7962 ] final  -27.98 input  175.53 | X-H torsion
[ 8008 7997 7996 7995 ] final  166.79 input   59.86 | X-H torsion
[ 10167 10162 10161 10158 ] final  -80.84 input  -65.29 | X-H torsion
[ 10718 10713 10712 10709 ] final  -19.13 input   66.30 | X-H torsion
[ 10763 10752 10751 10750 ] final   37.81 input  -60.55 | X-H torsion
[ 11005 11000 10999 10996 ] final -140.47 input  -57.11 | X-H torsion

> <Gold.Protein.ActiveResidues>
 VAL166  LYS551  ARG553  GLY616  TRP617  ASP618  TYR619  PRO620  LYS621  CYS622 
 ASP623  PHE694  ASN695  SER759  ASP760  ASP761  ALA762  ILE779  LEU786  VAL792 
 PHE793  MET794  SER795  GLU796  ALA797  LYS798  CYS799  TRP800  GLU811  SER814 

> <Gold.Protein.RotatedAtoms>
  150.7945  133.8720  159.3261 H   0  0  0  0  0  0  0  0  0  0  0  0  # atno 6907 bound_to 6896
  151.6549  135.0995  160.0177 H   0  0  0  0  0  0  0  0  0  0  0  0  # atno 6908 bound_to 6896
  152.4025  133.6799  159.6363 H   0  0  0  0  0  0  0  0  0  0  0  0  # atno 6909 bound_to 6896
  146.1320  140.5222  142.8689 H   0  0  0  0  0  0  0  0  0  0  0  0  # atno 7974 bound_to 7965
  156.1688  140.1634  156.8483 H   0  0  0  0  0  0  0  0  0  0  0  0  # atno 8008 bound_to 7997
  154.5236  140.0772  156.8251 H   0  0  0  0  0  0  0  0  0  0  0  0  # atno 8009 bound_to 7997
  155.3555  140.3392  155.4242 H   0  0  0  0  0  0  0  0  0  0  0  0  # atno 8010 bound_to 7997
  140.4466  143.2496  151.8549 H   0  0  0  0  0  0  0  0  0  0  0  0  # atno 10167 bound_to 10162
  156.5500  130.4699  149.6457 H   0  0  0  0  0  0  0  0  0  0  0  0  # atno 10718 bound_to 10713
  153.0024  135.6267  154.2204 H   0  0  0  0  0  0  0  0  0  0  0  0  # atno 10763 bound_to 10752
  154.1947  135.2807  155.3012 H   0  0  0  0  0  0  0  0  0  0  0  0  # atno 10764 bound_to 10752
  154.5732  135.5670  153.7173 H   0  0  0  0  0  0  0  0  0  0  0  0  # atno 10765 bound_to 10752
  140.8420  134.2391  157.4805 H   0  0  0  0  0  0  0  0  0  0  0  0  # atno 11005 bound_to 11000
  144.7700  140.5617  143.6676 LP  0  0  0  0  0  0  0  0  0  0  0  0  # atno 17320 bound_to 7965
  145.5239  139.1476  143.3537 LP  0  0  0  0  0  0  0  0  0  0  0  0  # atno 17321 bound_to 7965
  139.4793  144.5168  151.8857 LP  0  0  0  0  0  0  0  0  0  0  0  0  # atno 17342 bound_to 10162
  140.4256  144.2185  150.5887 LP  0  0  0  0  0  0  0  0  0  0  0  0  # atno 17343 bound_to 10162
  156.2894  130.7115  151.1960 LP  0  0  0  0  0  0  0  0  0  0  0  0  # atno 17370 bound_to 10713
  157.7389  131.0535  150.5264 LP  0  0  0  0  0  0  0  0  0  0  0  0  # atno 17371 bound_to 10713
  139.8703  134.9640  156.4480 LP  0  0  0  0  0  0  0  0  0  0  0  0  # atno 17394 bound_to 11000
  140.8885  133.7865  155.9545 LP  0  0  0  0  0  0  0  0  0  0  0  0  # atno 17395 bound_to 11000

$$$$
