AV-unprocessed.smi:633|AV-procd|sdf|3130|dock4
  -GOLD-   22720 0 53D 1   1.00000     0.00000
 Structure written by MMmdl.
 53 56  0  0  0  0  0  0  0  0  1 V2000
  153.1012  142.2823  161.7177 C   0  0  0  0  0  0  0  0  0  0  0  0
  152.2000  142.6525  160.5351 C   0  0  2  0  0  0  0  0  0  0  0  0
  152.0802  141.4996  159.5224 C   0  0  0  0  0  0  0  0  0  0  0  0
  151.3215  141.9285  158.3511 N   0  0  0  0  0  0  0  0  0  0  0  0
  150.8607  140.9369  157.4590 C   0  0  0  0  0  0  0  0  0  0  0  0
  151.1559  141.0331  156.0790 C   0  0  0  0  0  0  0  0  0  0  0  0
  150.6918  140.0331  155.2031 C   0  0  0  0  0  0  0  0  0  0  0  0
  149.9342  138.9605  155.7281 C   0  0  0  0  0  0  0  0  0  0  0  0
  149.4314  137.8788  154.9553 N   0  0  0  0  0  0  0  0  0  0  0  0
  148.8319  136.7534  155.3796 C   0  0  0  0  0  0  0  0  0  0  0  0
  148.6529  136.4454  156.5575 O   0  0  0  0  0  0  0  0  0  0  0  0
  148.4642  135.9842  154.3431 N   0  0  0  0  0  0  0  0  0  0  0  0
  147.7964  134.6855  154.4108 C   0  0  0  0  0  0  0  0  0  0  0  0
  148.6863  133.5148  154.0191 C   0  0  0  0  0  0  0  0  0  0  0  0
  148.3846  132.1108  154.4864 C   0  0  0  0  0  0  0  0  0  0  0  0
  149.5888  132.8476  155.0288 C   0  0  0  0  0  0  0  0  0  0  0  0
  146.4724  134.6365  153.6623 C   0  0  0  0  0  0  0  0  0  0  0  0
  145.8895  133.3254  153.1924 C   0  0  0  0  0  0  0  0  0  0  0  0
  146.4189  134.3225  152.1861 C   0  0  0  0  0  0  0  0  0  0  0  0
  149.6984  138.9470  157.1171 C   0  0  0  0  0  0  0  0  0  0  0  0
  150.1386  139.9047  157.9595 N   0  0  0  0  0  0  0  0  0  0  0  0
  151.8613  143.1323  157.7259 C   0  0  0  0  0  0  0  0  0  0  0  0
  152.0289  144.2652  158.7578 C   0  0  1  0  0  0  0  0  0  0  0  0
  150.6998  144.9315  159.1557 C   0  0  0  0  0  0  0  0  0  0  0  0
  152.7607  143.7971  159.8931 O   0  0  0  0  0  0  0  0  0  0  0  0
  152.7089  141.4184  162.2547 H   0  0  0  0  0  0  0  0  0  0  0  0
  153.1738  143.1084  162.4254 H   0  0  0  0  0  0  0  0  0  0  0  0
  154.1105  142.0396  161.3841 H   0  0  0  0  0  0  0  0  0  0  0  0
  151.2131  142.8981  160.9279 H   0  0  0  0  0  0  0  0  0  0  0  0
  153.0709  141.1690  159.2070 H   0  0  0  0  0  0  0  0  0  0  0  0
  151.5889  140.6500  159.9988 H   0  0  0  0  0  0  0  0  0  0  0  0
  151.7224  141.8631  155.6834 H   0  0  0  0  0  0  0  0  0  0  0  0
  150.9373  140.1045  154.1551 H   0  0  0  0  0  0  0  0  0  0  0  0
  149.5864  137.9509  153.9604 H   0  0  0  0  0  0  0  0  0  0  0  0
  148.6638  136.3300  153.4160 H   0  0  0  0  0  0  0  0  0  0  0  0
  147.5616  134.5588  155.4685 H   0  0  0  0  0  0  0  0  0  0  0  0
  149.0858  133.5887  153.0092 H   0  0  0  0  0  0  0  0  0  0  0  0
  147.5430  131.9662  155.1606 H   0  0  0  0  0  0  0  0  0  0  0  0
  148.5642  131.2993  153.7842 H   0  0  0  0  0  0  0  0  0  0  0  0
  150.5713  132.5275  154.6881 H   0  0  0  0  0  0  0  0  0  0  0  0
  149.5427  133.1954  156.0590 H   0  0  0  0  0  0  0  0  0  0  0  0
  145.7501  135.3759  154.0036 H   0  0  0  0  0  0  0  0  0  0  0  0
  146.4729  132.4222  153.3600 H   0  0  0  0  0  0  0  0  0  0  0  0
  144.8106  133.2030  153.2610 H   0  0  0  0  0  0  0  0  0  0  0  0
  145.6926  134.8641  151.5837 H   0  0  0  0  0  0  0  0  0  0  0  0
  147.3510  134.0760  151.6819 H   0  0  0  0  0  0  0  0  0  0  0  0
  149.1345  138.1444  157.5697 H   0  0  0  0  0  0  0  0  0  0  0  0
  152.8327  142.8842  157.2962 H   0  0  0  0  0  0  0  0  0  0  0  0
  151.2380  143.4808  156.9032 H   0  0  0  0  0  0  0  0  0  0  0  0
  152.6440  145.0406  158.3001 H   0  0  0  0  0  0  0  0  0  0  0  0
  150.2293  145.3992  158.2906 H   0  0  0  0  0  0  0  0  0  0  0  0
  150.8621  145.7088  159.9025 H   0  0  0  0  0  0  0  0  0  0  0  0
  149.9848  144.2177  159.5639 H   0  0  0  0  0  0  0  0  0  0  0  0
  1  2  1  0  0  0  0
  1 26  1  0  0  0  0
  1 27  1  0  0  0  0
  1 28  1  0  0  0  0
  2 25  1  0  0  0  0
  2  3  1  0  0  0  0
  2 29  1  0  0  0  0
  3  4  1  0  0  0  0
  3 30  1  0  0  0  0
  3 31  1  0  0  0  0
  4  5  1  0  0  0  0
  4 22  1  0  0  0  0
  5 21  1  0  0  0  0
  5  6  2  0  0  0  0
  6  7  1  0  0  0  0
  6 32  1  0  0  0  0
  7  8  2  0  0  0  0
  7 33  1  0  0  0  0
  8  9  1  0  0  0  0
  8 20  1  0  0  0  0
  9 10  1  0  0  0  0
  9 34  1  0  0  0  0
 10 11  2  0  0  0  0
 10 12  1  0  0  0  0
 12 13  1  0  0  0  0
 12 35  1  0  0  0  0
 13 14  1  0  0  0  0
 13 17  1  0  0  0  0
 13 36  1  0  0  0  0
 14 16  1  0  0  0  0
 14 15  1  0  0  0  0
 14 37  1  0  0  0  0
 15 16  1  0  0  0  0
 15 38  1  0  0  0  0
 15 39  1  0  0  0  0
 16 40  1  0  0  0  0
 16 41  1  0  0  0  0
 17 19  1  0  0  0  0
 17 18  1  0  0  0  0
 17 42  1  0  0  0  0
 18 19  1  0  0  0  0
 18 43  1  0  0  0  0
 18 44  1  0  0  0  0
 19 45  1  0  0  0  0
 19 46  1  0  0  0  0
 20 21  2  0  0  0  0
 20 47  1  0  0  0  0
 22 23  1  0  0  0  0
 22 48  1  0  0  0  0
 22 49  1  0  0  0  0
 23 24  1  0  0  0  0
 23 25  1  0  0  0  0
 23 50  1  0  0  0  0
 24 51  1  0  0  0  0
 24 52  1  0  0  0  0
 24 53  1  0  0  0  0
M  END
> <s_m_source_file>
AV-unprocessed.smi

> <i_m_source_file_index>
633

> <i_lp_mmshare_version>
43012

> <i_f3d_flags>
0

> <s_epik_input>
W0NIM11bQ0BASF0xW0NIMl1OKFtDSDJdW0NASF0oTzEpW0NIM10pYzJbY0hdW2NIXWMoW2NIXW4yKVtOSF1DKD1PKVtOSF1bQ0hdKFtDSF0zW0NIMl1bQ0gyXTMpW0NIXTRbQ0gyXVtDSDJdNA==

> <s_epik_cmdline>
J2VwaWtfcHl0aG9uJywgJy1waCcsICc3LjAnLCAnLXRuJywgJzgnLCAnLW1hJywgJzIwMCcsICctbWV0YWxfYmluZGluZycsICctaW1hZScsICc8aW5maWxlLm1hZT4nLCAnLW9tYWUnLCAnPG91dGZpbGUubWFlPic=

> <r_lp_tautomer_probability>
1

> <r_epik_Ionization_Penalty>
0.00291159

> <r_epik_Ionization_Penalty_Charging>
0

> <r_epik_Ionization_Penalty_Neutral>
0.00291159

> <r_epik_State_Penalty>
0.00200877

> <r_epik_Charging_Adjusted_Penalty>
0.00200877

> <i_epik_Tot_Q>
0

> <i_epik_Tot_abs_Q>
0

> <r_epik_Metal_State_Penalty>
-0

> <b_epik_Metal_Only>
0

> <s_lp_Force_Field>
OPLS_2005

> <r_lp_Energy>
43.7528

> <b_lp_Chiralities_Consistent>
1

> <s_lp_Variant>
AV-unprocessed.smi:633-1

> <Gold.Version>
5.8.1

> <Gold.Id.Protein>
6NUR|6NUR_protein|mol2

> <Gold.PLP.Fitness>
44.9852

> <Gold.PLP.PLP>
-42.0997

> <Gold.PLP.part.hbond>
-0.9178

> <Gold.PLP.part.metal>
0.0000

> <Gold.PLP.part.buried>
-4.5503

> <Gold.PLP.part.nonpolar>
-35.3997

> <Gold.PLP.part.repulsive>
0.0388

> <Gold.PLP.ligand.clash>
0.0000

> <Gold.PLP.ligand.torsion>
1.3164

> <Gold.PLP.Chemscore.Hbond>
1.0000

> <Gold.PLP.Chemscore.CHOScore>
0.0000

> <Gold.PLP.Chemscore.Metal>
0.0000

> <Gold.Chemscore.Hbonds>
donor molecule, donor type, donor heavy atom, donor atom, acceptor molecule, acceptor atom, score
      L1  H    12    35       P1  7948  1.00

> <Gold.PLP.Chemscore.Internal.Correction>
2.5182

> <Gold.Rescore>
     Score         DG    S(hbond)    S(metal)    S(lipo)     H(rot)  DE(clash)    DE(int)     intcor
     16.09     -18.91       0.98        0.00     117.60       1.40       0.07       2.75       ----

> <Gold.Chemscore.Fitness>
16.0852

> <Gold.Chemscore.DG>
-18.9067

> <Gold.Chemscore.ZeroCoef>
-5.4800

> <Gold.Chemscore.Hbond>
0.9751

> <Gold.Chemscore.Metal>
0.0000

> <Gold.Chemscore.Lipo>
117.6026

> <Gold.Chemscore.Internal_Hbond>
0.0000

> <Gold.Chemscore.DEClash>
0.0703

> <Gold.Chemscore.DEInternal>
2.7512

> <Gold.Chemscore.Rot>
1.4022

> <Gold.Chemscore.Internal.Correction>
   9.000000E+99

> <Gold.Chemscore.Hbonds>
donor molecule, donor type, donor heavy atom, donor atom, acceptor molecule, acceptor atom, score
      L1  H    12    35       P1  7948  0.96

> <Gold.Chemscore.Hbond.Weighted>
-3.2569

> <Gold.Chemscore.Metal.Weighted>
-0.0000

> <Gold.Chemscore.Lipo.Weighted>
-13.7595

> <Gold.Chemscore.Internal_Hbond.Weighted>
0.0000

> <Gold.Chemscore.DEClash.Weighted>
0.0703

> <Gold.Chemscore.DEInternal.Weighted>
2.7512

> <Gold.Chemscore.Rot.Weighted>
3.5897

> <Gold.Chemscore.Internal.Correction.Weighted>
   9.000000E+99

> <Gold.Protein.RotatedTorsions>
[ 6907 6896 6895 6894 ] final   86.93 input  -60.11 | X-H torsion
[ 7974 7965 7964 7962 ] final   77.27 input  175.53 | X-H torsion
[ 8008 7997 7996 7995 ] final -117.46 input   59.86 | X-H torsion
[ 10167 10162 10161 10158 ] final  -50.46 input  -65.29 | X-H torsion
[ 10718 10713 10712 10709 ] final  -55.34 input   66.30 | X-H torsion
[ 10763 10752 10751 10750 ] final  -65.39 input  -60.55 | X-H torsion
[ 11005 11000 10999 10996 ] final  -44.21 input  -57.11 | X-H torsion

> <Gold.Protein.ActiveResidues>
 VAL166  LYS551  ARG553  GLY616  TRP617  ASP618  TYR619  PRO620  LYS621  CYS622 
 ASP623  PHE694  ASN695  SER759  ASP760  ASP761  ALA762  ILE779  LEU786  VAL792 
 PHE793  MET794  SER795  GLU796  ALA797  LYS798  CYS799  TRP800  GLU811  SER814 

> <Gold.Protein.RotatedAtoms>
  152.5403  134.2356  159.8841 H   0  0  0  0  0  0  0  0  0  0  0  0  # atno 6907 bound_to 6896
  151.2325  133.4436  159.2612 H   0  0  0  0  0  0  0  0  0  0  0  0  # atno 6908 bound_to 6896
  151.0702  134.9807  159.8360 H   0  0  0  0  0  0  0  0  0  0  0  0  # atno 6909 bound_to 6896
  145.6921  139.2556  143.1753 H   0  0  0  0  0  0  0  0  0  0  0  0  # atno 7974 bound_to 7965
  155.0840  140.0394  157.2648 H   0  0  0  0  0  0  0  0  0  0  0  0  # atno 8008 bound_to 7997
  154.6884  140.2648  155.6812 H   0  0  0  0  0  0  0  0  0  0  0  0  # atno 8009 bound_to 7997
  156.2720  140.2764  156.1453 H   0  0  0  0  0  0  0  0  0  0  0  0  # atno 8010 bound_to 7997
  140.6636  143.2656  151.4363 H   0  0  0  0  0  0  0  0  0  0  0  0  # atno 10167 bound_to 10162
  156.1376  130.4156  150.0158 H   0  0  0  0  0  0  0  0  0  0  0  0  # atno 10718 bound_to 10713
  154.3442  135.6150  153.5611 H   0  0  0  0  0  0  0  0  0  0  0  0  # atno 10763 bound_to 10752
  152.9802  135.5777  154.4817 H   0  0  0  0  0  0  0  0  0  0  0  0  # atno 10764 bound_to 10752
  154.4527  135.2853  155.1747 H   0  0  0  0  0  0  0  0  0  0  0  0  # atno 10765 bound_to 10752
  141.0435  133.6770  156.2841 H   0  0  0  0  0  0  0  0  0  0  0  0  # atno 11005 bound_to 11000
  146.0872  140.7697  142.9613 LP  0  0  0  0  0  0  0  0  0  0  0  0  # atno 17320 bound_to 7965
  144.6993  140.3581  143.7169 LP  0  0  0  0  0  0  0  0  0  0  0  0  # atno 17321 bound_to 7965
  139.5877  144.1567  152.2050 LP  0  0  0  0  0  0  0  0  0  0  0  0  # atno 17342 bound_to 10162
  140.0912  144.5619  150.7053 LP  0  0  0  0  0  0  0  0  0  0  0  0  # atno 17343 bound_to 10162
  156.8052  130.9305  151.3645 LP  0  0  0  0  0  0  0  0  0  0  0  0  # atno 17370 bound_to 10713
  157.6547  130.8914  149.9704 LP  0  0  0  0  0  0  0  0  0  0  0  0  # atno 17371 bound_to 10713
  140.6190  134.5381  157.5545 LP  0  0  0  0  0  0  0  0  0  0  0  0  # atno 17394 bound_to 11000
  139.9294  134.7993  156.0975 LP  0  0  0  0  0  0  0  0  0  0  0  0  # atno 17395 bound_to 11000

$$$$
