AV-unprocessed.smi:2564|AV-procd|sdf|10064|dock2
  -GOLD-   2272014103D 1   1.00000     0.00000
 Structure written by MMmdl.
 30 31  0  0  0  0  0  0  0  0  3 V2000
  152.3930  142.0548  158.8524 C   0  0  0  0  0  0  0  0  0  0  0  0
  152.6221  143.4390  158.9458 C   0  0  0  0  0  0  0  0  0  0  0  0
  151.8655  144.3591  158.3073 N   0  0  0  0  0  0  0  0  0  0  0  0
  150.8465  143.9164  157.5495 N   0  3  0  0  0  0  0  0  0  0  0  0
  150.5410  142.6037  157.3932 C   0  0  0  0  0  0  0  0  0  0  0  0
  149.4470  142.3129  156.5673 N   0  0  0  0  0  0  0  0  0  0  0  0
  149.0395  140.9352  156.3363 C   0  0  0  0  0  0  0  0  0  0  0  0
  149.9068  140.2599  155.2632 C   0  0  2  0  0  0  0  0  0  0  0  0
  149.1518  139.1168  154.5545 C   0  0  0  0  0  0  0  0  0  0  0  0
  150.0420  138.4342  153.5944 N   0  3  0  0  0  0  0  0  0  0  0  0
  151.2798  137.9604  154.2434 C   0  0  0  0  0  0  0  0  0  0  0  0
  151.9701  139.1239  154.9743 C   0  0  0  0  0  0  0  0  0  0  0  0
  151.0598  139.7119  155.8988 O   0  0  0  0  0  0  0  0  0  0  0  0
  151.3208  141.6250  158.0522 C   0  0  0  0  0  0  0  0  0  0  0  0
  153.0195  141.3489  159.3775 H   0  0  0  0  0  0  0  0  0  0  0  0
  153.4332  143.8202  159.5487 H   0  0  0  0  0  0  0  0  0  0  0  0
  149.0504  143.0400  155.9888 H   0  0  0  0  0  0  0  0  0  0  0  0
  149.0914  140.3734  157.2699 H   0  0  0  0  0  0  0  0  0  0  0  0
  147.9975  140.9330  156.0139 H   0  0  0  0  0  0  0  0  0  0  0  0
  150.2119  141.0056  154.5260 H   0  0  0  0  0  0  0  0  0  0  0  0
  148.7885  138.3898  155.2824 H   0  0  0  0  0  0  0  0  0  0  0  0
  148.2816  139.5006  154.0212 H   0  0  0  0  0  0  0  0  0  0  0  0
  149.5568  137.6490  153.1835 H   0  0  0  0  0  0  0  0  0  0  0  0
  151.0333  137.1655  154.9485 H   0  0  0  0  0  0  0  0  0  0  0  0
  151.9419  137.5304  153.4918 H   0  0  0  0  0  0  0  0  0  0  0  0
  152.8433  138.7618  155.5174 H   0  0  0  0  0  0  0  0  0  0  0  0
  152.3241  139.8755  154.2667 H   0  0  0  0  0  0  0  0  0  0  0  0
  151.1139  140.5694  157.9575 H   0  0  0  0  0  0  0  0  0  0  0  0
  150.2905  139.0857  152.8633 H   0  0  0  0  0  0  0  0  0  0  0  0
  150.2719  144.6061  157.0648 H   0  0  0  0  0  0  0  0  0  0  0  0
  1 14  1  0  0  0  0
  1  2  2  0  0  0  0
  1 15  1  0  0  0  0
  2  3  1  0  0  0  0
  2 16  1  0  0  0  0
  3  4  2  0  0  0  0
  4  5  1  0  0  0  0
  4 30  1  0  0  0  0
  5  6  1  0  0  0  0
  5 14  2  0  0  0  0
  6  7  1  0  0  0  0
  6 17  1  0  0  0  0
  7  8  1  0  0  0  0
  7 18  1  0  0  0  0
  7 19  1  0  0  0  0
  8 13  1  0  0  0  0
  8  9  1  0  0  0  0
  8 20  1  0  0  0  0
  9 10  1  0  0  0  0
  9 21  1  0  0  0  0
  9 22  1  0  0  0  0
 10 11  1  0  0  0  0
 10 23  1  0  0  0  0
 10 29  1  0  0  0  0
 11 12  1  0  0  0  0
 11 24  1  0  0  0  0
 11 25  1  0  0  0  0
 12 13  1  0  0  0  0
 12 26  1  0  0  0  0
 12 27  1  0  0  0  0
 14 28  1  0  0  0  0
M  CHG  1   4   1
M  CHG  1  10   1
M  END
> <s_m_source_file>
AV-unprocessed.smi

> <i_m_source_file_index>
2564

> <i_lp_mmshare_version>
43012

> <i_f3d_flags>
0

> <s_epik_input>
W2NIXTFbY0hdW2NIXW5uYzFbTkhdW0NIMl1bQ0BASF0yW0NIMl1bTkhdW0NIMl1bQ0gyXU8y

> <s_epik_cmdline>
J2VwaWtfcHl0aG9uJywgJy1waCcsICc3LjAnLCAnLXRuJywgJzgnLCAnLW1hJywgJzIwMCcsICctbWV0YWxfYmluZGluZycsICctaW1hZScsICc8aW5maWxlLm1hZT4nLCAnLW9tYWUnLCAnPG91dGZpbGUubWFlPic=

> <r_lp_tautomer_probability>
0.966961

> <r_epik_Ionization_Penalty>
2.43489

> <r_epik_Ionization_Penalty_Charging>
2.43489

> <r_epik_Ionization_Penalty_Neutral>
2.70443e-06

> <r_epik_State_Penalty>
1.93608

> <r_epik_Charging_Adjusted_Penalty>
4.37096

> <i_epik_Tot_Q>
2

> <i_epik_Tot_abs_Q>
2

> <r_epik_Metal_State_Penalty>
1.94389

> <b_epik_Metal_Only>
0

> <s_lp_Force_Field>
OPLS_2005

> <r_lp_Energy>
28.6288

> <b_lp_Chiralities_Consistent>
1

> <s_lp_Variant>
AV-unprocessed.smi:2564-3

> <Gold.Version>
5.8.1

> <Gold.Id.Protein>
6NUR|6NUR_protein|mol2

> <Gold.PLP.Fitness>
47.0988

> <Gold.PLP.PLP>
-28.1383

> <Gold.PLP.part.hbond>
-4.0000

> <Gold.PLP.part.metal>
0.0000

> <Gold.PLP.part.buried>
-4.9177

> <Gold.PLP.part.nonpolar>
-20.4089

> <Gold.PLP.part.repulsive>
0.2083

> <Gold.PLP.ligand.clash>
0.0000

> <Gold.PLP.ligand.torsion>
0.4559

> <Gold.PLP.Chemscore.Hbond>
6.6240

> <Gold.PLP.Chemscore.CHOScore>
0.0000

> <Gold.PLP.Chemscore.Metal>
0.0000

> <Gold.Chemscore.Hbonds>
donor molecule, donor type, donor heavy atom, donor atom, acceptor molecule, acceptor atom, score
      L1  H     4    30       P1  8028  1.70
      L1  H     6    17       P1  8028  1.95
      L1  H    10    23       P1  7948  2.00
      L1  H    10    29       P1  7957  0.84

> <Gold.PLP.Chemscore.Internal.Correction>
0.0003

> <Gold.Rescore>
     Score         DG    S(hbond)    S(metal)    S(lipo)     H(rot)  DE(clash)    DE(int)     intcor
     20.01     -20.56       3.35        0.00      62.64       1.35       0.01       0.55       ----

> <Gold.Chemscore.Fitness>
20.0050

> <Gold.Chemscore.DG>
-20.5631

> <Gold.Chemscore.ZeroCoef>
-5.4800

> <Gold.Chemscore.Hbond>
3.3542

> <Gold.Chemscore.Metal>
0.0000

> <Gold.Chemscore.Lipo>
62.6405

> <Gold.Chemscore.Internal_Hbond>
0.0000

> <Gold.Chemscore.DEClash>
0.0092

> <Gold.Chemscore.DEInternal>
0.5489

> <Gold.Chemscore.Rot>
1.3472

> <Gold.Chemscore.Internal.Correction>
   9.000000E+99

> <Gold.Chemscore.Hbonds>
donor molecule, donor type, donor heavy atom, donor atom, acceptor molecule, acceptor atom, score
      L1  H     4    30       P1  8028  0.50
      L1  H     6    17       P1  8028  0.93
      L1  H    10    23       P1  7948  0.82
      L1  H    10    29       P1  7957  0.52

> <Gold.Chemscore.Hbond.Weighted>
-11.2031

> <Gold.Chemscore.Metal.Weighted>
-0.0000

> <Gold.Chemscore.Lipo.Weighted>
-7.3289

> <Gold.Chemscore.Internal_Hbond.Weighted>
0.0000

> <Gold.Chemscore.DEClash.Weighted>
0.0092

> <Gold.Chemscore.DEInternal.Weighted>
0.5489

> <Gold.Chemscore.Rot.Weighted>
3.4489

> <Gold.Chemscore.Internal.Correction.Weighted>
   9.000000E+99

> <Gold.Protein.RotatedTorsions>
[ 6907 6896 6895 6894 ] final  -17.82 input  -60.11 | X-H torsion
[ 7974 7965 7964 7962 ] final   76.28 input  175.53 | X-H torsion
[ 8008 7997 7996 7995 ] final  -98.73 input   59.86 | X-H torsion
[ 10167 10162 10161 10158 ] final -160.42 input  -65.29 | X-H torsion
[ 10718 10713 10712 10709 ] final  108.23 input   66.30 | X-H torsion
[ 10763 10752 10751 10750 ] final  -69.32 input  -60.55 | X-H torsion
[ 11005 11000 10999 10996 ] final   -6.60 input  -57.11 | X-H torsion

> <Gold.Protein.ActiveResidues>
 VAL166  LYS551  ARG553  GLY616  TRP617  ASP618  TYR619  PRO620  LYS621  CYS622 
 ASP623  PHE694  ASN695  SER759  ASP760  ASP761  ALA762  ILE779  LEU786  VAL792 
 PHE793  MET794  SER795  GLU796  ALA797  LYS798  CYS799  TRP800  GLU811  SER814 

> <Gold.Protein.RotatedAtoms>
  151.2876  135.0732  159.9192 H   0  0  0  0  0  0  0  0  0  0  0  0  # atno 6907 bound_to 6896
  152.5322  133.9965  159.7885 H   0  0  0  0  0  0  0  0  0  0  0  0  # atno 6908 bound_to 6896
  151.0230  133.5808  159.2700 H   0  0  0  0  0  0  0  0  0  0  0  0  # atno 6909 bound_to 6896
  145.7049  139.2595  143.1684 H   0  0  0  0  0  0  0  0  0  0  0  0  # atno 7974 bound_to 7965
  154.8052  140.0453  157.1302 H   0  0  0  0  0  0  0  0  0  0  0  0  # atno 8008 bound_to 7997
  154.9432  140.3055  155.5091 H   0  0  0  0  0  0  0  0  0  0  0  0  # atno 8009 bound_to 7997
  156.2966  140.2301  156.4503 H   0  0  0  0  0  0  0  0  0  0  0  0  # atno 8010 bound_to 7997
  139.6541  144.0031  152.2182 H   0  0  0  0  0  0  0  0  0  0  0  0  # atno 10167 bound_to 10162
  157.6595  131.0889  150.6274 H   0  0  0  0  0  0  0  0  0  0  0  0  # atno 10718 bound_to 10713
  154.4017  135.6029  153.5901 H   0  0  0  0  0  0  0  0  0  0  0  0  # atno 10763 bound_to 10752
  152.9788  135.5908  154.4176 H   0  0  0  0  0  0  0  0  0  0  0  0  # atno 10764 bound_to 10752
  154.3975  135.2842  155.2095 H   0  0  0  0  0  0  0  0  0  0  0  0  # atno 10765 bound_to 10752
  140.7037  133.8967  155.8701 H   0  0  0  0  0  0  0  0  0  0  0  0  # atno 11005 bound_to 11000
  146.0765  140.7812  142.9662 LP  0  0  0  0  0  0  0  0  0  0  0  0  # atno 17320 bound_to 7965
  144.6958  140.3422  143.7197 LP  0  0  0  0  0  0  0  0  0  0  0  0  # atno 17321 bound_to 7965
  139.9752  144.6466  150.7951 LP  0  0  0  0  0  0  0  0  0  0  0  0  # atno 17342 bound_to 10162
  140.7551  143.3040  151.3009 LP  0  0  0  0  0  0  0  0  0  0  0  0  # atno 17343 bound_to 10162
  156.6578  130.4503  149.5698 LP  0  0  0  0  0  0  0  0  0  0  0  0  # atno 17370 bound_to 10713
  156.2089  130.6667  151.1249 LP  0  0  0  0  0  0  0  0  0  0  0  0  # atno 17371 bound_to 10713
  141.0142  134.0978  157.4190 LP  0  0  0  0  0  0  0  0  0  0  0  0  # atno 17394 bound_to 11000
  139.8890  135.0101  156.6652 LP  0  0  0  0  0  0  0  0  0  0  0  0  # atno 17395 bound_to 11000

$$$$
