AV-unprocessed.smi:3028|AV-procd|sdf|11518|dock6
  -GOLD-   2272016453D 1   1.00000     0.00000
 Structure written by MMmdl.
 48 49  0  0  0  0  0  0  0  0  2 V2000
  152.6347  144.8385  158.5162 C   0  0  0  0  0  0  0  0  0  0  0  0
  152.1178  143.4512  158.2672 C   0  0  0  0  0  0  0  0  0  0  0  0
  152.3760  142.2720  159.0216 C   0  0  0  0  0  0  0  0  0  0  0  0
  151.7610  141.2070  158.5346 N   0  0  0  0  0  0  0  0  0  0  0  0
  151.0897  141.6644  157.4543 N   0  0  0  0  0  0  0  0  0  0  0  0
  150.2698  140.7579  156.6579 C   0  0  1  0  0  0  0  0  0  0  0  0
  149.7055  141.5039  155.4339 C   0  0  0  0  0  0  0  0  0  0  0  0
  151.0505  139.4685  156.2855 C   0  0  2  0  0  0  0  0  0  0  0  0
  152.1886  139.7249  155.2839 C   0  0  0  0  0  0  0  0  0  0  0  0
  150.1305  138.4611  155.7084 N   0  3  0  0  0  0  0  0  0  0  0  0
  150.7822  137.4110  154.8976 C   0  0  0  0  0  0  0  0  0  0  0  0
  150.3734  135.9993  155.3369 C   0  0  0  0  0  0  0  0  0  0  0  0
  150.6575  135.6006  156.4654 O   0  0  0  0  0  0  0  0  0  0  0  0
  149.7068  135.2094  154.4783 N   0  0  0  0  0  0  0  0  0  0  0  0
  149.2274  133.8442  154.6913 C   0  0  0  0  0  0  0  0  0  0  0  0
  150.3444  132.9867  155.3052 C   0  0  0  0  0  0  0  0  0  0  0  0
  149.9219  131.5098  155.3698 C   0  0  0  0  0  0  0  0  0  0  0  0
  149.5660  131.0477  154.0713 O   0  0  0  0  0  0  0  0  0  0  0  0
  148.4504  131.7407  153.5219 C   0  0  0  0  0  0  0  0  0  0  0  0
  148.7874  133.2313  153.3531 C   0  0  0  0  0  0  0  0  0  0  0  0
  151.2939  143.0159  157.2684 C   0  0  0  0  0  0  0  0  0  0  0  0
  153.2287  144.8932  159.4289 H   0  0  0  0  0  0  0  0  0  0  0  0
  151.8220  145.5578  158.6190 H   0  0  0  0  0  0  0  0  0  0  0  0
  153.2688  145.1834  157.6995 H   0  0  0  0  0  0  0  0  0  0  0  0
  152.9868  142.1593  159.9052 H   0  0  0  0  0  0  0  0  0  0  0  0
  149.4220  140.4701  157.2817 H   0  0  0  0  0  0  0  0  0  0  0  0
  148.9540  140.9124  154.9118 H   0  0  0  0  0  0  0  0  0  0  0  0
  150.4907  141.7529  154.7193 H   0  0  0  0  0  0  0  0  0  0  0  0
  149.2235  142.4352  155.7336 H   0  0  0  0  0  0  0  0  0  0  0  0
  151.5012  139.0618  157.1928 H   0  0  0  0  0  0  0  0  0  0  0  0
  152.9579  140.3725  155.7036 H   0  0  0  0  0  0  0  0  0  0  0  0
  151.8187  140.1913  154.3701 H   0  0  0  0  0  0  0  0  0  0  0  0
  152.6791  138.7916  155.0052 H   0  0  0  0  0  0  0  0  0  0  0  0
  149.6406  138.0085  156.4670 H   0  0  0  0  0  0  0  0  0  0  0  0
  150.5196  137.5560  153.8488 H   0  0  0  0  0  0  0  0  0  0  0  0
  151.8639  137.5099  154.9910 H   0  0  0  0  0  0  0  0  0  0  0  0
  149.5063  135.6028  153.5697 H   0  0  0  0  0  0  0  0  0  0  0  0
  148.3747  133.8153  155.3688 H   0  0  0  0  0  0  0  0  0  0  0  0
  151.2521  133.0719  154.7058 H   0  0  0  0  0  0  0  0  0  0  0  0
  150.5937  133.3482  156.3037 H   0  0  0  0  0  0  0  0  0  0  0  0
  150.7443  130.9016  155.7464 H   0  0  0  0  0  0  0  0  0  0  0  0
  149.0856  131.3743  156.0574 H   0  0  0  0  0  0  0  0  0  0  0  0
  148.2051  131.3008  152.5552 H   0  0  0  0  0  0  0  0  0  0  0  0
  147.5764  131.6097  154.1617 H   0  0  0  0  0  0  0  0  0  0  0  0
  147.9241  133.7670  152.9565 H   0  0  0  0  0  0  0  0  0  0  0  0
  149.5850  133.3345  152.6156 H   0  0  0  0  0  0  0  0  0  0  0  0
  150.8369  143.5542  156.4509 H   0  0  0  0  0  0  0  0  0  0  0  0
  149.4506  138.9337  155.1301 H   0  0  0  0  0  0  0  0  0  0  0  0
  1  2  1  0  0  0  0
  1 22  1  0  0  0  0
  1 23  1  0  0  0  0
  1 24  1  0  0  0  0
  2 21  2  0  0  0  0
  2  3  1  0  0  0  0
  3  4  2  0  0  0  0
  3 25  1  0  0  0  0
  4  5  1  0  0  0  0
  5  6  1  0  0  0  0
  5 21  1  0  0  0  0
  6  7  1  0  0  0  0
  6  8  1  0  0  0  0
  6 26  1  0  0  0  0
  7 27  1  0  0  0  0
  7 28  1  0  0  0  0
  7 29  1  0  0  0  0
  8  9  1  0  0  0  0
  8 10  1  0  0  0  0
  8 30  1  0  0  0  0
  9 31  1  0  0  0  0
  9 32  1  0  0  0  0
  9 33  1  0  0  0  0
 10 11  1  0  0  0  0
 10 34  1  0  0  0  0
 10 48  1  0  0  0  0
 11 12  1  0  0  0  0
 11 35  1  0  0  0  0
 11 36  1  0  0  0  0
 12 13  2  0  0  0  0
 12 14  1  0  0  0  0
 14 15  1  0  0  0  0
 14 37  1  0  0  0  0
 15 20  1  0  0  0  0
 15 16  1  0  0  0  0
 15 38  1  0  0  0  0
 16 17  1  0  0  0  0
 16 39  1  0  0  0  0
 16 40  1  0  0  0  0
 17 18  1  0  0  0  0
 17 41  1  0  0  0  0
 17 42  1  0  0  0  0
 18 19  1  0  0  0  0
 19 20  1  0  0  0  0
 19 43  1  0  0  0  0
 19 44  1  0  0  0  0
 20 45  1  0  0  0  0
 20 46  1  0  0  0  0
 21 47  1  0  0  0  0
M  CHG  1  10   1
M  END
> <s_m_source_file>
AV-unprocessed.smi

> <i_m_source_file_index>
3028

> <i_lp_mmshare_version>
43012

> <i_f3d_flags>
0

> <s_epik_input>
W0NIM11jMVtjSF1ubihbY0hdMSlbQ0BIXShbQ0gzXSlbQ0BIXShbQ0gzXSlbTkhdW0NIMl1DKD1PKVtOSF1bQ0hdMltDSDJdW0NIMl1PW0NIMl1bQ0gyXTI=

> <s_epik_cmdline>
J2VwaWtfcHl0aG9uJywgJy1waCcsICc3LjAnLCAnLXRuJywgJzgnLCAnLW1hJywgJzIwMCcsICctbWV0YWxfYmluZGluZycsICctaW1hZScsICc8aW5maWxlLm1hZT4nLCAnLW9tYWUnLCAnPG91dGZpbGUubWFlPic=

> <r_lp_tautomer_probability>
1

> <r_epik_Ionization_Penalty>
0.151514

> <r_epik_Ionization_Penalty_Charging>
0.151494

> <r_epik_Ionization_Penalty_Neutral>
1.95502e-05

> <r_epik_State_Penalty>
0.141395

> <r_epik_Charging_Adjusted_Penalty>
0.292889

> <i_epik_Tot_Q>
1

> <i_epik_Tot_abs_Q>
1

> <r_epik_Metal_State_Penalty>
0.141632

> <b_epik_Metal_Only>
0

> <s_lp_Force_Field>
OPLS_2005

> <r_lp_Energy>
16.7547

> <b_lp_Chiralities_Consistent>
1

> <s_lp_Variant>
AV-unprocessed.smi:3028-2

> <Gold.Version>
5.8.1

> <Gold.Id.Protein>
6NUR|6NUR_protein|mol2

> <Gold.PLP.Fitness>
44.4410

> <Gold.PLP.PLP>
-40.8501

> <Gold.PLP.part.hbond>
-1.0000

> <Gold.PLP.part.metal>
0.0000

> <Gold.PLP.part.buried>
-3.6155

> <Gold.PLP.part.nonpolar>
-37.0979

> <Gold.PLP.part.repulsive>
0.1380

> <Gold.PLP.ligand.clash>
0.5378

> <Gold.PLP.ligand.torsion>
0.9275

> <Gold.PLP.Chemscore.Hbond>
0.9500

> <Gold.PLP.Chemscore.CHOScore>
1.0000

> <Gold.PLP.Chemscore.Metal>
0.0000

> <Gold.Chemscore.Hbonds>
donor molecule, donor type, donor heavy atom, donor atom, acceptor molecule, acceptor atom, score
      L1  H    14    37       P1  7948  0.95
      L1  C    21    47       P1  8028  1.00

> <Gold.PLP.Chemscore.Internal.Correction>
0.1336

> <Gold.Rescore>
     Score         DG    S(hbond)    S(metal)    S(lipo)     H(rot)  DE(clash)    DE(int)     intcor
     13.18     -15.42       0.92        0.00     102.13       1.99       0.05       2.19       ----

> <Gold.Chemscore.Fitness>
13.1846

> <Gold.Chemscore.DG>
-15.4247

> <Gold.Chemscore.ZeroCoef>
-5.4800

> <Gold.Chemscore.Hbond>
0.9248

> <Gold.Chemscore.Metal>
0.0000

> <Gold.Chemscore.Lipo>
102.1329

> <Gold.Chemscore.Internal_Hbond>
0.0000

> <Gold.Chemscore.DEClash>
0.0477

> <Gold.Chemscore.DEInternal>
2.1925

> <Gold.Chemscore.Rot>
1.9897

> <Gold.Chemscore.Internal.Correction>
   9.000000E+99

> <Gold.Chemscore.Hbonds>
donor molecule, donor type, donor heavy atom, donor atom, acceptor molecule, acceptor atom, score
      L1  H    14    37       P1  7948  0.22

> <Gold.Chemscore.Hbond.Weighted>
-3.0888

> <Gold.Chemscore.Metal.Weighted>
-0.0000

> <Gold.Chemscore.Lipo.Weighted>
-11.9496

> <Gold.Chemscore.Internal_Hbond.Weighted>
0.0000

> <Gold.Chemscore.DEClash.Weighted>
0.0477

> <Gold.Chemscore.DEInternal.Weighted>
2.1925

> <Gold.Chemscore.Rot.Weighted>
5.0936

> <Gold.Chemscore.Internal.Correction.Weighted>
   9.000000E+99

> <Gold.Protein.RotatedTorsions>
[ 6907 6896 6895 6894 ] final  103.31 input  -60.11 | X-H torsion
[ 7974 7965 7964 7962 ] final -132.79 input  175.53 | X-H torsion
[ 8008 7997 7996 7995 ] final  -62.75 input   59.86 | X-H torsion
[ 10167 10162 10161 10158 ] final  107.42 input  -65.29 | X-H torsion
[ 10718 10713 10712 10709 ] final   -5.62 input   66.30 | X-H torsion
[ 10763 10752 10751 10750 ] final   36.58 input  -60.55 | X-H torsion
[ 11005 11000 10999 10996 ] final  -78.05 input  -57.11 | X-H torsion

> <Gold.Protein.ActiveResidues>
 VAL166  LYS551  ARG553  GLY616  TRP617  ASP618  TYR619  PRO620  LYS621  CYS622 
 ASP623  PHE694  ASN695  SER759  ASP760  ASP761  ALA762  ILE779  LEU786  VAL792 
 PHE793  MET794  SER795  GLU796  ALA797  LYS798  CYS799  TRP800  GLU811  SER814 

> <Gold.Protein.RotatedAtoms>
  152.5299  133.9845  159.7821 H   0  0  0  0  0  0  0  0  0  0  0  0  # atno 6907 bound_to 6896
  151.0092  133.5973  159.2692 H   0  0  0  0  0  0  0  0  0  0  0  0  # atno 6908 bound_to 6896
  151.3054  135.0786  159.9306 H   0  0  0  0  0  0  0  0  0  0  0  0  # atno 6909 bound_to 6896
  144.9253  140.7063  143.4940 H   0  0  0  0  0  0  0  0  0  0  0  0  # atno 7974 bound_to 7965
  154.4516  140.0989  156.6636 H   0  0  0  0  0  0  0  0  0  0  0  0  # atno 8008 bound_to 7997
  155.5266  140.3480  155.4399 H   0  0  0  0  0  0  0  0  0  0  0  0  # atno 8009 bound_to 7997
  156.0693  140.1345  156.9836 H   0  0  0  0  0  0  0  0  0  0  0  0  # atno 8010 bound_to 7997
  139.6929  144.7105  151.1317 H   0  0  0  0  0  0  0  0  0  0  0  0  # atno 10167 bound_to 10162
  156.7439  130.5218  149.5818 H   0  0  0  0  0  0  0  0  0  0  0  0  # atno 10718 bound_to 10713
  153.0071  135.6301  154.2009 H   0  0  0  0  0  0  0  0  0  0  0  0  # atno 10763 bound_to 10752
  154.1752  135.2816  155.3070 H   0  0  0  0  0  0  0  0  0  0  0  0  # atno 10764 bound_to 10752
  154.5878  135.5627  153.7308 H   0  0  0  0  0  0  0  0  0  0  0  0  # atno 10765 bound_to 10752
  141.1663  133.7047  156.7913 H   0  0  0  0  0  0  0  0  0  0  0  0  # atno 11005 bound_to 11000
  145.3230  139.1782  143.4578 LP  0  0  0  0  0  0  0  0  0  0  0  0  # atno 17320 bound_to 7965
  146.3223  140.3250  142.8636 LP  0  0  0  0  0  0  0  0  0  0  0  0  # atno 17321 bound_to 7965
  140.7688  143.5533  150.9180 LP  0  0  0  0  0  0  0  0  0  0  0  0  # atno 17342 bound_to 10162
  139.9212  143.6604  152.3096 LP  0  0  0  0  0  0  0  0  0  0  0  0  # atno 17343 bound_to 10162
  156.1446  130.6268  151.0514 LP  0  0  0  0  0  0  0  0  0  0  0  0  # atno 17370 bound_to 10713
  157.6807  131.0839  150.7378 LP  0  0  0  0  0  0  0  0  0  0  0  0  # atno 17371 bound_to 10713
  140.2323  134.8676  157.3489 LP  0  0  0  0  0  0  0  0  0  0  0  0  # atno 17394 bound_to 11000
  140.1878  134.4409  155.7733 LP  0  0  0  0  0  0  0  0  0  0  0  0  # atno 17395 bound_to 11000

$$$$
