AV-unprocessed.smi:1795|AV-procd|sdf|7249|dock7
  -GOLD-   22720 8503D 1   1.00000     0.00000
 Structure written by MMmdl.
 48 49  0  0  0  0  0  0  0  0  2 V2000
  144.5901  134.4640  150.6316 C   0  0  0  0  0  0  0  0  0  0  0  0
  145.5465  135.1525  151.6119 C   0  0  2  0  0  0  0  0  0  0  0  0
  146.3817  134.1403  152.4166 C   0  0  0  0  0  0  0  0  0  0  0  0
  147.2583  134.8307  153.4012 N   0  3  2  0  0  0  0  0  0  0  0  0
  148.1746  133.8833  154.1175 C   0  0  1  0  0  0  0  0  0  0  0  0
  148.9008  132.9837  153.0912 C   0  0  0  0  0  0  0  0  0  0  0  0
  149.1938  134.5866  155.0574 C   0  0  0  0  0  0  0  0  0  0  0  0
  149.8846  135.6996  154.4111 N   0  0  0  0  0  0  0  0  0  0  0  0
  151.0184  136.2710  154.8460 C   0  0  0  0  0  0  0  0  0  0  0  0
  151.6282  135.8883  155.8452 O   0  0  0  0  0  0  0  0  0  0  0  0
  151.5393  137.4540  154.0189 C   0  0  0  0  0  0  0  0  0  0  0  0
  150.9717  138.7435  154.4466 N   0  0  0  0  0  0  0  0  0  0  0  0
  149.6984  139.0842  153.9478 C   0  0  0  0  0  0  0  0  0  0  0  0
  149.0927  140.2365  154.2755 C   0  0  0  0  0  0  0  0  0  0  0  0
  149.7808  141.1402  155.1668 C   0  0  0  0  0  0  0  0  0  0  0  0
  151.0005  140.8260  155.6471 C   0  0  0  0  0  0  0  0  0  0  0  0
  151.6675  139.5687  155.2895 C   0  0  0  0  0  0  0  0  0  0  0  0
  152.7836  139.2750  155.7202 O   0  0  0  0  0  0  0  0  0  0  0  0
  146.4282  135.7161  154.2635 C   0  0  0  0  0  0  0  0  0  0  0  0
  145.5764  136.6783  153.4126 C   0  0  2  0  0  0  0  0  0  0  0  0
  144.6503  137.5446  154.2736 C   0  0  0  0  0  0  0  0  0  0  0  0
  144.7695  135.9267  152.5159 O   0  0  0  0  0  0  0  0  0  0  0  0
  145.1369  133.8537  149.9122 H   0  0  0  0  0  0  0  0  0  0  0  0
  144.0116  135.1985  150.0706 H   0  0  0  0  0  0  0  0  0  0  0  0
  143.8864  133.8155  151.1543 H   0  0  0  0  0  0  0  0  0  0  0  0
  146.2086  135.8105  151.0460 H   0  0  0  0  0  0  0  0  0  0  0  0
  145.7213  133.4490  152.9431 H   0  0  0  0  0  0  0  0  0  0  0  0
  146.9692  133.5436  151.7213 H   0  0  0  0  0  0  0  0  0  0  0  0
  147.5561  133.2445  154.7504 H   0  0  0  0  0  0  0  0  0  0  0  0
  149.4917  132.2095  153.5794 H   0  0  0  0  0  0  0  0  0  0  0  0
  149.5765  133.5688  152.4667 H   0  0  0  0  0  0  0  0  0  0  0  0
  148.2152  132.4582  152.4293 H   0  0  0  0  0  0  0  0  0  0  0  0
  148.7027  134.9144  155.9753 H   0  0  0  0  0  0  0  0  0  0  0  0
  149.9799  133.8934  155.3558 H   0  0  0  0  0  0  0  0  0  0  0  0
  149.4579  136.0768  153.5771 H   0  0  0  0  0  0  0  0  0  0  0  0
  152.6277  137.4645  154.0915 H   0  0  0  0  0  0  0  0  0  0  0  0
  151.3242  137.2902  152.9609 H   0  0  0  0  0  0  0  0  0  0  0  0
  149.2534  138.3582  153.2827 H   0  0  0  0  0  0  0  0  0  0  0  0
  148.1179  140.4825  153.8809 H   0  0  0  0  0  0  0  0  0  0  0  0
  149.3156  142.0735  155.4485 H   0  0  0  0  0  0  0  0  0  0  0  0
  151.5002  141.5151  156.3122 H   0  0  0  0  0  0  0  0  0  0  0  0
  145.7878  135.1059  154.9028 H   0  0  0  0  0  0  0  0  0  0  0  0
  147.0572  136.3252  154.9120 H   0  0  0  0  0  0  0  0  0  0  0  0
  146.2305  137.3377  152.8391 H   0  0  0  0  0  0  0  0  0  0  0  0
  145.2215  138.1590  154.9701 H   0  0  0  0  0  0  0  0  0  0  0  0
  143.9622  136.9305  154.8555 H   0  0  0  0  0  0  0  0  0  0  0  0
  144.0545  138.2143  153.6527 H   0  0  0  0  0  0  0  0  0  0  0  0
  147.8582  135.4509  152.8757 H   0  0  0  0  0  0  0  0  0  0  0  0
  1  2  1  0  0  0  0
  1 23  1  0  0  0  0
  1 24  1  0  0  0  0
  1 25  1  0  0  0  0
  2 22  1  0  0  0  0
  2  3  1  0  0  0  0
  2 26  1  0  0  0  0
  3  4  1  0  0  0  0
  3 27  1  0  0  0  0
  3 28  1  0  0  0  0
  4  5  1  0  0  0  0
  4 19  1  0  0  0  0
  4 48  1  0  0  0  0
  5  6  1  0  0  0  0
  5  7  1  0  0  0  0
  5 29  1  0  0  0  0
  6 30  1  0  0  0  0
  6 31  1  0  0  0  0
  6 32  1  0  0  0  0
  7  8  1  0  0  0  0
  7 33  1  0  0  0  0
  7 34  1  0  0  0  0
  8  9  1  0  0  0  0
  8 35  1  0  0  0  0
  9 10  2  0  0  0  0
  9 11  1  0  0  0  0
 11 12  1  0  0  0  0
 11 36  1  0  0  0  0
 11 37  1  0  0  0  0
 12 17  1  0  0  0  0
 12 13  1  0  0  0  0
 13 14  2  0  0  0  0
 13 38  1  0  0  0  0
 14 15  1  0  0  0  0
 14 39  1  0  0  0  0
 15 16  2  0  0  0  0
 15 40  1  0  0  0  0
 16 17  1  0  0  0  0
 16 41  1  0  0  0  0
 17 18  2  0  0  0  0
 19 20  1  0  0  0  0
 19 42  1  0  0  0  0
 19 43  1  0  0  0  0
 20 21  1  0  0  0  0
 20 22  1  0  0  0  0
 20 44  1  0  0  0  0
 21 45  1  0  0  0  0
 21 46  1  0  0  0  0
 21 47  1  0  0  0  0
M  CHG  1   4   1
M  END
> <s_m_source_file>
AV-unprocessed.smi

> <i_m_source_file_index>
1795

> <i_lp_mmshare_version>
43012

> <i_f3d_flags>
0

> <s_epik_input>
W0NIM11bQ0BASF0xW0NIMl1OKFtDSDJdW0NASF0oTzEpW0NIM10pW0NASF0oW0NIM10pW0NIMl1bTkhdQyg9TylbQ0gyXW4yW2NIXVtjSF1bY0hdW2NIXWMyPU8=

> <s_epik_cmdline>
J2VwaWtfcHl0aG9uJywgJy1waCcsICc3LjAnLCAnLXRuJywgJzgnLCAnLW1hJywgJzIwMCcsICctbWV0YWxfYmluZGluZycsICctaW1hZScsICc8aW5maWxlLm1hZT4nLCAnLW9tYWUnLCAnPG91dGZpbGUubWFlPic=

> <r_lp_tautomer_probability>
1

> <r_epik_Ionization_Penalty>
0.656654

> <r_epik_Ionization_Penalty_Charging>
0.656654

> <r_epik_Ionization_Penalty_Neutral>
8.90321e-08

> <r_epik_State_Penalty>
0.675641

> <r_epik_Charging_Adjusted_Penalty>
1.33229

> <i_epik_Tot_Q>
1

> <i_epik_Tot_abs_Q>
1

> <r_epik_Metal_State_Penalty>
0.675691

> <b_epik_Metal_Only>
0

> <s_lp_Force_Field>
OPLS_2005

> <r_lp_Energy>
27.2799

> <b_lp_Chiralities_Consistent>
1

> <s_lp_Variant>
AV-unprocessed.smi:1795-13

> <Gold.Version>
5.8.1

> <Gold.Id.Protein>
6NUR|6NUR_protein|mol2

> <Gold.PLP.Fitness>
53.6316

> <Gold.PLP.PLP>
-38.0200

> <Gold.PLP.part.hbond>
-4.2251

> <Gold.PLP.part.metal>
0.0000

> <Gold.PLP.part.buried>
0.7032

> <Gold.PLP.part.nonpolar>
-34.2528

> <Gold.PLP.part.repulsive>
0.2042

> <Gold.PLP.ligand.clash>
0.0000

> <Gold.PLP.ligand.torsion>
0.9320

> <Gold.PLP.Chemscore.Hbond>
4.9600

> <Gold.PLP.Chemscore.CHOScore>
0.8399

> <Gold.PLP.Chemscore.Metal>
0.0000

> <Gold.Chemscore.Hbonds>
donor molecule, donor type, donor heavy atom, donor atom, acceptor molecule, acceptor atom, score
      L1  H     4    48       P1  7948  2.00
      L1  H     8    35       P1  7948  1.00
      P1  H  7997  8010       L1    18  1.00
      P1  H 10752 10763       L1    10  0.90
      L1  C    13    38       P1  7948  0.97
      L1  C    13    38       P1  7957  0.12

> <Gold.PLP.Chemscore.Internal.Correction>
0.0758

> <Gold.Rescore>
     Score         DG    S(hbond)    S(metal)    S(lipo)     H(rot)  DE(clash)    DE(int)     intcor
     19.38     -20.09       3.53        0.00      65.32       1.89       0.05       0.65       ----

> <Gold.Chemscore.Fitness>
19.3816

> <Gold.Chemscore.DG>
-20.0874

> <Gold.Chemscore.ZeroCoef>
-5.4800

> <Gold.Chemscore.Hbond>
3.5318

> <Gold.Chemscore.Metal>
0.0000

> <Gold.Chemscore.Lipo>
65.3167

> <Gold.Chemscore.Internal_Hbond>
0.0000

> <Gold.Chemscore.DEClash>
0.0545

> <Gold.Chemscore.DEInternal>
0.6513

> <Gold.Chemscore.Rot>
1.8870

> <Gold.Chemscore.Internal.Correction>
   9.000000E+99

> <Gold.Chemscore.Hbonds>
donor molecule, donor type, donor heavy atom, donor atom, acceptor molecule, acceptor atom, score
      L1  H     4    48       P1  7948  1.00
      L1  H     8    35       P1  7948  0.55
      P1  H  7997  8010       L1    18  1.00
      P1  H 10752 10763       L1    10  0.39

> <Gold.Chemscore.Hbond.Weighted>
-11.7961

> <Gold.Chemscore.Metal.Weighted>
-0.0000

> <Gold.Chemscore.Lipo.Weighted>
-7.6421

> <Gold.Chemscore.Internal_Hbond.Weighted>
0.0000

> <Gold.Chemscore.DEClash.Weighted>
0.0545

> <Gold.Chemscore.DEInternal.Weighted>
0.6513

> <Gold.Chemscore.Rot.Weighted>
4.8308

> <Gold.Chemscore.Internal.Correction.Weighted>
   9.000000E+99

> <Gold.Protein.RotatedTorsions>
[ 6907 6896 6895 6894 ] final -164.34 input  -60.11 | X-H torsion
[ 7974 7965 7964 7962 ] final   -6.76 input  175.53 | X-H torsion
[ 8008 7997 7996 7995 ] final   98.76 input   59.86 | X-H torsion
[ 10167 10162 10161 10158 ] final   69.06 input  -65.29 | X-H torsion
[ 10718 10713 10712 10709 ] final -165.80 input   66.30 | X-H torsion
[ 10763 10752 10751 10750 ] final  104.39 input  -60.55 | X-H torsion
[ 11005 11000 10999 10996 ] final   94.38 input  -57.11 | X-H torsion

> <Gold.Protein.ActiveResidues>
 VAL166  LYS551  ARG553  GLY616  TRP617  ASP618  TYR619  PRO620  LYS621  CYS622 
 ASP623  PHE694  ASN695  SER759  ASP760  ASP761  ALA762  ILE779  LEU786  VAL792 
 PHE793  MET794  SER795  GLU796  ALA797  LYS798  CYS799  TRP800  GLU811  SER814 

> <Gold.Protein.RotatedAtoms>
  151.4104  133.3729  159.2742 H   0  0  0  0  0  0  0  0  0  0  0  0  # atno 6907 bound_to 6896
  150.9367  134.8781  159.7597 H   0  0  0  0  0  0  0  0  0  0  0  0  # atno 6908 bound_to 6896
  152.5053  134.4052  159.9482 H   0  0  0  0  0  0  0  0  0  0  0  0  # atno 6909 bound_to 6896
  146.2323  140.2218  142.8337 H   0  0  0  0  0  0  0  0  0  0  0  0  # atno 7974 bound_to 7965
  156.1036  140.3239  155.7976 H   0  0  0  0  0  0  0  0  0  0  0  0  # atno 8008 bound_to 7997
  155.4794  140.0553  157.2986 H   0  0  0  0  0  0  0  0  0  0  0  0  # atno 8009 bound_to 7997
  154.4713  140.2012  156.0002 H   0  0  0  0  0  0  0  0  0  0  0  0  # atno 8010 bound_to 7997
  140.0719  144.5145  150.7221 H   0  0  0  0  0  0  0  0  0  0  0  0  # atno 10167 bound_to 10162
  156.6586  130.9037  151.3025 H   0  0  0  0  0  0  0  0  0  0  0  0  # atno 10718 bound_to 10713
  153.3653  135.3945  155.1748 H   0  0  0  0  0  0  0  0  0  0  0  0  # atno 10763 bound_to 10752
  154.8686  135.3689  154.5047 H   0  0  0  0  0  0  0  0  0  0  0  0  # atno 10764 bound_to 10752
  153.5510  135.7083  153.5652 H   0  0  0  0  0  0  0  0  0  0  0  0  # atno 10765 bound_to 10752
  139.8799  134.8842  156.3856 H   0  0  0  0  0  0  0  0  0  0  0  0  # atno 11005 bound_to 11000
  144.9626  140.8290  143.5504 LP  0  0  0  0  0  0  0  0  0  0  0  0  # atno 17320 bound_to 7965
  145.2190  139.2168  143.5103 LP  0  0  0  0  0  0  0  0  0  0  0  0  # atno 17321 bound_to 7965
  140.7121  143.2513  151.4549 LP  0  0  0  0  0  0  0  0  0  0  0  0  # atno 17342 bound_to 10162
  139.5830  144.1666  152.1993 LP  0  0  0  0  0  0  0  0  0  0  0  0  # atno 17343 bound_to 10162
  157.7117  130.9448  150.1112 LP  0  0  0  0  0  0  0  0  0  0  0  0  # atno 17370 bound_to 10713
  156.2028  130.3661  149.8766 LP  0  0  0  0  0  0  0  0  0  0  0  0  # atno 17371 bound_to 10713
  140.9368  133.7541  156.0095 LP  0  0  0  0  0  0  0  0  0  0  0  0  # atno 17394 bound_to 11000
  140.8266  134.3227  157.5363 LP  0  0  0  0  0  0  0  0  0  0  0  0  # atno 17395 bound_to 11000

$$$$
