AV-unprocessed.smi:2499|AV-procd|sdf|9834|dock3
  -GOLD-   2272013463D 1   1.00000     0.00000
 Structure written by MMmdl.
 28 29  0  0  0  0  0  0  0  0  2 V2000
  151.3632  142.1001  158.9050 C   0  0  0  0  0  0  0  0  0  0  0  0
  151.6471  143.0121  157.7037 C   0  0  1  0  0  0  0  0  0  0  0  0
  150.5503  142.8829  156.7489 N   0  0  0  0  0  0  0  0  0  0  0  0
  150.1689  141.7408  156.1574 C   0  0  0  0  0  0  0  0  0  0  0  0
  150.7064  140.6516  156.3608 O   0  0  0  0  0  0  0  0  0  0  0  0
  149.1365  141.9358  155.3230 N   0  0  0  0  0  0  0  0  0  0  0  0
  148.5020  140.9355  154.5507 C   0  0  0  0  0  0  0  0  0  0  0  0
  147.4575  141.1578  153.7547 N   0  3  0  0  0  0  0  0  0  0  0  0
  147.0971  139.9739  153.1601 C   0  0  0  0  0  0  0  0  0  0  0  0
  147.9758  139.0323  153.6393 C   0  0  0  0  0  0  0  0  0  0  0  0
  148.8658  139.6220  154.5143 O   0  0  0  0  0  0  0  0  0  0  0  0
  151.8905  144.4423  158.1558 C   0  0  0  0  0  0  0  0  0  0  0  0
  152.2009  144.7724  159.5969 C   0  0  0  0  0  0  0  0  0  0  0  0
  150.8721  145.1731  158.9985 C   0  0  0  0  0  0  0  0  0  0  0  0
  152.1852  142.1274  159.6211 H   0  0  0  0  0  0  0  0  0  0  0  0
  151.2370  141.0630  158.5923 H   0  0  0  0  0  0  0  0  0  0  0  0
  150.4567  142.4039  159.4300 H   0  0  0  0  0  0  0  0  0  0  0  0
  152.5618  142.6473  157.2320 H   0  0  0  0  0  0  0  0  0  0  0  0
  150.0501  143.7302  156.5216 H   0  0  0  0  0  0  0  0  0  0  0  0
  146.9802  142.0349  153.5881 H   0  0  0  0  0  0  0  0  0  0  0  0
  146.2680  139.9196  152.4691 H   0  0  0  0  0  0  0  0  0  0  0  0
  148.0992  137.9721  153.4716 H   0  0  0  0  0  0  0  0  0  0  0  0
  152.3997  145.0512  157.4107 H   0  0  0  0  0  0  0  0  0  0  0  0
  152.1976  143.9591  160.3200 H   0  0  0  0  0  0  0  0  0  0  0  0
  152.9265  145.5608  159.7856 H   0  0  0  0  0  0  0  0  0  0  0  0
  150.7123  146.2293  158.7916 H   0  0  0  0  0  0  0  0  0  0  0  0
  149.9910  144.6223  159.3225 H   0  0  0  0  0  0  0  0  0  0  0  0
  148.7751  142.8737  155.2333 H   0  0  0  0  0  0  0  0  0  0  0  0
  1  2  1  0  0  0  0
  1 15  1  0  0  0  0
  1 16  1  0  0  0  0
  1 17  1  0  0  0  0
  2  3  1  0  0  0  0
  2 12  1  0  0  0  0
  2 18  1  0  0  0  0
  3 19  1  0  0  0  0
  3  4  1  0  0  0  0
  4  6  1  0  0  0  0
  4  5  2  0  0  0  0
  6  7  1  0  0  0  0
  6 28  1  0  0  0  0
  7 11  1  0  0  0  0
  7  8  2  0  0  0  0
  8 20  1  0  0  0  0
  8  9  1  0  0  0  0
  9 21  1  0  0  0  0
  9 10  2  0  0  0  0
 10 22  1  0  0  0  0
 10 11  1  0  0  0  0
 12 14  1  0  0  0  0
 12 13  1  0  0  0  0
 12 23  1  0  0  0  0
 13 14  1  0  0  0  0
 13 24  1  0  0  0  0
 13 25  1  0  0  0  0
 14 26  1  0  0  0  0
 14 27  1  0  0  0  0
M  CHG  1   8   1
M  END
> <s_m_source_file>
AV-unprocessed.smi

> <i_m_source_file_index>
2499

> <i_lp_mmshare_version>
43012

> <i_f3d_flags>
0

> <s_epik_input>
W0NIMl0xW0NIMl1bQ0hdMVtDQEhdKFtDSDNdKVtOSF1DKD1PKVtOSF1jMm5bY0hdW2NIXW8y

> <s_epik_cmdline>
J2VwaWtfcHl0aG9uJywgJy1waCcsICc3LjAnLCAnLXRuJywgJzgnLCAnLW1hJywgJzIwMCcsICctbWV0YWxfYmluZGluZycsICctaW1hZScsICc8aW5maWxlLm1hZT4nLCAnLW9tYWUnLCAnPG91dGZpbGUubWFlPic=

> <r_epik_Ionization_Penalty>
6.56099

> <r_epik_Ionization_Penalty_Charging>
6.51293

> <r_epik_Ionization_Penalty_Neutral>
0.0480564

> <r_epik_State_Penalty>
1.72359

> <r_epik_Charging_Adjusted_Penalty>
8.23652

> <i_epik_Tot_Q>
1

> <i_epik_Tot_abs_Q>
1

> <r_epik_Metal_State_Penalty>
1.73747

> <b_epik_Metal_Only>
0

> <s_lp_Force_Field>
OPLS_2005

> <r_lp_Energy>
20.6817

> <b_lp_Chiralities_Consistent>
1

> <s_lp_Variant>
AV-unprocessed.smi:2499-4

> <Gold.Version>
5.8.1

> <Gold.Id.Protein>
6NUR|6NUR_protein|mol2

> <Gold.PLP.Fitness>
38.2204

> <Gold.PLP.PLP>
-29.4089

> <Gold.PLP.part.hbond>
-2.0000

> <Gold.PLP.part.metal>
0.0000

> <Gold.PLP.part.buried>
-4.5162

> <Gold.PLP.part.nonpolar>
-23.5258

> <Gold.PLP.part.repulsive>
0.4545

> <Gold.PLP.ligand.clash>
0.0000

> <Gold.PLP.ligand.torsion>
0.6265

> <Gold.PLP.Chemscore.Hbond>
2.0000

> <Gold.PLP.Chemscore.CHOScore>
1.0000

> <Gold.PLP.Chemscore.Metal>
0.0000

> <Gold.Chemscore.Hbonds>
donor molecule, donor type, donor heavy atom, donor atom, acceptor molecule, acceptor atom, score
      L1  H     3    19       P1  8028  1.00
      L1  H     6    28       P1  8028  1.00
      L1  C    10    22       P1  7948  1.00

> <Gold.PLP.Chemscore.Internal.Correction>
1.0644

> <Gold.Rescore>
     Score         DG    S(hbond)    S(metal)    S(lipo)     H(rot)  DE(clash)    DE(int)     intcor
     14.96     -17.06       1.95        0.00      71.94       1.30       0.09       2.01       ----

> <Gold.Chemscore.Fitness>
14.9584

> <Gold.Chemscore.DG>
-17.0633

> <Gold.Chemscore.ZeroCoef>
-5.4800

> <Gold.Chemscore.Hbond>
1.9470

> <Gold.Chemscore.Metal>
0.0000

> <Gold.Chemscore.Lipo>
71.9430

> <Gold.Chemscore.Internal_Hbond>
0.0000

> <Gold.Chemscore.DEClash>
0.0906

> <Gold.Chemscore.DEInternal>
2.0143

> <Gold.Chemscore.Rot>
1.3036

> <Gold.Chemscore.Internal.Correction>
   9.000000E+99

> <Gold.Chemscore.Hbonds>
donor molecule, donor type, donor heavy atom, donor atom, acceptor molecule, acceptor atom, score
      L1  H     3    19       P1  8028  0.99
      L1  H     6    28       P1  8028  0.95

> <Gold.Chemscore.Hbond.Weighted>
-6.5031

> <Gold.Chemscore.Metal.Weighted>
-0.0000

> <Gold.Chemscore.Lipo.Weighted>
-8.4173

> <Gold.Chemscore.Internal_Hbond.Weighted>
0.0000

> <Gold.Chemscore.DEClash.Weighted>
0.0906

> <Gold.Chemscore.DEInternal.Weighted>
2.0143

> <Gold.Chemscore.Rot.Weighted>
3.3371

> <Gold.Chemscore.Internal.Correction.Weighted>
   9.000000E+99

> <Gold.Protein.RotatedTorsions>
[ 6907 6896 6895 6894 ] final  146.32 input  -60.11 | X-H torsion
[ 7974 7965 7964 7962 ] final  144.66 input  175.53 | X-H torsion
[ 8008 7997 7996 7995 ] final -118.94 input   59.86 | X-H torsion
[ 10167 10162 10161 10158 ] final    0.88 input  -65.29 | X-H torsion
[ 10718 10713 10712 10709 ] final  121.97 input   66.30 | X-H torsion
[ 10763 10752 10751 10750 ] final -135.50 input  -60.55 | X-H torsion
[ 11005 11000 10999 10996 ] final  -87.97 input  -57.11 | X-H torsion

> <Gold.Protein.ActiveResidues>
 VAL166  LYS551  ARG553  GLY616  TRP617  ASP618  TYR619  PRO620  LYS621  CYS622 
 ASP623  PHE694  ASN695  SER759  ASP760  ASP761  ALA762  ILE779  LEU786  VAL792 
 PHE793  MET794  SER795  GLU796  ALA797  LYS798  CYS799  TRP800  GLU811  SER814 

> <Gold.Protein.RotatedAtoms>
  152.1694  133.4633  159.4901 H   0  0  0  0  0  0  0  0  0  0  0  0  # atno 6907 bound_to 6896
  150.6917  134.1972  159.4317 H   0  0  0  0  0  0  0  0  0  0  0  0  # atno 6908 bound_to 6896
  151.9878  134.9995  160.0611 H   0  0  0  0  0  0  0  0  0  0  0  0  # atno 6909 bound_to 6896
  144.8817  139.5689  143.5840 H   0  0  0  0  0  0  0  0  0  0  0  0  # atno 7974 bound_to 7965
  155.1078  140.0397  157.2715 H   0  0  0  0  0  0  0  0  0  0  0  0  # atno 8008 bound_to 7997
  154.6709  140.2612  155.6983 H   0  0  0  0  0  0  0  0  0  0  0  0  # atno 8009 bound_to 7997
  156.2657  140.2798  156.1217 H   0  0  0  0  0  0  0  0  0  0  0  0  # atno 8010 bound_to 7997
  140.6708  143.7053  150.7919 H   0  0  0  0  0  0  0  0  0  0  0  0  # atno 10167 bound_to 10162
  157.5778  131.1078  150.8246 H   0  0  0  0  0  0  0  0  0  0  0  0  # atno 10718 bound_to 10713
  154.8702  135.3701  154.4908 H   0  0  0  0  0  0  0  0  0  0  0  0  # atno 10763 bound_to 10752
  153.5555  135.7024  153.5576 H   0  0  0  0  0  0  0  0  0  0  0  0  # atno 10764 bound_to 10752
  153.3676  135.4030  155.1728 H   0  0  0  0  0  0  0  0  0  0  0  0  # atno 10765 bound_to 10752
  141.1609  133.7542  156.9384 H   0  0  0  0  0  0  0  0  0  0  0  0  # atno 11005 bound_to 11000
  146.2999  139.7392  142.9099 LP  0  0  0  0  0  0  0  0  0  0  0  0  # atno 17320 bound_to 7965
  145.3942  141.0376  143.3107 LP  0  0  0  0  0  0  0  0  0  0  0  0  # atno 17321 bound_to 7965
  140.0738  143.5035  152.2566 LP  0  0  0  0  0  0  0  0  0  0  0  0  # atno 17342 bound_to 10162
  139.5976  144.7572  151.3249 LP  0  0  0  0  0  0  0  0  0  0  0  0  # atno 17343 bound_to 10162
  156.8700  130.5143  149.5297 LP  0  0  0  0  0  0  0  0  0  0  0  0  # atno 17370 bound_to 10713
  156.0823  130.5830  150.9585 LP  0  0  0  0  0  0  0  0  0  0  0  0  # atno 17371 bound_to 10713
  140.1338  134.9338  157.2374 LP  0  0  0  0  0  0  0  0  0  0  0  0  # atno 17394 bound_to 11000
  140.2920  134.3229  155.7312 LP  0  0  0  0  0  0  0  0  0  0  0  0  # atno 17395 bound_to 11000

$$$$
