AV-unprocessed.smi:133|AV-procd|sdf|1166|dock1
  -GOLD-   2262018303D 1   1.00000     0.00000
 Structure written by MMmdl.
 47 50  0  0  0  0  0  0  0  0  1 V2000
  153.0885  138.6865  156.4396 O   0  0  0  0  0  0  0  0  0  0  0  0
  152.1491  139.3863  156.0638 C   0  0  0  0  0  0  0  0  0  0  0  0
  151.4859  139.0512  154.7151 C   0  0  0  0  0  0  0  0  0  0  0  0
  150.3400  138.1146  154.7871 N   0  0  0  0  0  0  0  0  0  0  0  0
  150.5868  136.7645  155.1417 C   0  0  0  0  0  0  0  0  0  0  0  0
  151.7273  136.3666  155.3828 O   0  0  0  0  0  0  0  0  0  0  0  0
  149.4136  135.8986  155.1834 C   0  0  0  0  0  0  0  0  0  0  0  0
  149.5552  134.6004  155.5002 F   0  0  0  0  0  0  0  0  0  0  0  0
  148.1856  136.3799  154.9016 C   0  0  0  0  0  0  0  0  0  0  0  0
  147.9593  137.7007  154.5623 N   0  0  0  0  0  0  0  0  0  0  0  0
  146.5670  138.1937  154.2425 C   0  0  1  0  0  0  0  0  0  0  0  0
  146.4929  138.6711  152.7870 C   0  0  0  0  0  0  0  0  0  0  0  0
  145.8620  137.4823  152.0930 C   0  0  0  0  0  0  0  0  0  0  0  0
  144.9425  136.9442  153.1821 C   0  0  0  0  0  0  0  0  0  0  0  0
  145.6674  137.1330  154.3927 O   0  0  0  0  0  0  0  0  0  0  0  0
  149.0457  138.5984  154.4801 C   0  0  0  0  0  0  0  0  0  0  0  0
  148.8725  139.7693  154.1354 O   0  0  0  0  0  0  0  0  0  0  0  0
  151.6746  140.4452  156.7500 N   0  0  0  0  0  0  0  0  0  0  0  0
  152.1138  140.9677  157.9953 C   0  0  0  0  0  0  0  0  0  0  0  0
  153.0022  140.2746  158.8644 C   0  0  0  0  0  0  0  0  0  0  0  0
  153.3939  140.8414  160.0972 C   0  0  0  0  0  0  0  0  0  0  0  0
  152.8765  142.0994  160.4478 C   0  0  0  0  0  0  0  0  0  0  0  0
  151.9947  142.7723  159.6128 C   0  0  0  0  0  0  0  0  0  0  0  0
  151.5927  142.2242  158.3827 C   0  0  0  0  0  0  0  0  0  0  0  0
  151.5732  144.0915  160.2000 C   0  0  0  0  0  0  0  0  0  0  0  0
  152.1805  144.0767  161.6238 C   0  0  0  0  0  0  0  0  0  0  0  0
  153.1614  142.8816  161.7005 C   0  0  0  0  0  0  0  0  0  0  0  0
  151.1865  139.9899  154.2464 H   0  0  0  0  0  0  0  0  0  0  0  0
  152.2585  138.6666  154.0475 H   0  0  0  0  0  0  0  0  0  0  0  0
  147.3524  135.6937  154.9404 H   0  0  0  0  0  0  0  0  0  0  0  0
  146.3327  138.9703  154.9721 H   0  0  0  0  0  0  0  0  0  0  0  0
  145.8314  139.5369  152.7389 H   0  0  0  0  0  0  0  0  0  0  0  0
  147.4696  138.9507  152.3897 H   0  0  0  0  0  0  0  0  0  0  0  0
  145.3298  137.7520  151.1804 H   0  0  0  0  0  0  0  0  0  0  0  0
  146.6231  136.7430  151.8405 H   0  0  0  0  0  0  0  0  0  0  0  0
  144.0219  137.5278  153.2266 H   0  0  0  0  0  0  0  0  0  0  0  0
  144.6768  135.8975  153.0318 H   0  0  0  0  0  0  0  0  0  0  0  0
  150.9609  140.9850  156.2829 H   0  0  0  0  0  0  0  0  0  0  0  0
  153.3866  139.2990  158.6099 H   0  0  0  0  0  0  0  0  0  0  0  0
  154.0715  140.3177  160.7553 H   0  0  0  0  0  0  0  0  0  0  0  0
  150.9056  142.7609  157.7444 H   0  0  0  0  0  0  0  0  0  0  0  0
  151.9876  144.9032  159.6013 H   0  0  0  0  0  0  0  0  0  0  0  0
  150.4874  144.1894  160.2175 H   0  0  0  0  0  0  0  0  0  0  0  0
  152.6506  145.0238  161.8901 H   0  0  0  0  0  0  0  0  0  0  0  0
  151.3757  143.9090  162.3405 H   0  0  0  0  0  0  0  0  0  0  0  0
  153.0019  142.2749  162.5925 H   0  0  0  0  0  0  0  0  0  0  0  0
  154.1983  143.2189  161.6883 H   0  0  0  0  0  0  0  0  0  0  0  0
  1  2  2  0  0  0  0
  2  3  1  0  0  0  0
  2 18  1  0  0  0  0
  3  4  1  0  0  0  0
  3 28  1  0  0  0  0
  3 29  1  0  0  0  0
  4 16  1  0  0  0  0
  4  5  1  0  0  0  0
  5  6  2  0  0  0  0
  5  7  1  0  0  0  0
  7  8  1  0  0  0  0
  7  9  2  0  0  0  0
  9 10  1  0  0  0  0
  9 30  1  0  0  0  0
 10 11  1  0  0  0  0
 10 16  1  0  0  0  0
 11 15  1  0  0  0  0
 11 12  1  0  0  0  0
 11 31  1  0  0  0  0
 12 13  1  0  0  0  0
 12 32  1  0  0  0  0
 12 33  1  0  0  0  0
 13 14  1  0  0  0  0
 13 34  1  0  0  0  0
 13 35  1  0  0  0  0
 14 15  1  0  0  0  0
 14 36  1  0  0  0  0
 14 37  1  0  0  0  0
 16 17  2  0  0  0  0
 18 19  1  0  0  0  0
 18 38  1  0  0  0  0
 19 24  1  0  0  0  0
 19 20  2  0  0  0  0
 20 21  1  0  0  0  0
 20 39  1  0  0  0  0
 21 22  2  0  0  0  0
 21 40  1  0  0  0  0
 22 27  1  0  0  0  0
 22 23  1  0  0  0  0
 23 24  2  0  0  0  0
 23 25  1  0  0  0  0
 24 41  1  0  0  0  0
 25 26  1  0  0  0  0
 25 42  1  0  0  0  0
 25 43  1  0  0  0  0
 26 27  1  0  0  0  0
 26 44  1  0  0  0  0
 26 45  1  0  0  0  0
 27 46  1  0  0  0  0
 27 47  1  0  0  0  0
M  END
> <s_m_source_file>
AV-unprocessed.smi

> <i_m_source_file_index>
133

> <i_lp_mmshare_version>
43012

> <i_f3d_flags>
0

> <s_epik_input>
W0NIMl0xW0NIMl1bQ0gyXWMoYzEyKVtjSF1jKFtjSF1bY0hdMilbTkhdQyg9TylbQ0gyXW4zYyg9TyljKEYpW2NIXW4oYzM9TylbQ0BASF00W0NIMl1bQ0gyXVtDSDJdTzQ=

> <s_epik_cmdline>
J2VwaWtfcHl0aG9uJywgJy1waCcsICc3LjAnLCAnLXRuJywgJzgnLCAnLW1hJywgJzIwMCcsICctbWV0YWxfYmluZGluZycsICctaW1hZScsICc8aW5maWxlLm1hZT4nLCAnLW9tYWUnLCAnPG91dGZpbGUubWFlPic=

> <r_lp_tautomer_probability>
1

> <r_epik_Ionization_Penalty>
4.05675e-06

> <r_epik_Ionization_Penalty_Charging>
3.88729e-08

> <r_epik_Ionization_Penalty_Neutral>
4.01788e-06

> <r_epik_State_Penalty>
-0

> <r_epik_Charging_Adjusted_Penalty>
3.88729e-08

> <i_epik_Tot_Q>
0

> <i_epik_Tot_abs_Q>
0

> <r_epik_Metal_State_Penalty>
-0

> <b_epik_Metal_Only>
0

> <s_epik_Chemistry_Notes>
This compound contains an acetal/aminal-like group ( X-CH(R)-Y where X, Y are N, S, or O) that may be acid/base labile, releasing an aldehyde.

> <s_lp_Force_Field>
OPLS_2005

> <r_lp_Energy>
47.0615

> <b_lp_Chiralities_Consistent>
1

> <s_lp_Variant>
AV-unprocessed.smi:133-2

> <Gold.Version>
5.8.1

> <Gold.Id.Protein>
6NUR|6NUR_protein|mol2

> <Gold.PLP.Fitness>
53.5980

> <Gold.PLP.PLP>
-48.6331

> <Gold.PLP.part.hbond>
-2.0000

> <Gold.PLP.part.metal>
0.0000

> <Gold.PLP.part.buried>
-4.6592

> <Gold.PLP.part.nonpolar>
-41.7977

> <Gold.PLP.part.repulsive>
1.0167

> <Gold.PLP.ligand.clash>
0.0000

> <Gold.PLP.ligand.torsion>
0.4738

> <Gold.PLP.Chemscore.Hbond>
1.9424

> <Gold.PLP.Chemscore.CHOScore>
0.0000

> <Gold.PLP.Chemscore.Metal>
0.0000

> <Gold.Chemscore.Hbonds>
donor molecule, donor type, donor heavy atom, donor atom, acceptor molecule, acceptor atom, score
      P1  H  7997  8010       L1     1  0.99
      P1  H 10752 10765       L1     6  1.00

> <Gold.PLP.Chemscore.Internal.Correction>
0.0854

> <Gold.Rescore>
     Score         DG    S(hbond)    S(metal)    S(lipo)     H(rot)  DE(clash)    DE(int)     intcor
     18.06     -20.90       1.92        0.00     111.77       1.59       0.10       2.74       ----

> <Gold.Chemscore.Fitness>
18.0565

> <Gold.Chemscore.DG>
-20.9006

> <Gold.Chemscore.ZeroCoef>
-5.4800

> <Gold.Chemscore.Hbond>
1.9181

> <Gold.Chemscore.Metal>
0.0000

> <Gold.Chemscore.Lipo>
111.7662

> <Gold.Chemscore.Internal_Hbond>
0.0000

> <Gold.Chemscore.DEClash>
0.1004

> <Gold.Chemscore.DEInternal>
2.7437

> <Gold.Chemscore.Rot>
1.5869

> <Gold.Chemscore.Internal.Correction>
   9.000000E+99

> <Gold.Chemscore.Hbonds>
donor molecule, donor type, donor heavy atom, donor atom, acceptor molecule, acceptor atom, score
      P1  H  7997  8010       L1     1  0.24
      P1  H 10752 10765       L1     6  0.99

> <Gold.Chemscore.Hbond.Weighted>
-6.4064

> <Gold.Chemscore.Metal.Weighted>
-0.0000

> <Gold.Chemscore.Lipo.Weighted>
-13.0766

> <Gold.Chemscore.Internal_Hbond.Weighted>
0.0000

> <Gold.Chemscore.DEClash.Weighted>
0.1004

> <Gold.Chemscore.DEInternal.Weighted>
2.7437

> <Gold.Chemscore.Rot.Weighted>
4.0624

> <Gold.Chemscore.Internal.Correction.Weighted>
   9.000000E+99

> <Gold.Protein.RotatedTorsions>
[ 6907 6896 6895 6894 ] final   58.21 input  -60.11 | X-H torsion
[ 7974 7965 7964 7962 ] final  -85.47 input  175.53 | X-H torsion
[ 8008 7997 7996 7995 ] final   54.66 input   59.86 | X-H torsion
[ 10167 10162 10161 10158 ] final   35.87 input  -65.29 | X-H torsion
[ 10718 10713 10712 10709 ] final  -53.12 input   66.30 | X-H torsion
[ 10763 10752 10751 10750 ] final  176.49 input  -60.55 | X-H torsion
[ 11005 11000 10999 10996 ] final   29.70 input  -57.11 | X-H torsion

> <Gold.Protein.ActiveResidues>
 VAL166  LYS551  ARG553  GLY616  TRP617  ASP618  TYR619  PRO620  LYS621  CYS622 
 ASP623  PHE694  ASN695  SER759  ASP760  ASP761  ALA762  ILE779  LEU786  VAL792 
 PHE793  MET794  SER795  GLU796  ALA797  LYS798  CYS799  TRP800  GLU811  SER814 

> <Gold.Protein.RotatedAtoms>
  152.3803  134.6601  160.0145 H   0  0  0  0  0  0  0  0  0  0  0  0  # atno 6907 bound_to 6896
  151.6866  133.3306  159.3240 H   0  0  0  0  0  0  0  0  0  0  0  0  # atno 6908 bound_to 6896
  150.7742  134.6671  159.6416 H   0  0  0  0  0  0  0  0  0  0  0  0  # atno 6909 bound_to 6896
  145.4929  140.9552  143.1802 H   0  0  0  0  0  0  0  0  0  0  0  0  # atno 7974 bound_to 7965
  155.4884  140.3470  155.4351 H   0  0  0  0  0  0  0  0  0  0  0  0  # atno 8008 bound_to 7997
  156.0993  140.1431  156.9517 H   0  0  0  0  0  0  0  0  0  0  0  0  # atno 8009 bound_to 7997
  154.4683  140.0909  156.7057 H   0  0  0  0  0  0  0  0  0  0  0  0  # atno 8010 bound_to 7997
  140.4181  144.1498  150.6145 H   0  0  0  0  0  0  0  0  0  0  0  0  # atno 10167 bound_to 10162
  156.1562  130.4150  149.9865 H   0  0  0  0  0  0  0  0  0  0  0  0  # atno 10718 bound_to 10713
  154.4818  135.2775  155.1565 H   0  0  0  0  0  0  0  0  0  0  0  0  # atno 10763 bound_to 10752
  154.3272  135.6197  153.5538 H   0  0  0  0  0  0  0  0  0  0  0  0  # atno 10764 bound_to 10752
  152.9876  135.5757  154.5220 H   0  0  0  0  0  0  0  0  0  0  0  0  # atno 10765 bound_to 10752
  140.3022  134.2744  155.7751 H   0  0  0  0  0  0  0  0  0  0  0  0  # atno 11005 bound_to 11000
  144.7824  139.6499  143.7149 LP  0  0  0  0  0  0  0  0  0  0  0  0  # atno 17320 bound_to 7965
  146.2273  139.5747  142.9578 LP  0  0  0  0  0  0  0  0  0  0  0  0  # atno 17321 bound_to 7965
  140.4564  143.2466  151.9279 LP  0  0  0  0  0  0  0  0  0  0  0  0  # atno 17342 bound_to 10162
  139.4782  144.5511  151.8384 LP  0  0  0  0  0  0  0  0  0  0  0  0  # atno 17343 bound_to 10162
  156.7708  130.9185  151.3644 LP  0  0  0  0  0  0  0  0  0  0  0  0  # atno 17370 bound_to 10713
  157.6697  130.9039  150.0011 LP  0  0  0  0  0  0  0  0  0  0  0  0  # atno 17371 bound_to 10713
  141.2126  133.7653  156.9783 LP  0  0  0  0  0  0  0  0  0  0  0  0  # atno 17394 bound_to 11000
  140.1099  134.9483  157.2050 LP  0  0  0  0  0  0  0  0  0  0  0  0  # atno 17395 bound_to 11000

$$$$
