AV-unprocessed.smi:1891|AV-procd|sdf|7666|dock10
  -GOLD-   22720 9403D 1   1.00000     0.00000
 Structure written by MMmdl.
 36 38  0  0  0  0  0  0  0  0  1 V2000
  152.9345  139.1837  156.5186 O   0  0  0  0  0  0  0  0  0  0  0  0
  152.4969  139.2159  157.8620 C   0  0  0  0  0  0  0  0  0  0  0  0
  152.3314  140.6014  158.4199 C   0  0  0  0  0  0  0  0  0  0  0  0
  152.8697  140.9862  159.5796 N   0  0  0  0  0  0  0  0  0  0  0  0
  152.4698  142.3033  159.6831 C   0  0  0  0  0  0  0  0  0  0  0  0
  152.7156  143.2617  160.6920 C   0  0  0  0  0  0  0  0  0  0  0  0
  152.1956  144.5677  160.5777 C   0  0  0  0  0  0  0  0  0  0  0  0
  151.4261  144.9337  159.4543 C   0  0  0  0  0  0  0  0  0  0  0  0
  151.1693  143.9935  158.4380 C   0  0  0  0  0  0  0  0  0  0  0  0
  151.6882  142.6904  158.5589 C   0  0  0  0  0  0  0  0  0  0  0  0
  151.6152  141.5506  157.7642 N   0  0  0  0  0  0  0  0  0  0  0  0
  150.9053  141.4382  156.4963 C   0  0  0  0  0  0  0  0  0  0  0  0
  149.3788  141.3193  156.6855 C   0  0  1  0  0  0  0  0  0  0  0  0
  148.8804  142.5852  157.0702 O   0  0  0  0  0  0  0  0  0  0  0  0
  148.6768  140.7663  155.4498 C   0  0  0  0  0  0  0  0  0  0  0  0
  147.7236  141.5475  154.7579 C   0  0  0  0  0  0  0  0  0  0  0  0
  147.0927  141.0446  153.6039 C   0  0  0  0  0  0  0  0  0  0  0  0
  147.4109  139.7574  153.1316 C   0  0  0  0  0  0  0  0  0  0  0  0
  146.8053  139.2743  152.0210 F   0  0  0  0  0  0  0  0  0  0  0  0
  148.3604  138.9739  153.8137 C   0  0  0  0  0  0  0  0  0  0  0  0
  148.9922  139.4744  154.9687 C   0  0  0  0  0  0  0  0  0  0  0  0
  149.9108  138.7094  155.6060 F   0  0  0  0  0  0  0  0  0  0  0  0
  152.9140  138.2887  156.2168 H   0  0  0  0  0  0  0  0  0  0  0  0
  151.5448  138.6893  157.9296 H   0  0  0  0  0  0  0  0  0  0  0  0
  153.2192  138.6677  158.4651 H   0  0  0  0  0  0  0  0  0  0  0  0
  153.3044  142.9910  161.5557 H   0  0  0  0  0  0  0  0  0  0  0  0
  152.3882  145.2918  161.3555 H   0  0  0  0  0  0  0  0  0  0  0  0
  151.0319  145.9363  159.3742 H   0  0  0  0  0  0  0  0  0  0  0  0
  150.5780  144.2697  157.5777 H   0  0  0  0  0  0  0  0  0  0  0  0
  151.1368  142.3311  155.9134 H   0  0  0  0  0  0  0  0  0  0  0  0
  151.2916  140.5958  155.9230 H   0  0  0  0  0  0  0  0  0  0  0  0
  149.1740  140.6567  157.5267 H   0  0  0  0  0  0  0  0  0  0  0  0
  149.1387  143.2209  156.4208 H   0  0  0  0  0  0  0  0  0  0  0  0
  147.4772  142.5407  155.1031 H   0  0  0  0  0  0  0  0  0  0  0  0
  146.3667  141.6480  153.0792 H   0  0  0  0  0  0  0  0  0  0  0  0
  148.6077  137.9880  153.4491 H   0  0  0  0  0  0  0  0  0  0  0  0
  1  2  1  0  0  0  0
  1 23  1  0  0  0  0
  2  3  1  0  0  0  0
  2 24  1  0  0  0  0
  2 25  1  0  0  0  0
  3 11  1  0  0  0  0
  3  4  2  0  0  0  0
  4  5  1  0  0  0  0
  5 10  2  0  0  0  0
  5  6  1  0  0  0  0
  6  7  2  0  0  0  0
  6 26  1  0  0  0  0
  7  8  1  0  0  0  0
  7 27  1  0  0  0  0
  8  9  2  0  0  0  0
  8 28  1  0  0  0  0
  9 10  1  0  0  0  0
  9 29  1  0  0  0  0
 10 11  1  0  0  0  0
 11 12  1  0  0  0  0
 12 13  1  0  0  0  0
 12 30  1  0  0  0  0
 12 31  1  0  0  0  0
 13 14  1  0  0  0  0
 13 15  1  0  0  0  0
 13 32  1  0  0  0  0
 14 33  1  0  0  0  0
 15 21  1  0  0  0  0
 15 16  2  0  0  0  0
 16 17  1  0  0  0  0
 16 34  1  0  0  0  0
 17 18  2  0  0  0  0
 17 35  1  0  0  0  0
 18 19  1  0  0  0  0
 18 20  1  0  0  0  0
 20 21  2  0  0  0  0
 20 36  1  0  0  0  0
 21 22  1  0  0  0  0
M  END
> <s_m_source_file>
AV-unprocessed.smi

> <i_m_source_file_index>
1891

> <i_lp_mmshare_version>
43012

> <i_f3d_flags>
0

> <s_epik_input>
W2NIXTFbY0hdW2NIXVtjSF1jKGMxMiluKGMobjIpW0NIMl1bT0hdKVtDSDJdW0NASF0oW09IXSljM1tjSF1bY0hdYyhGKVtjSF1jM0Y=

> <s_epik_cmdline>
J2VwaWtfcHl0aG9uJywgJy1waCcsICc3LjAnLCAnLXRuJywgJzgnLCAnLW1hJywgJzIwMCcsICctbWV0YWxfYmluZGluZycsICctaW1hZScsICc8aW5maWxlLm1hZT4nLCAnLW9tYWUnLCAnPG91dGZpbGUubWFlPic=

> <r_epik_Ionization_Penalty>
0.0634724

> <r_epik_Ionization_Penalty_Charging>
0

> <r_epik_Ionization_Penalty_Neutral>
0.0634724

> <r_epik_State_Penalty>
0.0551572

> <r_epik_Charging_Adjusted_Penalty>
0.0551572

> <i_epik_Tot_Q>
0

> <i_epik_Tot_abs_Q>
0

> <r_epik_Metal_State_Penalty>
5.78034e-05

> <b_epik_Metal_Only>
0

> <s_lp_Force_Field>
OPLS_2005

> <r_lp_Energy>
13.0815

> <b_lp_Chiralities_Consistent>
1

> <s_lp_Variant>
AV-unprocessed.smi:1891-2

> <Gold.Version>
5.8.1

> <Gold.Id.Protein>
6NUR|6NUR_protein|mol2

> <Gold.PLP.Fitness>
50.5383

> <Gold.PLP.PLP>
-45.4709

> <Gold.PLP.part.hbond>
-2.0000

> <Gold.PLP.part.metal>
0.0000

> <Gold.PLP.part.buried>
-2.4966

> <Gold.PLP.part.nonpolar>
-40.8518

> <Gold.PLP.part.repulsive>
0.0000

> <Gold.PLP.ligand.clash>
0.0000

> <Gold.PLP.ligand.torsion>
0.4400

> <Gold.PLP.Chemscore.Hbond>
1.9760

> <Gold.PLP.Chemscore.CHOScore>
0.0000

> <Gold.PLP.Chemscore.Metal>
0.0000

> <Gold.Chemscore.Hbonds>
donor molecule, donor type, donor heavy atom, donor atom, acceptor molecule, acceptor atom, score
      L1  H    14    33       P1  8028  0.98
      P1  H  7997  8010       L1     1  1.00

> <Gold.PLP.Chemscore.Internal.Correction>
0.0194

> <Gold.Rescore>
     Score         DG    S(hbond)    S(metal)    S(lipo)     H(rot)  DE(clash)    DE(int)     intcor
     17.45     -18.23       1.87        0.00     118.52       2.88       0.17       0.61       ----

> <Gold.Chemscore.Fitness>
17.4525

> <Gold.Chemscore.DG>
-18.2287

> <Gold.Chemscore.ZeroCoef>
-5.4800

> <Gold.Chemscore.Hbond>
1.8701

> <Gold.Chemscore.Metal>
0.0000

> <Gold.Chemscore.Lipo>
118.5199

> <Gold.Chemscore.Internal_Hbond>
0.0000

> <Gold.Chemscore.DEClash>
0.1710

> <Gold.Chemscore.DEInternal>
0.6052

> <Gold.Chemscore.Rot>
2.8767

> <Gold.Chemscore.Internal.Correction>
   9.000000E+99

> <Gold.Chemscore.Hbonds>
donor molecule, donor type, donor heavy atom, donor atom, acceptor molecule, acceptor atom, score
      L1  H    14    33       P1  8028  0.93
      P1  H  7997  8010       L1     1  0.49

> <Gold.Chemscore.Hbond.Weighted>
-6.2463

> <Gold.Chemscore.Metal.Weighted>
-0.0000

> <Gold.Chemscore.Lipo.Weighted>
-13.8668

> <Gold.Chemscore.Internal_Hbond.Weighted>
0.0000

> <Gold.Chemscore.DEClash.Weighted>
0.1710

> <Gold.Chemscore.DEInternal.Weighted>
0.6052

> <Gold.Chemscore.Rot.Weighted>
7.3644

> <Gold.Chemscore.Internal.Correction.Weighted>
   9.000000E+99

> <Gold.Protein.RotatedTorsions>
[ 6907 6896 6895 6894 ] final  161.93 input  -60.11 | X-H torsion
[ 7974 7965 7964 7962 ] final  119.93 input  175.53 | X-H torsion
[ 8008 7997 7996 7995 ] final   67.24 input   59.86 | X-H torsion
[ 10167 10162 10161 10158 ] final -173.97 input  -65.29 | X-H torsion
[ 10718 10713 10712 10709 ] final -116.13 input   66.30 | X-H torsion
[ 10763 10752 10751 10750 ] final   59.20 input  -60.55 | X-H torsion
[ 11005 11000 10999 10996 ] final  -33.45 input  -57.11 | X-H torsion

> <Gold.Protein.ActiveResidues>
 VAL166  LYS551  ARG553  GLY616  TRP617  ASP618  TYR619  PRO620  LYS621  CYS622 
 ASP623  PHE694  ASN695  SER759  ASP760  ASP761  ALA762  ILE779  LEU786  VAL792 
 PHE793  MET794  SER795  GLU796  ALA797  LYS798  CYS799  TRP800  GLU811  SER814 

> <Gold.Protein.RotatedAtoms>
  151.9482  133.3658  159.3989 H   0  0  0  0  0  0  0  0  0  0  0  0  # atno 6907 bound_to 6896
  150.6985  134.4368  159.5283 H   0  0  0  0  0  0  0  0  0  0  0  0  # atno 6908 bound_to 6896
  152.2037  134.8565  160.0556 H   0  0  0  0  0  0  0  0  0  0  0  0  # atno 6909 bound_to 6896
  145.1373  139.3290  143.4634 H   0  0  0  0  0  0  0  0  0  0  0  0  # atno 7974 bound_to 7965
  155.6898  140.3496  155.4889 H   0  0  0  0  0  0  0  0  0  0  0  0  # atno 8008 bound_to 7997
  155.9534  140.1123  157.0979 H   0  0  0  0  0  0  0  0  0  0  0  0  # atno 8009 bound_to 7997
  154.4127  140.1189  156.5069 H   0  0  0  0  0  0  0  0  0  0  0  0  # atno 8010 bound_to 7997
  139.5659  144.1756  152.1312 H   0  0  0  0  0  0  0  0  0  0  0  0  # atno 10167 bound_to 10162
  156.0943  130.6119  150.8996 H   0  0  0  0  0  0  0  0  0  0  0  0  # atno 10718 bound_to 10713
  152.9889  135.5580  154.5676 H   0  0  0  0  0  0  0  0  0  0  0  0  # atno 10763 bound_to 10752
  154.5082  135.2801  155.1366 H   0  0  0  0  0  0  0  0  0  0  0  0  # atno 10764 bound_to 10752
  154.2769  135.6352  153.5384 H   0  0  0  0  0  0  0  0  0  0  0  0  # atno 10765 bound_to 10752
  140.9635  133.7150  156.1408 H   0  0  0  0  0  0  0  0  0  0  0  0  # atno 11005 bound_to 11000
  146.3508  140.1396  142.8595 LP  0  0  0  0  0  0  0  0  0  0  0  0  # atno 17320 bound_to 7965
  145.0570  140.9060  143.4961 LP  0  0  0  0  0  0  0  0  0  0  0  0  # atno 17321 bound_to 7965
  140.1279  144.5315  150.6821 LP  0  0  0  0  0  0  0  0  0  0  0  0  # atno 17342 bound_to 10162
  140.6943  143.2394  151.5045 LP  0  0  0  0  0  0  0  0  0  0  0  0  # atno 17343 bound_to 10162
  157.6100  131.0937  150.8812 LP  0  0  0  0  0  0  0  0  0  0  0  0  # atno 17370 bound_to 10713
  156.8953  130.5227  149.5284 LP  0  0  0  0  0  0  0  0  0  0  0  0  # atno 17371 bound_to 10713
  140.7432  134.4127  157.5552 LP  0  0  0  0  0  0  0  0  0  0  0  0  # atno 17394 bound_to 11000
  139.8886  134.8851  156.2463 LP  0  0  0  0  0  0  0  0  0  0  0  0  # atno 17395 bound_to 11000

$$$$
