AV-unprocessed.smi:1726|AV-procd|sdf|6961|dock5
  -GOLD-   22720 8173D 1   1.00000     0.00000
 Structure written by MMmdl.
 42 43  0  0  0  0  0  0  0  0  3 V2000
  145.2983  135.3627  151.4778 C   0  0  0  0  0  0  0  0  0  0  0  0
  145.6177  135.8705  152.8914 C   0  0  0  0  0  0  0  0  0  0  0  0
  146.5749  137.0058  152.8887 N   0  3  1  0  0  0  0  0  0  0  0  0
  146.0162  138.2059  152.2131 C   0  0  0  0  0  0  0  0  0  0  0  0
  147.0669  139.3228  152.1001 C   0  0  0  0  0  0  0  0  0  0  0  0
  147.6340  139.6881  153.4778 C   0  0  0  0  0  0  0  0  0  0  0  0
  148.1839  138.4307  154.1679 C   0  0  1  0  0  0  0  0  0  0  0  0
  148.6707  138.7678  155.5020 N   0  0  0  0  0  0  0  0  0  0  0  0
  149.7965  139.4479  155.7624 C   0  0  0  0  0  0  0  0  0  0  0  0
  150.5502  139.8616  154.8811 O   0  0  0  0  0  0  0  0  0  0  0  0
  149.9818  139.5802  157.0877 N   0  0  0  0  0  0  0  0  0  0  0  0
  151.0157  140.2349  157.7780 C   0  0  0  0  0  0  0  0  0  0  0  0
  150.9719  141.5320  158.1905 C   0  0  0  0  0  0  0  0  0  0  0  0
  152.0689  142.1557  158.9196 C   0  0  0  0  0  0  0  0  0  0  0  0
  152.0955  143.6234  159.3077 C   0  0  0  0  0  0  0  0  0  0  0  0
  152.9994  144.2705  158.5734 F   0  0  0  0  0  0  0  0  0  0  0  0
  150.9083  144.1955  159.1047 F   0  0  0  0  0  0  0  0  0  0  0  0
  152.4198  143.7716  160.5923 F   0  0  0  0  0  0  0  0  0  0  0  0
  153.1250  141.2882  159.1208 C   0  0  0  0  0  0  0  0  0  0  0  0
  153.2359  139.9876  158.7714 N   0  5  0  0  0  0  0  0  0  0  0  0
  152.2032  139.4139  158.0919 C   0  0  0  0  0  0  0  0  0  0  0  0
  152.2401  138.2350  157.7375 O   0  0  0  0  0  0  0  0  0  0  0  0
  147.0979  137.3363  154.2412 C   0  0  0  0  0  0  0  0  0  0  0  0
  144.5198  134.6004  151.5131 H   0  0  0  0  0  0  0  0  0  0  0  0
  146.1658  134.9128  150.9959 H   0  0  0  0  0  0  0  0  0  0  0  0
  144.9389  136.1708  150.8401 H   0  0  0  0  0  0  0  0  0  0  0  0
  144.6800  136.1944  153.3450 H   0  0  0  0  0  0  0  0  0  0  0  0
  145.9980  135.0605  153.5154 H   0  0  0  0  0  0  0  0  0  0  0  0
  145.6711  137.9400  151.2132 H   0  0  0  0  0  0  0  0  0  0  0  0
  145.1450  138.5629  152.7651 H   0  0  0  0  0  0  0  0  0  0  0  0
  147.8763  138.9990  151.4444 H   0  0  0  0  0  0  0  0  0  0  0  0
  146.6256  140.2041  151.6339 H   0  0  0  0  0  0  0  0  0  0  0  0
  148.4193  140.4375  153.3710 H   0  0  0  0  0  0  0  0  0  0  0  0
  146.8507  140.1397  154.0886 H   0  0  0  0  0  0  0  0  0  0  0  0
  149.0216  138.0573  153.5748 H   0  0  0  0  0  0  0  0  0  0  0  0
  148.1117  138.4610  156.2850 H   0  0  0  0  0  0  0  0  0  0  0  0
  149.3145  139.1160  157.6864 H   0  0  0  0  0  0  0  0  0  0  0  0
  150.1016  142.1405  158.0077 H   0  0  0  0  0  0  0  0  0  0  0  0
  154.0169  141.7024  159.6376 H   0  0  0  0  0  0  0  0  0  0  0  0
  146.2747  137.6609  154.8801 H   0  0  0  0  0  0  0  0  0  0  0  0
  147.5202  136.4443  154.7024 H   0  0  0  0  0  0  0  0  0  0  0  0
  147.3655  136.7116  152.3329 H   0  0  0  0  0  0  0  0  0  0  0  0
  1  2  1  0  0  0  0
  1 24  1  0  0  0  0
  1 25  1  0  0  0  0
  1 26  1  0  0  0  0
  2  3  1  0  0  0  0
  2 27  1  0  0  0  0
  2 28  1  0  0  0  0
  3 23  1  0  0  0  0
  3  4  1  0  0  0  0
  3 42  1  0  0  0  0
  4  5  1  0  0  0  0
  4 29  1  0  0  0  0
  4 30  1  0  0  0  0
  5  6  1  0  0  0  0
  5 31  1  0  0  0  0
  5 32  1  0  0  0  0
  6  7  1  0  0  0  0
  6 33  1  0  0  0  0
  6 34  1  0  0  0  0
  7  8  1  0  0  0  0
  7 23  1  0  0  0  0
  7 35  1  0  0  0  0
  8  9  1  0  0  0  0
  8 36  1  0  0  0  0
  9 10  2  0  0  0  0
  9 11  1  0  0  0  0
 11 12  1  0  0  0  0
 11 37  1  0  0  0  0
 12 21  1  0  0  0  0
 12 13  2  0  0  0  0
 13 14  1  0  0  0  0
 13 38  1  0  0  0  0
 14 15  1  0  0  0  0
 14 19  2  0  0  0  0
 15 16  1  0  0  0  0
 15 17  1  0  0  0  0
 15 18  1  0  0  0  0
 19 20  1  0  0  0  0
 19 39  1  0  0  0  0
 20 21  1  0  0  0  0
 21 22  2  0  0  0  0
 23 40  1  0  0  0  0
 23 41  1  0  0  0  0
M  CHG  1   3   1
M  CHG  1  20  -1
M  END
> <s_m_source_file>
AV-unprocessed.smi

> <i_m_source_file_index>
1726

> <i_lp_mmshare_version>
43012

> <i_f3d_flags>
0

> <s_epik_input>
W0NIM11bQ0gyXU4xW0NIMl1bQ0gyXVtDSDJdW0NASF0oW0NIMl0xKVtOSF1DKD1PKVtOSF1jMltjSF1jKEMoRikoRilGKVtjSF1bbkhdYzI9Tw==

> <s_epik_cmdline>
J2VwaWtfcHl0aG9uJywgJy1waCcsICc3LjAnLCAnLXRuJywgJzgnLCAnLW1hJywgJzIwMCcsICctbWV0YWxfYmluZGluZycsICctaW1hZScsICc8aW5maWxlLm1hZT4nLCAnLW9tYWUnLCAnPG91dGZpbGUubWFlPic=

> <r_lp_tautomer_probability>
1

> <r_epik_Ionization_Penalty>
3.01007

> <r_epik_Ionization_Penalty_Charging>
0.14897

> <r_epik_Ionization_Penalty_Neutral>
2.8611

> <r_epik_State_Penalty>
2.85632

> <r_epik_Charging_Adjusted_Penalty>
3.00529

> <i_epik_Tot_Q>
0

> <i_epik_Tot_abs_Q>
2

> <r_epik_Metal_State_Penalty>
0.443826

> <b_epik_Metal_Only>
1

> <s_lp_Force_Field>
OPLS_2005

> <r_lp_Energy>
27.5117

> <b_lp_Chiralities_Consistent>
1

> <s_lp_Variant>
AV-unprocessed.smi:1726-5

> <Gold.Version>
5.8.1

> <Gold.Id.Protein>
6NUR|6NUR_protein|mol2

> <Gold.PLP.Fitness>
49.2602

> <Gold.PLP.PLP>
-36.8664

> <Gold.PLP.part.hbond>
-3.0000

> <Gold.PLP.part.metal>
0.0000

> <Gold.PLP.part.buried>
-0.0766

> <Gold.PLP.part.nonpolar>
-34.0105

> <Gold.PLP.part.repulsive>
0.1013

> <Gold.PLP.ligand.clash>
0.0000

> <Gold.PLP.ligand.torsion>
1.1715

> <Gold.PLP.Chemscore.Hbond>
4.8880

> <Gold.PLP.Chemscore.CHOScore>
0.0000

> <Gold.PLP.Chemscore.Metal>
0.0000

> <Gold.Chemscore.Hbonds>
donor molecule, donor type, donor heavy atom, donor atom, acceptor molecule, acceptor atom, score
      L1  H     3    42       P1  7948  2.00
      P1  H  7989  7998       L1    10  1.00
      P1  H  7997  8008       L1    20  1.11

> <Gold.PLP.Chemscore.Internal.Correction>
0.0728

> <Gold.Rescore>
     Score         DG    S(hbond)    S(metal)    S(lipo)     H(rot)  DE(clash)    DE(int)     intcor
     17.43     -18.59       2.32        0.00      73.95       1.28       0.04       1.12       ----

> <Gold.Chemscore.Fitness>
17.4350

> <Gold.Chemscore.DG>
-18.5916

> <Gold.Chemscore.ZeroCoef>
-5.4800

> <Gold.Chemscore.Hbond>
2.3161

> <Gold.Chemscore.Metal>
0.0000

> <Gold.Chemscore.Lipo>
73.9460

> <Gold.Chemscore.Internal_Hbond>
0.0000

> <Gold.Chemscore.DEClash>
0.0400

> <Gold.Chemscore.DEInternal>
1.1166

> <Gold.Chemscore.Rot>
1.2796

> <Gold.Chemscore.Internal.Correction>
   9.000000E+99

> <Gold.Chemscore.Hbonds>
donor molecule, donor type, donor heavy atom, donor atom, acceptor molecule, acceptor atom, score
      L1  H     3    42       P1  7948  1.00
      P1  H  7989  7998       L1    10  0.93
      P1  H  7997  8008       L1    20  0.06

> <Gold.Chemscore.Hbond.Weighted>
-7.7358

> <Gold.Chemscore.Metal.Weighted>
-0.0000

> <Gold.Chemscore.Lipo.Weighted>
-8.6517

> <Gold.Chemscore.Internal_Hbond.Weighted>
0.0000

> <Gold.Chemscore.DEClash.Weighted>
0.0400

> <Gold.Chemscore.DEInternal.Weighted>
1.1166

> <Gold.Chemscore.Rot.Weighted>
3.2759

> <Gold.Chemscore.Internal.Correction.Weighted>
   9.000000E+99

> <Gold.Protein.RotatedTorsions>
[ 6907 6896 6895 6894 ] final   38.24 input  -60.11 | X-H torsion
[ 7974 7965 7964 7962 ] final  125.59 input  175.53 | X-H torsion
[ 8008 7997 7996 7995 ] final -100.29 input   59.86 | X-H torsion
[ 10167 10162 10161 10158 ] final  158.86 input  -65.29 | X-H torsion
[ 10718 10713 10712 10709 ] final -179.81 input   66.30 | X-H torsion
[ 10763 10752 10751 10750 ] final  121.55 input  -60.55 | X-H torsion
[ 11005 11000 10999 10996 ] final  -75.82 input  -57.11 | X-H torsion

> <Gold.Protein.ActiveResidues>
 VAL166  LYS551  ARG553  GLY616  TRP617  ASP618  TYR619  PRO620  LYS621  CYS622 
 ASP623  PHE694  ASN695  SER759  ASP760  ASP761  ALA762  ILE779  LEU786  VAL792 
 PHE793  MET794  SER795  GLU796  ALA797  LYS798  CYS799  TRP800  GLU811  SER814 

> <Gold.Protein.RotatedAtoms>
  152.1538  134.8967  160.0546 H   0  0  0  0  0  0  0  0  0  0  0  0  # atno 6907 bound_to 6896
  151.9989  133.3813  159.4182 H   0  0  0  0  0  0  0  0  0  0  0  0  # atno 6908 bound_to 6896
  150.6879  134.3778  159.5064 H   0  0  0  0  0  0  0  0  0  0  0  0  # atno 6909 bound_to 6896
  145.0713  139.3728  143.4956 H   0  0  0  0  0  0  0  0  0  0  0  0  # atno 7974 bound_to 7965
  154.8266  140.0442  157.1448 H   0  0  0  0  0  0  0  0  0  0  0  0  # atno 8008 bound_to 7997
  154.9199  140.3025  155.5201 H   0  0  0  0  0  0  0  0  0  0  0  0  # atno 8009 bound_to 7997
  156.2984  140.2342  156.4248 H   0  0  0  0  0  0  0  0  0  0  0  0  # atno 8010 bound_to 7997
  139.4829  144.4784  151.8478 H   0  0  0  0  0  0  0  0  0  0  0  0  # atno 10167 bound_to 10162
  156.8646  130.9763  151.3080 H   0  0  0  0  0  0  0  0  0  0  0  0  # atno 10718 bound_to 10713
  153.6159  135.3422  155.2994 H   0  0  0  0  0  0  0  0  0  0  0  0  # atno 10763 bound_to 10752
  154.8609  135.4261  154.2260 H   0  0  0  0  0  0  0  0  0  0  0  0  # atno 10764 bound_to 10752
  153.3121  135.7032  153.7179 H   0  0  0  0  0  0  0  0  0  0  0  0  # atno 10765 bound_to 10752
  141.1649  133.6960  156.7575 H   0  0  0  0  0  0  0  0  0  0  0  0  # atno 11005 bound_to 11000
  146.3529  140.0459  142.8639 LP  0  0  0  0  0  0  0  0  0  0  0  0  # atno 17320 bound_to 7965
  145.1289  140.9506  143.4556 LP  0  0  0  0  0  0  0  0  0  0  0  0  # atno 17321 bound_to 7965
  140.4258  144.2182  150.5887 LP  0  0  0  0  0  0  0  0  0  0  0  0  # atno 17342 bound_to 10162
  140.4828  143.2373  151.8931 LP  0  0  0  0  0  0  0  0  0  0  0  0  # atno 17343 bound_to 10162
  157.6230  130.8670  149.9142 LP  0  0  0  0  0  0  0  0  0  0  0  0  # atno 17370 bound_to 10713
  156.0758  130.3679  150.0680 LP  0  0  0  0  0  0  0  0  0  0  0  0  # atno 17371 bound_to 10713
  140.2558  134.8505  157.3712 LP  0  0  0  0  0  0  0  0  0  0  0  0  # atno 17394 bound_to 11000
  140.1658  134.4671  155.7864 LP  0  0  0  0  0  0  0  0  0  0  0  0  # atno 17395 bound_to 11000

$$$$
