AV-unprocessed.smi:1626|AV-procd|sdf|6510|dock3
  -GOLD-   22720 7183D 1   1.00000     0.00000
 Structure written by MMmdl.
 49 51  0  0  0  0  0  0  0  0  3 V2000
  152.7836  143.2157  161.2917 C   0  0  0  0  0  0  0  0  0  0  0  0
  152.1101  142.8064  159.9929 C   0  0  0  0  0  0  0  0  0  0  0  0
  152.1565  141.4471  159.6083 C   0  0  0  0  0  0  0  0  0  0  0  0
  151.5281  141.1030  158.4175 C   0  0  0  0  0  0  0  0  0  0  0  0
  151.3920  139.8694  157.7769 N   0  3  0  0  0  0  0  0  0  0  0  0
  150.6821  140.0306  156.6257 C   0  0  0  0  0  0  0  0  0  0  0  0
  150.3739  141.3521  156.5159 N   0  0  0  0  0  0  0  0  0  0  0  0
  149.6184  142.0647  155.4773 C   0  0  0  0  0  0  0  0  0  0  0  0
  148.9127  141.1239  154.4787 C   0  0  2  0  0  0  0  0  0  0  0  0
  149.8603  140.7803  153.4883 O   0  0  0  0  0  0  0  0  0  0  0  0
  147.6802  141.7627  153.8004 C   0  0  0  0  0  0  0  0  0  0  0  0
  146.9449  142.6897  154.6992 N   0  3  2  0  0  0  0  0  0  0  0  0
  146.6035  142.0582  156.0005 C   0  0  0  0  0  0  0  0  0  0  0  0
  145.9741  143.0774  156.9649 C   0  0  0  0  0  0  0  0  0  0  0  0
  144.7348  143.7325  156.3376 C   0  0  1  0  0  0  0  0  0  0  0  0
  144.2397  144.7334  157.2010 O   0  0  0  0  0  0  0  0  0  0  0  0
  145.1027  144.3511  154.9811 C   0  0  0  0  0  0  0  0  0  0  0  0
  145.7492  143.3030  154.0594 C   0  0  0  0  0  0  0  0  0  0  0  0
  150.8717  142.0575  157.6166 C   0  0  0  0  0  0  0  0  0  0  0  0
  150.8145  143.4002  157.9812 C   0  0  0  0  0  0  0  0  0  0  0  0
  151.4488  143.7706  159.1886 C   0  0  0  0  0  0  0  0  0  0  0  0
  151.4057  145.2293  159.6112 C   0  0  0  0  0  0  0  0  0  0  0  0
  153.2046  142.3547  161.8116 H   0  0  0  0  0  0  0  0  0  0  0  0
  152.0673  143.6905  161.9627 H   0  0  0  0  0  0  0  0  0  0  0  0
  153.5946  143.9178  161.0972 H   0  0  0  0  0  0  0  0  0  0  0  0
  152.6562  140.7076  160.2169 H   0  0  0  0  0  0  0  0  0  0  0  0
  150.4138  139.2510  155.9270 H   0  0  0  0  0  0  0  0  0  0  0  0
  148.8861  142.6948  155.9846 H   0  0  0  0  0  0  0  0  0  0  0  0
  150.3039  142.7398  154.9626 H   0  0  0  0  0  0  0  0  0  0  0  0
  148.6319  140.2103  155.0004 H   0  0  0  0  0  0  0  0  0  0  0  0
  149.4718  140.1620  152.8886 H   0  0  0  0  0  0  0  0  0  0  0  0
  147.9652  142.3083  152.9002 H   0  0  0  0  0  0  0  0  0  0  0  0
  147.0180  140.9614  153.4685 H   0  0  0  0  0  0  0  0  0  0  0  0
  145.9205  141.2233  155.8346 H   0  0  0  0  0  0  0  0  0  0  0  0
  147.5039  141.6460  156.4579 H   0  0  0  0  0  0  0  0  0  0  0  0
  145.7062  142.5856  157.9009 H   0  0  0  0  0  0  0  0  0  0  0  0
  146.7122  143.8410  157.2160 H   0  0  0  0  0  0  0  0  0  0  0  0
  143.9541  142.9830  156.2001 H   0  0  0  0  0  0  0  0  0  0  0  0
  144.4776  144.5138  158.0892 H   0  0  0  0  0  0  0  0  0  0  0  0
  144.2139  144.7666  154.5043 H   0  0  0  0  0  0  0  0  0  0  0  0
  145.7949  145.1823  155.1255 H   0  0  0  0  0  0  0  0  0  0  0  0
  146.0212  143.7813  153.1193 H   0  0  0  0  0  0  0  0  0  0  0  0
  145.0256  142.5233  153.8162 H   0  0  0  0  0  0  0  0  0  0  0  0
  150.3054  144.1329  157.3725 H   0  0  0  0  0  0  0  0  0  0  0  0
  150.8978  145.8449  158.8685 H   0  0  0  0  0  0  0  0  0  0  0  0
  152.4145  145.6237  159.7351 H   0  0  0  0  0  0  0  0  0  0  0  0
  150.8717  145.3378  160.5555 H   0  0  0  0  0  0  0  0  0  0  0  0
  147.5835  143.4413  154.9164 H   0  0  0  0  0  0  0  0  0  0  0  0
  151.7481  138.9803  158.1044 H   0  0  0  0  0  0  0  0  0  0  0  0
  1  2  1  0  0  0  0
  1 23  1  0  0  0  0
  1 24  1  0  0  0  0
  1 25  1  0  0  0  0
  2 21  1  0  0  0  0
  2  3  2  0  0  0  0
  3  4  1  0  0  0  0
  3 26  1  0  0  0  0
  4 19  2  0  0  0  0
  4  5  1  0  0  0  0
  5  6  2  0  0  0  0
  5 49  1  0  0  0  0
  6  7  1  0  0  0  0
  6 27  1  0  0  0  0
  7  8  1  0  0  0  0
  7 19  1  0  0  0  0
  8  9  1  0  0  0  0
  8 28  1  0  0  0  0
  8 29  1  0  0  0  0
  9 10  1  0  0  0  0
  9 11  1  0  0  0  0
  9 30  1  0  0  0  0
 10 31  1  0  0  0  0
 11 12  1  0  0  0  0
 11 32  1  0  0  0  0
 11 33  1  0  0  0  0
 12 18  1  0  0  0  0
 12 13  1  0  0  0  0
 12 48  1  0  0  0  0
 13 14  1  0  0  0  0
 13 34  1  0  0  0  0
 13 35  1  0  0  0  0
 14 15  1  0  0  0  0
 14 36  1  0  0  0  0
 14 37  1  0  0  0  0
 15 16  1  0  0  0  0
 15 17  1  0  0  0  0
 15 38  1  0  0  0  0
 16 39  1  0  0  0  0
 17 18  1  0  0  0  0
 17 40  1  0  0  0  0
 17 41  1  0  0  0  0
 18 42  1  0  0  0  0
 18 43  1  0  0  0  0
 19 20  1  0  0  0  0
 20 21  2  0  0  0  0
 20 44  1  0  0  0  0
 21 22  1  0  0  0  0
 22 45  1  0  0  0  0
 22 46  1  0  0  0  0
 22 47  1  0  0  0  0
M  CHG  1   5   1
M  CHG  1  12   1
M  END
> <s_m_source_file>
AV-unprocessed.smi

> <i_m_source_file_index>
1626

> <i_lp_mmshare_version>
43012

> <i_f3d_flags>
0

> <s_epik_input>
W0NIM11jKFtjSF0xKWMoW0NIM10pW2NIXWMoYzEyKW4oW2NIXW4yKVtDSDJdW0NASF0oW09IXSlbQ0gyXU4zW0NIMl1bQ0gyXVtDSF0oW09IXSlbQ0gyXVtDSDJdMw==

> <s_epik_cmdline>
J2VwaWtfcHl0aG9uJywgJy1waCcsICc3LjAnLCAnLXRuJywgJzgnLCAnLW1hJywgJzIwMCcsICctbWV0YWxfYmluZGluZycsICctaW1hZScsICc8aW5maWxlLm1hZT4nLCAnLW9tYWUnLCAnPG91dGZpbGUubWFlPic=

> <r_epik_Ionization_Penalty>
1.19369

> <r_epik_Ionization_Penalty_Charging>
1.19369

> <r_epik_Ionization_Penalty_Neutral>
1.68219e-06

> <r_epik_State_Penalty>
1.27429

> <r_epik_Charging_Adjusted_Penalty>
2.46798

> <i_epik_Tot_Q>
2

> <i_epik_Tot_abs_Q>
2

> <r_epik_Metal_State_Penalty>
5.29157

> <b_epik_Metal_Only>
0

> <s_lp_Force_Field>
OPLS_2005

> <r_lp_Energy>
33.2617

> <b_lp_Chiralities_Consistent>
1

> <s_lp_Variant>
AV-unprocessed.smi:1626-5

> <Gold.Version>
5.8.1

> <Gold.Id.Protein>
6NUR|6NUR_protein|mol2

> <Gold.PLP.Fitness>
55.3304

> <Gold.PLP.PLP>
-44.8375

> <Gold.PLP.part.hbond>
-3.1561

> <Gold.PLP.part.metal>
0.0000

> <Gold.PLP.part.buried>
-3.8121

> <Gold.PLP.part.nonpolar>
-37.1158

> <Gold.PLP.part.repulsive>
0.1634

> <Gold.PLP.ligand.clash>
0.0000

> <Gold.PLP.ligand.torsion>
0.6822

> <Gold.PLP.Chemscore.Hbond>
3.9440

> <Gold.PLP.Chemscore.CHOScore>
0.0000

> <Gold.PLP.Chemscore.Metal>
0.0000

> <Gold.Chemscore.Hbonds>
donor molecule, donor type, donor heavy atom, donor atom, acceptor molecule, acceptor atom, score
      L1  H    10    31       P1  7957  0.59
      L1  H    12    48       P1  8028  2.00
      P1  H  7989  7998       L1    10  0.35
      P1  H  8011  8017       L1    10  0.95

> <Gold.PLP.Chemscore.Internal.Correction>
0.0253

> <Gold.Rescore>
     Score         DG    S(hbond)    S(metal)    S(lipo)     H(rot)  DE(clash)    DE(int)     intcor
     15.19     -17.31       1.40        0.00     120.97       2.74       1.41       0.71       ----

> <Gold.Chemscore.Fitness>
15.1922

> <Gold.Chemscore.DG>
-17.3087

> <Gold.Chemscore.ZeroCoef>
-5.4800

> <Gold.Chemscore.Hbond>
1.4028

> <Gold.Chemscore.Metal>
0.0000

> <Gold.Chemscore.Lipo>
120.9718

> <Gold.Chemscore.Internal_Hbond>
0.0000

> <Gold.Chemscore.DEClash>
1.4067

> <Gold.Chemscore.DEInternal>
0.7098

> <Gold.Chemscore.Rot>
2.7384

> <Gold.Chemscore.Internal.Correction>
   9.000000E+99

> <Gold.Chemscore.Hbonds>
donor molecule, donor type, donor heavy atom, donor atom, acceptor molecule, acceptor atom, score
      L1  H    10    31       P1  7957  0.60
      L1  H    12    48       P1  8028  0.25
      P1  H  7989  7998       L1    10  0.33
      P1  H  8011  8017       L1    10  0.06

> <Gold.Chemscore.Hbond.Weighted>
-4.6854

> <Gold.Chemscore.Metal.Weighted>
-0.0000

> <Gold.Chemscore.Lipo.Weighted>
-14.1537

> <Gold.Chemscore.Internal_Hbond.Weighted>
0.0000

> <Gold.Chemscore.DEClash.Weighted>
1.4067

> <Gold.Chemscore.DEInternal.Weighted>
0.7098

> <Gold.Chemscore.Rot.Weighted>
7.0103

> <Gold.Chemscore.Internal.Correction.Weighted>
   9.000000E+99

> <Gold.Protein.RotatedTorsions>
[ 6907 6896 6895 6894 ] final   19.48 input  -60.11 | X-H torsion
[ 7974 7965 7964 7962 ] final -111.63 input  175.53 | X-H torsion
[ 8008 7997 7996 7995 ] final  -24.40 input   59.86 | X-H torsion
[ 10167 10162 10161 10158 ] final -159.45 input  -65.29 | X-H torsion
[ 10718 10713 10712 10709 ] final   56.01 input   66.30 | X-H torsion
[ 10763 10752 10751 10750 ] final  138.53 input  -60.55 | X-H torsion
[ 11005 11000 10999 10996 ] final  -76.70 input  -57.11 | X-H torsion

> <Gold.Protein.ActiveResidues>
 VAL166  LYS551  ARG553  GLY616  TRP617  ASP618  TYR619  PRO620  LYS621  CYS622 
 ASP623  PHE694  ASN695  SER759  ASP760  ASP761  ALA762  ILE779  LEU786  VAL792 
 PHE793  MET794  SER795  GLU796  ALA797  LYS798  CYS799  TRP800  GLU811  SER814 

> <Gold.Protein.RotatedAtoms>
  151.8816  135.0451  160.0489 H   0  0  0  0  0  0  0  0  0  0  0  0  # atno 6907 bound_to 6896
  152.2508  133.5209  159.5332 H   0  0  0  0  0  0  0  0  0  0  0  0  # atno 6908 bound_to 6896
  150.7083  134.0879  159.3963 H   0  0  0  0  0  0  0  0  0  0  0  0  # atno 6909 bound_to 6896
  145.1538  140.8843  143.3631 H   0  0  0  0  0  0  0  0  0  0  0  0  # atno 7974 bound_to 7965
  154.4531  140.1954  156.0459 H   0  0  0  0  0  0  0  0  0  0  0  0  # atno 8008 bound_to 7997
  156.0690  140.3287  155.7525 H   0  0  0  0  0  0  0  0  0  0  0  0  # atno 8009 bound_to 7997
  155.5293  140.0576  157.2883 H   0  0  0  0  0  0  0  0  0  0  0  0  # atno 8010 bound_to 7997
  139.6614  143.9905  152.2228 H   0  0  0  0  0  0  0  0  0  0  0  0  # atno 10167 bound_to 10162
  157.5394  130.8687  149.8801 H   0  0  0  0  0  0  0  0  0  0  0  0  # atno 10718 bound_to 10713
  153.8911  135.3033  155.3447 H   0  0  0  0  0  0  0  0  0  0  0  0  # atno 10763 bound_to 10752
  154.7716  135.4883  153.9663 H   0  0  0  0  0  0  0  0  0  0  0  0  # atno 10764 bound_to 10752
  153.1297  135.6801  153.9297 H   0  0  0  0  0  0  0  0  0  0  0  0  # atno 10765 bound_to 10752
  141.1655  133.6994  156.7709 H   0  0  0  0  0  0  0  0  0  0  0  0  # atno 11005 bound_to 11000
  145.0403  139.3266  143.5980 LP  0  0  0  0  0  0  0  0  0  0  0  0  # atno 17320 bound_to 7965
  146.3491  139.9773  142.8699 LP  0  0  0  0  0  0  0  0  0  0  0  0  # atno 17321 bound_to 7965
  139.9645  144.6535  150.8047 LP  0  0  0  0  0  0  0  0  0  0  0  0  # atno 17342 bound_to 10162
  140.7581  143.3101  151.2865 LP  0  0  0  0  0  0  0  0  0  0  0  0  # atno 17343 bound_to 10162
  156.0485  130.3722  150.1259 LP  0  0  0  0  0  0  0  0  0  0  0  0  # atno 17370 bound_to 10713
  156.9439  130.9753  151.3511 LP  0  0  0  0  0  0  0  0  0  0  0  0  # atno 17371 bound_to 10713
  140.2465  134.8573  157.3625 LP  0  0  0  0  0  0  0  0  0  0  0  0  # atno 17394 bound_to 11000
  140.1744  134.4568  155.7811 LP  0  0  0  0  0  0  0  0  0  0  0  0  # atno 17395 bound_to 11000

$$$$
