AV-unprocessed.smi:149|AV-procd|sdf|1240|dock3
  -GOLD-   2262018453D 1   1.00000     0.00000
 Structure written by MMmdl.
 59 63  0  0  0  0  0  0  0  0  1 V2000
  147.4452  140.7157  157.2944 C   0  0  0  0  0  0  0  0  0  0  0  0
  146.0198  140.1397  157.2330 C   0  0  2  0  0  0  0  0  0  0  0  0
  145.8111  138.9885  156.2541 C   0  0  0  0  0  0  0  0  0  0  0  0
  144.3652  138.8931  156.1142 N   0  0  0  0  0  0  0  0  0  0  0  0
  143.8158  138.0242  155.2245 C   0  0  0  0  0  0  0  0  0  0  0  0
  142.4730  137.8122  155.2610 N   0  0  0  0  0  0  0  0  0  0  0  0
  141.8927  136.9693  154.4029 C   0  0  0  0  0  0  0  0  0  0  0  0
  142.4571  136.2441  153.4372 N   0  0  0  0  0  0  0  0  0  0  0  0
  143.8032  136.4533  153.3853 C   0  0  0  0  0  0  0  0  0  0  0  0
  144.5566  137.3226  154.2265 C   0  0  0  0  0  0  0  0  0  0  0  0
  145.8949  137.2898  153.8477 N   0  0  0  0  0  0  0  0  0  0  0  0
  145.9293  136.4512  152.8492 C   0  0  0  0  0  0  0  0  0  0  0  0
  144.7215  135.8784  152.5243 N   0  0  0  0  0  0  0  0  0  0  0  0
  144.4662  134.9615  151.4527 C   0  0  0  0  0  0  0  0  0  0  0  0
  144.0418  133.5179  151.7322 C   0  0  0  0  0  0  0  0  0  0  0  0
  144.7838  133.0603  150.4575 C   0  0  0  0  0  0  0  0  0  0  0  0
  145.5704  131.7459  150.5945 C   0  0  0  0  0  0  0  0  0  0  0  0
  146.4181  131.5371  149.4833 O   0  0  0  0  0  0  0  0  0  0  0  0
  143.9194  133.0038  149.1817 C   0  0  0  0  0  0  0  0  0  0  0  0
  142.8091  132.1453  149.3478 O   0  0  0  0  0  0  0  0  0  0  0  0
  145.6099  134.3542  150.6370 C   0  0  0  0  0  0  0  0  0  0  0  0
  143.7670  140.2086  156.3086 C   0  0  0  0  0  0  0  0  0  0  0  0
  144.8622  141.1113  156.9204 C   0  0  2  0  0  0  0  0  0  0  0  0
  145.1889  142.3264  156.1549 N   0  0  0  0  0  0  0  0  0  0  0  0
  145.7228  142.0904  154.8112 C   0  0  0  0  0  0  0  0  0  0  0  0
  146.1173  143.4081  154.1244 C   0  0  0  0  0  0  0  0  0  0  0  0
  144.9880  144.2748  154.0760 O   0  0  0  0  0  0  0  0  0  0  0  0
  144.4583  144.5629  155.3664 C   0  0  0  0  0  0  0  0  0  0  0  0
  144.0642  143.2531  156.0713 C   0  0  0  0  0  0  0  0  0  0  0  0
  147.7975  141.0721  156.3282 H   0  0  0  0  0  0  0  0  0  0  0  0
  148.1508  139.9575  157.6343 H   0  0  0  0  0  0  0  0  0  0  0  0
  147.4963  141.5488  157.9957 H   0  0  0  0  0  0  0  0  0  0  0  0
  145.8117  139.7336  158.2245 H   0  0  0  0  0  0  0  0  0  0  0  0
  146.2650  139.2057  155.2867 H   0  0  0  0  0  0  0  0  0  0  0  0
  146.2390  138.0602  156.6349 H   0  0  0  0  0  0  0  0  0  0  0  0
  140.8233  136.8597  154.5057 H   0  0  0  0  0  0  0  0  0  0  0  0
  146.8451  136.2233  152.3232 H   0  0  0  0  0  0  0  0  0  0  0  0
  143.7461  135.4565  150.7991 H   0  0  0  0  0  0  0  0  0  0  0  0
  144.4855  133.1237  152.6487 H   0  0  0  0  0  0  0  0  0  0  0  0
  142.9639  133.3529  151.7196 H   0  0  0  0  0  0  0  0  0  0  0  0
  146.1685  131.7278  151.5058 H   0  0  0  0  0  0  0  0  0  0  0  0
  144.8921  130.8944  150.6582 H   0  0  0  0  0  0  0  0  0  0  0  0
  147.3133  131.5303  149.7859 H   0  0  0  0  0  0  0  0  0  0  0  0
  143.5594  133.9931  148.8984 H   0  0  0  0  0  0  0  0  0  0  0  0
  144.4956  132.6389  148.3314 H   0  0  0  0  0  0  0  0  0  0  0  0
  142.0243  132.6713  149.3700 H   0  0  0  0  0  0  0  0  0  0  0  0
  145.8378  134.8911  149.7156 H   0  0  0  0  0  0  0  0  0  0  0  0
  146.5127  134.2032  151.2320 H   0  0  0  0  0  0  0  0  0  0  0  0
  143.3646  140.5996  155.3748 H   0  0  0  0  0  0  0  0  0  0  0  0
  142.9343  140.1167  157.0063 H   0  0  0  0  0  0  0  0  0  0  0  0
  144.4977  141.4495  157.8918 H   0  0  0  0  0  0  0  0  0  0  0  0
  146.5896  141.4343  154.8452 H   0  0  0  0  0  0  0  0  0  0  0  0
  144.9836  141.5867  154.1892 H   0  0  0  0  0  0  0  0  0  0  0  0
  146.9358  143.8925  154.6592 H   0  0  0  0  0  0  0  0  0  0  0  0
  146.4644  143.2173  153.1089 H   0  0  0  0  0  0  0  0  0  0  0  0
  145.1968  145.1100  155.9544 H   0  0  0  0  0  0  0  0  0  0  0  0
  143.5898  145.2127  155.2591 H   0  0  0  0  0  0  0  0  0  0  0  0
  143.2372  142.7898  155.5319 H   0  0  0  0  0  0  0  0  0  0  0  0
  143.6957  143.4823  157.0716 H   0  0  0  0  0  0  0  0  0  0  0  0
  1  2  1  0  0  0  0
  1 30  1  0  0  0  0
  1 31  1  0  0  0  0
  1 32  1  0  0  0  0
  2 23  1  0  0  0  0
  2  3  1  0  0  0  0
  2 33  1  0  0  0  0
  3  4  1  0  0  0  0
  3 34  1  0  0  0  0
  3 35  1  0  0  0  0
  4  5  1  0  0  0  0
  4 22  1  0  0  0  0
  5 10  1  0  0  0  0
  5  6  2  0  0  0  0
  6  7  1  0  0  0  0
  7  8  2  0  0  0  0
  7 36  1  0  0  0  0
  8  9  1  0  0  0  0
  9 13  1  0  0  0  0
  9 10  2  0  0  0  0
 10 11  1  0  0  0  0
 11 12  2  0  0  0  0
 12 13  1  0  0  0  0
 12 37  1  0  0  0  0
 13 14  1  0  0  0  0
 14 21  1  0  0  0  0
 14 15  1  0  0  0  0
 14 38  1  0  0  0  0
 15 16  1  0  0  0  0
 15 39  1  0  0  0  0
 15 40  1  0  0  0  0
 16 17  1  0  0  0  0
 16 19  1  0  0  0  0
 16 21  1  0  0  0  0
 17 18  1  0  0  0  0
 17 41  1  0  0  0  0
 17 42  1  0  0  0  0
 18 43  1  0  0  0  0
 19 20  1  0  0  0  0
 19 44  1  0  0  0  0
 19 45  1  0  0  0  0
 20 46  1  0  0  0  0
 21 47  1  0  0  0  0
 21 48  1  0  0  0  0
 22 23  1  0  0  0  0
 22 49  1  0  0  0  0
 22 50  1  0  0  0  0
 23 24  1  0  0  0  0
 23 51  1  0  0  0  0
 24 29  1  0  0  0  0
 24 25  1  0  0  0  0
 25 26  1  0  0  0  0
 25 52  1  0  0  0  0
 25 53  1  0  0  0  0
 26 27  1  0  0  0  0
 26 54  1  0  0  0  0
 26 55  1  0  0  0  0
 27 28  1  0  0  0  0
 28 29  1  0  0  0  0
 28 56  1  0  0  0  0
 28 57  1  0  0  0  0
 29 58  1  0  0  0  0
 29 59  1  0  0  0  0
M  END
> <s_m_source_file>
AV-unprocessed.smi

> <i_m_source_file_index>
149

> <i_lp_mmshare_version>
43012

> <i_f3d_flags>
0

> <s_epik_input>
W0NIMl0xW0NIMl1PW0NIMl1bQ0gyXU4xW0NAQEhdMltDSDJdTihbQ0gyXVtDQEhdMltDSDNdKWMobltjSF1uMyljKGMzNCluW2NIXW40W0NIXShbQ0gyXTUpW0NIMl1DNShbQ0gyXVtPSF0pW0NIMl1bT0hd

> <s_epik_cmdline>
J2VwaWtfcHl0aG9uJywgJy1waCcsICc3LjAnLCAnLXRuJywgJzgnLCAnLW1hJywgJzIwMCcsICctbWV0YWxfYmluZGluZycsICctaW1hZScsICc8aW5maWxlLm1hZT4nLCAnLW9tYWUnLCAnPG91dGZpbGUubWFlPic=

> <r_lp_tautomer_probability>
1

> <r_epik_Ionization_Penalty>
0.41918

> <r_epik_Ionization_Penalty_Charging>
0

> <r_epik_Ionization_Penalty_Neutral>
0.41918

> <r_epik_State_Penalty>
0.654916

> <r_epik_Charging_Adjusted_Penalty>
0.654916

> <i_epik_Tot_Q>
0

> <i_epik_Tot_abs_Q>
0

> <r_epik_Metal_State_Penalty>
0.653217

> <b_epik_Metal_Only>
0

> <s_lp_Force_Field>
OPLS_2005

> <r_lp_Energy>
80.6686

> <b_lp_Chiralities_Consistent>
1

> <s_lp_Variant>
AV-unprocessed.smi:149-7

> <Gold.Version>
5.8.1

> <Gold.Id.Protein>
6NUR|6NUR_protein|mol2

> <Gold.PLP.Fitness>
48.5265

> <Gold.PLP.PLP>
-37.5198

> <Gold.PLP.part.hbond>
-3.9873

> <Gold.PLP.part.metal>
0.0000

> <Gold.PLP.part.buried>
-8.4204

> <Gold.PLP.part.nonpolar>
-26.5894

> <Gold.PLP.part.repulsive>
0.6920

> <Gold.PLP.ligand.clash>
0.0000

> <Gold.PLP.ligand.torsion>
0.6095

> <Gold.PLP.Chemscore.Hbond>
2.7388

> <Gold.PLP.Chemscore.CHOScore>
1.0000

> <Gold.PLP.Chemscore.Metal>
0.0000

> <Gold.Chemscore.Hbonds>
donor molecule, donor type, donor heavy atom, donor atom, acceptor molecule, acceptor atom, score
      L1  H    18    43       P1 10747  1.00
      L1  H    20    46       P1 10186  1.00
      P1  H 10785 10796       L1    20  0.76
      L1  C    12    37       P1  7948  1.00

> <Gold.PLP.Chemscore.Internal.Correction>
1.0096

> <Gold.Rescore>
     Score         DG    S(hbond)    S(metal)    S(lipo)     H(rot)  DE(clash)    DE(int)     intcor
     12.10     -13.94       2.62        0.00      70.60       3.34       0.04       1.81       ----

> <Gold.Chemscore.Fitness>
12.0951

> <Gold.Chemscore.DG>
-13.9375

> <Gold.Chemscore.ZeroCoef>
-5.4800

> <Gold.Chemscore.Hbond>
2.6205

> <Gold.Chemscore.Metal>
0.0000

> <Gold.Chemscore.Lipo>
70.5954

> <Gold.Chemscore.Internal_Hbond>
0.0000

> <Gold.Chemscore.DEClash>
0.0360

> <Gold.Chemscore.DEInternal>
1.8064

> <Gold.Chemscore.Rot>
3.3416

> <Gold.Chemscore.Internal.Correction>
   9.000000E+99

> <Gold.Chemscore.Hbonds>
donor molecule, donor type, donor heavy atom, donor atom, acceptor molecule, acceptor atom, score
      L1  H    18    43       P1 10747  0.99
      L1  H    20    46       P1 10186  0.93
      P1  H 10785 10796       L1    20  0.64

> <Gold.Chemscore.Hbond.Weighted>
-8.7523

> <Gold.Chemscore.Metal.Weighted>
-0.0000

> <Gold.Chemscore.Lipo.Weighted>
-8.2597

> <Gold.Chemscore.Internal_Hbond.Weighted>
0.0000

> <Gold.Chemscore.DEClash.Weighted>
0.0360

> <Gold.Chemscore.DEInternal.Weighted>
1.8064

> <Gold.Chemscore.Rot.Weighted>
8.5545

> <Gold.Chemscore.Internal.Correction.Weighted>
   9.000000E+99

> <Gold.Protein.RotatedTorsions>
[ 6907 6896 6895 6894 ] final   59.43 input  -60.11 | X-H torsion
[ 7974 7965 7964 7962 ] final -174.02 input  175.53 | X-H torsion
[ 8008 7997 7996 7995 ] final -155.07 input   59.86 | X-H torsion
[ 10167 10162 10161 10158 ] final  -42.09 input  -65.29 | X-H torsion
[ 10718 10713 10712 10709 ] final  172.61 input   66.30 | X-H torsion
[ 10763 10752 10751 10750 ] final   74.64 input  -60.55 | X-H torsion
[ 11005 11000 10999 10996 ] final   42.48 input  -57.11 | X-H torsion

> <Gold.Protein.ActiveResidues>
 VAL166  LYS551  ARG553  GLY616  TRP617  ASP618  TYR619  PRO620  LYS621  CYS622 
 ASP623  PHE694  ASN695  SER759  ASP760  ASP761  ALA762  ILE779  LEU786  VAL792 
 PHE793  MET794  SER795  GLU796  ALA797  LYS798  CYS799  TRP800  GLU811  SER814 

> <Gold.Protein.RotatedAtoms>
  152.3914  134.6436  160.0105 H   0  0  0  0  0  0  0  0  0  0  0  0  # atno 6907 bound_to 6896
  151.6669  133.3309  159.3195 H   0  0  0  0  0  0  0  0  0  0  0  0  # atno 6908 bound_to 6896
  150.7829  134.6833  159.6501 H   0  0  0  0  0  0  0  0  0  0  0  0  # atno 6909 bound_to 6896
  144.7134  140.1534  143.6382 H   0  0  0  0  0  0  0  0  0  0  0  0  # atno 7974 bound_to 7965
  155.6961  140.0761  157.2429 H   0  0  0  0  0  0  0  0  0  0  0  0  # atno 8008 bound_to 7997
  154.4080  140.1656  156.2192 H   0  0  0  0  0  0  0  0  0  0  0  0  # atno 8009 bound_to 7997
  155.9409  140.3384  155.6330 H   0  0  0  0  0  0  0  0  0  0  0  0  # atno 8010 bound_to 7997
  140.6981  143.3057  151.3159 H   0  0  0  0  0  0  0  0  0  0  0  0  # atno 10167 bound_to 10162
  156.9764  131.0105  151.2892 H   0  0  0  0  0  0  0  0  0  0  0  0  # atno 10718 bound_to 10713
  153.0601  135.5018  154.8072 H   0  0  0  0  0  0  0  0  0  0  0  0  # atno 10763 bound_to 10752
  154.6868  135.2977  154.9538 H   0  0  0  0  0  0  0  0  0  0  0  0  # atno 10764 bound_to 10752
  154.0305  135.6730  153.4833 H   0  0  0  0  0  0  0  0  0  0  0  0  # atno 10765 bound_to 10752
  140.1735  134.4193  155.8243 H   0  0  0  0  0  0  0  0  0  0  0  0  # atno 11005 bound_to 11000
  145.9095  139.2479  143.1446 LP  0  0  0  0  0  0  0  0  0  0  0  0  # atno 17320 bound_to 7965
  145.9730  140.8745  143.0153 LP  0  0  0  0  0  0  0  0  0  0  0  0  # atno 17321 bound_to 7965
  139.6462  144.0446  152.2592 LP  0  0  0  0  0  0  0  0  0  0  0  0  # atno 17342 bound_to 10162
  139.9968  144.6322  150.7765 LP  0  0  0  0  0  0  0  0  0  0  0  0  # atno 17343 bound_to 10162
  157.5557  130.8212  149.8201 LP  0  0  0  0  0  0  0  0  0  0  0  0  # atno 17370 bound_to 10713
  156.0262  130.3779  150.1817 LP  0  0  0  0  0  0  0  0  0  0  0  0  # atno 17371 bound_to 10713
  141.2219  133.6967  156.7805 LP  0  0  0  0  0  0  0  0  0  0  0  0  # atno 17394 bound_to 11000
  140.2350  134.8657  157.3515 LP  0  0  0  0  0  0  0  0  0  0  0  0  # atno 17395 bound_to 11000

$$$$
