AV-unprocessed.smi:981|AV-procd|sdf|4313|dock4
  -GOLD-   22720 2223D 1   1.00000     0.00000
 Structure written by MMmdl.
 36 37  0  0  0  0  0  0  0  0  1 V2000
  154.4132  141.3863  160.0501 C   0  0  0  0  0  0  0  0  0  0  0  0
  153.5018  142.5715  160.3997 C   0  0  0  0  0  0  0  0  0  0  0  0
  152.7301  142.3724  161.7124 C   0  0  0  0  0  0  0  0  0  0  0  0
  152.5979  142.9407  159.2655 C   0  0  0  0  0  0  0  0  0  0  0  0
  151.7860  142.0752  158.6504 N   0  0  0  0  0  0  0  0  0  0  0  0
  151.0444  142.6656  157.6226 C   0  0  0  0  0  0  0  0  0  0  0  0
  150.0855  141.8384  156.8216 C   0  0  0  0  0  0  0  0  0  0  0  0
  150.8021  140.7873  155.9629 C   0  0  0  0  0  0  0  0  0  0  0  0
  150.0992  140.5880  154.7033 N   0  0  0  0  0  0  0  0  0  0  0  0
  148.7919  140.3010  154.5989 C   0  0  0  0  0  0  0  0  0  0  0  0
  148.0525  140.1636  155.5718 O   0  0  0  0  0  0  0  0  0  0  0  0
  148.3409  140.1525  153.3402 N   0  0  0  0  0  0  0  0  0  0  0  0
  147.0098  139.8470  152.9071 C   0  0  0  0  0  0  0  0  0  0  0  0
  146.5176  138.4330  153.1295 C   0  0  0  0  0  0  0  0  0  0  0  0
  146.8480  138.8987  151.7386 C   0  0  0  0  0  0  0  0  0  0  0  0
  151.3079  144.0032  157.4652 C   0  0  0  0  0  0  0  0  0  0  0  0
  152.4980  144.5694  158.6043 S   0  0  0  0  0  0  0  0  0  0  0  0
  155.0054  141.5968  159.1591 H   0  0  0  0  0  0  0  0  0  0  0  0
  153.8335  140.4826  159.8590 H   0  0  0  0  0  0  0  0  0  0  0  0
  155.1061  141.1706  160.8636 H   0  0  0  0  0  0  0  0  0  0  0  0
  154.1594  143.4271  160.5580 H   0  0  0  0  0  0  0  0  0  0  0  0
  152.1587  143.2645  161.9705 H   0  0  0  0  0  0  0  0  0  0  0  0
  153.4090  142.1642  162.5397 H   0  0  0  0  0  0  0  0  0  0  0  0
  152.0310  141.5386  161.6388 H   0  0  0  0  0  0  0  0  0  0  0  0
  149.3779  141.3436  157.4884 H   0  0  0  0  0  0  0  0  0  0  0  0
  149.4871  142.4850  156.1782 H   0  0  0  0  0  0  0  0  0  0  0  0
  151.8267  141.1046  155.7614 H   0  0  0  0  0  0  0  0  0  0  0  0
  150.8566  139.8374  156.4971 H   0  0  0  0  0  0  0  0  0  0  0  0
  150.6388  140.6779  153.8547 H   0  0  0  0  0  0  0  0  0  0  0  0
  149.0306  140.2302  152.6067 H   0  0  0  0  0  0  0  0  0  0  0  0
  146.2490  140.6194  153.0084 H   0  0  0  0  0  0  0  0  0  0  0  0
  147.1980  137.7224  153.5953 H   0  0  0  0  0  0  0  0  0  0  0  0
  145.4666  138.3015  153.3781 H   0  0  0  0  0  0  0  0  0  0  0  0
  146.0178  139.0783  151.0584 H   0  0  0  0  0  0  0  0  0  0  0  0
  147.7503  138.5021  151.2766 H   0  0  0  0  0  0  0  0  0  0  0  0
  150.8767  144.6871  156.7494 H   0  0  0  0  0  0  0  0  0  0  0  0
  1  2  1  0  0  0  0
  1 18  1  0  0  0  0
  1 19  1  0  0  0  0
  1 20  1  0  0  0  0
  2  3  1  0  0  0  0
  2  4  1  0  0  0  0
  2 21  1  0  0  0  0
  3 22  1  0  0  0  0
  3 23  1  0  0  0  0
  3 24  1  0  0  0  0
  4 17  1  0  0  0  0
  4  5  2  0  0  0  0
  5  6  1  0  0  0  0
  6  7  1  0  0  0  0
  6 16  2  0  0  0  0
  7  8  1  0  0  0  0
  7 25  1  0  0  0  0
  7 26  1  0  0  0  0
  8  9  1  0  0  0  0
  8 27  1  0  0  0  0
  8 28  1  0  0  0  0
  9 10  1  0  0  0  0
  9 29  1  0  0  0  0
 10 11  2  0  0  0  0
 10 12  1  0  0  0  0
 12 13  1  0  0  0  0
 12 30  1  0  0  0  0
 13 15  1  0  0  0  0
 13 14  1  0  0  0  0
 13 31  1  0  0  0  0
 14 15  1  0  0  0  0
 14 32  1  0  0  0  0
 14 33  1  0  0  0  0
 15 34  1  0  0  0  0
 15 35  1  0  0  0  0
 16 17  1  0  0  0  0
 16 36  1  0  0  0  0
M  END
> <s_m_source_file>
AV-unprocessed.smi

> <i_m_source_file_index>
981

> <i_lp_mmshare_version>
43012

> <i_f3d_flags>
0

> <s_epik_input>
W0NIM11bQ0hdKFtDSDNdKWMxbmMoW2NIXXMxKVtDSDJdW0NIMl1bTkhdQyg9TylbTkhdW0NIXTJbQ0gyXVtDSDJdMg==

> <s_epik_cmdline>
J2VwaWtfcHl0aG9uJywgJy1waCcsICc3LjAnLCAnLXRuJywgJzgnLCAnLW1hJywgJzIwMCcsICctbWV0YWxfYmluZGluZycsICctaW1hZScsICc8aW5maWxlLm1hZT4nLCAnLW9tYWUnLCAnPG91dGZpbGUubWFlPic=

> <r_epik_Ionization_Penalty>
0.00156572

> <r_epik_Ionization_Penalty_Charging>
0

> <r_epik_Ionization_Penalty_Neutral>
0.00156572

> <r_epik_State_Penalty>
0.0010059

> <r_epik_Charging_Adjusted_Penalty>
0.0010059

> <i_epik_Tot_Q>
0

> <i_epik_Tot_abs_Q>
0

> <r_epik_Metal_State_Penalty>
-0

> <b_epik_Metal_Only>
0

> <s_lp_Force_Field>
OPLS_2005

> <r_lp_Energy>
12.4684

> <b_lp_Chiralities_Consistent>
1

> <s_lp_Variant>
AV-unprocessed.smi:981-1

> <Gold.Version>
5.8.1

> <Gold.Id.Protein>
6NUR|6NUR_protein|mol2

> <Gold.PLP.Fitness>
45.8547

> <Gold.PLP.PLP>
-41.3842

> <Gold.PLP.part.hbond>
-1.0000

> <Gold.PLP.part.metal>
0.0000

> <Gold.PLP.part.buried>
-2.8792

> <Gold.PLP.part.nonpolar>
-39.4700

> <Gold.PLP.part.repulsive>
1.0212

> <Gold.PLP.ligand.clash>
0.0000

> <Gold.PLP.ligand.torsion>
0.7356

> <Gold.PLP.Chemscore.Hbond>
1.0000

> <Gold.PLP.Chemscore.CHOScore>
0.9361

> <Gold.PLP.Chemscore.Metal>
0.0000

> <Gold.Chemscore.Hbonds>
donor molecule, donor type, donor heavy atom, donor atom, acceptor molecule, acceptor atom, score
      L1  H    12    30       P1  7957  1.00
      L1  C    16    36       P1  8028  1.00

> <Gold.PLP.Chemscore.Internal.Correction>
0.1335

> <Gold.Rescore>
     Score         DG    S(hbond)    S(metal)    S(lipo)     H(rot)  DE(clash)    DE(int)     intcor
     16.47     -18.33       0.99        0.00     119.01       1.70       0.19       1.67       ----

> <Gold.Chemscore.Fitness>
16.4709

> <Gold.Chemscore.DG>
-18.3311

> <Gold.Chemscore.ZeroCoef>
-5.4800

> <Gold.Chemscore.Hbond>
0.9850

> <Gold.Chemscore.Metal>
0.0000

> <Gold.Chemscore.Lipo>
119.0142

> <Gold.Chemscore.Internal_Hbond>
0.0000

> <Gold.Chemscore.DEClash>
0.1880

> <Gold.Chemscore.DEInternal>
1.6723

> <Gold.Chemscore.Rot>
1.7045

> <Gold.Chemscore.Internal.Correction>
   9.000000E+99

> <Gold.Chemscore.Hbonds>
donor molecule, donor type, donor heavy atom, donor atom, acceptor molecule, acceptor atom, score
      L1  H    12    30       P1  7957  0.95

> <Gold.Chemscore.Hbond.Weighted>
-3.2901

> <Gold.Chemscore.Metal.Weighted>
-0.0000

> <Gold.Chemscore.Lipo.Weighted>
-13.9247

> <Gold.Chemscore.Internal_Hbond.Weighted>
0.0000

> <Gold.Chemscore.DEClash.Weighted>
0.1880

> <Gold.Chemscore.DEInternal.Weighted>
1.6723

> <Gold.Chemscore.Rot.Weighted>
4.3636

> <Gold.Chemscore.Internal.Correction.Weighted>
   9.000000E+99

> <Gold.Protein.RotatedTorsions>
[ 6907 6896 6895 6894 ] final  -98.06 input  -60.11 | X-H torsion
[ 7974 7965 7964 7962 ] final -145.50 input  175.53 | X-H torsion
[ 8008 7997 7996 7995 ] final  179.88 input   59.86 | X-H torsion
[ 10167 10162 10161 10158 ] final  158.20 input  -65.29 | X-H torsion
[ 10718 10713 10712 10709 ] final  -62.44 input   66.30 | X-H torsion
[ 10763 10752 10751 10750 ] final  -71.11 input  -60.55 | X-H torsion
[ 11005 11000 10999 10996 ] final -119.53 input  -57.11 | X-H torsion

> <Gold.Protein.ActiveResidues>
 VAL166  LYS551  ARG553  GLY616  TRP617  ASP618  TYR619  PRO620  LYS621  CYS622 
 ASP623  PHE694  ASN695  SER759  ASP760  ASP761  ALA762  ILE779  LEU786  VAL792 
 PHE793  MET794  SER795  GLU796  ALA797  LYS798  CYS799  TRP800  GLU811  SER814 

> <Gold.Protein.RotatedAtoms>
  150.7035  134.1252  159.4049 H   0  0  0  0  0  0  0  0  0  0  0  0  # atno 6907 bound_to 6896
  151.9238  135.0284  160.0533 H   0  0  0  0  0  0  0  0  0  0  0  0  # atno 6908 bound_to 6896
  152.2233  133.4965  159.5211 H   0  0  0  0  0  0  0  0  0  0  0  0  # atno 6909 bound_to 6896
  144.8223  140.5575  143.5570 H   0  0  0  0  0  0  0  0  0  0  0  0  # atno 7974 bound_to 7965
  156.0383  140.1297  157.0183 H   0  0  0  0  0  0  0  0  0  0  0  0  # atno 8008 bound_to 7997
  154.4380  140.1035  156.6270 H   0  0  0  0  0  0  0  0  0  0  0  0  # atno 8009 bound_to 7997
  155.5704  140.3466  155.4516 H   0  0  0  0  0  0  0  0  0  0  0  0  # atno 8010 bound_to 7997
  139.4826  144.4846  151.8395 H   0  0  0  0  0  0  0  0  0  0  0  0  # atno 10167 bound_to 10162
  156.0855  130.4209  150.1136 H   0  0  0  0  0  0  0  0  0  0  0  0  # atno 10718 bound_to 10713
  154.4272  135.5972  153.6046 H   0  0  0  0  0  0  0  0  0  0  0  0  # atno 10763 bound_to 10752
  152.9797  135.5966  154.3883 H   0  0  0  0  0  0  0  0  0  0  0  0  # atno 10764 bound_to 10752
  154.3716  135.2841  155.2241 H   0  0  0  0  0  0  0  0  0  0  0  0  # atno 10765 bound_to 10752
  141.0208  134.0126  157.3284 H   0  0  0  0  0  0  0  0  0  0  0  0  # atno 11005 bound_to 11000
  145.5078  139.1480  143.3622 LP  0  0  0  0  0  0  0  0  0  0  0  0  # atno 17320 bound_to 7965
  146.2528  140.5218  142.8886 LP  0  0  0  0  0  0  0  0  0  0  0  0  # atno 17321 bound_to 7965
  140.4325  144.2096  150.5888 LP  0  0  0  0  0  0  0  0  0  0  0  0  # atno 17342 bound_to 10162
  140.4765  143.2394  151.9016 LP  0  0  0  0  0  0  0  0  0  0  0  0  # atno 17343 bound_to 10162
  156.9158  130.9667  151.3556 LP  0  0  0  0  0  0  0  0  0  0  0  0  # atno 17370 bound_to 10713
  157.5987  130.8497  149.8769 LP  0  0  0  0  0  0  0  0  0  0  0  0  # atno 17371 bound_to 10713
  139.9145  135.0195  156.7826 LP  0  0  0  0  0  0  0  0  0  0  0  0  # atno 17394 bound_to 11000
  140.6575  133.9675  155.7787 LP  0  0  0  0  0  0  0  0  0  0  0  0  # atno 17395 bound_to 11000

$$$$
