AV-unprocessed.smi:2931|AV-procd|sdf|11249|dock2
  -GOLD-   2272016143D 1   1.00000     0.00000
 Structure written by MMmdl.
 43 44  0  0  0  0  0  0  0  0  3 V2000
  144.2624  131.8861  151.3145 C   0  0  0  0  0  0  0  0  0  0  0  0
  144.2711  133.0246  152.2579 N   0  3  2  0  0  0  0  0  0  0  0  0
  143.2295  134.0326  151.9380 C   0  0  0  0  0  0  0  0  0  0  0  0
  143.1830  135.1361  153.0082 C   0  0  0  0  0  0  0  0  0  0  0  0
  144.5585  135.7939  153.1848 C   0  0  0  0  0  0  0  0  0  0  0  0
  145.6235  134.7236  153.4837 C   0  0  2  0  0  0  0  0  0  0  0  0
  146.9487  135.3294  153.5762 N   0  0  0  0  0  0  0  0  0  0  0  0
  147.4908  135.8225  154.6986 C   0  0  0  0  0  0  0  0  0  0  0  0
  146.9327  135.8082  155.7958 O   0  0  0  0  0  0  0  0  0  0  0  0
  148.7151  136.3257  154.4835 N   0  0  0  0  0  0  0  0  0  0  0  0
  149.5653  136.9441  155.4990 C   0  0  0  0  0  0  0  0  0  0  0  0
  150.6006  137.9135  154.8959 C   0  0  0  0  0  0  0  0  0  0  0  0
  150.2589  139.3805  155.0955 C   0  0  0  0  0  0  0  0  0  0  0  0
  149.1291  139.9427  154.4609 C   0  0  0  0  0  0  0  0  0  0  0  0
  148.8222  141.3012  154.6788 C   0  0  0  0  0  0  0  0  0  0  0  0
  149.6095  142.0482  155.4834 N   0  3  0  0  0  0  0  0  0  0  0  0
  150.7014  141.5514  156.1050 C   0  0  0  0  0  0  0  0  0  0  0  0
  151.0563  140.1987  155.9268 C   0  0  0  0  0  0  0  0  0  0  0  0
  145.6166  133.6376  152.3915 C   0  0  0  0  0  0  0  0  0  0  0  0
  144.5115  132.2130  150.3043 H   0  0  0  0  0  0  0  0  0  0  0  0
  143.2798  131.4135  151.2897 H   0  0  0  0  0  0  0  0  0  0  0  0
  144.9868  131.1295  151.6179 H   0  0  0  0  0  0  0  0  0  0  0  0
  143.4297  134.4672  150.9573 H   0  0  0  0  0  0  0  0  0  0  0  0
  142.2558  133.5452  151.8765 H   0  0  0  0  0  0  0  0  0  0  0  0
  142.4427  135.8892  152.7360 H   0  0  0  0  0  0  0  0  0  0  0  0
  142.8567  134.7111  153.9583 H   0  0  0  0  0  0  0  0  0  0  0  0
  144.8220  136.3396  152.2775 H   0  0  0  0  0  0  0  0  0  0  0  0
  144.5179  136.5287  153.9901 H   0  0  0  0  0  0  0  0  0  0  0  0
  145.3823  134.2433  154.4344 H   0  0  0  0  0  0  0  0  0  0  0  0
  147.4844  135.3911  152.7224 H   0  0  0  0  0  0  0  0  0  0  0  0
  149.0841  136.2936  153.5441 H   0  0  0  0  0  0  0  0  0  0  0  0
  148.9200  137.4889  156.1886 H   0  0  0  0  0  0  0  0  0  0  0  0
  150.0666  136.1811  156.0969 H   0  0  0  0  0  0  0  0  0  0  0  0
  151.5837  137.7115  155.3233 H   0  0  0  0  0  0  0  0  0  0  0  0
  150.6942  137.7248  153.8257 H   0  0  0  0  0  0  0  0  0  0  0  0
  148.4990  139.3388  153.8241 H   0  0  0  0  0  0  0  0  0  0  0  0
  147.9758  141.8079  154.2386 H   0  0  0  0  0  0  0  0  0  0  0  0
  151.2531  142.2455  156.7222 H   0  0  0  0  0  0  0  0  0  0  0  0
  151.9258  139.7963  156.4257 H   0  0  0  0  0  0  0  0  0  0  0  0
  146.3425  132.8626  152.6422 H   0  0  0  0  0  0  0  0  0  0  0  0
  145.9204  134.0593  151.4315 H   0  0  0  0  0  0  0  0  0  0  0  0
  144.0350  132.6465  153.1645 H   0  0  0  0  0  0  0  0  0  0  0  0
  149.3695  143.0298  155.6265 H   0  0  0  0  0  0  0  0  0  0  0  0
  1  2  1  0  0  0  0
  1 20  1  0  0  0  0
  1 21  1  0  0  0  0
  1 22  1  0  0  0  0
  2 19  1  0  0  0  0
  2  3  1  0  0  0  0
  2 42  1  0  0  0  0
  3  4  1  0  0  0  0
  3 23  1  0  0  0  0
  3 24  1  0  0  0  0
  4  5  1  0  0  0  0
  4 25  1  0  0  0  0
  4 26  1  0  0  0  0
  5  6  1  0  0  0  0
  5 27  1  0  0  0  0
  5 28  1  0  0  0  0
  6  7  1  0  0  0  0
  6 19  1  0  0  0  0
  6 29  1  0  0  0  0
  7  8  1  0  0  0  0
  7 30  1  0  0  0  0
  8  9  2  0  0  0  0
  8 10  1  0  0  0  0
 10 11  1  0  0  0  0
 10 31  1  0  0  0  0
 11 12  1  0  0  0  0
 11 32  1  0  0  0  0
 11 33  1  0  0  0  0
 12 13  1  0  0  0  0
 12 34  1  0  0  0  0
 12 35  1  0  0  0  0
 13 18  1  0  0  0  0
 13 14  2  0  0  0  0
 14 15  1  0  0  0  0
 14 36  1  0  0  0  0
 15 16  2  0  0  0  0
 15 37  1  0  0  0  0
 16 17  1  0  0  0  0
 16 43  1  0  0  0  0
 17 18  2  0  0  0  0
 17 38  1  0  0  0  0
 18 39  1  0  0  0  0
 19 40  1  0  0  0  0
 19 41  1  0  0  0  0
M  CHG  1   2   1
M  CHG  1  16   1
M  END
> <s_m_source_file>
AV-unprocessed.smi

> <i_m_source_file_index>
2931

> <i_lp_mmshare_version>
43012

> <i_f3d_flags>
0

> <s_epik_input>
W0NIM11OMVtDSDJdW0NIMl1bQ0gyXVtDQEhdKFtDSDJdMSlbTkhdQyg9TylbTkhdW0NIMl1bQ0gyXWMyW2NIXVtjSF1uW2NIXVtjSF0y

> <s_epik_cmdline>
J2VwaWtfcHl0aG9uJywgJy1waCcsICc3LjAnLCAnLXRuJywgJzgnLCAnLW1hJywgJzIwMCcsICctbWV0YWxfYmluZGluZycsICctaW1hZScsICc8aW5maWxlLm1hZT4nLCAnLW9tYWUnLCAnPG91dGZpbGUubWFlPic=

> <r_epik_Ionization_Penalty>
1.43754

> <r_epik_Ionization_Penalty_Charging>
1.4375

> <r_epik_Ionization_Penalty_Neutral>
3.7629e-05

> <r_epik_State_Penalty>
1.52008

> <r_epik_Charging_Adjusted_Penalty>
2.95758

> <i_epik_Tot_Q>
2

> <i_epik_Tot_abs_Q>
2

> <r_epik_Metal_State_Penalty>
1.57105

> <b_epik_Metal_Only>
0

> <s_lp_Force_Field>
OPLS_2005

> <r_lp_Energy>
22.8727

> <b_lp_Chiralities_Consistent>
1

> <s_lp_Variant>
AV-unprocessed.smi:2931-8

> <Gold.Version>
5.8.1

> <Gold.Id.Protein>
6NUR|6NUR_protein|mol2

> <Gold.PLP.Fitness>
43.3546

> <Gold.PLP.PLP>
-30.3774

> <Gold.PLP.part.hbond>
-3.5524

> <Gold.PLP.part.metal>
0.0000

> <Gold.PLP.part.buried>
-4.7287

> <Gold.PLP.part.nonpolar>
-22.9723

> <Gold.PLP.part.repulsive>
0.2234

> <Gold.PLP.ligand.clash>
0.0000

> <Gold.PLP.ligand.torsion>
0.9036

> <Gold.PLP.Chemscore.Hbond>
4.9195

> <Gold.PLP.Chemscore.CHOScore>
0.0000

> <Gold.PLP.Chemscore.Metal>
0.0000

> <Gold.Chemscore.Hbonds>
donor molecule, donor type, donor heavy atom, donor atom, acceptor molecule, acceptor atom, score
      L1  H     2    42       P1 10957  0.75
      L1  H     7    30       P1  7948  0.93
      L1  H    10    31       P1  7948  1.00
      L1  H    16    43       P1  8028  2.00

> <Gold.PLP.Chemscore.Internal.Correction>
0.0258

> <Gold.Rescore>
     Score         DG    S(hbond)    S(metal)    S(lipo)     H(rot)  DE(clash)    DE(int)     intcor
     20.30     -21.23       3.53        0.00      69.90       1.65       0.01       0.92       ----

> <Gold.Chemscore.Fitness>
20.2981

> <Gold.Chemscore.DG>
-21.2347

> <Gold.Chemscore.ZeroCoef>
-5.4800

> <Gold.Chemscore.Hbond>
3.5302

> <Gold.Chemscore.Metal>
0.0000

> <Gold.Chemscore.Lipo>
69.9021

> <Gold.Chemscore.Internal_Hbond>
0.0000

> <Gold.Chemscore.DEClash>
0.0126

> <Gold.Chemscore.DEInternal>
0.9240

> <Gold.Chemscore.Rot>
1.6464

> <Gold.Chemscore.Internal.Correction>
   9.000000E+99

> <Gold.Chemscore.Hbonds>
donor molecule, donor type, donor heavy atom, donor atom, acceptor molecule, acceptor atom, score
      L1  H     2    42       P1 10957  0.09
      L1  H     7    30       P1  7948  0.89
      L1  H    10    31       P1  7948  0.96
      L1  H    16    43       P1  8028  1.00

> <Gold.Chemscore.Hbond.Weighted>
-11.7909

> <Gold.Chemscore.Metal.Weighted>
-0.0000

> <Gold.Chemscore.Lipo.Weighted>
-8.1786

> <Gold.Chemscore.Internal_Hbond.Weighted>
0.0000

> <Gold.Chemscore.DEClash.Weighted>
0.0126

> <Gold.Chemscore.DEInternal.Weighted>
0.9240

> <Gold.Chemscore.Rot.Weighted>
4.2148

> <Gold.Chemscore.Internal.Correction.Weighted>
   9.000000E+99

> <Gold.Protein.RotatedTorsions>
[ 6907 6896 6895 6894 ] final  147.59 input  -60.11 | X-H torsion
[ 7974 7965 7964 7962 ] final    7.04 input  175.53 | X-H torsion
[ 8008 7997 7996 7995 ] final  -97.74 input   59.86 | X-H torsion
[ 10167 10162 10161 10158 ] final  149.09 input  -65.29 | X-H torsion
[ 10718 10713 10712 10709 ] final  -71.81 input   66.30 | X-H torsion
[ 10763 10752 10751 10750 ] final -108.86 input  -60.55 | X-H torsion
[ 11005 11000 10999 10996 ] final  153.77 input  -57.11 | X-H torsion

> <Gold.Protein.ActiveResidues>
 VAL166  LYS551  ARG553  GLY616  TRP617  ASP618  TYR619  PRO620  LYS621  CYS622 
 ASP623  PHE694  ASN695  SER759  ASP760  ASP761  ALA762  ILE779  LEU786  VAL792 
 PHE793  MET794  SER795  GLU796  ALA797  LYS798  CYS799  TRP800  GLU811  SER814 

> <Gold.Protein.RotatedAtoms>
  152.1528  133.4532  159.4821 H   0  0  0  0  0  0  0  0  0  0  0  0  # atno 6907 bound_to 6896
  150.6897  134.2168  159.4390 H   0  0  0  0  0  0  0  0  0  0  0  0  # atno 6908 bound_to 6896
  152.0066  134.9899  160.0617 H   0  0  0  0  0  0  0  0  0  0  0  0  # atno 6909 bound_to 6896
  146.2430  140.0143  142.8404 H   0  0  0  0  0  0  0  0  0  0  0  0  # atno 7974 bound_to 7965
  154.7919  140.0460  157.1207 H   0  0  0  0  0  0  0  0  0  0  0  0  # atno 8008 bound_to 7997
  154.9581  140.3074  155.5024 H   0  0  0  0  0  0  0  0  0  0  0  0  # atno 8009 bound_to 7997
  156.2951  140.2275  156.4664 H   0  0  0  0  0  0  0  0  0  0  0  0  # atno 8010 bound_to 7997
  139.4866  144.5629  151.7198 H   0  0  0  0  0  0  0  0  0  0  0  0  # atno 10167 bound_to 10162
  156.0347  130.4359  150.2499 H   0  0  0  0  0  0  0  0  0  0  0  0  # atno 10718 bound_to 10713
  154.8160  135.4622  154.0645 H   0  0  0  0  0  0  0  0  0  0  0  0  # atno 10763 bound_to 10752
  153.2037  135.6872  153.8206 H   0  0  0  0  0  0  0  0  0  0  0  0  # atno 10764 bound_to 10752
  153.7681  135.3274  155.3325 H   0  0  0  0  0  0  0  0  0  0  0  0  # atno 10765 bound_to 10752
  140.1428  134.8728  157.2353 H   0  0  0  0  0  0  0  0  0  0  0  0  # atno 11005 bound_to 11000
  145.1299  140.9512  143.4550 LP  0  0  0  0  0  0  0  0  0  0  0  0  # atno 17320 bound_to 7965
  145.0398  139.3270  143.5982 LP  0  0  0  0  0  0  0  0  0  0  0  0  # atno 17321 bound_to 7965
  140.5202  144.0890  150.6020 LP  0  0  0  0  0  0  0  0  0  0  0  0  # atno 17342 bound_to 10162
  140.3846  143.2784  152.0131 LP  0  0  0  0  0  0  0  0  0  0  0  0  # atno 17343 bound_to 10162
  157.0599  131.0087  151.3226 LP  0  0  0  0  0  0  0  0  0  0  0  0  # atno 17370 bound_to 10713
  157.5078  130.7919  149.7672 LP  0  0  0  0  0  0  0  0  0  0  0  0  # atno 17371 bound_to 10713
  140.2701  134.3470  155.7376 LP  0  0  0  0  0  0  0  0  0  0  0  0  # atno 17394 bound_to 11000
  141.2188  133.7418  156.9210 LP  0  0  0  0  0  0  0  0  0  0  0  0  # atno 17395 bound_to 11000

$$$$
