AV-unprocessed.smi:2164|AV-procd|sdf|8809|dock6
  -GOLD-   2272011593D 1   1.00000     0.00000
 Structure written by MMmdl.
 40 42  0  0  0  0  0  0  0  0  2 V2000
  150.7186  136.9288  158.9961 O   0  0  0  0  0  0  0  0  0  0  0  0
  149.6320  137.5055  158.9259 C   0  0  0  0  0  0  0  0  0  0  0  0
  149.4956  138.6871  158.2976 N   0  0  0  0  0  0  0  0  0  0  0  0
  150.5636  139.4369  157.6395 C   0  0  0  0  0  0  0  0  0  0  0  0
  151.5043  140.1311  158.6440 C   0  0  0  0  0  0  0  0  0  0  0  0
  151.5896  141.6367  158.4621 C   0  0  0  0  0  0  0  0  0  0  0  0
  152.5453  142.3916  159.1779 C   0  0  0  0  0  0  0  0  0  0  0  0
  152.6224  143.7846  158.9715 C   0  0  0  0  0  0  0  0  0  0  0  0
  151.7406  144.3923  158.0546 C   0  0  0  0  0  0  0  0  0  0  0  0
  150.8363  143.6388  157.3910 N   0  3  0  0  0  0  0  0  0  0  0  0
  150.7302  142.3028  157.5612 C   0  0  0  0  0  0  0  0  0  0  0  0
  148.3823  136.9877  159.4874 C   0  0  0  0  0  0  0  0  0  0  0  0
  148.4204  136.0139  160.4169 C   0  0  0  0  0  0  0  0  0  0  0  0
  147.2807  135.4626  161.0061 N   0  0  0  0  0  0  0  0  0  0  0  0
  147.4583  134.3476  161.9294 C   0  0  0  0  0  0  0  0  0  0  0  0
  146.5210  134.4899  163.1177 C   0  0  0  0  0  0  0  0  0  0  0  0
  144.8185  134.4079  162.4429 S   0  0  0  0  0  0  0  0  0  0  0  0
  144.6541  133.1049  161.7795 O   0  0  0  0  0  0  0  0  0  0  0  0
  143.8846  134.7973  163.5102 O   0  0  0  0  0  0  0  0  0  0  0  0
  144.8881  135.6122  161.2788 N   0  0  0  0  0  0  0  0  0  0  0  0
  145.9925  135.9693  160.6965 C   0  0  0  0  0  0  0  0  0  0  0  0
  145.9449  136.9921  159.6637 C   0  0  0  0  0  0  0  0  0  0  0  0
  147.0673  137.4753  159.0924 C   0  0  0  0  0  0  0  0  0  0  0  0
  148.5758  139.1038  158.2808 H   0  0  0  0  0  0  0  0  0  0  0  0
  151.1380  138.7350  157.0342 H   0  0  0  0  0  0  0  0  0  0  0  0
  150.1487  140.1659  156.9414 H   0  0  0  0  0  0  0  0  0  0  0  0
  151.1801  139.9106  159.6619 H   0  0  0  0  0  0  0  0  0  0  0  0
  152.5079  139.7144  158.5503 H   0  0  0  0  0  0  0  0  0  0  0  0
  153.2196  141.9080  159.8697 H   0  0  0  0  0  0  0  0  0  0  0  0
  153.3501  144.3772  159.5065 H   0  0  0  0  0  0  0  0  0  0  0  0
  151.7315  145.4497  157.8333 H   0  0  0  0  0  0  0  0  0  0  0  0
  149.9737  141.8105  156.9674 H   0  0  0  0  0  0  0  0  0  0  0  0
  149.3504  135.5906  160.7707 H   0  0  0  0  0  0  0  0  0  0  0  0
  147.2768  133.4106  161.4019 H   0  0  0  0  0  0  0  0  0  0  0  0
  148.4861  134.3090  162.2917 H   0  0  0  0  0  0  0  0  0  0  0  0
  146.6527  133.6801  163.8352 H   0  0  0  0  0  0  0  0  0  0  0  0
  146.6597  135.4385  163.6379 H   0  0  0  0  0  0  0  0  0  0  0  0
  145.0024  137.4032  159.3311 H   0  0  0  0  0  0  0  0  0  0  0  0
  146.9581  138.2368  158.3345 H   0  0  0  0  0  0  0  0  0  0  0  0
  150.2073  144.0987  156.7319 H   0  0  0  0  0  0  0  0  0  0  0  0
  1  2  2  0  0  0  0
  2  3  1  0  0  0  0
  2 12  1  0  0  0  0
  3  4  1  0  0  0  0
  3 24  1  0  0  0  0
  4  5  1  0  0  0  0
  4 25  1  0  0  0  0
  4 26  1  0  0  0  0
  5  6  1  0  0  0  0
  5 27  1  0  0  0  0
  5 28  1  0  0  0  0
  6 11  1  0  0  0  0
  6  7  2  0  0  0  0
  7  8  1  0  0  0  0
  7 29  1  0  0  0  0
  8  9  2  0  0  0  0
  8 30  1  0  0  0  0
  9 10  1  0  0  0  0
  9 31  1  0  0  0  0
 10 11  2  0  0  0  0
 10 40  1  0  0  0  0
 11 32  1  0  0  0  0
 12 23  1  0  0  0  0
 12 13  2  0  0  0  0
 13 14  1  0  0  0  0
 13 33  1  0  0  0  0
 14 21  1  0  0  0  0
 14 15  1  0  0  0  0
 15 16  1  0  0  0  0
 15 34  1  0  0  0  0
 15 35  1  0  0  0  0
 16 17  1  0  0  0  0
 16 36  1  0  0  0  0
 16 37  1  0  0  0  0
 17 18  2  0  0  0  0
 17 19  2  0  0  0  0
 17 20  1  0  0  0  0
 20 21  2  0  0  0  0
 21 22  1  0  0  0  0
 22 23  2  0  0  0  0
 22 38  1  0  0  0  0
 23 39  1  0  0  0  0
M  CHG  1  10   1
M  END
> <s_m_source_file>
AV-unprocessed.smi

> <i_m_source_file_index>
2164

> <i_lp_mmshare_version>
43012

> <i_f3d_flags>
0

> <s_epik_input>
W0NIMl0xW0NIMl1TKD1PKSg9TylOPUMoTjEyKVtDSF09W0NIXUMoPVtDSF0yKUMoPU8pW05IXVtDSDJdW0NIMl1jM1tjSF1bY0hdW2NIXW5bY0hdMw==

> <s_epik_cmdline>
J2VwaWtfcHl0aG9uJywgJy1waCcsICc3LjAnLCAnLXRuJywgJzgnLCAnLW1hJywgJzIwMCcsICctbWV0YWxfYmluZGluZycsICctaW1hZScsICc8aW5maWxlLm1hZT4nLCAnLW9tYWUnLCAnPG91dGZpbGUubWFlPic=

> <r_epik_Ionization_Penalty>
2.45963

> <r_epik_Ionization_Penalty_Charging>
2.45946

> <r_epik_Ionization_Penalty_Neutral>
0.000170278

> <r_epik_State_Penalty>
2.62155

> <r_epik_Charging_Adjusted_Penalty>
5.08101

> <i_epik_Tot_Q>
1

> <i_epik_Tot_abs_Q>
1

> <r_epik_Metal_State_Penalty>
2.85721

> <b_epik_Metal_Only>
0

> <s_lp_Force_Field>
OPLS_2005

> <r_lp_Energy>
29.3092

> <b_lp_Chiralities_Consistent>
1

> <s_lp_Variant>
AV-unprocessed.smi:2164-2

> <Gold.Version>
5.8.1

> <Gold.Id.Protein>
6NUR|6NUR_protein|mol2

> <Gold.PLP.Fitness>
48.2961

> <Gold.PLP.PLP>
-40.6015

> <Gold.PLP.part.hbond>
-2.0000

> <Gold.PLP.part.metal>
0.0000

> <Gold.PLP.part.buried>
-6.5442

> <Gold.PLP.part.nonpolar>
-33.9807

> <Gold.PLP.part.repulsive>
0.2910

> <Gold.PLP.ligand.clash>
0.0000

> <Gold.PLP.ligand.torsion>
0.6622

> <Gold.PLP.Chemscore.Hbond>
3.0000

> <Gold.PLP.Chemscore.CHOScore>
0.0000

> <Gold.PLP.Chemscore.Metal>
0.0000

> <Gold.Chemscore.Hbonds>
donor molecule, donor type, donor heavy atom, donor atom, acceptor molecule, acceptor atom, score
      L1  H    10    40       P1  8028  2.00
      P1  H  6896  6908       L1     1  0.89

> <Gold.PLP.Chemscore.Internal.Correction>
0.0190

> <Gold.Rescore>
     Score         DG    S(hbond)    S(metal)    S(lipo)     H(rot)  DE(clash)    DE(int)     intcor
     18.35     -19.24       1.99        0.00      94.47       1.54       0.00       0.89       ----

> <Gold.Chemscore.Fitness>
18.3527

> <Gold.Chemscore.DG>
-19.2421

> <Gold.Chemscore.ZeroCoef>
-5.4800

> <Gold.Chemscore.Hbond>
1.9881

> <Gold.Chemscore.Metal>
0.0000

> <Gold.Chemscore.Lipo>
94.4682

> <Gold.Chemscore.Internal_Hbond>
0.0000

> <Gold.Chemscore.DEClash>
0.0000

> <Gold.Chemscore.DEInternal>
0.8894

> <Gold.Chemscore.Rot>
1.5355

> <Gold.Chemscore.Internal.Correction>
   9.000000E+99

> <Gold.Chemscore.Hbonds>
donor molecule, donor type, donor heavy atom, donor atom, acceptor molecule, acceptor atom, score
      L1  H    10    40       P1  8028  0.99
      P1  H  6896  6908       L1     1  0.87

> <Gold.Chemscore.Hbond.Weighted>
-6.6402

> <Gold.Chemscore.Metal.Weighted>
-0.0000

> <Gold.Chemscore.Lipo.Weighted>
-11.0528

> <Gold.Chemscore.Internal_Hbond.Weighted>
0.0000

> <Gold.Chemscore.DEClash.Weighted>
0.0000

> <Gold.Chemscore.DEInternal.Weighted>
0.8894

> <Gold.Chemscore.Rot.Weighted>
3.9309

> <Gold.Chemscore.Internal.Correction.Weighted>
   9.000000E+99

> <Gold.Protein.RotatedTorsions>
[ 6907 6896 6895 6894 ] final -148.46 input  -60.11 | X-H torsion
[ 7974 7965 7964 7962 ] final  123.73 input  175.53 | X-H torsion
[ 8008 7997 7996 7995 ] final   76.73 input   59.86 | X-H torsion
[ 10167 10162 10161 10158 ] final  161.96 input  -65.29 | X-H torsion
[ 10718 10713 10712 10709 ] final   20.70 input   66.30 | X-H torsion
[ 10763 10752 10751 10750 ] final  109.00 input  -60.55 | X-H torsion
[ 11005 11000 10999 10996 ] final  121.36 input  -57.11 | X-H torsion

> <Gold.Protein.ActiveResidues>
 VAL166  LYS551  ARG553  GLY616  TRP617  ASP618  TYR619  PRO620  LYS621  CYS622 
 ASP623  PHE694  ASN695  SER759  ASP760  ASP761  ALA762  ILE779  LEU786  VAL792 
 PHE793  MET794  SER795  GLU796  ALA797  LYS798  CYS799  TRP800  GLU811  SER814 

> <Gold.Protein.RotatedAtoms>
  151.1702  133.4789  159.2593 H   0  0  0  0  0  0  0  0  0  0  0  0  # atno 6907 bound_to 6896
  151.1364  135.0157  159.8616 H   0  0  0  0  0  0  0  0  0  0  0  0  # atno 6908 bound_to 6896
  152.5461  134.1600  159.8607 H   0  0  0  0  0  0  0  0  0  0  0  0  # atno 6909 bound_to 6896
  145.0925  139.3576  143.4853 H   0  0  0  0  0  0  0  0  0  0  0  0  # atno 7974 bound_to 7965
  155.8316  140.3466  155.5575 H   0  0  0  0  0  0  0  0  0  0  0  0  # atno 8008 bound_to 7997
  155.8236  140.0916  157.1854 H   0  0  0  0  0  0  0  0  0  0  0  0  # atno 8009 bound_to 7997
  154.4004  140.1425  156.3517 H   0  0  0  0  0  0  0  0  0  0  0  0  # atno 8010 bound_to 7997
  139.4855  144.4485  151.8861 H   0  0  0  0  0  0  0  0  0  0  0  0  # atno 10167 bound_to 10162
  157.1282  130.6579  149.5944 H   0  0  0  0  0  0  0  0  0  0  0  0  # atno 10718 bound_to 10713
  153.4285  135.3794  155.2156 H   0  0  0  0  0  0  0  0  0  0  0  0  # atno 10763 bound_to 10752
  154.8749  135.3834  154.4297 H   0  0  0  0  0  0  0  0  0  0  0  0  # atno 10764 bound_to 10752
  153.4826  135.7088  153.5992 H   0  0  0  0  0  0  0  0  0  0  0  0  # atno 10765 bound_to 10752
  139.9223  134.9638  156.7946 H   0  0  0  0  0  0  0  0  0  0  0  0  # atno 11005 bound_to 11000
  146.3531  140.0766  142.8620 LP  0  0  0  0  0  0  0  0  0  0  0  0  # atno 17320 bound_to 7965
  145.1049  140.9369  143.4691 LP  0  0  0  0  0  0  0  0  0  0  0  0  # atno 17321 bound_to 7965
  140.3940  144.2579  150.5897 LP  0  0  0  0  0  0  0  0  0  0  0  0  # atno 17342 bound_to 10162
  140.5119  143.2288  151.8522 LP  0  0  0  0  0  0  0  0  0  0  0  0  # atno 17343 bound_to 10162
  155.9813  130.4820  150.6823 LP  0  0  0  0  0  0  0  0  0  0  0  0  # atno 17370 bound_to 10713
  157.4416  131.0862  151.0938 LP  0  0  0  0  0  0  0  0  0  0  0  0  # atno 17371 bound_to 10713
  140.6439  133.9793  155.7721 LP  0  0  0  0  0  0  0  0  0  0  0  0  # atno 17394 bound_to 11000
  141.0753  134.0144  157.3467 LP  0  0  0  0  0  0  0  0  0  0  0  0  # atno 17395 bound_to 11000

$$$$
