AV-unprocessed.smi:814|AV-procd|sdf|3822|dock2
  -GOLD-   22720 1263D 1   1.00000     0.00000
 Structure written by MMmdl.
 37 38  0  0  0  0  0  0  0  0  2 V2000
  148.3064  141.6914  154.8817 C   0  0  0  0  0  0  0  0  0  0  0  0
  148.0447  140.4856  154.0923 N   0  0  0  0  0  0  0  0  0  0  0  0
  146.8703  140.1578  153.4646 C   0  0  0  0  0  0  0  0  0  0  0  0
  147.0766  138.9496  152.8513 C   0  0  0  0  0  0  0  0  0  0  0  0
  148.3674  138.5899  153.1299 N   0  3  0  0  0  0  0  0  0  0  0  0
  148.9599  139.5251  153.8816 C   0  0  0  0  0  0  0  0  0  0  0  0
  150.3656  139.4741  154.3919 C   0  0  0  0  0  0  0  0  0  0  0  0
  150.4473  139.0687  155.8727 C   0  0  0  0  0  0  0  0  0  0  0  0
  150.5659  140.2360  156.7377 N   0  0  0  0  0  0  0  0  0  0  0  0
  151.6761  140.5764  157.4109 C   0  0  0  0  0  0  0  0  0  0  0  0
  152.7211  139.9267  157.3552 O   0  0  0  0  0  0  0  0  0  0  0  0
  151.5945  141.8373  158.2814 C   0  0  1  0  0  0  0  0  0  0  0  0
  152.8830  142.0217  159.1163 C   0  0  0  0  0  0  0  0  0  0  0  0
  152.9423  143.3833  159.7862 C   0  0  0  0  0  0  0  0  0  0  0  0
  152.1613  144.4173  159.4291 C   0  0  0  0  0  0  0  0  0  0  0  0
  151.1346  144.3427  158.3128 C   0  0  0  0  0  0  0  0  0  0  0  0
  151.3205  143.0937  157.4303 C   0  0  0  0  0  0  0  0  0  0  0  0
  147.3991  142.2933  154.9410 H   0  0  0  0  0  0  0  0  0  0  0  0
  149.0940  142.2734  154.4024 H   0  0  0  0  0  0  0  0  0  0  0  0
  148.6163  141.4081  155.8877 H   0  0  0  0  0  0  0  0  0  0  0  0
  145.9961  140.7919  153.4998 H   0  0  0  0  0  0  0  0  0  0  0  0
  146.4189  138.3349  152.2540 H   0  0  0  0  0  0  0  0  0  0  0  0
  150.9091  138.7647  153.7666 H   0  0  0  0  0  0  0  0  0  0  0  0
  150.8071  140.4560  154.2201 H   0  0  0  0  0  0  0  0  0  0  0  0
  149.5712  138.4862  156.1621 H   0  0  0  0  0  0  0  0  0  0  0  0
  151.3127  138.4260  156.0375 H   0  0  0  0  0  0  0  0  0  0  0  0
  149.7510  140.8249  156.8334 H   0  0  0  0  0  0  0  0  0  0  0  0
  150.7578  141.7202  158.9731 H   0  0  0  0  0  0  0  0  0  0  0  0
  152.9362  141.2525  159.8874 H   0  0  0  0  0  0  0  0  0  0  0  0
  153.7760  141.9137  158.4990 H   0  0  0  0  0  0  0  0  0  0  0  0
  153.6659  143.5054  160.5787 H   0  0  0  0  0  0  0  0  0  0  0  0
  152.2423  145.3578  159.9542 H   0  0  0  0  0  0  0  0  0  0  0  0
  150.1434  144.3390  158.7666 H   0  0  0  0  0  0  0  0  0  0  0  0
  151.2012  145.2427  157.7010 H   0  0  0  0  0  0  0  0  0  0  0  0
  152.1562  143.2617  156.7487 H   0  0  0  0  0  0  0  0  0  0  0  0
  150.4379  142.9531  156.8046 H   0  0  0  0  0  0  0  0  0  0  0  0
  148.8137  137.7387  152.8122 H   0  0  0  0  0  0  0  0  0  0  0  0
  1  2  1  0  0  0  0
  1 18  1  0  0  0  0
  1 19  1  0  0  0  0
  1 20  1  0  0  0  0
  2  6  1  0  0  0  0
  2  3  1  0  0  0  0
  3  4  2  0  0  0  0
  3 21  1  0  0  0  0
  4  5  1  0  0  0  0
  4 22  1  0  0  0  0
  5  6  2  0  0  0  0
  5 37  1  0  0  0  0
  6  7  1  0  0  0  0
  7  8  1  0  0  0  0
  7 23  1  0  0  0  0
  7 24  1  0  0  0  0
  8  9  1  0  0  0  0
  8 25  1  0  0  0  0
  8 26  1  0  0  0  0
  9 10  1  0  0  0  0
  9 27  1  0  0  0  0
 10 11  2  0  0  0  0
 10 12  1  0  0  0  0
 12 17  1  0  0  0  0
 12 13  1  0  0  0  0
 12 28  1  0  0  0  0
 13 14  1  0  0  0  0
 13 29  1  0  0  0  0
 13 30  1  0  0  0  0
 14 15  2  0  0  0  0
 14 31  1  0  0  0  0
 15 16  1  0  0  0  0
 15 32  1  0  0  0  0
 16 17  1  0  0  0  0
 16 33  1  0  0  0  0
 16 34  1  0  0  0  0
 17 35  1  0  0  0  0
 17 36  1  0  0  0  0
M  CHG  1   5   1
M  END
> <s_m_source_file>
AV-unprocessed.smi

> <i_m_source_file_index>
814

> <i_lp_mmshare_version>
43012

> <i_f3d_flags>
0

> <s_epik_input>
W0NIM11uMVtjSF1bY0hdbmMxW0NIMl1bQ0gyXVtOSF1DKD1PKVtDQEBIXTJbQ0gyXVtDSF09W0NIXVtDSDJdW0NIMl0y

> <s_epik_cmdline>
J2VwaWtfcHl0aG9uJywgJy1waCcsICc3LjAnLCAnLXRuJywgJzgnLCAnLW1hJywgJzIwMCcsICctbWV0YWxfYmluZGluZycsICctaW1hZScsICc8aW5maWxlLm1hZT4nLCAnLW9tYWUnLCAnPG91dGZpbGUubWFlPic=

> <r_lp_tautomer_probability>
1

> <r_epik_Ionization_Penalty>
0.0819619

> <r_epik_Ionization_Penalty_Charging>
0

> <r_epik_Ionization_Penalty_Neutral>
0.0819619

> <r_epik_State_Penalty>
0.0726933

> <r_epik_Charging_Adjusted_Penalty>
0.0726933

> <i_epik_Tot_Q>
1

> <i_epik_Tot_abs_Q>
1

> <r_epik_Metal_State_Penalty>
0.411758

> <b_epik_Metal_Only>
0

> <s_lp_Force_Field>
OPLS_2005

> <r_lp_Energy>
9.72317

> <b_lp_Chiralities_Consistent>
1

> <s_lp_Variant>
AV-unprocessed.smi:814-2

> <Gold.Version>
5.8.1

> <Gold.Id.Protein>
6NUR|6NUR_protein|mol2

> <Gold.PLP.Fitness>
48.7338

> <Gold.PLP.PLP>
-37.9532

> <Gold.PLP.part.hbond>
-3.0000

> <Gold.PLP.part.metal>
0.0000

> <Gold.PLP.part.buried>
-0.7389

> <Gold.PLP.part.nonpolar>
-35.1031

> <Gold.PLP.part.repulsive>
0.0932

> <Gold.PLP.ligand.clash>
0.0000

> <Gold.PLP.ligand.torsion>
0.5957

> <Gold.PLP.Chemscore.Hbond>
3.0000

> <Gold.PLP.Chemscore.CHOScore>
0.9800

> <Gold.PLP.Chemscore.Metal>
0.0000

> <Gold.Chemscore.Hbonds>
donor molecule, donor type, donor heavy atom, donor atom, acceptor molecule, acceptor atom, score
      L1  H     5    37       P1  7948  2.00
      P1  H  7997  8008       L1    11  1.00
      L1  C     3    21       P1 10175  0.97

> <Gold.PLP.Chemscore.Internal.Correction>
0.0319

> <Gold.Rescore>
     Score         DG    S(hbond)    S(metal)    S(lipo)     H(rot)  DE(clash)    DE(int)     intcor
     18.71     -19.36       1.93        0.00      99.73       1.65       0.08       0.57       ----

> <Gold.Chemscore.Fitness>
18.7139

> <Gold.Chemscore.DG>
-19.3628

> <Gold.Chemscore.ZeroCoef>
-5.4800

> <Gold.Chemscore.Hbond>
1.9290

> <Gold.Chemscore.Metal>
0.0000

> <Gold.Chemscore.Lipo>
99.7317

> <Gold.Chemscore.Internal_Hbond>
0.0000

> <Gold.Chemscore.DEClash>
0.0801

> <Gold.Chemscore.DEInternal>
0.5688

> <Gold.Chemscore.Rot>
1.6518

> <Gold.Chemscore.Internal.Correction>
   9.000000E+99

> <Gold.Chemscore.Hbonds>
donor molecule, donor type, donor heavy atom, donor atom, acceptor molecule, acceptor atom, score
      L1  H     5    37       P1  7948  0.99
      P1  H  7997  8008       L1    11  0.99

> <Gold.Chemscore.Hbond.Weighted>
-6.4429

> <Gold.Chemscore.Metal.Weighted>
-0.0000

> <Gold.Chemscore.Lipo.Weighted>
-11.6686

> <Gold.Chemscore.Internal_Hbond.Weighted>
0.0000

> <Gold.Chemscore.DEClash.Weighted>
0.0801

> <Gold.Chemscore.DEInternal.Weighted>
0.5688

> <Gold.Chemscore.Rot.Weighted>
4.2287

> <Gold.Chemscore.Internal.Correction.Weighted>
   9.000000E+99

> <Gold.Protein.RotatedTorsions>
[ 6907 6896 6895 6894 ] final  145.96 input  -60.11 | X-H torsion
[ 7974 7965 7964 7962 ] final  171.18 input  175.53 | X-H torsion
[ 8008 7997 7996 7995 ] final  -57.12 input   59.86 | X-H torsion
[ 10167 10162 10161 10158 ] final   -4.63 input  -65.29 | X-H torsion
[ 10718 10713 10712 10709 ] final   65.79 input   66.30 | X-H torsion
[ 10763 10752 10751 10750 ] final  139.76 input  -60.55 | X-H torsion
[ 11005 11000 10999 10996 ] final  109.61 input  -57.11 | X-H torsion

> <Gold.Protein.ActiveResidues>
 VAL166  LYS551  ARG553  GLY616  TRP617  ASP618  TYR619  PRO620  LYS621  CYS622 
 ASP623  PHE694  ASN695  SER759  ASP760  ASP761  ALA762  ILE779  LEU786  VAL792 
 PHE793  MET794  SER795  GLU796  ALA797  LYS798  CYS799  TRP800  GLU811  SER814 

> <Gold.Protein.RotatedAtoms>
  152.1741  133.4663  159.4923 H   0  0  0  0  0  0  0  0  0  0  0  0  # atno 6907 bound_to 6896
  150.6924  134.1916  159.4296 H   0  0  0  0  0  0  0  0  0  0  0  0  # atno 6908 bound_to 6896
  151.9825  135.0021  160.0608 H   0  0  0  0  0  0  0  0  0  0  0  0  # atno 6909 bound_to 6896
  144.7302  139.9312  143.6424 H   0  0  0  0  0  0  0  0  0  0  0  0  # atno 7974 bound_to 7965
  154.4256  140.1114  156.5747 H   0  0  0  0  0  0  0  0  0  0  0  0  # atno 8008 bound_to 7997
  155.6175  140.3495  155.4623 H   0  0  0  0  0  0  0  0  0  0  0  0  # atno 8009 bound_to 7997
  156.0050  140.1207  157.0500 H   0  0  0  0  0  0  0  0  0  0  0  0  # atno 8010 bound_to 7997
  140.6934  143.6401  150.8443 H   0  0  0  0  0  0  0  0  0  0  0  0  # atno 10167 bound_to 10162
  157.6128  130.9233  150.0023 H   0  0  0  0  0  0  0  0  0  0  0  0  # atno 10718 bound_to 10713
  153.9114  135.3011  155.3448 H   0  0  0  0  0  0  0  0  0  0  0  0  # atno 10763 bound_to 10752
  154.7621  135.4928  153.9488 H   0  0  0  0  0  0  0  0  0  0  0  0  # atno 10764 bound_to 10752
  153.1191  135.6778  153.9469 H   0  0  0  0  0  0  0  0  0  0  0  0  # atno 10765 bound_to 10752
  139.8865  134.9462  156.6152 H   0  0  0  0  0  0  0  0  0  0  0  0  # atno 11005 bound_to 11000
  146.0856  139.3844  143.0437 LP  0  0  0  0  0  0  0  0  0  0  0  0  # atno 17320 bound_to 7965
  145.7781  140.9868  143.1113 LP  0  0  0  0  0  0  0  0  0  0  0  0  # atno 17321 bound_to 7965
  140.0116  143.5636  152.2836 LP  0  0  0  0  0  0  0  0  0  0  0  0  # atno 17342 bound_to 10162
  139.6362  144.7650  151.2433 LP  0  0  0  0  0  0  0  0  0  0  0  0  # atno 17343 bound_to 10162
  156.1238  130.3645  149.9843 LP  0  0  0  0  0  0  0  0  0  0  0  0  # atno 17370 bound_to 10713
  156.7918  130.9259  151.3646 LP  0  0  0  0  0  0  0  0  0  0  0  0  # atno 17371 bound_to 10713
  140.7781  133.8682  155.8546 LP  0  0  0  0  0  0  0  0  0  0  0  0  # atno 17394 bound_to 11000
  140.9784  134.1438  157.4516 LP  0  0  0  0  0  0  0  0  0  0  0  0  # atno 17395 bound_to 11000

$$$$
