AV-unprocessed.smi:2262|AV-procd|sdf|9138|dock2
  -GOLD-   2272012343D 1   1.00000     0.00000
 Structure written by MMmdl.
 43 44  0  0  0  0  0  0  0  0  2 V2000
  143.7572  132.7860  148.7370 C   0  0  0  0  0  0  0  0  0  0  0  0
  144.7752  133.3760  149.6326 N   0  3  2  0  0  0  0  0  0  0  0  0
  145.5038  132.3462  150.4143 C   0  0  0  0  0  0  0  0  0  0  0  0
  146.6361  132.9776  151.2411 C   0  0  0  0  0  0  0  0  0  0  0  0
  146.0982  134.0882  152.1629 C   0  0  1  0  0  0  0  0  0  0  0  0
  147.1882  134.7468  152.8764 N   0  0  0  0  0  0  0  0  0  0  0  0
  147.3045  134.8116  154.2109 C   0  0  0  0  0  0  0  0  0  0  0  0
  146.4908  134.3076  154.9859 O   0  0  0  0  0  0  0  0  0  0  0  0
  148.4113  135.4848  154.5722 N   0  0  0  0  0  0  0  0  0  0  0  0
  148.8698  135.7735  155.8849 C   0  0  0  0  0  0  0  0  0  0  0  0
  150.1818  136.2905  155.9644 C   0  0  0  0  0  0  0  0  0  0  0  0
  150.7227  136.6113  157.2240 C   0  0  0  0  0  0  0  0  0  0  0  0
  149.9370  136.4080  158.3725 C   0  0  0  0  0  0  0  0  0  0  0  0
  148.6380  135.8890  158.2145 C   0  0  0  0  0  0  0  0  0  0  0  0
  147.8620  135.6901  159.3379 O   0  0  0  0  0  0  0  0  0  0  0  0
  148.4735  135.8251  160.6179 C   0  0  0  0  0  0  0  0  0  0  0  0
  147.4402  135.4858  161.6966 C   0  0  0  0  0  0  0  0  0  0  0  0
  147.3306  134.1650  161.8364 F   0  0  0  0  0  0  0  0  0  0  0  0
  147.8024  136.0205  162.8621 F   0  0  0  0  0  0  0  0  0  0  0  0
  148.1230  135.5796  156.9993 N   0  0  0  0  0  0  0  0  0  0  0  0
  145.3202  135.1186  151.3282 C   0  0  0  0  0  0  0  0  0  0  0  0
  144.2144  134.4405  150.5016 C   0  0  0  0  0  0  0  0  0  0  0  0
  142.9784  132.2801  149.3093 H   0  0  0  0  0  0  0  0  0  0  0  0
  144.2124  132.0611  148.0619 H   0  0  0  0  0  0  0  0  0  0  0  0
  143.2871  133.5580  148.1267 H   0  0  0  0  0  0  0  0  0  0  0  0
  144.8066  131.8237  151.0715 H   0  0  0  0  0  0  0  0  0  0  0  0
  145.9214  131.6005  149.7367 H   0  0  0  0  0  0  0  0  0  0  0  0
  147.1325  132.2048  151.8293 H   0  0  0  0  0  0  0  0  0  0  0  0
  147.3916  133.3871  150.5687 H   0  0  0  0  0  0  0  0  0  0  0  0
  145.4116  133.6482  152.8893 H   0  0  0  0  0  0  0  0  0  0  0  0
  147.9019  135.1880  152.3148 H   0  0  0  0  0  0  0  0  0  0  0  0
  148.9897  135.8365  153.8237 H   0  0  0  0  0  0  0  0  0  0  0  0
  150.7715  136.4425  155.0721 H   0  0  0  0  0  0  0  0  0  0  0  0
  151.7236  137.0084  157.3071 H   0  0  0  0  0  0  0  0  0  0  0  0
  150.3218  136.6455  159.3533 H   0  0  0  0  0  0  0  0  0  0  0  0
  149.3415  135.1702  160.7140 H   0  0  0  0  0  0  0  0  0  0  0  0
  148.8121  136.8540  160.7506 H   0  0  0  0  0  0  0  0  0  0  0  0
  146.4547  135.8816  161.4505 H   0  0  0  0  0  0  0  0  0  0  0  0
  144.8809  135.8742  151.9807 H   0  0  0  0  0  0  0  0  0  0  0  0
  146.0010  135.6457  150.6577 H   0  0  0  0  0  0  0  0  0  0  0  0
  143.7106  135.1874  149.8868 H   0  0  0  0  0  0  0  0  0  0  0  0
  143.4594  134.0126  151.1634 H   0  0  0  0  0  0  0  0  0  0  0  0
  145.4580  133.8209  149.0358 H   0  0  0  0  0  0  0  0  0  0  0  0
  1  2  1  0  0  0  0
  1 23  1  0  0  0  0
  1 24  1  0  0  0  0
  1 25  1  0  0  0  0
  2 22  1  0  0  0  0
  2  3  1  0  0  0  0
  2 43  1  0  0  0  0
  3  4  1  0  0  0  0
  3 26  1  0  0  0  0
  3 27  1  0  0  0  0
  4  5  1  0  0  0  0
  4 28  1  0  0  0  0
  4 29  1  0  0  0  0
  5  6  1  0  0  0  0
  5 21  1  0  0  0  0
  5 30  1  0  0  0  0
  6  7  1  0  0  0  0
  6 31  1  0  0  0  0
  7  8  2  0  0  0  0
  7  9  1  0  0  0  0
  9 10  1  0  0  0  0
  9 32  1  0  0  0  0
 10 20  1  0  0  0  0
 10 11  2  0  0  0  0
 11 12  1  0  0  0  0
 11 33  1  0  0  0  0
 12 13  2  0  0  0  0
 12 34  1  0  0  0  0
 13 14  1  0  0  0  0
 13 35  1  0  0  0  0
 14 15  1  0  0  0  0
 14 20  2  0  0  0  0
 15 16  1  0  0  0  0
 16 17  1  0  0  0  0
 16 36  1  0  0  0  0
 16 37  1  0  0  0  0
 17 18  1  0  0  0  0
 17 19  1  0  0  0  0
 17 38  1  0  0  0  0
 21 22  1  0  0  0  0
 21 39  1  0  0  0  0
 21 40  1  0  0  0  0
 22 41  1  0  0  0  0
 22 42  1  0  0  0  0
M  CHG  1   2   1
M  END
> <s_m_source_file>
AV-unprocessed.smi

> <i_m_source_file_index>
2262

> <i_lp_mmshare_version>
43012

> <i_f3d_flags>
0

> <s_epik_input>
W0NIM11OMVtDSDJdW0NIMl1bQ0hdKFtDSDJdW0NIMl0xKVtOSF1DKD1PKVtOSF1jMltjSF1bY0hdW2NIXWMobjIpT1tDSDJdW0NIXShGKUY=

> <s_epik_cmdline>
J2VwaWtfcHl0aG9uJywgJy1waCcsICc3LjAnLCAnLXRuJywgJzgnLCAnLW1hJywgJzIwMCcsICctbWV0YWxfYmluZGluZycsICctaW1hZScsICc8aW5maWxlLm1hZT4nLCAnLW9tYWUnLCAnPG91dGZpbGUubWFlPic=

> <r_lp_tautomer_probability>
1

> <r_epik_Ionization_Penalty>
0.00369782

> <r_epik_Ionization_Penalty_Charging>
0.00366825

> <r_epik_Ionization_Penalty_Neutral>
2.95729e-05

> <r_epik_State_Penalty>
0.00261101

> <r_epik_Charging_Adjusted_Penalty>
0.00627926

> <i_epik_Tot_Q>
1

> <i_epik_Tot_abs_Q>
1

> <r_epik_Metal_State_Penalty>
-0

> <b_epik_Metal_Only>
0

> <s_lp_Force_Field>
OPLS_2005

> <r_lp_Energy>
16.1111

> <b_lp_Chiralities_Consistent>
1

> <s_lp_Variant>
AV-unprocessed.smi:2262-1

> <Gold.Version>
5.8.1

> <Gold.Id.Protein>
6NUR|6NUR_protein|mol2

> <Gold.PLP.Fitness>
45.0228

> <Gold.PLP.PLP>
-37.2813

> <Gold.PLP.part.hbond>
-2.8987

> <Gold.PLP.part.metal>
0.0000

> <Gold.PLP.part.buried>
-5.5374

> <Gold.PLP.part.nonpolar>
-29.8218

> <Gold.PLP.part.repulsive>
0.1741

> <Gold.PLP.ligand.clash>
0.2586

> <Gold.PLP.ligand.torsion>
0.3142

> <Gold.PLP.Chemscore.Hbond>
2.8553

> <Gold.PLP.Chemscore.CHOScore>
0.0000

> <Gold.PLP.Chemscore.Metal>
0.0000

> <Gold.Chemscore.Hbonds>
donor molecule, donor type, donor heavy atom, donor atom, acceptor molecule, acceptor atom, score
      L1  H     2    43       P1  7921  1.00
      L1  H     6    31       P1  7948  0.96
      L1  H     9    32       P1  7948  0.85

> <Gold.PLP.Chemscore.Internal.Correction>
0.0628

> <Gold.Rescore>
     Score         DG    S(hbond)    S(metal)    S(lipo)     H(rot)  DE(clash)    DE(int)     intcor
     17.49     -19.06       2.88        0.00      69.87       1.64       0.03       1.54       ----

> <Gold.Chemscore.Fitness>
17.4908

> <Gold.Chemscore.DG>
-19.0642

> <Gold.Chemscore.ZeroCoef>
-5.4800

> <Gold.Chemscore.Hbond>
2.8790

> <Gold.Chemscore.Metal>
0.0000

> <Gold.Chemscore.Lipo>
69.8737

> <Gold.Chemscore.Internal_Hbond>
0.0000

> <Gold.Chemscore.DEClash>
0.0308

> <Gold.Chemscore.DEInternal>
1.5427

> <Gold.Chemscore.Rot>
1.6434

> <Gold.Chemscore.Internal.Correction>
   9.000000E+99

> <Gold.Chemscore.Hbonds>
donor molecule, donor type, donor heavy atom, donor atom, acceptor molecule, acceptor atom, score
      L1  H     2    43       P1  7921  0.65
      L1  H     6    31       P1  7948  0.87
      L1  H     9    32       P1  7948  0.77

> <Gold.Chemscore.Hbond.Weighted>
-9.6160

> <Gold.Chemscore.Metal.Weighted>
-0.0000

> <Gold.Chemscore.Lipo.Weighted>
-8.1752

> <Gold.Chemscore.Internal_Hbond.Weighted>
0.0000

> <Gold.Chemscore.DEClash.Weighted>
0.0308

> <Gold.Chemscore.DEInternal.Weighted>
1.5427

> <Gold.Chemscore.Rot.Weighted>
4.2070

> <Gold.Chemscore.Internal.Correction.Weighted>
   9.000000E+99

> <Gold.Protein.RotatedTorsions>
[ 6907 6896 6895 6894 ] final   17.59 input  -60.11 | X-H torsion
[ 7974 7965 7964 7962 ] final -151.43 input  175.53 | X-H torsion
[ 8008 7997 7996 7995 ] final   20.06 input   59.86 | X-H torsion
[ 10167 10162 10161 10158 ] final  146.64 input  -65.29 | X-H torsion
[ 10718 10713 10712 10709 ] final  -33.57 input   66.30 | X-H torsion
[ 10763 10752 10751 10750 ] final   95.90 input  -60.55 | X-H torsion
[ 11005 11000 10999 10996 ] final  -93.21 input  -57.11 | X-H torsion

> <Gold.Protein.ActiveResidues>
 VAL166  LYS551  ARG553  GLY616  TRP617  ASP618  TYR619  PRO620  LYS621  CYS622 
 ASP623  PHE694  ASN695  SER759  ASP760  ASP761  ALA762  ILE779  LEU786  VAL792 
 PHE793  MET794  SER795  GLU796  ALA797  LYS798  CYS799  TRP800  GLU811  SER814 

> <Gold.Protein.RotatedAtoms>
  151.8520  135.0554  160.0459 H   0  0  0  0  0  0  0  0  0  0  0  0  # atno 6907 bound_to 6896
  152.2729  133.5395  159.5459 H   0  0  0  0  0  0  0  0  0  0  0  0  # atno 6908 bound_to 6896
  150.7159  134.0588  159.3866 H   0  0  0  0  0  0  0  0  0  0  0  0  # atno 6909 bound_to 6896
  144.7850  140.4798  143.5812 H   0  0  0  0  0  0  0  0  0  0  0  0  # atno 7974 bound_to 7965
  154.9300  140.3039  155.5172 H   0  0  0  0  0  0  0  0  0  0  0  0  # atno 8008 bound_to 7997
  156.3004  140.2355  156.4295 H   0  0  0  0  0  0  0  0  0  0  0  0  # atno 8009 bound_to 7997
  154.8247  140.0421  157.1424 H   0  0  0  0  0  0  0  0  0  0  0  0  # atno 8010 bound_to 7997
  139.4903  144.5814  151.6864 H   0  0  0  0  0  0  0  0  0  0  0  0  # atno 10167 bound_to 10162
  156.3611  130.4324  149.7623 H   0  0  0  0  0  0  0  0  0  0  0  0  # atno 10718 bound_to 10713
  153.2586  135.4238  155.0870 H   0  0  0  0  0  0  0  0  0  0  0  0  # atno 10763 bound_to 10752
  154.8411  135.3443  154.6411 H   0  0  0  0  0  0  0  0  0  0  0  0  # atno 10764 bound_to 10752
  153.6831  135.7038  153.5169 H   0  0  0  0  0  0  0  0  0  0  0  0  # atno 10765 bound_to 10752
  141.1503  133.7872  157.0128 H   0  0  0  0  0  0  0  0  0  0  0  0  # atno 11005 bound_to 11000
  145.5946  139.1498  143.3163 LP  0  0  0  0  0  0  0  0  0  0  0  0  # atno 17320 bound_to 7965
  146.2077  140.6070  142.9073 LP  0  0  0  0  0  0  0  0  0  0  0  0  # atno 17321 bound_to 7965
  140.5421  144.0562  150.6092 LP  0  0  0  0  0  0  0  0  0  0  0  0  # atno 17342 bound_to 10162
  140.3588  143.2920  152.0407 LP  0  0  0  0  0  0  0  0  0  0  0  0  # atno 17343 bound_to 10162
  156.4787  130.8031  151.3046 LP  0  0  0  0  0  0  0  0  0  0  0  0  # atno 17370 bound_to 10713
  157.7473  131.0013  150.2957 LP  0  0  0  0  0  0  0  0  0  0  0  0  # atno 17371 bound_to 10713
  140.0866  134.9617  157.1710 LP  0  0  0  0  0  0  0  0  0  0  0  0  # atno 17394 bound_to 11000
  140.3502  134.2606  155.7199 LP  0  0  0  0  0  0  0  0  0  0  0  0  # atno 17395 bound_to 11000

$$$$
