AV-unprocessed.smi:275|AV-procd|sdf|2067|dock3
  -GOLD-   2262021323D 1   1.00000     0.00000
 Structure written by MMmdl.
 65 69  0  0  0  0  0  0  0  0  1 V2000
  151.0773  142.4674  157.0237 C   0  0  0  0  0  0  0  0  0  0  0  0
  150.5114  142.2041  158.4266 C   0  0  0  0  0  0  0  0  0  0  0  0
  149.7265  143.4433  158.9122 C   0  0  0  0  0  0  0  0  0  0  0  0
  151.6072  141.6631  159.3835 C   0  0  1  0  0  0  0  0  0  0  0  0
  152.5375  140.7740  158.6830 N   0  0  0  0  0  0  0  0  0  0  0  0
  152.8126  139.5063  159.2947 C   0  0  0  0  0  0  0  0  0  0  0  0
  151.9655  138.4679  159.0559 N   0  0  0  0  0  0  0  0  0  0  0  0
  152.1598  137.2640  159.5990 C   0  0  0  0  0  0  0  0  0  0  0  0
  153.1274  136.8722  160.4252 N   0  0  0  0  0  0  0  0  0  0  0  0
  153.9717  137.9028  160.7069 C   0  0  0  0  0  0  0  0  0  0  0  0
  153.8847  139.2330  160.1996 C   0  0  0  0  0  0  0  0  0  0  0  0
  154.9175  139.9956  160.7346 N   0  0  0  0  0  0  0  0  0  0  0  0
  155.5791  139.1685  161.4953 C   0  0  0  0  0  0  0  0  0  0  0  0
  155.0846  137.8868  161.5290 N   0  0  0  0  0  0  0  0  0  0  0  0
  155.6254  136.7699  162.2842 C   0  0  0  0  0  0  0  0  0  0  0  0
  154.6187  136.1779  163.3019 C   0  0  2  0  0  0  0  0  0  0  0  0
  154.2808  137.1595  164.4510 C   0  0  0  0  0  0  0  0  0  0  0  0
  155.4401  137.5435  165.1614 O   0  0  0  0  0  0  0  0  0  0  0  0
  155.0873  134.7968  163.8261 C   0  0  1  0  0  0  0  0  0  0  0  0
  154.1960  134.1789  164.8892 C   0  0  0  0  0  0  0  0  0  0  0  0
  154.6132  132.7130  164.8464 C   0  0  0  0  0  0  0  0  0  0  0  0
  154.9716  132.4549  163.4937 O   0  0  0  0  0  0  0  0  0  0  0  0
  155.0823  133.6802  162.7766 C   0  0  0  0  0  0  0  0  0  0  0  0
  153.6128  141.7637  158.7303 C   0  0  0  0  0  0  0  0  0  0  0  0
  152.8391  142.4924  159.8374 C   0  0  0  0  0  0  0  0  0  0  0  0
  153.3492  142.1983  161.2662 C   0  0  0  0  0  0  0  0  0  0  0  0
  152.4574  142.7984  162.3660 C   0  0  0  0  0  0  0  0  0  0  0  0
  152.3349  144.3176  162.2059 C   0  0  0  0  0  0  0  0  0  0  0  0
  151.8758  144.6835  160.7903 C   0  0  0  0  0  0  0  0  0  0  0  0
  152.7738  144.0296  159.7243 C   0  0  0  0  0  0  0  0  0  0  0  0
  151.8162  143.2690  157.0402 H   0  0  0  0  0  0  0  0  0  0  0  0
  150.2893  142.7584  156.3288 H   0  0  0  0  0  0  0  0  0  0  0  0
  151.5567  141.5764  156.6176 H   0  0  0  0  0  0  0  0  0  0  0  0
  149.7742  141.4133  158.2946 H   0  0  0  0  0  0  0  0  0  0  0  0
  150.3703  144.3190  158.9992 H   0  0  0  0  0  0  0  0  0  0  0  0
  149.2465  143.2889  159.8756 H   0  0  0  0  0  0  0  0  0  0  0  0
  148.9359  143.6971  158.2058 H   0  0  0  0  0  0  0  0  0  0  0  0
  151.1646  141.2064  160.2672 H   0  0  0  0  0  0  0  0  0  0  0  0
  151.4359  136.5078  159.3336 H   0  0  0  0  0  0  0  0  0  0  0  0
  156.4538  139.4709  162.0527 H   0  0  0  0  0  0  0  0  0  0  0  0
  155.9378  136.0109  161.5668 H   0  0  0  0  0  0  0  0  0  0  0  0
  156.5309  137.0978  162.7959 H   0  0  0  0  0  0  0  0  0  0  0  0
  153.6865  136.0137  162.7596 H   0  0  0  0  0  0  0  0  0  0  0  0
  153.7915  138.0561  164.0704 H   0  0  0  0  0  0  0  0  0  0  0  0
  153.5760  136.7106  165.1506 H   0  0  0  0  0  0  0  0  0  0  0  0
  155.2943  138.3990  165.5356 H   0  0  0  0  0  0  0  0  0  0  0  0
  156.0974  134.8825  164.2309 H   0  0  0  0  0  0  0  0  0  0  0  0
  154.3324  134.6202  165.8770 H   0  0  0  0  0  0  0  0  0  0  0  0
  153.1453  134.2772  164.6117 H   0  0  0  0  0  0  0  0  0  0  0  0
  155.4890  132.5486  165.4753 H   0  0  0  0  0  0  0  0  0  0  0  0
  153.8220  132.0435  165.1845 H   0  0  0  0  0  0  0  0  0  0  0  0
  154.2157  133.7693  162.1198 H   0  0  0  0  0  0  0  0  0  0  0  0
  155.9778  133.6885  162.1547 H   0  0  0  0  0  0  0  0  0  0  0  0
  154.5996  141.4178  159.0377 H   0  0  0  0  0  0  0  0  0  0  0  0
  153.6754  142.3315  157.8023 H   0  0  0  0  0  0  0  0  0  0  0  0
  153.4266  141.1244  161.4360 H   0  0  0  0  0  0  0  0  0  0  0  0
  154.3644  142.5799  161.3836 H   0  0  0  0  0  0  0  0  0  0  0  0
  151.4669  142.3436  162.3281 H   0  0  0  0  0  0  0  0  0  0  0  0
  152.8674  142.5620  163.3483 H   0  0  0  0  0  0  0  0  0  0  0  0
  151.6399  144.7199  162.9435 H   0  0  0  0  0  0  0  0  0  0  0  0
  153.3018  144.7819  162.4044 H   0  0  0  0  0  0  0  0  0  0  0  0
  150.8421  144.3674  160.6534 H   0  0  0  0  0  0  0  0  0  0  0  0
  151.8836  145.7671  160.6687 H   0  0  0  0  0  0  0  0  0  0  0  0
  153.7788  144.4452  159.8095 H   0  0  0  0  0  0  0  0  0  0  0  0
  152.4267  144.3393  158.7417 H   0  0  0  0  0  0  0  0  0  0  0  0
  1  2  1  0  0  0  0
  1 31  1  0  0  0  0
  1 32  1  0  0  0  0
  1 33  1  0  0  0  0
  2  3  1  0  0  0  0
  2  4  1  0  0  0  0
  2 34  1  0  0  0  0
  3 35  1  0  0  0  0
  3 36  1  0  0  0  0
  3 37  1  0  0  0  0
  4 25  1  0  0  0  0
  4  5  1  0  0  0  0
  4 38  1  0  0  0  0
  5  6  1  0  0  0  0
  5 24  1  0  0  0  0
  6 11  1  0  0  0  0
  6  7  2  0  0  0  0
  7  8  1  0  0  0  0
  8  9  2  0  0  0  0
  8 39  1  0  0  0  0
  9 10  1  0  0  0  0
 10 14  1  0  0  0  0
 10 11  2  0  0  0  0
 11 12  1  0  0  0  0
 12 13  2  0  0  0  0
 13 14  1  0  0  0  0
 13 40  1  0  0  0  0
 14 15  1  0  0  0  0
 15 16  1  0  0  0  0
 15 41  1  0  0  0  0
 15 42  1  0  0  0  0
 16 17  1  0  0  0  0
 16 19  1  0  0  0  0
 16 43  1  0  0  0  0
 17 18  1  0  0  0  0
 17 44  1  0  0  0  0
 17 45  1  0  0  0  0
 18 46  1  0  0  0  0
 19 23  1  0  0  0  0
 19 20  1  0  0  0  0
 19 47  1  0  0  0  0
 20 21  1  0  0  0  0
 20 48  1  0  0  0  0
 20 49  1  0  0  0  0
 21 22  1  0  0  0  0
 21 50  1  0  0  0  0
 21 51  1  0  0  0  0
 22 23  1  0  0  0  0
 23 52  1  0  0  0  0
 23 53  1  0  0  0  0
 24 25  1  0  0  0  0
 24 54  1  0  0  0  0
 24 55  1  0  0  0  0
 25 30  1  0  0  0  0
 25 26  1  0  0  0  0
 26 27  1  0  0  0  0
 26 56  1  0  0  0  0
 26 57  1  0  0  0  0
 27 28  1  0  0  0  0
 27 58  1  0  0  0  0
 27 59  1  0  0  0  0
 28 29  1  0  0  0  0
 28 60  1  0  0  0  0
 28 61  1  0  0  0  0
 29 30  1  0  0  0  0
 29 62  1  0  0  0  0
 29 63  1  0  0  0  0
 30 64  1  0  0  0  0
 30 65  1  0  0  0  0
M  END
> <s_m_source_file>
AV-unprocessed.smi

> <i_m_source_file_index>
275

> <i_lp_mmshare_version>
43012

> <i_f3d_flags>
0

> <s_epik_input>
W0NIMl0xW0NIMl1bQ0gyXVtDSDJdW0NIMl1DMTJbQ0BIXShbQ0hdKFtDSDNdKVtDSDNdKU4oW0NIMl0yKWMobltjSF1uMyljKGMzNCluW2NIXW40W0NIMl1bQ0BIXShbQ0gyXVtPSF0pW0NAQEhdNVtDSDJdW0NIMl1PW0NIMl01

> <s_epik_cmdline>
J2VwaWtfcHl0aG9uJywgJy1waCcsICc3LjAnLCAnLXRuJywgJzgnLCAnLW1hJywgJzIwMCcsICctbWV0YWxfYmluZGluZycsICctaW1hZScsICc8aW5maWxlLm1hZT4nLCAnLW9tYWUnLCAnPG91dGZpbGUubWFlPic=

> <r_lp_tautomer_probability>
1

> <r_epik_Ionization_Penalty>
0.00375122

> <r_epik_Ionization_Penalty_Charging>
0

> <r_epik_Ionization_Penalty_Neutral>
0.00375122

> <r_epik_State_Penalty>
0.00260593

> <r_epik_Charging_Adjusted_Penalty>
0.00260593

> <i_epik_Tot_Q>
0

> <i_epik_Tot_abs_Q>
0

> <r_epik_Metal_State_Penalty>
-0

> <b_epik_Metal_Only>
0

> <s_lp_Force_Field>
OPLS_2005

> <r_lp_Energy>
69.8585

> <b_lp_Chiralities_Consistent>
1

> <s_lp_Variant>
AV-unprocessed.smi:275-6

> <Gold.Version>
5.8.1

> <Gold.Id.Protein>
6NUR|6NUR_protein|mol2

> <Gold.PLP.Fitness>
49.9646

> <Gold.PLP.PLP>
-50.3023

> <Gold.PLP.part.hbond>
-1.4814

> <Gold.PLP.part.metal>
0.0000

> <Gold.PLP.part.buried>
-2.4692

> <Gold.PLP.part.nonpolar>
-46.8453

> <Gold.PLP.part.repulsive>
0.0000

> <Gold.PLP.ligand.clash>
0.0000

> <Gold.PLP.ligand.torsion>
0.9249

> <Gold.PLP.Chemscore.Hbond>
0.3445

> <Gold.PLP.Chemscore.CHOScore>
0.0000

> <Gold.PLP.Chemscore.Metal>
0.0000

> <Gold.Chemscore.Hbonds>
donor molecule, donor type, donor heavy atom, donor atom, acceptor molecule, acceptor atom, score
      P1  H  6896  6909       L1     9  0.03

> <Gold.PLP.Chemscore.Internal.Correction>
0.4786

> <Gold.Rescore>
     Score         DG    S(hbond)    S(metal)    S(lipo)     H(rot)  DE(clash)    DE(int)     intcor
     12.85     -18.86       0.01        0.00     169.61       2.54       2.54       3.46       ----

> <Gold.Chemscore.Fitness>
12.8524

> <Gold.Chemscore.DG>
-18.8612

> <Gold.Chemscore.ZeroCoef>
-5.4800

> <Gold.Chemscore.Hbond>
0.0099

> <Gold.Chemscore.Metal>
0.0000

> <Gold.Chemscore.Lipo>
169.6131

> <Gold.Chemscore.Internal_Hbond>
0.0000

> <Gold.Chemscore.DEClash>
2.5445

> <Gold.Chemscore.DEInternal>
3.4642

> <Gold.Chemscore.Rot>
2.5377

> <Gold.Chemscore.Internal.Correction>
   9.000000E+99

> <Gold.Chemscore.Hbond.Weighted>
-0.0331

> <Gold.Chemscore.Metal.Weighted>
-0.0000

> <Gold.Chemscore.Lipo.Weighted>
-19.8447

> <Gold.Chemscore.Internal_Hbond.Weighted>
0.0000

> <Gold.Chemscore.DEClash.Weighted>
2.5445

> <Gold.Chemscore.DEInternal.Weighted>
3.4642

> <Gold.Chemscore.Rot.Weighted>
6.4966

> <Gold.Chemscore.Internal.Correction.Weighted>
   9.000000E+99

> <Gold.Protein.RotatedTorsions>
[ 6907 6896 6895 6894 ] final  157.38 input  -60.11 | X-H torsion
[ 7974 7965 7964 7962 ] final   22.72 input  175.53 | X-H torsion
[ 8008 7997 7996 7995 ] final  -51.86 input   59.86 | X-H torsion
[ 10167 10162 10161 10158 ] final -164.64 input  -65.29 | X-H torsion
[ 10718 10713 10712 10709 ] final -102.43 input   66.30 | X-H torsion
[ 10763 10752 10751 10750 ] final  -22.15 input  -60.55 | X-H torsion
[ 11005 11000 10999 10996 ] final   64.78 input  -57.11 | X-H torsion

> <Gold.Protein.ActiveResidues>
 VAL166  LYS551  ARG553  GLY616  TRP617  ASP618  TYR619  PRO620  LYS621  CYS622 
 ASP623  PHE694  ASN695  SER759  ASP760  ASP761  ALA762  ILE779  LEU786  VAL792 
 PHE793  MET794  SER795  GLU796  ALA797  LYS798  CYS799  TRP800  GLU811  SER814 

> <Gold.Protein.RotatedAtoms>
  152.0159  133.3879  159.4238 H   0  0  0  0  0  0  0  0  0  0  0  0  # atno 6907 bound_to 6896
  150.6895  134.3679  159.4988 H   0  0  0  0  0  0  0  0  0  0  0  0  # atno 6908 bound_to 6896
  152.1446  134.9035  160.0602 H   0  0  0  0  0  0  0  0  0  0  0  0  # atno 6909 bound_to 6896
  146.2016  139.7846  142.8757 H   0  0  0  0  0  0  0  0  0  0  0  0  # atno 7974 bound_to 7965
  154.4093  140.1237  156.4898 H   0  0  0  0  0  0  0  0  0  0  0  0  # atno 8008 bound_to 7997
  155.7001  140.3495  155.4910 H   0  0  0  0  0  0  0  0  0  0  0  0  # atno 8009 bound_to 7997
  155.9392  140.1084  157.1059 H   0  0  0  0  0  0  0  0  0  0  0  0  # atno 8010 bound_to 7997
  139.6236  144.0575  152.1955 H   0  0  0  0  0  0  0  0  0  0  0  0  # atno 10167 bound_to 10162
  156.0229  130.5420  150.7108 H   0  0  0  0  0  0  0  0  0  0  0  0  # atno 10718 bound_to 10713
  153.6475  135.6982  153.5220 H   0  0  0  0  0  0  0  0  0  0  0  0  # atno 10763 bound_to 10752
  153.2733  135.4208  155.1008 H   0  0  0  0  0  0  0  0  0  0  0  0  # atno 10764 bound_to 10752
  154.8485  135.3584  154.6019 H   0  0  0  0  0  0  0  0  0  0  0  0  # atno 10765 bound_to 10752
  139.9937  134.6551  156.0047 H   0  0  0  0  0  0  0  0  0  0  0  0  # atno 11005 bound_to 11000
  145.3463  141.0298  143.3364 LP  0  0  0  0  0  0  0  0  0  0  0  0  # atno 17320 bound_to 7965
  144.8697  139.5056  143.6773 LP  0  0  0  0  0  0  0  0  0  0  0  0  # atno 17321 bound_to 7965
  140.0223  144.6143  150.7556 LP  0  0  0  0  0  0  0  0  0  0  0  0  # atno 17342 bound_to 10162
  140.7397  143.2795  151.3640 LP  0  0  0  0  0  0  0  0  0  0  0  0  # atno 17343 bound_to 10162
  157.4746  131.0896  151.0604 LP  0  0  0  0  0  0  0  0  0  0  0  0  # atno 17370 bound_to 10713
  157.1054  130.5999  149.5470 LP  0  0  0  0  0  0  0  0  0  0  0  0  # atno 17371 bound_to 10713
  141.1587  133.6540  156.4245 LP  0  0  0  0  0  0  0  0  0  0  0  0  # atno 17394 bound_to 11000
  140.4860  134.6620  157.5191 LP  0  0  0  0  0  0  0  0  0  0  0  0  # atno 17395 bound_to 11000

$$$$
