AV-unprocessed.smi:2482|AV-procd|sdf|9783|dock5
  -GOLD-   2272013423D 1   1.00000     0.00000
 Structure written by MMmdl.
 34 35  0  0  0  0  0  0  0  0  3 V2000
  152.5168  144.1250  161.8621 C   0  0  0  0  0  0  0  0  0  0  0  0
  151.9564  143.6441  160.5365 C   0  0  0  0  0  0  0  0  0  0  0  0
  151.1018  144.4914  159.9241 N   0  0  0  0  0  0  0  0  0  0  0  0
  150.5734  144.1071  158.7454 C   0  0  0  0  0  0  0  0  0  0  0  0
  150.8713  142.8770  158.1295 C   0  0  0  0  0  0  0  0  0  0  0  0
  151.7701  141.9839  158.7544 C   0  0  0  0  0  0  0  0  0  0  0  0
  152.0590  140.8039  158.1812 N   0  5  0  0  0  0  0  0  0  0  0  0
  151.1878  140.2454  157.3064 C   0  0  0  0  0  0  0  0  0  0  0  0
  150.3612  139.3540  157.5116 O   0  0  0  0  0  0  0  0  0  0  0  0
  151.3202  140.8707  155.8995 C   0  0  2  0  0  0  0  0  0  0  0  0
  150.0768  141.6637  155.4313 C   0  0  0  0  0  0  0  0  0  0  0  0
  148.9421  140.7551  155.1413 N   0  3  1  0  0  0  0  0  0  0  0  0
  147.7133  141.4804  154.7564 C   0  0  0  0  0  0  0  0  0  0  0  0
  149.3326  139.7230  154.1547 C   0  0  0  0  0  0  0  0  0  0  0  0
  150.5708  138.9559  154.6465 C   0  0  0  0  0  0  0  0  0  0  0  0
  151.6283  139.8756  154.9154 O   0  0  0  0  0  0  0  0  0  0  0  0
  152.3201  142.3859  159.9996 C   0  0  0  0  0  0  0  0  0  0  0  0
  153.4217  141.3582  160.8579 Cl  0  0  0  0  0  0  0  0  0  0  0  0
  153.6034  144.1976  161.8102 H   0  0  0  0  0  0  0  0  0  0  0  0
  152.2544  143.4287  162.6590 H   0  0  0  0  0  0  0  0  0  0  0  0
  152.1257  145.1071  162.1309 H   0  0  0  0  0  0  0  0  0  0  0  0
  149.8906  144.8007  158.2777 H   0  0  0  0  0  0  0  0  0  0  0  0
  150.4141  142.6245  157.1839 H   0  0  0  0  0  0  0  0  0  0  0  0
  152.1638  141.5617  155.9370 H   0  0  0  0  0  0  0  0  0  0  0  0
  149.7839  142.3933  156.1880 H   0  0  0  0  0  0  0  0  0  0  0  0
  150.3225  142.2315  154.5326 H   0  0  0  0  0  0  0  0  0  0  0  0
  147.8605  142.0362  153.8294 H   0  0  0  0  0  0  0  0  0  0  0  0
  147.4235  142.1847  155.5368 H   0  0  0  0  0  0  0  0  0  0  0  0
  146.8863  140.7849  154.6118 H   0  0  0  0  0  0  0  0  0  0  0  0
  148.5058  139.0292  153.9978 H   0  0  0  0  0  0  0  0  0  0  0  0
  149.5431  140.1955  153.1939 H   0  0  0  0  0  0  0  0  0  0  0  0
  150.3345  138.3571  155.5269 H   0  0  0  0  0  0  0  0  0  0  0  0
  150.9048  138.2574  153.8792 H   0  0  0  0  0  0  0  0  0  0  0  0
  148.7373  140.2704  156.0042 H   0  0  0  0  0  0  0  0  0  0  0  0
  1  2  1  0  0  0  0
  1 19  1  0  0  0  0
  1 20  1  0  0  0  0
  1 21  1  0  0  0  0
  2 17  1  0  0  0  0
  2  3  2  0  0  0  0
  3  4  1  0  0  0  0
  4  5  2  0  0  0  0
  4 22  1  0  0  0  0
  5  6  1  0  0  0  0
  5 23  1  0  0  0  0
  6  7  1  0  0  0  0
  6 17  2  0  0  0  0
  7  8  1  0  0  0  0
  8  9  2  0  0  0  0
  8 10  1  0  0  0  0
 10 16  1  0  0  0  0
 10 11  1  0  0  0  0
 10 24  1  0  0  0  0
 11 12  1  0  0  0  0
 11 25  1  0  0  0  0
 11 26  1  0  0  0  0
 12 13  1  0  0  0  0
 12 14  1  0  0  0  0
 12 34  1  0  0  0  0
 13 27  1  0  0  0  0
 13 28  1  0  0  0  0
 13 29  1  0  0  0  0
 14 15  1  0  0  0  0
 14 30  1  0  0  0  0
 14 31  1  0  0  0  0
 15 16  1  0  0  0  0
 15 32  1  0  0  0  0
 15 33  1  0  0  0  0
 17 18  1  0  0  0  0
M  CHG  1   7  -1
M  CHG  1  12   1
M  END
> <s_m_source_file>
AV-unprocessed.smi

> <i_m_source_file_index>
2482

> <i_lp_mmshare_version>
43012

> <i_f3d_flags>
0

> <s_epik_input>
W0NIM11jMW5bY0hdW2NIXWMoYzFDbClbTkhdQyg9TylbQ0BASF0yW0NIMl1OKFtDSDNdKVtDSDJdW0NIMl1PMg==

> <s_epik_cmdline>
J2VwaWtfcHl0aG9uJywgJy1waCcsICc3LjAnLCAnLXRuJywgJzgnLCAnLW1hJywgJzIwMCcsICctbWV0YWxfYmluZGluZycsICctaW1hZScsICc8aW5maWxlLm1hZT4nLCAnLW9tYWUnLCAnPG91dGZpbGUubWFlPic=

> <r_epik_Ionization_Penalty>
6.9249

> <r_epik_Ionization_Penalty_Charging>
6.74596

> <r_epik_Ionization_Penalty_Neutral>
0.178941

> <r_epik_State_Penalty>
6.78185

> <r_epik_Charging_Adjusted_Penalty>
13.5278

> <i_epik_Tot_Q>
0

> <i_epik_Tot_abs_Q>
2

> <r_epik_Metal_State_Penalty>
2.70608

> <b_epik_Metal_Only>
1

> <s_lp_Force_Field>
OPLS_2005

> <r_lp_Energy>
12.3895

> <b_lp_Chiralities_Consistent>
1

> <s_lp_Variant>
AV-unprocessed.smi:2482-9

> <Gold.Version>
5.8.1

> <Gold.Id.Protein>
6NUR|6NUR_protein|mol2

> <Gold.PLP.Fitness>
41.8098

> <Gold.PLP.PLP>
-36.8212

> <Gold.PLP.part.hbond>
-1.0000

> <Gold.PLP.part.metal>
0.0000

> <Gold.PLP.part.buried>
-4.1037

> <Gold.PLP.part.nonpolar>
-30.1809

> <Gold.PLP.part.repulsive>
0.2571

> <Gold.PLP.ligand.clash>
0.0000

> <Gold.PLP.ligand.torsion>
0.8903

> <Gold.PLP.Chemscore.Hbond>
1.0000

> <Gold.PLP.Chemscore.CHOScore>
1.0939

> <Gold.PLP.Chemscore.Metal>
0.0000

> <Gold.Chemscore.Hbonds>
donor molecule, donor type, donor heavy atom, donor atom, acceptor molecule, acceptor atom, score
      P1  H  7989  7998       L1    16  1.00
      L1  C     4    22       P1  8028  0.14
      L1  C     4    22       P1  8029  0.95

> <Gold.PLP.Chemscore.Internal.Correction>
0.4873

> <Gold.Rescore>
     Score         DG    S(hbond)    S(metal)    S(lipo)     H(rot)  DE(clash)    DE(int)     intcor
     14.06     -16.26       0.52        0.00      99.14       1.00       0.08       2.12       ----

> <Gold.Chemscore.Fitness>
14.0578

> <Gold.Chemscore.DG>
-16.2582

> <Gold.Chemscore.ZeroCoef>
-5.4800

> <Gold.Chemscore.Hbond>
0.5205

> <Gold.Chemscore.Metal>
0.0000

> <Gold.Chemscore.Lipo>
99.1421

> <Gold.Chemscore.Internal_Hbond>
0.0000

> <Gold.Chemscore.DEClash>
0.0794

> <Gold.Chemscore.DEInternal>
2.1210

> <Gold.Chemscore.Rot>
1.0000

> <Gold.Chemscore.Internal.Correction>
   9.000000E+99

> <Gold.Chemscore.Hbonds>
donor molecule, donor type, donor heavy atom, donor atom, acceptor molecule, acceptor atom, score
      P1  H  7989  7998       L1    16  0.10

> <Gold.Chemscore.Hbond.Weighted>
-1.7386

> <Gold.Chemscore.Metal.Weighted>
-0.0000

> <Gold.Chemscore.Lipo.Weighted>
-11.5996

> <Gold.Chemscore.Internal_Hbond.Weighted>
0.0000

> <Gold.Chemscore.DEClash.Weighted>
0.0794

> <Gold.Chemscore.DEInternal.Weighted>
2.1210

> <Gold.Chemscore.Rot.Weighted>
2.5600

> <Gold.Chemscore.Internal.Correction.Weighted>
   9.000000E+99

> <Gold.Protein.RotatedTorsions>
[ 6907 6896 6895 6894 ] final -138.33 input  -60.11 | X-H torsion
[ 7974 7965 7964 7962 ] final   76.30 input  175.53 | X-H torsion
[ 8008 7997 7996 7995 ] final -164.38 input   59.86 | X-H torsion
[ 10167 10162 10161 10158 ] final   81.37 input  -65.29 | X-H torsion
[ 10718 10713 10712 10709 ] final  -88.54 input   66.30 | X-H torsion
[ 10763 10752 10751 10750 ] final   86.83 input  -60.55 | X-H torsion
[ 11005 11000 10999 10996 ] final  141.56 input  -57.11 | X-H torsion

> <Gold.Protein.ActiveResidues>
 VAL166  LYS551  ARG553  GLY616  TRP617  ASP618  TYR619  PRO620  LYS621  CYS622 
 ASP623  PHE694  ASN695  SER759  ASP760  ASP761  ALA762  ILE779  LEU786  VAL792 
 PHE793  MET794  SER795  GLU796  ALA797  LYS798  CYS799  TRP800  GLU811  SER814 

> <Gold.Protein.RotatedAtoms>
  151.0336  133.5768  159.2657 H   0  0  0  0  0  0  0  0  0  0  0  0  # atno 6907 bound_to 6896
  151.2840  135.0721  159.9190 H   0  0  0  0  0  0  0  0  0  0  0  0  # atno 6908 bound_to 6896
  152.5350  134.0046  159.7964 H   0  0  0  0  0  0  0  0  0  0  0  0  # atno 6909 bound_to 6896
  145.7046  139.2594  143.1685 H   0  0  0  0  0  0  0  0  0  0  0  0  # atno 7974 bound_to 7965
  155.8348  140.0939  157.1771 H   0  0  0  0  0  0  0  0  0  0  0  0  # atno 8008 bound_to 7997
  154.3980  140.1412  156.3718 H   0  0  0  0  0  0  0  0  0  0  0  0  # atno 8009 bound_to 7997
  155.8128  140.3449  155.5470 H   0  0  0  0  0  0  0  0  0  0  0  0  # atno 8010 bound_to 7997
  139.9400  144.6096  150.8261 H   0  0  0  0  0  0  0  0  0  0  0  0  # atno 10167 bound_to 10162
  155.9983  130.4839  150.5034 H   0  0  0  0  0  0  0  0  0  0  0  0  # atno 10718 bound_to 10713
  153.1609  135.4566  154.9770 H   0  0  0  0  0  0  0  0  0  0  0  0  # atno 10763 bound_to 10752
  154.7896  135.3216  154.7809 H   0  0  0  0  0  0  0  0  0  0  0  0  # atno 10764 bound_to 10752
  153.8299  135.6939  153.4870 H   0  0  0  0  0  0  0  0  0  0  0  0  # atno 10765 bound_to 10752
  140.0411  134.9304  157.0844 H   0  0  0  0  0  0  0  0  0  0  0  0  # atno 11005 bound_to 11000
  146.0767  140.7809  142.9661 LP  0  0  0  0  0  0  0  0  0  0  0  0  # atno 17320 bound_to 7965
  144.6959  140.3426  143.7196 LP  0  0  0  0  0  0  0  0  0  0  0  0  # atno 17321 bound_to 7965
  140.7613  143.3172  151.2705 LP  0  0  0  0  0  0  0  0  0  0  0  0  # atno 17342 bound_to 10162
  139.6712  144.0016  152.2754 LP  0  0  0  0  0  0  0  0  0  0  0  0  # atno 17343 bound_to 10162
  157.3016  131.0646  151.2064 LP  0  0  0  0  0  0  0  0  0  0  0  0  # atno 17370 bound_to 10713
  157.3042  130.6857  149.6180 LP  0  0  0  0  0  0  0  0  0  0  0  0  # atno 17371 bound_to 10713
  140.4068  134.2024  155.7163 LP  0  0  0  0  0  0  0  0  0  0  0  0  # atno 17394 bound_to 11000
  141.1883  133.8262  157.0999 LP  0  0  0  0  0  0  0  0  0  0  0  0  # atno 17395 bound_to 11000

$$$$
