AV-unprocessed.smi:2867|AV-procd|sdf|11026|dock8
  -GOLD-   2272015493D 1   1.00000     0.00000
 Structure written by MMmdl.
 40 42  0  0  0  0  0  0  0  0  3 V2000
  150.1058  127.9751  152.9021 C   0  0  0  0  0  0  0  0  0  0  0  0
  150.9438  128.7653  153.7258 O   0  0  0  0  0  0  0  0  0  0  0  0
  150.7434  130.1570  153.5357 C   0  0  0  0  0  0  0  0  0  0  0  0
  149.2907  130.5146  153.8782 C   0  0  0  0  0  0  0  0  0  0  0  0
  149.0890  131.9693  153.9745 N   0  0  0  0  0  0  0  0  0  0  0  0
  148.1681  132.7917  153.3959 C   0  0  0  0  0  0  0  0  0  0  0  0
  147.0803  132.3949  152.4893 C   0  0  0  0  0  0  0  0  0  0  0  0
  146.8659  131.0313  152.1920 C   0  0  0  0  0  0  0  0  0  0  0  0
  145.8251  130.6377  151.3288 C   0  0  0  0  0  0  0  0  0  0  0  0
  144.9885  131.6084  150.7475 C   0  0  0  0  0  0  0  0  0  0  0  0
  145.1964  132.9710  151.0306 C   0  0  0  0  0  0  0  0  0  0  0  0
  144.3957  133.9090  150.4717 F   0  0  0  0  0  0  0  0  0  0  0  0
  146.2383  133.3597  151.8944 C   0  0  0  0  0  0  0  0  0  0  0  0
  148.4397  134.0731  153.7598 N   0  3  0  0  0  0  0  0  0  0  0  0
  149.5565  134.0781  154.5972 C   0  0  0  0  0  0  0  0  0  0  0  0
  150.2140  135.1312  155.2228 C   0  0  0  0  0  0  0  0  0  0  0  0
  151.3384  134.7927  156.0044 C   0  0  0  0  0  0  0  0  0  0  0  0
  152.2376  136.0993  156.8341 S   0  0  0  0  0  0  0  0  0  0  0  0
  153.6961  135.4165  156.7545 N   0  5  0  0  0  0  0  0  0  0  0  0
  152.1171  137.2955  155.9865 O   0  0  0  0  0  0  0  0  0  0  0  0
  151.7097  136.1612  158.2059 O   0  0  0  0  0  0  0  0  0  0  0  0
  151.7730  133.4574  156.1438 C   0  0  0  0  0  0  0  0  0  0  0  0
  151.0955  132.3985  155.5042 C   0  0  0  0  0  0  0  0  0  0  0  0
  149.9817  132.7362  154.7347 C   0  0  0  0  0  0  0  0  0  0  0  0
  150.3020  126.9193  153.0884 H   0  0  0  0  0  0  0  0  0  0  0  0
  150.2921  128.1712  151.8454 H   0  0  0  0  0  0  0  0  0  0  0  0
  149.0529  128.1651  153.1144 H   0  0  0  0  0  0  0  0  0  0  0  0
  151.4239  130.7236  154.1731 H   0  0  0  0  0  0  0  0  0  0  0  0
  150.9608  130.4288  152.5013 H   0  0  0  0  0  0  0  0  0  0  0  0
  148.6229  130.1265  153.1111 H   0  0  0  0  0  0  0  0  0  0  0  0
  148.9816  130.0460  154.8126 H   0  0  0  0  0  0  0  0  0  0  0  0
  147.4995  130.2774  152.6364 H   0  0  0  0  0  0  0  0  0  0  0  0
  145.6682  129.5911  151.1133 H   0  0  0  0  0  0  0  0  0  0  0  0
  144.1899  131.3086  150.0849 H   0  0  0  0  0  0  0  0  0  0  0  0
  146.3926  134.4094  152.0976 H   0  0  0  0  0  0  0  0  0  0  0  0
  149.8882  136.1559  155.1215 H   0  0  0  0  0  0  0  0  0  0  0  0
  153.7388  134.6855  157.4744 H   0  0  0  0  0  0  0  0  0  0  0  0
  152.6378  133.2383  156.7530 H   0  0  0  0  0  0  0  0  0  0  0  0
  151.4363  131.3801  155.6150 H   0  0  0  0  0  0  0  0  0  0  0  0
  147.9056  134.8777  153.4580 H   0  0  0  0  0  0  0  0  0  0  0  0
  1  2  1  0  0  0  0
  1 25  1  0  0  0  0
  1 26  1  0  0  0  0
  1 27  1  0  0  0  0
  2  3  1  0  0  0  0
  3  4  1  0  0  0  0
  3 28  1  0  0  0  0
  3 29  1  0  0  0  0
  4  5  1  0  0  0  0
  4 30  1  0  0  0  0
  4 31  1  0  0  0  0
  5 24  1  0  0  0  0
  5  6  1  0  0  0  0
  6  7  1  0  0  0  0
  6 14  2  0  0  0  0
  7 13  1  0  0  0  0
  7  8  2  0  0  0  0
  8  9  1  0  0  0  0
  8 32  1  0  0  0  0
  9 10  2  0  0  0  0
  9 33  1  0  0  0  0
 10 11  1  0  0  0  0
 10 34  1  0  0  0  0
 11 12  1  0  0  0  0
 11 13  2  0  0  0  0
 13 35  1  0  0  0  0
 14 15  1  0  0  0  0
 14 40  1  0  0  0  0
 15 24  2  0  0  0  0
 15 16  1  0  0  0  0
 16 17  2  0  0  0  0
 16 36  1  0  0  0  0
 17 18  1  0  0  0  0
 17 22  1  0  0  0  0
 18 19  1  0  0  0  0
 18 20  2  0  0  0  0
 18 21  2  0  0  0  0
 19 37  1  0  0  0  0
 22 23  2  0  0  0  0
 22 38  1  0  0  0  0
 23 24  1  0  0  0  0
 23 39  1  0  0  0  0
M  CHG  1  14   1
M  CHG  1  19  -1
M  END
> <s_m_source_file>
AV-unprocessed.smi

> <i_m_source_file_index>
2867

> <i_lp_mmshare_version>
43012

> <i_f3d_flags>
0

> <s_epik_input>
W05IMl1TKD1PKSg9TyljKFtjSF0xKVtjSF1bY0hdYyhjMTIpbihbQ0gyXVtDSDJdT1tDSDNdKWMobjIpLWMzW2NIXVtjSF1bY0hdYyhGKVtjSF0z

> <s_epik_cmdline>
J2VwaWtfcHl0aG9uJywgJy1waCcsICc3LjAnLCAnLXRuJywgJzgnLCAnLW1hJywgJzIwMCcsICctbWV0YWxfYmluZGluZycsICctaW1hZScsICc8aW5maWxlLm1hZT4nLCAnLW9tYWUnLCAnPG91dGZpbGUubWFlPic=

> <r_epik_Ionization_Penalty>
2.60795

> <r_epik_Ionization_Penalty_Charging>
2.60795

> <r_epik_Ionization_Penalty_Neutral>
2.51e-12

> <r_epik_State_Penalty>
3.58678

> <r_epik_Charging_Adjusted_Penalty>
6.19473

> <i_epik_Tot_Q>
0

> <i_epik_Tot_abs_Q>
2

> <r_epik_Metal_State_Penalty>
1.73828

> <b_epik_Metal_Only>
1

> <s_lp_Force_Field>
OPLS_2005

> <r_lp_Energy>
13.6429

> <b_lp_Chiralities_Consistent>
1

> <s_lp_Variant>
AV-unprocessed.smi:2867-4

> <Gold.Version>
5.8.1

> <Gold.Id.Protein>
6NUR|6NUR_protein|mol2

> <Gold.PLP.Fitness>
50.4288

> <Gold.PLP.PLP>
-41.2381

> <Gold.PLP.part.hbond>
-4.0000

> <Gold.PLP.part.metal>
0.0000

> <Gold.PLP.part.buried>
-2.4988

> <Gold.PLP.part.nonpolar>
-34.6207

> <Gold.PLP.part.repulsive>
0.0887

> <Gold.PLP.ligand.clash>
0.0564

> <Gold.PLP.ligand.torsion>
1.2971

> <Gold.PLP.Chemscore.Hbond>
3.2418

> <Gold.PLP.Chemscore.CHOScore>
0.0000

> <Gold.PLP.Chemscore.Metal>
0.0000

> <Gold.Chemscore.Hbonds>
donor molecule, donor type, donor heavy atom, donor atom, acceptor molecule, acceptor atom, score
      L1  H    14    40       P1  7948  0.16
      P1  H  6896  6908       L1    21  0.37
      P1  H 10752 10765       L1    19  1.37

> <Gold.PLP.Chemscore.Internal.Correction>
2.1160

> <Gold.Rescore>
     Score         DG    S(hbond)    S(metal)    S(lipo)     H(rot)  DE(clash)    DE(int)     intcor
     15.81     -18.55       1.91        0.00      88.85       1.45       0.51       2.23       ----

> <Gold.Chemscore.Fitness>
15.8078

> <Gold.Chemscore.DG>
-18.5471

> <Gold.Chemscore.ZeroCoef>
-5.4800

> <Gold.Chemscore.Hbond>
1.9135

> <Gold.Chemscore.Metal>
0.0000

> <Gold.Chemscore.Lipo>
88.8531

> <Gold.Chemscore.Internal_Hbond>
0.0000

> <Gold.Chemscore.DEClash>
0.5101

> <Gold.Chemscore.DEInternal>
2.2291

> <Gold.Chemscore.Rot>
1.4530

> <Gold.Chemscore.Internal.Correction>
   9.000000E+99

> <Gold.Chemscore.Hbonds>
donor molecule, donor type, donor heavy atom, donor atom, acceptor molecule, acceptor atom, score
      L1  H    14    40       P1  7948  0.08
      P1  H  6896  6908       L1    21  0.36
      P1  H 10752 10765       L1    19  0.44

> <Gold.Chemscore.Hbond.Weighted>
-6.3909

> <Gold.Chemscore.Metal.Weighted>
-0.0000

> <Gold.Chemscore.Lipo.Weighted>
-10.3958

> <Gold.Chemscore.Internal_Hbond.Weighted>
0.0000

> <Gold.Chemscore.DEClash.Weighted>
0.5101

> <Gold.Chemscore.DEInternal.Weighted>
2.2291

> <Gold.Chemscore.Rot.Weighted>
3.7196

> <Gold.Chemscore.Internal.Correction.Weighted>
   9.000000E+99

> <Gold.Protein.RotatedTorsions>
[ 6907 6896 6895 6894 ] final -145.91 input  -60.11 | X-H torsion
[ 7974 7965 7964 7962 ] final    9.92 input  175.53 | X-H torsion
[ 8008 7997 7996 7995 ] final -113.61 input   59.86 | X-H torsion
[ 10167 10162 10161 10158 ] final   24.08 input  -65.29 | X-H torsion
[ 10718 10713 10712 10709 ] final -159.87 input   66.30 | X-H torsion
[ 10763 10752 10751 10750 ] final  -91.15 input  -60.55 | X-H torsion
[ 11005 11000 10999 10996 ] final  -16.67 input  -57.11 | X-H torsion

> <Gold.Protein.ActiveResidues>
 VAL166  LYS551  ARG553  GLY616  TRP617  ASP618  TYR619  PRO620  LYS621  CYS622 
 ASP623  PHE694  ASN695  SER759  ASP760  ASP761  ALA762  ILE779  LEU786  VAL792 
 PHE793  MET794  SER795  GLU796  ALA797  LYS798  CYS799  TRP800  GLU811  SER814 

> <Gold.Protein.RotatedAtoms>
  151.1343  133.5015  159.2598 H   0  0  0  0  0  0  0  0  0  0  0  0  # atno 6907 bound_to 6896
  151.1723  135.0323  159.8767 H   0  0  0  0  0  0  0  0  0  0  0  0  # atno 6908 bound_to 6896
  152.5461  134.1205  159.8450 H   0  0  0  0  0  0  0  0  0  0  0  0  # atno 6909 bound_to 6896
  146.2396  139.9712  142.8447 H   0  0  0  0  0  0  0  0  0  0  0  0  # atno 7974 bound_to 7965
  155.0233  140.0393  157.2446 H   0  0  0  0  0  0  0  0  0  0  0  0  # atno 8008 bound_to 7997
  154.7359  140.2739  155.6392 H   0  0  0  0  0  0  0  0  0  0  0  0  # atno 8009 bound_to 7997
  156.2853  140.2675  156.2072 H   0  0  0  0  0  0  0  0  0  0  0  0  # atno 8010 bound_to 7997
  140.5217  143.9991  150.6420 H   0  0  0  0  0  0  0  0  0  0  0  0  # atno 10167 bound_to 10162
  156.5742  130.8701  151.2846 H   0  0  0  0  0  0  0  0  0  0  0  0  # atno 10718 bound_to 10713
  154.6731  135.5278  153.8164 H   0  0  0  0  0  0  0  0  0  0  0  0  # atno 10763 bound_to 10752
  153.0514  135.6534  154.0693 H   0  0  0  0  0  0  0  0  0  0  0  0  # atno 10764 bound_to 10752
  154.0590  135.2963  155.3308 H   0  0  0  0  0  0  0  0  0  0  0  0  # atno 10765 bound_to 10752
  140.8091  133.8154  155.9546 H   0  0  0  0  0  0  0  0  0  0  0  0  # atno 11005 bound_to 11000
  145.1679  140.9706  143.4338 LP  0  0  0  0  0  0  0  0  0  0  0  0  # atno 17320 bound_to 7965
  145.0055  139.3558  143.6146 LP  0  0  0  0  0  0  0  0  0  0  0  0  # atno 17321 bound_to 7965
  140.3342  143.3059  152.0656 LP  0  0  0  0  0  0  0  0  0  0  0  0  # atno 17342 bound_to 10162
  139.4925  144.6488  151.6720 LP  0  0  0  0  0  0  0  0  0  0  0  0  # atno 17343 bound_to 10162
  157.7341  130.9741  150.2013 LP  0  0  0  0  0  0  0  0  0  0  0  0  # atno 17370 bound_to 10713
  156.2688  130.3719  149.8053 LP  0  0  0  0  0  0  0  0  0  0  0  0  # atno 17371 bound_to 10713
  140.9216  134.2135  157.4923 LP  0  0  0  0  0  0  0  0  0  0  0  0  # atno 17394 bound_to 11000
  139.8715  134.9794  156.5037 LP  0  0  0  0  0  0  0  0  0  0  0  0  # atno 17395 bound_to 11000

$$$$
