AV-unprocessed.smi:1047|AV-procd|sdf|4602|dock6
  -GOLD-   22720 3 93D 1   1.00000     0.00000
 Structure written by MMmdl.
 57 59  0  0  0  0  0  0  0  0  3 V2000
  142.9708  135.3277  152.1198 C   0  0  0  0  0  0  0  0  0  0  0  0
  143.7755  136.4176  152.8415 C   0  0  0  0  0  0  0  0  0  0  0  0
  145.2430  136.2117  152.7187 N   0  3  1  0  0  0  0  0  0  0  0  0
  145.7628  136.2638  151.3284 C   0  0  0  0  0  0  0  0  0  0  0  0
  145.8958  137.7153  150.8299 C   0  0  0  0  0  0  0  0  0  0  0  0
  146.6982  138.4614  151.7366 O   0  0  0  0  0  0  0  0  0  0  0  0
  146.1289  138.5292  153.0405 C   0  0  2  0  0  0  0  0  0  0  0  0
  147.0279  139.4249  153.9049 C   0  0  0  0  0  0  0  0  0  0  0  0
  147.5147  140.5700  153.1429 N   0  0  0  0  0  0  0  0  0  0  0  0
  148.2894  141.5132  153.9431 C   0  0  0  0  0  0  0  0  0  0  0  0
  149.2471  140.7825  154.8996 C   0  0  1  0  0  0  0  0  0  0  0  0
  150.1267  139.9826  154.1340 O   0  0  0  0  0  0  0  0  0  0  0  0
  150.0683  141.7746  155.7457 C   0  0  0  0  0  0  0  0  0  0  0  0
  150.7913  141.1232  156.8477 N   0  0  0  0  0  0  0  0  0  0  0  0
  151.2701  139.8525  156.9357 C   0  0  0  0  0  0  0  0  0  0  0  0
  151.8585  139.7180  158.1560 N   0  3  0  0  0  0  0  0  0  0  0  0
  151.7561  140.9209  158.8574 C   0  0  0  0  0  0  0  0  0  0  0  0
  152.1975  141.2724  160.1274 C   0  0  0  0  0  0  0  0  0  0  0  0
  151.9391  142.5934  160.5575 C   0  0  0  0  0  0  0  0  0  0  0  0
  152.4067  143.0094  161.9419 C   0  0  0  0  0  0  0  0  0  0  0  0
  151.2594  143.5141  159.7186 C   0  0  0  0  0  0  0  0  0  0  0  0
  150.9934  144.9342  160.1882 C   0  0  0  0  0  0  0  0  0  0  0  0
  150.8160  143.1361  158.4309 C   0  0  0  0  0  0  0  0  0  0  0  0
  151.0755  141.8294  158.0231 C   0  0  0  0  0  0  0  0  0  0  0  0
  146.0426  137.0947  153.6037 C   0  0  0  0  0  0  0  0  0  0  0  0
  141.9038  135.4533  152.3062 H   0  0  0  0  0  0  0  0  0  0  0  0
  143.2513  134.3340  152.4705 H   0  0  0  0  0  0  0  0  0  0  0  0
  143.1150  135.3575  151.0403 H   0  0  0  0  0  0  0  0  0  0  0  0
  143.4881  137.4049  152.4802 H   0  0  0  0  0  0  0  0  0  0  0  0
  143.4987  136.3858  153.8961 H   0  0  0  0  0  0  0  0  0  0  0  0
  146.7467  135.7932  151.3183 H   0  0  0  0  0  0  0  0  0  0  0  0
  145.1418  135.6797  150.6504 H   0  0  0  0  0  0  0  0  0  0  0  0
  146.3722  137.7295  149.8496 H   0  0  0  0  0  0  0  0  0  0  0  0
  144.9210  138.1893  150.7107 H   0  0  0  0  0  0  0  0  0  0  0  0
  145.1302  138.9672  152.9902 H   0  0  0  0  0  0  0  0  0  0  0  0
  146.4631  139.7817  154.7670 H   0  0  0  0  0  0  0  0  0  0  0  0
  147.8628  138.8427  154.2975 H   0  0  0  0  0  0  0  0  0  0  0  0
  148.0727  140.2475  152.3585 H   0  0  0  0  0  0  0  0  0  0  0  0
  148.8369  142.2085  153.3051 H   0  0  0  0  0  0  0  0  0  0  0  0
  147.5993  142.1179  154.5330 H   0  0  0  0  0  0  0  0  0  0  0  0
  148.6822  140.1350  155.5721 H   0  0  0  0  0  0  0  0  0  0  0  0
  149.7425  139.8438  153.2820 H   0  0  0  0  0  0  0  0  0  0  0  0
  150.7699  142.3381  155.1306 H   0  0  0  0  0  0  0  0  0  0  0  0
  149.4025  142.5109  156.1976 H   0  0  0  0  0  0  0  0  0  0  0  0
  151.1951  139.0885  156.1753 H   0  0  0  0  0  0  0  0  0  0  0  0
  152.7165  140.5667  160.7595 H   0  0  0  0  0  0  0  0  0  0  0  0
  151.5627  143.3362  162.5500 H   0  0  0  0  0  0  0  0  0  0  0  0
  153.1232  143.8285  161.8741 H   0  0  0  0  0  0  0  0  0  0  0  0
  152.8926  142.1840  162.4634 H   0  0  0  0  0  0  0  0  0  0  0  0
  150.4707  145.5150  159.4274 H   0  0  0  0  0  0  0  0  0  0  0  0
  151.9305  145.4450  160.4108 H   0  0  0  0  0  0  0  0  0  0  0  0
  150.3772  144.9318  161.0876 H   0  0  0  0  0  0  0  0  0  0  0  0
  150.3018  143.8398  157.7937 H   0  0  0  0  0  0  0  0  0  0  0  0
  145.6297  137.0958  154.6132 H   0  0  0  0  0  0  0  0  0  0  0  0
  147.0466  136.6757  153.6864 H   0  0  0  0  0  0  0  0  0  0  0  0
  145.4039  135.2716  153.0515 H   0  0  0  0  0  0  0  0  0  0  0  0
  152.2977  138.8669  158.4830 H   0  0  0  0  0  0  0  0  0  0  0  0
  1  2  1  0  0  0  0
  1 26  1  0  0  0  0
  1 27  1  0  0  0  0
  1 28  1  0  0  0  0
  2  3  1  0  0  0  0
  2 29  1  0  0  0  0
  2 30  1  0  0  0  0
  3 25  1  0  0  0  0
  3  4  1  0  0  0  0
  3 56  1  0  0  0  0
  4  5  1  0  0  0  0
  4 31  1  0  0  0  0
  4 32  1  0  0  0  0
  5  6  1  0  0  0  0
  5 33  1  0  0  0  0
  5 34  1  0  0  0  0
  6  7  1  0  0  0  0
  7  8  1  0  0  0  0
  7 25  1  0  0  0  0
  7 35  1  0  0  0  0
  8  9  1  0  0  0  0
  8 36  1  0  0  0  0
  8 37  1  0  0  0  0
  9 10  1  0  0  0  0
  9 38  1  0  0  0  0
 10 11  1  0  0  0  0
 10 39  1  0  0  0  0
 10 40  1  0  0  0  0
 11 12  1  0  0  0  0
 11 13  1  0  0  0  0
 11 41  1  0  0  0  0
 12 42  1  0  0  0  0
 13 14  1  0  0  0  0
 13 43  1  0  0  0  0
 13 44  1  0  0  0  0
 14 24  1  0  0  0  0
 14 15  1  0  0  0  0
 15 16  2  0  0  0  0
 15 45  1  0  0  0  0
 16 17  1  0  0  0  0
 16 57  1  0  0  0  0
 17 24  2  0  0  0  0
 17 18  1  0  0  0  0
 18 19  2  0  0  0  0
 18 46  1  0  0  0  0
 19 20  1  0  0  0  0
 19 21  1  0  0  0  0
 20 47  1  0  0  0  0
 20 48  1  0  0  0  0
 20 49  1  0  0  0  0
 21 22  1  0  0  0  0
 21 23  2  0  0  0  0
 22 50  1  0  0  0  0
 22 51  1  0  0  0  0
 22 52  1  0  0  0  0
 23 24  1  0  0  0  0
 23 53  1  0  0  0  0
 25 54  1  0  0  0  0
 25 55  1  0  0  0  0
M  CHG  1   3   1
M  CHG  1  16   1
M  END
> <s_m_source_file>
AV-unprocessed.smi

> <i_m_source_file_index>
1047

> <i_lp_mmshare_version>
43012

> <i_f3d_flags>
0

> <s_epik_input>
W0NIM11bQ0gyXU4xW0NIMl1bQ0gyXU9bQ0BIXShbQ0gyXTEpW0NIMl1bTkhdW0NIMl1bQ0BIXShbT0hdKVtDSDJdbihbY0hdbjIpYyhjMjMpW2NIXWMoW0NIM10pYyhbY0hdMylbQ0gzXQ==

> <s_epik_cmdline>
J2VwaWtfcHl0aG9uJywgJy1waCcsICc3LjAnLCAnLXRuJywgJzgnLCAnLW1hJywgJzIwMCcsICctbWV0YWxfYmluZGluZycsICctaW1hZScsICc8aW5maWxlLm1hZT4nLCAnLW9tYWUnLCAnPG91dGZpbGUubWFlPic=

> <r_epik_Ionization_Penalty>
2.03028

> <r_epik_Ionization_Penalty_Charging>
1.21256

> <r_epik_Ionization_Penalty_Neutral>
0.817715

> <r_epik_State_Penalty>
2.54959

> <r_epik_Charging_Adjusted_Penalty>
3.76215

> <i_epik_Tot_Q>
2

> <i_epik_Tot_abs_Q>
2

> <r_epik_Metal_State_Penalty>
6.52811

> <b_epik_Metal_Only>
0

> <s_lp_Force_Field>
OPLS_2005

> <r_lp_Energy>
36.7228

> <b_lp_Chiralities_Consistent>
1

> <s_lp_Variant>
AV-unprocessed.smi:1047-43

> <Gold.Version>
5.8.1

> <Gold.Id.Protein>
6NUR|6NUR_protein|mol2

> <Gold.PLP.Fitness>
56.1558

> <Gold.PLP.PLP>
-48.5739

> <Gold.PLP.part.hbond>
-3.0000

> <Gold.PLP.part.metal>
0.0000

> <Gold.PLP.part.buried>
-3.0584

> <Gold.PLP.part.nonpolar>
-44.5060

> <Gold.PLP.part.repulsive>
0.7572

> <Gold.PLP.ligand.clash>
0.0000

> <Gold.PLP.ligand.torsion>
0.7545

> <Gold.PLP.Chemscore.Hbond>
3.0000

> <Gold.PLP.Chemscore.CHOScore>
0.0000

> <Gold.PLP.Chemscore.Metal>
0.0000

> <Gold.Chemscore.Hbonds>
donor molecule, donor type, donor heavy atom, donor atom, acceptor molecule, acceptor atom, score
      L1  H     9    38       P1  7957  1.00
      L1  H    12    42       P1  7957  0.75
      P1  H  7989  7998       L1    12  0.70

> <Gold.PLP.Chemscore.Internal.Correction>
0.0910

> <Gold.Rescore>
     Score         DG    S(hbond)    S(metal)    S(lipo)     H(rot)  DE(clash)    DE(int)     intcor
     18.19     -20.42       1.91        0.00     132.56       2.71       1.55       0.68       ----

> <Gold.Chemscore.Fitness>
18.1883

> <Gold.Chemscore.DG>
-20.4240

> <Gold.Chemscore.ZeroCoef>
-5.4800

> <Gold.Chemscore.Hbond>
1.9071

> <Gold.Chemscore.Metal>
0.0000

> <Gold.Chemscore.Lipo>
132.5562

> <Gold.Chemscore.Internal_Hbond>
0.0000

> <Gold.Chemscore.DEClash>
1.5515

> <Gold.Chemscore.DEInternal>
0.6842

> <Gold.Chemscore.Rot>
2.7088

> <Gold.Chemscore.Internal.Correction>
   9.000000E+99

> <Gold.Chemscore.Hbonds>
donor molecule, donor type, donor heavy atom, donor atom, acceptor molecule, acceptor atom, score
      L1  H     9    38       P1  7957  0.99
      L1  H    12    42       P1  7957  0.73
      P1  H  7989  7998       L1    12  0.06

> <Gold.Chemscore.Hbond.Weighted>
-6.3696

> <Gold.Chemscore.Metal.Weighted>
-0.0000

> <Gold.Chemscore.Lipo.Weighted>
-15.5091

> <Gold.Chemscore.Internal_Hbond.Weighted>
0.0000

> <Gold.Chemscore.DEClash.Weighted>
1.5515

> <Gold.Chemscore.DEInternal.Weighted>
0.6842

> <Gold.Chemscore.Rot.Weighted>
6.9346

> <Gold.Chemscore.Internal.Correction.Weighted>
   9.000000E+99

> <Gold.Protein.RotatedTorsions>
[ 6907 6896 6895 6894 ] final  110.44 input  -60.11 | X-H torsion
[ 7974 7965 7964 7962 ] final   84.44 input  175.53 | X-H torsion
[ 8008 7997 7996 7995 ] final    7.94 input   59.86 | X-H torsion
[ 10167 10162 10161 10158 ] final   15.61 input  -65.29 | X-H torsion
[ 10718 10713 10712 10709 ] final -148.69 input   66.30 | X-H torsion
[ 10763 10752 10751 10750 ] final  -77.94 input  -60.55 | X-H torsion
[ 11005 11000 10999 10996 ] final -166.36 input  -57.11 | X-H torsion

> <Gold.Protein.ActiveResidues>
 VAL166  LYS551  ARG553  GLY616  TRP617  ASP618  TYR619  PRO620  LYS621  CYS622 
 ASP623  PHE694  ASN695  SER759  ASP760  ASP761  ALA762  ILE779  LEU786  VAL792 
 PHE793  MET794  SER795  GLU796  ALA797  LYS798  CYS799  TRP800  GLU811  SER814 

> <Gold.Protein.RotatedAtoms>
  152.5020  133.8801  159.7341 H   0  0  0  0  0  0  0  0  0  0  0  0  # atno 6907 bound_to 6896
  150.9265  133.6808  159.2827 H   0  0  0  0  0  0  0  0  0  0  0  0  # atno 6908 bound_to 6896
  151.4167  135.0997  159.9654 H   0  0  0  0  0  0  0  0  0  0  0  0  # atno 6909 bound_to 6896
  145.5987  139.2349  143.2258 H   0  0  0  0  0  0  0  0  0  0  0  0  # atno 7974 bound_to 7965
  154.7603  140.2783  155.6219 H   0  0  0  0  0  0  0  0  0  0  0  0  # atno 8008 bound_to 7997
  156.2914  140.2661  156.2307 H   0  0  0  0  0  0  0  0  0  0  0  0  # atno 8009 bound_to 7997
  155.0025  140.0372  157.2356 H   0  0  0  0  0  0  0  0  0  0  0  0  # atno 8010 bound_to 7997
  140.5855  143.8897  150.6827 H   0  0  0  0  0  0  0  0  0  0  0  0  # atno 10167 bound_to 10162
  156.4235  130.8040  151.2264 H   0  0  0  0  0  0  0  0  0  0  0  0  # atno 10718 bound_to 10713
  154.5194  135.5747  153.6668 H   0  0  0  0  0  0  0  0  0  0  0  0  # atno 10763 bound_to 10752
  152.9914  135.6178  154.2774 H   0  0  0  0  0  0  0  0  0  0  0  0  # atno 10764 bound_to 10752
  154.2694  135.2854  155.2724 H   0  0  0  0  0  0  0  0  0  0  0  0  # atno 10765 bound_to 10752
  140.5654  134.5292  157.5151 H   0  0  0  0  0  0  0  0  0  0  0  0  # atno 11005 bound_to 11000
  146.1592  140.6812  142.9285 LP  0  0  0  0  0  0  0  0  0  0  0  0  # atno 17320 bound_to 7965
  144.7319  140.4697  143.6931 LP  0  0  0  0  0  0  0  0  0  0  0  0  # atno 17321 bound_to 7965
  140.2407  143.3666  152.1489 LP  0  0  0  0  0  0  0  0  0  0  0  0  # atno 17342 bound_to 10162
  139.5195  144.7020  151.5464 LP  0  0  0  0  0  0  0  0  0  0  0  0  # atno 17343 bound_to 10162
  157.7508  131.0220  150.3776 LP  0  0  0  0  0  0  0  0  0  0  0  0  # atno 17370 bound_to 10713
  156.4098  130.3932  149.6899 LP  0  0  0  0  0  0  0  0  0  0  0  0  # atno 17371 bound_to 10713
  139.9387  134.7826  156.0733 LP  0  0  0  0  0  0  0  0  0  0  0  0  # atno 17394 bound_to 11000
  141.1089  133.6650  156.2931 LP  0  0  0  0  0  0  0  0  0  0  0  0  # atno 17395 bound_to 11000

$$$$
