AV-unprocessed.smi:3008|AV-procd|sdf|11448|dock4
  -GOLD-   2272016383D 1   1.00000     0.00000
 Structure written by MMmdl.
 38 39  0  0  0  0  0  0  0  0  1 V2000
  147.4278  138.5435  152.8481 N   0  0  0  0  0  0  0  0  0  0  0  0
  146.6759  139.1264  153.7856 C   0  0  0  0  0  0  0  0  0  0  0  0
  145.6507  138.6093  154.2242 O   0  0  0  0  0  0  0  0  0  0  0  0
  147.1410  140.4873  154.3060 C   0  0  0  0  0  0  0  0  0  0  0  0
  148.3285  140.3549  155.1300 N   0  0  0  0  0  0  0  0  0  0  0  0
  148.9807  141.3374  155.8489 C   0  0  0  0  0  0  0  0  0  0  0  0
  150.0327  140.7195  156.4549 C   0  0  0  0  0  0  0  0  0  0  0  0
  150.9671  141.3656  157.3025 N   0  0  0  0  0  0  0  0  0  0  0  0
  151.1318  142.6894  157.4920 C   0  0  0  0  0  0  0  0  0  0  0  0
  150.4736  143.5381  156.8882 O   0  0  0  0  0  0  0  0  0  0  0  0
  152.1297  143.0152  158.3583 N   0  0  0  0  0  0  0  0  0  0  0  0
  152.7463  142.0698  159.3153 C   0  0  0  0  0  0  0  0  0  0  0  0
  153.1141  142.6758  160.6870 C   0  0  0  0  0  0  0  0  0  0  0  0
  152.0395  143.5970  161.2939 C   0  0  0  0  0  0  0  0  0  0  0  0
  152.1611  145.0563  160.8223 C   0  0  0  0  0  0  0  0  0  0  0  0
  151.8384  145.2825  159.3365 C   0  0  0  0  0  0  0  0  0  0  0  0
  152.6536  144.3899  158.3831 C   0  0  0  0  0  0  0  0  0  0  0  0
  149.9634  139.3541  156.0565 C   0  0  0  0  0  0  0  0  0  0  0  0
  148.9289  139.1448  155.2558 N   0  0  0  0  0  0  0  0  0  0  0  0
  147.1545  137.6479  152.4705 H   0  0  0  0  0  0  0  0  0  0  0  0
  148.2628  139.0035  152.5149 H   0  0  0  0  0  0  0  0  0  0  0  0
  147.3702  141.1436  153.4655 H   0  0  0  0  0  0  0  0  0  0  0  0
  146.3482  140.9694  154.8809 H   0  0  0  0  0  0  0  0  0  0  0  0
  148.6453  142.3640  155.8649 H   0  0  0  0  0  0  0  0  0  0  0  0
  151.5745  140.7576  157.8321 H   0  0  0  0  0  0  0  0  0  0  0  0
  152.0747  141.2386  159.5334 H   0  0  0  0  0  0  0  0  0  0  0  0
  153.6323  141.6305  158.8553 H   0  0  0  0  0  0  0  0  0  0  0  0
  153.2968  141.8507  161.3765 H   0  0  0  0  0  0  0  0  0  0  0  0
  154.0648  143.2066  160.6253 H   0  0  0  0  0  0  0  0  0  0  0  0
  151.0400  143.2065  161.0980 H   0  0  0  0  0  0  0  0  0  0  0  0
  152.1561  143.5882  162.3782 H   0  0  0  0  0  0  0  0  0  0  0  0
  151.4934  145.6774  161.4203 H   0  0  0  0  0  0  0  0  0  0  0  0
  153.1680  145.4192  161.0322 H   0  0  0  0  0  0  0  0  0  0  0  0
  150.7707  145.1419  159.1632 H   0  0  0  0  0  0  0  0  0  0  0  0
  152.0407  146.3273  159.0988 H   0  0  0  0  0  0  0  0  0  0  0  0
  153.7099  144.3986  158.6543 H   0  0  0  0  0  0  0  0  0  0  0  0
  152.6294  144.8185  157.3795 H   0  0  0  0  0  0  0  0  0  0  0  0
  150.6031  138.5218  156.3095 H   0  0  0  0  0  0  0  0  0  0  0  0
  1  2  1  0  0  0  0
  1 20  1  0  0  0  0
  1 21  1  0  0  0  0
  2  3  2  0  0  0  0
  2  4  1  0  0  0  0
  4  5  1  0  0  0  0
  4 22  1  0  0  0  0
  4 23  1  0  0  0  0
  5 19  1  0  0  0  0
  5  6  1  0  0  0  0
  6  7  2  0  0  0  0
  6 24  1  0  0  0  0
  7  8  1  0  0  0  0
  7 18  1  0  0  0  0
  8  9  1  0  0  0  0
  8 25  1  0  0  0  0
  9 10  2  0  0  0  0
  9 11  1  0  0  0  0
 11 17  1  0  0  0  0
 11 12  1  0  0  0  0
 12 13  1  0  0  0  0
 12 26  1  0  0  0  0
 12 27  1  0  0  0  0
 13 14  1  0  0  0  0
 13 28  1  0  0  0  0
 13 29  1  0  0  0  0
 14 15  1  0  0  0  0
 14 30  1  0  0  0  0
 14 31  1  0  0  0  0
 15 16  1  0  0  0  0
 15 32  1  0  0  0  0
 15 33  1  0  0  0  0
 16 17  1  0  0  0  0
 16 34  1  0  0  0  0
 16 35  1  0  0  0  0
 17 36  1  0  0  0  0
 17 37  1  0  0  0  0
 18 19  2  0  0  0  0
 18 38  1  0  0  0  0
M  END
> <s_m_source_file>
AV-unprocessed.smi

> <i_m_source_file_index>
3008

> <i_lp_mmshare_version>
43012

> <i_f3d_flags>
0

> <s_epik_input>
W05IMl1DKD1PKVtDSDJdbjFbY0hdYyhbY0hdbjEpW05IXUMoPU8pTjJbQ0gyXVtDSDJdW0NIMl1bQ0gyXVtDSDJdW0NIMl0y

> <s_epik_cmdline>
J2VwaWtfcHl0aG9uJywgJy1waCcsICc3LjAnLCAnLXRuJywgJzgnLCAnLW1hJywgJzIwMCcsICctbWV0YWxfYmluZGluZycsICctaW1hZScsICc8aW5maWxlLm1hZT4nLCAnLW9tYWUnLCAnPG91dGZpbGUubWFlPic=

> <r_lp_tautomer_probability>
1

> <r_epik_Ionization_Penalty>
4.99812e-05

> <r_epik_Ionization_Penalty_Charging>
0

> <r_epik_Ionization_Penalty_Neutral>
4.99812e-05

> <r_epik_State_Penalty>
-0

> <r_epik_Charging_Adjusted_Penalty>
0

> <i_epik_Tot_Q>
0

> <i_epik_Tot_abs_Q>
0

> <r_epik_Metal_State_Penalty>
-0

> <b_epik_Metal_Only>
0

> <s_lp_Force_Field>
OPLS_2005

> <r_lp_Energy>
37.733

> <b_lp_Chiralities_Consistent>
1

> <s_lp_Variant>
AV-unprocessed.smi:3008-1

> <Gold.Version>
5.8.1

> <Gold.Id.Protein>
6NUR|6NUR_protein|mol2

> <Gold.PLP.Fitness>
44.6748

> <Gold.PLP.PLP>
-37.8476

> <Gold.PLP.part.hbond>
-1.7074

> <Gold.PLP.part.metal>
0.0000

> <Gold.PLP.part.buried>
-6.9675

> <Gold.PLP.part.nonpolar>
-35.9583

> <Gold.PLP.part.repulsive>
5.3036

> <Gold.PLP.ligand.clash>
0.0000

> <Gold.PLP.ligand.torsion>
0.2739

> <Gold.PLP.Chemscore.Hbond>
1.4560

> <Gold.PLP.Chemscore.CHOScore>
1.0000

> <Gold.PLP.Chemscore.Metal>
0.0000

> <Gold.Chemscore.Hbonds>
donor molecule, donor type, donor heavy atom, donor atom, acceptor molecule, acceptor atom, score
      L1  H     1    20       P1  7948  0.06
      L1  H     1    21       P1  7957  0.68
      L1  C     6    24       P1  8028  1.00

> <Gold.PLP.Chemscore.Internal.Correction>
0.0070

> <Gold.Rescore>
     Score         DG    S(hbond)    S(metal)    S(lipo)     H(rot)  DE(clash)    DE(int)     intcor
     13.75     -17.54       1.42        0.00      95.92       1.52       2.03       1.76       ----

> <Gold.Chemscore.Fitness>
13.7526

> <Gold.Chemscore.DG>
-17.5448

> <Gold.Chemscore.ZeroCoef>
-5.4800

> <Gold.Chemscore.Hbond>
1.4154

> <Gold.Chemscore.Metal>
0.0000

> <Gold.Chemscore.Lipo>
95.9196

> <Gold.Chemscore.Internal_Hbond>
0.0000

> <Gold.Chemscore.DEClash>
2.0330

> <Gold.Chemscore.DEInternal>
1.7591

> <Gold.Chemscore.Rot>
1.5176

> <Gold.Chemscore.Internal.Correction>
   9.000000E+99

> <Gold.Chemscore.Hbonds>
donor molecule, donor type, donor heavy atom, donor atom, acceptor molecule, acceptor atom, score
      L1  H     1    20       P1  7948  0.06
      L1  H     1    21       P1  7957  0.68

> <Gold.Chemscore.Hbond.Weighted>
-4.7273

> <Gold.Chemscore.Metal.Weighted>
-0.0000

> <Gold.Chemscore.Lipo.Weighted>
-11.2226

> <Gold.Chemscore.Internal_Hbond.Weighted>
0.0000

> <Gold.Chemscore.DEClash.Weighted>
2.0330

> <Gold.Chemscore.DEInternal.Weighted>
1.7591

> <Gold.Chemscore.Rot.Weighted>
3.8851

> <Gold.Chemscore.Internal.Correction.Weighted>
   9.000000E+99

> <Gold.Protein.RotatedTorsions>
[ 6907 6896 6895 6894 ] final   38.58 input  -60.11 | X-H torsion
[ 7974 7965 7964 7962 ] final  -34.90 input  175.53 | X-H torsion
[ 8008 7997 7996 7995 ] final  -48.61 input   59.86 | X-H torsion
[ 10167 10162 10161 10158 ] final   46.65 input  -65.29 | X-H torsion
[ 10718 10713 10712 10709 ] final   29.67 input   66.30 | X-H torsion
[ 10763 10752 10751 10750 ] final  -89.90 input  -60.55 | X-H torsion
[ 11005 11000 10999 10996 ] final  123.83 input  -57.11 | X-H torsion

> <Gold.Protein.ActiveResidues>
 VAL166  LYS551  ARG553  GLY616  TRP617  ASP618  TYR619  PRO620  LYS621  CYS622 
 ASP623  PHE694  ASN695  SER759  ASP760  ASP761  ALA762  ILE779  LEU786  VAL792 
 PHE793  MET794  SER795  GLU796  ALA797  LYS798  CYS799  TRP800  GLU811  SER814 

> <Gold.Protein.RotatedAtoms>
  152.1584  134.8932  160.0543 H   0  0  0  0  0  0  0  0  0  0  0  0  # atno 6907 bound_to 6896
  151.9937  133.3795  159.4163 H   0  0  0  0  0  0  0  0  0  0  0  0  # atno 6908 bound_to 6896
  150.6884  134.3831  159.5087 H   0  0  0  0  0  0  0  0  0  0  0  0  # atno 6909 bound_to 6896
  146.0791  140.6095  142.8917 H   0  0  0  0  0  0  0  0  0  0  0  0  # atno 7974 bound_to 7965
  154.4031  140.1317  156.4368 H   0  0  0  0  0  0  0  0  0  0  0  0  # atno 8008 bound_to 7997
  155.7498  140.3488  155.5125 H   0  0  0  0  0  0  0  0  0  0  0  0  # atno 8009 bound_to 7997
  155.8960  140.1011  157.1374 H   0  0  0  0  0  0  0  0  0  0  0  0  # atno 8010 bound_to 7997
  140.3117  144.2812  150.6198 H   0  0  0  0  0  0  0  0  0  0  0  0  # atno 10167 bound_to 10162
  157.2496  130.7108  149.6398 H   0  0  0  0  0  0  0  0  0  0  0  0  # atno 10718 bound_to 10713
  154.6602  135.5324  153.8008 H   0  0  0  0  0  0  0  0  0  0  0  0  # atno 10763 bound_to 10752
  153.0437  135.6504  154.0884 H   0  0  0  0  0  0  0  0  0  0  0  0  # atno 10764 bound_to 10752
  154.0793  135.2948  155.3273 H   0  0  0  0  0  0  0  0  0  0  0  0  # atno 10765 bound_to 10752
  139.9331  134.9641  156.8319 H   0  0  0  0  0  0  0  0  0  0  0  0  # atno 11005 bound_to 11000
  144.7281  140.4587  143.6958 LP  0  0  0  0  0  0  0  0  0  0  0  0  # atno 17320 bound_to 7965
  145.6251  139.1529  143.3000 LP  0  0  0  0  0  0  0  0  0  0  0  0  # atno 17321 bound_to 7965
  140.5562  143.2198  151.7843 LP  0  0  0  0  0  0  0  0  0  0  0  0  # atno 17342 bound_to 10162
  139.4892  144.4410  151.9764 LP  0  0  0  0  0  0  0  0  0  0  0  0  # atno 17343 bound_to 10162
  155.9667  130.4432  150.5411 LP  0  0  0  0  0  0  0  0  0  0  0  0  # atno 17370 bound_to 10713
  157.3292  131.0696  151.1873 LP  0  0  0  0  0  0  0  0  0  0  0  0  # atno 17371 bound_to 10713
  140.6149  134.0048  155.7593 LP  0  0  0  0  0  0  0  0  0  0  0  0  # atno 17394 bound_to 11000
  141.0930  133.9887  157.3206 LP  0  0  0  0  0  0  0  0  0  0  0  0  # atno 17395 bound_to 11000

$$$$
