AV-unprocessed.smi:1939|AV-procd|sdf|7836|dock3
  -GOLD-   22720 9583D 1   1.00000     0.00000
 Structure written by MMmdl.
 29 30  0  0  0  0  0  0  0  0  1 V2000
  150.2325  140.7191  157.4722 O   0  0  0  0  0  0  0  0  0  0  0  0
  150.2043  141.8476  156.9787 C   0  0  0  0  0  0  0  0  0  0  0  0
  151.2802  142.8898  157.3190 C   0  0  0  0  0  0  0  0  0  0  0  0
  151.9306  142.6620  158.6210 N   0  0  0  0  0  0  0  0  0  0  0  0
  151.6932  143.6229  159.6197 C   0  0  0  0  0  0  0  0  0  0  0  0
  152.2277  143.5164  160.8433 C   0  0  0  0  0  0  0  0  0  0  0  0
  153.0686  142.3783  161.1230 C   0  0  0  0  0  0  0  0  0  0  0  0
  153.3109  141.4339  160.1847 C   0  0  0  0  0  0  0  0  0  0  0  0
  154.1992  140.2238  160.4647 C   0  0  0  0  0  0  0  0  0  0  0  0
  153.5433  139.0915  160.2085 F   0  0  0  0  0  0  0  0  0  0  0  0
  155.2903  140.2555  159.6986 F   0  0  0  0  0  0  0  0  0  0  0  0
  154.5969  140.1852  161.7375 F   0  0  0  0  0  0  0  0  0  0  0  0
  152.7106  141.5583  158.8402 C   0  0  0  0  0  0  0  0  0  0  0  0
  152.8951  140.7202  157.9562 O   0  0  0  0  0  0  0  0  0  0  0  0
  149.2535  142.2533  156.1245 N   0  0  0  0  0  0  0  0  0  0  0  0
  148.1551  141.4638  155.6693 C   0  0  0  0  0  0  0  0  0  0  0  0
  148.1676  141.0105  154.2255 C   0  0  0  0  0  0  0  0  0  0  0  0
  147.2116  142.0858  154.6626 C   0  0  0  0  0  0  0  0  0  0  0  0
  152.0163  142.9087  156.5134 H   0  0  0  0  0  0  0  0  0  0  0  0
  150.8217  143.8798  157.3038 H   0  0  0  0  0  0  0  0  0  0  0  0
  151.0471  144.4388  159.3294 H   0  0  0  0  0  0  0  0  0  0  0  0
  152.0313  144.2603  161.6013 H   0  0  0  0  0  0  0  0  0  0  0  0
  153.5053  142.2937  162.1071 H   0  0  0  0  0  0  0  0  0  0  0  0
  149.3113  143.1966  155.7684 H   0  0  0  0  0  0  0  0  0  0  0  0
  147.7070  140.7718  156.3812 H   0  0  0  0  0  0  0  0  0  0  0  0
  149.0092  141.3100  153.6039 H   0  0  0  0  0  0  0  0  0  0  0  0
  147.7524  140.0291  154.0048 H   0  0  0  0  0  0  0  0  0  0  0  0
  146.1580  141.8230  154.7338 H   0  0  0  0  0  0  0  0  0  0  0  0
  147.4156  143.1034  154.3346 H   0  0  0  0  0  0  0  0  0  0  0  0
  1  2  2  0  0  0  0
  2  3  1  0  0  0  0
  2 15  1  0  0  0  0
  3  4  1  0  0  0  0
  3 19  1  0  0  0  0
  3 20  1  0  0  0  0
  4 13  1  0  0  0  0
  4  5  1  0  0  0  0
  5  6  2  0  0  0  0
  5 21  1  0  0  0  0
  6  7  1  0  0  0  0
  6 22  1  0  0  0  0
  7  8  2  0  0  0  0
  7 23  1  0  0  0  0
  8  9  1  0  0  0  0
  8 13  1  0  0  0  0
  9 10  1  0  0  0  0
  9 11  1  0  0  0  0
  9 12  1  0  0  0  0
 13 14  2  0  0  0  0
 15 16  1  0  0  0  0
 15 24  1  0  0  0  0
 16 18  1  0  0  0  0
 16 17  1  0  0  0  0
 16 25  1  0  0  0  0
 17 18  1  0  0  0  0
 17 26  1  0  0  0  0
 17 27  1  0  0  0  0
 18 28  1  0  0  0  0
 18 29  1  0  0  0  0
M  END
> <s_m_source_file>
AV-unprocessed.smi

> <i_m_source_file_index>
1939

> <i_lp_mmshare_version>
43012

> <i_f3d_flags>
0

> <s_epik_input>
W0NIMl0xW0NIMl1bQ0hdMVtOSF1DKD1PKVtDSDJdbjJbY0hdW2NIXVtjSF1jKEMoRikoRilGKWMyPU8=

> <s_epik_cmdline>
J2VwaWtfcHl0aG9uJywgJy1waCcsICc3LjAnLCAnLXRuJywgJzgnLCAnLW1hJywgJzIwMCcsICctbWV0YWxfYmluZGluZycsICctaW1hZScsICc8aW5maWxlLm1hZT4nLCAnLW9tYWUnLCAnPG91dGZpbGUubWFlPic=

> <r_lp_tautomer_probability>
1

> <r_epik_Ionization_Penalty>
2.25843e-08

> <r_epik_Ionization_Penalty_Charging>
1.91398e-09

> <r_epik_Ionization_Penalty_Neutral>
2.06703e-08

> <r_epik_State_Penalty>
-0

> <r_epik_Charging_Adjusted_Penalty>
1.91398e-09

> <i_epik_Tot_Q>
0

> <i_epik_Tot_abs_Q>
0

> <r_epik_Metal_State_Penalty>
-0

> <b_epik_Metal_Only>
0

> <s_lp_Force_Field>
OPLS_2005

> <r_lp_Energy>
25.9148

> <b_lp_Chiralities_Consistent>
1

> <s_lp_Variant>
AV-unprocessed.smi:1939-1

> <Gold.Version>
5.8.1

> <Gold.Id.Protein>
6NUR|6NUR_protein|mol2

> <Gold.PLP.Fitness>
43.4576

> <Gold.PLP.PLP>
-39.2534

> <Gold.PLP.part.hbond>
-2.0000

> <Gold.PLP.part.metal>
0.0000

> <Gold.PLP.part.buried>
-2.5317

> <Gold.PLP.part.nonpolar>
-35.2386

> <Gold.PLP.part.repulsive>
0.1169

> <Gold.PLP.ligand.clash>
0.2601

> <Gold.PLP.ligand.torsion>
0.4986

> <Gold.PLP.Chemscore.Hbond>
1.6960

> <Gold.PLP.Chemscore.CHOScore>
0.0000

> <Gold.PLP.Chemscore.Metal>
0.0000

> <Gold.Chemscore.Hbonds>
donor molecule, donor type, donor heavy atom, donor atom, acceptor molecule, acceptor atom, score
      L1  H    15    24       P1  8028  1.00
      P1  H  7997  8009       L1    14  0.70

> <Gold.PLP.Chemscore.Internal.Correction>
0.3734

> <Gold.Rescore>
     Score         DG    S(hbond)    S(metal)    S(lipo)     H(rot)  DE(clash)    DE(int)     intcor
     11.47     -16.32       1.83        0.00      75.76       1.62       0.21       4.64       ----

> <Gold.Chemscore.Fitness>
11.4664

> <Gold.Chemscore.DG>
-16.3152

> <Gold.Chemscore.ZeroCoef>
-5.4800

> <Gold.Chemscore.Hbond>
1.8313

> <Gold.Chemscore.Metal>
0.0000

> <Gold.Chemscore.Lipo>
75.7589

> <Gold.Chemscore.Internal_Hbond>
0.0000

> <Gold.Chemscore.DEClash>
0.2063

> <Gold.Chemscore.DEInternal>
4.6425

> <Gold.Chemscore.Rot>
1.6192

> <Gold.Chemscore.Internal.Correction>
   9.000000E+99

> <Gold.Chemscore.Hbonds>
donor molecule, donor type, donor heavy atom, donor atom, acceptor molecule, acceptor atom, score
      L1  H    15    24       P1  8028  0.96
      P1  H  7997  8009       L1    14  0.67

> <Gold.Chemscore.Hbond.Weighted>
-6.1167

> <Gold.Chemscore.Metal.Weighted>
-0.0000

> <Gold.Chemscore.Lipo.Weighted>
-8.8638

> <Gold.Chemscore.Internal_Hbond.Weighted>
0.0000

> <Gold.Chemscore.DEClash.Weighted>
0.2063

> <Gold.Chemscore.DEInternal.Weighted>
4.6425

> <Gold.Chemscore.Rot.Weighted>
4.1452

> <Gold.Chemscore.Internal.Correction.Weighted>
   9.000000E+99

> <Gold.Protein.RotatedTorsions>
[ 6907 6896 6895 6894 ] final  -15.48 input  -60.11 | X-H torsion
[ 7974 7965 7964 7962 ] final  -87.63 input  175.53 | X-H torsion
[ 8008 7997 7996 7995 ] final  163.83 input   59.86 | X-H torsion
[ 10167 10162 10161 10158 ] final -172.68 input  -65.29 | X-H torsion
[ 10718 10713 10712 10709 ] final  116.92 input   66.30 | X-H torsion
[ 10763 10752 10751 10750 ] final   65.85 input  -60.55 | X-H torsion
[ 11005 11000 10999 10996 ] final   30.16 input  -57.11 | X-H torsion

> <Gold.Protein.ActiveResidues>
 VAL166  LYS551  ARG553  GLY616  TRP617  ASP618  TYR619  PRO620  LYS621  CYS622 
 ASP623  PHE694  ASN695  SER759  ASP760  ASP761  ALA762  ILE779  LEU786  VAL792 
 PHE793  MET794  SER795  GLU796  ALA797  LYS798  CYS799  TRP800  GLU811  SER814 

> <Gold.Protein.RotatedAtoms>
  151.3234  135.0824  159.9313 H   0  0  0  0  0  0  0  0  0  0  0  0  # atno 6907 bound_to 6896
  152.5251  133.9616  159.7730 H   0  0  0  0  0  0  0  0  0  0  0  0  # atno 6908 bound_to 6896
  150.9941  133.6068  159.2734 H   0  0  0  0  0  0  0  0  0  0  0  0  # atno 6909 bound_to 6896
  145.4639  140.9560  143.1954 H   0  0  0  0  0  0  0  0  0  0  0  0  # atno 7974 bound_to 7965
  156.1927  140.1713  156.8060 H   0  0  0  0  0  0  0  0  0  0  0  0  # atno 8008 bound_to 7997
  154.5491  140.0721  156.8670 H   0  0  0  0  0  0  0  0  0  0  0  0  # atno 8009 bound_to 7997
  155.3064  140.3365  155.4248 H   0  0  0  0  0  0  0  0  0  0  0  0  # atno 8010 bound_to 7997
  139.5731  144.1596  152.1412 H   0  0  0  0  0  0  0  0  0  0  0  0  # atno 10167 bound_to 10162
  157.6130  131.1031  150.7542 H   0  0  0  0  0  0  0  0  0  0  0  0  # atno 10718 bound_to 10713
  153.0114  135.5342  154.6732 H   0  0  0  0  0  0  0  0  0  0  0  0  # atno 10763 bound_to 10752
  154.5911  135.2859  155.0636 H   0  0  0  0  0  0  0  0  0  0  0  0  # atno 10764 bound_to 10752
  154.1729  135.6529  153.5066 H   0  0  0  0  0  0  0  0  0  0  0  0  # atno 10765 bound_to 10752
  140.2973  134.2796  155.7762 H   0  0  0  0  0  0  0  0  0  0  0  0  # atno 11005 bound_to 11000
  144.7986  139.6185  143.7082 LP  0  0  0  0  0  0  0  0  0  0  0  0  # atno 17320 bound_to 7965
  146.2435  139.6050  142.9475 LP  0  0  0  0  0  0  0  0  0  0  0  0  # atno 17321 bound_to 7965
  140.1133  144.5438  150.6911 LP  0  0  0  0  0  0  0  0  0  0  0  0  # atno 17342 bound_to 10162
  140.7015  143.2438  151.4852 LP  0  0  0  0  0  0  0  0  0  0  0  0  # atno 17343 bound_to 10162
  156.7915  130.4891  149.5384 LP  0  0  0  0  0  0  0  0  0  0  0  0  # atno 17370 bound_to 10713
  156.1240  130.6130  151.0235 LP  0  0  0  0  0  0  0  0  0  0  0  0  # atno 17371 bound_to 10713
  141.2135  133.7623  156.9714 LP  0  0  0  0  0  0  0  0  0  0  0  0  # atno 17394 bound_to 11000
  140.1141  134.9458  157.2108 LP  0  0  0  0  0  0  0  0  0  0  0  0  # atno 17395 bound_to 11000

$$$$
