AV-unprocessed.smi:3130|AV-procd|sdf|11926|dock2
  -GOLD-   2272017313D 1   1.00000     0.00000
 Structure written by MMmdl.
 40 40  0  0  0  0  0  0  0  0  2 V2000
  151.6184  142.3244  157.7821 C   0  0  0  0  0  0  0  0  0  0  0  0
  151.0234  141.5734  156.6262 C   0  0  0  0  0  0  0  0  0  0  0  0
  151.5880  140.4817  155.9068 C   0  0  0  0  0  0  0  0  0  0  0  0
  150.8039  140.0473  154.9333 N   0  0  0  0  0  0  0  0  0  0  0  0
  149.7139  140.8404  154.9987 N   0  0  0  0  0  0  0  0  0  0  0  0
  148.6294  140.6530  154.0542 C   0  0  0  0  0  0  0  0  0  0  0  0
  148.0310  139.2412  154.1410 C   0  0  0  0  0  0  0  0  0  0  0  0
  147.8182  138.6720  152.7963 N   0  3  0  0  0  0  0  0  0  0  0  0
  146.4013  138.6127  152.3874 C   0  0  0  0  0  0  0  0  0  0  0  0
  146.2161  137.6891  151.1714 C   0  0  0  0  0  0  0  0  0  0  0  0
  145.4859  136.3888  151.5198 C   0  0  0  0  0  0  0  0  0  0  0  0
  144.2683  136.3877  151.7011 O   0  0  0  0  0  0  0  0  0  0  0  0
  146.2467  135.2869  151.6144 N   0  0  0  0  0  0  0  0  0  0  0  0
  145.7635  133.9482  151.9418 C   0  0  0  0  0  0  0  0  0  0  0  0
  146.9612  133.0181  152.1773 C   0  0  0  0  0  0  0  0  0  0  0  0
  144.8459  133.4185  150.8284 C   0  0  0  0  0  0  0  0  0  0  0  0
  149.8210  141.7724  156.0092 C   0  0  0  0  0  0  0  0  0  0  0  0
  152.5384  141.8602  158.1385 H   0  0  0  0  0  0  0  0  0  0  0  0
  150.9331  142.3692  158.6289 H   0  0  0  0  0  0  0  0  0  0  0  0
  151.8619  143.3515  157.5097 H   0  0  0  0  0  0  0  0  0  0  0  0
  152.5407  139.9967  156.0613 H   0  0  0  0  0  0  0  0  0  0  0  0
  147.8629  141.4030  154.2545 H   0  0  0  0  0  0  0  0  0  0  0  0
  149.0095  140.8479  153.0503 H   0  0  0  0  0  0  0  0  0  0  0  0
  148.6964  138.5849  154.7037 H   0  0  0  0  0  0  0  0  0  0  0  0
  147.0791  139.2704  154.6733 H   0  0  0  0  0  0  0  0  0  0  0  0
  148.3243  139.2335  152.1262 H   0  0  0  0  0  0  0  0  0  0  0  0
  145.8075  138.2559  153.2305 H   0  0  0  0  0  0  0  0  0  0  0  0
  146.0555  139.6203  152.1502 H   0  0  0  0  0  0  0  0  0  0  0  0
  145.6614  138.2157  150.3930 H   0  0  0  0  0  0  0  0  0  0  0  0
  147.1866  137.4320  150.7454 H   0  0  0  0  0  0  0  0  0  0  0  0
  147.2388  135.3807  151.4516 H   0  0  0  0  0  0  0  0  0  0  0  0
  145.1918  133.9941  152.8705 H   0  0  0  0  0  0  0  0  0  0  0  0
  146.6314  132.0154  152.4503 H   0  0  0  0  0  0  0  0  0  0  0  0
  147.5930  133.3870  152.9859 H   0  0  0  0  0  0  0  0  0  0  0  0
  147.5798  132.9320  151.2832 H   0  0  0  0  0  0  0  0  0  0  0  0
  144.4793  132.4196  151.0667 H   0  0  0  0  0  0  0  0  0  0  0  0
  145.3708  133.3606  149.8744 H   0  0  0  0  0  0  0  0  0  0  0  0
  143.9755  134.0612  150.6917 H   0  0  0  0  0  0  0  0  0  0  0  0
  149.0419  142.4947  156.2042 H   0  0  0  0  0  0  0  0  0  0  0  0
  148.1943  137.7346  152.7827 H   0  0  0  0  0  0  0  0  0  0  0  0
  1  2  1  0  0  0  0
  1 18  1  0  0  0  0
  1 19  1  0  0  0  0
  1 20  1  0  0  0  0
  2 17  2  0  0  0  0
  2  3  1  0  0  0  0
  3  4  2  0  0  0  0
  3 21  1  0  0  0  0
  4  5  1  0  0  0  0
  5  6  1  0  0  0  0
  5 17  1  0  0  0  0
  6  7  1  0  0  0  0
  6 22  1  0  0  0  0
  6 23  1  0  0  0  0
  7  8  1  0  0  0  0
  7 24  1  0  0  0  0
  7 25  1  0  0  0  0
  8  9  1  0  0  0  0
  8 26  1  0  0  0  0
  8 40  1  0  0  0  0
  9 10  1  0  0  0  0
  9 27  1  0  0  0  0
  9 28  1  0  0  0  0
 10 11  1  0  0  0  0
 10 29  1  0  0  0  0
 10 30  1  0  0  0  0
 11 12  2  0  0  0  0
 11 13  1  0  0  0  0
 13 14  1  0  0  0  0
 13 31  1  0  0  0  0
 14 15  1  0  0  0  0
 14 16  1  0  0  0  0
 14 32  1  0  0  0  0
 15 33  1  0  0  0  0
 15 34  1  0  0  0  0
 15 35  1  0  0  0  0
 16 36  1  0  0  0  0
 16 37  1  0  0  0  0
 16 38  1  0  0  0  0
 17 39  1  0  0  0  0
M  CHG  1   8   1
M  END
> <s_m_source_file>
AV-unprocessed.smi

> <i_m_source_file_index>
3130

> <i_lp_mmshare_version>
43012

> <i_f3d_flags>
0

> <s_epik_input>
W0NIM11jMVtjSF1ubihbY0hdMSlbQ0gyXVtDSDJdW05IXVtDSDJdW0NIMl1DKD1PKVtOSF1bQ0hdKFtDSDNdKVtDSDNd

> <s_epik_cmdline>
J2VwaWtfcHl0aG9uJywgJy1waCcsICc3LjAnLCAnLXRuJywgJzgnLCAnLW1hJywgJzIwMCcsICctbWV0YWxfYmluZGluZycsICctaW1hZScsICc8aW5maWxlLm1hZT4nLCAnLW9tYWUnLCAnPG91dGZpbGUubWFlPic=

> <r_lp_tautomer_probability>
1

> <r_epik_Ionization_Penalty>
0.00578341

> <r_epik_Ionization_Penalty_Charging>
0.00577767

> <r_epik_Ionization_Penalty_Neutral>
5.73237e-06

> <r_epik_State_Penalty>
-0

> <r_epik_Charging_Adjusted_Penalty>
0.00577767

> <i_epik_Tot_Q>
1

> <i_epik_Tot_abs_Q>
1

> <r_epik_Metal_State_Penalty>
-0

> <b_epik_Metal_Only>
0

> <s_lp_Force_Field>
OPLS_2005

> <r_lp_Energy>
3.33075

> <b_lp_Chiralities_Consistent>
1

> <s_lp_Variant>
AV-unprocessed.smi:3130-1

> <Gold.Version>
5.8.1

> <Gold.Id.Protein>
6NUR|6NUR_protein|mol2

> <Gold.PLP.Fitness>
49.3716

> <Gold.PLP.PLP>
-34.0424

> <Gold.PLP.part.hbond>
-4.0000

> <Gold.PLP.part.metal>
0.0000

> <Gold.PLP.part.buried>
0.6174

> <Gold.PLP.part.nonpolar>
-30.4673

> <Gold.PLP.part.repulsive>
1.0622

> <Gold.PLP.ligand.clash>
0.0000

> <Gold.PLP.ligand.torsion>
1.3189

> <Gold.PLP.Chemscore.Hbond>
4.9920

> <Gold.PLP.Chemscore.CHOScore>
0.9475

> <Gold.PLP.Chemscore.Metal>
0.0000

> <Gold.Chemscore.Hbonds>
donor molecule, donor type, donor heavy atom, donor atom, acceptor molecule, acceptor atom, score
      L1  H     8    26       P1  7957  1.00
      L1  H     8    40       P1  7948  2.00
      L1  H    13    31       P1  7948  1.00
      P1  H  7989  7998       L1     4  0.86
      L1  C    17    39       P1  8028  1.00

> <Gold.PLP.Chemscore.Internal.Correction>
0.1484

> <Gold.Rescore>
     Score         DG    S(hbond)    S(metal)    S(lipo)     H(rot)  DE(clash)    DE(int)     intcor
     16.84     -19.65       3.30        0.00      76.26       2.26       1.48       1.33       ----

> <Gold.Chemscore.Fitness>
16.8408

> <Gold.Chemscore.DG>
-19.6538

> <Gold.Chemscore.ZeroCoef>
-5.4800

> <Gold.Chemscore.Hbond>
3.3040

> <Gold.Chemscore.Metal>
0.0000

> <Gold.Chemscore.Lipo>
76.2554

> <Gold.Chemscore.Internal_Hbond>
0.0000

> <Gold.Chemscore.DEClash>
1.4822

> <Gold.Chemscore.DEInternal>
1.3307

> <Gold.Chemscore.Rot>
2.2591

> <Gold.Chemscore.Internal.Correction>
   9.000000E+99

> <Gold.Chemscore.Hbonds>
donor molecule, donor type, donor heavy atom, donor atom, acceptor molecule, acceptor atom, score
      L1  H     8    26       P1  7957  1.00
      L1  H     8    40       P1  7948  0.95
      L1  H    13    31       P1  7948  0.89
      P1  H  7989  7998       L1     4  0.04

> <Gold.Chemscore.Hbond.Weighted>
-11.0353

> <Gold.Chemscore.Metal.Weighted>
-0.0000

> <Gold.Chemscore.Lipo.Weighted>
-8.9219

> <Gold.Chemscore.Internal_Hbond.Weighted>
0.0000

> <Gold.Chemscore.DEClash.Weighted>
1.4822

> <Gold.Chemscore.DEInternal.Weighted>
1.3307

> <Gold.Chemscore.Rot.Weighted>
5.7834

> <Gold.Chemscore.Internal.Correction.Weighted>
   9.000000E+99

> <Gold.Protein.RotatedTorsions>
[ 6907 6896 6895 6894 ] final  161.60 input  -60.11 | X-H torsion
[ 7974 7965 7964 7962 ] final -167.94 input  175.53 | X-H torsion
[ 8008 7997 7996 7995 ] final  124.41 input   59.86 | X-H torsion
[ 10167 10162 10161 10158 ] final  -34.38 input  -65.29 | X-H torsion
[ 10718 10713 10712 10709 ] final -165.99 input   66.30 | X-H torsion
[ 10763 10752 10751 10750 ] final -105.99 input  -60.55 | X-H torsion
[ 11005 11000 10999 10996 ] final  -24.44 input  -57.11 | X-H torsion

> <Gold.Protein.ActiveResidues>
 VAL166  LYS551  ARG553  GLY616  TRP617  ASP618  TYR619  PRO620  LYS621  CYS622 
 ASP623  PHE694  ASN695  SER759  ASP760  ASP761  ALA762  ILE779  LEU786  VAL792 
 PHE793  MET794  SER795  GLU796  ALA797  LYS798  CYS799  TRP800  GLU811  SER814 

> <Gold.Protein.RotatedAtoms>
  151.9531  133.3672  159.4007 H   0  0  0  0  0  0  0  0  0  0  0  0  # atno 6907 bound_to 6896
  150.6977  134.4319  159.5261 H   0  0  0  0  0  0  0  0  0  0  0  0  # atno 6908 bound_to 6896
  152.1996  134.8600  160.0560 H   0  0  0  0  0  0  0  0  0  0  0  0  # atno 6909 bound_to 6896
  144.7213  140.2443  143.6287 H   0  0  0  0  0  0  0  0  0  0  0  0  # atno 7974 bound_to 7965
  156.2800  140.2740  156.1784 H   0  0  0  0  0  0  0  0  0  0  0  0  # atno 8008 bound_to 7997
  155.0582  140.0386  157.2585 H   0  0  0  0  0  0  0  0  0  0  0  0  # atno 8009 bound_to 7997
  154.7139  140.2674  155.6609 H   0  0  0  0  0  0  0  0  0  0  0  0  # atno 8010 bound_to 7997
  140.7187  143.3552  151.2074 H   0  0  0  0  0  0  0  0  0  0  0  0  # atno 10167 bound_to 10162
  156.6613  130.9047  151.3029 H   0  0  0  0  0  0  0  0  0  0  0  0  # atno 10718 bound_to 10713
  154.7983  135.4728  154.0214 H   0  0  0  0  0  0  0  0  0  0  0  0  # atno 10763 bound_to 10752
  153.1739  135.6829  153.8576 H   0  0  0  0  0  0  0  0  0  0  0  0  # atno 10764 bound_to 10752
  153.8149  135.3212  155.3382 H   0  0  0  0  0  0  0  0  0  0  0  0  # atno 10765 bound_to 10752
  140.8845  133.7631  156.0343 H   0  0  0  0  0  0  0  0  0  0  0  0  # atno 11005 bound_to 11000
  145.8289  139.2077  143.1894 LP  0  0  0  0  0  0  0  0  0  0  0  0  # atno 17320 bound_to 7965
  146.0448  140.8129  142.9811 LP  0  0  0  0  0  0  0  0  0  0  0  0  # atno 17321 bound_to 7965
  139.7092  143.9405  152.2940 LP  0  0  0  0  0  0  0  0  0  0  0  0  # atno 17342 bound_to 10162
  139.9124  144.6848  150.8548 LP  0  0  0  0  0  0  0  0  0  0  0  0  # atno 17343 bound_to 10162
  157.7108  130.9438  150.1084 LP  0  0  0  0  0  0  0  0  0  0  0  0  # atno 17370 bound_to 10713
  156.2008  130.3660  149.8790 LP  0  0  0  0  0  0  0  0  0  0  0  0  # atno 17371 bound_to 10713
  140.8421  134.3054  157.5309 LP  0  0  0  0  0  0  0  0  0  0  0  0  # atno 17394 bound_to 11000
  139.8723  134.9422  156.3818 LP  0  0  0  0  0  0  0  0  0  0  0  0  # atno 17395 bound_to 11000

$$$$
