AV-unprocessed.smi:107|AV-procd|sdf|1022|dock1
  -GOLD-   2262018 23D 1   1.00000     0.00000
 Structure written by MMmdl.
 30 31  0  0  0  0  0  0  0  0  2 V2000
  155.6195  139.4586  161.6977 C   0  0  0  0  0  0  0  0  0  0  0  0
  154.6582  140.0354  160.6732 C   0  0  0  0  0  0  0  0  0  0  0  0
  154.1718  141.2930  160.7683 C   0  0  0  0  0  0  0  0  0  0  0  0
  153.2941  141.8120  159.8328 N   0  0  0  0  0  0  0  0  0  0  0  0
  152.7501  143.2124  159.9809 C   0  0  1  0  0  0  0  0  0  0  0  0
  152.9027  143.9992  158.6855 C   0  0  0  0  0  0  0  0  0  0  0  0
  151.7217  144.9602  158.7545 C   0  0  1  0  0  0  0  0  0  0  0  0
  151.0748  145.0239  157.4966 O   0  0  0  0  0  0  0  0  0  0  0  0
  150.8354  144.4270  159.9075 C   0  0  1  0  0  0  0  0  0  0  0  0
  149.3327  144.2817  159.6012 C   0  0  0  0  0  0  0  0  0  0  0  0
  148.7221  145.5536  159.5465 O   0  0  0  0  0  0  0  0  0  0  0  0
  151.3837  143.1520  160.2197 O   0  0  0  0  0  0  0  0  0  0  0  0
  152.8558  141.0018  158.7539 C   0  0  0  0  0  0  0  0  0  0  0  0
  152.0403  141.4782  157.9641 O   0  0  0  0  0  0  0  0  0  0  0  0
  153.3483  139.7348  158.6445 N   0  5  0  0  0  0  0  0  0  0  0  0
  154.2300  139.2049  159.5407 C   0  0  0  0  0  0  0  0  0  0  0  0
  154.6686  138.0603  159.4279 O   0  0  0  0  0  0  0  0  0  0  0  0
  155.8455  140.1821  162.4813 H   0  0  0  0  0  0  0  0  0  0  0  0
  156.5574  139.1725  161.2212 H   0  0  0  0  0  0  0  0  0  0  0  0
  155.1878  138.5748  162.1684 H   0  0  0  0  0  0  0  0  0  0  0  0
  154.4746  141.9050  161.6050 H   0  0  0  0  0  0  0  0  0  0  0  0
  153.2416  143.6715  160.8408 H   0  0  0  0  0  0  0  0  0  0  0  0
  153.8744  144.4918  158.6395 H   0  0  0  0  0  0  0  0  0  0  0  0
  152.8088  143.3160  157.8393 H   0  0  0  0  0  0  0  0  0  0  0  0
  152.0707  145.9631  159.0034 H   0  0  0  0  0  0  0  0  0  0  0  0
  150.1631  144.8065  157.6159 H   0  0  0  0  0  0  0  0  0  0  0  0
  150.9788  145.0796  160.7710 H   0  0  0  0  0  0  0  0  0  0  0  0
  149.1830  143.8198  158.6251 H   0  0  0  0  0  0  0  0  0  0  0  0
  148.8373  143.6530  160.3421 H   0  0  0  0  0  0  0  0  0  0  0  0
  148.7021  145.8385  158.6456 H   0  0  0  0  0  0  0  0  0  0  0  0
  1  2  1  0  0  0  0
  1 18  1  0  0  0  0
  1 19  1  0  0  0  0
  1 20  1  0  0  0  0
  2 16  1  0  0  0  0
  2  3  2  0  0  0  0
  3  4  1  0  0  0  0
  3 21  1  0  0  0  0
  4  5  1  0  0  0  0
  4 13  1  0  0  0  0
  5 12  1  0  0  0  0
  5  6  1  0  0  0  0
  5 22  1  0  0  0  0
  6  7  1  0  0  0  0
  6 23  1  0  0  0  0
  6 24  1  0  0  0  0
  7  8  1  0  0  0  0
  7  9  1  0  0  0  0
  7 25  1  0  0  0  0
  8 26  1  0  0  0  0
  9 10  1  0  0  0  0
  9 12  1  0  0  0  0
  9 27  1  0  0  0  0
 10 11  1  0  0  0  0
 10 28  1  0  0  0  0
 10 29  1  0  0  0  0
 11 30  1  0  0  0  0
 13 14  2  0  0  0  0
 13 15  1  0  0  0  0
 15 16  1  0  0  0  0
 16 17  2  0  0  0  0
M  CHG  1  15  -1
M  END
> <s_m_source_file>
AV-unprocessed.smi

> <i_m_source_file_index>
107

> <i_lp_mmshare_version>
43012

> <i_f3d_flags>
0

> <s_epik_input>
Tz1jMVtuSF1jKD1PKW4oW2NIXWMxW0NIM10pW0NAQEhdMltDSDJdW0NAQEhdKFtPSF0pW0NASF0oTzIpW0NIMl1bT0hd

> <s_epik_cmdline>
J2VwaWtfcHl0aG9uJywgJy1waCcsICc3LjAnLCAnLXRuJywgJzgnLCAnLW1hJywgJzIwMCcsICctbWV0YWxfYmluZGluZycsICctaW1hZScsICc8aW5maWxlLm1hZT4nLCAnLW9tYWUnLCAnPG91dGZpbGUubWFlPic=

> <r_lp_tautomer_probability>
0.999537

> <r_epik_Ionization_Penalty>
3.66603

> <r_epik_Ionization_Penalty_Charging>
1.09773e-07

> <r_epik_Ionization_Penalty_Neutral>
3.66603

> <r_epik_State_Penalty>
3.66562

> <r_epik_Charging_Adjusted_Penalty>
3.66562

> <i_epik_Tot_Q>
-1

> <i_epik_Tot_abs_Q>
1

> <r_epik_Metal_State_Penalty>
0.234536

> <b_epik_Metal_Only>
1

> <s_epik_Chemistry_Notes>
This compound contains an acetal/aminal-like group ( X-CH(R)-Y where X, Y are N, S, or O) that may be acid/base labile, releasing an aldehyde.

> <s_lp_Force_Field>
OPLS_2005

> <r_lp_Energy>
40.7451

> <b_lp_Chiralities_Consistent>
1

> <s_lp_Variant>
AV-unprocessed.smi:107-10

> <Gold.Version>
5.8.1

> <Gold.Id.Protein>
6NUR|6NUR_protein|mol2

> <Gold.PLP.Fitness>
41.9332

> <Gold.PLP.PLP>
-33.3111

> <Gold.PLP.part.hbond>
-4.2334

> <Gold.PLP.part.metal>
0.0000

> <Gold.PLP.part.buried>
-1.0809

> <Gold.PLP.part.nonpolar>
-27.1587

> <Gold.PLP.part.repulsive>
0.0511

> <Gold.PLP.ligand.clash>
0.0000

> <Gold.PLP.ligand.torsion>
0.1883

> <Gold.PLP.Chemscore.Hbond>
2.9915

> <Gold.PLP.Chemscore.CHOScore>
0.0000

> <Gold.PLP.Chemscore.Metal>
0.0000

> <Gold.Chemscore.Hbonds>
donor molecule, donor type, donor heavy atom, donor atom, acceptor molecule, acceptor atom, score
      L1  H     8    26       P1  8028  0.08
      L1  H    11    30       P1  8029  0.98
      P1  H  7997  8009       L1    15  1.32

> <Gold.PLP.Chemscore.Internal.Correction>
0.0242

> <Gold.Rescore>
     Score         DG    S(hbond)    S(metal)    S(lipo)     H(rot)  DE(clash)    DE(int)     intcor
      6.59      -9.42       1.01        0.00      63.74       2.69       0.04       2.80       ----

> <Gold.Chemscore.Fitness>
6.5867

> <Gold.Chemscore.DG>
-9.4228

> <Gold.Chemscore.ZeroCoef>
-5.4800

> <Gold.Chemscore.Hbond>
1.0071

> <Gold.Chemscore.Metal>
0.0000

> <Gold.Chemscore.Lipo>
63.7449

> <Gold.Chemscore.Internal_Hbond>
0.0000

> <Gold.Chemscore.DEClash>
0.0408

> <Gold.Chemscore.DEInternal>
2.7953

> <Gold.Chemscore.Rot>
2.6871

> <Gold.Chemscore.Internal.Correction>
   9.000000E+99

> <Gold.Chemscore.Hbonds>
donor molecule, donor type, donor heavy atom, donor atom, acceptor molecule, acceptor atom, score
      L1  H     8    26       P1  8028  0.01
      L1  H    11    30       P1  8029  0.91
      P1  H  7997  8009       L1    15  0.02

> <Gold.Chemscore.Hbond.Weighted>
-3.3637

> <Gold.Chemscore.Metal.Weighted>
-0.0000

> <Gold.Chemscore.Lipo.Weighted>
-7.4582

> <Gold.Chemscore.Internal_Hbond.Weighted>
0.0000

> <Gold.Chemscore.DEClash.Weighted>
0.0408

> <Gold.Chemscore.DEInternal.Weighted>
2.7953

> <Gold.Chemscore.Rot.Weighted>
6.8791

> <Gold.Chemscore.Internal.Correction.Weighted>
   9.000000E+99

> <Gold.Protein.RotatedTorsions>
[ 6907 6896 6895 6894 ] final -156.35 input  -60.11 | X-H torsion
[ 7974 7965 7964 7962 ] final  120.33 input  175.53 | X-H torsion
[ 8008 7997 7996 7995 ] final  141.01 input   59.86 | X-H torsion
[ 10167 10162 10161 10158 ] final   98.36 input  -65.29 | X-H torsion
[ 10718 10713 10712 10709 ] final  100.13 input   66.30 | X-H torsion
[ 10763 10752 10751 10750 ] final   86.68 input  -60.55 | X-H torsion
[ 11005 11000 10999 10996 ] final  -80.59 input  -57.11 | X-H torsion

> <Gold.Protein.ActiveResidues>
 VAL166  LYS551  ARG553  GLY616  TRP617  ASP618  TYR619  PRO620  LYS621  CYS622 
 ASP623  PHE694  ASN695  SER759  ASP760  ASP761  ALA762  ILE779  LEU786  VAL792 
 PHE793  MET794  SER795  GLU796  ALA797  LYS798  CYS799  TRP800  GLU811  SER814 

> <Gold.Protein.RotatedAtoms>
  151.2863  133.4186  159.2629 H   0  0  0  0  0  0  0  0  0  0  0  0  # atno 6907 bound_to 6896
  151.0316  134.9544  159.8124 H   0  0  0  0  0  0  0  0  0  0  0  0  # atno 6908 bound_to 6896
  152.5347  134.2824  159.9065 H   0  0  0  0  0  0  0  0  0  0  0  0  # atno 6909 bound_to 6896
  145.1324  139.3319  143.4658 H   0  0  0  0  0  0  0  0  0  0  0  0  # atno 7974 bound_to 7965
  156.2971  140.2326  156.4495 H   0  0  0  0  0  0  0  0  0  0  0  0  # atno 8008 bound_to 7997
  154.8114  140.0443  157.1366 H   0  0  0  0  0  0  0  0  0  0  0  0  # atno 8009 bound_to 7997
  154.9419  140.3030  155.5120 H   0  0  0  0  0  0  0  0  0  0  0  0  # atno 8010 bound_to 7997
  139.7715  144.6920  151.0148 H   0  0  0  0  0  0  0  0  0  0  0  0  # atno 10167 bound_to 10162
  157.6861  131.0689  150.5054 H   0  0  0  0  0  0  0  0  0  0  0  0  # atno 10718 bound_to 10713
  153.1594  135.4571  154.9750 H   0  0  0  0  0  0  0  0  0  0  0  0  # atno 10763 bound_to 10752
  154.7886  135.3212  154.7832 H   0  0  0  0  0  0  0  0  0  0  0  0  # atno 10764 bound_to 10752
  153.8324  135.6937  153.4867 H   0  0  0  0  0  0  0  0  0  0  0  0  # atno 10765 bound_to 10752
  141.1668  133.7157  156.8296 H   0  0  0  0  0  0  0  0  0  0  0  0  # atno 11005 bound_to 11000
  146.3512  140.1329  142.8596 LP  0  0  0  0  0  0  0  0  0  0  0  0  # atno 17320 bound_to 7965
  145.0620  140.9095  143.4933 LP  0  0  0  0  0  0  0  0  0  0  0  0  # atno 17321 bound_to 7965
  140.7814  143.4583  151.0315 LP  0  0  0  0  0  0  0  0  0  0  0  0  # atno 17342 bound_to 10162
  139.8266  143.7747  152.3179 LP  0  0  0  0  0  0  0  0  0  0  0  0  # atno 17343 bound_to 10162
  156.5373  130.4199  149.6171 LP  0  0  0  0  0  0  0  0  0  0  0  0  # atno 17370 bound_to 10713
  156.3016  130.7180  151.2053 LP  0  0  0  0  0  0  0  0  0  0  0  0  # atno 17371 bound_to 10713
  140.2060  134.8862  157.3222 LP  0  0  0  0  0  0  0  0  0  0  0  0  # atno 17394 bound_to 11000
  140.2136  134.4108  155.7600 LP  0  0  0  0  0  0  0  0  0  0  0  0  # atno 17395 bound_to 11000

$$$$
