AV-unprocessed.smi:2495|AV-procd|sdf|9824|dock4
  -GOLD-   2272013453D 1   1.00000     0.00000
 Structure written by MMmdl.
 33 34  0  0  0  0  0  0  0  0  1 V2000
  145.7738  142.1102  154.8818 C   0  0  0  0  0  0  0  0  0  0  0  0
  147.2218  142.0458  155.0071 N   0  0  0  0  0  0  0  0  0  0  0  0
  147.9493  140.9321  154.8318 C   0  0  0  0  0  0  0  0  0  0  0  0
  147.4448  139.8430  154.5551 O   0  0  0  0  0  0  0  0  0  0  0  0
  149.4687  141.0633  155.0169 C   0  0  1  0  0  0  0  0  0  0  0  0
  149.8513  141.4921  156.4522 C   0  0  0  0  0  0  0  0  0  0  0  0
  151.3023  141.4882  156.6265 N   0  0  0  0  0  0  0  0  0  0  0  0
  151.7807  142.1095  157.8008 C   0  0  0  0  0  0  0  0  0  0  0  0
  151.3012  143.3805  158.2003 C   0  0  0  0  0  0  0  0  0  0  0  0
  151.8364  143.9210  159.3882 C   0  0  0  0  0  0  0  0  0  0  0  0
  151.3934  145.2724  159.9076 C   0  0  0  0  0  0  0  0  0  0  0  0
  152.7627  143.2626  160.1167 N   0  0  0  0  0  0  0  0  0  0  0  0
  153.1528  142.0746  159.6519 C   0  0  0  0  0  0  0  0  0  0  0  0
  152.7187  141.4701  158.5436 N   0  0  0  0  0  0  0  0  0  0  0  0
  151.9373  140.2405  156.2085 C   0  0  0  0  0  0  0  0  0  0  0  0
  151.5005  139.8709  154.7829 C   0  0  0  0  0  0  0  0  0  0  0  0
  150.0806  139.8070  154.7226 O   0  0  0  0  0  0  0  0  0  0  0  0
  145.4222  143.1078  155.1448 H   0  0  0  0  0  0  0  0  0  0  0  0
  145.2913  141.3927  155.5468 H   0  0  0  0  0  0  0  0  0  0  0  0
  145.4653  141.8979  153.8574 H   0  0  0  0  0  0  0  0  0  0  0  0
  147.7070  142.9025  155.2321 H   0  0  0  0  0  0  0  0  0  0  0  0
  149.8215  141.8095  154.3027 H   0  0  0  0  0  0  0  0  0  0  0  0
  149.4337  142.4782  156.6507 H   0  0  0  0  0  0  0  0  0  0  0  0
  149.4117  140.8098  157.1814 H   0  0  0  0  0  0  0  0  0  0  0  0
  150.5704  143.9295  157.6253 H   0  0  0  0  0  0  0  0  0  0  0  0
  151.0093  145.8927  159.0974 H   0  0  0  0  0  0  0  0  0  0  0  0
  152.2251  145.8020  160.3736 H   0  0  0  0  0  0  0  0  0  0  0  0
  150.6043  145.1494  160.6494 H   0  0  0  0  0  0  0  0  0  0  0  0
  153.8966  141.5480  160.2311 H   0  0  0  0  0  0  0  0  0  0  0  0
  153.0233  140.3395  156.2369 H   0  0  0  0  0  0  0  0  0  0  0  0
  151.6627  139.4448  156.9025 H   0  0  0  0  0  0  0  0  0  0  0  0
  151.8753  140.5960  154.0587 H   0  0  0  0  0  0  0  0  0  0  0  0
  151.9118  138.9004  154.5045 H   0  0  0  0  0  0  0  0  0  0  0  0
  1  2  1  0  0  0  0
  1 18  1  0  0  0  0
  1 19  1  0  0  0  0
  1 20  1  0  0  0  0
  2  3  1  0  0  0  0
  2 21  1  0  0  0  0
  3  4  2  0  0  0  0
  3  5  1  0  0  0  0
  5 17  1  0  0  0  0
  5  6  1  0  0  0  0
  5 22  1  0  0  0  0
  6  7  1  0  0  0  0
  6 23  1  0  0  0  0
  6 24  1  0  0  0  0
  7  8  1  0  0  0  0
  7 15  1  0  0  0  0
  8 14  1  0  0  0  0
  8  9  2  0  0  0  0
  9 10  1  0  0  0  0
  9 25  1  0  0  0  0
 10 11  1  0  0  0  0
 10 12  2  0  0  0  0
 11 26  1  0  0  0  0
 11 27  1  0  0  0  0
 11 28  1  0  0  0  0
 12 13  1  0  0  0  0
 13 14  2  0  0  0  0
 13 29  1  0  0  0  0
 15 16  1  0  0  0  0
 15 30  1  0  0  0  0
 15 31  1  0  0  0  0
 16 17  1  0  0  0  0
 16 32  1  0  0  0  0
 16 33  1  0  0  0  0
M  END
> <s_m_source_file>
AV-unprocessed.smi

> <i_m_source_file_index>
2495

> <i_lp_mmshare_version>
43012

> <i_f3d_flags>
0

> <s_epik_input>
W0NIM11bTkhdQyg9TylbQ0BASF0xW0NIMl1OKFtDSDJdW0NIMl1PMSljMltjSF1jKFtDSDNdKW5bY0hdbjI=

> <s_epik_cmdline>
J2VwaWtfcHl0aG9uJywgJy1waCcsICc3LjAnLCAnLXRuJywgJzgnLCAnLW1hJywgJzIwMCcsICctbWV0YWxfYmluZGluZycsICctaW1hZScsICc8aW5maWxlLm1hZT4nLCAnLW9tYWUnLCAnPG91dGZpbGUubWFlPic=

> <r_lp_tautomer_probability>
1

> <r_epik_Ionization_Penalty>
0.000466083

> <r_epik_Ionization_Penalty_Charging>
0

> <r_epik_Ionization_Penalty_Neutral>
0.000466083

> <r_epik_State_Penalty>
0.000259726

> <r_epik_Charging_Adjusted_Penalty>
0.000259726

> <i_epik_Tot_Q>
0

> <i_epik_Tot_abs_Q>
0

> <r_epik_Metal_State_Penalty>
-0

> <b_epik_Metal_Only>
0

> <s_lp_Force_Field>
OPLS_2005

> <r_lp_Energy>
12.0364

> <b_lp_Chiralities_Consistent>
1

> <s_lp_Variant>
AV-unprocessed.smi:2495-2

> <Gold.Version>
5.8.1

> <Gold.Id.Protein>
6NUR|6NUR_protein|mol2

> <Gold.PLP.Fitness>
39.6816

> <Gold.PLP.PLP>
-36.7498

> <Gold.PLP.part.hbond>
-1.0000

> <Gold.PLP.part.metal>
0.0000

> <Gold.PLP.part.buried>
-4.0503

> <Gold.PLP.part.nonpolar>
-31.7511

> <Gold.PLP.part.repulsive>
0.4078

> <Gold.PLP.ligand.clash>
0.0000

> <Gold.PLP.ligand.torsion>
0.2081

> <Gold.PLP.Chemscore.Hbond>
1.0000

> <Gold.PLP.Chemscore.CHOScore>
0.0000

> <Gold.PLP.Chemscore.Metal>
0.0000

> <Gold.Chemscore.Hbonds>
donor molecule, donor type, donor heavy atom, donor atom, acceptor molecule, acceptor atom, score
      L1  H     2    21       P1  8028  0.63

> <Gold.PLP.Chemscore.Internal.Correction>
0.3480

> <Gold.Rescore>
     Score         DG    S(hbond)    S(metal)    S(lipo)     H(rot)  DE(clash)    DE(int)     intcor
     13.07     -13.70       1.21        0.00      65.67       1.37       0.10       0.52       ----

> <Gold.Chemscore.Fitness>
13.0708

> <Gold.Chemscore.DG>
-13.6950

> <Gold.Chemscore.ZeroCoef>
-5.4800

> <Gold.Chemscore.Hbond>
1.2098

> <Gold.Chemscore.Metal>
0.0000

> <Gold.Chemscore.Lipo>
65.6666

> <Gold.Chemscore.Internal_Hbond>
0.0000

> <Gold.Chemscore.DEClash>
0.1016

> <Gold.Chemscore.DEInternal>
0.5226

> <Gold.Chemscore.Rot>
1.3706

> <Gold.Chemscore.Internal.Correction>
   9.000000E+99

> <Gold.Chemscore.Hbonds>
donor molecule, donor type, donor heavy atom, donor atom, acceptor molecule, acceptor atom, score
      L1  H     2    21       P1  8028  0.41

> <Gold.Chemscore.Hbond.Weighted>
-4.0408

> <Gold.Chemscore.Metal.Weighted>
-0.0000

> <Gold.Chemscore.Lipo.Weighted>
-7.6830

> <Gold.Chemscore.Internal_Hbond.Weighted>
0.0000

> <Gold.Chemscore.DEClash.Weighted>
0.1016

> <Gold.Chemscore.DEInternal.Weighted>
0.5226

> <Gold.Chemscore.Rot.Weighted>
3.5087

> <Gold.Chemscore.Internal.Correction.Weighted>
   9.000000E+99

> <Gold.Protein.RotatedTorsions>
[ 6907 6896 6895 6894 ] final  -90.41 input  -60.11 | X-H torsion
[ 7974 7965 7964 7962 ] final  141.03 input  175.53 | X-H torsion
[ 8008 7997 7996 7995 ] final  -82.01 input   59.86 | X-H torsion
[ 10167 10162 10161 10158 ] final  -48.06 input  -65.29 | X-H torsion
[ 10718 10713 10712 10709 ] final -129.68 input   66.30 | X-H torsion
[ 10763 10752 10751 10750 ] final   82.60 input  -60.55 | X-H torsion
[ 11005 11000 10999 10996 ] final  175.20 input  -57.11 | X-H torsion

> <Gold.Protein.ActiveResidues>
 VAL166  LYS551  ARG553  GLY616  TRP617  ASP618  TYR619  PRO620  LYS621  CYS622 
 ASP623  PHE694  ASN695  SER759  ASP760  ASP761  ALA762  ILE779  LEU786  VAL792 
 PHE793  MET794  SER795  GLU796  ALA797  LYS798  CYS799  TRP800  GLU811  SER814 

> <Gold.Protein.RotatedAtoms>
  150.6881  134.2436  159.4481 H   0  0  0  0  0  0  0  0  0  0  0  0  # atno 6907 bound_to 6896
  152.0378  134.9727  160.0583 H   0  0  0  0  0  0  0  0  0  0  0  0  # atno 6908 bound_to 6896
  152.1240  133.4335  159.4726 H   0  0  0  0  0  0  0  0  0  0  0  0  # atno 6909 bound_to 6896
  144.9133  139.5263  143.5698 H   0  0  0  0  0  0  0  0  0  0  0  0  # atno 7974 bound_to 7965
  154.6042  140.0639  156.9409 H   0  0  0  0  0  0  0  0  0  0  0  0  # atno 8008 bound_to 7997
  155.2081  140.3320  155.4314 H   0  0  0  0  0  0  0  0  0  0  0  0  # atno 8009 bound_to 7997
  156.2337  140.1853  156.7159 H   0  0  0  0  0  0  0  0  0  0  0  0  # atno 8010 bound_to 7997
  140.6747  143.2756  151.4017 H   0  0  0  0  0  0  0  0  0  0  0  0  # atno 10167 bound_to 10162
  156.2070  130.6894  151.0606 H   0  0  0  0  0  0  0  0  0  0  0  0  # atno 10718 bound_to 10713
  153.1217  135.4722  154.9205 H   0  0  0  0  0  0  0  0  0  0  0  0  # atno 10763 bound_to 10752
  154.7581  135.3124  154.8433 H   0  0  0  0  0  0  0  0  0  0  0  0  # atno 10764 bound_to 10752
  153.8996  135.6876  153.4809 H   0  0  0  0  0  0  0  0  0  0  0  0  # atno 10765 bound_to 10752
  140.3596  134.7124  157.4322 H   0  0  0  0  0  0  0  0  0  0  0  0  # atno 11005 bound_to 11000
  146.3169  139.7957  142.8976 LP  0  0  0  0  0  0  0  0  0  0  0  0  # atno 17320 bound_to 7965
  145.3417  141.0289  143.3388 LP  0  0  0  0  0  0  0  0  0  0  0  0  # atno 17321 bound_to 7965
  139.6034  144.1248  152.2222 LP  0  0  0  0  0  0  0  0  0  0  0  0  # atno 17342 bound_to 10162
  140.0640  144.5834  150.7242 LP  0  0  0  0  0  0  0  0  0  0  0  0  # atno 17343 bound_to 10162
  157.7018  131.0773  150.6796 LP  0  0  0  0  0  0  0  0  0  0  0  0  # atno 17370 bound_to 10713
  156.6855  130.4579  149.5615 LP  0  0  0  0  0  0  0  0  0  0  0  0  # atno 17371 bound_to 10713
  140.0637  134.5960  155.8720 LP  0  0  0  0  0  0  0  0  0  0  0  0  # atno 17394 bound_to 11000
  141.1988  133.6603  156.5810 LP  0  0  0  0  0  0  0  0  0  0  0  0  # atno 17395 bound_to 11000

$$$$
