AV-unprocessed.smi:1744|AV-procd|sdf|7027|dock10
  -GOLD-   22720 8243D 1   1.00000     0.00000
 Structure written by MMmdl.
 43 44  0  0  0  0  0  0  0  0  3 V2000
  151.5124  145.2334  160.0185 C   0  0  0  0  0  0  0  0  0  0  0  0
  152.4977  144.4622  159.1318 C   0  0  0  0  0  0  0  0  0  0  0  0
  151.8413  143.4006  158.3934 N   0  0  0  0  0  0  0  0  0  0  0  0
  151.0082  143.5119  157.2981 C   0  0  0  0  0  0  0  0  0  0  0  0
  150.6553  142.2381  156.9685 C   0  0  0  0  0  0  0  0  0  0  0  0
  149.8001  141.8880  155.8942 N   0  0  0  0  0  0  0  0  0  0  0  0
  149.3600  140.6609  155.5730 C   0  0  0  0  0  0  0  0  0  0  0  0
  149.6506  139.6249  156.1708 O   0  0  0  0  0  0  0  0  0  0  0  0
  148.5599  140.6969  154.4978 N   0  0  0  0  0  0  0  0  0  0  0  0
  147.9316  139.5341  153.8775 C   0  0  2  0  0  0  0  0  0  0  0  0
  147.2898  139.9159  152.5311 C   0  0  0  0  0  0  0  0  0  0  0  0
  146.5246  138.7302  151.9211 C   0  0  0  0  0  0  0  0  0  0  0  0
  145.5002  138.2126  152.8625 N   0  3  1  0  0  0  0  0  0  0  0  0
  144.6419  137.1684  152.2474 C   0  0  0  0  0  0  0  0  0  0  0  0
  145.4962  136.1132  151.5365 C   0  0  0  0  0  0  0  0  0  0  0  0
  145.4640  136.2433  150.1947 N   0  5  0  0  0  0  0  0  0  0  0  0
  146.1056  135.2777  152.2000 O   0  0  0  0  0  0  0  0  0  0  0  0
  146.1066  137.7928  154.1543 C   0  0  0  0  0  0  0  0  0  0  0  0
  146.8583  138.9593  154.8161 C   0  0  0  0  0  0  0  0  0  0  0  0
  151.3074  141.3968  157.9139 C   0  0  0  0  0  0  0  0  0  0  0  0
  152.0214  142.1107  158.7715 N   0  0  0  0  0  0  0  0  0  0  0  0
  152.0268  146.0085  160.5869 H   0  0  0  0  0  0  0  0  0  0  0  0
  151.0207  144.5692  160.7296 H   0  0  0  0  0  0  0  0  0  0  0  0
  150.7392  145.7180  159.4217 H   0  0  0  0  0  0  0  0  0  0  0  0
  152.9804  145.1367  158.4233 H   0  0  0  0  0  0  0  0  0  0  0  0
  153.2883  144.0247  159.7423 H   0  0  0  0  0  0  0  0  0  0  0  0
  150.7498  144.4641  156.8588 H   0  0  0  0  0  0  0  0  0  0  0  0
  149.5009  142.6498  155.3034 H   0  0  0  0  0  0  0  0  0  0  0  0
  148.3784  141.5940  154.0718 H   0  0  0  0  0  0  0  0  0  0  0  0
  148.6861  138.7634  153.7075 H   0  0  0  0  0  0  0  0  0  0  0  0
  146.6044  140.7532  152.6710 H   0  0  0  0  0  0  0  0  0  0  0  0
  148.0540  140.2567  151.8314 H   0  0  0  0  0  0  0  0  0  0  0  0
  146.0450  139.0535  150.9966 H   0  0  0  0  0  0  0  0  0  0  0  0
  147.2165  137.9288  151.6577 H   0  0  0  0  0  0  0  0  0  0  0  0
  144.0492  136.6627  153.0119 H   0  0  0  0  0  0  0  0  0  0  0  0
  143.9322  137.6207  151.5529 H   0  0  0  0  0  0  0  0  0  0  0  0
  144.8913  136.9871  149.7785 H   0  0  0  0  0  0  0  0  0  0  0  0
  145.3346  137.4364  154.8369 H   0  0  0  0  0  0  0  0  0  0  0  0
  146.7861  136.9562  153.9841 H   0  0  0  0  0  0  0  0  0  0  0  0
  147.3169  138.6213  155.7463 H   0  0  0  0  0  0  0  0  0  0  0  0
  146.1446  139.7385  155.0882 H   0  0  0  0  0  0  0  0  0  0  0  0
  151.2923  140.3218  158.0146 H   0  0  0  0  0  0  0  0  0  0  0  0
  144.8792  138.9838  153.0646 H   0  0  0  0  0  0  0  0  0  0  0  0
  1  2  1  0  0  0  0
  1 22  1  0  0  0  0
  1 23  1  0  0  0  0
  1 24  1  0  0  0  0
  2  3  1  0  0  0  0
  2 25  1  0  0  0  0
  2 26  1  0  0  0  0
  3 21  1  0  0  0  0
  3  4  1  0  0  0  0
  4  5  2  0  0  0  0
  4 27  1  0  0  0  0
  5  6  1  0  0  0  0
  5 20  1  0  0  0  0
  6  7  1  0  0  0  0
  6 28  1  0  0  0  0
  7  8  2  0  0  0  0
  7  9  1  0  0  0  0
  9 10  1  0  0  0  0
  9 29  1  0  0  0  0
 10 19  1  0  0  0  0
 10 11  1  0  0  0  0
 10 30  1  0  0  0  0
 11 12  1  0  0  0  0
 11 31  1  0  0  0  0
 11 32  1  0  0  0  0
 12 13  1  0  0  0  0
 12 33  1  0  0  0  0
 12 34  1  0  0  0  0
 13 14  1  0  0  0  0
 13 18  1  0  0  0  0
 13 43  1  0  0  0  0
 14 15  1  0  0  0  0
 14 35  1  0  0  0  0
 14 36  1  0  0  0  0
 15 16  1  0  0  0  0
 15 17  2  0  0  0  0
 16 37  1  0  0  0  0
 18 19  1  0  0  0  0
 18 38  1  0  0  0  0
 18 39  1  0  0  0  0
 19 40  1  0  0  0  0
 19 41  1  0  0  0  0
 20 21  2  0  0  0  0
 20 42  1  0  0  0  0
M  CHG  1  13   1
M  CHG  1  16  -1
M  END
> <s_m_source_file>
AV-unprocessed.smi

> <i_m_source_file_index>
1744

> <i_lp_mmshare_version>
43012

> <i_f3d_flags>
0

> <s_epik_input>
W0NIM11bQ0gyXW4xW2NIXWMoW2NIXW4xKVtOSF1DKD1PKVtOSF1bQ0hdMltDSDJdW0NIMl1OKFtDSDJdW0NIMl0yKVtDSDJdQyg9TylbTkgyXQ==

> <s_epik_cmdline>
J2VwaWtfcHl0aG9uJywgJy1waCcsICc3LjAnLCAnLXRuJywgJzgnLCAnLW1hJywgJzIwMCcsICctbWV0YWxfYmluZGluZycsICctaW1hZScsICc8aW5maWxlLm1hZT4nLCAnLW9tYWUnLCAnPG91dGZpbGUubWFlPic=

> <r_lp_tautomer_probability>
1

> <r_epik_Ionization_Penalty>
5.72895

> <r_epik_Ionization_Penalty_Charging>
5.7288

> <r_epik_Ionization_Penalty_Neutral>
0.000148676

> <r_epik_State_Penalty>
6.54882

> <r_epik_Charging_Adjusted_Penalty>
12.2776

> <i_epik_Tot_Q>
0

> <i_epik_Tot_abs_Q>
2

> <r_epik_Metal_State_Penalty>
2.51309

> <b_epik_Metal_Only>
1

> <s_lp_Force_Field>
OPLS_2005

> <r_lp_Energy>
12.1226

> <b_lp_Chiralities_Consistent>
1

> <s_lp_Variant>
AV-unprocessed.smi:1744-4

> <Gold.Version>
5.8.1

> <Gold.Id.Protein>
6NUR|6NUR_protein|mol2

> <Gold.PLP.Fitness>
46.6531

> <Gold.PLP.PLP>
-35.2402

> <Gold.PLP.part.hbond>
-3.9131

> <Gold.PLP.part.metal>
0.0000

> <Gold.PLP.part.buried>
1.0489

> <Gold.PLP.part.nonpolar>
-34.4325

> <Gold.PLP.part.repulsive>
0.8275

> <Gold.PLP.ligand.clash>
0.0000

> <Gold.PLP.ligand.torsion>
0.5713

> <Gold.PLP.Chemscore.Hbond>
3.3536

> <Gold.PLP.Chemscore.CHOScore>
0.8179

> <Gold.PLP.Chemscore.Metal>
0.0000

> <Gold.Chemscore.Hbonds>
donor molecule, donor type, donor heavy atom, donor atom, acceptor molecule, acceptor atom, score
      L1  H     6    28       P1  8028  0.43
      L1  H    13    43       P1 10175  2.00
      L1  H    16    37       P1 10171  1.00
      L1  C     4    27       P1  8028  0.86

> <Gold.PLP.Chemscore.Internal.Correction>
0.0412

> <Gold.Rescore>
     Score         DG    S(hbond)    S(metal)    S(lipo)     H(rot)  DE(clash)    DE(int)     intcor
     14.21     -17.05       2.31        0.00      80.73       2.18       1.07       1.77       ----

> <Gold.Chemscore.Fitness>
14.2070

> <Gold.Chemscore.DG>
-17.0461

> <Gold.Chemscore.ZeroCoef>
-5.4800

> <Gold.Chemscore.Hbond>
2.3082

> <Gold.Chemscore.Metal>
0.0000

> <Gold.Chemscore.Lipo>
80.7326

> <Gold.Chemscore.Internal_Hbond>
0.0000

> <Gold.Chemscore.DEClash>
1.0717

> <Gold.Chemscore.DEInternal>
1.7674

> <Gold.Chemscore.Rot>
2.1833

> <Gold.Chemscore.Internal.Correction>
   9.000000E+99

> <Gold.Chemscore.Hbonds>
donor molecule, donor type, donor heavy atom, donor atom, acceptor molecule, acceptor atom, score
      L1  H     6    28       P1  8028  0.44
      L1  H    13    43       P1 10175  0.92
      L1  H    16    37       P1 10171  0.98

> <Gold.Chemscore.Hbond.Weighted>
-7.7095

> <Gold.Chemscore.Metal.Weighted>
-0.0000

> <Gold.Chemscore.Lipo.Weighted>
-9.4457

> <Gold.Chemscore.Internal_Hbond.Weighted>
0.0000

> <Gold.Chemscore.DEClash.Weighted>
1.0717

> <Gold.Chemscore.DEInternal.Weighted>
1.7674

> <Gold.Chemscore.Rot.Weighted>
5.5892

> <Gold.Chemscore.Internal.Correction.Weighted>
   9.000000E+99

> <Gold.Protein.RotatedTorsions>
[ 6907 6896 6895 6894 ] final  -56.36 input  -60.11 | X-H torsion
[ 7974 7965 7964 7962 ] final  -16.34 input  175.53 | X-H torsion
[ 8008 7997 7996 7995 ] final  -81.06 input   59.86 | X-H torsion
[ 10167 10162 10161 10158 ] final  -27.08 input  -65.29 | X-H torsion
[ 10718 10713 10712 10709 ] final  -25.98 input   66.30 | X-H torsion
[ 10763 10752 10751 10750 ] final  -79.66 input  -60.55 | X-H torsion
[ 11005 11000 10999 10996 ] final -139.07 input  -57.11 | X-H torsion

> <Gold.Protein.ActiveResidues>
 VAL166  LYS551  ARG553  GLY616  TRP617  ASP618  TYR619  PRO620  LYS621  CYS622 
 ASP623  PHE694  ASN695  SER759  ASP760  ASP761  ALA762  ILE779  LEU786  VAL792 
 PHE793  MET794  SER795  GLU796  ALA797  LYS798  CYS799  TRP800  GLU811  SER814 

> <Gold.Protein.RotatedAtoms>
  150.8174  134.7363  159.6741 H   0  0  0  0  0  0  0  0  0  0  0  0  # atno 6907 bound_to 6896
  152.4292  134.5807  159.9957 H   0  0  0  0  0  0  0  0  0  0  0  0  # atno 6908 bound_to 6896
  151.6000  133.3320  159.3081 H   0  0  0  0  0  0  0  0  0  0  0  0  # atno 6909 bound_to 6896
  146.1992  140.3622  142.8429 H   0  0  0  0  0  0  0  0  0  0  0  0  # atno 7974 bound_to 7965
  154.5946  140.0653  156.9285 H   0  0  0  0  0  0  0  0  0  0  0  0  # atno 8008 bound_to 7997
  155.2237  140.3332  155.4294 H   0  0  0  0  0  0  0  0  0  0  0  0  # atno 8009 bound_to 7997
  156.2278  140.1827  156.7303 H   0  0  0  0  0  0  0  0  0  0  0  0  # atno 8010 bound_to 7997
  140.7279  143.4124  151.1084 H   0  0  0  0  0  0  0  0  0  0  0  0  # atno 10167 bound_to 10162
  156.4572  130.4496  149.6952 H   0  0  0  0  0  0  0  0  0  0  0  0  # atno 10718 bound_to 10713
  154.5415  135.5688  153.6843 H   0  0  0  0  0  0  0  0  0  0  0  0  # atno 10763 bound_to 10752
  152.9964  135.6229  154.2496 H   0  0  0  0  0  0  0  0  0  0  0  0  # atno 10764 bound_to 10752
  154.2427  135.2862  155.2827 H   0  0  0  0  0  0  0  0  0  0  0  0  # atno 10765 bound_to 10752
  140.8555  134.2233  157.4737 H   0  0  0  0  0  0  0  0  0  0  0  0  # atno 11005 bound_to 11000
  144.8646  140.7187  143.6086 LP  0  0  0  0  0  0  0  0  0  0  0  0  # atno 17320 bound_to 7965
  145.3542  139.1698  143.4418 LP  0  0  0  0  0  0  0  0  0  0  0  0  # atno 17321 bound_to 7965
  139.7759  143.8426  152.3129 LP  0  0  0  0  0  0  0  0  0  0  0  0  # atno 17342 bound_to 10162
  139.8361  144.7232  150.9390 LP  0  0  0  0  0  0  0  0  0  0  0  0  # atno 17343 bound_to 10162
  156.3754  130.7552  151.2539 LP  0  0  0  0  0  0  0  0  0  0  0  0  # atno 17370 bound_to 10713
  157.7500  131.0311  150.4166 LP  0  0  0  0  0  0  0  0  0  0  0  0  # atno 17371 bound_to 10713
  139.8705  134.9704  156.4700 LP  0  0  0  0  0  0  0  0  0  0  0  0  # atno 17394 bound_to 11000
  140.8742  133.7966  155.9397 LP  0  0  0  0  0  0  0  0  0  0  0  0  # atno 17395 bound_to 11000

$$$$
