AV-unprocessed.smi:3120|AV-procd|sdf|11893|dock4
  -GOLD-   2272017283D 1   1.00000     0.00000
 Structure written by MMmdl.
 22 23  0  0  0  0  0  0  0  0  1 V2000
  153.6690  139.8490  158.4856 O   0  0  0  0  0  0  0  0  0  0  0  0
  153.8798  140.2384  159.6327 C   0  0  0  0  0  0  0  0  0  0  0  0
  154.0583  139.4559  160.6960 N   0  0  0  0  0  0  0  0  0  0  0  0
  154.3005  140.1921  161.9216 C   0  0  0  0  0  0  0  0  0  0  0  0
  153.9971  141.6556  161.5647 C   0  0  0  0  0  0  0  0  0  0  0  0
  153.9712  141.7087  160.0267 C   0  0  2  0  0  0  0  0  0  0  0  0
  152.8371  142.5454  159.4438 C   0  0  0  0  0  0  0  0  0  0  0  0
  152.7637  143.9425  159.6433 C   0  0  0  0  0  0  0  0  0  0  0  0
  151.6917  144.6574  159.0760 C   0  0  0  0  0  0  0  0  0  0  0  0
  150.7323  143.9456  158.3294 C   0  0  0  0  0  0  0  0  0  0  0  0
  150.7889  142.6113  158.1309 N   0  0  0  0  0  0  0  0  0  0  0  0
  151.8200  141.9334  158.6794 C   0  0  0  0  0  0  0  0  0  0  0  0
  154.0382  138.4467  160.6637 H   0  0  0  0  0  0  0  0  0  0  0  0
  153.6675  139.8284  162.7315 H   0  0  0  0  0  0  0  0  0  0  0  0
  155.3432  140.0665  162.2156 H   0  0  0  0  0  0  0  0  0  0  0  0
  153.0274  141.9300  161.9821 H   0  0  0  0  0  0  0  0  0  0  0  0
  154.7320  142.3423  161.9855 H   0  0  0  0  0  0  0  0  0  0  0  0
  154.9292  142.0801  159.6599 H   0  0  0  0  0  0  0  0  0  0  0  0
  153.5151  144.4602  160.2213 H   0  0  0  0  0  0  0  0  0  0  0  0
  151.6066  145.7256  159.2101 H   0  0  0  0  0  0  0  0  0  0  0  0
  149.8975  144.4617  157.8789 H   0  0  0  0  0  0  0  0  0  0  0  0
  151.8328  140.8683  158.4998 H   0  0  0  0  0  0  0  0  0  0  0  0
  1  2  2  0  0  0  0
  2  6  1  0  0  0  0
  2  3  1  0  0  0  0
  3  4  1  0  0  0  0
  3 13  1  0  0  0  0
  4  5  1  0  0  0  0
  4 14  1  0  0  0  0
  4 15  1  0  0  0  0
  5  6  1  0  0  0  0
  5 16  1  0  0  0  0
  5 17  1  0  0  0  0
  6  7  1  0  0  0  0
  6 18  1  0  0  0  0
  7 12  1  0  0  0  0
  7  8  2  0  0  0  0
  8  9  1  0  0  0  0
  8 19  1  0  0  0  0
  9 10  2  0  0  0  0
  9 20  1  0  0  0  0
 10 11  1  0  0  0  0
 10 21  1  0  0  0  0
 11 12  2  0  0  0  0
 12 22  1  0  0  0  0
M  END
> <s_m_source_file>
AV-unprocessed.smi

> <i_m_source_file_index>
3120

> <i_lp_mmshare_version>
43012

> <i_f3d_flags>
0

> <s_epik_input>
Tz1DMVtOSF1bQ0gyXVtDSDJdW0NASF0xYzJbY0hdW2NIXVtjSF1uW2NIXTI=

> <s_epik_cmdline>
J2VwaWtfcHl0aG9uJywgJy1waCcsICc3LjAnLCAnLXRuJywgJzgnLCAnLW1hJywgJzIwMCcsICctbWV0YWxfYmluZGluZycsICctaW1hZScsICc8aW5maWxlLm1hZT4nLCAnLW9tYWUnLCAnPG91dGZpbGUubWFlPic=

> <r_epik_Ionization_Penalty>
0.00558523

> <r_epik_Ionization_Penalty_Charging>
0

> <r_epik_Ionization_Penalty_Neutral>
0.00558523

> <r_epik_State_Penalty>
0.00409114

> <r_epik_Charging_Adjusted_Penalty>
0.00409114

> <i_epik_Tot_Q>
0

> <i_epik_Tot_abs_Q>
0

> <r_epik_Metal_State_Penalty>
-0

> <b_epik_Metal_Only>
0

> <s_lp_Force_Field>
OPLS_2005

> <r_lp_Energy>
14.9187

> <b_lp_Chiralities_Consistent>
1

> <s_lp_Variant>
AV-unprocessed.smi:3120-2

> <Gold.Version>
5.8.1

> <Gold.Id.Protein>
6NUR|6NUR_protein|mol2

> <Gold.PLP.Fitness>
34.3696

> <Gold.PLP.PLP>
-27.9718

> <Gold.PLP.part.hbond>
-1.0000

> <Gold.PLP.part.metal>
0.0000

> <Gold.PLP.part.buried>
-1.5639

> <Gold.PLP.part.nonpolar>
-24.8594

> <Gold.PLP.part.repulsive>
0.1264

> <Gold.PLP.ligand.clash>
0.0000

> <Gold.PLP.ligand.torsion>
0.0336

> <Gold.PLP.Chemscore.Hbond>
1.0000

> <Gold.PLP.Chemscore.CHOScore>
1.1525

> <Gold.PLP.Chemscore.Metal>
0.0000

> <Gold.Chemscore.Hbonds>
donor molecule, donor type, donor heavy atom, donor atom, acceptor molecule, acceptor atom, score
      P1  H  7997  8010       L1     1  1.00
      L1  C    10    21       P1  8028  0.73
      L1  C    10    21       P1  8029  0.40

> <Gold.PLP.Chemscore.Internal.Correction>
0.0075

> <Gold.Rescore>
     Score         DG    S(hbond)    S(metal)    S(lipo)     H(rot)  DE(clash)    DE(int)     intcor
     15.32     -16.76       1.00        0.00      89.83       1.00       0.01       1.42       ----

> <Gold.Chemscore.Fitness>
15.3204

> <Gold.Chemscore.DG>
-16.7562

> <Gold.Chemscore.ZeroCoef>
-5.4800

> <Gold.Chemscore.Hbond>
0.9958

> <Gold.Chemscore.Metal>
0.0000

> <Gold.Chemscore.Lipo>
89.8310

> <Gold.Chemscore.Internal_Hbond>
0.0000

> <Gold.Chemscore.DEClash>
0.0111

> <Gold.Chemscore.DEInternal>
1.4247

> <Gold.Chemscore.Rot>
1.0000

> <Gold.Chemscore.Internal.Correction>
   9.000000E+99

> <Gold.Chemscore.Hbonds>
donor molecule, donor type, donor heavy atom, donor atom, acceptor molecule, acceptor atom, score
      P1  H  7997  8010       L1     1  0.98

> <Gold.Chemscore.Hbond.Weighted>
-3.3259

> <Gold.Chemscore.Metal.Weighted>
-0.0000

> <Gold.Chemscore.Lipo.Weighted>
-10.5102

> <Gold.Chemscore.Internal_Hbond.Weighted>
0.0000

> <Gold.Chemscore.DEClash.Weighted>
0.0111

> <Gold.Chemscore.DEInternal.Weighted>
1.4247

> <Gold.Chemscore.Rot.Weighted>
2.5600

> <Gold.Chemscore.Internal.Correction.Weighted>
   9.000000E+99

> <Gold.Protein.RotatedTorsions>
[ 6907 6896 6895 6894 ] final  -54.58 input  -60.11 | X-H torsion
[ 7974 7965 7964 7962 ] final   81.62 input  175.53 | X-H torsion
[ 8008 7997 7996 7995 ] final   18.18 input   59.86 | X-H torsion
[ 10167 10162 10161 10158 ] final  136.12 input  -65.29 | X-H torsion
[ 10718 10713 10712 10709 ] final  134.44 input   66.30 | X-H torsion
[ 10763 10752 10751 10750 ] final   88.73 input  -60.55 | X-H torsion
[ 11005 11000 10999 10996 ] final -114.57 input  -57.11 | X-H torsion

> <Gold.Protein.ActiveResidues>
 VAL166  LYS551  ARG553  GLY616  TRP617  ASP618  TYR619  PRO620  LYS621  CYS622 
 ASP623  PHE694  ASN695  SER759  ASP760  ASP761  ALA762  ILE779  LEU786  VAL792 
 PHE793  MET794  SER795  GLU796  ALA797  LYS798  CYS799  TRP800  GLU811  SER814 

> <Gold.Protein.RotatedAtoms>
  150.8326  134.7585  159.6865 H   0  0  0  0  0  0  0  0  0  0  0  0  # atno 6907 bound_to 6896
  152.4428  134.5553  159.9888 H   0  0  0  0  0  0  0  0  0  0  0  0  # atno 6908 bound_to 6896
  151.5710  133.3352  159.3025 H   0  0  0  0  0  0  0  0  0  0  0  0  # atno 6909 bound_to 6896
  145.6358  139.2414  143.2059 H   0  0  0  0  0  0  0  0  0  0  0  0  # atno 7974 bound_to 7965
  154.9022  140.3002  155.5311 H   0  0  0  0  0  0  0  0  0  0  0  0  # atno 8008 bound_to 7997
  156.3018  140.2404  156.3986 H   0  0  0  0  0  0  0  0  0  0  0  0  # atno 8009 bound_to 7997
  154.8510  140.0409  157.1593 H   0  0  0  0  0  0  0  0  0  0  0  0  # atno 8010 bound_to 7997
  139.5191  144.6481  151.5381 H   0  0  0  0  0  0  0  0  0  0  0  0  # atno 10167 bound_to 10162
  157.4673  131.1077  150.9847 H   0  0  0  0  0  0  0  0  0  0  0  0  # atno 10718 bound_to 10713
  153.1798  135.4496  155.0013 H   0  0  0  0  0  0  0  0  0  0  0  0  # atno 10763 bound_to 10752
  154.8022  135.3260  154.7523 H   0  0  0  0  0  0  0  0  0  0  0  0  # atno 10764 bound_to 10752
  153.7989  135.6964  153.4914 H   0  0  0  0  0  0  0  0  0  0  0  0  # atno 10765 bound_to 10752
  141.0543  133.9637  157.2781 H   0  0  0  0  0  0  0  0  0  0  0  0  # atno 11005 bound_to 11000
  146.1320  140.7172  142.9407 LP  0  0  0  0  0  0  0  0  0  0  0  0  # atno 17320 bound_to 7965
  144.7176  140.4264  143.7032 LP  0  0  0  0  0  0  0  0  0  0  0  0  # atno 17321 bound_to 7965
  140.6274  143.9141  150.6576 LP  0  0  0  0  0  0  0  0  0  0  0  0  # atno 17342 bound_to 10162
  140.2435  143.3646  152.1467 LP  0  0  0  0  0  0  0  0  0  0  0  0  # atno 17343 bound_to 10162
  157.0624  130.5831  149.5388 LP  0  0  0  0  0  0  0  0  0  0  0  0  # atno 17370 bound_to 10713
  156.0056  130.5142  150.7818 LP  0  0  0  0  0  0  0  0  0  0  0  0  # atno 17371 bound_to 10713
  139.9377  135.0195  156.8608 LP  0  0  0  0  0  0  0  0  0  0  0  0  # atno 17394 bound_to 11000
  140.5994  134.0186  155.7531 LP  0  0  0  0  0  0  0  0  0  0  0  0  # atno 17395 bound_to 11000

$$$$
