AV-unprocessed.smi:733|AV-procd|sdf|3529|dock3
  -GOLD-   22720 0523D 1   1.00000     0.00000
 Structure written by MMmdl.
 43 44  0  0  0  0  0  0  0  0  1 V2000
  153.8167  141.2572  160.0403 C   0  0  0  0  0  0  0  0  0  0  0  0
  152.6598  142.1145  159.6276 C   0  0  0  0  0  0  0  0  0  0  0  0
  152.0033  141.8549  158.4209 N   0  0  0  0  0  0  0  0  0  0  0  0
  150.9960  142.7054  158.1993 C   0  0  0  0  0  0  0  0  0  0  0  0
  150.1572  142.6742  157.0546 N   0  0  0  0  0  0  0  0  0  0  0  0
  150.0447  141.7023  156.1326 C   0  0  0  0  0  0  0  0  0  0  0  0
  150.6849  140.6505  156.1267 O   0  0  0  0  0  0  0  0  0  0  0  0
  149.1304  142.0214  155.2051 N   0  0  0  0  0  0  0  0  0  0  0  0
  148.7354  141.1902  154.0684 C   0  0  0  0  0  0  0  0  0  0  0  0
  147.2102  141.2512  153.7735 C   0  0  0  0  0  0  0  0  0  0  0  0
  146.8527  140.6075  152.4002 C   0  0  0  0  0  0  0  0  0  0  0  0
  146.6433  139.0783  152.3697 C   0  0  0  0  0  0  0  0  0  0  0  0
  146.4378  138.5974  151.0587 O   0  0  0  0  0  0  0  0  0  0  0  0
  146.4322  140.5811  154.9326 C   0  0  0  0  0  0  0  0  0  0  0  0
  146.0104  141.7052  155.8734 C   0  0  0  0  0  0  0  0  0  0  0  0
  145.6712  142.8409  154.9197 C   0  0  0  0  0  0  0  0  0  0  0  0
  146.7156  142.7264  153.8064 C   0  0  0  0  0  0  0  0  0  0  0  0
  150.7858  143.8948  159.4727 S   0  0  0  0  0  0  0  0  0  0  0  0
  152.1346  143.1805  160.3212 C   0  0  0  0  0  0  0  0  0  0  0  0
  152.5907  143.7264  161.6334 C   0  0  0  0  0  0  0  0  0  0  0  0
  154.7399  141.8356  160.0752 H   0  0  0  0  0  0  0  0  0  0  0  0
  153.9732  140.4288  159.3484 H   0  0  0  0  0  0  0  0  0  0  0  0
  153.6555  140.8307  161.0304 H   0  0  0  0  0  0  0  0  0  0  0  0
  149.5679  143.4836  156.9276 H   0  0  0  0  0  0  0  0  0  0  0  0
  148.6585  142.9090  155.2963 H   0  0  0  0  0  0  0  0  0  0  0  0
  149.3012  141.5335  153.2024 H   0  0  0  0  0  0  0  0  0  0  0  0
  149.0462  140.1542  154.2148 H   0  0  0  0  0  0  0  0  0  0  0  0
  145.9666  141.0936  151.9891 H   0  0  0  0  0  0  0  0  0  0  0  0
  147.6502  140.8384  151.6929 H   0  0  0  0  0  0  0  0  0  0  0  0
  147.5333  138.5869  152.7637 H   0  0  0  0  0  0  0  0  0  0  0  0
  145.8165  138.7691  153.0078 H   0  0  0  0  0  0  0  0  0  0  0  0
  145.6041  138.9158  150.7478 H   0  0  0  0  0  0  0  0  0  0  0  0
  145.5274  140.1022  154.5560 H   0  0  0  0  0  0  0  0  0  0  0  0
  147.0075  139.8097  155.4460 H   0  0  0  0  0  0  0  0  0  0  0  0
  145.1717  141.4277  156.5125 H   0  0  0  0  0  0  0  0  0  0  0  0
  146.8449  141.9911  156.5150 H   0  0  0  0  0  0  0  0  0  0  0  0
  144.6736  142.6873  154.5059 H   0  0  0  0  0  0  0  0  0  0  0  0
  145.6830  143.8164  155.4070 H   0  0  0  0  0  0  0  0  0  0  0  0
  147.5337  143.4097  154.0333 H   0  0  0  0  0  0  0  0  0  0  0  0
  146.3008  143.0565  152.8533 H   0  0  0  0  0  0  0  0  0  0  0  0
  152.4448  142.9942  162.4280 H   0  0  0  0  0  0  0  0  0  0  0  0
  152.0382  144.6274  161.9009 H   0  0  0  0  0  0  0  0  0  0  0  0
  153.6501  143.9810  161.5989 H   0  0  0  0  0  0  0  0  0  0  0  0
  1  2  1  0  0  0  0
  1 21  1  0  0  0  0
  1 22  1  0  0  0  0
  1 23  1  0  0  0  0
  2 19  2  0  0  0  0
  2  3  1  0  0  0  0
  3  4  2  0  0  0  0
  4  5  1  0  0  0  0
  4 18  1  0  0  0  0
  5  6  1  0  0  0  0
  5 24  1  0  0  0  0
  6  7  2  0  0  0  0
  6  8  1  0  0  0  0
  8  9  1  0  0  0  0
  8 25  1  0  0  0  0
  9 10  1  0  0  0  0
  9 26  1  0  0  0  0
  9 27  1  0  0  0  0
 10 17  1  0  0  0  0
 10 11  1  0  0  0  0
 10 14  1  0  0  0  0
 11 12  1  0  0  0  0
 11 28  1  0  0  0  0
 11 29  1  0  0  0  0
 12 13  1  0  0  0  0
 12 30  1  0  0  0  0
 12 31  1  0  0  0  0
 13 32  1  0  0  0  0
 14 15  1  0  0  0  0
 14 33  1  0  0  0  0
 14 34  1  0  0  0  0
 15 16  1  0  0  0  0
 15 35  1  0  0  0  0
 15 36  1  0  0  0  0
 16 17  1  0  0  0  0
 16 37  1  0  0  0  0
 16 38  1  0  0  0  0
 17 39  1  0  0  0  0
 17 40  1  0  0  0  0
 18 19  1  0  0  0  0
 19 20  1  0  0  0  0
 20 41  1  0  0  0  0
 20 42  1  0  0  0  0
 20 43  1  0  0  0  0
M  END
> <s_m_source_file>
AV-unprocessed.smi

> <i_m_source_file_index>
733

> <i_lp_mmshare_version>
43012

> <i_f3d_flags>
0

> <s_epik_input>
W0NIM11jMW5jKHNjMVtDSDNdKVtOSF1DKD1PKVtOSF1bQ0gyXUMyKFtDSDJdW0NIMl1bT0hdKVtDSDJdW0NIMl1bQ0gyXVtDSDJdMg==

> <s_epik_cmdline>
J2VwaWtfcHl0aG9uJywgJy1waCcsICc3LjAnLCAnLXRuJywgJzgnLCAnLW1hJywgJzIwMCcsICctbWV0YWxfYmluZGluZycsICctaW1hZScsICc8aW5maWxlLm1hZT4nLCAnLW9tYWUnLCAnPG91dGZpbGUubWFlPic=

> <r_lp_tautomer_probability>
0.999

> <r_epik_Ionization_Penalty>
0.000695797

> <r_epik_Ionization_Penalty_Charging>
0

> <r_epik_Ionization_Penalty_Neutral>
0.000695797

> <r_epik_State_Penalty>
0.000177984

> <r_epik_Charging_Adjusted_Penalty>
0.000177984

> <i_epik_Tot_Q>
0

> <i_epik_Tot_abs_Q>
0

> <r_epik_Metal_State_Penalty>
-0

> <b_epik_Metal_Only>
0

> <s_lp_Force_Field>
OPLS_2005

> <r_lp_Energy>
29.226

> <b_lp_Chiralities_Consistent>
1

> <s_lp_Variant>
AV-unprocessed.smi:733-1

> <Gold.Version>
5.8.1

> <Gold.Id.Protein>
6NUR|6NUR_protein|mol2

> <Gold.PLP.Fitness>
55.0982

> <Gold.PLP.PLP>
-45.2445

> <Gold.PLP.part.hbond>
-4.2362

> <Gold.PLP.part.metal>
0.0000

> <Gold.PLP.part.buried>
-4.9667

> <Gold.PLP.part.nonpolar>
-35.1687

> <Gold.PLP.part.repulsive>
0.2182

> <Gold.PLP.ligand.clash>
0.0000

> <Gold.PLP.ligand.torsion>
0.7022

> <Gold.PLP.Chemscore.Hbond>
3.7318

> <Gold.PLP.Chemscore.CHOScore>
0.0000

> <Gold.PLP.Chemscore.Metal>
0.0000

> <Gold.Chemscore.Hbonds>
donor molecule, donor type, donor heavy atom, donor atom, acceptor molecule, acceptor atom, score
      L1  H     5    24       P1  8028  0.91
      L1  H     8    25       P1  8028  0.91
      L1  H    13    32       P1 10171  1.00
      P1  H  7954  7966       L1    13  0.56

> <Gold.PLP.Chemscore.Internal.Correction>
0.0628

> <Gold.Rescore>
     Score         DG    S(hbond)    S(metal)    S(lipo)     H(rot)  DE(clash)    DE(int)     intcor
     19.58     -22.92       3.37        0.00     103.07       2.30       1.37       1.97       ----

> <Gold.Chemscore.Fitness>
19.5757

> <Gold.Chemscore.DG>
-22.9166

> <Gold.Chemscore.ZeroCoef>
-5.4800

> <Gold.Chemscore.Hbond>
3.3720

> <Gold.Chemscore.Metal>
0.0000

> <Gold.Chemscore.Lipo>
103.0743

> <Gold.Chemscore.Internal_Hbond>
0.0000

> <Gold.Chemscore.DEClash>
1.3709

> <Gold.Chemscore.DEInternal>
1.9701

> <Gold.Chemscore.Rot>
2.2990

> <Gold.Chemscore.Internal.Correction>
   9.000000E+99

> <Gold.Chemscore.Hbonds>
donor molecule, donor type, donor heavy atom, donor atom, acceptor molecule, acceptor atom, score
      L1  H     5    24       P1  8028  0.87
      L1  H     8    25       P1  8028  0.90
      L1  H    13    32       P1 10171  0.93
      P1  H  7954  7966       L1    13  0.51

> <Gold.Chemscore.Hbond.Weighted>
-11.2624

> <Gold.Chemscore.Metal.Weighted>
-0.0000

> <Gold.Chemscore.Lipo.Weighted>
-12.0597

> <Gold.Chemscore.Internal_Hbond.Weighted>
0.0000

> <Gold.Chemscore.DEClash.Weighted>
1.3709

> <Gold.Chemscore.DEInternal.Weighted>
1.9701

> <Gold.Chemscore.Rot.Weighted>
5.8854

> <Gold.Chemscore.Internal.Correction.Weighted>
   9.000000E+99

> <Gold.Protein.RotatedTorsions>
[ 6907 6896 6895 6894 ] final    1.51 input  -60.11 | X-H torsion
[ 7974 7965 7964 7962 ] final  -15.04 input  175.53 | X-H torsion
[ 8008 7997 7996 7995 ] final  -80.97 input   59.86 | X-H torsion
[ 10167 10162 10161 10158 ] final   -3.27 input  -65.29 | X-H torsion
[ 10718 10713 10712 10709 ] final   71.67 input   66.30 | X-H torsion
[ 10763 10752 10751 10750 ] final   36.55 input  -60.55 | X-H torsion
[ 11005 11000 10999 10996 ] final  159.15 input  -57.11 | X-H torsion

> <Gold.Protein.ActiveResidues>
 VAL166  LYS551  ARG553  GLY616  TRP617  ASP618  TYR619  PRO620  LYS621  CYS622 
 ASP623  PHE694  ASN695  SER759  ASP760  ASP761  ALA762  ILE779  LEU786  VAL792 
 PHE793  MET794  SER795  GLU796  ALA797  LYS798  CYS799  TRP800  GLU811  SER814 

> <Gold.Protein.RotatedAtoms>
  151.5937  135.1052  160.0044 H   0  0  0  0  0  0  0  0  0  0  0  0  # atno 6907 bound_to 6896
  152.4293  133.7245  159.6563 H   0  0  0  0  0  0  0  0  0  0  0  0  # atno 6908 bound_to 6896
  150.8184  133.8225  159.3172 H   0  0  0  0  0  0  0  0  0  0  0  0  # atno 6909 bound_to 6896
  146.2049  140.3435  142.8410 H   0  0  0  0  0  0  0  0  0  0  0  0  # atno 7974 bound_to 7965
  154.5936  140.0655  156.9273 H   0  0  0  0  0  0  0  0  0  0  0  0  # atno 8008 bound_to 7997
  155.2253  140.3333  155.4292 H   0  0  0  0  0  0  0  0  0  0  0  0  # atno 8009 bound_to 7997
  156.2272  140.1824  156.7317 H   0  0  0  0  0  0  0  0  0  0  0  0  # atno 8010 bound_to 7997
  140.6884  143.6559  150.8309 H   0  0  0  0  0  0  0  0  0  0  0  0  # atno 10167 bound_to 10162
  157.6463  130.9540  150.0822 H   0  0  0  0  0  0  0  0  0  0  0  0  # atno 10718 bound_to 10713
  153.0072  135.6302  154.2003 H   0  0  0  0  0  0  0  0  0  0  0  0  # atno 10763 bound_to 10752
  154.1747  135.2816  155.3072 H   0  0  0  0  0  0  0  0  0  0  0  0  # atno 10764 bound_to 10752
  154.5881  135.5626  153.7311 H   0  0  0  0  0  0  0  0  0  0  0  0  # atno 10765 bound_to 10752
  140.1933  134.8391  157.2937 H   0  0  0  0  0  0  0  0  0  0  0  0  # atno 11005 bound_to 11000
  144.8768  140.7347  143.6012 LP  0  0  0  0  0  0  0  0  0  0  0  0  # atno 17320 bound_to 7965
  145.3355  139.1747  143.4514 LP  0  0  0  0  0  0  0  0  0  0  0  0  # atno 17321 bound_to 7965
  140.0269  143.5484  152.2777 LP  0  0  0  0  0  0  0  0  0  0  0  0  # atno 17342 bound_to 10162
  139.6262  144.7637  151.2633 LP  0  0  0  0  0  0  0  0  0  0  0  0  # atno 17343 bound_to 10162
  156.1795  130.3649  149.9055 LP  0  0  0  0  0  0  0  0  0  0  0  0  # atno 17370 bound_to 10713
  156.7010  130.8933  151.3599 LP  0  0  0  0  0  0  0  0  0  0  0  0  # atno 17371 bound_to 10713
  140.2135  134.4110  155.7601 LP  0  0  0  0  0  0  0  0  0  0  0  0  # atno 17394 bound_to 11000
  141.2226  133.7130  156.8376 LP  0  0  0  0  0  0  0  0  0  0  0  0  # atno 17395 bound_to 11000

$$$$
