AV-unprocessed.smi:1827|AV-procd|sdf|7423|dock3
  -GOLD-   22720 9103D 1   1.00000     0.00000
 Structure written by MMmdl.
 43 44  0  0  0  0  0  0  0  0  3 V2000
  151.4586  137.9981  154.4043 C   0  0  0  0  0  0  0  0  0  0  0  0
  150.4411  139.1051  154.4179 C   0  0  0  0  0  0  0  0  0  0  0  0
  150.8179  140.3118  154.8203 N   0  0  0  0  0  0  0  0  0  0  0  0
  149.6900  141.0531  154.7852 N   0  0  0  0  0  0  0  0  0  0  0  0
  148.5828  140.3499  154.3671 C   0  0  0  0  0  0  0  0  0  0  0  0
  147.2289  140.9702  154.2712 C   0  0  0  0  0  0  0  0  0  0  0  0
  149.0481  139.0960  154.0941 C   0  0  0  0  0  0  0  0  0  0  0  0
  148.2385  138.0193  153.6530 N   0  0  0  0  0  0  0  0  0  0  0  0
  146.9966  137.7264  154.0676 C   0  0  0  0  0  0  0  0  0  0  0  0
  146.3749  138.3508  154.9265 O   0  0  0  0  0  0  0  0  0  0  0  0
  146.5127  136.6439  153.4415 N   0  0  0  0  0  0  0  0  0  0  0  0
  145.1920  136.0584  153.6703 C   0  0  2  0  0  0  0  0  0  0  0  0
  145.2935  134.5289  153.8014 C   0  0  0  0  0  0  0  0  0  0  0  0
  145.6035  133.8505  152.4542 C   0  0  0  0  0  0  0  0  0  0  0  0
  144.6082  134.2270  151.4184 N   0  3  2  0  0  0  0  0  0  0  0  0
  144.8056  133.4807  150.1506 C   0  0  0  0  0  0  0  0  0  0  0  0
  144.0449  132.1506  150.1931 C   0  0  0  0  0  0  0  0  0  0  0  0
  143.0244  132.1126  149.3151 N   0  5  0  0  0  0  0  0  0  0  0  0
  144.3931  131.2767  150.9848 O   0  0  0  0  0  0  0  0  0  0  0  0
  144.5467  135.7010  151.2259 C   0  0  0  0  0  0  0  0  0  0  0  0
  144.2043  136.4186  152.5431 C   0  0  0  0  0  0  0  0  0  0  0  0
  149.6908  142.0268  155.0541 H   0  0  0  0  0  0  0  0  0  0  0  0
  151.0009  137.0377  154.6414 H   0  0  0  0  0  0  0  0  0  0  0  0
  152.2464  138.1713  155.1383 H   0  0  0  0  0  0  0  0  0  0  0  0
  151.9326  137.9140  153.4262 H   0  0  0  0  0  0  0  0  0  0  0  0
  146.4670  140.2229  154.0499 H   0  0  0  0  0  0  0  0  0  0  0  0
  147.2035  141.7202  153.4805 H   0  0  0  0  0  0  0  0  0  0  0  0
  146.9583  141.4574  155.2082 H   0  0  0  0  0  0  0  0  0  0  0  0
  148.6829  137.3555  153.0359 H   0  0  0  0  0  0  0  0  0  0  0  0
  147.1013  136.1906  152.7580 H   0  0  0  0  0  0  0  0  0  0  0  0
  144.8078  136.4520  154.6133 H   0  0  0  0  0  0  0  0  0  0  0  0
  146.0505  134.2611  154.5396 H   0  0  0  0  0  0  0  0  0  0  0  0
  144.3484  134.1406  154.1835 H   0  0  0  0  0  0  0  0  0  0  0  0
  146.6043  134.1192  152.1128 H   0  0  0  0  0  0  0  0  0  0  0  0
  145.5974  132.7687  152.5925 H   0  0  0  0  0  0  0  0  0  0  0  0
  144.5256  134.1028  149.2973 H   0  0  0  0  0  0  0  0  0  0  0  0
  145.8605  133.2345  150.0227 H   0  0  0  0  0  0  0  0  0  0  0  0
  142.2885  132.8263  149.3763 H   0  0  0  0  0  0  0  0  0  0  0  0
  145.5005  136.0600  150.8361 H   0  0  0  0  0  0  0  0  0  0  0  0
  143.7913  135.9521  150.4807 H   0  0  0  0  0  0  0  0  0  0  0  0
  143.1964  136.1344  152.8486 H   0  0  0  0  0  0  0  0  0  0  0  0
  144.1758  137.4973  152.3851 H   0  0  0  0  0  0  0  0  0  0  0  0
  143.7059  133.9379  151.7686 H   0  0  0  0  0  0  0  0  0  0  0  0
  1  2  1  0  0  0  0
  1 23  1  0  0  0  0
  1 24  1  0  0  0  0
  1 25  1  0  0  0  0
  2  7  1  0  0  0  0
  2  3  2  0  0  0  0
  3  4  1  0  0  0  0
  4 22  1  0  0  0  0
  4  5  1  0  0  0  0
  5  6  1  0  0  0  0
  5  7  2  0  0  0  0
  6 26  1  0  0  0  0
  6 27  1  0  0  0  0
  6 28  1  0  0  0  0
  7  8  1  0  0  0  0
  8  9  1  0  0  0  0
  8 29  1  0  0  0  0
  9 10  2  0  0  0  0
  9 11  1  0  0  0  0
 11 12  1  0  0  0  0
 11 30  1  0  0  0  0
 12 21  1  0  0  0  0
 12 13  1  0  0  0  0
 12 31  1  0  0  0  0
 13 14  1  0  0  0  0
 13 32  1  0  0  0  0
 13 33  1  0  0  0  0
 14 15  1  0  0  0  0
 14 34  1  0  0  0  0
 14 35  1  0  0  0  0
 15 16  1  0  0  0  0
 15 20  1  0  0  0  0
 15 43  1  0  0  0  0
 16 17  1  0  0  0  0
 16 36  1  0  0  0  0
 16 37  1  0  0  0  0
 17 18  1  0  0  0  0
 17 19  2  0  0  0  0
 18 38  1  0  0  0  0
 20 21  1  0  0  0  0
 20 39  1  0  0  0  0
 20 40  1  0  0  0  0
 21 41  1  0  0  0  0
 21 42  1  0  0  0  0
M  CHG  1  15   1
M  CHG  1  18  -1
M  END
> <s_m_source_file>
AV-unprocessed.smi

> <i_m_source_file_index>
1827

> <i_lp_mmshare_version>
43012

> <i_f3d_flags>
0

> <s_epik_input>
W0NIM11jMW5bbkhdYyhbQ0gzXSljMVtOSF1DKD1PKVtOSF1bQ0hdMltDSDJdW0NIMl1OKFtDSDJdW0NIMl0yKVtDSDJdQyg9TylbTkgyXQ==

> <s_epik_cmdline>
J2VwaWtfcHl0aG9uJywgJy1waCcsICc3LjAnLCAnLXRuJywgJzgnLCAnLW1hJywgJzIwMCcsICctbWV0YWxfYmluZGluZycsICctaW1hZScsICc8aW5maWxlLm1hZT4nLCAnLW9tYWUnLCAnPG91dGZpbGUubWFlPic=

> <r_lp_tautomer_probability>
0.5

> <r_epik_Ionization_Penalty>
5.72915

> <r_epik_Ionization_Penalty_Charging>
5.7288

> <r_epik_Ionization_Penalty_Neutral>
0.000348152

> <r_epik_State_Penalty>
6.54882

> <r_epik_Charging_Adjusted_Penalty>
12.2776

> <i_epik_Tot_Q>
0

> <i_epik_Tot_abs_Q>
2

> <r_epik_Metal_State_Penalty>
2.51333

> <b_epik_Metal_Only>
1

> <s_lp_Force_Field>
OPLS_2005

> <r_lp_Energy>
10.7358

> <b_lp_Chiralities_Consistent>
1

> <s_lp_Variant>
AV-unprocessed.smi:1827-5

> <Gold.Version>
5.8.1

> <Gold.Id.Protein>
6NUR|6NUR_protein|mol2

> <Gold.PLP.Fitness>
46.4771

> <Gold.PLP.PLP>
-33.7695

> <Gold.PLP.part.hbond>
-5.7940

> <Gold.PLP.part.metal>
0.0000

> <Gold.PLP.part.buried>
-6.2241

> <Gold.PLP.part.nonpolar>
-22.3984

> <Gold.PLP.part.repulsive>
0.8590

> <Gold.PLP.ligand.clash>
0.0000

> <Gold.PLP.ligand.torsion>
0.9638

> <Gold.PLP.Chemscore.Hbond>
4.7728

> <Gold.PLP.Chemscore.CHOScore>
0.0000

> <Gold.PLP.Chemscore.Metal>
0.0000

> <Gold.Chemscore.Hbonds>
donor molecule, donor type, donor heavy atom, donor atom, acceptor molecule, acceptor atom, score
      L1  H     8    29       P1  7948  1.00
      L1  H    11    30       P1  7948  0.86
      L1  H    18    38       P1 10186  0.96
      P1  H  7989  7998       L1     3  1.00
      P1  H 10785 10796       L1    18  0.88

> <Gold.PLP.Chemscore.Internal.Correction>
0.3169

> <Gold.Rescore>
     Score         DG    S(hbond)    S(metal)    S(lipo)     H(rot)  DE(clash)    DE(int)     intcor
     15.01     -17.25       2.94        0.00      59.54       1.96       0.12       2.12       ----

> <Gold.Chemscore.Fitness>
15.0103

> <Gold.Chemscore.DG>
-17.2535

> <Gold.Chemscore.ZeroCoef>
-5.4800

> <Gold.Chemscore.Hbond>
2.9390

> <Gold.Chemscore.Metal>
0.0000

> <Gold.Chemscore.Lipo>
59.5419

> <Gold.Chemscore.Internal_Hbond>
0.0000

> <Gold.Chemscore.DEClash>
0.1244

> <Gold.Chemscore.DEInternal>
2.1188

> <Gold.Chemscore.Rot>
1.9566

> <Gold.Chemscore.Internal.Correction>
   9.000000E+99

> <Gold.Chemscore.Hbonds>
donor molecule, donor type, donor heavy atom, donor atom, acceptor molecule, acceptor atom, score
      L1  H     8    29       P1  7948  0.99
      L1  H    11    30       P1  7948  0.79
      L1  H    18    38       P1 10186  0.91
      P1  H  7989  7998       L1     3  0.12
      P1  H 10785 10796       L1    18  0.19

> <Gold.Chemscore.Hbond.Weighted>
-9.8161

> <Gold.Chemscore.Metal.Weighted>
-0.0000

> <Gold.Chemscore.Lipo.Weighted>
-6.9664

> <Gold.Chemscore.Internal_Hbond.Weighted>
0.0000

> <Gold.Chemscore.DEClash.Weighted>
0.1244

> <Gold.Chemscore.DEInternal.Weighted>
2.1188

> <Gold.Chemscore.Rot.Weighted>
5.0090

> <Gold.Chemscore.Internal.Correction.Weighted>
   9.000000E+99

> <Gold.Protein.RotatedTorsions>
[ 6907 6896 6895 6894 ] final  159.46 input  -60.11 | X-H torsion
[ 7974 7965 7964 7962 ] final   64.64 input  175.53 | X-H torsion
[ 8008 7997 7996 7995 ] final  178.58 input   59.86 | X-H torsion
[ 10167 10162 10161 10158 ] final  -94.01 input  -65.29 | X-H torsion
[ 10718 10713 10712 10709 ] final  -45.49 input   66.30 | X-H torsion
[ 10763 10752 10751 10750 ] final   50.05 input  -60.55 | X-H torsion
[ 11005 11000 10999 10996 ] final  139.30 input  -57.11 | X-H torsion

> <Gold.Protein.ActiveResidues>
 VAL166  LYS551  ARG553  GLY616  TRP617  ASP618  TYR619  PRO620  LYS621  CYS622 
 ASP623  PHE694  ASN695  SER759  ASP760  ASP761  ALA762  ILE779  LEU786  VAL792 
 PHE793  MET794  SER795  GLU796  ALA797  LYS798  CYS799  TRP800  GLU811  SER814 

> <Gold.Protein.RotatedAtoms>
  151.9852  133.3771  159.4122 H   0  0  0  0  0  0  0  0  0  0  0  0  # atno 6907 bound_to 6896
  150.6929  134.3996  159.5122 H   0  0  0  0  0  0  0  0  0  0  0  0  # atno 6908 bound_to 6896
  152.1721  134.8825  160.0584 H   0  0  0  0  0  0  0  0  0  0  0  0  # atno 6909 bound_to 6896
  145.8478  139.3235  143.0893 H   0  0  0  0  0  0  0  0  0  0  0  0  # atno 7974 bound_to 7965
  156.0530  140.1330  157.0028 H   0  0  0  0  0  0  0  0  0  0  0  0  # atno 8008 bound_to 7997
  154.4444  140.1007  156.6475 H   0  0  0  0  0  0  0  0  0  0  0  0  # atno 8009 bound_to 7997
  155.5494  140.3462  155.4467 H   0  0  0  0  0  0  0  0  0  0  0  0  # atno 8010 bound_to 7997
  140.3188  143.3061  152.0069 H   0  0  0  0  0  0  0  0  0  0  0  0  # atno 10167 bound_to 10162
  156.2278  130.4170  149.8912 H   0  0  0  0  0  0  0  0  0  0  0  0  # atno 10718 bound_to 10713
  152.9785  135.5891  154.4189 H   0  0  0  0  0  0  0  0  0  0  0  0  # atno 10763 bound_to 10752
  154.3816  135.2767  155.2210 H   0  0  0  0  0  0  0  0  0  0  0  0  # atno 10764 bound_to 10752
  154.4121  135.6079  153.6013 H   0  0  0  0  0  0  0  0  0  0  0  0  # atno 10765 bound_to 10752
  140.0244  134.9381  157.0540 H   0  0  0  0  0  0  0  0  0  0  0  0  # atno 11005 bound_to 11000
  145.9392  140.8992  143.0316 LP  0  0  0  0  0  0  0  0  0  0  0  0  # atno 17320 bound_to 7965
  144.6730  140.1524  143.7429 LP  0  0  0  0  0  0  0  0  0  0  0  0  # atno 17321 bound_to 7965
  139.4878  144.6327  151.7037 LP  0  0  0  0  0  0  0  0  0  0  0  0  # atno 17342 bound_to 10162
  140.5502  144.0438  150.6124 LP  0  0  0  0  0  0  0  0  0  0  0  0  # atno 17343 bound_to 10162
  156.6536  130.8753  151.3535 LP  0  0  0  0  0  0  0  0  0  0  0  0  # atno 17370 bound_to 10713
  157.7119  130.9450  150.1118 LP  0  0  0  0  0  0  0  0  0  0  0  0  # atno 17371 bound_to 10713
  140.4331  134.1760  155.7169 LP  0  0  0  0  0  0  0  0  0  0  0  0  # atno 17394 bound_to 11000
  141.1794  133.8446  157.1311 LP  0  0  0  0  0  0  0  0  0  0  0  0  # atno 17395 bound_to 11000

$$$$
