AV-unprocessed.smi:366|AV-procd|sdf|2430|dock6
  -GOLD-   2262022373D 1   1.00000     0.00000
 Structure written by MMmdl.
 50 51  0  0  0  0  0  0  0  0  1 V2000
  148.5171  132.8854  152.6822 C   0  0  0  0  0  0  0  0  0  0  0  0
  148.4866  133.4392  154.1029 C   0  0  0  0  0  0  0  0  0  0  0  0
  148.3251  132.6769  155.0551 O   0  0  0  0  0  0  0  0  0  0  0  0
  148.6464  134.7661  154.2337 N   0  0  0  0  0  0  0  0  0  0  0  0
  148.6675  135.4982  155.5018 C   0  0  1  0  0  0  0  0  0  0  0  0
  149.9035  136.4179  155.5168 C   0  0  0  0  0  0  0  0  0  0  0  0
  150.4768  136.6803  156.5756 O   0  0  0  0  0  0  0  0  0  0  0  0
  150.3112  136.8843  154.3280 N   0  0  0  0  0  0  0  0  0  0  0  0
  151.4595  137.7570  154.1353 C   0  0  0  0  0  0  0  0  0  0  0  0
  151.4770  138.8858  155.1455 C   0  0  0  0  0  0  0  0  0  0  0  0
  150.4518  139.8507  155.1710 C   0  0  0  0  0  0  0  0  0  0  0  0
  150.5163  140.8876  156.1212 C   0  0  0  0  0  0  0  0  0  0  0  0
  151.6098  140.9359  157.0193 C   0  0  0  0  0  0  0  0  0  0  0  0
  151.6966  141.9680  157.9791 N   0  0  0  0  0  0  0  0  0  0  0  0
  152.6429  141.8018  159.0810 C   0  0  0  0  0  0  0  0  0  0  0  0
  152.3951  142.8622  160.1669 C   0  0  0  0  0  0  0  0  0  0  0  0
  152.4479  144.1616  159.5881 O   0  0  0  0  0  0  0  0  0  0  0  0
  151.4428  144.3394  158.5958 C   0  0  0  0  0  0  0  0  0  0  0  0
  151.6533  143.3306  157.4534 C   0  0  0  0  0  0  0  0  0  0  0  0
  152.5923  140.0006  156.9903 N   0  0  0  0  0  0  0  0  0  0  0  0
  152.5261  139.0084  156.0777 C   0  0  0  0  0  0  0  0  0  0  0  0
  147.3685  136.3497  155.6155 C   0  0  0  0  0  0  0  0  0  0  0  0
  147.3045  137.1828  156.9130 C   0  0  0  0  0  0  0  0  0  0  0  0
  146.1000  135.4797  155.5138 C   0  0  0  0  0  0  0  0  0  0  0  0
  148.3924  133.6770  151.9422 H   0  0  0  0  0  0  0  0  0  0  0  0
  147.7163  132.1591  152.5414 H   0  0  0  0  0  0  0  0  0  0  0  0
  149.4685  132.3874  152.4953 H   0  0  0  0  0  0  0  0  0  0  0  0
  148.7815  135.3111  153.3949 H   0  0  0  0  0  0  0  0  0  0  0  0
  148.7140  134.7934  156.3349 H   0  0  0  0  0  0  0  0  0  0  0  0
  149.7881  136.6221  153.5050 H   0  0  0  0  0  0  0  0  0  0  0  0
  152.3824  137.1810  154.2218 H   0  0  0  0  0  0  0  0  0  0  0  0
  151.4365  138.1728  153.1267 H   0  0  0  0  0  0  0  0  0  0  0  0
  149.6267  139.7987  154.4760 H   0  0  0  0  0  0  0  0  0  0  0  0
  149.7239  141.6199  156.1581 H   0  0  0  0  0  0  0  0  0  0  0  0
  152.5428  140.8078  159.5190 H   0  0  0  0  0  0  0  0  0  0  0  0
  153.6608  141.8900  158.6988 H   0  0  0  0  0  0  0  0  0  0  0  0
  151.4296  142.7061  160.6509 H   0  0  0  0  0  0  0  0  0  0  0  0
  153.1558  142.7884  160.9438 H   0  0  0  0  0  0  0  0  0  0  0  0
  150.4530  144.2224  159.0399 H   0  0  0  0  0  0  0  0  0  0  0  0
  151.4999  145.3578  158.2121 H   0  0  0  0  0  0  0  0  0  0  0  0
  152.5934  143.5386  156.9409 H   0  0  0  0  0  0  0  0  0  0  0  0
  150.8588  143.4580  156.7199 H   0  0  0  0  0  0  0  0  0  0  0  0
  153.3357  138.2936  156.0918 H   0  0  0  0  0  0  0  0  0  0  0  0
  147.3400  137.0519  154.7803 H   0  0  0  0  0  0  0  0  0  0  0  0
  147.3808  136.5460  157.7948 H   0  0  0  0  0  0  0  0  0  0  0  0
  146.3637  137.7298  156.9811 H   0  0  0  0  0  0  0  0  0  0  0  0
  148.1018  137.9241  156.9672 H   0  0  0  0  0  0  0  0  0  0  0  0
  146.0760  134.7238  156.2990 H   0  0  0  0  0  0  0  0  0  0  0  0
  146.0322  134.9654  154.5552 H   0  0  0  0  0  0  0  0  0  0  0  0
  145.1991  136.0862  155.6110 H   0  0  0  0  0  0  0  0  0  0  0  0
  1  2  1  0  0  0  0
  1 25  1  0  0  0  0
  1 26  1  0  0  0  0
  1 27  1  0  0  0  0
  2  3  2  0  0  0  0
  2  4  1  0  0  0  0
  4  5  1  0  0  0  0
  4 28  1  0  0  0  0
  5  6  1  0  0  0  0
  5 22  1  0  0  0  0
  5 29  1  0  0  0  0
  6  7  2  0  0  0  0
  6  8  1  0  0  0  0
  8  9  1  0  0  0  0
  8 30  1  0  0  0  0
  9 10  1  0  0  0  0
  9 31  1  0  0  0  0
  9 32  1  0  0  0  0
 10 21  1  0  0  0  0
 10 11  2  0  0  0  0
 11 12  1  0  0  0  0
 11 33  1  0  0  0  0
 12 13  2  0  0  0  0
 12 34  1  0  0  0  0
 13 14  1  0  0  0  0
 13 20  1  0  0  0  0
 14 19  1  0  0  0  0
 14 15  1  0  0  0  0
 15 16  1  0  0  0  0
 15 35  1  0  0  0  0
 15 36  1  0  0  0  0
 16 17  1  0  0  0  0
 16 37  1  0  0  0  0
 16 38  1  0  0  0  0
 17 18  1  0  0  0  0
 18 19  1  0  0  0  0
 18 39  1  0  0  0  0
 18 40  1  0  0  0  0
 19 41  1  0  0  0  0
 19 42  1  0  0  0  0
 20 21  2  0  0  0  0
 21 43  1  0  0  0  0
 22 23  1  0  0  0  0
 22 24  1  0  0  0  0
 22 44  1  0  0  0  0
 23 45  1  0  0  0  0
 23 46  1  0  0  0  0
 23 47  1  0  0  0  0
 24 48  1  0  0  0  0
 24 49  1  0  0  0  0
 24 50  1  0  0  0  0
M  END
> <s_m_source_file>
AV-unprocessed.smi

> <i_m_source_file_index>
366

> <i_lp_mmshare_version>
43012

> <i_f3d_flags>
0

> <s_epik_input>
W0NIM11DKD1PKVtOSF1bQ0BASF0oW0NIXShbQ0gzXSlbQ0gzXSlDKD1PKVtOSF1bQ0gyXWMxW2NIXVtjSF1jKG5bY0hdMSlOMltDSDJdW0NIMl1PW0NIMl1bQ0gyXTI=

> <s_epik_cmdline>
J2VwaWtfcHl0aG9uJywgJy1waCcsICc3LjAnLCAnLXRuJywgJzgnLCAnLW1hJywgJzIwMCcsICctbWV0YWxfYmluZGluZycsICctaW1hZScsICc8aW5maWxlLm1hZT4nLCAnLW9tYWUnLCAnPG91dGZpbGUubWFlPic=

> <r_lp_tautomer_probability>
1

> <r_epik_Ionization_Penalty>
0.00485188

> <r_epik_Ionization_Penalty_Charging>
0

> <r_epik_Ionization_Penalty_Neutral>
0.00485188

> <r_epik_State_Penalty>
0.00351951

> <r_epik_Charging_Adjusted_Penalty>
0.00351951

> <i_epik_Tot_Q>
0

> <i_epik_Tot_abs_Q>
0

> <r_epik_Metal_State_Penalty>
-0

> <b_epik_Metal_Only>
0

> <s_lp_Force_Field>
OPLS_2005

> <r_lp_Energy>
20.5125

> <b_lp_Chiralities_Consistent>
1

> <s_lp_Variant>
AV-unprocessed.smi:366-2

> <Gold.Version>
5.8.1

> <Gold.Id.Protein>
6NUR|6NUR_protein|mol2

> <Gold.PLP.Fitness>
44.6255

> <Gold.PLP.PLP>
-38.7759

> <Gold.PLP.part.hbond>
-3.7151

> <Gold.PLP.part.metal>
0.0000

> <Gold.PLP.part.buried>
-3.3944

> <Gold.PLP.part.nonpolar>
-31.8609

> <Gold.PLP.part.repulsive>
0.0972

> <Gold.PLP.ligand.clash>
0.0000

> <Gold.PLP.ligand.torsion>
1.1495

> <Gold.PLP.Chemscore.Hbond>
2.5616

> <Gold.PLP.Chemscore.CHOScore>
0.0000

> <Gold.PLP.Chemscore.Metal>
0.0000

> <Gold.Chemscore.Hbonds>
donor molecule, donor type, donor heavy atom, donor atom, acceptor molecule, acceptor atom, score
      L1  H     4    28       P1  7948  1.00
      L1  H     8    30       P1  7948  1.00
      P1  H  7997  8010       L1    20  0.54

> <Gold.PLP.Chemscore.Internal.Correction>
0.4638

> <Gold.Rescore>
     Score         DG    S(hbond)    S(metal)    S(lipo)     H(rot)  DE(clash)    DE(int)     intcor
     14.74     -18.44       2.32        0.00      92.18       2.18       1.42       2.29       ----

> <Gold.Chemscore.Fitness>
14.7377

> <Gold.Chemscore.DG>
-18.4444

> <Gold.Chemscore.ZeroCoef>
-5.4800

> <Gold.Chemscore.Hbond>
2.3245

> <Gold.Chemscore.Metal>
0.0000

> <Gold.Chemscore.Lipo>
92.1775

> <Gold.Chemscore.Internal_Hbond>
0.0000

> <Gold.Chemscore.DEClash>
1.4197

> <Gold.Chemscore.DEInternal>
2.2870

> <Gold.Chemscore.Rot>
2.1813

> <Gold.Chemscore.Internal.Correction>
   9.000000E+99

> <Gold.Chemscore.Hbonds>
donor molecule, donor type, donor heavy atom, donor atom, acceptor molecule, acceptor atom, score
      L1  H     4    28       P1  7948  0.78
      L1  H     8    30       P1  7948  0.35
      P1  H  7997  8010       L1    20  0.04

> <Gold.Chemscore.Hbond.Weighted>
-7.7638

> <Gold.Chemscore.Metal.Weighted>
-0.0000

> <Gold.Chemscore.Lipo.Weighted>
-10.7848

> <Gold.Chemscore.Internal_Hbond.Weighted>
0.0000

> <Gold.Chemscore.DEClash.Weighted>
1.4197

> <Gold.Chemscore.DEInternal.Weighted>
2.2870

> <Gold.Chemscore.Rot.Weighted>
5.5842

> <Gold.Chemscore.Internal.Correction.Weighted>
   9.000000E+99

> <Gold.Protein.RotatedTorsions>
[ 6907 6896 6895 6894 ] final   75.09 input  -60.11 | X-H torsion
[ 7974 7965 7964 7962 ] final -112.42 input  175.53 | X-H torsion
[ 8008 7997 7996 7995 ] final   43.51 input   59.86 | X-H torsion
[ 10167 10162 10161 10158 ] final  -98.17 input  -65.29 | X-H torsion
[ 10718 10713 10712 10709 ] final -157.35 input   66.30 | X-H torsion
[ 10763 10752 10751 10750 ] final  -25.67 input  -60.55 | X-H torsion
[ 11005 11000 10999 10996 ] final -127.92 input  -57.11 | X-H torsion

> <Gold.Protein.ActiveResidues>
 VAL166  LYS551  ARG553  GLY616  TRP617  ASP618  TYR619  PRO620  LYS621  CYS622 
 ASP623  PHE694  ASN695  SER759  ASP760  ASP761  ALA762  ILE779  LEU786  VAL792 
 PHE793  MET794  SER795  GLU796  ALA797  LYS798  CYS799  TRP800  GLU811  SER814 

> <Gold.Protein.RotatedAtoms>
  152.5008  134.4173  159.9468 H   0  0  0  0  0  0  0  0  0  0  0  0  # atno 6907 bound_to 6896
  151.4144  133.3711  159.2756 H   0  0  0  0  0  0  0  0  0  0  0  0  # atno 6908 bound_to 6896
  150.9268  134.8706  159.7584 H   0  0  0  0  0  0  0  0  0  0  0  0  # atno 6909 bound_to 6896
  145.1443  140.8794  143.3684 H   0  0  0  0  0  0  0  0  0  0  0  0  # atno 7974 bound_to 7965
  155.3039  140.3386  155.4246 H   0  0  0  0  0  0  0  0  0  0  0  0  # atno 8008 bound_to 7997
  156.1988  140.1725  156.7981 H   0  0  0  0  0  0  0  0  0  0  0  0  # atno 8009 bound_to 7997
  154.5533  140.0701  156.8686 H   0  0  0  0  0  0  0  0  0  0  0  0  # atno 8010 bound_to 7997
  140.2758  143.3314  152.0490 H   0  0  0  0  0  0  0  0  0  0  0  0  # atno 10167 bound_to 10162
  156.5391  130.8555  151.2742 H   0  0  0  0  0  0  0  0  0  0  0  0  # atno 10718 bound_to 10713
  153.7036  135.6955  153.5056 H   0  0  0  0  0  0  0  0  0  0  0  0  # atno 10763 bound_to 10752
  153.2324  135.4333  155.0608 H   0  0  0  0  0  0  0  0  0  0  0  0  # atno 10764 bound_to 10752
  154.8336  135.3487  154.6575 H   0  0  0  0  0  0  0  0  0  0  0  0  # atno 10765 bound_to 10752
  140.9559  134.1002  157.4016 H   0  0  0  0  0  0  0  0  0  0  0  0  # atno 11005 bound_to 11000
  145.0499  139.3190  143.5934 LP  0  0  0  0  0  0  0  0  0  0  0  0  # atno 17320 bound_to 7965
  146.3502  139.9903  142.8686 LP  0  0  0  0  0  0  0  0  0  0  0  0  # atno 17321 bound_to 7965
  139.4976  144.6625  151.6431 LP  0  0  0  0  0  0  0  0  0  0  0  0  # atno 17342 bound_to 10162
  140.5852  143.9876  150.6291 LP  0  0  0  0  0  0  0  0  0  0  0  0  # atno 17343 bound_to 10162
  157.7408  130.9858  150.2405 LP  0  0  0  0  0  0  0  0  0  0  0  0  # atno 17370 bound_to 10713
  156.2988  130.3755  149.7770 LP  0  0  0  0  0  0  0  0  0  0  0  0  # atno 17371 bound_to 10713
  139.8862  135.0079  156.6484 LP  0  0  0  0  0  0  0  0  0  0  0  0  # atno 17394 bound_to 11000
  140.7536  133.8876  155.8365 LP  0  0  0  0  0  0  0  0  0  0  0  0  # atno 17395 bound_to 11000

$$$$
