AV-unprocessed.smi:3311|AV-procd|sdf|12721|dock7
  -GOLD-   2272019 63D 1   1.00000     0.00000
 Structure written by MMmdl.
 44 45  0  0  0  0  0  0  0  0  2 V2000
  149.4789  137.5884  154.6367 C   0  0  0  0  0  0  0  0  0  0  0  0
  148.5430  138.7617  154.2939 C   0  0  2  0  0  0  0  0  0  0  0  0
  147.7275  138.3898  153.1166 N   0  3  0  0  0  0  0  0  0  0  0  0
  146.4178  137.7780  153.4322 C   0  0  0  0  0  0  0  0  0  0  0  0
  145.4574  137.7888  152.2182 C   0  0  0  0  0  0  0  0  0  0  0  0
  145.6186  139.0416  151.5794 O   0  0  0  0  0  0  0  0  0  0  0  0
  145.7516  136.6737  151.1846 C   0  0  0  0  0  0  0  0  0  0  0  0
  145.3869  135.2751  151.7129 C   0  0  0  0  0  0  0  0  0  0  0  0
  143.9168  135.2157  152.1561 C   0  0  0  0  0  0  0  0  0  0  0  0
  143.5970  136.3079  153.1888 C   0  0  0  0  0  0  0  0  0  0  0  0
  143.9787  137.7045  152.6648 C   0  0  0  0  0  0  0  0  0  0  0  0
  149.3053  140.0895  154.0332 C   0  0  1  0  0  0  0  0  0  0  0  0
  148.3669  141.2758  153.7398 C   0  0  0  0  0  0  0  0  0  0  0  0
  150.2036  140.4279  155.1301 N   0  0  0  0  0  0  0  0  0  0  0  0
  150.1811  141.5445  155.9407 C   0  0  0  0  0  0  0  0  0  0  0  0
  151.2112  141.4253  156.8292 C   0  0  0  0  0  0  0  0  0  0  0  0
  151.8142  140.1839  156.4836 C   0  0  0  0  0  0  0  0  0  0  0  0
  151.2087  139.5888  155.4691 N   0  0  0  0  0  0  0  0  0  0  0  0
  150.0321  137.7656  155.5593 H   0  0  0  0  0  0  0  0  0  0  0  0
  150.2046  137.4147  153.8415 H   0  0  0  0  0  0  0  0  0  0  0  0
  148.9136  136.6666  154.7773 H   0  0  0  0  0  0  0  0  0  0  0  0
  147.8829  138.9027  155.1518 H   0  0  0  0  0  0  0  0  0  0  0  0
  147.5679  139.2170  152.5589 H   0  0  0  0  0  0  0  0  0  0  0  0
  146.5906  136.7595  153.7795 H   0  0  0  0  0  0  0  0  0  0  0  0
  145.9654  138.3162  154.2664 H   0  0  0  0  0  0  0  0  0  0  0  0
  144.9123  139.6100  151.8483 H   0  0  0  0  0  0  0  0  0  0  0  0
  145.1716  136.8589  150.2789 H   0  0  0  0  0  0  0  0  0  0  0  0
  146.7965  136.6919  150.8735 H   0  0  0  0  0  0  0  0  0  0  0  0
  145.5673  134.5298  150.9376 H   0  0  0  0  0  0  0  0  0  0  0  0
  146.0358  135.0081  152.5474 H   0  0  0  0  0  0  0  0  0  0  0  0
  143.2697  135.3379  151.2865 H   0  0  0  0  0  0  0  0  0  0  0  0
  143.6923  134.2330  152.5715 H   0  0  0  0  0  0  0  0  0  0  0  0
  142.5340  136.2844  153.4308 H   0  0  0  0  0  0  0  0  0  0  0  0
  144.1230  136.0986  154.1204 H   0  0  0  0  0  0  0  0  0  0  0  0
  143.7668  138.4563  153.4265 H   0  0  0  0  0  0  0  0  0  0  0  0
  143.3291  137.9419  151.8206 H   0  0  0  0  0  0  0  0  0  0  0  0
  149.9329  139.9460  153.1521 H   0  0  0  0  0  0  0  0  0  0  0  0
  147.7882  141.1137  152.8305 H   0  0  0  0  0  0  0  0  0  0  0  0
  148.9342  142.1962  153.5980 H   0  0  0  0  0  0  0  0  0  0  0  0
  147.6640  141.4426  154.5568 H   0  0  0  0  0  0  0  0  0  0  0  0
  149.4430  142.3236  155.8198 H   0  0  0  0  0  0  0  0  0  0  0  0
  151.4907  142.1184  157.6087 H   0  0  0  0  0  0  0  0  0  0  0  0
  152.6675  139.7009  156.9367 H   0  0  0  0  0  0  0  0  0  0  0  0
  148.2529  137.7286  152.5626 H   0  0  0  0  0  0  0  0  0  0  0  0
  1  2  1  0  0  0  0
  1 19  1  0  0  0  0
  1 20  1  0  0  0  0
  1 21  1  0  0  0  0
  2  3  1  0  0  0  0
  2 12  1  0  0  0  0
  2 22  1  0  0  0  0
  3  4  1  0  0  0  0
  3 23  1  0  0  0  0
  3 44  1  0  0  0  0
  4  5  1  0  0  0  0
  4 24  1  0  0  0  0
  4 25  1  0  0  0  0
  5 11  1  0  0  0  0
  5  6  1  0  0  0  0
  5  7  1  0  0  0  0
  6 26  1  0  0  0  0
  7  8  1  0  0  0  0
  7 27  1  0  0  0  0
  7 28  1  0  0  0  0
  8  9  1  0  0  0  0
  8 29  1  0  0  0  0
  8 30  1  0  0  0  0
  9 10  1  0  0  0  0
  9 31  1  0  0  0  0
  9 32  1  0  0  0  0
 10 11  1  0  0  0  0
 10 33  1  0  0  0  0
 10 34  1  0  0  0  0
 11 35  1  0  0  0  0
 11 36  1  0  0  0  0
 12 13  1  0  0  0  0
 12 14  1  0  0  0  0
 12 37  1  0  0  0  0
 13 38  1  0  0  0  0
 13 39  1  0  0  0  0
 13 40  1  0  0  0  0
 14 18  1  0  0  0  0
 14 15  1  0  0  0  0
 15 16  2  0  0  0  0
 15 41  1  0  0  0  0
 16 17  1  0  0  0  0
 16 42  1  0  0  0  0
 17 18  2  0  0  0  0
 17 43  1  0  0  0  0
M  CHG  1   3   1
M  END
> <s_m_source_file>
AV-unprocessed.smi

> <i_m_source_file_index>
3311

> <i_lp_mmshare_version>
43012

> <i_f3d_flags>
0

> <s_epik_input>
bjFbY0hdW2NIXVtjSF1uMVtDQEBIXShbQ0gzXSlbQ0BIXShbQ0gzXSlbTkhdW0NIMl1DMihbT0hdKVtDSDJdW0NIMl1bQ0gyXVtDSDJdW0NIMl0y

> <s_epik_cmdline>
J2VwaWtfcHl0aG9uJywgJy1waCcsICc3LjAnLCAnLXRuJywgJzgnLCAnLW1hJywgJzIwMCcsICctbWV0YWxfYmluZGluZycsICctaW1hZScsICc8aW5maWxlLm1hZT4nLCAnLW9tYWUnLCAnPG91dGZpbGUubWFlPic=

> <r_lp_tautomer_probability>
1

> <r_epik_Ionization_Penalty>
0.0141403

> <r_epik_Ionization_Penalty_Charging>
0.0141276

> <r_epik_Ionization_Penalty_Neutral>
1.27139e-05

> <r_epik_State_Penalty>
0.0110334

> <r_epik_Charging_Adjusted_Penalty>
0.025161

> <i_epik_Tot_Q>
1

> <i_epik_Tot_abs_Q>
1

> <r_epik_Metal_State_Penalty>
0.0110573

> <b_epik_Metal_Only>
0

> <s_lp_Force_Field>
OPLS_2005

> <r_lp_Energy>
22.4961

> <b_lp_Chiralities_Consistent>
1

> <s_lp_Variant>
AV-unprocessed.smi:3311-3

> <Gold.Version>
5.8.1

> <Gold.Id.Protein>
6NUR|6NUR_protein|mol2

> <Gold.PLP.Fitness>
40.9995

> <Gold.PLP.PLP>
-30.6575

> <Gold.PLP.part.hbond>
-3.6060

> <Gold.PLP.part.metal>
0.0000

> <Gold.PLP.part.buried>
0.7226

> <Gold.PLP.part.nonpolar>
-27.4601

> <Gold.PLP.part.repulsive>
0.0604

> <Gold.PLP.ligand.clash>
0.0000

> <Gold.PLP.ligand.torsion>
0.8996

> <Gold.PLP.Chemscore.Hbond>
3.0000

> <Gold.PLP.Chemscore.CHOScore>
1.0000

> <Gold.PLP.Chemscore.Metal>
0.0000

> <Gold.Chemscore.Hbonds>
donor molecule, donor type, donor heavy atom, donor atom, acceptor molecule, acceptor atom, score
      L1  H     3    44       P1  7948  2.00
      L1  H     6    26       P1 10175  1.00
      L1  C    15    41       P1  8028  1.00

> <Gold.PLP.Chemscore.Internal.Correction>
0.1412

> <Gold.Rescore>
     Score         DG    S(hbond)    S(metal)    S(lipo)     H(rot)  DE(clash)    DE(int)     intcor
     12.65     -14.92       1.97        0.00      71.24       2.14       0.07       2.20       ----

> <Gold.Chemscore.Fitness>
12.6500

> <Gold.Chemscore.DG>
-14.9238

> <Gold.Chemscore.ZeroCoef>
-5.4800

> <Gold.Chemscore.Hbond>
1.9741

> <Gold.Chemscore.Metal>
0.0000

> <Gold.Chemscore.Lipo>
71.2392

> <Gold.Chemscore.Internal_Hbond>
0.0000

> <Gold.Chemscore.DEClash>
0.0719

> <Gold.Chemscore.DEInternal>
2.2019

> <Gold.Chemscore.Rot>
2.1424

> <Gold.Chemscore.Internal.Correction>
   9.000000E+99

> <Gold.Chemscore.Hbonds>
donor molecule, donor type, donor heavy atom, donor atom, acceptor molecule, acceptor atom, score
      L1  H     3    44       P1  7948  1.00
      L1  H     6    26       P1 10175  0.84

> <Gold.Chemscore.Hbond.Weighted>
-6.5935

> <Gold.Chemscore.Metal.Weighted>
-0.0000

> <Gold.Chemscore.Lipo.Weighted>
-8.3350

> <Gold.Chemscore.Internal_Hbond.Weighted>
0.0000

> <Gold.Chemscore.DEClash.Weighted>
0.0719

> <Gold.Chemscore.DEInternal.Weighted>
2.2019

> <Gold.Chemscore.Rot.Weighted>
5.4846

> <Gold.Chemscore.Internal.Correction.Weighted>
   9.000000E+99

> <Gold.Protein.RotatedTorsions>
[ 6907 6896 6895 6894 ] final  -24.51 input  -60.11 | X-H torsion
[ 7974 7965 7964 7962 ] final   40.92 input  175.53 | X-H torsion
[ 8008 7997 7996 7995 ] final -115.34 input   59.86 | X-H torsion
[ 10167 10162 10161 10158 ] final -165.53 input  -65.29 | X-H torsion
[ 10718 10713 10712 10709 ] final -102.81 input   66.30 | X-H torsion
[ 10763 10752 10751 10750 ] final -179.29 input  -60.55 | X-H torsion
[ 11005 11000 10999 10996 ] final  157.72 input  -57.11 | X-H torsion

> <Gold.Protein.ActiveResidues>
 VAL166  LYS551  ARG553  GLY616  TRP617  ASP618  TYR619  PRO620  LYS621  CYS622 
 ASP623  PHE694  ASN695  SER759  ASP760  ASP761  ALA762  ILE779  LEU786  VAL792 
 PHE793  MET794  SER795  GLU796  ALA797  LYS798  CYS799  TRP800  GLU811  SER814 

> <Gold.Protein.RotatedAtoms>
  151.1884  135.0392  159.8821 H   0  0  0  0  0  0  0  0  0  0  0  0  # atno 6907 bound_to 6896
  152.5441  134.0983  159.8317 H   0  0  0  0  0  0  0  0  0  0  0  0  # atno 6908 bound_to 6896
  151.1109  133.5127  159.2638 H   0  0  0  0  0  0  0  0  0  0  0  0  # atno 6909 bound_to 6896
  146.0866  139.5476  142.9503 H   0  0  0  0  0  0  0  0  0  0  0  0  # atno 7974 bound_to 7965
  155.0505  140.0393  157.2542 H   0  0  0  0  0  0  0  0  0  0  0  0  # atno 8008 bound_to 7997
  154.7141  140.2698  155.6578 H   0  0  0  0  0  0  0  0  0  0  0  0  # atno 8009 bound_to 7997
  156.2798  140.2716  156.1792 H   0  0  0  0  0  0  0  0  0  0  0  0  # atno 8010 bound_to 7997
  139.6176  144.0689  152.1902 H   0  0  0  0  0  0  0  0  0  0  0  0  # atno 10167 bound_to 10162
  156.0242  130.5438  150.7162 H   0  0  0  0  0  0  0  0  0  0  0  0  # atno 10718 bound_to 10713
  154.5369  135.2803  155.1130 H   0  0  0  0  0  0  0  0  0  0  0  0  # atno 10763 bound_to 10752
  154.2628  135.6318  153.5285 H   0  0  0  0  0  0  0  0  0  0  0  0  # atno 10764 bound_to 10752
  152.9969  135.5610  154.5898 H   0  0  0  0  0  0  0  0  0  0  0  0  # atno 10765 bound_to 10752
  140.1796  134.8485  157.2787 H   0  0  0  0  0  0  0  0  0  0  0  0  # atno 11005 bound_to 11000
  145.6119  141.0338  143.1962 LP  0  0  0  0  0  0  0  0  0  0  0  0  # atno 17320 bound_to 7965
  144.7330  139.7669  143.7340 LP  0  0  0  0  0  0  0  0  0  0  0  0  # atno 17321 bound_to 7965
  140.0323  144.6072  150.7478 LP  0  0  0  0  0  0  0  0  0  0  0  0  # atno 17342 bound_to 10162
  140.7361  143.2749  151.3773 LP  0  0  0  0  0  0  0  0  0  0  0  0  # atno 17343 bound_to 10162
  157.4789  131.0900  151.0559 LP  0  0  0  0  0  0  0  0  0  0  0  0  # atno 17370 bound_to 10713
  157.0998  130.5977  149.5457 LP  0  0  0  0  0  0  0  0  0  0  0  0  # atno 17371 bound_to 10713
  140.2283  134.3940  155.7533 LP  0  0  0  0  0  0  0  0  0  0  0  0  # atno 17394 bound_to 11000
  141.2222  133.7201  156.8599 LP  0  0  0  0  0  0  0  0  0  0  0  0  # atno 17395 bound_to 11000

$$$$
