AV-unprocessed.smi:500|AV-procd|sdf|2734|dock4
  -GOLD-   2262023183D 1   1.00000     0.00000
 Structure written by MMmdl.
 45 47  0  0  0  0  0  0  0  0  1 V2000
  147.0607  140.6146  153.3540 C   0  0  0  0  0  0  0  0  0  0  0  0
  147.2878  140.6600  154.8714 C   0  0  0  0  0  0  0  0  0  0  0  0
  148.3869  141.4912  155.2178 O   0  0  0  0  0  0  0  0  0  0  0  0
  149.1935  140.9835  156.2693 C   0  0  0  0  0  0  0  0  0  0  0  0
  150.4896  141.8011  156.3321 C   0  0  0  0  0  0  0  0  0  0  0  0
  151.5283  141.1091  157.0807 N   0  0  0  0  0  0  0  0  0  0  0  0
  152.1955  139.9710  156.7534 C   0  0  0  0  0  0  0  0  0  0  0  0
  151.9364  139.2091  155.4769 C   0  0  2  0  0  0  0  0  0  0  0  0
  151.3407  137.8194  155.7416 C   0  0  0  0  0  0  0  0  0  0  0  0
  153.1967  139.0910  154.7478 N   0  0  0  0  0  0  0  0  0  0  0  0
  154.1679  138.2047  155.0208 C   0  0  0  0  0  0  0  0  0  0  0  0
  154.1106  137.4011  155.9516 O   0  0  0  0  0  0  0  0  0  0  0  0
  155.3428  138.2455  154.1303 C   0  0  0  0  0  0  0  0  0  0  0  0
  155.8857  139.2645  153.3923 C   0  0  0  0  0  0  0  0  0  0  0  0
  157.0085  138.7196  152.7104 C   0  0  0  0  0  0  0  0  0  0  0  0
  157.0698  137.4062  153.0775 C   0  0  0  0  0  0  0  0  0  0  0  0
  156.0615  137.1011  153.9385 O   0  0  0  0  0  0  0  0  0  0  0  0
  153.1150  139.5703  157.6357 N   0  0  0  0  0  0  0  0  0  0  0  0
  153.0295  140.5269  158.6265 C   0  0  0  0  0  0  0  0  0  0  0  0
  153.7451  140.6586  159.8381 C   0  0  0  0  0  0  0  0  0  0  0  0
  153.4801  141.7347  160.7099 C   0  0  0  0  0  0  0  0  0  0  0  0
  152.4982  142.6921  160.3830 C   0  0  0  0  0  0  0  0  0  0  0  0
  151.7747  142.5796  159.1801 C   0  0  0  0  0  0  0  0  0  0  0  0
  152.0437  141.5037  158.3122 C   0  0  0  0  0  0  0  0  0  0  0  0
  146.1578  140.0510  153.1176 H   0  0  0  0  0  0  0  0  0  0  0  0
  147.8886  140.1358  152.8321 H   0  0  0  0  0  0  0  0  0  0  0  0
  146.9413  141.6188  152.9470 H   0  0  0  0  0  0  0  0  0  0  0  0
  146.3999  141.0783  155.3457 H   0  0  0  0  0  0  0  0  0  0  0  0
  147.4126  139.6563  155.2801 H   0  0  0  0  0  0  0  0  0  0  0  0
  148.6613  141.0580  157.2189 H   0  0  0  0  0  0  0  0  0  0  0  0
  149.4219  139.9314  156.1026 H   0  0  0  0  0  0  0  0  0  0  0  0
  150.8574  142.0343  155.3331 H   0  0  0  0  0  0  0  0  0  0  0  0
  150.2955  142.7628  156.8074 H   0  0  0  0  0  0  0  0  0  0  0  0
  151.2270  139.7455  154.8486 H   0  0  0  0  0  0  0  0  0  0  0  0
  150.3959  137.8962  156.2804 H   0  0  0  0  0  0  0  0  0  0  0  0
  152.0134  137.2020  156.3380 H   0  0  0  0  0  0  0  0  0  0  0  0
  151.1458  137.2919  154.8075 H   0  0  0  0  0  0  0  0  0  0  0  0
  153.3284  139.7113  153.9623 H   0  0  0  0  0  0  0  0  0  0  0  0
  155.5195  140.2798  153.3458 H   0  0  0  0  0  0  0  0  0  0  0  0
  157.6841  139.2239  152.0354 H   0  0  0  0  0  0  0  0  0  0  0  0
  157.7301  136.5877  152.8315 H   0  0  0  0  0  0  0  0  0  0  0  0
  154.4989  139.9299  160.0972 H   0  0  0  0  0  0  0  0  0  0  0  0
  154.0322  141.8255  161.6338 H   0  0  0  0  0  0  0  0  0  0  0  0
  152.3007  143.5134  161.0562 H   0  0  0  0  0  0  0  0  0  0  0  0
  151.0220  143.3124  158.9299 H   0  0  0  0  0  0  0  0  0  0  0  0
  1  2  1  0  0  0  0
  1 25  1  0  0  0  0
  1 26  1  0  0  0  0
  1 27  1  0  0  0  0
  2  3  1  0  0  0  0
  2 28  1  0  0  0  0
  2 29  1  0  0  0  0
  3  4  1  0  0  0  0
  4  5  1  0  0  0  0
  4 30  1  0  0  0  0
  4 31  1  0  0  0  0
  5  6  1  0  0  0  0
  5 32  1  0  0  0  0
  5 33  1  0  0  0  0
  6 24  1  0  0  0  0
  6  7  1  0  0  0  0
  7  8  1  0  0  0  0
  7 18  2  0  0  0  0
  8  9  1  0  0  0  0
  8 10  1  0  0  0  0
  8 34  1  0  0  0  0
  9 35  1  0  0  0  0
  9 36  1  0  0  0  0
  9 37  1  0  0  0  0
 10 11  1  0  0  0  0
 10 38  1  0  0  0  0
 11 12  2  0  0  0  0
 11 13  1  0  0  0  0
 13 17  1  0  0  0  0
 13 14  2  0  0  0  0
 14 15  1  0  0  0  0
 14 39  1  0  0  0  0
 15 16  2  0  0  0  0
 15 40  1  0  0  0  0
 16 17  1  0  0  0  0
 16 41  1  0  0  0  0
 18 19  1  0  0  0  0
 19 24  2  0  0  0  0
 19 20  1  0  0  0  0
 20 21  2  0  0  0  0
 20 42  1  0  0  0  0
 21 22  1  0  0  0  0
 21 43  1  0  0  0  0
 22 23  2  0  0  0  0
 22 44  1  0  0  0  0
 23 24  1  0  0  0  0
 23 45  1  0  0  0  0
M  END
> <s_m_source_file>
AV-unprocessed.smi

> <i_m_source_file_index>
500

> <i_lp_mmshare_version>
43012

> <i_f3d_flags>
0

> <s_epik_input>
W0NIM11bQ0gyXU9bQ0gyXVtDSDJdbihjKGMxMilbY0hdW2NIXVtjSF1bY0hdMiljKG4xKVtDQEhdKFtDSDNdKVtOSF1DKD1PKWMzW2NIXVtjSF1bY0hdbzM=

> <s_epik_cmdline>
J2VwaWtfcHl0aG9uJywgJy1waCcsICc3LjAnLCAnLXRuJywgJzgnLCAnLW1hJywgJzIwMCcsICctbWV0YWxfYmluZGluZycsICctaW1hZScsICc8aW5maWxlLm1hZT4nLCAnLW9tYWUnLCAnPG91dGZpbGUubWFlPic=

> <r_epik_Ionization_Penalty>
0.109801

> <r_epik_Ionization_Penalty_Charging>
0

> <r_epik_Ionization_Penalty_Neutral>
0.109801

> <r_epik_State_Penalty>
0.0995533

> <r_epik_Charging_Adjusted_Penalty>
0.0995533

> <i_epik_Tot_Q>
0

> <i_epik_Tot_abs_Q>
0

> <r_epik_Metal_State_Penalty>
0.0918163

> <b_epik_Metal_Only>
0

> <s_lp_Force_Field>
OPLS_2005

> <r_lp_Energy>
8.25657

> <b_lp_Chiralities_Consistent>
1

> <s_lp_Variant>
AV-unprocessed.smi:500-1

> <Gold.Version>
5.8.1

> <Gold.Id.Protein>
6NUR|6NUR_protein|mol2

> <Gold.PLP.Fitness>
47.5030

> <Gold.PLP.PLP>
-43.2558

> <Gold.PLP.part.hbond>
-3.0000

> <Gold.PLP.part.metal>
0.0000

> <Gold.PLP.part.buried>
-0.5992

> <Gold.PLP.part.nonpolar>
-41.2223

> <Gold.PLP.part.repulsive>
1.2630

> <Gold.PLP.ligand.clash>
0.0000

> <Gold.PLP.ligand.torsion>
1.0618

> <Gold.PLP.Chemscore.Hbond>
2.0762

> <Gold.PLP.Chemscore.CHOScore>
0.0000

> <Gold.PLP.Chemscore.Metal>
0.0000

> <Gold.Chemscore.Hbonds>
donor molecule, donor type, donor heavy atom, donor atom, acceptor molecule, acceptor atom, score
      P1  H  7997  8009       L1    18  1.00
      P1  H 10752 10764       L1    12  0.21
      P1  H 10752 10765       L1    17  0.88

> <Gold.PLP.Chemscore.Internal.Correction>
0.1422

> <Gold.Rescore>
     Score         DG    S(hbond)    S(metal)    S(lipo)     H(rot)  DE(clash)    DE(int)     intcor
     16.95     -21.85       1.26        0.00     145.81       1.92       1.79       3.11       ----

> <Gold.Chemscore.Fitness>
16.9534

> <Gold.Chemscore.DG>
-21.8496

> <Gold.Chemscore.ZeroCoef>
-5.4800

> <Gold.Chemscore.Hbond>
1.2617

> <Gold.Chemscore.Metal>
0.0000

> <Gold.Chemscore.Lipo>
145.8092

> <Gold.Chemscore.Internal_Hbond>
0.0000

> <Gold.Chemscore.DEClash>
1.7855

> <Gold.Chemscore.DEInternal>
3.1106

> <Gold.Chemscore.Rot>
1.9156

> <Gold.Chemscore.Internal.Correction>
   9.000000E+99

> <Gold.Chemscore.Hbonds>
donor molecule, donor type, donor heavy atom, donor atom, acceptor molecule, acceptor atom, score
      P1  H  7997  8009       L1    18  0.08
      P1  H 10752 10764       L1    12  0.19
      P1  H 10752 10765       L1    17  0.59

> <Gold.Chemscore.Hbond.Weighted>
-4.2140

> <Gold.Chemscore.Metal.Weighted>
-0.0000

> <Gold.Chemscore.Lipo.Weighted>
-17.0597

> <Gold.Chemscore.Internal_Hbond.Weighted>
0.0000

> <Gold.Chemscore.DEClash.Weighted>
1.7855

> <Gold.Chemscore.DEInternal.Weighted>
3.1106

> <Gold.Chemscore.Rot.Weighted>
4.9041

> <Gold.Chemscore.Internal.Correction.Weighted>
   9.000000E+99

> <Gold.Protein.RotatedTorsions>
[ 6907 6896 6895 6894 ] final  -18.88 input  -60.11 | X-H torsion
[ 7974 7965 7964 7962 ] final -160.44 input  175.53 | X-H torsion
[ 8008 7997 7996 7995 ] final  166.18 input   59.86 | X-H torsion
[ 10167 10162 10161 10158 ] final    1.39 input  -65.29 | X-H torsion
[ 10718 10713 10712 10709 ] final  162.25 input   66.30 | X-H torsion
[ 10763 10752 10751 10750 ] final   13.71 input  -60.55 | X-H torsion
[ 11005 11000 10999 10996 ] final   22.89 input  -57.11 | X-H torsion

> <Gold.Protein.ActiveResidues>
 VAL166  LYS551  ARG553  GLY616  TRP617  ASP618  TYR619  PRO620  LYS621  CYS622 
 ASP623  PHE694  ASN695  SER759  ASP760  ASP761  ALA762  ILE779  LEU786  VAL792 
 PHE793  MET794  SER795  GLU796  ALA797  LYS798  CYS799  TRP800  GLU811  SER814 

> <Gold.Protein.RotatedAtoms>
  151.2715  135.0686  159.9135 H   0  0  0  0  0  0  0  0  0  0  0  0  # atno 6907 bound_to 6896
  152.5349  134.0125  159.7955 H   0  0  0  0  0  0  0  0  0  0  0  0  # atno 6908 bound_to 6896
  151.0364  133.5694  159.2686 H   0  0  0  0  0  0  0  0  0  0  0  0  # atno 6909 bound_to 6896
  144.7427  140.3541  143.6110 H   0  0  0  0  0  0  0  0  0  0  0  0  # atno 7974 bound_to 7965
  156.1740  140.1650  156.8396 H   0  0  0  0  0  0  0  0  0  0  0  0  # atno 8008 bound_to 7997
  154.5287  140.0761  156.8339 H   0  0  0  0  0  0  0  0  0  0  0  0  # atno 8009 bound_to 7997
  155.3452  140.3387  155.4241 H   0  0  0  0  0  0  0  0  0  0  0  0  # atno 8010 bound_to 7997
  140.6685  143.7115  150.7874 H   0  0  0  0  0  0  0  0  0  0  0  0  # atno 10167 bound_to 10162
  157.1252  131.0502  151.2397 H   0  0  0  0  0  0  0  0  0  0  0  0  # atno 10718 bound_to 10713
  153.1694  135.6809  153.8629 H   0  0  0  0  0  0  0  0  0  0  0  0  # atno 10763 bound_to 10752
  153.7998  135.3157  155.3390 H   0  0  0  0  0  0  0  0  0  0  0  0  # atno 10764 bound_to 10752
  154.7988  135.4791  154.0316 H   0  0  0  0  0  0  0  0  0  0  0  0  # atno 10765 bound_to 10752
  140.3756  134.1975  155.7665 H   0  0  0  0  0  0  0  0  0  0  0  0  # atno 11005 bound_to 11000
  145.7246  139.1719  143.2465 LP  0  0  0  0  0  0  0  0  0  0  0  0  # atno 17320 bound_to 7965
  146.1252  140.7258  142.9438 LP  0  0  0  0  0  0  0  0  0  0  0  0  # atno 17321 bound_to 7965
  140.0796  143.4982  152.2537 LP  0  0  0  0  0  0  0  0  0  0  0  0  # atno 17342 bound_to 10162
  139.5943  144.7561  151.3325 LP  0  0  0  0  0  0  0  0  0  0  0  0  # atno 17343 bound_to 10162
  157.4442  130.7561  149.7095 LP  0  0  0  0  0  0  0  0  0  0  0  0  # atno 17370 bound_to 10713
  155.9820  130.4014  150.3442 LP  0  0  0  0  0  0  0  0  0  0  0  0  # atno 17371 bound_to 10713
  141.1940  133.8138  157.0775 LP  0  0  0  0  0  0  0  0  0  0  0  0  # atno 17394 bound_to 11000
  140.0518  134.9802  157.1149 LP  0  0  0  0  0  0  0  0  0  0  0  0  # atno 17395 bound_to 11000

$$$$
