AV-unprocessed.smi:47|AV-procd|sdf|434|dock2
  -GOLD-   2262016303D 1   1.00000     0.00000
 Structure written by MMmdl.
 32 34  0  0  0  0  0  0  0  0  2 V2000
  144.9138  140.7102  155.1049 O   0  0  0  0  0  0  0  0  0  0  0  0
  146.2368  141.1963  155.1841 C   0  0  2  0  0  0  0  0  0  0  0  0
  146.4094  142.5238  154.4459 C   0  0  0  0  0  0  0  0  0  0  0  0
  147.8418  142.5935  154.1028 N   0  3  0  0  0  0  0  0  0  0  0  0
  148.3833  141.2157  154.0805 C   0  0  1  0  0  0  0  0  0  0  0  0
  149.5093  141.2443  155.0744 C   0  0  0  0  0  0  0  0  0  0  0  0
  150.4057  140.2546  155.1451 N   0  0  0  0  0  0  0  0  0  0  0  0
  151.2978  140.5209  156.1231 N   0  0  0  0  0  0  0  0  0  0  0  0
  150.8506  141.6875  156.5838 C   0  0  0  0  0  0  0  0  0  0  0  0
  151.5258  142.3988  157.6942 C   0  0  0  0  0  0  0  0  0  0  0  0
  152.1859  141.6850  158.7241 C   0  0  0  0  0  0  0  0  0  0  0  0
  152.8271  142.3575  159.7825 C   0  0  0  0  0  0  0  0  0  0  0  0
  152.8203  143.7627  159.8311 C   0  0  0  0  0  0  0  0  0  0  0  0
  152.1716  144.4906  158.8182 C   0  0  0  0  0  0  0  0  0  0  0  0
  151.5316  143.8136  157.7619 C   0  0  0  0  0  0  0  0  0  0  0  0
  149.7368  142.1980  155.9771 N   0  0  0  0  0  0  0  0  0  0  0  0
  147.2308  140.2797  154.4729 C   0  0  0  0  0  0  0  0  0  0  0  0
  146.5213  141.3135  156.2307 H   0  0  0  0  0  0  0  0  0  0  0  0
  148.7705  140.9743  153.0896 H   0  0  0  0  0  0  0  0  0  0  0  0
  144.6137  140.7897  154.2119 H   0  0  0  0  0  0  0  0  0  0  0  0
  145.8383  142.5214  153.5160 H   0  0  0  0  0  0  0  0  0  0  0  0
  146.0920  143.3832  155.0368 H   0  0  0  0  0  0  0  0  0  0  0  0
  147.9767  143.0562  153.2155 H   0  0  0  0  0  0  0  0  0  0  0  0
  152.2092  140.6053  158.7135 H   0  0  0  0  0  0  0  0  0  0  0  0
  153.3246  141.7937  160.5579 H   0  0  0  0  0  0  0  0  0  0  0  0
  153.3110  144.2801  160.6422 H   0  0  0  0  0  0  0  0  0  0  0  0
  152.1631  145.5702  158.8507 H   0  0  0  0  0  0  0  0  0  0  0  0
  151.0400  144.3999  156.9995 H   0  0  0  0  0  0  0  0  0  0  0  0
  147.5458  139.4249  155.0725 H   0  0  0  0  0  0  0  0  0  0  0  0
  146.7714  139.8904  153.5628 H   0  0  0  0  0  0  0  0  0  0  0  0
  148.3247  143.1024  154.8302 H   0  0  0  0  0  0  0  0  0  0  0  0
  150.4469  139.4198  154.5774 H   0  0  0  0  0  0  0  0  0  0  0  0
  1  2  1  0  0  0  0
  1 20  1  0  0  0  0
  2 18  1  0  0  0  0
  2 17  1  0  0  0  0
  2  3  1  0  0  0  0
  3  4  1  0  0  0  0
  3 21  1  0  0  0  0
  3 22  1  0  0  0  0
  4  5  1  0  0  0  0
  4 23  1  0  0  0  0
  4 31  1  0  0  0  0
  5 19  1  0  0  0  0
  5  6  1  0  0  0  0
  5 17  1  0  0  0  0
  6 16  2  0  0  0  0
  6  7  1  0  0  0  0
  7  8  1  0  0  0  0
  7 32  1  0  0  0  0
  8  9  2  0  0  0  0
  9 10  1  0  0  0  0
  9 16  1  0  0  0  0
 10 15  1  0  0  0  0
 10 11  2  0  0  0  0
 11 12  1  0  0  0  0
 11 24  1  0  0  0  0
 12 13  2  0  0  0  0
 12 25  1  0  0  0  0
 13 14  1  0  0  0  0
 13 26  1  0  0  0  0
 14 15  2  0  0  0  0
 14 27  1  0  0  0  0
 15 28  1  0  0  0  0
 17 29  1  0  0  0  0
 17 30  1  0  0  0  0
M  CHG  1   4   1
M  END
> <s_m_source_file>
AV-unprocessed.smi

> <i_m_source_file_index>
47

> <i_lp_mmshare_version>
43012

> <i_f3d_flags>
0

> <s_epik_input>
W09IXVtDQEhdMVtDSDJdW05IXVtDQEBIXShbQ0gyXTEpYzJuW25IXWMobjIpLWMzW2NIXVtjSF1bY0hdW2NIXVtjSF0z

> <s_epik_cmdline>
J2VwaWtfcHl0aG9uJywgJy1waCcsICc3LjAnLCAnLXRuJywgJzgnLCAnLW1hJywgJzIwMCcsICctbWV0YWxfYmluZGluZycsICctaW1hZScsICc8aW5maWxlLm1hZT4nLCAnLW9tYWUnLCAnPG91dGZpbGUubWFlPic=

> <r_epik_Ionization_Penalty>
1.14296

> <r_epik_Ionization_Penalty_Charging>
0.0688988

> <r_epik_Ionization_Penalty_Neutral>
1.07406

> <r_epik_State_Penalty>
1.72347

> <r_epik_Charging_Adjusted_Penalty>
1.79237

> <i_epik_Tot_Q>
1

> <i_epik_Tot_abs_Q>
1

> <r_epik_Metal_State_Penalty>
2.22085

> <b_epik_Metal_Only>
0

> <s_lp_Force_Field>
OPLS_2005

> <r_lp_Energy>
30.3424

> <b_lp_Chiralities_Consistent>
1

> <s_lp_Variant>
AV-unprocessed.smi:47-12

> <Gold.Version>
5.8.1

> <Gold.Id.Protein>
6NUR|6NUR_protein|mol2

> <Gold.PLP.Fitness>
42.8374

> <Gold.PLP.PLP>
-35.4527

> <Gold.PLP.part.hbond>
-2.0000

> <Gold.PLP.part.metal>
0.0000

> <Gold.PLP.part.buried>
-6.1957

> <Gold.PLP.part.nonpolar>
-31.3833

> <Gold.PLP.part.repulsive>
4.0344

> <Gold.PLP.ligand.clash>
0.0000

> <Gold.PLP.ligand.torsion>
0.8165

> <Gold.PLP.Chemscore.Hbond>
3.0000

> <Gold.PLP.Chemscore.CHOScore>
0.0000

> <Gold.PLP.Chemscore.Metal>
0.0000

> <Gold.Chemscore.Hbonds>
donor molecule, donor type, donor heavy atom, donor atom, acceptor molecule, acceptor atom, score
      L1  H     1    20       P1 10175  1.00
      L1  H     4    31       P1  8028  2.00

> <Gold.PLP.Chemscore.Internal.Correction>
0.0176

> <Gold.Rescore>
     Score         DG    S(hbond)    S(metal)    S(lipo)     H(rot)  DE(clash)    DE(int)     intcor
     16.23     -17.33       1.77        0.00      83.47       1.50       0.38       0.72       ----

> <Gold.Chemscore.Fitness>
16.2300

> <Gold.Chemscore.DG>
-17.3330

> <Gold.Chemscore.ZeroCoef>
-5.4800

> <Gold.Chemscore.Hbond>
1.7719

> <Gold.Chemscore.Metal>
0.0000

> <Gold.Chemscore.Lipo>
83.4715

> <Gold.Chemscore.Internal_Hbond>
0.0000

> <Gold.Chemscore.DEClash>
0.3793

> <Gold.Chemscore.DEInternal>
0.7237

> <Gold.Chemscore.Rot>
1.4966

> <Gold.Chemscore.Internal.Correction>
   9.000000E+99

> <Gold.Chemscore.Hbonds>
donor molecule, donor type, donor heavy atom, donor atom, acceptor molecule, acceptor atom, score
      L1  H     1    20       P1 10175  0.95
      L1  H     4    31       P1  8028  0.94

> <Gold.Chemscore.Hbond.Weighted>
-5.9180

> <Gold.Chemscore.Metal.Weighted>
-0.0000

> <Gold.Chemscore.Lipo.Weighted>
-9.7662

> <Gold.Chemscore.Internal_Hbond.Weighted>
0.0000

> <Gold.Chemscore.DEClash.Weighted>
0.3793

> <Gold.Chemscore.DEInternal.Weighted>
0.7237

> <Gold.Chemscore.Rot.Weighted>
3.8312

> <Gold.Chemscore.Internal.Correction.Weighted>
   9.000000E+99

> <Gold.Protein.RotatedTorsions>
[ 6907 6896 6895 6894 ] final  -18.21 input  -60.11 | X-H torsion
[ 7974 7965 7964 7962 ] final -103.36 input  175.53 | X-H torsion
[ 8008 7997 7996 7995 ] final  131.53 input   59.86 | X-H torsion
[ 10167 10162 10161 10158 ] final -168.37 input  -65.29 | X-H torsion
[ 10718 10713 10712 10709 ] final  -51.74 input   66.30 | X-H torsion
[ 10763 10752 10751 10750 ] final   85.78 input  -60.55 | X-H torsion
[ 11005 11000 10999 10996 ] final -103.70 input  -57.11 | X-H torsion

> <Gold.Protein.ActiveResidues>
 VAL166  LYS551  ARG553  GLY616  TRP617  ASP618  TYR619  PRO620  LYS621  CYS622 
 ASP623  PHE694  ASN695  SER759  ASP760  ASP761  ALA762  ILE779  LEU786  VAL792 
 PHE793  MET794  SER795  GLU796  ALA797  LYS798  CYS799  TRP800  GLU811  SER814 

> <Gold.Protein.RotatedAtoms>
  151.2816  135.0715  159.9171 H   0  0  0  0  0  0  0  0  0  0  0  0  # atno 6907 bound_to 6896
  152.5333  134.0025  159.7911 H   0  0  0  0  0  0  0  0  0  0  0  0  # atno 6908 bound_to 6896
  151.0280  133.5766  159.2694 H   0  0  0  0  0  0  0  0  0  0  0  0  # atno 6909 bound_to 6896
  145.2569  140.9256  143.3063 H   0  0  0  0  0  0  0  0  0  0  0  0  # atno 7974 bound_to 7965
  156.2971  140.2569  156.2941 H   0  0  0  0  0  0  0  0  0  0  0  0  # atno 8008 bound_to 7997
  154.9481  140.0395  157.2149 H   0  0  0  0  0  0  0  0  0  0  0  0  # atno 8009 bound_to 7997
  154.8062  140.2836  155.5890 H   0  0  0  0  0  0  0  0  0  0  0  0  # atno 8010 bound_to 7997
  139.5989  144.1052  152.1721 H   0  0  0  0  0  0  0  0  0  0  0  0  # atno 10167 bound_to 10162
  156.1683  130.4149  149.9687 H   0  0  0  0  0  0  0  0  0  0  0  0  # atno 10718 bound_to 10713
  153.1507  135.4605  154.9632 H   0  0  0  0  0  0  0  0  0  0  0  0  # atno 10763 bound_to 10752
  154.7822  135.3192  154.7967 H   0  0  0  0  0  0  0  0  0  0  0  0  # atno 10764 bound_to 10752
  153.8473  135.6924  153.4850 H   0  0  0  0  0  0  0  0  0  0  0  0  # atno 10765 bound_to 10752
  141.1134  133.8662  157.1519 H   0  0  0  0  0  0  0  0  0  0  0  0  # atno 11005 bound_to 11000
  144.9452  139.4144  143.6429 LP  0  0  0  0  0  0  0  0  0  0  0  0  # atno 17320 bound_to 7965
  146.3286  139.8432  142.8886 LP  0  0  0  0  0  0  0  0  0  0  0  0  # atno 17321 bound_to 7965
  140.0644  144.5830  150.7239 LP  0  0  0  0  0  0  0  0  0  0  0  0  # atno 17342 bound_to 10162
  140.7234  143.2611  151.4202 LP  0  0  0  0  0  0  0  0  0  0  0  0  # atno 17343 bound_to 10162
  156.7495  130.9110  151.3636 LP  0  0  0  0  0  0  0  0  0  0  0  0  # atno 17370 bound_to 10713
  157.6784  130.9116  150.0206 LP  0  0  0  0  0  0  0  0  0  0  0  0  # atno 17371 bound_to 10713
  140.0041  135.0016  157.0253 LP  0  0  0  0  0  0  0  0  0  0  0  0  # atno 17394 bound_to 11000
  140.4714  134.1383  155.7203 LP  0  0  0  0  0  0  0  0  0  0  0  0  # atno 17395 bound_to 11000

$$$$
