AV-unprocessed.smi:2439|AV-procd|sdf|9611|dock6
  -GOLD-   2272013243D 1   1.00000     0.00000
 Structure written by MMmdl.
 40 42  0  0  0  0  0  0  0  0  1 V2000
  153.6421  139.6036  158.6062 N   0  0  0  0  0  0  0  0  0  0  0  0
  153.4153  140.4818  159.3245 C   0  0  0  0  0  0  0  0  0  0  0  0
  153.1291  141.5888  160.2290 C   0  0  0  0  0  0  0  0  0  0  0  0
  153.6312  141.5410  161.5465 C   0  0  0  0  0  0  0  0  0  0  0  0
  153.3590  142.6067  162.4236 C   0  0  0  0  0  0  0  0  0  0  0  0
  152.5887  143.6819  161.9454 C   0  0  0  0  0  0  0  0  0  0  0  0
  152.1005  143.7391  160.6889 N   0  0  0  0  0  0  0  0  0  0  0  0
  152.3620  142.7185  159.8353 C   0  0  0  0  0  0  0  0  0  0  0  0
  151.8403  142.8048  158.5308 N   0  0  0  0  0  0  0  0  0  0  0  0
  150.4054  142.7916  158.2721 C   0  0  0  0  0  0  0  0  0  0  0  0
  149.9837  141.6304  157.3569 C   0  0  2  0  0  0  0  0  0  0  0  0
  150.8887  140.3999  157.5488 C   0  0  0  0  0  0  0  0  0  0  0  0
  150.5412  139.3216  156.6322 N   0  0  0  0  0  0  0  0  0  0  0  0
  151.4111  138.1620  156.8210 C   0  0  0  0  0  0  0  0  0  0  0  0
  151.0433  136.9963  155.8897 C   0  0  0  0  0  0  0  0  0  0  0  0
  151.0765  137.4538  154.4243 C   0  0  0  0  0  0  0  0  0  0  0  0
  150.2038  138.7054  154.2426 C   0  0  0  0  0  0  0  0  0  0  0  0
  150.5996  139.8052  155.2494 C   0  0  1  0  0  0  0  0  0  0  0  0
  149.7157  141.0558  155.0663 C   0  0  0  0  0  0  0  0  0  0  0  0
  150.0952  142.0597  156.0021 O   0  0  0  0  0  0  0  0  0  0  0  0
  154.2188  140.7000  161.8860 H   0  0  0  0  0  0  0  0  0  0  0  0
  153.7310  142.5997  163.4373 H   0  0  0  0  0  0  0  0  0  0  0  0
  152.3573  144.5181  162.5885 H   0  0  0  0  0  0  0  0  0  0  0  0
  152.4541  143.0765  157.7761 H   0  0  0  0  0  0  0  0  0  0  0  0
  149.8831  142.7175  159.2262 H   0  0  0  0  0  0  0  0  0  0  0  0
  150.1055  143.7463  157.8384 H   0  0  0  0  0  0  0  0  0  0  0  0
  148.9499  141.3486  157.5649 H   0  0  0  0  0  0  0  0  0  0  0  0
  151.9306  140.6892  157.4009 H   0  0  0  0  0  0  0  0  0  0  0  0
  150.8067  140.0471  158.5776 H   0  0  0  0  0  0  0  0  0  0  0  0
  152.4504  138.4477  156.6510 H   0  0  0  0  0  0  0  0  0  0  0  0
  151.3499  137.8232  157.8558 H   0  0  0  0  0  0  0  0  0  0  0  0
  151.7302  136.1630  156.0394 H   0  0  0  0  0  0  0  0  0  0  0  0
  150.0469  136.6290  156.1388 H   0  0  0  0  0  0  0  0  0  0  0  0
  152.1036  137.6795  154.1351 H   0  0  0  0  0  0  0  0  0  0  0  0
  150.7340  136.6533  153.7683 H   0  0  0  0  0  0  0  0  0  0  0  0
  150.2987  139.0759  153.2213 H   0  0  0  0  0  0  0  0  0  0  0  0
  149.1548  138.4398  154.3807 H   0  0  0  0  0  0  0  0  0  0  0  0
  151.6278  140.0992  155.0308 H   0  0  0  0  0  0  0  0  0  0  0  0
  149.8275  141.4571  154.0588 H   0  0  0  0  0  0  0  0  0  0  0  0
  148.6601  140.8115  155.1976 H   0  0  0  0  0  0  0  0  0  0  0  0
  1  2  3  0  0  0  0
  2  3  1  0  0  0  0
  3  8  1  0  0  0  0
  3  4  2  0  0  0  0
  4  5  1  0  0  0  0
  4 21  1  0  0  0  0
  5  6  2  0  0  0  0
  5 22  1  0  0  0  0
  6  7  1  0  0  0  0
  6 23  1  0  0  0  0
  7  8  2  0  0  0  0
  8  9  1  0  0  0  0
  9 10  1  0  0  0  0
  9 24  1  0  0  0  0
 10 11  1  0  0  0  0
 10 25  1  0  0  0  0
 10 26  1  0  0  0  0
 11 20  1  0  0  0  0
 11 12  1  0  0  0  0
 11 27  1  0  0  0  0
 12 13  1  0  0  0  0
 12 28  1  0  0  0  0
 12 29  1  0  0  0  0
 13 18  1  0  0  0  0
 13 14  1  0  0  0  0
 14 15  1  0  0  0  0
 14 30  1  0  0  0  0
 14 31  1  0  0  0  0
 15 16  1  0  0  0  0
 15 32  1  0  0  0  0
 15 33  1  0  0  0  0
 16 17  1  0  0  0  0
 16 34  1  0  0  0  0
 16 35  1  0  0  0  0
 17 18  1  0  0  0  0
 17 36  1  0  0  0  0
 17 37  1  0  0  0  0
 18 19  1  0  0  0  0
 18 38  1  0  0  0  0
 19 20  1  0  0  0  0
 19 39  1  0  0  0  0
 19 40  1  0  0  0  0
M  END
> <s_m_source_file>
AV-unprocessed.smi

> <i_m_source_file_index>
2439

> <i_lp_mmshare_version>
43012

> <i_f3d_flags>
0

> <s_epik_input>
TiNDYzFbY0hdW2NIXVtjSF1uYzFbTkhdW0NIMl1bQ0BIXShbQ0gyXTIpT1tDSDJdW0NAQEhdKE4yMylbQ0gyXVtDSDJdW0NIMl1bQ0gyXTM=

> <s_epik_cmdline>
J2VwaWtfcHl0aG9uJywgJy1waCcsICc3LjAnLCAnLXRuJywgJzgnLCAnLW1hJywgJzIwMCcsICctbWV0YWxfYmluZGluZycsICctaW1hZScsICc8aW5maWxlLm1hZT4nLCAnLW9tYWUnLCAnPG91dGZpbGUubWFlPic=

> <r_epik_Ionization_Penalty>
1.22355

> <r_epik_Ionization_Penalty_Charging>
0

> <r_epik_Ionization_Penalty_Neutral>
1.22355

> <r_epik_State_Penalty>
1.29103

> <r_epik_Charging_Adjusted_Penalty>
1.29103

> <i_epik_Tot_Q>
0

> <i_epik_Tot_abs_Q>
0

> <r_epik_Metal_State_Penalty>
1.29103

> <b_epik_Metal_Only>
0

> <s_lp_Force_Field>
OPLS_2005

> <r_lp_Energy>
37.4104

> <b_lp_Chiralities_Consistent>
1

> <s_lp_Variant>
AV-unprocessed.smi:2439-9

> <Gold.Version>
5.8.1

> <Gold.Id.Protein>
6NUR|6NUR_protein|mol2

> <Gold.PLP.Fitness>
43.1303

> <Gold.PLP.PLP>
-42.0450

> <Gold.PLP.part.hbond>
-1.0000

> <Gold.PLP.part.metal>
0.0000

> <Gold.PLP.part.buried>
-5.4699

> <Gold.PLP.part.nonpolar>
-36.0911

> <Gold.PLP.part.repulsive>
1.1522

> <Gold.PLP.ligand.clash>
0.0000

> <Gold.PLP.ligand.torsion>
0.9583

> <Gold.PLP.Chemscore.Hbond>
1.0000

> <Gold.PLP.Chemscore.CHOScore>
0.0000

> <Gold.PLP.Chemscore.Metal>
0.0000

> <Gold.Chemscore.Hbonds>
donor molecule, donor type, donor heavy atom, donor atom, acceptor molecule, acceptor atom, score
      P1  H  7997  8010       L1     1  0.99

> <Gold.PLP.Chemscore.Internal.Correction>
0.0019

> <Gold.Rescore>
     Score         DG    S(hbond)    S(metal)    S(lipo)     H(rot)  DE(clash)    DE(int)     intcor
     16.17     -17.14       0.89        0.00     101.47       1.25       0.02       0.95       ----

> <Gold.Chemscore.Fitness>
16.1692

> <Gold.Chemscore.DG>
-17.1440

> <Gold.Chemscore.ZeroCoef>
-5.4800

> <Gold.Chemscore.Hbond>
0.8946

> <Gold.Chemscore.Metal>
0.0000

> <Gold.Chemscore.Lipo>
101.4731

> <Gold.Chemscore.Internal_Hbond>
0.0000

> <Gold.Chemscore.DEClash>
0.0214

> <Gold.Chemscore.DEInternal>
0.9534

> <Gold.Chemscore.Rot>
1.2485

> <Gold.Chemscore.Internal.Correction>
   9.000000E+99

> <Gold.Chemscore.Hbonds>
donor molecule, donor type, donor heavy atom, donor atom, acceptor molecule, acceptor atom, score
      P1  H  7997  8010       L1     1  0.80

> <Gold.Chemscore.Hbond.Weighted>
-2.9878

> <Gold.Chemscore.Metal.Weighted>
-0.0000

> <Gold.Chemscore.Lipo.Weighted>
-11.8724

> <Gold.Chemscore.Internal_Hbond.Weighted>
0.0000

> <Gold.Chemscore.DEClash.Weighted>
0.0214

> <Gold.Chemscore.DEInternal.Weighted>
0.9534

> <Gold.Chemscore.Rot.Weighted>
3.1961

> <Gold.Chemscore.Internal.Correction.Weighted>
   9.000000E+99

> <Gold.Protein.RotatedTorsions>
[ 6907 6896 6895 6894 ] final  -39.42 input  -60.11 | X-H torsion
[ 7974 7965 7964 7962 ] final   44.52 input  175.53 | X-H torsion
[ 8008 7997 7996 7995 ] final    5.13 input   59.86 | X-H torsion
[ 10167 10162 10161 10158 ] final  137.26 input  -65.29 | X-H torsion
[ 10718 10713 10712 10709 ] final -144.46 input   66.30 | X-H torsion
[ 10763 10752 10751 10750 ] final   67.81 input  -60.55 | X-H torsion
[ 11005 11000 10999 10996 ] final -174.52 input  -57.11 | X-H torsion

> <Gold.Protein.ActiveResidues>
 VAL166  LYS551  ARG553  GLY616  TRP617  ASP618  TYR619  PRO620  LYS621  CYS622 
 ASP623  PHE694  ASN695  SER759  ASP760  ASP761  ALA762  ILE779  LEU786  VAL792 
 PHE793  MET794  SER795  GLU796  ALA797  LYS798  CYS799  TRP800  GLU811  SER814 

> <Gold.Protein.RotatedAtoms>
  150.9906  134.9241  159.7896 H   0  0  0  0  0  0  0  0  0  0  0  0  # atno 6907 bound_to 6896
  152.5249  134.3287  159.9185 H   0  0  0  0  0  0  0  0  0  0  0  0  # atno 6908 bound_to 6896
  151.3293  133.3966  159.2695 H   0  0  0  0  0  0  0  0  0  0  0  0  # atno 6909 bound_to 6896
  146.0561  139.5065  142.9687 H   0  0  0  0  0  0  0  0  0  0  0  0  # atno 7974 bound_to 7965
  154.7245  140.2718  155.6511 H   0  0  0  0  0  0  0  0  0  0  0  0  # atno 8008 bound_to 7997
  156.2833  140.2728  156.1852 H   0  0  0  0  0  0  0  0  0  0  0  0  # atno 8009 bound_to 7997
  155.0463  140.0371  157.2517 H   0  0  0  0  0  0  0  0  0  0  0  0  # atno 8010 bound_to 7997
  139.5150  144.6420  151.5544 H   0  0  0  0  0  0  0  0  0  0  0  0  # atno 10167 bound_to 10162
  156.3704  130.7785  151.1965 H   0  0  0  0  0  0  0  0  0  0  0  0  # atno 10718 bound_to 10713
  153.0204  135.5270  154.7037 H   0  0  0  0  0  0  0  0  0  0  0  0  # atno 10763 bound_to 10752
  154.6138  135.2881  155.0404 H   0  0  0  0  0  0  0  0  0  0  0  0  # atno 10764 bound_to 10752
  154.1416  135.6577  153.4996 H   0  0  0  0  0  0  0  0  0  0  0  0  # atno 10765 bound_to 10752
  140.4736  134.6142  157.4892 H   0  0  0  0  0  0  0  0  0  0  0  0  # atno 11005 bound_to 11000
  145.6641  141.0233  143.1693 LP  0  0  0  0  0  0  0  0  0  0  0  0  # atno 17320 bound_to 7965
  144.7149  139.8234  143.7402 LP  0  0  0  0  0  0  0  0  0  0  0  0  # atno 17321 bound_to 7965
  140.6190  143.9295  150.6511 LP  0  0  0  0  0  0  0  0  0  0  0  0  # atno 17342 bound_to 10162
  140.2562  143.3557  152.1363 LP  0  0  0  0  0  0  0  0  0  0  0  0  # atno 17343 bound_to 10162
  157.7483  131.0374  150.4453 LP  0  0  0  0  0  0  0  0  0  0  0  0  # atno 17370 bound_to 10713
  156.4679  130.4046  149.6536 LP  0  0  0  0  0  0  0  0  0  0  0  0  # atno 17371 bound_to 10713
  139.9870  134.7046  155.9757 LP  0  0  0  0  0  0  0  0  0  0  0  0  # atno 17394 bound_to 11000
  141.1565  133.6542  156.4179 LP  0  0  0  0  0  0  0  0  0  0  0  0  # atno 17395 bound_to 11000

$$$$
