AV-unprocessed.smi:2142|AV-procd|sdf|8721|dock10
  -GOLD-   2272011493D 1   1.00000     0.00000
 Structure written by MMmdl.
 39 40  0  0  0  0  0  0  0  0  2 V2000
  148.8610  133.1094  152.2042 C   0  0  0  0  0  0  0  0  0  0  0  0
  149.6283  132.5381  153.2492 O   0  0  0  0  0  0  0  0  0  0  0  0
  149.2448  133.0157  154.5281 C   0  0  0  0  0  0  0  0  0  0  0  0
  149.6279  134.4935  154.6525 C   0  0  0  0  0  0  0  0  0  0  0  0
  150.7340  134.6109  155.5426 O   0  0  0  0  0  0  0  0  0  0  0  0
  151.1921  135.8735  155.8599 C   0  0  0  0  0  0  0  0  0  0  0  0
  150.3654  136.9792  155.5843 C   0  0  0  0  0  0  0  0  0  0  0  0
  150.8343  138.2684  155.8996 C   0  0  0  0  0  0  0  0  0  0  0  0
  152.1131  138.4282  156.4772 C   0  0  0  0  0  0  0  0  0  0  0  0
  152.5965  139.6406  156.7909 N   0  5  0  0  0  0  0  0  0  0  0  0
  151.8565  140.7583  156.5586 C   0  0  0  0  0  0  0  0  0  0  0  0
  151.2257  140.9696  155.5199 O   0  0  0  0  0  0  0  0  0  0  0  0
  151.7836  141.8250  157.5980 C   0  0  0  0  0  0  0  0  0  0  0  0
  152.1623  141.5649  158.8104 N   0  0  0  0  0  0  0  0  0  0  0  0
  152.1390  142.5166  159.8090 N   0  0  0  0  0  0  0  0  0  0  0  0
  152.8490  142.1409  161.0298 C   0  0  0  0  0  0  0  0  0  0  0  0
  151.4977  143.7080  159.7231 C   0  0  0  0  0  0  0  0  0  0  0  0
  151.5007  144.5532  160.6182 O   0  0  0  0  0  0  0  0  0  0  0  0
  150.7103  143.9676  158.4364 C   0  0  0  0  0  0  0  0  0  0  0  0
  151.3038  143.2173  157.2279 C   0  0  0  0  0  0  0  0  0  0  0  0
  152.8535  137.2484  156.7181 C   0  0  0  0  0  0  0  0  0  0  0  0
  152.4181  136.0054  156.4213 N   0  0  0  0  0  0  0  0  0  0  0  0
  149.1896  132.7068  151.2461 H   0  0  0  0  0  0  0  0  0  0  0  0
  148.9813  134.1931  152.1734 H   0  0  0  0  0  0  0  0  0  0  0  0
  147.8014  132.8779  152.3210 H   0  0  0  0  0  0  0  0  0  0  0  0
  148.1646  132.9118  154.6393 H   0  0  0  0  0  0  0  0  0  0  0  0
  149.7136  132.4315  155.3216 H   0  0  0  0  0  0  0  0  0  0  0  0
  149.8618  134.9076  153.6704 H   0  0  0  0  0  0  0  0  0  0  0  0
  148.7786  135.0468  155.0566 H   0  0  0  0  0  0  0  0  0  0  0  0
  149.3920  136.8429  155.1373 H   0  0  0  0  0  0  0  0  0  0  0  0
  150.2158  139.1300  155.6936 H   0  0  0  0  0  0  0  0  0  0  0  0
  152.1671  142.1225  161.8811 H   0  0  0  0  0  0  0  0  0  0  0  0
  153.6461  142.8537  161.2446 H   0  0  0  0  0  0  0  0  0  0  0  0
  153.3044  141.1524  160.9502 H   0  0  0  0  0  0  0  0  0  0  0  0
  149.6860  143.6342  158.6075 H   0  0  0  0  0  0  0  0  0  0  0  0
  150.6632  145.0379  158.2332 H   0  0  0  0  0  0  0  0  0  0  0  0
  152.1359  143.7841  156.8089 H   0  0  0  0  0  0  0  0  0  0  0  0
  150.5404  143.1706  156.4505 H   0  0  0  0  0  0  0  0  0  0  0  0
  153.8368  137.3034  157.1625 H   0  0  0  0  0  0  0  0  0  0  0  0
  1  2  1  0  0  0  0
  1 23  1  0  0  0  0
  1 24  1  0  0  0  0
  1 25  1  0  0  0  0
  2  3  1  0  0  0  0
  3  4  1  0  0  0  0
  3 26  1  0  0  0  0
  3 27  1  0  0  0  0
  4  5  1  0  0  0  0
  4 28  1  0  0  0  0
  4 29  1  0  0  0  0
  5  6  1  0  0  0  0
  6 22  1  0  0  0  0
  6  7  2  0  0  0  0
  7  8  1  0  0  0  0
  7 30  1  0  0  0  0
  8  9  2  0  0  0  0
  8 31  1  0  0  0  0
  9 10  1  0  0  0  0
  9 21  1  0  0  0  0
 10 11  1  0  0  0  0
 11 12  2  0  0  0  0
 11 13  1  0  0  0  0
 13 20  1  0  0  0  0
 13 14  2  0  0  0  0
 14 15  1  0  0  0  0
 15 16  1  0  0  0  0
 15 17  1  0  0  0  0
 16 32  1  0  0  0  0
 16 33  1  0  0  0  0
 16 34  1  0  0  0  0
 17 18  2  0  0  0  0
 17 19  1  0  0  0  0
 19 20  1  0  0  0  0
 19 35  1  0  0  0  0
 19 36  1  0  0  0  0
 20 37  1  0  0  0  0
 20 38  1  0  0  0  0
 21 22  2  0  0  0  0
 21 39  1  0  0  0  0
M  CHG  1  10  -1
M  END
> <s_m_source_file>
AV-unprocessed.smi

> <i_m_source_file_index>
2142

> <i_lp_mmshare_version>
43012

> <i_f3d_flags>
0

> <s_epik_input>
W0NIM11PW0NIMl1bQ0gyXU9jMVtjSF1bY0hdYyhbY0hdbjEpW05IXUMoPU8pQzI9Tk4oW0NIM10pQyg9TylbQ0gyXVtDSDJdMg==

> <s_epik_cmdline>
J2VwaWtfcHl0aG9uJywgJy1waCcsICc3LjAnLCAnLXRuJywgJzgnLCAnLW1hJywgJzIwMCcsICctbWV0YWxfYmluZGluZycsICctaW1hZScsICc8aW5maWxlLm1hZT4nLCAnLW9tYWUnLCAnPG91dGZpbGUubWFlPic=

> <r_lp_tautomer_probability>
1

> <r_epik_Ionization_Penalty>
5.98992

> <r_epik_Ionization_Penalty_Charging>
5.98968

> <r_epik_Ionization_Penalty_Neutral>
0.000245408

> <r_epik_State_Penalty>
5.98965

> <r_epik_Charging_Adjusted_Penalty>
11.9793

> <i_epik_Tot_Q>
-1

> <i_epik_Tot_abs_Q>
1

> <r_epik_Metal_State_Penalty>
1.94325

> <b_epik_Metal_Only>
1

> <s_epik_Chemistry_Notes>
This compound has an imine and may undergo hydrolysis.

> <s_lp_Force_Field>
OPLS_2005

> <r_lp_Energy>
19.7207

> <b_lp_Chiralities_Consistent>
1

> <s_lp_Variant>
AV-unprocessed.smi:2142-2

> <Gold.Version>
5.8.1

> <Gold.Id.Protein>
6NUR|6NUR_protein|mol2

> <Gold.PLP.Fitness>
42.7824

> <Gold.PLP.PLP>
-34.0679

> <Gold.PLP.part.hbond>
-2.9236

> <Gold.PLP.part.metal>
0.0000

> <Gold.PLP.part.buried>
-6.3108

> <Gold.PLP.part.nonpolar>
-25.0450

> <Gold.PLP.part.repulsive>
0.3148

> <Gold.PLP.ligand.clash>
0.0000

> <Gold.PLP.ligand.torsion>
1.0489

> <Gold.PLP.Chemscore.Hbond>
3.3276

> <Gold.PLP.Chemscore.CHOScore>
0.0000

> <Gold.PLP.Chemscore.Metal>
0.0000

> <Gold.Chemscore.Hbonds>
donor molecule, donor type, donor heavy atom, donor atom, acceptor molecule, acceptor atom, score
      P1  H  7989  7998       L1    12  0.63
      P1  H  7997  8008       L1    10  2.00
      P1  H 10752 10763       L1    22  1.00

> <Gold.PLP.Chemscore.Internal.Correction>
0.8295

> <Gold.Rescore>
     Score         DG    S(hbond)    S(metal)    S(lipo)     H(rot)  DE(clash)    DE(int)     intcor
     13.68     -16.37       1.99        0.00      73.52       1.71       0.19       2.50       ----

> <Gold.Chemscore.Fitness>
13.6786

> <Gold.Chemscore.DG>
-16.3669

> <Gold.Chemscore.ZeroCoef>
-5.4800

> <Gold.Chemscore.Hbond>
1.9939

> <Gold.Chemscore.Metal>
0.0000

> <Gold.Chemscore.Lipo>
73.5172

> <Gold.Chemscore.Internal_Hbond>
0.0000

> <Gold.Chemscore.DEClash>
0.1919

> <Gold.Chemscore.DEInternal>
2.4964

> <Gold.Chemscore.Rot>
1.7087

> <Gold.Chemscore.Internal.Correction>
   9.000000E+99

> <Gold.Chemscore.Hbonds>
donor molecule, donor type, donor heavy atom, donor atom, acceptor molecule, acceptor atom, score
      P1  H  7989  7998       L1    12  0.59
      P1  H  7997  8008       L1    10  0.55
      P1  H 10752 10763       L1    22  0.17

> <Gold.Chemscore.Hbond.Weighted>
-6.6595

> <Gold.Chemscore.Metal.Weighted>
-0.0000

> <Gold.Chemscore.Lipo.Weighted>
-8.6015

> <Gold.Chemscore.Internal_Hbond.Weighted>
0.0000

> <Gold.Chemscore.DEClash.Weighted>
0.1919

> <Gold.Chemscore.DEInternal.Weighted>
2.4964

> <Gold.Chemscore.Rot.Weighted>
4.3742

> <Gold.Chemscore.Internal.Correction.Weighted>
   9.000000E+99

> <Gold.Protein.RotatedTorsions>
[ 6907 6896 6895 6894 ] final  132.53 input  -60.11 | X-H torsion
[ 7974 7965 7964 7962 ] final  134.59 input  175.53 | X-H torsion
[ 8008 7997 7996 7995 ] final  -49.31 input   59.86 | X-H torsion
[ 10167 10162 10161 10158 ] final  150.71 input  -65.29 | X-H torsion
[ 10718 10713 10712 10709 ] final  111.94 input   66.30 | X-H torsion
[ 10763 10752 10751 10750 ] final  105.75 input  -60.55 | X-H torsion
[ 11005 11000 10999 10996 ] final  160.47 input  -57.11 | X-H torsion

> <Gold.Protein.ActiveResidues>
 VAL166  LYS551  ARG553  GLY616  TRP617  ASP618  TYR619  PRO620  LYS621  CYS622 
 ASP623  PHE694  ASN695  SER759  ASP760  ASP761  ALA762  ILE779  LEU786  VAL792 
 PHE793  MET794  SER795  GLU796  ALA797  LYS798  CYS799  TRP800  GLU811  SER814 

> <Gold.Protein.RotatedAtoms>
  152.3314  133.5963  159.5812 H   0  0  0  0  0  0  0  0  0  0  0  0  # atno 6907 bound_to 6896
  150.7425  133.9861  159.3601 H   0  0  0  0  0  0  0  0  0  0  0  0  # atno 6908 bound_to 6896
  151.7736  135.0780  160.0414 H   0  0  0  0  0  0  0  0  0  0  0  0  # atno 6909 bound_to 6896
  144.9749  139.4566  143.5415 H   0  0  0  0  0  0  0  0  0  0  0  0  # atno 7974 bound_to 7965
  154.4042  140.1300  156.4482 H   0  0  0  0  0  0  0  0  0  0  0  0  # atno 8008 bound_to 7997
  155.7392  140.3490  155.5076 H   0  0  0  0  0  0  0  0  0  0  0  0  # atno 8009 bound_to 7997
  155.9055  140.1027  157.1308 H   0  0  0  0  0  0  0  0  0  0  0  0  # atno 8010 bound_to 7997
  139.4847  144.5500  151.7417 H   0  0  0  0  0  0  0  0  0  0  0  0  # atno 10167 bound_to 10162
  157.6418  131.0959  150.6823 H   0  0  0  0  0  0  0  0  0  0  0  0  # atno 10718 bound_to 10713
  153.3836  135.3899  155.1874 H   0  0  0  0  0  0  0  0  0  0  0  0  # atno 10763 bound_to 10752
  154.8711  135.3731  154.4825 H   0  0  0  0  0  0  0  0  0  0  0  0  # atno 10764 bound_to 10752
  153.5305  135.7086  153.5747 H   0  0  0  0  0  0  0  0  0  0  0  0  # atno 10765 bound_to 10752
  140.2063  134.8301  157.3072 H   0  0  0  0  0  0  0  0  0  0  0  0  # atno 11005 bound_to 11000
  146.3392  139.8984  142.8798 LP  0  0  0  0  0  0  0  0  0  0  0  0  # atno 17320 bound_to 7965
  145.2505  141.0042  143.3883 LP  0  0  0  0  0  0  0  0  0  0  0  0  # atno 17321 bound_to 7965
  140.5053  144.1108  150.5981 LP  0  0  0  0  0  0  0  0  0  0  0  0  # atno 17342 bound_to 10162
  140.4015  143.2701  151.9942 LP  0  0  0  0  0  0  0  0  0  0  0  0  # atno 17343 bound_to 10162
  156.7146  130.4662  149.5538 LP  0  0  0  0  0  0  0  0  0  0  0  0  # atno 17370 bound_to 10713
  156.1707  130.6435  151.0833 LP  0  0  0  0  0  0  0  0  0  0  0  0  # atno 17371 bound_to 10713
  140.1999  134.4267  155.7668 LP  0  0  0  0  0  0  0  0  0  0  0  0  # atno 17394 bound_to 11000
  141.2227  133.7067  156.8167 LP  0  0  0  0  0  0  0  0  0  0  0  0  # atno 17395 bound_to 11000

$$$$
