AV-unprocessed.smi:2871|AV-procd|sdf|11032|dock3
  -GOLD-   2272015493D 1   1.00000     0.00000
 Structure written by MMmdl.
 38 40  0  0  0  0  0  0  0  0  1 V2000
  152.0073  144.2487  158.7950 C   0  0  0  0  0  0  0  0  0  0  0  0
  152.2533  143.4768  160.0060 N   0  0  0  0  0  0  0  0  0  0  0  0
  152.0402  144.0813  161.3168 C   0  0  0  0  0  0  0  0  0  0  0  0
  152.6821  142.1342  159.9162 C   0  0  0  0  0  0  0  0  0  0  0  0
  153.6246  141.5829  160.8184 C   0  0  0  0  0  0  0  0  0  0  0  0
  153.9806  140.2288  160.6263 C   0  0  0  0  0  0  0  0  0  0  0  0
  154.9833  139.5211  161.5251 C   0  0  0  0  0  0  0  0  0  0  0  0
  155.3171  140.2711  162.5761 F   0  0  0  0  0  0  0  0  0  0  0  0
  154.4595  138.3789  161.9702 F   0  0  0  0  0  0  0  0  0  0  0  0
  156.0904  139.2466  160.8347 F   0  0  0  0  0  0  0  0  0  0  0  0
  153.4442  139.4919  159.6276 N   0  0  0  0  0  0  0  0  0  0  0  0
  152.5664  140.0995  158.8305 C   0  0  0  0  0  0  0  0  0  0  0  0
  152.0435  139.3195  157.8158 N   0  0  0  0  0  0  0  0  0  0  0  0
  151.2888  139.8374  156.6799 C   0  0  2  0  0  0  0  0  0  0  0  0
  149.9539  139.1205  156.4650 C   0  0  0  0  0  0  0  0  0  0  0  0
  150.0527  138.7082  154.9892 C   0  0  2  0  0  0  0  0  0  0  0  0
  151.0077  137.5231  154.7977 C   0  0  0  0  0  0  0  0  0  0  0  0
  152.3678  138.1812  155.0210 C   0  0  0  0  0  0  0  0  0  0  0  0
  151.9722  139.6389  155.3122 C   0  0  1  0  0  0  0  0  0  0  0  0
  150.8429  139.7622  154.4642 O   0  0  0  0  0  0  0  0  0  0  0  0
  152.1627  141.3697  158.9260 N   0  0  0  0  0  0  0  0  0  0  0  0
  152.9179  144.3264  158.2002 H   0  0  0  0  0  0  0  0  0  0  0  0
  151.6762  145.2604  159.0299 H   0  0  0  0  0  0  0  0  0  0  0  0
  151.2330  143.7780  158.1887 H   0  0  0  0  0  0  0  0  0  0  0  0
  152.9601  144.0655  161.9018 H   0  0  0  0  0  0  0  0  0  0  0  0
  151.2716  143.5375  161.8668 H   0  0  0  0  0  0  0  0  0  0  0  0
  151.7183  145.1189  161.2296 H   0  0  0  0  0  0  0  0  0  0  0  0
  154.0609  142.1592  161.6199 H   0  0  0  0  0  0  0  0  0  0  0  0
  152.2880  138.3400  157.8172 H   0  0  0  0  0  0  0  0  0  0  0  0
  151.0958  140.8995  156.8375 H   0  0  0  0  0  0  0  0  0  0  0  0
  149.8051  138.2603  157.1194 H   0  0  0  0  0  0  0  0  0  0  0  0
  149.1253  139.8120  156.6221 H   0  0  0  0  0  0  0  0  0  0  0  0
  149.0870  138.5811  154.4991 H   0  0  0  0  0  0  0  0  0  0  0  0
  150.8090  136.7107  155.4974 H   0  0  0  0  0  0  0  0  0  0  0  0
  150.9372  137.1270  153.7841 H   0  0  0  0  0  0  0  0  0  0  0  0
  152.9361  137.7220  155.8301 H   0  0  0  0  0  0  0  0  0  0  0  0
  152.9699  138.1225  154.1138 H   0  0  0  0  0  0  0  0  0  0  0  0
  152.7631  140.3597  155.1029 H   0  0  0  0  0  0  0  0  0  0  0  0
  1  2  1  0  0  0  0
  1 22  1  0  0  0  0
  1 23  1  0  0  0  0
  1 24  1  0  0  0  0
  2  3  1  0  0  0  0
  2  4  1  0  0  0  0
  3 25  1  0  0  0  0
  3 26  1  0  0  0  0
  3 27  1  0  0  0  0
  4 21  1  0  0  0  0
  4  5  2  0  0  0  0
  5  6  1  0  0  0  0
  5 28  1  0  0  0  0
  6  7  1  0  0  0  0
  6 11  2  0  0  0  0
  7  8  1  0  0  0  0
  7  9  1  0  0  0  0
  7 10  1  0  0  0  0
 11 12  1  0  0  0  0
 12 13  1  0  0  0  0
 12 21  2  0  0  0  0
 13 14  1  0  0  0  0
 13 29  1  0  0  0  0
 14 19  1  0  0  0  0
 14 15  1  0  0  0  0
 14 30  1  0  0  0  0
 15 16  1  0  0  0  0
 15 31  1  0  0  0  0
 15 32  1  0  0  0  0
 16 20  1  0  0  0  0
 16 17  1  0  0  0  0
 16 33  1  0  0  0  0
 17 18  1  0  0  0  0
 17 34  1  0  0  0  0
 17 35  1  0  0  0  0
 18 19  1  0  0  0  0
 18 36  1  0  0  0  0
 18 37  1  0  0  0  0
 19 20  1  0  0  0  0
 19 38  1  0  0  0  0
M  END
> <s_m_source_file>
AV-unprocessed.smi

> <i_m_source_file_index>
2871

> <i_lp_mmshare_version>
43012

> <i_f3d_flags>
0

> <s_epik_input>
W0NIM11OKFtDSDNdKWMxW2NIXWMoQyhGKShGKUYpbmMobjEpW05IXVtDQEhdKFtDSDJdW0NAQEhdMjMpW0NAQEhdKE8zKVtDSDJdW0NIMl0y

> <s_epik_cmdline>
J2VwaWtfcHl0aG9uJywgJy1waCcsICc3LjAnLCAnLXRuJywgJzgnLCAnLW1hJywgJzIwMCcsICctbWV0YWxfYmluZGluZycsICctaW1hZScsICc8aW5maWxlLm1hZT4nLCAnLW9tYWUnLCAnPG91dGZpbGUubWFlPic=

> <r_lp_tautomer_probability>
1

> <r_epik_Ionization_Penalty>
0.00695968

> <r_epik_Ionization_Penalty_Charging>
0

> <r_epik_Ionization_Penalty_Neutral>
0.00695968

> <r_epik_State_Penalty>
0.0050343

> <r_epik_Charging_Adjusted_Penalty>
0.0050343

> <i_epik_Tot_Q>
0

> <i_epik_Tot_abs_Q>
0

> <r_epik_Metal_State_Penalty>
-0

> <b_epik_Metal_Only>
0

> <s_lp_Force_Field>
OPLS_2005

> <r_lp_Energy>
33.2945

> <b_lp_Chiralities_Consistent>
1

> <s_lp_Variant>
AV-unprocessed.smi:2871-3

> <Gold.Version>
5.8.1

> <Gold.Id.Protein>
6NUR|6NUR_protein|mol2

> <Gold.PLP.Fitness>
46.0712

> <Gold.PLP.PLP>
-44.7602

> <Gold.PLP.part.hbond>
-1.0000

> <Gold.PLP.part.metal>
0.0000

> <Gold.PLP.part.buried>
-3.9270

> <Gold.PLP.part.nonpolar>
-40.2671

> <Gold.PLP.part.repulsive>
0.1831

> <Gold.PLP.ligand.clash>
0.0000

> <Gold.PLP.ligand.torsion>
0.8476

> <Gold.PLP.Chemscore.Hbond>
0.9913

> <Gold.PLP.Chemscore.CHOScore>
0.0000

> <Gold.PLP.Chemscore.Metal>
0.0000

> <Gold.Chemscore.Hbonds>
donor molecule, donor type, donor heavy atom, donor atom, acceptor molecule, acceptor atom, score
      P1  H  7989  7998       L1    20  0.60

> <Gold.PLP.Chemscore.Internal.Correction>
0.0325

> <Gold.Rescore>
     Score         DG    S(hbond)    S(metal)    S(lipo)     H(rot)  DE(clash)    DE(int)     intcor
     15.52     -16.56       0.95        0.00      89.36       1.00       0.13       0.91       ----

> <Gold.Chemscore.Fitness>
15.5199

> <Gold.Chemscore.DG>
-16.5595

> <Gold.Chemscore.ZeroCoef>
-5.4800

> <Gold.Chemscore.Hbond>
0.9535

> <Gold.Chemscore.Metal>
0.0000

> <Gold.Chemscore.Lipo>
89.3575

> <Gold.Chemscore.Internal_Hbond>
0.0000

> <Gold.Chemscore.DEClash>
0.1321

> <Gold.Chemscore.DEInternal>
0.9075

> <Gold.Chemscore.Rot>
1.0000

> <Gold.Chemscore.Internal.Correction>
   9.000000E+99

> <Gold.Chemscore.Hbonds>
donor molecule, donor type, donor heavy atom, donor atom, acceptor molecule, acceptor atom, score
      P1  H  7989  7998       L1    20  0.04

> <Gold.Chemscore.Hbond.Weighted>
-3.1846

> <Gold.Chemscore.Metal.Weighted>
-0.0000

> <Gold.Chemscore.Lipo.Weighted>
-10.4548

> <Gold.Chemscore.Internal_Hbond.Weighted>
0.0000

> <Gold.Chemscore.DEClash.Weighted>
0.1321

> <Gold.Chemscore.DEInternal.Weighted>
0.9075

> <Gold.Chemscore.Rot.Weighted>
2.5600

> <Gold.Chemscore.Internal.Correction.Weighted>
   9.000000E+99

> <Gold.Protein.RotatedTorsions>
[ 6907 6896 6895 6894 ] final   10.51 input  -60.11 | X-H torsion
[ 7974 7965 7964 7962 ] final   93.51 input  175.53 | X-H torsion
[ 8008 7997 7996 7995 ] final  -11.45 input   59.86 | X-H torsion
[ 10167 10162 10161 10158 ] final -121.18 input  -65.29 | X-H torsion
[ 10718 10713 10712 10709 ] final  -57.74 input   66.30 | X-H torsion
[ 10763 10752 10751 10750 ] final   74.37 input  -60.55 | X-H torsion
[ 11005 11000 10999 10996 ] final    7.81 input  -57.11 | X-H torsion

> <Gold.Protein.ActiveResidues>
 VAL166  LYS551  ARG553  GLY616  TRP617  ASP618  TYR619  PRO620  LYS621  CYS622 
 ASP623  PHE694  ASN695  SER759  ASP760  ASP761  ALA762  ILE779  LEU786  VAL792 
 PHE793  MET794  SER795  GLU796  ALA797  LYS798  CYS799  TRP800  GLU811  SER814 

> <Gold.Protein.RotatedAtoms>
  151.7394  135.0857  160.0312 H   0  0  0  0  0  0  0  0  0  0  0  0  # atno 6907 bound_to 6896
  152.3489  133.6152  159.5939 H   0  0  0  0  0  0  0  0  0  0  0  0  # atno 6908 bound_to 6896
  150.7527  133.9521  159.3530 H   0  0  0  0  0  0  0  0  0  0  0  0  # atno 6909 bound_to 6896
  145.4780  139.2279  143.2898 H   0  0  0  0  0  0  0  0  0  0  0  0  # atno 7974 bound_to 7965
  154.5463  140.2302  155.8557 H   0  0  0  0  0  0  0  0  0  0  0  0  # atno 8008 bound_to 7997
  156.1906  140.3078  155.9286 H   0  0  0  0  0  0  0  0  0  0  0  0  # atno 8009 bound_to 7997
  155.3158  140.0438  157.3027 H   0  0  0  0  0  0  0  0  0  0  0  0  # atno 8010 bound_to 7997
  140.0278  143.5278  152.2190 H   0  0  0  0  0  0  0  0  0  0  0  0  # atno 10167 bound_to 10162
  156.1188  130.4168  150.0481 H   0  0  0  0  0  0  0  0  0  0  0  0  # atno 10718 bound_to 10713
  153.0582  135.5028  154.8032 H   0  0  0  0  0  0  0  0  0  0  0  0  # atno 10763 bound_to 10752
  154.6841  135.2973  154.9574 H   0  0  0  0  0  0  0  0  0  0  0  0  # atno 10764 bound_to 10752
  154.0351  135.6724  153.4837 H   0  0  0  0  0  0  0  0  0  0  0  0  # atno 10765 bound_to 10752
  140.5440  134.0347  155.7914 H   0  0  0  0  0  0  0  0  0  0  0  0  # atno 11005 bound_to 11000
  146.2358  140.5564  142.8955 LP  0  0  0  0  0  0  0  0  0  0  0  0  # atno 17320 bound_to 7965
  144.7906  140.6023  143.6544 LP  0  0  0  0  0  0  0  0  0  0  0  0  # atno 17321 bound_to 7965
  139.6096  144.7605  151.2982 LP  0  0  0  0  0  0  0  0  0  0  0  0  # atno 17342 bound_to 10162
  140.7315  143.6850  150.7969 LP  0  0  0  0  0  0  0  0  0  0  0  0  # atno 17343 bound_to 10162
  156.8425  130.9431  151.3631 LP  0  0  0  0  0  0  0  0  0  0  0  0  # atno 17370 bound_to 10713
  157.6371  130.8776  149.9380 LP  0  0  0  0  0  0  0  0  0  0  0  0  # atno 17371 bound_to 10713
  141.1210  133.9460  157.2728 LP  0  0  0  0  0  0  0  0  0  0  0  0  # atno 17394 bound_to 11000
  139.9489  135.0179  156.8935 LP  0  0  0  0  0  0  0  0  0  0  0  0  # atno 17395 bound_to 11000

$$$$
