AV-unprocessed.smi:2063|AV-procd|sdf|8412|dock10
  -GOLD-   2272011103D 1   1.00000     0.00000
 Structure written by MMmdl.
 38 39  0  0  0  0  0  0  0  0  2 V2000
  145.3642  132.7664  160.8900 C   0  0  0  0  0  0  0  0  0  0  0  0
  145.3241  134.2072  161.4199 C   0  0  0  0  0  0  0  0  0  0  0  0
  143.9457  134.8666  161.2695 C   0  0  0  0  0  0  0  0  0  0  0  0
  146.4190  135.0503  160.8446 C   0  0  0  0  0  0  0  0  0  0  0  0
  146.5948  136.3366  161.1629 N   0  0  0  0  0  0  0  0  0  0  0  0
  147.6729  136.8996  160.4960 N   0  0  0  0  0  0  0  0  0  0  0  0
  148.3038  136.0329  159.6913 C   0  0  0  0  0  0  0  0  0  0  0  0
  149.3699  136.3791  158.9513 N   0  5  0  0  0  0  0  0  0  0  0  0
  149.4110  137.5893  158.3487 C   0  0  0  0  0  0  0  0  0  0  0  0
  148.4443  138.2274  157.9264 O   0  0  0  0  0  0  0  0  0  0  0  0
  150.6498  138.0896  158.2346 N   0  0  0  0  0  0  0  0  0  0  0  0
  151.0171  139.3820  157.6579 C   0  0  2  0  0  0  0  0  0  0  0  0
  152.1177  139.1833  156.6042 C   0  0  0  0  0  0  0  0  0  0  0  0
  151.4572  140.3417  158.7795 C   0  0  2  0  0  0  0  0  0  0  0  0
  151.8156  141.7536  158.3061 C   0  0  0  0  0  0  0  0  0  0  0  0
  152.8316  142.2394  159.3295 C   0  0  0  0  0  0  0  0  0  0  0  0
  153.1695  140.9895  160.1451 C   0  0  0  0  0  0  0  0  0  0  0  0
  152.6710  139.9073  159.3732 O   0  0  0  0  0  0  0  0  0  0  0  0
  147.5809  134.4250  159.6856 S   0  0  0  0  0  0  0  0  0  0  0  0
  146.3331  132.3047  161.0837 H   0  0  0  0  0  0  0  0  0  0  0  0
  145.1891  132.7347  159.8142 H   0  0  0  0  0  0  0  0  0  0  0  0
  144.6026  132.1503  161.3686 H   0  0  0  0  0  0  0  0  0  0  0  0
  145.5176  134.1438  162.4916 H   0  0  0  0  0  0  0  0  0  0  0  0
  143.9299  135.8523  161.7354 H   0  0  0  0  0  0  0  0  0  0  0  0
  143.1691  134.2654  161.7429 H   0  0  0  0  0  0  0  0  0  0  0  0
  143.6773  134.9897  160.2198 H   0  0  0  0  0  0  0  0  0  0  0  0
  151.4055  137.5243  158.5927 H   0  0  0  0  0  0  0  0  0  0  0  0
  150.1482  139.8231  157.1664 H   0  0  0  0  0  0  0  0  0  0  0  0
  152.3971  140.1311  156.1434 H   0  0  0  0  0  0  0  0  0  0  0  0
  151.7826  138.5185  155.8074 H   0  0  0  0  0  0  0  0  0  0  0  0
  153.0157  138.7494  157.0452 H   0  0  0  0  0  0  0  0  0  0  0  0
  150.6892  140.3987  159.5537 H   0  0  0  0  0  0  0  0  0  0  0  0
  152.2824  141.7156  157.3209 H   0  0  0  0  0  0  0  0  0  0  0  0
  150.9421  142.4027  158.2354 H   0  0  0  0  0  0  0  0  0  0  0  0
  153.7150  142.6376  158.8295 H   0  0  0  0  0  0  0  0  0  0  0  0
  152.4242  143.0243  159.9676 H   0  0  0  0  0  0  0  0  0  0  0  0
  154.2386  140.8850  160.3312 H   0  0  0  0  0  0  0  0  0  0  0  0
  152.6560  141.0089  161.1076 H   0  0  0  0  0  0  0  0  0  0  0  0
  1  2  1  0  0  0  0
  1 20  1  0  0  0  0
  1 21  1  0  0  0  0
  1 22  1  0  0  0  0
  2  3  1  0  0  0  0
  2  4  1  0  0  0  0
  2 23  1  0  0  0  0
  3 24  1  0  0  0  0
  3 25  1  0  0  0  0
  3 26  1  0  0  0  0
  4 19  1  0  0  0  0
  4  5  2  0  0  0  0
  5  6  1  0  0  0  0
  6  7  2  0  0  0  0
  7  8  1  0  0  0  0
  7 19  1  0  0  0  0
  8  9  1  0  0  0  0
  9 10  2  0  0  0  0
  9 11  1  0  0  0  0
 11 12  1  0  0  0  0
 11 27  1  0  0  0  0
 12 13  1  0  0  0  0
 12 14  1  0  0  0  0
 12 28  1  0  0  0  0
 13 29  1  0  0  0  0
 13 30  1  0  0  0  0
 13 31  1  0  0  0  0
 14 18  1  0  0  0  0
 14 15  1  0  0  0  0
 14 32  1  0  0  0  0
 15 16  1  0  0  0  0
 15 33  1  0  0  0  0
 15 34  1  0  0  0  0
 16 17  1  0  0  0  0
 16 35  1  0  0  0  0
 16 36  1  0  0  0  0
 17 18  1  0  0  0  0
 17 37  1  0  0  0  0
 17 38  1  0  0  0  0
M  CHG  1   8  -1
M  END
> <s_m_source_file>
AV-unprocessed.smi

> <i_m_source_file_index>
2063

> <i_lp_mmshare_version>
43012

> <i_f3d_flags>
0

> <s_epik_input>
W0NIM11bQ0hdKFtDSDNdKWMxbm5jKHMxKVtOSF1DKD1PKVtOSF1bQ0BIXShbQ0gzXSlbQ0BASF0yW0NIMl1bQ0gyXVtDSDJdTzI=

> <s_epik_cmdline>
J2VwaWtfcHl0aG9uJywgJy1waCcsICc3LjAnLCAnLXRuJywgJzgnLCAnLW1hJywgJzIwMCcsICctbWV0YWxfYmluZGluZycsICctaW1hZScsICc8aW5maWxlLm1hZT4nLCAnLW9tYWUnLCAnPG91dGZpbGUubWFlPic=

> <r_lp_tautomer_probability>
1

> <r_epik_Ionization_Penalty>
4.37022

> <r_epik_Ionization_Penalty_Charging>
4.21437

> <r_epik_Ionization_Penalty_Neutral>
0.15585

> <r_epik_State_Penalty>
4.21389

> <r_epik_Charging_Adjusted_Penalty>
8.42826

> <i_epik_Tot_Q>
-1

> <i_epik_Tot_abs_Q>
1

> <r_epik_Metal_State_Penalty>
0.693772

> <b_epik_Metal_Only>
1

> <s_lp_Force_Field>
OPLS_2005

> <r_lp_Energy>
9.58619

> <b_lp_Chiralities_Consistent>
1

> <s_lp_Variant>
AV-unprocessed.smi:2063-5

> <Gold.Version>
5.8.1

> <Gold.Id.Protein>
6NUR|6NUR_protein|mol2

> <Gold.PLP.Fitness>
42.9040

> <Gold.PLP.PLP>
-33.2700

> <Gold.PLP.part.hbond>
-3.0330

> <Gold.PLP.part.metal>
0.0000

> <Gold.PLP.part.buried>
-4.9708

> <Gold.PLP.part.nonpolar>
-25.1685

> <Gold.PLP.part.repulsive>
0.1410

> <Gold.PLP.ligand.clash>
0.0000

> <Gold.PLP.ligand.torsion>
0.6916

> <Gold.PLP.Chemscore.Hbond>
3.6305

> <Gold.PLP.Chemscore.CHOScore>
0.0000

> <Gold.PLP.Chemscore.Metal>
0.0000

> <Gold.Chemscore.Hbonds>
donor molecule, donor type, donor heavy atom, donor atom, acceptor molecule, acceptor atom, score
      P1  H  6896  6909       L1     8  0.85
      P1  H  6931  6943       L1     6  0.11
      P1  H  6934  6947       L1     6  0.44

> <Gold.PLP.Chemscore.Internal.Correction>
0.1257

> <Gold.Rescore>
     Score         DG    S(hbond)    S(metal)    S(lipo)     H(rot)  DE(clash)    DE(int)     intcor
     16.05     -16.98       1.88        0.00      74.86       1.39       0.05       0.87       ----

> <Gold.Chemscore.Fitness>
16.0497

> <Gold.Chemscore.DG>
-16.9755

> <Gold.Chemscore.ZeroCoef>
-5.4800

> <Gold.Chemscore.Hbond>
1.8841

> <Gold.Chemscore.Metal>
0.0000

> <Gold.Chemscore.Lipo>
74.8643

> <Gold.Chemscore.Internal_Hbond>
0.0000

> <Gold.Chemscore.DEClash>
0.0516

> <Gold.Chemscore.DEInternal>
0.8742

> <Gold.Chemscore.Rot>
1.3893

> <Gold.Chemscore.Internal.Correction>
   9.000000E+99

> <Gold.Chemscore.Hbonds>
donor molecule, donor type, donor heavy atom, donor atom, acceptor molecule, acceptor atom, score
      P1  H  6896  6909       L1     8  0.12
      P1  H  6931  6943       L1     6  0.11
      P1  H  6934  6947       L1     6  0.07

> <Gold.Chemscore.Hbond.Weighted>
-6.2930

> <Gold.Chemscore.Metal.Weighted>
-0.0000

> <Gold.Chemscore.Lipo.Weighted>
-8.7591

> <Gold.Chemscore.Internal_Hbond.Weighted>
0.0000

> <Gold.Chemscore.DEClash.Weighted>
0.0516

> <Gold.Chemscore.DEInternal.Weighted>
0.8742

> <Gold.Chemscore.Rot.Weighted>
3.5567

> <Gold.Chemscore.Internal.Correction.Weighted>
   9.000000E+99

> <Gold.Protein.RotatedTorsions>
[ 6907 6896 6895 6894 ] final   79.91 input  -60.11 | X-H torsion
[ 7974 7965 7964 7962 ] final -170.18 input  175.53 | X-H torsion
[ 8008 7997 7996 7995 ] final  136.49 input   59.86 | X-H torsion
[ 10167 10162 10161 10158 ] final  -57.83 input  -65.29 | X-H torsion
[ 10718 10713 10712 10709 ] final   89.28 input   66.30 | X-H torsion
[ 10763 10752 10751 10750 ] final  156.87 input  -60.55 | X-H torsion
[ 11005 11000 10999 10996 ] final  173.48 input  -57.11 | X-H torsion

> <Gold.Protein.ActiveResidues>
 VAL166  LYS551  ARG553  GLY616  TRP617  ASP618  TYR619  PRO620  LYS621  CYS622 
 ASP623  PHE694  ASN695  SER759  ASP760  ASP761  ALA762  ILE779  LEU786  VAL792 
 PHE793  MET794  SER795  GLU796  ALA797  LYS798  CYS799  TRP800  GLU811  SER814 

> <Gold.Protein.RotatedAtoms>
  152.5216  134.3439  159.9226 H   0  0  0  0  0  0  0  0  0  0  0  0  # atno 6907 bound_to 6896
  151.3389  133.3964  159.2677 H   0  0  0  0  0  0  0  0  0  0  0  0  # atno 6908 bound_to 6896
  150.9819  134.9191  159.7907 H   0  0  0  0  0  0  0  0  0  0  0  0  # atno 6909 bound_to 6896
  144.7174  140.2110  143.6327 H   0  0  0  0  0  0  0  0  0  0  0  0  # atno 7974 bound_to 7965
  156.3004  140.2443  156.3755 H   0  0  0  0  0  0  0  0  0  0  0  0  # atno 8008 bound_to 7997
  154.8750  140.0414  157.1767 H   0  0  0  0  0  0  0  0  0  0  0  0  # atno 8009 bound_to 7997
  154.8756  140.2941  155.5459 H   0  0  0  0  0  0  0  0  0  0  0  0  # atno 8010 bound_to 7997
  140.6234  143.2428  151.5424 H   0  0  0  0  0  0  0  0  0  0  0  0  # atno 10167 bound_to 10162
  157.6954  131.0327  150.3401 H   0  0  0  0  0  0  0  0  0  0  0  0  # atno 10718 bound_to 10713
  154.1912  135.2794  155.3021 H   0  0  0  0  0  0  0  0  0  0  0  0  # atno 10763 bound_to 10752
  154.5927  135.5554  153.7298 H   0  0  0  0  0  0  0  0  0  0  0  0  # atno 10764 bound_to 10752
  153.0112  135.6372  154.2051 H   0  0  0  0  0  0  0  0  0  0  0  0  # atno 10765 bound_to 10752
  140.3410  134.7277  157.4202 H   0  0  0  0  0  0  0  0  0  0  0  0  # atno 11005 bound_to 11000
  145.8590  139.2213  143.1727 LP  0  0  0  0  0  0  0  0  0  0  0  0  # atno 17320 bound_to 7965
  146.0190  140.8365  142.9932 LP  0  0  0  0  0  0  0  0  0  0  0  0  # atno 17321 bound_to 7965
  139.5458  144.2524  152.1440 LP  0  0  0  0  0  0  0  0  0  0  0  0  # atno 17342 bound_to 10162
  140.1749  144.4900  150.6559 LP  0  0  0  0  0  0  0  0  0  0  0  0  # atno 17343 bound_to 10162
  156.3863  130.3889  149.7063 LP  0  0  0  0  0  0  0  0  0  0  0  0  # atno 17370 bound_to 10713
  156.4428  130.7869  151.2890 LP  0  0  0  0  0  0  0  0  0  0  0  0  # atno 17371 bound_to 10713
  140.0781  134.5769  155.8569 LP  0  0  0  0  0  0  0  0  0  0  0  0  # atno 17394 bound_to 11000
  141.2038  133.6635  156.6086 LP  0  0  0  0  0  0  0  0  0  0  0  0  # atno 17395 bound_to 11000

$$$$
