AV-unprocessed.smi:713|AV-procd|sdf|3478|dock9
  -GOLD-   22720 0473D 1   1.00000     0.00000
 Structure written by MMmdl.
 41 42  0  0  0  0  0  0  0  0  1 V2000
  145.9236  133.4178  154.6078 C   0  0  0  0  0  0  0  0  0  0  0  0
  146.3610  134.5241  153.6264 C   0  0  2  0  0  0  0  0  0  0  0  0
  146.3747  135.9129  154.2831 C   0  0  0  0  0  0  0  0  0  0  0  0
  145.6332  136.1637  155.2340 O   0  0  0  0  0  0  0  0  0  0  0  0
  147.2265  136.8099  153.7610 N   0  0  0  0  0  0  0  0  0  0  0  0
  147.3937  138.1846  154.2223 C   0  0  2  0  0  0  0  0  0  0  0  0
  147.1508  139.1529  153.0501 C   0  0  0  0  0  0  0  0  0  0  0  0
  147.3720  140.6132  153.4735 C   0  0  0  0  0  0  0  0  0  0  0  0
  148.7732  140.8141  154.0705 C   0  0  0  0  0  0  0  0  0  0  0  0
  149.0217  139.8584  155.2513 C   0  0  2  0  0  0  0  0  0  0  0  0
  150.7309  140.1101  155.9142 S   0  0  0  0  0  0  0  0  0  0  0  0
  150.7416  141.9013  156.3407 C   0  0  0  0  0  0  0  0  0  0  0  0
  150.8670  139.3466  157.1641 O   0  0  0  0  0  0  0  0  0  0  0  0
  151.6883  139.8876  154.8200 O   0  0  0  0  0  0  0  0  0  0  0  0
  148.7997  138.3945  154.8227 C   0  0  0  0  0  0  0  0  0  0  0  0
  145.5492  134.5489  152.4147 N   0  0  0  0  0  0  0  0  0  0  0  0
  145.7421  135.3139  151.2820 C   0  0  0  0  0  0  0  0  0  0  0  0
  144.7163  135.0431  150.4225 C   0  0  0  0  0  0  0  0  0  0  0  0
  143.9237  134.0978  151.1301 C   0  0  0  0  0  0  0  0  0  0  0  0
  144.4175  133.8115  152.3231 N   0  0  0  0  0  0  0  0  0  0  0  0
  146.5841  133.3799  155.4748 H   0  0  0  0  0  0  0  0  0  0  0  0
  145.9580  132.4389  154.1287 H   0  0  0  0  0  0  0  0  0  0  0  0
  144.9077  133.5693  154.9751 H   0  0  0  0  0  0  0  0  0  0  0  0
  147.3825  134.2918  153.3197 H   0  0  0  0  0  0  0  0  0  0  0  0
  147.7989  136.5197  152.9815 H   0  0  0  0  0  0  0  0  0  0  0  0
  146.6466  138.3885  154.9920 H   0  0  0  0  0  0  0  0  0  0  0  0
  147.8231  138.9119  152.2250 H   0  0  0  0  0  0  0  0  0  0  0  0
  146.1364  139.0315  152.6677 H   0  0  0  0  0  0  0  0  0  0  0  0
  147.2358  141.2734  152.6164 H   0  0  0  0  0  0  0  0  0  0  0  0
  146.6174  140.8998  154.2070 H   0  0  0  0  0  0  0  0  0  0  0  0
  149.5259  140.6483  153.2986 H   0  0  0  0  0  0  0  0  0  0  0  0
  148.8873  141.8486  154.3955 H   0  0  0  0  0  0  0  0  0  0  0  0
  148.3295  140.1064  156.0568 H   0  0  0  0  0  0  0  0  0  0  0  0
  151.7434  142.1876  156.6601 H   0  0  0  0  0  0  0  0  0  0  0  0
  150.0423  142.0970  157.1525 H   0  0  0  0  0  0  0  0  0  0  0  0
  150.4616  142.4881  155.4660 H   0  0  0  0  0  0  0  0  0  0  0  0
  148.9342  137.7336  155.6781 H   0  0  0  0  0  0  0  0  0  0  0  0
  149.5549  138.1081  154.0894 H   0  0  0  0  0  0  0  0  0  0  0  0
  146.5855  135.9812  151.1824 H   0  0  0  0  0  0  0  0  0  0  0  0
  144.5537  135.4609  149.4401 H   0  0  0  0  0  0  0  0  0  0  0  0
  143.0080  133.6180  150.8171 H   0  0  0  0  0  0  0  0  0  0  0  0
  1  2  1  0  0  0  0
  1 21  1  0  0  0  0
  1 22  1  0  0  0  0
  1 23  1  0  0  0  0
  2  3  1  0  0  0  0
  2 16  1  0  0  0  0
  2 24  1  0  0  0  0
  3  4  2  0  0  0  0
  3  5  1  0  0  0  0
  5  6  1  0  0  0  0
  5 25  1  0  0  0  0
  6 15  1  0  0  0  0
  6  7  1  0  0  0  0
  6 26  1  0  0  0  0
  7  8  1  0  0  0  0
  7 27  1  0  0  0  0
  7 28  1  0  0  0  0
  8  9  1  0  0  0  0
  8 29  1  0  0  0  0
  8 30  1  0  0  0  0
  9 10  1  0  0  0  0
  9 31  1  0  0  0  0
  9 32  1  0  0  0  0
 10 11  1  0  0  0  0
 10 15  1  0  0  0  0
 10 33  1  0  0  0  0
 11 12  1  0  0  0  0
 11 13  2  0  0  0  0
 11 14  2  0  0  0  0
 12 34  1  0  0  0  0
 12 35  1  0  0  0  0
 12 36  1  0  0  0  0
 15 37  1  0  0  0  0
 15 38  1  0  0  0  0
 16 20  1  0  0  0  0
 16 17  1  0  0  0  0
 17 18  2  0  0  0  0
 17 39  1  0  0  0  0
 18 19  1  0  0  0  0
 18 40  1  0  0  0  0
 19 20  2  0  0  0  0
 19 41  1  0  0  0  0
M  END
> <s_m_source_file>
AV-unprocessed.smi

> <i_m_source_file_index>
713

> <i_lp_mmshare_version>
43012

> <i_f3d_flags>
0

> <s_epik_input>
bjFbY0hdW2NIXVtjSF1uMVtDQEhdKFtDSDNdKUMoPU8pW05IXVtDQEBIXTJbQ0gyXVtDSDJdW0NIMl1bQ0BIXShbQ0gyXTIpUyg9TykoPU8pW0NIM10=

> <s_epik_cmdline>
J2VwaWtfcHl0aG9uJywgJy1waCcsICc3LjAnLCAnLXRuJywgJzgnLCAnLW1hJywgJzIwMCcsICctbWV0YWxfYmluZGluZycsICctaW1hZScsICc8aW5maWxlLm1hZT4nLCAnLW9tYWUnLCAnPG91dGZpbGUubWFlPic=

> <r_lp_tautomer_probability>
1

> <r_epik_Ionization_Penalty>
4.07816e-05

> <r_epik_Ionization_Penalty_Charging>
0

> <r_epik_Ionization_Penalty_Neutral>
4.07816e-05

> <r_epik_State_Penalty>
-0

> <r_epik_Charging_Adjusted_Penalty>
0

> <i_epik_Tot_Q>
0

> <i_epik_Tot_abs_Q>
0

> <r_epik_Metal_State_Penalty>
-0

> <b_epik_Metal_Only>
0

> <s_lp_Force_Field>
OPLS_2005

> <r_lp_Energy>
7.47495

> <b_lp_Chiralities_Consistent>
1

> <s_lp_Variant>
AV-unprocessed.smi:713-5

> <Gold.Version>
5.8.1

> <Gold.Id.Protein>
6NUR|6NUR_protein|mol2

> <Gold.PLP.Fitness>
38.9785

> <Gold.PLP.PLP>
-28.4223

> <Gold.PLP.part.hbond>
-1.8333

> <Gold.PLP.part.metal>
0.0000

> <Gold.PLP.part.buried>
-3.9276

> <Gold.PLP.part.nonpolar>
-23.7148

> <Gold.PLP.part.repulsive>
0.1796

> <Gold.PLP.ligand.clash>
0.0000

> <Gold.PLP.ligand.torsion>
0.8399

> <Gold.PLP.Chemscore.Hbond>
2.0000

> <Gold.PLP.Chemscore.CHOScore>
2.0000

> <Gold.PLP.Chemscore.Metal>
0.0000

> <Gold.Chemscore.Hbonds>
donor molecule, donor type, donor heavy atom, donor atom, acceptor molecule, acceptor atom, score
      L1  H     5    25       P1  7948  1.00
      P1  H  7989  7998       L1    14  1.00
      L1  C    17    39       P1  7948  1.00
      L1  C    19    41       P1 10186  1.00

> <Gold.PLP.Chemscore.Internal.Correction>
0.2361

> <Gold.Rescore>
     Score         DG    S(hbond)    S(metal)    S(lipo)     H(rot)  DE(clash)    DE(int)     intcor
     14.12     -14.99       1.97        0.00      62.77       1.72       0.02       0.85       ----

> <Gold.Chemscore.Fitness>
14.1214

> <Gold.Chemscore.DG>
-14.9916

> <Gold.Chemscore.ZeroCoef>
-5.4800

> <Gold.Chemscore.Hbond>
1.9710

> <Gold.Chemscore.Metal>
0.0000

> <Gold.Chemscore.Lipo>
62.7721

> <Gold.Chemscore.Internal_Hbond>
0.0000

> <Gold.Chemscore.DEClash>
0.0234

> <Gold.Chemscore.DEInternal>
0.8468

> <Gold.Chemscore.Rot>
1.7249

> <Gold.Chemscore.Internal.Correction>
   9.000000E+99

> <Gold.Chemscore.Hbonds>
donor molecule, donor type, donor heavy atom, donor atom, acceptor molecule, acceptor atom, score
      L1  H     5    25       P1  7948  1.00
      P1  H  7989  7998       L1    14  0.94

> <Gold.Chemscore.Hbond.Weighted>
-6.5830

> <Gold.Chemscore.Metal.Weighted>
-0.0000

> <Gold.Chemscore.Lipo.Weighted>
-7.3443

> <Gold.Chemscore.Internal_Hbond.Weighted>
0.0000

> <Gold.Chemscore.DEClash.Weighted>
0.0234

> <Gold.Chemscore.DEInternal.Weighted>
0.8468

> <Gold.Chemscore.Rot.Weighted>
4.4157

> <Gold.Chemscore.Internal.Correction.Weighted>
   9.000000E+99

> <Gold.Protein.RotatedTorsions>
[ 6907 6896 6895 6894 ] final   16.22 input  -60.11 | X-H torsion
[ 7974 7965 7964 7962 ] final  -92.33 input  175.53 | X-H torsion
[ 8008 7997 7996 7995 ] final  -74.84 input   59.86 | X-H torsion
[ 10167 10162 10161 10158 ] final -101.11 input  -65.29 | X-H torsion
[ 10718 10713 10712 10709 ] final   75.69 input   66.30 | X-H torsion
[ 10763 10752 10751 10750 ] final   55.99 input  -60.55 | X-H torsion
[ 11005 11000 10999 10996 ] final  -22.46 input  -57.11 | X-H torsion

> <Gold.Protein.ActiveResidues>
 VAL166  LYS551  ARG553  GLY616  TRP617  ASP618  TYR619  PRO620  LYS621  CYS622 
 ASP623  PHE694  ASN695  SER759  ASP760  ASP761  ALA762  ILE779  LEU786  VAL792 
 PHE793  MET794  SER795  GLU796  ALA797  LYS798  CYS799  TRP800  GLU811  SER814 

> <Gold.Protein.RotatedAtoms>
  151.8305  135.0623  160.0435 H   0  0  0  0  0  0  0  0  0  0  0  0  # atno 6907 bound_to 6896
  152.2884  133.5533  159.5550 H   0  0  0  0  0  0  0  0  0  0  0  0  # atno 6908 bound_to 6896
  150.7219  134.0380  159.3798 H   0  0  0  0  0  0  0  0  0  0  0  0  # atno 6909 bound_to 6896
  145.4013  140.9537  143.2286 H   0  0  0  0  0  0  0  0  0  0  0  0  # atno 7974 bound_to 7965
  154.5365  140.0754  156.8436 H   0  0  0  0  0  0  0  0  0  0  0  0  # atno 8008 bound_to 7997
  155.3268  140.3399  155.4222 H   0  0  0  0  0  0  0  0  0  0  0  0  # atno 8009 bound_to 7997
  156.1833  140.1660  156.8220 H   0  0  0  0  0  0  0  0  0  0  0  0  # atno 8010 bound_to 7997
  140.2447  143.3514  152.0769 H   0  0  0  0  0  0  0  0  0  0  0  0  # atno 10167 bound_to 10162
  157.6644  130.9738  150.1389 H   0  0  0  0  0  0  0  0  0  0  0  0  # atno 10718 bound_to 10713
  152.9825  135.5692  154.5156 H   0  0  0  0  0  0  0  0  0  0  0  0  # atno 10763 bound_to 10752
  154.4653  135.2783  155.1685 H   0  0  0  0  0  0  0  0  0  0  0  0  # atno 10764 bound_to 10752
  154.3256  135.6260  153.5581 H   0  0  0  0  0  0  0  0  0  0  0  0  # atno 10765 bound_to 10752
  140.8659  133.7755  156.0129 H   0  0  0  0  0  0  0  0  0  0  0  0  # atno 11005 bound_to 11000
  144.8372  139.5531  143.6917 LP  0  0  0  0  0  0  0  0  0  0  0  0  # atno 17320 bound_to 7965
  146.2750  139.6731  142.9269 LP  0  0  0  0  0  0  0  0  0  0  0  0  # atno 17321 bound_to 7965
  139.5065  144.6816  151.5995 LP  0  0  0  0  0  0  0  0  0  0  0  0  # atno 17342 bound_to 10162
  140.6086  143.9478  150.6437 LP  0  0  0  0  0  0  0  0  0  0  0  0  # atno 17343 bound_to 10162
  156.2217  130.3674  149.8548 LP  0  0  0  0  0  0  0  0  0  0  0  0  # atno 17370 bound_to 10713
  156.6400  130.8701  151.3512 LP  0  0  0  0  0  0  0  0  0  0  0  0  # atno 17371 bound_to 10713
  140.8629  134.2819  157.5226 LP  0  0  0  0  0  0  0  0  0  0  0  0  # atno 17394 bound_to 11000
  139.8709  134.9527  156.4124 LP  0  0  0  0  0  0  0  0  0  0  0  0  # atno 17395 bound_to 11000

$$$$
