AV-unprocessed.smi:3348|AV-procd|sdf|12927|dock4
  -GOLD-   2272019353D 1   1.00000     0.00000
 Structure written by MMmdl.
 46 47  0  0  0  0  0  0  0  0  1 V2000
  151.2265  138.9882  154.4747 C   0  0  0  0  0  0  0  0  0  0  0  0
  150.7698  139.7956  155.7019 C   0  0  2  0  0  0  0  0  0  0  0  0
  150.0633  141.1180  155.3141 C   0  0  0  0  0  0  0  0  0  0  0  0
  148.8386  140.9110  154.5616 N   0  0  0  0  0  0  0  0  0  0  0  0
  147.9022  141.8454  154.1711 C   0  0  0  0  0  0  0  0  0  0  0  0
  146.9199  141.1784  153.4965 C   0  0  0  0  0  0  0  0  0  0  0  0
  147.3473  139.8214  153.5318 C   0  0  0  0  0  0  0  0  0  0  0  0
  148.4936  139.6639  154.1736 N   0  0  0  0  0  0  0  0  0  0  0  0
  151.9224  140.0283  156.5777 N   0  0  0  0  0  0  0  0  0  0  0  0
  151.6073  140.2549  157.9881 C   0  0  0  0  0  0  0  0  0  0  0  0
  150.9705  141.6332  158.1935 C   0  0  0  0  0  0  0  0  0  0  0  0
  151.3565  142.1276  159.4672 O   0  0  0  0  0  0  0  0  0  0  0  0
  152.5723  142.8684  159.4743 C   0  0  2  0  0  0  0  0  0  0  0  0
  153.7437  141.9733  159.9322 C   0  0  0  0  0  0  0  0  0  0  0  0
  153.5759  141.5180  161.3913 C   0  0  0  0  0  0  0  0  0  0  0  0
  153.3998  142.7193  162.3326 C   0  0  0  0  0  0  0  0  0  0  0  0
  152.2335  143.6148  161.8850 C   0  0  0  0  0  0  0  0  0  0  0  0
  152.4036  144.0760  160.4233 C   0  0  2  0  0  0  0  0  0  0  0  0
  151.2614  145.0028  159.9787 C   0  0  0  0  0  0  0  0  0  0  0  0
  150.3834  138.6927  153.8502 H   0  0  0  0  0  0  0  0  0  0  0  0
  151.7374  138.0727  154.7751 H   0  0  0  0  0  0  0  0  0  0  0  0
  151.9143  139.5650  153.8552 H   0  0  0  0  0  0  0  0  0  0  0  0
  150.0502  139.1759  156.2384 H   0  0  0  0  0  0  0  0  0  0  0  0
  149.8062  141.7003  156.1991 H   0  0  0  0  0  0  0  0  0  0  0  0
  150.7317  141.7380  154.7151 H   0  0  0  0  0  0  0  0  0  0  0  0
  148.0126  142.8949  154.4014 H   0  0  0  0  0  0  0  0  0  0  0  0
  146.0310  141.5955  153.0473 H   0  0  0  0  0  0  0  0  0  0  0  0
  146.8613  138.9518  153.1145 H   0  0  0  0  0  0  0  0  0  0  0  0
  152.5722  139.2529  156.4966 H   0  0  0  0  0  0  0  0  0  0  0  0
  150.9402  139.4851  158.3753 H   0  0  0  0  0  0  0  0  0  0  0  0
  152.5246  140.2029  158.5755 H   0  0  0  0  0  0  0  0  0  0  0  0
  151.3197  142.3071  157.4113 H   0  0  0  0  0  0  0  0  0  0  0  0
  149.8841  141.5727  158.1105 H   0  0  0  0  0  0  0  0  0  0  0  0
  152.7779  143.2493  158.4720 H   0  0  0  0  0  0  0  0  0  0  0  0
  153.8484  141.1053  159.2819 H   0  0  0  0  0  0  0  0  0  0  0  0
  154.6767  142.5305  159.8380 H   0  0  0  0  0  0  0  0  0  0  0  0
  152.7101  140.8592  161.4721 H   0  0  0  0  0  0  0  0  0  0  0  0
  154.4411  140.9296  161.6982 H   0  0  0  0  0  0  0  0  0  0  0  0
  153.2312  142.3712  163.3522 H   0  0  0  0  0  0  0  0  0  0  0  0
  154.3207  143.3035  162.3543 H   0  0  0  0  0  0  0  0  0  0  0  0
  151.2934  143.0725  161.9957 H   0  0  0  0  0  0  0  0  0  0  0  0
  152.1671  144.4811  162.5439 H   0  0  0  0  0  0  0  0  0  0  0  0
  153.3231  144.6611  160.3719 H   0  0  0  0  0  0  0  0  0  0  0  0
  150.2965  144.4966  160.0212 H   0  0  0  0  0  0  0  0  0  0  0  0
  151.4116  145.3470  158.9551 H   0  0  0  0  0  0  0  0  0  0  0  0
  151.2013  145.8845  160.6171 H   0  0  0  0  0  0  0  0  0  0  0  0
  1  2  1  0  0  0  0
  1 20  1  0  0  0  0
  1 21  1  0  0  0  0
  1 22  1  0  0  0  0
  2  3  1  0  0  0  0
  2  9  1  0  0  0  0
  2 23  1  0  0  0  0
  3  4  1  0  0  0  0
  3 24  1  0  0  0  0
  3 25  1  0  0  0  0
  4  8  1  0  0  0  0
  4  5  1  0  0  0  0
  5  6  2  0  0  0  0
  5 26  1  0  0  0  0
  6  7  1  0  0  0  0
  6 27  1  0  0  0  0
  7  8  2  0  0  0  0
  7 28  1  0  0  0  0
  9 10  1  0  0  0  0
  9 29  1  0  0  0  0
 10 11  1  0  0  0  0
 10 30  1  0  0  0  0
 10 31  1  0  0  0  0
 11 12  1  0  0  0  0
 11 32  1  0  0  0  0
 11 33  1  0  0  0  0
 12 13  1  0  0  0  0
 13 18  1  0  0  0  0
 13 14  1  0  0  0  0
 13 34  1  0  0  0  0
 14 15  1  0  0  0  0
 14 35  1  0  0  0  0
 14 36  1  0  0  0  0
 15 16  1  0  0  0  0
 15 37  1  0  0  0  0
 15 38  1  0  0  0  0
 16 17  1  0  0  0  0
 16 39  1  0  0  0  0
 16 40  1  0  0  0  0
 17 18  1  0  0  0  0
 17 41  1  0  0  0  0
 17 42  1  0  0  0  0
 18 19  1  0  0  0  0
 18 43  1  0  0  0  0
 19 44  1  0  0  0  0
 19 45  1  0  0  0  0
 19 46  1  0  0  0  0
M  END
> <s_m_source_file>
AV-unprocessed.smi

> <i_m_source_file_index>
3348

> <i_lp_mmshare_version>
43012

> <i_f3d_flags>
0

> <s_epik_input>
bjFbY0hdW2NIXVtjSF1uMVtDSDJdW0NAQEhdKFtDSDNdKVtOSF1bQ0gyXVtDSDJdT1tDQEBIXTJbQ0gyXVtDSDJdW0NIMl1bQ0gyXVtDQEhdMltDSDNd

> <s_epik_cmdline>
J2VwaWtfcHl0aG9uJywgJy1waCcsICc3LjAnLCAnLXRuJywgJzgnLCAnLW1hJywgJzIwMCcsICctbWV0YWxfYmluZGluZycsICctaW1hZScsICc8aW5maWxlLm1hZT4nLCAnLW9tYWUnLCAnPG91dGZpbGUubWFlPic=

> <r_lp_tautomer_probability>
1

> <r_epik_Ionization_Penalty>
2.46945

> <r_epik_Ionization_Penalty_Charging>
0

> <r_epik_Ionization_Penalty_Neutral>
2.46945

> <r_epik_State_Penalty>
2.6322

> <r_epik_Charging_Adjusted_Penalty>
2.6322

> <i_epik_Tot_Q>
0

> <i_epik_Tot_abs_Q>
0

> <r_epik_Metal_State_Penalty>
2.63217

> <b_epik_Metal_Only>
0

> <s_lp_Force_Field>
OPLS_2005

> <r_lp_Energy>
16.5117

> <b_lp_Chiralities_Consistent>
1

> <s_lp_Variant>
AV-unprocessed.smi:3348-13

> <Gold.Version>
5.8.1

> <Gold.Id.Protein>
6NUR|6NUR_protein|mol2

> <Gold.PLP.Fitness>
51.2589

> <Gold.PLP.PLP>
-50.5681

> <Gold.PLP.part.hbond>
-0.3689

> <Gold.PLP.part.metal>
0.0000

> <Gold.PLP.part.buried>
-4.2146

> <Gold.PLP.part.nonpolar>
-43.3364

> <Gold.PLP.part.repulsive>
0.1335

> <Gold.PLP.ligand.clash>
0.0000

> <Gold.PLP.ligand.torsion>
1.2534

> <Gold.PLP.Chemscore.Hbond>
0.0000

> <Gold.PLP.Chemscore.CHOScore>
1.0000

> <Gold.PLP.Chemscore.Metal>
0.0000

> <Gold.Chemscore.Hbonds>
donor molecule, donor type, donor heavy atom, donor atom, acceptor molecule, acceptor atom, score
      L1  C     5    26       P1  8028  1.00

> <Gold.PLP.Chemscore.Internal.Correction>
0.1976

> <Gold.Rescore>
     Score         DG    S(hbond)    S(metal)    S(lipo)     H(rot)  DE(clash)    DE(int)     intcor
     14.34     -16.89       0.00        0.00     135.24       1.72       0.03       2.52       ----

> <Gold.Chemscore.Fitness>
14.3410

> <Gold.Chemscore.DG>
-16.8901

> <Gold.Chemscore.ZeroCoef>
-5.4800

> <Gold.Chemscore.Hbond>
0.0000

> <Gold.Chemscore.Metal>
0.0000

> <Gold.Chemscore.Lipo>
135.2365

> <Gold.Chemscore.Internal_Hbond>
0.0000

> <Gold.Chemscore.DEClash>
0.0274

> <Gold.Chemscore.DEInternal>
2.5218

> <Gold.Chemscore.Rot>
1.7237

> <Gold.Chemscore.Internal.Correction>
   9.000000E+99

> <Gold.Chemscore.Hbond.Weighted>
-0.0000

> <Gold.Chemscore.Metal.Weighted>
-0.0000

> <Gold.Chemscore.Lipo.Weighted>
-15.8227

> <Gold.Chemscore.Internal_Hbond.Weighted>
0.0000

> <Gold.Chemscore.DEClash.Weighted>
0.0274

> <Gold.Chemscore.DEInternal.Weighted>
2.5218

> <Gold.Chemscore.Rot.Weighted>
4.4126

> <Gold.Chemscore.Internal.Correction.Weighted>
   9.000000E+99

> <Gold.Protein.RotatedTorsions>
[ 6907 6896 6895 6894 ] final  -20.63 input  -60.11 | X-H torsion
[ 7974 7965 7964 7962 ] final -179.85 input  175.53 | X-H torsion
[ 8008 7997 7996 7995 ] final -135.03 input   59.86 | X-H torsion
[ 10167 10162 10161 10158 ] final    7.03 input  -65.29 | X-H torsion
[ 10718 10713 10712 10709 ] final  -86.51 input   66.30 | X-H torsion
[ 10763 10752 10751 10750 ] final  127.75 input  -60.55 | X-H torsion
[ 11005 11000 10999 10996 ] final   19.29 input  -57.11 | X-H torsion

> <Gold.Protein.ActiveResidues>
 VAL166  LYS551  ARG553  GLY616  TRP617  ASP618  TYR619  PRO620  LYS621  CYS622 
 ASP623  PHE694  ASN695  SER759  ASP760  ASP761  ALA762  ILE779  LEU786  VAL792 
 PHE793  MET794  SER795  GLU796  ALA797  LYS798  CYS799  TRP800  GLU811  SER814 

> <Gold.Protein.RotatedAtoms>
  151.2453  135.0603  159.9040 H   0  0  0  0  0  0  0  0  0  0  0  0  # atno 6907 bound_to 6896
  152.5387  134.0390  159.8069 H   0  0  0  0  0  0  0  0  0  0  0  0  # atno 6908 bound_to 6896
  151.0590  133.5511  159.2667 H   0  0  0  0  0  0  0  0  0  0  0  0  # atno 6909 bound_to 6896
  144.7139  140.0656  143.6431 H   0  0  0  0  0  0  0  0  0  0  0  0  # atno 7974 bound_to 7965
  155.3719  140.0489  157.3045 H   0  0  0  0  0  0  0  0  0  0  0  0  # atno 8008 bound_to 7997
  154.5125  140.2197  155.9091 H   0  0  0  0  0  0  0  0  0  0  0  0  # atno 8009 bound_to 7997
  156.1599  140.3118  155.8795 H   0  0  0  0  0  0  0  0  0  0  0  0  # atno 8010 bound_to 7997
  140.6395  143.7808  150.7407 H   0  0  0  0  0  0  0  0  0  0  0  0  # atno 10167 bound_to 10162
  155.9989  130.4767  150.4726 H   0  0  0  0  0  0  0  0  0  0  0  0  # atno 10718 bound_to 10713
  153.7144  135.3263  155.3253 H   0  0  0  0  0  0  0  0  0  0  0  0  # atno 10763 bound_to 10752
  154.8375  135.4484  154.1281 H   0  0  0  0  0  0  0  0  0  0  0  0  # atno 10764 bound_to 10752
  153.2384  135.6968  153.7890 H   0  0  0  0  0  0  0  0  0  0  0  0  # atno 10765 bound_to 10752
  140.4153  134.1575  155.7669 H   0  0  0  0  0  0  0  0  0  0  0  0  # atno 11005 bound_to 11000
  145.9827  139.2954  143.1032 LP  0  0  0  0  0  0  0  0  0  0  0  0  # atno 17320 bound_to 7965
  145.8992  140.9254  143.0512 LP  0  0  0  0  0  0  0  0  0  0  0  0  # atno 17321 bound_to 7965
  140.1437  143.4419  152.2177 LP  0  0  0  0  0  0  0  0  0  0  0  0  # atno 17342 bound_to 10162
  139.5604  144.7402  151.4172 LP  0  0  0  0  0  0  0  0  0  0  0  0  # atno 17343 bound_to 10162
  157.2739  131.0593  151.2242 LP  0  0  0  0  0  0  0  0  0  0  0  0  # atno 17370 bound_to 10713
  157.3312  130.6986  149.6325 LP  0  0  0  0  0  0  0  0  0  0  0  0  # atno 17371 bound_to 10713
  141.1805  133.8424  157.1274 LP  0  0  0  0  0  0  0  0  0  0  0  0  # atno 17394 bound_to 11000
  140.0238  134.9933  157.0645 LP  0  0  0  0  0  0  0  0  0  0  0  0  # atno 17395 bound_to 11000

$$$$
