AV-unprocessed.smi:1703|AV-procd|sdf|6870|dock4
  -GOLD-   22720 8 63D 1   1.00000     0.00000
 Structure written by MMmdl.
 49 51  0  0  0  0  0  0  0  0  2 V2000
  139.6243  140.9715  154.0355 C   0  0  0  0  0  0  0  0  0  0  0  0
  139.4566  139.5323  153.5375 C   0  0  1  0  0  0  0  0  0  0  0  0
  140.5999  138.6151  154.0124 C   0  0  0  0  0  0  0  0  0  0  0  0
  140.3943  137.2274  153.6064 N   0  0  0  0  0  0  0  0  0  0  0  0
  141.4586  136.3383  154.0719 C   0  0  0  0  0  0  0  0  0  0  0  0
  142.8637  136.6317  153.4971 C   0  0  1  0  0  0  0  0  0  0  0  0
  143.8306  135.9632  154.2802 O   0  0  0  0  0  0  0  0  0  0  0  0
  143.0596  136.1465  152.0448 C   0  0  0  0  0  0  0  0  0  0  0  0
  144.4317  135.6974  151.7600 N   0  0  0  0  0  0  0  0  0  0  0  0
  145.6254  136.3526  151.8655 C   0  0  0  0  0  0  0  0  0  0  0  0
  145.8470  137.7603  152.3209 C   0  0  0  0  0  0  0  0  0  0  0  0
  147.1480  138.2293  152.0369 O   0  0  0  0  0  0  0  0  0  0  0  0
  146.5972  135.4813  151.4700 N   0  3  0  0  0  0  0  0  0  0  0  0
  146.0235  134.2644  151.1025 C   0  0  0  0  0  0  0  0  0  0  0  0
  146.6014  133.0878  150.6352 C   0  0  0  0  0  0  0  0  0  0  0  0
  145.7227  132.0230  150.3464 C   0  0  0  0  0  0  0  0  0  0  0  0
  144.3296  132.1517  150.5240 C   0  0  0  0  0  0  0  0  0  0  0  0
  143.7559  133.3498  150.9981 C   0  0  0  0  0  0  0  0  0  0  0  0
  144.6319  134.3969  151.2831 C   0  0  0  0  0  0  0  0  0  0  0  0
  139.0941  136.7805  154.0948 C   0  0  0  0  0  0  0  0  0  0  0  0
  137.9485  137.6934  153.6178 C   0  0  1  0  0  0  0  0  0  0  0  0
  136.5936  137.2736  154.1977 C   0  0  0  0  0  0  0  0  0  0  0  0
  138.2184  139.0296  154.0314 O   0  0  0  0  0  0  0  0  0  0  0  0
  140.5548  141.4070  153.6708 H   0  0  0  0  0  0  0  0  0  0  0  0
  139.6387  141.0130  155.1250 H   0  0  0  0  0  0  0  0  0  0  0  0
  138.8045  141.6010  153.6890 H   0  0  0  0  0  0  0  0  0  0  0  0
  139.4245  139.5407  152.4465 H   0  0  0  0  0  0  0  0  0  0  0  0
  141.5380  138.9899  153.6037 H   0  0  0  0  0  0  0  0  0  0  0  0
  140.6855  138.6722  155.0988 H   0  0  0  0  0  0  0  0  0  0  0  0
  141.4897  136.3156  155.1626 H   0  0  0  0  0  0  0  0  0  0  0  0
  141.1785  135.3289  153.7757 H   0  0  0  0  0  0  0  0  0  0  0  0
  143.0658  137.7022  153.5447 H   0  0  0  0  0  0  0  0  0  0  0  0
  144.5553  136.5514  154.4285 H   0  0  0  0  0  0  0  0  0  0  0  0
  142.3831  135.3213  151.8177 H   0  0  0  0  0  0  0  0  0  0  0  0
  142.8123  136.9417  151.3409 H   0  0  0  0  0  0  0  0  0  0  0  0
  145.1193  138.4099  151.8342 H   0  0  0  0  0  0  0  0  0  0  0  0
  145.6811  137.8355  153.3949 H   0  0  0  0  0  0  0  0  0  0  0  0
  147.7147  137.4836  151.9092 H   0  0  0  0  0  0  0  0  0  0  0  0
  147.6682  132.9875  150.4966 H   0  0  0  0  0  0  0  0  0  0  0  0
  146.1250  131.0895  149.9803 H   0  0  0  0  0  0  0  0  0  0  0  0
  143.6873  131.3147  150.2914 H   0  0  0  0  0  0  0  0  0  0  0  0
  142.6875  133.4384  151.1299 H   0  0  0  0  0  0  0  0  0  0  0  0
  138.9045  135.7607  153.7576 H   0  0  0  0  0  0  0  0  0  0  0  0
  139.1023  136.7500  155.1858 H   0  0  0  0  0  0  0  0  0  0  0  0
  137.8871  137.6657  152.5283 H   0  0  0  0  0  0  0  0  0  0  0  0
  136.3373  136.2568  153.8993 H   0  0  0  0  0  0  0  0  0  0  0  0
  135.7985  137.9327  153.8479 H   0  0  0  0  0  0  0  0  0  0  0  0
  136.6019  137.3114  155.2874 H   0  0  0  0  0  0  0  0  0  0  0  0
  147.5829  135.7101  151.4571 H   0  0  0  0  0  0  0  0  0  0  0  0
  1  2  1  0  0  0  0
  1 24  1  0  0  0  0
  1 25  1  0  0  0  0
  1 26  1  0  0  0  0
  2 23  1  0  0  0  0
  2  3  1  0  0  0  0
  2 27  1  0  0  0  0
  3  4  1  0  0  0  0
  3 28  1  0  0  0  0
  3 29  1  0  0  0  0
  4  5  1  0  0  0  0
  4 20  1  0  0  0  0
  5  6  1  0  0  0  0
  5 30  1  0  0  0  0
  5 31  1  0  0  0  0
  6  7  1  0  0  0  0
  6  8  1  0  0  0  0
  6 32  1  0  0  0  0
  7 33  1  0  0  0  0
  8  9  1  0  0  0  0
  8 34  1  0  0  0  0
  8 35  1  0  0  0  0
  9 19  1  0  0  0  0
  9 10  1  0  0  0  0
 10 11  1  0  0  0  0
 10 13  2  0  0  0  0
 11 12  1  0  0  0  0
 11 36  1  0  0  0  0
 11 37  1  0  0  0  0
 12 38  1  0  0  0  0
 13 14  1  0  0  0  0
 13 49  1  0  0  0  0
 14 19  2  0  0  0  0
 14 15  1  0  0  0  0
 15 16  2  0  0  0  0
 15 39  1  0  0  0  0
 16 17  1  0  0  0  0
 16 40  1  0  0  0  0
 17 18  2  0  0  0  0
 17 41  1  0  0  0  0
 18 19  1  0  0  0  0
 18 42  1  0  0  0  0
 20 21  1  0  0  0  0
 20 43  1  0  0  0  0
 20 44  1  0  0  0  0
 21 22  1  0  0  0  0
 21 23  1  0  0  0  0
 21 45  1  0  0  0  0
 22 46  1  0  0  0  0
 22 47  1  0  0  0  0
 22 48  1  0  0  0  0
M  CHG  1  13   1
M  END
> <s_m_source_file>
AV-unprocessed.smi

> <i_m_source_file_index>
1703

> <i_lp_mmshare_version>
43012

> <i_f3d_flags>
0

> <s_epik_input>
W0NIM11bQ0BASF0xW0NIMl1OKFtDSDJdW0NASF0oTzEpW0NIM10pW0NIMl1bQ0BIXShbT0hdKVtDSDJdbihjKG4yKVtDSDJdW09IXSljKGMyMylbY0hdW2NIXVtjSF1bY0hdMw==

> <s_epik_cmdline>
J2VwaWtfcHl0aG9uJywgJy1waCcsICc3LjAnLCAnLXRuJywgJzgnLCAnLW1hJywgJzIwMCcsICctbWV0YWxfYmluZGluZycsICctaW1hZScsICc8aW5maWxlLm1hZT4nLCAnLW9tYWUnLCAnPG91dGZpbGUubWFlPic=

> <r_epik_Ionization_Penalty>
1.7682

> <r_epik_Ionization_Penalty_Charging>
1.55298

> <r_epik_Ionization_Penalty_Neutral>
0.215215

> <r_epik_State_Penalty>
1.83821

> <r_epik_Charging_Adjusted_Penalty>
3.39119

> <i_epik_Tot_Q>
1

> <i_epik_Tot_abs_Q>
1

> <r_epik_Metal_State_Penalty>
5.89206

> <b_epik_Metal_Only>
0

> <s_lp_Force_Field>
OPLS_2005

> <r_lp_Energy>
33.2802

> <b_lp_Chiralities_Consistent>
1

> <s_lp_Variant>
AV-unprocessed.smi:1703-18

> <Gold.Version>
5.8.1

> <Gold.Id.Protein>
6NUR|6NUR_protein|mol2

> <Gold.PLP.Fitness>
49.9423

> <Gold.PLP.PLP>
-42.3251

> <Gold.PLP.part.hbond>
-3.0802

> <Gold.PLP.part.metal>
0.0000

> <Gold.PLP.part.buried>
-5.4944

> <Gold.PLP.part.nonpolar>
-34.9109

> <Gold.PLP.part.repulsive>
0.2553

> <Gold.PLP.ligand.clash>
0.0000

> <Gold.PLP.ligand.torsion>
0.7380

> <Gold.PLP.Chemscore.Hbond>
3.0000

> <Gold.PLP.Chemscore.CHOScore>
0.0000

> <Gold.PLP.Chemscore.Metal>
0.0000

> <Gold.Chemscore.Hbonds>
donor molecule, donor type, donor heavy atom, donor atom, acceptor molecule, acceptor atom, score
      L1  H    12    38       P1  7948  1.00
      L1  H    13    49       P1  7948  1.72

> <Gold.PLP.Chemscore.Internal.Correction>
0.0933

> <Gold.Rescore>
     Score         DG    S(hbond)    S(metal)    S(lipo)     H(rot)  DE(clash)    DE(int)     intcor
     14.94     -16.43       1.92        0.00     103.46       2.96       0.21       1.29       ----

> <Gold.Chemscore.Fitness>
14.9357

> <Gold.Chemscore.DG>
-16.4311

> <Gold.Chemscore.ZeroCoef>
-5.4800

> <Gold.Chemscore.Hbond>
1.9197

> <Gold.Chemscore.Metal>
0.0000

> <Gold.Chemscore.Lipo>
103.4628

> <Gold.Chemscore.Internal_Hbond>
0.0000

> <Gold.Chemscore.DEClash>
0.2071

> <Gold.Chemscore.DEInternal>
1.2882

> <Gold.Chemscore.Rot>
2.9555

> <Gold.Chemscore.Internal.Correction>
   9.000000E+99

> <Gold.Chemscore.Hbonds>
donor molecule, donor type, donor heavy atom, donor atom, acceptor molecule, acceptor atom, score
      L1  H    12    38       P1  7948  1.00
      L1  H    13    49       P1  7948  0.80

> <Gold.Chemscore.Hbond.Weighted>
-6.4119

> <Gold.Chemscore.Metal.Weighted>
-0.0000

> <Gold.Chemscore.Lipo.Weighted>
-12.1051

> <Gold.Chemscore.Internal_Hbond.Weighted>
0.0000

> <Gold.Chemscore.DEClash.Weighted>
0.2071

> <Gold.Chemscore.DEInternal.Weighted>
1.2882

> <Gold.Chemscore.Rot.Weighted>
7.5660

> <Gold.Chemscore.Internal.Correction.Weighted>
   9.000000E+99

> <Gold.Protein.RotatedTorsions>
[ 6907 6896 6895 6894 ] final  159.24 input  -60.11 | X-H torsion
[ 7974 7965 7964 7962 ] final -129.85 input  175.53 | X-H torsion
[ 8008 7997 7996 7995 ] final   65.34 input   59.86 | X-H torsion
[ 10167 10162 10161 10158 ] final  -24.93 input  -65.29 | X-H torsion
[ 10718 10713 10712 10709 ] final   48.71 input   66.30 | X-H torsion
[ 10763 10752 10751 10750 ] final  156.26 input  -60.55 | X-H torsion
[ 11005 11000 10999 10996 ] final  -20.03 input  -57.11 | X-H torsion

> <Gold.Protein.ActiveResidues>
 VAL166  LYS551  ARG553  GLY616  TRP617  ASP618  TYR619  PRO620  LYS621  CYS622 
 ASP623  PHE694  ASN695  SER759  ASP760  ASP761  ALA762  ILE779  LEU786  VAL792 
 PHE793  MET794  SER795  GLU796  ALA797  LYS798  CYS799  TRP800  GLU811  SER814 

> <Gold.Protein.RotatedAtoms>
  151.9885  133.3782  159.4134 H   0  0  0  0  0  0  0  0  0  0  0  0  # atno 6907 bound_to 6896
  150.6925  134.3962  159.5108 H   0  0  0  0  0  0  0  0  0  0  0  0  # atno 6908 bound_to 6896
  152.1692  134.8848  160.0586 H   0  0  0  0  0  0  0  0  0  0  0  0  # atno 6909 bound_to 6896
  144.9532  140.7367  143.4775 H   0  0  0  0  0  0  0  0  0  0  0  0  # atno 7974 bound_to 7965
  155.6602  140.3497  155.4780 H   0  0  0  0  0  0  0  0  0  0  0  0  # atno 8008 bound_to 7997
  155.9775  140.1168  157.0780 H   0  0  0  0  0  0  0  0  0  0  0  0  # atno 8009 bound_to 7997
  154.4182  140.1145  156.5376 H   0  0  0  0  0  0  0  0  0  0  0  0  # atno 8010 bound_to 7997
  140.7287  143.4309  151.0803 H   0  0  0  0  0  0  0  0  0  0  0  0  # atno 10167 bound_to 10162
  157.4714  130.8257  149.7992 H   0  0  0  0  0  0  0  0  0  0  0  0  # atno 10718 bound_to 10713
  154.1815  135.2799  155.3050 H   0  0  0  0  0  0  0  0  0  0  0  0  # atno 10763 bound_to 10752
  154.5999  135.5533  153.7367 H   0  0  0  0  0  0  0  0  0  0  0  0  # atno 10764 bound_to 10752
  153.0137  135.6389  154.1954 H   0  0  0  0  0  0  0  0  0  0  0  0  # atno 10765 bound_to 10752
  140.8425  133.7916  155.9876 H   0  0  0  0  0  0  0  0  0  0  0  0  # atno 11005 bound_to 11000
  145.2812  139.1917  143.4790 LP  0  0  0  0  0  0  0  0  0  0  0  0  # atno 17320 bound_to 7965
  146.3328  140.2775  142.8608 LP  0  0  0  0  0  0  0  0  0  0  0  0  # atno 17321 bound_to 7965
  139.7966  143.8143  152.3158 LP  0  0  0  0  0  0  0  0  0  0  0  0  # atno 17342 bound_to 10162
  139.8145  144.7322  150.9653 LP  0  0  0  0  0  0  0  0  0  0  0  0  # atno 17343 bound_to 10162
  156.0075  130.3848  150.2379 LP  0  0  0  0  0  0  0  0  0  0  0  0  # atno 17370 bound_to 10713
  157.0562  131.0077  151.3237 LP  0  0  0  0  0  0  0  0  0  0  0  0  # atno 17371 bound_to 10713
  140.8879  134.2531  157.5110 LP  0  0  0  0  0  0  0  0  0  0  0  0  # atno 17394 bound_to 11000
  139.8703  134.9647  156.4505 LP  0  0  0  0  0  0  0  0  0  0  0  0  # atno 17395 bound_to 11000

$$$$
