AV-unprocessed.smi:252|AV-procd|sdf|1941|dock3
  -GOLD-   2262021 63D 1   1.00000     0.00000
 Structure written by MMmdl.
 56 59  0  0  0  0  0  0  0  0  1 V2000
  149.5075  132.6928  155.5293 C   0  0  0  0  0  0  0  0  0  0  0  0
  149.2464  133.5470  154.2787 C   0  0  0  0  0  0  0  0  0  0  0  0
  147.8540  133.3423  153.6728 C   0  0  0  0  0  0  0  0  0  0  0  0
  147.0279  132.6058  154.2133 O   0  0  0  0  0  0  0  0  0  0  0  0
  147.6095  134.0097  152.5347 N   0  0  0  0  0  0  0  0  0  0  0  0
  146.3595  133.9635  151.7833 C   0  0  1  0  0  0  0  0  0  0  0  0
  146.1489  132.5514  151.2064 C   0  0  0  0  0  0  0  0  0  0  0  0
  144.7917  132.4593  150.4910 C   0  0  0  0  0  0  0  0  0  0  0  0
  143.6499  132.8928  151.4243 C   0  0  0  0  0  0  0  0  0  0  0  0
  143.9073  134.2237  151.9667 N   0  0  0  0  0  0  0  0  0  0  0  0
  142.8516  134.7453  152.6258 C   0  0  0  0  0  0  0  0  0  0  0  0
  141.7202  134.0094  152.7877 N   0  0  0  0  0  0  0  0  0  0  0  0
  140.6758  134.5306  153.4396 C   0  0  0  0  0  0  0  0  0  0  0  0
  140.5558  135.7384  153.9966 N   0  0  0  0  0  0  0  0  0  0  0  0
  141.6926  136.4743  153.8318 C   0  0  0  0  0  0  0  0  0  0  0  0
  142.8764  136.0580  153.1625 C   0  0  0  0  0  0  0  0  0  0  0  0
  143.8245  137.0730  153.1895 N   0  0  0  0  0  0  0  0  0  0  0  0
  143.2327  138.0389  153.8389 C   0  0  0  0  0  0  0  0  0  0  0  0
  141.9515  137.7631  154.2610 N   0  0  0  0  0  0  0  0  0  0  0  0
  141.0651  138.6497  154.9972 C   0  0  0  0  0  0  0  0  0  0  0  0
  139.9071  139.2661  154.1505 C   0  0  1  0  0  0  0  0  0  0  0  0
  140.3933  139.8741  152.9613 O   0  0  0  0  0  0  0  0  0  0  0  0
  138.8366  138.2424  153.7394 C   0  0  0  0  0  0  0  0  0  0  0  0
  137.5089  138.8513  154.1940 C   0  0  0  0  0  0  0  0  0  0  0  0
  137.7905  140.2270  154.3830 O   0  0  0  0  0  0  0  0  0  0  0  0
  139.0890  140.3075  154.9460 C   0  0  2  0  0  0  0  0  0  0  0  0
  139.6150  141.7521  154.9449 C   0  0  0  0  0  0  0  0  0  0  0  0
  145.1722  134.3593  152.6844 C   0  0  0  0  0  0  0  0  0  0  0  0
  150.5059  132.8833  155.9236 H   0  0  0  0  0  0  0  0  0  0  0  0
  149.4400  131.6277  155.3048 H   0  0  0  0  0  0  0  0  0  0  0  0
  148.7928  132.9175  156.3219 H   0  0  0  0  0  0  0  0  0  0  0  0
  149.3656  134.6021  154.5275 H   0  0  0  0  0  0  0  0  0  0  0  0
  149.9945  133.3170  153.5191 H   0  0  0  0  0  0  0  0  0  0  0  0
  148.3453  134.5898  152.1586 H   0  0  0  0  0  0  0  0  0  0  0  0
  146.4186  134.6652  150.9487 H   0  0  0  0  0  0  0  0  0  0  0  0
  146.9530  132.3007  150.5135 H   0  0  0  0  0  0  0  0  0  0  0  0
  146.1851  131.8126  152.0085 H   0  0  0  0  0  0  0  0  0  0  0  0
  144.8016  133.0979  149.6067 H   0  0  0  0  0  0  0  0  0  0  0  0
  144.6208  131.4421  150.1380 H   0  0  0  0  0  0  0  0  0  0  0  0
  142.7048  132.8910  150.8793 H   0  0  0  0  0  0  0  0  0  0  0  0
  143.5492  132.1788  152.2433 H   0  0  0  0  0  0  0  0  0  0  0  0
  139.8124  133.8879  153.5279 H   0  0  0  0  0  0  0  0  0  0  0  0
  143.7165  138.9861  154.0270 H   0  0  0  0  0  0  0  0  0  0  0  0
  140.6784  138.0892  155.8482 H   0  0  0  0  0  0  0  0  0  0  0  0
  141.6815  139.4351  155.4361 H   0  0  0  0  0  0  0  0  0  0  0  0
  141.3217  140.0202  153.0603 H   0  0  0  0  0  0  0  0  0  0  0  0
  138.8322  138.0768  152.6608 H   0  0  0  0  0  0  0  0  0  0  0  0
  138.9705  137.2648  154.2026 H   0  0  0  0  0  0  0  0  0  0  0  0
  136.7073  138.7033  153.4701 H   0  0  0  0  0  0  0  0  0  0  0  0
  137.1939  138.4179  155.1444 H   0  0  0  0  0  0  0  0  0  0  0  0
  138.9956  139.9782  155.9829 H   0  0  0  0  0  0  0  0  0  0  0  0
  140.6309  141.7987  155.3378 H   0  0  0  0  0  0  0  0  0  0  0  0
  138.9886  142.3891  155.5694 H   0  0  0  0  0  0  0  0  0  0  0  0
  139.6206  142.1827  153.9435 H   0  0  0  0  0  0  0  0  0  0  0  0
  145.1538  133.7273  153.5735 H   0  0  0  0  0  0  0  0  0  0  0  0
  145.2883  135.3888  153.0266 H   0  0  0  0  0  0  0  0  0  0  0  0
  1  2  1  0  0  0  0
  1 29  1  0  0  0  0
  1 30  1  0  0  0  0
  1 31  1  0  0  0  0
  2  3  1  0  0  0  0
  2 32  1  0  0  0  0
  2 33  1  0  0  0  0
  3  4  2  0  0  0  0
  3  5  1  0  0  0  0
  5  6  1  0  0  0  0
  5 34  1  0  0  0  0
  6 28  1  0  0  0  0
  6  7  1  0  0  0  0
  6 35  1  0  0  0  0
  7  8  1  0  0  0  0
  7 36  1  0  0  0  0
  7 37  1  0  0  0  0
  8  9  1  0  0  0  0
  8 38  1  0  0  0  0
  8 39  1  0  0  0  0
  9 10  1  0  0  0  0
  9 40  1  0  0  0  0
  9 41  1  0  0  0  0
 10 11  1  0  0  0  0
 10 28  1  0  0  0  0
 11 16  1  0  0  0  0
 11 12  2  0  0  0  0
 12 13  1  0  0  0  0
 13 14  2  0  0  0  0
 13 42  1  0  0  0  0
 14 15  1  0  0  0  0
 15 19  1  0  0  0  0
 15 16  2  0  0  0  0
 16 17  1  0  0  0  0
 17 18  2  0  0  0  0
 18 19  1  0  0  0  0
 18 43  1  0  0  0  0
 19 20  1  0  0  0  0
 20 21  1  0  0  0  0
 20 44  1  0  0  0  0
 20 45  1  0  0  0  0
 21 26  1  0  0  0  0
 21 22  1  0  0  0  0
 21 23  1  0  0  0  0
 22 46  1  0  0  0  0
 23 24  1  0  0  0  0
 23 47  1  0  0  0  0
 23 48  1  0  0  0  0
 24 25  1  0  0  0  0
 24 49  1  0  0  0  0
 24 50  1  0  0  0  0
 25 26  1  0  0  0  0
 26 27  1  0  0  0  0
 26 51  1  0  0  0  0
 27 52  1  0  0  0  0
 27 53  1  0  0  0  0
 27 54  1  0  0  0  0
 28 55  1  0  0  0  0
 28 56  1  0  0  0  0
M  END
> <s_m_source_file>
AV-unprocessed.smi

> <i_m_source_file_index>
252

> <i_lp_mmshare_version>
43012

> <i_f3d_flags>
0

> <s_epik_input>
W0NIM11bQ0gyXUMoPU8pW05IXVtDQEBIXTFbQ0gyXVtDSDJdW0NIMl1OKFtDSDJdMSljKG5bY0hdbjIpYyhjMjMpbltjSF1uM1tDSDJdW0NAQF00KFtPSF0pW0NIMl1bQ0gyXU9bQ0BIXTRbQ0gzXQ==

> <s_epik_cmdline>
J2VwaWtfcHl0aG9uJywgJy1waCcsICc3LjAnLCAnLXRuJywgJzgnLCAnLW1hJywgJzIwMCcsICctbWV0YWxfYmluZGluZycsICctaW1hZScsICc8aW5maWxlLm1hZT4nLCAnLW9tYWUnLCAnPG91dGZpbGUubWFlPic=

> <r_lp_tautomer_probability>
1

> <r_epik_Ionization_Penalty>
0.00182575

> <r_epik_Ionization_Penalty_Charging>
0

> <r_epik_Ionization_Penalty_Neutral>
0.00182575

> <r_epik_State_Penalty>
0.00104524

> <r_epik_Charging_Adjusted_Penalty>
0.00104524

> <i_epik_Tot_Q>
0

> <i_epik_Tot_abs_Q>
0

> <r_epik_Metal_State_Penalty>
-0

> <b_epik_Metal_Only>
0

> <s_lp_Force_Field>
OPLS_2005

> <r_lp_Energy>
42.5457

> <b_lp_Chiralities_Consistent>
1

> <s_lp_Variant>
AV-unprocessed.smi:252-6

> <Gold.Version>
5.8.1

> <Gold.Id.Protein>
6NUR|6NUR_protein|mol2

> <Gold.PLP.Fitness>
45.1530

> <Gold.PLP.PLP>
-39.5387

> <Gold.PLP.part.hbond>
-2.5640

> <Gold.PLP.part.metal>
0.0000

> <Gold.PLP.part.buried>
-4.3868

> <Gold.PLP.part.nonpolar>
-35.4880

> <Gold.PLP.part.repulsive>
1.5881

> <Gold.PLP.ligand.clash>
0.0000

> <Gold.PLP.ligand.torsion>
0.3765

> <Gold.PLP.Chemscore.Hbond>
1.2448

> <Gold.PLP.Chemscore.CHOScore>
0.7852

> <Gold.PLP.Chemscore.Metal>
0.0000

> <Gold.Chemscore.Hbonds>
donor molecule, donor type, donor heavy atom, donor atom, acceptor molecule, acceptor atom, score
      L1  H     5    34       P1  7948  0.64
      L1  H    22    46       P1 10175  0.11
      L1  C    18    43       P1 10175  0.75

> <Gold.PLP.Chemscore.Internal.Correction>
0.2776

> <Gold.Rescore>
     Score         DG    S(hbond)    S(metal)    S(lipo)     H(rot)  DE(clash)    DE(int)     intcor
      7.00     -10.61       0.65        0.00      84.50       2.70       2.17       1.44       ----

> <Gold.Chemscore.Fitness>
7.0007

> <Gold.Chemscore.DG>
-10.6100

> <Gold.Chemscore.ZeroCoef>
-5.4800

> <Gold.Chemscore.Hbond>
0.6484

> <Gold.Chemscore.Metal>
0.0000

> <Gold.Chemscore.Lipo>
84.5039

> <Gold.Chemscore.Internal_Hbond>
0.0000

> <Gold.Chemscore.DEClash>
2.1706

> <Gold.Chemscore.DEInternal>
1.4386

> <Gold.Chemscore.Rot>
2.7041

> <Gold.Chemscore.Internal.Correction>
   9.000000E+99

> <Gold.Chemscore.Hbonds>
donor molecule, donor type, donor heavy atom, donor atom, acceptor molecule, acceptor atom, score
      L1  H     5    34       P1  7948  0.05
      L1  H    22    46       P1 10175  0.01

> <Gold.Chemscore.Hbond.Weighted>
-2.1655

> <Gold.Chemscore.Metal.Weighted>
-0.0000

> <Gold.Chemscore.Lipo.Weighted>
-9.8870

> <Gold.Chemscore.Internal_Hbond.Weighted>
0.0000

> <Gold.Chemscore.DEClash.Weighted>
2.1706

> <Gold.Chemscore.DEInternal.Weighted>
1.4386

> <Gold.Chemscore.Rot.Weighted>
6.9225

> <Gold.Chemscore.Internal.Correction.Weighted>
   9.000000E+99

> <Gold.Protein.RotatedTorsions>
[ 6907 6896 6895 6894 ] final   87.21 input  -60.11 | X-H torsion
[ 7974 7965 7964 7962 ] final   81.75 input  175.53 | X-H torsion
[ 8008 7997 7996 7995 ] final   41.56 input   59.86 | X-H torsion
[ 10167 10162 10161 10158 ] final  -71.39 input  -65.29 | X-H torsion
[ 10718 10713 10712 10709 ] final  134.43 input   66.30 | X-H torsion
[ 10763 10752 10751 10750 ] final   59.53 input  -60.55 | X-H torsion
[ 11005 11000 10999 10996 ] final   39.27 input  -57.11 | X-H torsion

> <Gold.Protein.ActiveResidues>
 VAL166  LYS551  ARG553  GLY616  TRP617  ASP618  TYR619  PRO620  LYS621  CYS622 
 ASP623  PHE694  ASN695  SER759  ASP760  ASP761  ALA762  ILE779  LEU786  VAL792 
 PHE793  MET794  SER795  GLU796  ALA797  LYS798  CYS799  TRP800  GLU811  SER814 

> <Gold.Protein.RotatedAtoms>
  152.5407  134.2311  159.8824 H   0  0  0  0  0  0  0  0  0  0  0  0  # atno 6907 bound_to 6896
  151.2283  133.4457  159.2610 H   0  0  0  0  0  0  0  0  0  0  0  0  # atno 6908 bound_to 6896
  151.0740  134.9830  159.8379 H   0  0  0  0  0  0  0  0  0  0  0  0  # atno 6909 bound_to 6896
  145.6341  139.2411  143.2068 H   0  0  0  0  0  0  0  0  0  0  0  0  # atno 7974 bound_to 7965
  155.2716  140.3366  155.4265 H   0  0  0  0  0  0  0  0  0  0  0  0  # atno 8008 bound_to 7997
  156.2130  140.1777  156.7694 H   0  0  0  0  0  0  0  0  0  0  0  0  # atno 8009 bound_to 7997
  154.5713  140.0669  156.8953 H   0  0  0  0  0  0  0  0  0  0  0  0  # atno 8010 bound_to 7997
  140.5277  143.2324  151.7318 H   0  0  0  0  0  0  0  0  0  0  0  0  # atno 10167 bound_to 10162
  157.4674  131.1078  150.9846 H   0  0  0  0  0  0  0  0  0  0  0  0  # atno 10718 bound_to 10713
  152.9897  135.5568  154.5728 H   0  0  0  0  0  0  0  0  0  0  0  0  # atno 10763 bound_to 10752
  154.5125  135.2803  155.1333 H   0  0  0  0  0  0  0  0  0  0  0  0  # atno 10764 bound_to 10752
  154.2719  135.6361  153.5366 H   0  0  0  0  0  0  0  0  0  0  0  0  # atno 10765 bound_to 10752
  140.2044  134.3831  155.8080 H   0  0  0  0  0  0  0  0  0  0  0  0  # atno 11005 bound_to 11000
  146.1333  140.7156  142.9401 LP  0  0  0  0  0  0  0  0  0  0  0  0  # atno 17320 bound_to 7965
  144.7182  140.4284  143.7028 LP  0  0  0  0  0  0  0  0  0  0  0  0  # atno 17321 bound_to 7965
  139.4943  144.4161  152.0028 LP  0  0  0  0  0  0  0  0  0  0  0  0  # atno 17342 bound_to 10162
  140.3261  144.3371  150.5998 LP  0  0  0  0  0  0  0  0  0  0  0  0  # atno 17343 bound_to 10162
  157.0622  130.5830  149.5388 LP  0  0  0  0  0  0  0  0  0  0  0  0  # atno 17370 bound_to 10713
  156.0057  130.5143  150.7820 LP  0  0  0  0  0  0  0  0  0  0  0  0  # atno 17371 bound_to 10713
  141.2227  133.7111  156.8313 LP  0  0  0  0  0  0  0  0  0  0  0  0  # atno 17394 bound_to 11000
  140.2018  134.8891  157.3178 LP  0  0  0  0  0  0  0  0  0  0  0  0  # atno 17395 bound_to 11000

$$$$
