AV-unprocessed.smi:1308|AV-procd|sdf|5441|dock7
  -GOLD-   22720 5 03D 1   1.00000     0.00000
 Structure written by MMmdl.
 45 45  0  0  0  0  0  0  0  0  1 V2000
  146.1923  138.1847  152.1954 C   0  0  0  0  0  0  0  0  0  0  0  0
  147.0141  139.1640  153.0050 C   0  0  0  0  0  0  0  0  0  0  0  0
  148.3037  138.7288  153.2624 N   0  0  0  0  0  0  0  0  0  0  0  0
  149.1348  139.5614  153.9912 C   0  0  0  0  0  0  0  0  0  0  0  0
  150.5305  139.0104  154.2283 C   0  0  0  0  0  0  0  0  0  0  0  0
  148.7007  140.7650  154.4445 C   0  0  0  0  0  0  0  0  0  0  0  0
  149.5862  141.7133  155.2525 C   0  0  0  0  0  0  0  0  0  0  0  0
  149.7874  141.3617  156.7287 C   0  0  0  0  0  0  0  0  0  0  0  0
  148.8254  141.2997  157.4944 O   0  0  0  0  0  0  0  0  0  0  0  0
  151.0555  141.1219  157.1031 N   0  0  0  0  0  0  0  0  0  0  0  0
  151.5307  140.7156  158.4283 C   0  0  1  0  0  0  0  0  0  0  0  0
  152.3105  139.3899  158.3725 C   0  0  0  0  0  0  0  0  0  0  0  0
  152.3178  141.8316  159.1519 C   0  0  0  0  0  0  0  0  0  0  0  0
  151.4246  142.9297  159.7637 C   0  0  0  0  0  0  0  0  0  0  0  0
  152.0915  144.3186  159.8330 C   0  0  0  0  0  0  0  0  0  0  0  0
  151.2429  145.3417  160.6071 C   0  0  0  0  0  0  0  0  0  0  0  0
  152.4011  144.8426  158.4222 C   0  0  0  0  0  0  0  0  0  0  0  0
  147.3068  141.1710  154.1471 C   0  0  0  0  0  0  0  0  0  0  0  0
  146.8486  142.2412  154.5453 O   0  0  0  0  0  0  0  0  0  0  0  0
  146.5077  140.2938  153.3960 N   0  0  0  0  0  0  0  0  0  0  0  0
  148.6660  137.8412  152.9455 H   0  0  0  0  0  0  0  0  0  0  0  0
  145.1784  138.5572  152.0441 H   0  0  0  0  0  0  0  0  0  0  0  0
  146.1287  137.2250  152.7090 H   0  0  0  0  0  0  0  0  0  0  0  0
  146.6460  138.0258  151.2166 H   0  0  0  0  0  0  0  0  0  0  0  0
  150.7391  138.9428  155.2963 H   0  0  0  0  0  0  0  0  0  0  0  0
  151.2790  139.6573  153.7707 H   0  0  0  0  0  0  0  0  0  0  0  0
  150.6460  138.0128  153.8027 H   0  0  0  0  0  0  0  0  0  0  0  0
  149.2127  142.7357  155.1883 H   0  0  0  0  0  0  0  0  0  0  0  0
  150.5686  141.7467  154.7806 H   0  0  0  0  0  0  0  0  0  0  0  0
  151.7648  141.2065  156.3896 H   0  0  0  0  0  0  0  0  0  0  0  0
  150.6288  140.5261  159.0113 H   0  0  0  0  0  0  0  0  0  0  0  0
  152.5353  139.0300  159.3768 H   0  0  0  0  0  0  0  0  0  0  0  0
  153.2589  139.4970  157.8456 H   0  0  0  0  0  0  0  0  0  0  0  0
  151.7337  138.6141  157.8681 H   0  0  0  0  0  0  0  0  0  0  0  0
  152.9120  141.3688  159.9393 H   0  0  0  0  0  0  0  0  0  0  0  0
  153.0354  142.2869  158.4686 H   0  0  0  0  0  0  0  0  0  0  0  0
  150.5172  143.0150  159.1649 H   0  0  0  0  0  0  0  0  0  0  0  0
  151.0994  142.6278  160.7601 H   0  0  0  0  0  0  0  0  0  0  0  0
  153.0450  144.2114  160.3521 H   0  0  0  0  0  0  0  0  0  0  0  0
  150.2567  145.4595  160.1571 H   0  0  0  0  0  0  0  0  0  0  0  0
  151.7221  146.3210  160.6142 H   0  0  0  0  0  0  0  0  0  0  0  0
  151.1030  145.0482  161.6471 H   0  0  0  0  0  0  0  0  0  0  0  0
  151.4898  144.9648  157.8359 H   0  0  0  0  0  0  0  0  0  0  0  0
  153.0562  144.1587  157.8814 H   0  0  0  0  0  0  0  0  0  0  0  0
  152.9024  145.8101  158.4630 H   0  0  0  0  0  0  0  0  0  0  0  0
  1 22  1  0  0  0  0
  1 23  1  0  0  0  0
  1 24  1  0  0  0  0
  1  2  1  0  0  0  0
  2  3  1  0  0  0  0
  2 20  2  0  0  0  0
  3  4  1  0  0  0  0
  3 21  1  0  0  0  0
  4  6  2  0  0  0  0
  4  5  1  0  0  0  0
  5 25  1  0  0  0  0
  5 26  1  0  0  0  0
  5 27  1  0  0  0  0
  6 18  1  0  0  0  0
  6  7  1  0  0  0  0
  7  8  1  0  0  0  0
  7 28  1  0  0  0  0
  7 29  1  0  0  0  0
  8  9  2  0  0  0  0
  8 10  1  0  0  0  0
 10 11  1  0  0  0  0
 10 30  1  0  0  0  0
 11 12  1  0  0  0  0
 11 13  1  0  0  0  0
 11 31  1  0  0  0  0
 12 32  1  0  0  0  0
 12 33  1  0  0  0  0
 12 34  1  0  0  0  0
 13 14  1  0  0  0  0
 13 35  1  0  0  0  0
 13 36  1  0  0  0  0
 14 15  1  0  0  0  0
 14 37  1  0  0  0  0
 14 38  1  0  0  0  0
 15 16  1  0  0  0  0
 15 17  1  0  0  0  0
 15 39  1  0  0  0  0
 16 40  1  0  0  0  0
 16 41  1  0  0  0  0
 16 42  1  0  0  0  0
 17 43  1  0  0  0  0
 17 44  1  0  0  0  0
 17 45  1  0  0  0  0
 18 19  2  0  0  0  0
 18 20  1  0  0  0  0
M  END
> <s_m_source_file>
AV-unprocessed.smi

> <i_m_source_file_index>
1308

> <i_lp_mmshare_version>
43012

> <i_f3d_flags>
0

> <s_epik_input>
W0NIM11jMW5jKFtDSDNdKWMoYyg9TylbbkhdMSlbQ0gyXUMoPU8pW05IXVtDQEhdKFtDSDNdKVtDSDJdW0NIMl1bQ0hdKFtDSDNdKVtDSDNd

> <s_epik_cmdline>
J2VwaWtfcHl0aG9uJywgJy1waCcsICc3LjAnLCAnLXRuJywgJzgnLCAnLW1hJywgJzIwMCcsICctbWV0YWxfYmluZGluZycsICctaW1hZScsICc8aW5maWxlLm1hZT4nLCAnLW9tYWUnLCAnPG91dGZpbGUubWFlPic=

> <r_lp_tautomer_probability>
0.156392

> <r_epik_Ionization_Penalty>
0.0141156

> <r_epik_Ionization_Penalty_Charging>
0.0139937

> <r_epik_Ionization_Penalty_Neutral>
0.00012188

> <r_epik_State_Penalty>
1.52994

> <r_epik_Charging_Adjusted_Penalty>
1.54393

> <i_epik_Tot_Q>
0

> <i_epik_Tot_abs_Q>
0

> <r_epik_Metal_State_Penalty>
1.70663

> <b_epik_Metal_Only>
0

> <s_lp_Force_Field>
OPLS_2005

> <r_lp_Energy>
10.3869

> <b_lp_Chiralities_Consistent>
1

> <s_lp_Variant>
AV-unprocessed.smi:1308-4

> <Gold.Version>
5.8.1

> <Gold.Id.Protein>
6NUR|6NUR_protein|mol2

> <Gold.PLP.Fitness>
46.1801

> <Gold.PLP.PLP>
-44.5221

> <Gold.PLP.part.hbond>
-2.0000

> <Gold.PLP.part.metal>
0.0000

> <Gold.PLP.part.buried>
-3.2014

> <Gold.PLP.part.nonpolar>
-40.6410

> <Gold.PLP.part.repulsive>
0.8386

> <Gold.PLP.ligand.clash>
0.0000

> <Gold.PLP.ligand.torsion>
0.7000

> <Gold.PLP.Chemscore.Hbond>
0.9920

> <Gold.PLP.Chemscore.CHOScore>
0.0000

> <Gold.PLP.Chemscore.Metal>
0.0000

> <Gold.Chemscore.Hbonds>
donor molecule, donor type, donor heavy atom, donor atom, acceptor molecule, acceptor atom, score
      L1  H     3    21       P1  7948  1.00

> <Gold.PLP.Chemscore.Internal.Correction>
0.0820

> <Gold.Rescore>
     Score         DG    S(hbond)    S(metal)    S(lipo)     H(rot)  DE(clash)    DE(int)     intcor
     15.03     -16.10       0.91        0.00     108.35       1.98       0.07       1.00       ----

> <Gold.Chemscore.Fitness>
15.0251

> <Gold.Chemscore.DG>
-16.1016

> <Gold.Chemscore.ZeroCoef>
-5.4800

> <Gold.Chemscore.Hbond>
0.9050

> <Gold.Chemscore.Metal>
0.0000

> <Gold.Chemscore.Lipo>
108.3470

> <Gold.Chemscore.Internal_Hbond>
0.0000

> <Gold.Chemscore.DEClash>
0.0743

> <Gold.Chemscore.DEInternal>
1.0022

> <Gold.Chemscore.Rot>
1.9835

> <Gold.Chemscore.Internal.Correction>
   9.000000E+99

> <Gold.Chemscore.Hbonds>
donor molecule, donor type, donor heavy atom, donor atom, acceptor molecule, acceptor atom, score
      L1  H     3    21       P1  7948  0.99

> <Gold.Chemscore.Hbond.Weighted>
-3.0228

> <Gold.Chemscore.Metal.Weighted>
-0.0000

> <Gold.Chemscore.Lipo.Weighted>
-12.6766

> <Gold.Chemscore.Internal_Hbond.Weighted>
0.0000

> <Gold.Chemscore.DEClash.Weighted>
0.0743

> <Gold.Chemscore.DEInternal.Weighted>
1.0022

> <Gold.Chemscore.Rot.Weighted>
5.0778

> <Gold.Chemscore.Internal.Correction.Weighted>
   9.000000E+99

> <Gold.Protein.RotatedTorsions>
[ 6907 6896 6895 6894 ] final -137.69 input  -60.11 | X-H torsion
[ 7974 7965 7964 7962 ] final  -66.57 input  175.53 | X-H torsion
[ 8008 7997 7996 7995 ] final   53.46 input   59.86 | X-H torsion
[ 10167 10162 10161 10158 ] final   62.06 input  -65.29 | X-H torsion
[ 10718 10713 10712 10709 ] final  170.27 input   66.30 | X-H torsion
[ 10763 10752 10751 10750 ] final -126.98 input  -60.55 | X-H torsion
[ 11005 11000 10999 10996 ] final   54.22 input  -57.11 | X-H torsion

> <Gold.Protein.ActiveResidues>
 VAL166  LYS551  ARG553  GLY616  TRP617  ASP618  TYR619  PRO620  LYS621  CYS622 
 ASP623  PHE694  ASN695  SER759  ASP760  ASP761  ALA762  ILE779  LEU786  VAL792 
 PHE793  MET794  SER795  GLU796  ALA797  LYS798  CYS799  TRP800  GLU811  SER814 

> <Gold.Protein.RotatedAtoms>
  151.0256  133.5837  159.2666 H   0  0  0  0  0  0  0  0  0  0  0  0  # atno 6907 bound_to 6896
  151.2937  135.0748  159.9223 H   0  0  0  0  0  0  0  0  0  0  0  0  # atno 6908 bound_to 6896
  152.5333  133.9950  159.7922 H   0  0  0  0  0  0  0  0  0  0  0  0  # atno 6909 bound_to 6896
  145.7402  140.8957  143.0534 H   0  0  0  0  0  0  0  0  0  0  0  0  # atno 7974 bound_to 7965
  155.4686  140.3464  155.4322 H   0  0  0  0  0  0  0  0  0  0  0  0  # atno 8008 bound_to 7997
  156.1115  140.1462  156.9361 H   0  0  0  0  0  0  0  0  0  0  0  0  # atno 8009 bound_to 7997
  154.4760  140.0885  156.7241 H   0  0  0  0  0  0  0  0  0  0  0  0  # atno 8010 bound_to 7997
  140.1480  144.4490  150.6774 H   0  0  0  0  0  0  0  0  0  0  0  0  # atno 10167 bound_to 10162
  157.0105  131.0203  151.2804 H   0  0  0  0  0  0  0  0  0  0  0  0  # atno 10718 bound_to 10713
  154.8749  135.3977  154.3520 H   0  0  0  0  0  0  0  0  0  0  0  0  # atno 10763 bound_to 10752
  153.4304  135.7025  153.6240 H   0  0  0  0  0  0  0  0  0  0  0  0  # atno 10764 bound_to 10752
  153.4864  135.3758  155.2438 H   0  0  0  0  0  0  0  0  0  0  0  0  # atno 10765 bound_to 10752
  140.0704  134.5478  155.9053 H   0  0  0  0  0  0  0  0  0  0  0  0  # atno 11005 bound_to 11000
  144.6872  139.9450  143.7476 LP  0  0  0  0  0  0  0  0  0  0  0  0  # atno 17320 bound_to 7965
  146.0455  139.3462  143.0671 LP  0  0  0  0  0  0  0  0  0  0  0  0  # atno 17321 bound_to 7965
  140.6720  143.2289  151.5602 LP  0  0  0  0  0  0  0  0  0  0  0  0  # atno 17342 bound_to 10162
  139.5439  144.2572  152.1405 LP  0  0  0  0  0  0  0  0  0  0  0  0  # atno 17343 bound_to 10162
  157.5324  130.8067  149.7932 LP  0  0  0  0  0  0  0  0  0  0  0  0  # atno 17370 bound_to 10713
  156.0138  130.3822  150.2178 LP  0  0  0  0  0  0  0  0  0  0  0  0  # atno 17371 bound_to 10713
  141.2009  133.6615  156.5923 LP  0  0  0  0  0  0  0  0  0  0  0  0  # atno 17394 bound_to 11000
  140.3636  134.7666  157.4551 LP  0  0  0  0  0  0  0  0  0  0  0  0  # atno 17395 bound_to 11000

$$$$
