AV-unprocessed.smi:3166|AV-procd|sdf|12093|dock4
  -GOLD-   2272017523D 1   1.00000     0.00000
 Structure written by MMmdl.
 41 42  0  0  0  0  0  0  0  0  2 V2000
  143.8953  136.0525  152.6420 C   0  0  0  0  0  0  0  0  0  0  0  0
  145.3531  135.8743  152.1948 C   0  0  2  0  0  0  0  0  0  0  0  0
  145.7361  134.3760  152.1129 C   0  0  0  0  0  0  0  0  0  0  0  0
  144.8719  133.6352  151.2119 N   0  0  0  0  0  0  0  0  0  0  0  0
  144.6396  133.8634  149.8718 C   0  0  0  0  0  0  0  0  0  0  0  0
  143.7608  132.9100  149.4438 C   0  0  0  0  0  0  0  0  0  0  0  0
  143.5106  132.1331  150.6092 C   0  0  0  0  0  0  0  0  0  0  0  0
  144.1771  132.5702  151.6655 N   0  0  0  0  0  0  0  0  0  0  0  0
  146.2387  136.6168  153.1194 N   0  3  0  0  0  0  0  0  0  0  0  0
  145.9836  138.0709  153.2158 C   0  0  0  0  0  0  0  0  0  0  0  0
  147.0170  138.9021  152.4180 C   0  0  0  0  0  0  0  0  0  0  0  0
  147.0541  138.3700  151.1073 O   0  0  0  0  0  0  0  0  0  0  0  0
  146.6580  140.4057  152.3236 C   0  0  0  0  0  0  0  0  0  0  0  0
  146.8120  141.1298  153.6727 C   0  0  0  0  0  0  0  0  0  0  0  0
  148.2306  140.9556  154.2369 C   0  0  0  0  0  0  0  0  0  0  0  0
  148.6136  139.4716  154.3484 C   0  0  0  0  0  0  0  0  0  0  0  0
  148.4408  138.7440  153.0021 C   0  0  0  0  0  0  0  0  0  0  0  0
  143.2111  135.5562  151.9528 H   0  0  0  0  0  0  0  0  0  0  0  0
  143.6194  137.1071  152.6726 H   0  0  0  0  0  0  0  0  0  0  0  0
  143.7291  135.6350  153.6359 H   0  0  0  0  0  0  0  0  0  0  0  0
  145.4396  136.3358  151.2093 H   0  0  0  0  0  0  0  0  0  0  0  0
  146.7723  134.2411  151.7983 H   0  0  0  0  0  0  0  0  0  0  0  0
  145.6660  133.9049  153.0944 H   0  0  0  0  0  0  0  0  0  0  0  0
  145.1141  134.6751  149.3400 H   0  0  0  0  0  0  0  0  0  0  0  0
  143.3578  132.7861  148.4494 H   0  0  0  0  0  0  0  0  0  0  0  0
  142.8695  131.2707  150.7183 H   0  0  0  0  0  0  0  0  0  0  0  0
  146.1090  136.2355  154.0458 H   0  0  0  0  0  0  0  0  0  0  0  0
  144.9802  138.2767  152.8503 H   0  0  0  0  0  0  0  0  0  0  0  0
  145.9996  138.3636  154.2667 H   0  0  0  0  0  0  0  0  0  0  0  0
  146.1778  138.1129  150.8620 H   0  0  0  0  0  0  0  0  0  0  0  0
  147.3151  140.8893  151.5988 H   0  0  0  0  0  0  0  0  0  0  0  0
  145.6461  140.5446  151.9420 H   0  0  0  0  0  0  0  0  0  0  0  0
  146.5944  142.1908  153.5477 H   0  0  0  0  0  0  0  0  0  0  0  0
  146.0806  140.7525  154.3878 H   0  0  0  0  0  0  0  0  0  0  0  0
  148.9440  141.4668  153.5894 H   0  0  0  0  0  0  0  0  0  0  0  0
  148.3043  141.4340  155.2141 H   0  0  0  0  0  0  0  0  0  0  0  0
  149.6477  139.3838  154.6825 H   0  0  0  0  0  0  0  0  0  0  0  0
  148.0071  138.9913  155.1165 H   0  0  0  0  0  0  0  0  0  0  0  0
  148.6895  137.6882  153.1188 H   0  0  0  0  0  0  0  0  0  0  0  0
  149.1706  139.1481  152.2986 H   0  0  0  0  0  0  0  0  0  0  0  0
  147.1991  136.4680  152.8452 H   0  0  0  0  0  0  0  0  0  0  0  0
  1  2  1  0  0  0  0
  1 18  1  0  0  0  0
  1 19  1  0  0  0  0
  1 20  1  0  0  0  0
  2  3  1  0  0  0  0
  2  9  1  0  0  0  0
  2 21  1  0  0  0  0
  3  4  1  0  0  0  0
  3 22  1  0  0  0  0
  3 23  1  0  0  0  0
  4  8  1  0  0  0  0
  4  5  1  0  0  0  0
  5  6  2  0  0  0  0
  5 24  1  0  0  0  0
  6  7  1  0  0  0  0
  6 25  1  0  0  0  0
  7  8  2  0  0  0  0
  7 26  1  0  0  0  0
  9 10  1  0  0  0  0
  9 27  1  0  0  0  0
  9 41  1  0  0  0  0
 10 11  1  0  0  0  0
 10 28  1  0  0  0  0
 10 29  1  0  0  0  0
 11 17  1  0  0  0  0
 11 12  1  0  0  0  0
 11 13  1  0  0  0  0
 12 30  1  0  0  0  0
 13 14  1  0  0  0  0
 13 31  1  0  0  0  0
 13 32  1  0  0  0  0
 14 15  1  0  0  0  0
 14 33  1  0  0  0  0
 14 34  1  0  0  0  0
 15 16  1  0  0  0  0
 15 35  1  0  0  0  0
 15 36  1  0  0  0  0
 16 17  1  0  0  0  0
 16 37  1  0  0  0  0
 16 38  1  0  0  0  0
 17 39  1  0  0  0  0
 17 40  1  0  0  0  0
M  CHG  1   9   1
M  END
> <s_m_source_file>
AV-unprocessed.smi

> <i_m_source_file_index>
3166

> <i_lp_mmshare_version>
43012

> <i_f3d_flags>
0

> <s_epik_input>
bjFbY0hdW2NIXVtjSF1uMVtDSDJdW0NAQEhdKFtDSDNdKVtOSF1bQ0gyXUMyKFtPSF0pW0NIMl1bQ0gyXVtDSDJdW0NIMl1bQ0gyXTI=

> <s_epik_cmdline>
J2VwaWtfcHl0aG9uJywgJy1waCcsICc3LjAnLCAnLXRuJywgJzgnLCAnLW1hJywgJzIwMCcsICctbWV0YWxfYmluZGluZycsICctaW1hZScsICc8aW5maWxlLm1hZT4nLCAnLW9tYWUnLCAnPG91dGZpbGUubWFlPic=

> <r_lp_tautomer_probability>
1

> <r_epik_Ionization_Penalty>
0.0111521

> <r_epik_Ionization_Penalty_Charging>
0.0111472

> <r_epik_Ionization_Penalty_Neutral>
4.96355e-06

> <r_epik_State_Penalty>
0.00856328

> <r_epik_Charging_Adjusted_Penalty>
0.0197104

> <i_epik_Tot_Q>
1

> <i_epik_Tot_abs_Q>
1

> <r_epik_Metal_State_Penalty>
0.00856387

> <b_epik_Metal_Only>
0

> <s_lp_Force_Field>
OPLS_2005

> <r_lp_Energy>
18.587

> <b_lp_Chiralities_Consistent>
1

> <s_lp_Variant>
AV-unprocessed.smi:3166-1

> <Gold.Version>
5.8.1

> <Gold.Id.Protein>
6NUR|6NUR_protein|mol2

> <Gold.PLP.Fitness>
39.4820

> <Gold.PLP.PLP>
-25.2318

> <Gold.PLP.part.hbond>
-4.0000

> <Gold.PLP.part.metal>
0.0000

> <Gold.PLP.part.buried>
8.1794

> <Gold.PLP.part.nonpolar>
-30.9199

> <Gold.PLP.part.repulsive>
0.1720

> <Gold.PLP.ligand.clash>
0.0000

> <Gold.PLP.ligand.torsion>
0.3518

> <Gold.PLP.Chemscore.Hbond>
3.0000

> <Gold.PLP.Chemscore.CHOScore>
1.9739

> <Gold.PLP.Chemscore.Metal>
0.0000

> <Gold.Chemscore.Hbonds>
donor molecule, donor type, donor heavy atom, donor atom, acceptor molecule, acceptor atom, score
      L1  H     9    41       P1  7948  2.00
      P1  H  7954  7966       L1    12  1.00
      L1  C     5    24       P1  7921  0.90
      L1  C     7    26       P1 10952  1.00

> <Gold.PLP.Chemscore.Internal.Correction>
0.0322

> <Gold.Rescore>
     Score         DG    S(hbond)    S(metal)    S(lipo)     H(rot)  DE(clash)    DE(int)     intcor
     12.19     -16.65       1.96        0.00      87.51       2.20       4.08       0.38       ----

> <Gold.Chemscore.Fitness>
12.1885

> <Gold.Chemscore.DG>
-16.6479

> <Gold.Chemscore.ZeroCoef>
-5.4800

> <Gold.Chemscore.Hbond>
1.9637

> <Gold.Chemscore.Metal>
0.0000

> <Gold.Chemscore.Lipo>
87.5115

> <Gold.Chemscore.Internal_Hbond>
0.0000

> <Gold.Chemscore.DEClash>
4.0751

> <Gold.Chemscore.DEInternal>
0.3843

> <Gold.Chemscore.Rot>
2.1991

> <Gold.Chemscore.Internal.Correction>
   9.000000E+99

> <Gold.Chemscore.Hbonds>
donor molecule, donor type, donor heavy atom, donor atom, acceptor molecule, acceptor atom, score
      L1  H     9    41       P1  7948  0.94
      P1  H  7954  7966       L1    12  0.74

> <Gold.Chemscore.Hbond.Weighted>
-6.5588

> <Gold.Chemscore.Metal.Weighted>
-0.0000

> <Gold.Chemscore.Lipo.Weighted>
-10.2388

> <Gold.Chemscore.Internal_Hbond.Weighted>
0.0000

> <Gold.Chemscore.DEClash.Weighted>
4.0751

> <Gold.Chemscore.DEInternal.Weighted>
0.3843

> <Gold.Chemscore.Rot.Weighted>
5.6298

> <Gold.Chemscore.Internal.Correction.Weighted>
   9.000000E+99

> <Gold.Protein.RotatedTorsions>
[ 6907 6896 6895 6894 ] final   38.25 input  -60.11 | X-H torsion
[ 7974 7965 7964 7962 ] final  112.91 input  175.53 | X-H torsion
[ 8008 7997 7996 7995 ] final   77.08 input   59.86 | X-H torsion
[ 10167 10162 10161 10158 ] final  161.68 input  -65.29 | X-H torsion
[ 10718 10713 10712 10709 ] final  -46.86 input   66.30 | X-H torsion
[ 10763 10752 10751 10750 ] final   96.62 input  -60.55 | X-H torsion
[ 11005 11000 10999 10996 ] final -179.70 input  -57.11 | X-H torsion

> <Gold.Protein.ActiveResidues>
 VAL166  LYS551  ARG553  GLY616  TRP617  ASP618  TYR619  PRO620  LYS621  CYS622 
 ASP623  PHE694  ASN695  SER759  ASP760  ASP761  ALA762  ILE779  LEU786  VAL792 
 PHE793  MET794  SER795  GLU796  ALA797  LYS798  CYS799  TRP800  GLU811  SER814 

> <Gold.Protein.RotatedAtoms>
  152.1540  134.8965  160.0545 H   0  0  0  0  0  0  0  0  0  0  0  0  # atno 6907 bound_to 6896
  151.9986  133.3812  159.4181 H   0  0  0  0  0  0  0  0  0  0  0  0  # atno 6908 bound_to 6896
  150.6879  134.3780  159.5065 H   0  0  0  0  0  0  0  0  0  0  0  0  # atno 6909 bound_to 6896
  145.2236  139.2851  143.4205 H   0  0  0  0  0  0  0  0  0  0  0  0  # atno 7974 bound_to 7965
  155.8365  140.3464  155.5605 H   0  0  0  0  0  0  0  0  0  0  0  0  # atno 8008 bound_to 7997
  155.8186  140.0909  157.1882 H   0  0  0  0  0  0  0  0  0  0  0  0  # atno 8009 bound_to 7997
  154.4004  140.1434  156.3460 H   0  0  0  0  0  0  0  0  0  0  0  0  # atno 8010 bound_to 7997
  139.4852  144.4512  151.8827 H   0  0  0  0  0  0  0  0  0  0  0  0  # atno 10167 bound_to 10162
  156.2141  130.4162  149.9076 H   0  0  0  0  0  0  0  0  0  0  0  0  # atno 10718 bound_to 10713
  153.2672  135.4212  155.0952 H   0  0  0  0  0  0  0  0  0  0  0  0  # atno 10763 bound_to 10752
  154.8442  135.3463  154.6295 H   0  0  0  0  0  0  0  0  0  0  0  0  # atno 10764 bound_to 10752
  153.6715  135.7043  153.5203 H   0  0  0  0  0  0  0  0  0  0  0  0  # atno 10765 bound_to 10752
  140.4157  134.6651  157.4637 H   0  0  0  0  0  0  0  0  0  0  0  0  # atno 11005 bound_to 11000
  146.3370  140.2550  142.8600 LP  0  0  0  0  0  0  0  0  0  0  0  0  # atno 17320 bound_to 7965
  144.9742  140.8398  143.5437 LP  0  0  0  0  0  0  0  0  0  0  0  0  # atno 17321 bound_to 7965
  140.3969  144.2543  150.5895 LP  0  0  0  0  0  0  0  0  0  0  0  0  # atno 17342 bound_to 10162
  140.5094  143.2295  151.8559 LP  0  0  0  0  0  0  0  0  0  0  0  0  # atno 17343 bound_to 10162
  156.6745  130.8833  151.3567 LP  0  0  0  0  0  0  0  0  0  0  0  0  # atno 17370 bound_to 10713
  157.7054  130.9379  150.0914 LP  0  0  0  0  0  0  0  0  0  0  0  0  # atno 17371 bound_to 10713
  140.0236  134.6511  155.9205 LP  0  0  0  0  0  0  0  0  0  0  0  0  # atno 17394 bound_to 11000
  141.1804  133.6545  156.4996 LP  0  0  0  0  0  0  0  0  0  0  0  0  # atno 17395 bound_to 11000

$$$$
