AV-unprocessed.smi:80|AV-procd|sdf|785|dock3
  -GOLD-   2262017153D 1   1.00000     0.00000
 Structure written by MMmdl.
 51 54  0  0  0  0  0  0  0  0  1 V2000
  152.7545  142.4327  159.1231 N   0  0  0  0  0  0  0  0  0  0  0  0
  152.1764  141.5037  158.7461 C   0  0  0  0  0  0  0  0  0  0  0  0
  151.4424  140.3198  158.2690 C   0  0  0  0  0  0  0  0  0  0  0  0
  151.2941  140.2630  156.7428 C   0  0  0  0  0  0  0  0  0  0  0  0
  152.3093  140.2365  156.0459 O   0  0  0  0  0  0  0  0  0  0  0  0
  150.0488  140.2481  156.2125 N   0  0  0  0  0  0  0  0  0  0  0  0
  149.7392  140.1355  154.7818 C   0  0  0  0  0  0  0  0  0  0  0  0
  149.0838  138.7663  154.5260 C   0  0  0  0  0  0  0  0  0  0  0  0
  147.9199  138.5859  155.3921 N   0  0  0  0  0  0  0  0  0  0  0  0
  147.2286  137.4560  155.1385 C   0  0  0  0  0  0  0  0  0  0  0  0
  147.1289  136.5526  156.1435 N   0  0  0  0  0  0  0  0  0  0  0  0
  146.4537  135.4151  155.9521 C   0  0  0  0  0  0  0  0  0  0  0  0
  145.8158  134.9966  154.8564 N   0  0  0  0  0  0  0  0  0  0  0  0
  145.9134  135.9067  153.8443 C   0  0  0  0  0  0  0  0  0  0  0  0
  146.5997  137.1523  153.8986 C   0  0  0  0  0  0  0  0  0  0  0  0
  146.4938  137.8069  152.6779 N   0  0  0  0  0  0  0  0  0  0  0  0
  145.7891  136.9917  151.9415 C   0  0  0  0  0  0  0  0  0  0  0  0
  145.3837  135.8326  152.5670 N   0  0  0  0  0  0  0  0  0  0  0  0
  144.6221  134.7584  151.9940 C   0  0  0  0  0  0  0  0  0  0  0  0
  145.1255  133.3172  152.0864 C   0  0  0  0  0  0  0  0  0  0  0  0
  144.5685  133.0196  150.6753 C   0  0  0  0  0  0  0  0  0  0  0  0
  145.5458  132.2711  149.7561 C   0  0  0  0  0  0  0  0  0  0  0  0
  145.0747  132.2296  148.4244 O   0  0  0  0  0  0  0  0  0  0  0  0
  143.2215  132.2654  150.6166 C   0  0  0  0  0  0  0  0  0  0  0  0
  142.7373  132.0889  149.3008 O   0  0  0  0  0  0  0  0  0  0  0  0
  144.5247  134.5523  150.4790 C   0  0  0  0  0  0  0  0  0  0  0  0
  148.1459  138.8323  156.8159 C   0  0  0  0  0  0  0  0  0  0  0  0
  148.8297  140.1963  157.0291 C   0  0  0  0  0  0  0  0  0  0  0  0
  151.9780  139.4392  158.6246 H   0  0  0  0  0  0  0  0  0  0  0  0
  150.4591  140.3381  158.7399 H   0  0  0  0  0  0  0  0  0  0  0  0
  149.0505  140.9346  154.5038 H   0  0  0  0  0  0  0  0  0  0  0  0
  150.6055  140.2574  154.1340 H   0  0  0  0  0  0  0  0  0  0  0  0
  148.7790  138.6892  153.4816 H   0  0  0  0  0  0  0  0  0  0  0  0
  149.8085  137.9719  154.7087 H   0  0  0  0  0  0  0  0  0  0  0  0
  146.4179  134.7445  156.7981 H   0  0  0  0  0  0  0  0  0  0  0  0
  145.5483  137.2193  150.9136 H   0  0  0  0  0  0  0  0  0  0  0  0
  143.6185  134.8350  152.4141 H   0  0  0  0  0  0  0  0  0  0  0  0
  146.2142  133.2633  152.1367 H   0  0  0  0  0  0  0  0  0  0  0  0
  144.6731  132.7371  152.8914 H   0  0  0  0  0  0  0  0  0  0  0  0
  146.5213  132.7583  149.7468 H   0  0  0  0  0  0  0  0  0  0  0  0
  145.7140  131.2515  150.1043 H   0  0  0  0  0  0  0  0  0  0  0  0
  145.2182  133.0756  148.0286 H   0  0  0  0  0  0  0  0  0  0  0  0
  143.3085  131.2755  151.0651 H   0  0  0  0  0  0  0  0  0  0  0  0
  142.4560  132.7974  151.1825 H   0  0  0  0  0  0  0  0  0  0  0  0
  142.2606  132.8650  149.0489 H   0  0  0  0  0  0  0  0  0  0  0  0
  143.6010  134.9267  150.0363 H   0  0  0  0  0  0  0  0  0  0  0  0
  145.3916  134.9290  149.9355 H   0  0  0  0  0  0  0  0  0  0  0  0
  147.1944  138.8065  157.3484 H   0  0  0  0  0  0  0  0  0  0  0  0
  148.7680  138.0400  157.2340 H   0  0  0  0  0  0  0  0  0  0  0  0
  149.0217  140.3520  158.0915 H   0  0  0  0  0  0  0  0  0  0  0  0
  148.1605  141.0023  156.7244 H   0  0  0  0  0  0  0  0  0  0  0  0
  1  2  3  0  0  0  0
  2  3  1  0  0  0  0
  3  4  1  0  0  0  0
  3 29  1  0  0  0  0
  3 30  1  0  0  0  0
  4  5  2  0  0  0  0
  4  6  1  0  0  0  0
  6 28  1  0  0  0  0
  6  7  1  0  0  0  0
  7  8  1  0  0  0  0
  7 31  1  0  0  0  0
  7 32  1  0  0  0  0
  8  9  1  0  0  0  0
  8 33  1  0  0  0  0
  8 34  1  0  0  0  0
  9 10  1  0  0  0  0
  9 27  1  0  0  0  0
 10 15  1  0  0  0  0
 10 11  2  0  0  0  0
 11 12  1  0  0  0  0
 12 13  2  0  0  0  0
 12 35  1  0  0  0  0
 13 14  1  0  0  0  0
 14 18  1  0  0  0  0
 14 15  2  0  0  0  0
 15 16  1  0  0  0  0
 16 17  2  0  0  0  0
 17 18  1  0  0  0  0
 17 36  1  0  0  0  0
 18 19  1  0  0  0  0
 19 26  1  0  0  0  0
 19 20  1  0  0  0  0
 19 37  1  0  0  0  0
 20 21  1  0  0  0  0
 20 38  1  0  0  0  0
 20 39  1  0  0  0  0
 21 22  1  0  0  0  0
 21 24  1  0  0  0  0
 21 26  1  0  0  0  0
 22 23  1  0  0  0  0
 22 40  1  0  0  0  0
 22 41  1  0  0  0  0
 23 42  1  0  0  0  0
 24 25  1  0  0  0  0
 24 43  1  0  0  0  0
 24 44  1  0  0  0  0
 25 45  1  0  0  0  0
 26 46  1  0  0  0  0
 26 47  1  0  0  0  0
 27 28  1  0  0  0  0
 27 48  1  0  0  0  0
 27 49  1  0  0  0  0
 28 50  1  0  0  0  0
 28 51  1  0  0  0  0
M  END
> <s_m_source_file>
AV-unprocessed.smi

> <i_m_source_file_index>
80

> <i_lp_mmshare_version>
43012

> <i_f3d_flags>
0

> <s_epik_input>
TiNDW0NIMl1DKD1PKU4xW0NIMl1bQ0gyXU4oW0NIMl1bQ0gyXTEpYyhuW2NIXW4yKWMoYzIzKW5bY0hdbjNbQ0hdKFtDSDJdNClbQ0gyXUM0KFtDSDJdW09IXSlbQ0gyXVtPSF0=

> <s_epik_cmdline>
J2VwaWtfcHl0aG9uJywgJy1waCcsICc3LjAnLCAnLXRuJywgJzgnLCAnLW1hJywgJzIwMCcsICctbWV0YWxfYmluZGluZycsICctaW1hZScsICc8aW5maWxlLm1hZT4nLCAnLW9tYWUnLCAnPG91dGZpbGUubWFlPic=

> <r_lp_tautomer_probability>
1

> <r_epik_Ionization_Penalty>
0.000827394

> <r_epik_Ionization_Penalty_Charging>
0

> <r_epik_Ionization_Penalty_Neutral>
0.000827394

> <r_epik_State_Penalty>
0.000406949

> <r_epik_Charging_Adjusted_Penalty>
0.000406949

> <i_epik_Tot_Q>
0

> <i_epik_Tot_abs_Q>
0

> <r_epik_Metal_State_Penalty>
-0

> <b_epik_Metal_Only>
0

> <s_lp_Force_Field>
OPLS_2005

> <r_lp_Energy>
60.4217

> <b_lp_Chiralities_Consistent>
1

> <s_lp_Variant>
AV-unprocessed.smi:80-1

> <Gold.Version>
5.8.1

> <Gold.Id.Protein>
6NUR|6NUR_protein|mol2

> <Gold.PLP.Fitness>
48.6805

> <Gold.PLP.PLP>
-35.3577

> <Gold.PLP.part.hbond>
-5.9377

> <Gold.PLP.part.metal>
0.0000

> <Gold.PLP.part.buried>
-3.7548

> <Gold.PLP.part.nonpolar>
-27.0810

> <Gold.PLP.part.repulsive>
1.0524

> <Gold.PLP.ligand.clash>
0.0000

> <Gold.PLP.ligand.torsion>
0.7301

> <Gold.PLP.Chemscore.Hbond>
3.7112

> <Gold.PLP.Chemscore.CHOScore>
1.0000

> <Gold.PLP.Chemscore.Metal>
0.0000

> <Gold.Chemscore.Hbonds>
donor molecule, donor type, donor heavy atom, donor atom, acceptor molecule, acceptor atom, score
      L1  H    23    42       P1  7921  0.80
      L1  H    25    45       P1 10186  0.96
      P1  H  7997  8008       L1     5  0.98
      P1  H 10785 10796       L1    25  0.89
      L1  C    17    36       P1 10171  1.00

> <Gold.PLP.Chemscore.Internal.Correction>
0.6491

> <Gold.Rescore>
     Score         DG    S(hbond)    S(metal)    S(lipo)     H(rot)  DE(clash)    DE(int)     intcor
     10.86     -12.88       2.83        0.00      66.00       3.82       1.24       0.78       ----

> <Gold.Chemscore.Fitness>
10.8566

> <Gold.Chemscore.DG>
-12.8792

> <Gold.Chemscore.ZeroCoef>
-5.4800

> <Gold.Chemscore.Hbond>
2.8283

> <Gold.Chemscore.Metal>
0.0000

> <Gold.Chemscore.Lipo>
66.0046

> <Gold.Chemscore.Internal_Hbond>
0.0000

> <Gold.Chemscore.DEClash>
1.2403

> <Gold.Chemscore.DEInternal>
0.7823

> <Gold.Chemscore.Rot>
3.8164

> <Gold.Chemscore.Internal.Correction>
   9.000000E+99

> <Gold.Chemscore.Hbonds>
donor molecule, donor type, donor heavy atom, donor atom, acceptor molecule, acceptor atom, score
      L1  H    23    42       P1  7921  0.11
      L1  H    25    45       P1 10186  0.86
      P1  H  7997  8008       L1     5  0.90
      P1  H 10785 10796       L1    25  0.52

> <Gold.Chemscore.Hbond.Weighted>
-9.4465

> <Gold.Chemscore.Metal.Weighted>
-0.0000

> <Gold.Chemscore.Lipo.Weighted>
-7.7225

> <Gold.Chemscore.Internal_Hbond.Weighted>
0.0000

> <Gold.Chemscore.DEClash.Weighted>
1.2403

> <Gold.Chemscore.DEInternal.Weighted>
0.7823

> <Gold.Chemscore.Rot.Weighted>
9.7699

> <Gold.Chemscore.Internal.Correction.Weighted>
   9.000000E+99

> <Gold.Protein.RotatedTorsions>
[ 6907 6896 6895 6894 ] final   27.35 input  -60.11 | X-H torsion
[ 7974 7965 7964 7962 ] final  102.83 input  175.53 | X-H torsion
[ 8008 7997 7996 7995 ] final  -33.92 input   59.86 | X-H torsion
[ 10167 10162 10161 10158 ] final  146.40 input  -65.29 | X-H torsion
[ 10718 10713 10712 10709 ] final  128.60 input   66.30 | X-H torsion
[ 10763 10752 10751 10750 ] final  -40.73 input  -60.55 | X-H torsion
[ 11005 11000 10999 10996 ] final    2.87 input  -57.11 | X-H torsion

> <Gold.Protein.ActiveResidues>
 VAL166  LYS551  ARG553  GLY616  TRP617  ASP618  TYR619  PRO620  LYS621  CYS622 
 ASP623  PHE694  ASN695  SER759  ASP760  ASP761  ALA762  ILE779  LEU786  VAL792 
 PHE793  MET794  SER795  GLU796  ALA797  LYS798  CYS799  TRP800  GLU811  SER814 

> <Gold.Protein.RotatedAtoms>
  152.0010  134.9928  160.0564 H   0  0  0  0  0  0  0  0  0  0  0  0  # atno 6907 bound_to 6896
  152.1519  133.4522  159.4826 H   0  0  0  0  0  0  0  0  0  0  0  0  # atno 6908 bound_to 6896
  150.6876  134.2096  159.4397 H   0  0  0  0  0  0  0  0  0  0  0  0  # atno 6909 bound_to 6896
  145.3539  139.2433  143.3543 H   0  0  0  0  0  0  0  0  0  0  0  0  # atno 7974 bound_to 7965
  154.4135  140.1698  156.1966 H   0  0  0  0  0  0  0  0  0  0  0  0  # atno 8008 bound_to 7997
  155.9559  140.3397  155.6425 H   0  0  0  0  0  0  0  0  0  0  0  0  # atno 8009 bound_to 7997
  155.6810  140.0722  157.2475 H   0  0  0  0  0  0  0  0  0  0  0  0  # atno 8010 bound_to 7997
  139.4908  144.5832  151.6831 H   0  0  0  0  0  0  0  0  0  0  0  0  # atno 10167 bound_to 10162
  157.5230  131.1098  150.9125 H   0  0  0  0  0  0  0  0  0  0  0  0  # atno 10718 bound_to 10713
  153.9508  135.6751  153.4744 H   0  0  0  0  0  0  0  0  0  0  0  0  # atno 10763 bound_to 10752
  153.0885  135.4886  154.8641 H   0  0  0  0  0  0  0  0  0  0  0  0  # atno 10764 bound_to 10752
  154.7326  135.3141  154.8825 H   0  0  0  0  0  0  0  0  0  0  0  0  # atno 10765 bound_to 10752
  140.5995  133.9849  155.8125 H   0  0  0  0  0  0  0  0  0  0  0  0  # atno 11005 bound_to 11000
  146.2956  140.4160  142.8723 LP  0  0  0  0  0  0  0  0  0  0  0  0  # atno 17320 bound_to 7965
  144.8697  140.7255  143.6055 LP  0  0  0  0  0  0  0  0  0  0  0  0  # atno 17321 bound_to 7965
  140.5442  144.0530  150.6100 LP  0  0  0  0  0  0  0  0  0  0  0  0  # atno 17342 bound_to 10162
  140.3562  143.2934  152.0433 LP  0  0  0  0  0  0  0  0  0  0  0  0  # atno 17343 bound_to 10162
  156.9730  130.5498  149.5291 LP  0  0  0  0  0  0  0  0  0  0  0  0  # atno 17370 bound_to 10713
  156.0367  130.5454  150.8670 LP  0  0  0  0  0  0  0  0  0  0  0  0  # atno 17371 bound_to 10713
  141.0882  133.9958  157.3280 LP  0  0  0  0  0  0  0  0  0  0  0  0  # atno 17394 bound_to 11000
  139.9239  135.0201  156.8163 LP  0  0  0  0  0  0  0  0  0  0  0  0  # atno 17395 bound_to 11000

$$$$
