AV-unprocessed.smi:99|AV-procd|sdf|873|dock6
  -GOLD-   2262017333D 1   1.00000     0.00000
 Structure written by MMmdl.
 53 56  0  0  0  0  0  0  0  0  1 V2000
  151.1323  135.4864  156.2786 O   0  0  0  0  0  0  0  0  0  0  0  0
  150.2276  136.0265  155.6388 C   0  0  0  0  0  0  0  0  0  0  0  0
  149.2010  135.3545  155.0855 O   0  0  0  0  0  0  0  0  0  0  0  0
  149.2733  133.9473  154.9226 C   0  0  0  0  0  0  0  0  0  0  0  0
  147.8790  133.4108  154.5690 C   0  0  2  0  0  0  0  0  0  0  0  0
  147.1479  134.3642  153.8084 O   0  0  0  0  0  0  0  0  0  0  0  0
  145.7772  134.1167  153.9255 C   0  0  1  0  0  0  0  0  0  0  0  0
  145.2485  133.5052  152.6401 N   0  0  0  0  0  0  0  0  0  0  0  0
  145.8738  132.4403  152.0023 C   0  0  0  0  0  0  0  0  0  0  0  0
  145.4041  131.8842  150.8603 C   0  0  0  0  0  0  0  0  0  0  0  0
  144.1901  132.3938  150.2316 C   0  0  0  0  0  0  0  0  0  0  0  0
  143.6879  131.9539  149.1996 O   0  0  0  0  0  0  0  0  0  0  0  0
  143.5969  133.4668  150.9019 N   0  0  0  0  0  0  0  0  0  0  0  0
  144.0711  134.0478  152.0787 C   0  0  0  0  0  0  0  0  0  0  0  0
  143.4645  134.9886  152.5899 O   0  0  0  0  0  0  0  0  0  0  0  0
  145.5701  133.2099  155.1655 C   0  0  1  0  0  0  0  0  0  0  0  0
  145.0941  131.9060  154.8821 O   0  0  0  0  0  0  0  0  0  0  0  0
  146.9679  133.1155  155.7624 C   0  0  2  0  0  0  0  0  0  0  0  0
  147.1485  134.0918  156.7828 O   0  0  0  0  0  0  0  0  0  0  0  0
  146.3883  134.0788  157.8974 C   0  0  0  0  0  0  0  0  0  0  0  0
  145.4061  133.3496  158.0469 O   0  0  0  0  0  0  0  0  0  0  0  0
  146.8633  135.0435  158.9296 C   0  0  0  0  0  0  0  0  0  0  0  0
  147.7497  136.0796  158.5545 C   0  0  0  0  0  0  0  0  0  0  0  0
  148.2144  137.0061  159.5081 C   0  0  0  0  0  0  0  0  0  0  0  0
  147.7966  136.9085  160.8481 C   0  0  0  0  0  0  0  0  0  0  0  0
  146.9126  135.8838  161.2334 C   0  0  0  0  0  0  0  0  0  0  0  0
  146.4476  134.9558  160.2814 C   0  0  0  0  0  0  0  0  0  0  0  0
  150.1523  137.4957  155.3971 C   0  0  0  0  0  0  0  0  0  0  0  0
  151.2174  138.3239  155.8215 C   0  0  0  0  0  0  0  0  0  0  0  0
  151.1744  139.7149  155.6046 C   0  0  0  0  0  0  0  0  0  0  0  0
  150.0671  140.2941  154.9579 C   0  0  0  0  0  0  0  0  0  0  0  0
  149.0025  139.4807  154.5282 C   0  0  0  0  0  0  0  0  0  0  0  0
  149.0426  138.0895  154.7460 C   0  0  0  0  0  0  0  0  0  0  0  0
  142.7533  133.8520  150.5029 H   0  0  0  0  0  0  0  0  0  0  0  0
  149.9808  133.6954  154.1311 H   0  0  0  0  0  0  0  0  0  0  0  0
  149.6364  133.4873  155.8422 H   0  0  0  0  0  0  0  0  0  0  0  0
  147.9820  132.4981  153.9815 H   0  0  0  0  0  0  0  0  0  0  0  0
  145.2827  135.0858  154.0147 H   0  0  0  0  0  0  0  0  0  0  0  0
  146.7786  132.0187  152.4106 H   0  0  0  0  0  0  0  0  0  0  0  0
  145.9313  131.0568  150.4076 H   0  0  0  0  0  0  0  0  0  0  0  0
  144.8650  133.6866  155.8475 H   0  0  0  0  0  0  0  0  0  0  0  0
  144.1559  131.9458  154.7750 H   0  0  0  0  0  0  0  0  0  0  0  0
  147.1834  132.1204  156.1556 H   0  0  0  0  0  0  0  0  0  0  0  0
  148.0842  136.1747  157.5314 H   0  0  0  0  0  0  0  0  0  0  0  0
  148.8928  137.7921  159.2104 H   0  0  0  0  0  0  0  0  0  0  0  0
  148.1532  137.6191  161.5791 H   0  0  0  0  0  0  0  0  0  0  0  0
  146.5899  135.8086  162.2612 H   0  0  0  0  0  0  0  0  0  0  0  0
  145.7682  134.1829  160.6108 H   0  0  0  0  0  0  0  0  0  0  0  0
  152.0779  137.9018  156.3205 H   0  0  0  0  0  0  0  0  0  0  0  0
  151.9930  140.3376  155.9347 H   0  0  0  0  0  0  0  0  0  0  0  0
  150.0354  141.3607  154.7905 H   0  0  0  0  0  0  0  0  0  0  0  0
  148.1534  139.9239  154.0293 H   0  0  0  0  0  0  0  0  0  0  0  0
  148.2105  137.4934  154.4003 H   0  0  0  0  0  0  0  0  0  0  0  0
  1  2  2  0  0  0  0
  2  3  1  0  0  0  0
  2 28  1  0  0  0  0
  3  4  1  0  0  0  0
  4  5  1  0  0  0  0
  4 35  1  0  0  0  0
  4 36  1  0  0  0  0
  5 18  1  0  0  0  0
  5  6  1  0  0  0  0
  5 37  1  0  0  0  0
  6  7  1  0  0  0  0
  7  8  1  0  0  0  0
  7 16  1  0  0  0  0
  7 38  1  0  0  0  0
  8 14  1  0  0  0  0
  8  9  1  0  0  0  0
  9 10  2  0  0  0  0
  9 39  1  0  0  0  0
 10 11  1  0  0  0  0
 10 40  1  0  0  0  0
 11 12  2  0  0  0  0
 11 13  1  0  0  0  0
 13 34  1  0  0  0  0
 13 14  1  0  0  0  0
 14 15  2  0  0  0  0
 16 17  1  0  0  0  0
 16 18  1  0  0  0  0
 16 41  1  0  0  0  0
 17 42  1  0  0  0  0
 18 19  1  0  0  0  0
 18 43  1  0  0  0  0
 19 20  1  0  0  0  0
 20 21  2  0  0  0  0
 20 22  1  0  0  0  0
 22 27  1  0  0  0  0
 22 23  2  0  0  0  0
 23 24  1  0  0  0  0
 23 44  1  0  0  0  0
 24 25  2  0  0  0  0
 24 45  1  0  0  0  0
 25 26  1  0  0  0  0
 25 46  1  0  0  0  0
 26 27  2  0  0  0  0
 26 47  1  0  0  0  0
 27 48  1  0  0  0  0
 28 33  1  0  0  0  0
 28 29  2  0  0  0  0
 29 30  1  0  0  0  0
 29 49  1  0  0  0  0
 30 31  2  0  0  0  0
 30 50  1  0  0  0  0
 31 32  1  0  0  0  0
 31 51  1  0  0  0  0
 32 33  2  0  0  0  0
 32 52  1  0  0  0  0
 33 53  1  0  0  0  0
M  END
> <s_m_source_file>
AV-unprocessed.smi

> <i_m_source_file_index>
99

> <i_lp_mmshare_version>
43012

> <i_f3d_flags>
0

> <s_epik_input>
W2NIXTFbY0hdW2NIXVtjSF1bY0hdYzFDKD1PKU9bQ0gyXVtDQEBIXTJPW0NAQEhdKG4zW2NIXVtjSF1jKD1PKVtuSF1jMz1PKVtDQEBIXShbT0hdKVtDQEhdMk9DKD1PKWM0W2NIXVtjSF1bY0hdW2NIXVtjSF00

> <s_epik_cmdline>
J2VwaWtfcHl0aG9uJywgJy1waCcsICc3LjAnLCAnLXRuJywgJzgnLCAnLW1hJywgJzIwMCcsICctbWV0YWxfYmluZGluZycsICctaW1hZScsICc8aW5maWxlLm1hZT4nLCAnLW9tYWUnLCAnPG91dGZpbGUubWFlPic=

> <r_lp_tautomer_probability>
1

> <r_epik_Ionization_Penalty>
0.00454555

> <r_epik_Ionization_Penalty_Charging>
0.0045191

> <r_epik_Ionization_Penalty_Neutral>
2.64449e-05

> <r_epik_State_Penalty>
-0

> <r_epik_Charging_Adjusted_Penalty>
0.0045191

> <i_epik_Tot_Q>
0

> <i_epik_Tot_abs_Q>
0

> <r_epik_Metal_State_Penalty>
1.27877

> <b_epik_Metal_Only>
0

> <s_epik_Chemistry_Notes>
This compound has an ester and may undergo hydrolysis at high or low pH. This compound contains an acetal/aminal-like group ( X-CH(R)-Y where X, Y are N, S, or O) that may be acid/base labile, releasing an aldehyde.

> <s_lp_Force_Field>
OPLS_2005

> <r_lp_Energy>
38.1357

> <b_lp_Chiralities_Consistent>
1

> <s_lp_Variant>
AV-unprocessed.smi:99-9

> <Gold.Version>
5.8.1

> <Gold.Id.Protein>
6NUR|6NUR_protein|mol2

> <Gold.PLP.Fitness>
50.9825

> <Gold.PLP.PLP>
-42.2123

> <Gold.PLP.part.hbond>
-4.5442

> <Gold.PLP.part.metal>
0.0000

> <Gold.PLP.part.buried>
-5.8253

> <Gold.PLP.part.nonpolar>
-35.3124

> <Gold.PLP.part.repulsive>
3.4033

> <Gold.PLP.ligand.clash>
0.0000

> <Gold.PLP.ligand.torsion>
1.0321

> <Gold.PLP.Chemscore.Hbond>
3.0715

> <Gold.PLP.Chemscore.CHOScore>
0.3588

> <Gold.PLP.Chemscore.Metal>
0.0000

> <Gold.Chemscore.Hbonds>
donor molecule, donor type, donor heavy atom, donor atom, acceptor molecule, acceptor atom, score
      L1  H    13    34       P1 10186  0.91
      L1  H    17    42       P1 10957  0.84
      P1  H 10785 10796       L1    12  0.85

> <Gold.PLP.Chemscore.Internal.Correction>
0.5434

> <Gold.Rescore>
     Score         DG    S(hbond)    S(metal)    S(lipo)     H(rot)  DE(clash)    DE(int)     intcor
     11.34     -17.12       2.79        0.00      89.64       3.19       1.81       3.97       ----

> <Gold.Chemscore.Fitness>
11.3371

> <Gold.Chemscore.DG>
-17.1199

> <Gold.Chemscore.ZeroCoef>
-5.4800

> <Gold.Chemscore.Hbond>
2.7900

> <Gold.Chemscore.Metal>
0.0000

> <Gold.Chemscore.Lipo>
89.6443

> <Gold.Chemscore.Internal_Hbond>
0.0000

> <Gold.Chemscore.DEClash>
1.8080

> <Gold.Chemscore.DEInternal>
3.9748

> <Gold.Chemscore.Rot>
3.1903

> <Gold.Chemscore.Internal.Correction>
   9.000000E+99

> <Gold.Chemscore.Hbonds>
donor molecule, donor type, donor heavy atom, donor atom, acceptor molecule, acceptor atom, score
      L1  H    13    34       P1 10186  0.82
      L1  H    17    42       P1 10957  0.29
      P1  H 10752 10763       L1     1  0.02
      P1  H 10785 10796       L1    12  0.84

> <Gold.Chemscore.Hbond.Weighted>
-9.3186

> <Gold.Chemscore.Metal.Weighted>
-0.0000

> <Gold.Chemscore.Lipo.Weighted>
-10.4884

> <Gold.Chemscore.Internal_Hbond.Weighted>
0.0000

> <Gold.Chemscore.DEClash.Weighted>
1.8080

> <Gold.Chemscore.DEInternal.Weighted>
3.9748

> <Gold.Chemscore.Rot.Weighted>
8.1671

> <Gold.Chemscore.Internal.Correction.Weighted>
   9.000000E+99

> <Gold.Protein.RotatedTorsions>
[ 6907 6896 6895 6894 ] final    0.38 input  -60.11 | X-H torsion
[ 7974 7965 7964 7962 ] final  -94.74 input  175.53 | X-H torsion
[ 8008 7997 7996 7995 ] final   51.20 input   59.86 | X-H torsion
[ 10167 10162 10161 10158 ] final -148.42 input  -65.29 | X-H torsion
[ 10718 10713 10712 10709 ] final -132.61 input   66.30 | X-H torsion
[ 10763 10752 10751 10750 ] final   62.43 input  -60.55 | X-H torsion
[ 11005 11000 10999 10996 ] final  104.27 input  -57.11 | X-H torsion

> <Gold.Protein.ActiveResidues>
 VAL166  LYS551  ARG553  GLY616  TRP617  ASP618  TYR619  PRO620  LYS621  CYS622 
 ASP623  PHE694  ASN695  SER759  ASP760  ASP761  ALA762  ILE779  LEU786  VAL792 
 PHE793  MET794  SER795  GLU796  ALA797  LYS798  CYS799  TRP800  GLU811  SER814 

> <Gold.Protein.RotatedAtoms>
  151.5755  135.1061  160.0004 H   0  0  0  0  0  0  0  0  0  0  0  0  # atno 6907 bound_to 6896
  152.4380  133.7392  159.6642 H   0  0  0  0  0  0  0  0  0  0  0  0  # atno 6908 bound_to 6896
  150.8281  133.8068  159.3133 H   0  0  0  0  0  0  0  0  0  0  0  0  # atno 6909 bound_to 6896
  145.3693  140.9503  143.2456 H   0  0  0  0  0  0  0  0  0  0  0  0  # atno 7974 bound_to 7965
  155.4314  140.3450  155.4280 H   0  0  0  0  0  0  0  0  0  0  0  0  # atno 8008 bound_to 7997
  156.1334  140.1521  156.9061 H   0  0  0  0  0  0  0  0  0  0  0  0  # atno 8009 bound_to 7997
  154.4913  140.0840  156.7580 H   0  0  0  0  0  0  0  0  0  0  0  0  # atno 8010 bound_to 7997
  139.7533  143.8486  152.2591 H   0  0  0  0  0  0  0  0  0  0  0  0  # atno 10167 bound_to 10162
  156.2364  130.7069  151.0912 H   0  0  0  0  0  0  0  0  0  0  0  0  # atno 10718 bound_to 10713
  152.9982  135.5465  154.6191 H   0  0  0  0  0  0  0  0  0  0  0  0  # atno 10763 bound_to 10752
  154.5495  135.2825  155.1024 H   0  0  0  0  0  0  0  0  0  0  0  0  # atno 10764 bound_to 10752
  154.2270  135.6440  153.5215 H   0  0  0  0  0  0  0  0  0  0  0  0  # atno 10765 bound_to 10752
  139.8790  134.9294  156.5337 H   0  0  0  0  0  0  0  0  0  0  0  0  # atno 11005 bound_to 11000
  144.8588  139.5208  143.6822 LP  0  0  0  0  0  0  0  0  0  0  0  0  # atno 17320 bound_to 7965
  146.2893  139.7092  142.9173 LP  0  0  0  0  0  0  0  0  0  0  0  0  # atno 17321 bound_to 7965
  139.8470  144.7183  150.9260 LP  0  0  0  0  0  0  0  0  0  0  0  0  # atno 17342 bound_to 10162
  140.7800  143.3932  151.1274 LP  0  0  0  0  0  0  0  0  0  0  0  0  # atno 17343 bound_to 10162
  157.7156  131.0711  150.6339 LP  0  0  0  0  0  0  0  0  0  0  0  0  # atno 17370 bound_to 10713
  156.6410  130.4458  149.5752 LP  0  0  0  0  0  0  0  0  0  0  0  0  # atno 17371 bound_to 10713
  140.8362  133.8240  155.9031 LP  0  0  0  0  0  0  0  0  0  0  0  0  # atno 17394 bound_to 11000
  140.9281  134.2056  157.4882 LP  0  0  0  0  0  0  0  0  0  0  0  0  # atno 17395 bound_to 11000

$$$$
