AV-unprocessed.smi:2037|AV-procd|sdf|8276|dock5
  -GOLD-   2272010543D 1   1.00000     0.00000
 Structure written by MMmdl.
 39 40  0  0  0  0  0  0  0  0  2 V2000
  145.5104  136.3341  151.3650 C   0  0  0  0  0  0  0  0  0  0  0  0
  146.2723  137.4594  152.0789 C   0  0  2  0  0  0  0  0  0  0  0  0
  145.6857  137.7519  153.4697 C   0  0  0  0  0  0  0  0  0  0  0  0
  146.4382  138.9005  154.1625 C   0  0  0  0  0  0  0  0  0  0  0  0
  146.4278  140.1311  153.3299 N   0  3  1  0  0  0  0  0  0  0  0  0
  147.0378  141.2875  154.0328 C   0  0  0  0  0  0  0  0  0  0  0  0
  148.4753  140.9959  154.5065 C   0  0  0  0  0  0  0  0  0  0  0  0
  148.9777  142.0527  155.3768 N   0  0  0  0  0  0  0  0  0  0  0  0
  150.1373  142.0021  156.0486 C   0  0  0  0  0  0  0  0  0  0  0  0
  150.9022  141.0381  156.0016 O   0  0  0  0  0  0  0  0  0  0  0  0
  150.3393  143.1230  156.7630 N   0  0  0  0  0  0  0  0  0  0  0  0
  151.4352  143.4375  157.6093 C   0  0  0  0  0  0  0  0  0  0  0  0
  152.1412  142.5323  158.2971 N   0  0  0  0  0  0  0  0  0  0  0  0
  153.1602  143.1233  159.0486 C   0  0  0  0  0  0  0  0  0  0  0  0
  153.2148  144.4892  158.9211 C   0  0  0  0  0  0  0  0  0  0  0  0
  151.9814  145.0912  157.8459 S   0  0  0  0  0  0  0  0  0  0  0  0
  147.0217  139.8837  151.9886 C   0  0  0  0  0  0  0  0  0  0  0  0
  146.2799  138.7559  151.2519 C   0  0  0  0  0  0  0  0  0  0  0  0
  144.4646  136.5996  151.2074 H   0  0  0  0  0  0  0  0  0  0  0  0
  145.5355  135.4124  151.9472 H   0  0  0  0  0  0  0  0  0  0  0  0
  145.9498  136.1197  150.3903 H   0  0  0  0  0  0  0  0  0  0  0  0
  147.3050  137.1313  152.2075 H   0  0  0  0  0  0  0  0  0  0  0  0
  144.6294  138.0100  153.3801 H   0  0  0  0  0  0  0  0  0  0  0  0
  145.7325  136.8564  154.0906 H   0  0  0  0  0  0  0  0  0  0  0  0
  145.9682  139.1018  155.1260 H   0  0  0  0  0  0  0  0  0  0  0  0
  147.4692  138.6068  154.3675 H   0  0  0  0  0  0  0  0  0  0  0  0
  147.0757  142.1424  153.3562 H   0  0  0  0  0  0  0  0  0  0  0  0
  146.3979  141.5843  154.8653 H   0  0  0  0  0  0  0  0  0  0  0  0
  148.5401  140.0432  155.0328 H   0  0  0  0  0  0  0  0  0  0  0  0
  149.1412  140.9205  153.6464 H   0  0  0  0  0  0  0  0  0  0  0  0
  148.4084  142.8818  155.4676 H   0  0  0  0  0  0  0  0  0  0  0  0
  149.6266  143.8347  156.6968 H   0  0  0  0  0  0  0  0  0  0  0  0
  153.8023  142.4951  159.6482 H   0  0  0  0  0  0  0  0  0  0  0  0
  153.9029  145.1748  159.3928 H   0  0  0  0  0  0  0  0  0  0  0  0
  146.9798  140.7865  151.3804 H   0  0  0  0  0  0  0  0  0  0  0  0
  148.0770  139.6281  152.0978 H   0  0  0  0  0  0  0  0  0  0  0  0
  146.7514  138.5788  150.2845 H   0  0  0  0  0  0  0  0  0  0  0  0
  145.2559  139.0695  151.0427 H   0  0  0  0  0  0  0  0  0  0  0  0
  145.4559  140.3643  153.1851 H   0  0  0  0  0  0  0  0  0  0  0  0
  1  2  1  0  0  0  0
  1 19  1  0  0  0  0
  1 20  1  0  0  0  0
  1 21  1  0  0  0  0
  2 18  1  0  0  0  0
  2  3  1  0  0  0  0
  2 22  1  0  0  0  0
  3  4  1  0  0  0  0
  3 23  1  0  0  0  0
  3 24  1  0  0  0  0
  4  5  1  0  0  0  0
  4 25  1  0  0  0  0
  4 26  1  0  0  0  0
  5  6  1  0  0  0  0
  5 17  1  0  0  0  0
  5 39  1  0  0  0  0
  6  7  1  0  0  0  0
  6 27  1  0  0  0  0
  6 28  1  0  0  0  0
  7  8  1  0  0  0  0
  7 29  1  0  0  0  0
  7 30  1  0  0  0  0
  8  9  1  0  0  0  0
  8 31  1  0  0  0  0
  9 10  2  0  0  0  0
  9 11  1  0  0  0  0
 11 12  1  0  0  0  0
 11 32  1  0  0  0  0
 12 16  1  0  0  0  0
 12 13  2  0  0  0  0
 13 14  1  0  0  0  0
 14 15  2  0  0  0  0
 14 33  1  0  0  0  0
 15 16  1  0  0  0  0
 15 34  1  0  0  0  0
 17 18  1  0  0  0  0
 17 35  1  0  0  0  0
 17 36  1  0  0  0  0
 18 37  1  0  0  0  0
 18 38  1  0  0  0  0
M  CHG  1   5   1
M  END
> <s_m_source_file>
AV-unprocessed.smi

> <i_m_source_file_index>
2037

> <i_lp_mmshare_version>
43012

> <i_f3d_flags>
0

> <s_epik_input>
W0NIM11bQ0hdMVtDSDJdW0NIMl1OKFtDSDJdW0NIMl0xKVtDSDJdW0NIMl1bTkhdQyg9TylbTkhdYzJuW2NIXVtjSF1zMg==

> <s_epik_cmdline>
J2VwaWtfcHl0aG9uJywgJy1waCcsICc3LjAnLCAnLXRuJywgJzgnLCAnLW1hJywgJzIwMCcsICctbWV0YWxfYmluZGluZycsICctaW1hZScsICc8aW5maWxlLm1hZT4nLCAnLW9tYWUnLCAnPG91dGZpbGUubWFlPic=

> <r_lp_tautomer_probability>
0.999

> <r_epik_Ionization_Penalty>
0.00182893

> <r_epik_Ionization_Penalty_Charging>
0.00168873

> <r_epik_Ionization_Penalty_Neutral>
0.000140204

> <r_epik_State_Penalty>
0.00114045

> <r_epik_Charging_Adjusted_Penalty>
0.00282917

> <i_epik_Tot_Q>
1

> <i_epik_Tot_abs_Q>
1

> <r_epik_Metal_State_Penalty>
0.0569426

> <b_epik_Metal_Only>
0

> <s_lp_Force_Field>
OPLS_2005

> <r_lp_Energy>
13.393

> <b_lp_Chiralities_Consistent>
1

> <s_lp_Variant>
AV-unprocessed.smi:2037-1

> <Gold.Version>
5.8.1

> <Gold.Id.Protein>
6NUR|6NUR_protein|mol2

> <Gold.PLP.Fitness>
44.9209

> <Gold.PLP.PLP>
-33.9052

> <Gold.PLP.part.hbond>
-3.0000

> <Gold.PLP.part.metal>
0.0000

> <Gold.PLP.part.buried>
2.6251

> <Gold.PLP.part.nonpolar>
-34.3476

> <Gold.PLP.part.repulsive>
0.1618

> <Gold.PLP.ligand.clash>
0.0000

> <Gold.PLP.ligand.torsion>
0.2754

> <Gold.PLP.Chemscore.Hbond>
3.8480

> <Gold.PLP.Chemscore.CHOScore>
0.0000

> <Gold.PLP.Chemscore.Metal>
0.0000

> <Gold.Chemscore.Hbonds>
donor molecule, donor type, donor heavy atom, donor atom, acceptor molecule, acceptor atom, score
      L1  H     5    39       P1 10175  2.00
      L1  H     8    31       P1  8028  0.64
      L1  H    11    32       P1  8028  0.85

> <Gold.PLP.Chemscore.Internal.Correction>
0.0225

> <Gold.Rescore>
     Score         DG    S(hbond)    S(metal)    S(lipo)     H(rot)  DE(clash)    DE(int)     intcor
     16.94     -22.24       2.86        0.00      96.49       1.60       3.74       1.56       ----

> <Gold.Chemscore.Fitness>
16.9356

> <Gold.Chemscore.DG>
-22.2424

> <Gold.Chemscore.ZeroCoef>
-5.4800

> <Gold.Chemscore.Hbond>
2.8650

> <Gold.Chemscore.Metal>
0.0000

> <Gold.Chemscore.Lipo>
96.4935

> <Gold.Chemscore.Internal_Hbond>
0.0000

> <Gold.Chemscore.DEClash>
3.7425

> <Gold.Chemscore.DEInternal>
1.5644

> <Gold.Chemscore.Rot>
1.6001

> <Gold.Chemscore.Internal.Correction>
   9.000000E+99

> <Gold.Chemscore.Hbonds>
donor molecule, donor type, donor heavy atom, donor atom, acceptor molecule, acceptor atom, score
      L1  H     5    39       P1 10175  0.97
      L1  H     8    31       P1  8028  0.64
      L1  H    11    32       P1  8028  0.77

> <Gold.Chemscore.Hbond.Weighted>
-9.5690

> <Gold.Chemscore.Metal.Weighted>
-0.0000

> <Gold.Chemscore.Lipo.Weighted>
-11.2897

> <Gold.Chemscore.Internal_Hbond.Weighted>
0.0000

> <Gold.Chemscore.DEClash.Weighted>
3.7425

> <Gold.Chemscore.DEInternal.Weighted>
1.5644

> <Gold.Chemscore.Rot.Weighted>
4.0963

> <Gold.Chemscore.Internal.Correction.Weighted>
   9.000000E+99

> <Gold.Protein.RotatedTorsions>
[ 6907 6896 6895 6894 ] final  171.69 input  -60.11 | X-H torsion
[ 7974 7965 7964 7962 ] final   13.24 input  175.53 | X-H torsion
[ 8008 7997 7996 7995 ] final  -68.96 input   59.86 | X-H torsion
[ 10167 10162 10161 10158 ] final  165.05 input  -65.29 | X-H torsion
[ 10718 10713 10712 10709 ] final  126.49 input   66.30 | X-H torsion
[ 10763 10752 10751 10750 ] final   11.42 input  -60.55 | X-H torsion
[ 11005 11000 10999 10996 ] final  135.26 input  -57.11 | X-H torsion

> <Gold.Protein.ActiveResidues>
 VAL166  LYS551  ARG553  GLY616  TRP617  ASP618  TYR619  PRO620  LYS621  CYS622 
 ASP623  PHE694  ASN695  SER759  ASP760  ASP761  ALA762  ILE779  LEU786  VAL792 
 PHE793  MET794  SER795  GLU796  ALA797  LYS798  CYS799  TRP800  GLU811  SER814 

> <Gold.Protein.RotatedAtoms>
  151.7961  133.3364  159.3513 H   0  0  0  0  0  0  0  0  0  0  0  0  # atno 6907 bound_to 6896
  150.7374  134.5797  159.5941 H   0  0  0  0  0  0  0  0  0  0  0  0  # atno 6908 bound_to 6896
  152.3176  134.7422  160.0373 H   0  0  0  0  0  0  0  0  0  0  0  0  # atno 6909 bound_to 6896
  146.2334  139.9218  142.8509 H   0  0  0  0  0  0  0  0  0  0  0  0  # atno 7974 bound_to 7965
  154.4904  140.0863  156.7582 H   0  0  0  0  0  0  0  0  0  0  0  0  # atno 8008 bound_to 7997
  155.4244  140.3447  155.4256 H   0  0  0  0  0  0  0  0  0  0  0  0  # atno 8009 bound_to 7997
  156.1322  140.1504  156.9036 H   0  0  0  0  0  0  0  0  0  0  0  0  # atno 8010 bound_to 7997
  139.4899  144.4172  151.9229 H   0  0  0  0  0  0  0  0  0  0  0  0  # atno 10167 bound_to 10162
  157.5414  131.1097  150.8852 H   0  0  0  0  0  0  0  0  0  0  0  0  # atno 10718 bound_to 10713
  153.1928  135.6845  153.8330 H   0  0  0  0  0  0  0  0  0  0  0  0  # atno 10763 bound_to 10752
  153.7624  135.3208  155.3340 H   0  0  0  0  0  0  0  0  0  0  0  0  # atno 10764 bound_to 10752
  154.8127  135.4706  154.0659 H   0  0  0  0  0  0  0  0  0  0  0  0  # atno 10765 bound_to 10752
  139.9968  134.9494  156.9983 H   0  0  0  0  0  0  0  0  0  0  0  0  # atno 11005 bound_to 11000
  145.2129  140.9903  143.4090 LP  0  0  0  0  0  0  0  0  0  0  0  0  # atno 17320 bound_to 7965
  144.9676  139.3914  143.6325 LP  0  0  0  0  0  0  0  0  0  0  0  0  # atno 17321 bound_to 7965
  140.3615  144.2967  150.5933 LP  0  0  0  0  0  0  0  0  0  0  0  0  # atno 17342 bound_to 10162
  140.5398  143.2226  151.8102 LP  0  0  0  0  0  0  0  0  0  0  0  0  # atno 17343 bound_to 10162
  156.9403  130.5382  149.5280 LP  0  0  0  0  0  0  0  0  0  0  0  0  # atno 17370 bound_to 10713
  156.0500  130.5571  150.8968 LP  0  0  0  0  0  0  0  0  0  0  0  0  # atno 17371 bound_to 10713
  140.4802  134.1297  155.7216 LP  0  0  0  0  0  0  0  0  0  0  0  0  # atno 17394 bound_to 11000
  141.1611  133.8791  157.1845 LP  0  0  0  0  0  0  0  0  0  0  0  0  # atno 17395 bound_to 11000

$$$$
