AV-unprocessed.smi:2251|AV-procd|sdf|9101|dock2
  -GOLD-   2272012303D 1   1.00000     0.00000
 Structure written by MMmdl.
 44 45  0  0  0  0  0  0  0  0  1 V2000
  151.2505  146.2621  155.4409 C   0  0  0  0  0  0  0  0  0  0  0  0
  151.7382  144.8296  155.2542 C   0  0  0  0  0  0  0  0  0  0  0  0
  152.8101  144.6099  154.6908 O   0  0  0  0  0  0  0  0  0  0  0  0
  150.9407  143.8633  155.7349 N   0  0  0  0  0  0  0  0  0  0  0  0
  151.2252  142.4313  155.6775 C   0  0  0  0  0  0  0  0  0  0  0  0
  150.0347  141.6029  155.1788 C   0  0  0  0  0  0  0  0  0  0  0  0
  150.1632  140.4069  154.9130 O   0  0  0  0  0  0  0  0  0  0  0  0
  148.8683  142.2540  155.0765 N   0  0  0  0  0  0  0  0  0  0  0  0
  147.6189  141.6470  154.6281 C   0  0  0  0  0  0  0  0  0  0  0  0
  147.4378  141.7330  153.0853 C   0  0  0  0  0  0  0  0  0  0  0  0
  148.5388  140.8813  152.4139 C   0  0  0  0  0  0  0  0  0  0  0  0
  149.5830  141.5121  151.6954 C   0  0  0  0  0  0  0  0  0  0  0  0
  150.5875  140.7242  151.1003 C   0  0  0  0  0  0  0  0  0  0  0  0
  150.6176  139.3787  151.1783 N   0  0  0  0  0  0  0  0  0  0  0  0
  149.6302  138.7710  151.8668 C   0  0  0  0  0  0  0  0  0  0  0  0
  148.5805  139.4666  152.4989 C   0  0  0  0  0  0  0  0  0  0  0  0
  146.0084  141.2524  152.6810 C   0  0  0  0  0  0  0  0  0  0  0  0
  144.8705  142.1755  153.1536 C   0  0  0  0  0  0  0  0  0  0  0  0
  145.0791  143.6103  152.6564 C   0  0  0  0  0  0  0  0  0  0  0  0
  146.4535  144.1410  153.0791 C   0  0  0  0  0  0  0  0  0  0  0  0
  147.5876  143.2087  152.6131 C   0  0  0  0  0  0  0  0  0  0  0  0
  150.2428  146.3796  155.0415 H   0  0  0  0  0  0  0  0  0  0  0  0
  151.9054  146.9653  154.9253 H   0  0  0  0  0  0  0  0  0  0  0  0
  151.2360  146.5226  156.4997 H   0  0  0  0  0  0  0  0  0  0  0  0
  150.0820  144.1383  156.1894 H   0  0  0  0  0  0  0  0  0  0  0  0
  152.0628  142.2752  154.9977 H   0  0  0  0  0  0  0  0  0  0  0  0
  151.5466  142.0737  156.6575 H   0  0  0  0  0  0  0  0  0  0  0  0
  148.8419  143.2333  155.3216 H   0  0  0  0  0  0  0  0  0  0  0  0
  147.5897  140.6160  154.9785 H   0  0  0  0  0  0  0  0  0  0  0  0
  146.7930  142.1535  155.1295 H   0  0  0  0  0  0  0  0  0  0  0  0
  149.6287  142.5865  151.6002 H   0  0  0  0  0  0  0  0  0  0  0  0
  151.3911  141.1898  150.5492 H   0  0  0  0  0  0  0  0  0  0  0  0
  149.6787  137.6935  151.9201 H   0  0  0  0  0  0  0  0  0  0  0  0
  147.8386  138.8956  153.0345 H   0  0  0  0  0  0  0  0  0  0  0  0
  145.9414  141.1995  151.5934 H   0  0  0  0  0  0  0  0  0  0  0  0
  145.8184  140.2432  153.0479 H   0  0  0  0  0  0  0  0  0  0  0  0
  143.9170  141.7977  152.7836 H   0  0  0  0  0  0  0  0  0  0  0  0
  144.7947  142.1636  154.2408 H   0  0  0  0  0  0  0  0  0  0  0  0
  144.9965  143.6358  151.5690 H   0  0  0  0  0  0  0  0  0  0  0  0
  144.2923  144.2587  153.0428 H   0  0  0  0  0  0  0  0  0  0  0  0
  146.6039  145.1368  152.6612 H   0  0  0  0  0  0  0  0  0  0  0  0
  146.4860  144.2625  154.1617 H   0  0  0  0  0  0  0  0  0  0  0  0
  148.5363  143.6291  152.9462 H   0  0  0  0  0  0  0  0  0  0  0  0
  147.6188  143.2305  151.5226 H   0  0  0  0  0  0  0  0  0  0  0  0
  1  2  1  0  0  0  0
  1 22  1  0  0  0  0
  1 23  1  0  0  0  0
  1 24  1  0  0  0  0
  2  3  2  0  0  0  0
  2  4  1  0  0  0  0
  4  5  1  0  0  0  0
  4 25  1  0  0  0  0
  5  6  1  0  0  0  0
  5 26  1  0  0  0  0
  5 27  1  0  0  0  0
  6  7  2  0  0  0  0
  6  8  1  0  0  0  0
  8  9  1  0  0  0  0
  8 28  1  0  0  0  0
  9 10  1  0  0  0  0
  9 29  1  0  0  0  0
  9 30  1  0  0  0  0
 10 21  1  0  0  0  0
 10 11  1  0  0  0  0
 10 17  1  0  0  0  0
 11 16  1  0  0  0  0
 11 12  2  0  0  0  0
 12 13  1  0  0  0  0
 12 31  1  0  0  0  0
 13 14  2  0  0  0  0
 13 32  1  0  0  0  0
 14 15  1  0  0  0  0
 15 16  2  0  0  0  0
 15 33  1  0  0  0  0
 16 34  1  0  0  0  0
 17 18  1  0  0  0  0
 17 35  1  0  0  0  0
 17 36  1  0  0  0  0
 18 19  1  0  0  0  0
 18 37  1  0  0  0  0
 18 38  1  0  0  0  0
 19 20  1  0  0  0  0
 19 39  1  0  0  0  0
 19 40  1  0  0  0  0
 20 21  1  0  0  0  0
 20 41  1  0  0  0  0
 20 42  1  0  0  0  0
 21 43  1  0  0  0  0
 21 44  1  0  0  0  0
M  END
> <s_m_source_file>
AV-unprocessed.smi

> <i_m_source_file_index>
2251

> <i_lp_mmshare_version>
43012

> <i_f3d_flags>
0

> <s_epik_input>
W0NIM11DKD1PKVtOSF1bQ0gyXUMoPU8pW05IXVtDSDJdQzEoW0NIMl1bQ0gyXVtDSDJdW0NIMl1bQ0gyXTEpYzJbY0hdW2NIXW5bY0hdW2NIXTI=

> <s_epik_cmdline>
J2VwaWtfcHl0aG9uJywgJy1waCcsICc3LjAnLCAnLXRuJywgJzgnLCAnLW1hJywgJzIwMCcsICctbWV0YWxfYmluZGluZycsICctaW1hZScsICc8aW5maWxlLm1hZT4nLCAnLW9tYWUnLCAnPG91dGZpbGUubWFlPic=

> <r_epik_Ionization_Penalty>
0.0619926

> <r_epik_Ionization_Penalty_Charging>
0

> <r_epik_Ionization_Penalty_Neutral>
0.0619926

> <r_epik_State_Penalty>
0.0538453

> <r_epik_Charging_Adjusted_Penalty>
0.0538453

> <i_epik_Tot_Q>
0

> <i_epik_Tot_abs_Q>
0

> <r_epik_Metal_State_Penalty>
0.048714

> <b_epik_Metal_Only>
0

> <s_lp_Force_Field>
OPLS_2005

> <r_lp_Energy>
14.8117

> <b_lp_Chiralities_Consistent>
1

> <s_lp_Variant>
AV-unprocessed.smi:2251-1

> <Gold.Version>
5.8.1

> <Gold.Id.Protein>
6NUR|6NUR_protein|mol2

> <Gold.PLP.Fitness>
43.5523

> <Gold.PLP.PLP>
-35.6223

> <Gold.PLP.part.hbond>
-3.0000

> <Gold.PLP.part.metal>
0.0000

> <Gold.PLP.part.buried>
-5.0093

> <Gold.PLP.part.nonpolar>
-27.3204

> <Gold.PLP.part.repulsive>
0.5043

> <Gold.PLP.ligand.clash>
0.0000

> <Gold.PLP.ligand.torsion>
0.5846

> <Gold.PLP.Chemscore.Hbond>
3.0000

> <Gold.PLP.Chemscore.CHOScore>
0.0000

> <Gold.PLP.Chemscore.Metal>
0.0000

> <Gold.Chemscore.Hbonds>
donor molecule, donor type, donor heavy atom, donor atom, acceptor molecule, acceptor atom, score
      L1  H     4    25       P1  8028  0.43
      L1  H     8    28       P1  8028  0.96
      P1  H  7989  7998       L1     7  0.43

> <Gold.PLP.Chemscore.Internal.Correction>
0.0992

> <Gold.Rescore>
     Score         DG    S(hbond)    S(metal)    S(lipo)     H(rot)  DE(clash)    DE(int)     intcor
     15.68     -18.68       1.96        0.00     101.16       2.02       1.92       1.09       ----

> <Gold.Chemscore.Fitness>
15.6782

> <Gold.Chemscore.DG>
-18.6847

> <Gold.Chemscore.ZeroCoef>
-5.4800

> <Gold.Chemscore.Hbond>
1.9551

> <Gold.Chemscore.Metal>
0.0000

> <Gold.Chemscore.Lipo>
101.1584

> <Gold.Chemscore.Internal_Hbond>
0.0000

> <Gold.Chemscore.DEClash>
1.9180

> <Gold.Chemscore.DEInternal>
1.0885

> <Gold.Chemscore.Rot>
2.0160

> <Gold.Chemscore.Internal.Correction>
   9.000000E+99

> <Gold.Chemscore.Hbonds>
donor molecule, donor type, donor heavy atom, donor atom, acceptor molecule, acceptor atom, score
      L1  H     4    25       P1  8028  0.44
      L1  H     8    28       P1  8028  0.91
      P1  H  7989  7998       L1     7  0.02

> <Gold.Chemscore.Hbond.Weighted>
-6.5302

> <Gold.Chemscore.Metal.Weighted>
-0.0000

> <Gold.Chemscore.Lipo.Weighted>
-11.8355

> <Gold.Chemscore.Internal_Hbond.Weighted>
0.0000

> <Gold.Chemscore.DEClash.Weighted>
1.9180

> <Gold.Chemscore.DEInternal.Weighted>
1.0885

> <Gold.Chemscore.Rot.Weighted>
5.1610

> <Gold.Chemscore.Internal.Correction.Weighted>
   9.000000E+99

> <Gold.Protein.RotatedTorsions>
[ 6907 6896 6895 6894 ] final -164.58 input  -60.11 | X-H torsion
[ 7974 7965 7964 7962 ] final   70.36 input  175.53 | X-H torsion
[ 8008 7997 7996 7995 ] final  173.07 input   59.86 | X-H torsion
[ 10167 10162 10161 10158 ] final  142.06 input  -65.29 | X-H torsion
[ 10718 10713 10712 10709 ] final -118.61 input   66.30 | X-H torsion
[ 10763 10752 10751 10750 ] final   57.49 input  -60.55 | X-H torsion
[ 11005 11000 10999 10996 ] final   52.77 input  -57.11 | X-H torsion

> <Gold.Protein.ActiveResidues>
 VAL166  LYS551  ARG553  GLY616  TRP617  ASP618  TYR619  PRO620  LYS621  CYS622 
 ASP623  PHE694  ASN695  SER759  ASP760  ASP761  ALA762  ILE779  LEU786  VAL792 
 PHE793  MET794  SER795  GLU796  ALA797  LYS798  CYS799  TRP800  GLU811  SER814 

> <Gold.Protein.RotatedAtoms>
  151.4140  133.3718  159.2747 H   0  0  0  0  0  0  0  0  0  0  0  0  # atno 6907 bound_to 6896
  150.9342  134.8756  159.7581 H   0  0  0  0  0  0  0  0  0  0  0  0  # atno 6908 bound_to 6896
  152.5042  134.4087  159.9493 H   0  0  0  0  0  0  0  0  0  0  0  0  # atno 6909 bound_to 6896
  145.7791  139.2879  143.1276 H   0  0  0  0  0  0  0  0  0  0  0  0  # atno 7974 bound_to 7965
  156.1112  140.1469  156.9336 H   0  0  0  0  0  0  0  0  0  0  0  0  # atno 8008 bound_to 7997
  154.4768  140.0892  156.7325 H   0  0  0  0  0  0  0  0  0  0  0  0  # atno 8009 bound_to 7997
  155.4593  140.3437  155.4313 H   0  0  0  0  0  0  0  0  0  0  0  0  # atno 8010 bound_to 7997
  139.5004  144.6131  151.6225 H   0  0  0  0  0  0  0  0  0  0  0  0  # atno 10167 bound_to 10162
  156.1119  130.6256  150.9313 H   0  0  0  0  0  0  0  0  0  0  0  0  # atno 10718 bound_to 10713
  152.9851  135.5640  154.5399 H   0  0  0  0  0  0  0  0  0  0  0  0  # atno 10763 bound_to 10752
  154.4855  135.2790  155.1539 H   0  0  0  0  0  0  0  0  0  0  0  0  # atno 10764 bound_to 10752
  154.3030  135.6303  153.5486 H   0  0  0  0  0  0  0  0  0  0  0  0  # atno 10765 bound_to 10752
  140.0822  134.5323  155.8935 H   0  0  0  0  0  0  0  0  0  0  0  0  # atno 11005 bound_to 11000
  146.0092  140.8450  142.9979 LP  0  0  0  0  0  0  0  0  0  0  0  0  # atno 17320 bound_to 7965
  144.6799  140.2465  143.7337 LP  0  0  0  0  0  0  0  0  0  0  0  0  # atno 17321 bound_to 7965
  140.5812  143.9943  150.6269 LP  0  0  0  0  0  0  0  0  0  0  0  0  # atno 17342 bound_to 10162
  140.3092  143.3209  152.0895 LP  0  0  0  0  0  0  0  0  0  0  0  0  # atno 17343 bound_to 10162
  157.6301  131.0922  150.8458 LP  0  0  0  0  0  0  0  0  0  0  0  0  # atno 17370 bound_to 10713
  156.8567  130.5099  149.5307 LP  0  0  0  0  0  0  0  0  0  0  0  0  # atno 17371 bound_to 10713
  141.2050  133.6644  156.6156 LP  0  0  0  0  0  0  0  0  0  0  0  0  # atno 17394 bound_to 11000
  140.3472  134.7799  157.4441 LP  0  0  0  0  0  0  0  0  0  0  0  0  # atno 17395 bound_to 11000

$$$$
