AV-unprocessed.smi:496|AV-procd|sdf|2720|dock1
  -GOLD-   2262023163D 1   1.00000     0.00000
 Structure written by MMmdl.
 41 43  0  0  0  0  0  0  0  0  2 V2000
  154.6724  137.2717  158.5280 C   0  0  0  0  0  0  0  0  0  0  0  0
  154.8771  138.6722  158.5686 O   0  0  0  0  0  0  0  0  0  0  0  0
  154.6738  139.2145  159.8638 C   0  0  0  0  0  0  0  0  0  0  0  0
  153.2444  138.9079  160.3361 C   0  0  0  0  0  0  0  0  0  0  0  0
  152.2294  139.5543  159.4992 N   0  0  0  0  0  0  0  0  0  0  0  0
  151.1447  139.0270  158.8508 C   0  0  0  0  0  0  0  0  0  0  0  0
  150.7544  137.5585  158.8800 C   0  0  2  0  0  0  0  0  0  0  0  0
  150.7240  136.9539  157.4686 C   0  0  0  0  0  0  0  0  0  0  0  0
  149.4602  137.3406  159.5299 N   0  5  0  0  0  0  0  0  0  0  0  0
  148.8362  136.1305  159.5984 C   0  0  0  0  0  0  0  0  0  0  0  0
  148.9230  135.1533  158.8465 O   0  0  0  0  0  0  0  0  0  0  0  0
  147.9026  136.0520  160.7448 C   0  0  0  0  0  0  0  0  0  0  0  0
  147.3317  134.9848  161.3909 C   0  0  0  0  0  0  0  0  0  0  0  0
  146.4923  135.5196  162.4067 C   0  0  0  0  0  0  0  0  0  0  0  0
  146.5996  136.8764  162.3045 C   0  0  0  0  0  0  0  0  0  0  0  0
  147.4462  137.2161  161.2948 O   0  0  0  0  0  0  0  0  0  0  0  0
  150.4034  139.9133  158.1771 N   0  0  0  0  0  0  0  0  0  0  0  0
  151.0628  141.1057  158.3873 C   0  0  0  0  0  0  0  0  0  0  0  0
  150.7709  142.4087  157.9241 C   0  0  0  0  0  0  0  0  0  0  0  0
  151.6047  143.4923  158.2683 C   0  0  0  0  0  0  0  0  0  0  0  0
  152.7399  143.2879  159.0786 C   0  0  0  0  0  0  0  0  0  0  0  0
  153.0464  141.9972  159.5511 C   0  0  0  0  0  0  0  0  0  0  0  0
  152.2099  140.9175  159.2058 C   0  0  0  0  0  0  0  0  0  0  0  0
  154.8415  136.9066  157.5151 H   0  0  0  0  0  0  0  0  0  0  0  0
  153.6511  137.0146  158.8119 H   0  0  0  0  0  0  0  0  0  0  0  0
  155.3630  136.7528  159.1938 H   0  0  0  0  0  0  0  0  0  0  0  0
  155.3982  138.7925  160.5615 H   0  0  0  0  0  0  0  0  0  0  0  0
  154.8330  140.2934  159.8453 H   0  0  0  0  0  0  0  0  0  0  0  0
  153.0675  137.8328  160.3735 H   0  0  0  0  0  0  0  0  0  0  0  0
  153.1198  139.2543  161.3618 H   0  0  0  0  0  0  0  0  0  0  0  0
  151.5355  137.0164  159.4128 H   0  0  0  0  0  0  0  0  0  0  0  0
  151.6917  137.0650  156.9787 H   0  0  0  0  0  0  0  0  0  0  0  0
  149.9762  137.4383  156.8396 H   0  0  0  0  0  0  0  0  0  0  0  0
  150.4922  135.8888  157.5002 H   0  0  0  0  0  0  0  0  0  0  0  0
  147.4997  133.9431  161.1593 H   0  0  0  0  0  0  0  0  0  0  0  0
  145.8852  134.9801  163.1183 H   0  0  0  0  0  0  0  0  0  0  0  0
  146.1632  137.7068  162.8396 H   0  0  0  0  0  0  0  0  0  0  0  0
  149.9037  142.5723  157.3019 H   0  0  0  0  0  0  0  0  0  0  0  0
  151.3730  144.4838  157.9082 H   0  0  0  0  0  0  0  0  0  0  0  0
  153.3755  144.1219  159.3373 H   0  0  0  0  0  0  0  0  0  0  0  0
  153.9174  141.8394  160.1693 H   0  0  0  0  0  0  0  0  0  0  0  0
  1  2  1  0  0  0  0
  1 24  1  0  0  0  0
  1 25  1  0  0  0  0
  1 26  1  0  0  0  0
  2  3  1  0  0  0  0
  3  4  1  0  0  0  0
  3 27  1  0  0  0  0
  3 28  1  0  0  0  0
  4  5  1  0  0  0  0
  4 29  1  0  0  0  0
  4 30  1  0  0  0  0
  5 23  1  0  0  0  0
  5  6  1  0  0  0  0
  6  7  1  0  0  0  0
  6 17  2  0  0  0  0
  7  8  1  0  0  0  0
  7  9  1  0  0  0  0
  7 31  1  0  0  0  0
  8 32  1  0  0  0  0
  8 33  1  0  0  0  0
  8 34  1  0  0  0  0
  9 10  1  0  0  0  0
 10 11  2  0  0  0  0
 10 12  1  0  0  0  0
 12 16  1  0  0  0  0
 12 13  2  0  0  0  0
 13 14  1  0  0  0  0
 13 35  1  0  0  0  0
 14 15  2  0  0  0  0
 14 36  1  0  0  0  0
 15 16  1  0  0  0  0
 15 37  1  0  0  0  0
 17 18  1  0  0  0  0
 18 23  2  0  0  0  0
 18 19  1  0  0  0  0
 19 20  2  0  0  0  0
 19 38  1  0  0  0  0
 20 21  1  0  0  0  0
 20 39  1  0  0  0  0
 21 22  2  0  0  0  0
 21 40  1  0  0  0  0
 22 23  1  0  0  0  0
 22 41  1  0  0  0  0
M  CHG  1   9  -1
M  END
> <s_m_source_file>
AV-unprocessed.smi

> <i_m_source_file_index>
496

> <i_lp_mmshare_version>
43012

> <i_f3d_flags>
0

> <s_epik_input>
W2NIXTFbY0hdW2NIXVtjSF1jKGMxMiluKFtDSDJdW0NIMl1PW0NIM10pYyhuMilbQ0BIXShbQ0gzXSlbTkhdQyg9TyljM1tjSF1bY0hdW2NIXW8z

> <s_epik_cmdline>
J2VwaWtfcHl0aG9uJywgJy1waCcsICc3LjAnLCAnLXRuJywgJzgnLCAnLW1hJywgJzIwMCcsICctbWV0YWxfYmluZGluZycsICctaW1hZScsICc8aW5maWxlLm1hZT4nLCAnLW9tYWUnLCAnPG91dGZpbGUubWFlPic=

> <r_epik_Ionization_Penalty>
7.3423

> <r_epik_Ionization_Penalty_Charging>
6.43826

> <r_epik_Ionization_Penalty_Neutral>
0.90404

> <r_epik_State_Penalty>
6.54438

> <r_epik_Charging_Adjusted_Penalty>
12.9826

> <i_epik_Tot_Q>
-1

> <i_epik_Tot_abs_Q>
1

> <r_epik_Metal_State_Penalty>
2.56942

> <b_epik_Metal_Only>
1

> <s_lp_Force_Field>
OPLS_2005

> <r_lp_Energy>
15.948

> <b_lp_Chiralities_Consistent>
1

> <s_lp_Variant>
AV-unprocessed.smi:496-5

> <Gold.Version>
5.8.1

> <Gold.Id.Protein>
6NUR|6NUR_protein|mol2

> <Gold.PLP.Fitness>
54.7045

> <Gold.PLP.PLP>
-44.1298

> <Gold.PLP.part.hbond>
-4.9207

> <Gold.PLP.part.metal>
0.0000

> <Gold.PLP.part.buried>
-5.8767

> <Gold.PLP.part.nonpolar>
-34.5759

> <Gold.PLP.part.repulsive>
0.0000

> <Gold.PLP.ligand.clash>
0.0000

> <Gold.PLP.ligand.torsion>
0.4441

> <Gold.PLP.Chemscore.Hbond>
3.7520

> <Gold.PLP.Chemscore.CHOScore>
0.0000

> <Gold.PLP.Chemscore.Metal>
0.0000

> <Gold.Chemscore.Hbonds>
donor molecule, donor type, donor heavy atom, donor atom, acceptor molecule, acceptor atom, score
      P1  H  6896  6908       L1    11  1.00
      P1  H  6931  6943       L1    16  0.88
      P1  H  6934  6947       L1    16  0.94
      P1  H  7997  8010       L1     2  1.00

> <Gold.PLP.Chemscore.Internal.Correction>
0.2069

> <Gold.Rescore>
     Score         DG    S(hbond)    S(metal)    S(lipo)     H(rot)  DE(clash)    DE(int)     intcor
     23.07     -24.56       3.14        0.00     112.48       1.78       0.01       1.49       ----

> <Gold.Chemscore.Fitness>
23.0716

> <Gold.Chemscore.DG>
-24.5638

> <Gold.Chemscore.ZeroCoef>
-5.4800

> <Gold.Chemscore.Hbond>
3.1392

> <Gold.Chemscore.Metal>
0.0000

> <Gold.Chemscore.Lipo>
112.4820

> <Gold.Chemscore.Internal_Hbond>
0.0000

> <Gold.Chemscore.DEClash>
0.0060

> <Gold.Chemscore.DEInternal>
1.4863

> <Gold.Chemscore.Rot>
1.7819

> <Gold.Chemscore.Internal.Correction>
   9.000000E+99

> <Gold.Chemscore.Hbonds>
donor molecule, donor type, donor heavy atom, donor atom, acceptor molecule, acceptor atom, score
      P1  H  6896  6908       L1    11  0.38
      P1  H  6931  6943       L1    16  0.47
      P1  H  6934  6947       L1    16  0.55
      P1  H  7997  8010       L1     2  0.78

> <Gold.Chemscore.Hbond.Weighted>
-10.4851

> <Gold.Chemscore.Metal.Weighted>
-0.0000

> <Gold.Chemscore.Lipo.Weighted>
-13.1604

> <Gold.Chemscore.Internal_Hbond.Weighted>
0.0000

> <Gold.Chemscore.DEClash.Weighted>
0.0060

> <Gold.Chemscore.DEInternal.Weighted>
1.4863

> <Gold.Chemscore.Rot.Weighted>
4.5617

> <Gold.Chemscore.Internal.Correction.Weighted>
   9.000000E+99

> <Gold.Protein.RotatedTorsions>
[ 6907 6896 6895 6894 ] final  150.04 input  -60.11 | X-H torsion
[ 7974 7965 7964 7962 ] final -146.03 input  175.53 | X-H torsion
[ 8008 7997 7996 7995 ] final   -8.20 input   59.86 | X-H torsion
[ 10167 10162 10161 10158 ] final   99.14 input  -65.29 | X-H torsion
[ 10718 10713 10712 10709 ] final -131.48 input   66.30 | X-H torsion
[ 10763 10752 10751 10750 ] final -105.17 input  -60.55 | X-H torsion
[ 11005 11000 10999 10996 ] final  158.85 input  -57.11 | X-H torsion

> <Gold.Protein.ActiveResidues>
 VAL166  LYS551  ARG553  GLY616  TRP617  ASP618  TYR619  PRO620  LYS621  CYS622 
 ASP623  PHE694  ASN695  SER759  ASP760  ASP761  ALA762  ILE779  LEU786  VAL792 
 PHE793  MET794  SER795  GLU796  ALA797  LYS798  CYS799  TRP800  GLU811  SER814 

> <Gold.Protein.RotatedAtoms>
  152.1198  133.4347  159.4670 H   0  0  0  0  0  0  0  0  0  0  0  0  # atno 6907 bound_to 6896
  150.6871  134.2548  159.4534 H   0  0  0  0  0  0  0  0  0  0  0  0  # atno 6908 bound_to 6896
  152.0424  134.9703  160.0624 H   0  0  0  0  0  0  0  0  0  0  0  0  # atno 6909 bound_to 6896
  144.8187  140.5508  143.5593 H   0  0  0  0  0  0  0  0  0  0  0  0  # atno 7974 bound_to 7965
  154.5764  140.2387  155.8116 H   0  0  0  0  0  0  0  0  0  0  0  0  # atno 8008 bound_to 7997
  156.2147  140.3016  155.9768 H   0  0  0  0  0  0  0  0  0  0  0  0  # atno 8009 bound_to 7997
  155.2619  140.0415  157.2988 H   0  0  0  0  0  0  0  0  0  0  0  0  # atno 8010 bound_to 7997
  139.7645  144.6943  151.0245 H   0  0  0  0  0  0  0  0  0  0  0  0  # atno 10167 bound_to 10162
  156.2249  130.7001  151.0796 H   0  0  0  0  0  0  0  0  0  0  0  0  # atno 10718 bound_to 10713
  154.7929  135.4759  154.0093 H   0  0  0  0  0  0  0  0  0  0  0  0  # atno 10763 bound_to 10752
  153.1658  135.6816  153.8685 H   0  0  0  0  0  0  0  0  0  0  0  0  # atno 10764 bound_to 10752
  153.8283  135.3195  155.3394 H   0  0  0  0  0  0  0  0  0  0  0  0  # atno 10765 bound_to 10752
  140.1905  134.8411  157.2906 H   0  0  0  0  0  0  0  0  0  0  0  0  # atno 11005 bound_to 11000
  145.5155  139.1478  143.3581 LP  0  0  0  0  0  0  0  0  0  0  0  0  # atno 17320 bound_to 7965
  146.2491  140.5295  142.8901 LP  0  0  0  0  0  0  0  0  0  0  0  0  # atno 17321 bound_to 7965
  140.7810  143.4659  151.0213 LP  0  0  0  0  0  0  0  0  0  0  0  0  # atno 17342 bound_to 10162
  139.8344  143.7647  152.3180 LP  0  0  0  0  0  0  0  0  0  0  0  0  # atno 17343 bound_to 10162
  157.7105  131.0736  150.6516 LP  0  0  0  0  0  0  0  0  0  0  0  0  # atno 17370 bound_to 10713
  156.6581  130.4504  149.5697 LP  0  0  0  0  0  0  0  0  0  0  0  0  # atno 17371 bound_to 10713
  140.2165  134.4075  155.7586 LP  0  0  0  0  0  0  0  0  0  0  0  0  # atno 17394 bound_to 11000
  141.2226  133.7144  156.8422 LP  0  0  0  0  0  0  0  0  0  0  0  0  # atno 17395 bound_to 11000

$$$$
