AV-unprocessed.smi:2380|AV-procd|sdf|9456|dock1
  -GOLD-   2272013 83D 1   1.00000     0.00000
 Structure written by MMmdl.
 42 43  0  0  0  0  0  0  0  0  2 V2000
  152.2081  145.0070  160.6879 C   0  0  0  0  0  0  0  0  0  0  0  0
  151.9839  143.7402  159.8894 C   0  0  0  0  0  0  0  0  0  0  0  0
  152.7062  142.5677  160.1815 C   0  0  0  0  0  0  0  0  0  0  0  0
  152.4560  141.4211  159.4023 C   0  0  0  0  0  0  0  0  0  0  0  0
  153.1966  140.1262  159.6612 C   0  0  0  0  0  0  0  0  0  0  0  0
  151.5612  141.3982  158.3915 N   0  0  0  0  0  0  0  0  0  0  0  0
  150.8607  142.5220  158.1004 C   0  0  0  0  0  0  0  0  0  0  0  0
  149.9005  142.6028  157.0570 N   0  0  0  0  0  0  0  0  0  0  0  0
  149.3331  141.5948  156.3714 C   0  0  0  0  0  0  0  0  0  0  0  0
  149.5457  140.3965  156.5572 O   0  0  0  0  0  0  0  0  0  0  0  0
  148.4879  142.0574  155.4382 N   0  0  0  0  0  0  0  0  0  0  0  0
  147.6956  141.2283  154.5299 C   0  0  2  0  0  0  0  0  0  0  0  0
  146.9612  142.0734  153.4687 C   0  0  0  0  0  0  0  0  0  0  0  0
  145.8152  142.8979  154.0807 C   0  0  0  0  0  0  0  0  0  0  0  0
  144.8634  142.0253  154.8118 N   0  3  2  0  0  0  0  0  0  0  0  0
  143.6844  142.7684  155.3059 C   0  0  0  0  0  0  0  0  0  0  0  0
  145.5313  141.2483  155.8853 C   0  0  0  0  0  0  0  0  0  0  0  0
  146.6765  140.3879  155.3200 C   0  0  0  0  0  0  0  0  0  0  0  0
  151.0506  143.7149  158.8334 C   0  0  0  0  0  0  0  0  0  0  0  0
  152.6309  144.7827  161.6676 H   0  0  0  0  0  0  0  0  0  0  0  0
  151.2681  145.5383  160.8388 H   0  0  0  0  0  0  0  0  0  0  0  0
  152.8961  145.6671  160.1595 H   0  0  0  0  0  0  0  0  0  0  0  0
  153.4327  142.5482  160.9808 H   0  0  0  0  0  0  0  0  0  0  0  0
  153.7947  140.1879  160.5708 H   0  0  0  0  0  0  0  0  0  0  0  0
  153.8633  139.9002  158.8287 H   0  0  0  0  0  0  0  0  0  0  0  0
  152.4936  139.3003  159.7733 H   0  0  0  0  0  0  0  0  0  0  0  0
  149.6174  143.5370  156.8017 H   0  0  0  0  0  0  0  0  0  0  0  0
  148.3713  143.0572  155.3617 H   0  0  0  0  0  0  0  0  0  0  0  0
  148.3784  140.5433  154.0238 H   0  0  0  0  0  0  0  0  0  0  0  0
  147.6576  142.7306  152.9469 H   0  0  0  0  0  0  0  0  0  0  0  0
  146.5512  141.4088  152.7070 H   0  0  0  0  0  0  0  0  0  0  0  0
  146.2130  143.6567  154.7566 H   0  0  0  0  0  0  0  0  0  0  0  0
  145.2877  143.4282  153.2868 H   0  0  0  0  0  0  0  0  0  0  0  0
  143.9756  143.5220  156.0386 H   0  0  0  0  0  0  0  0  0  0  0  0
  142.9712  142.0908  155.7761 H   0  0  0  0  0  0  0  0  0  0  0  0
  143.1724  143.2699  154.4840 H   0  0  0  0  0  0  0  0  0  0  0  0
  145.9101  141.9300  156.6485 H   0  0  0  0  0  0  0  0  0  0  0  0
  144.8013  140.6022  156.3743 H   0  0  0  0  0  0  0  0  0  0  0  0
  146.2563  139.6259  154.6621 H   0  0  0  0  0  0  0  0  0  0  0  0
  147.1744  139.8483  156.1268 H   0  0  0  0  0  0  0  0  0  0  0  0
  150.4867  144.6041  158.5905 H   0  0  0  0  0  0  0  0  0  0  0  0
  144.5175  141.3526  154.1424 H   0  0  0  0  0  0  0  0  0  0  0  0
  1  2  1  0  0  0  0
  1 20  1  0  0  0  0
  1 21  1  0  0  0  0
  1 22  1  0  0  0  0
  2 19  1  0  0  0  0
  2  3  2  0  0  0  0
  3  4  1  0  0  0  0
  3 23  1  0  0  0  0
  4  5  1  0  0  0  0
  4  6  2  0  0  0  0
  5 24  1  0  0  0  0
  5 25  1  0  0  0  0
  5 26  1  0  0  0  0
  6  7  1  0  0  0  0
  7  8  1  0  0  0  0
  7 19  2  0  0  0  0
  8  9  1  0  0  0  0
  8 27  1  0  0  0  0
  9 10  2  0  0  0  0
  9 11  1  0  0  0  0
 11 12  1  0  0  0  0
 11 28  1  0  0  0  0
 12 18  1  0  0  0  0
 12 13  1  0  0  0  0
 12 29  1  0  0  0  0
 13 14  1  0  0  0  0
 13 30  1  0  0  0  0
 13 31  1  0  0  0  0
 14 15  1  0  0  0  0
 14 32  1  0  0  0  0
 14 33  1  0  0  0  0
 15 16  1  0  0  0  0
 15 17  1  0  0  0  0
 15 42  1  0  0  0  0
 16 34  1  0  0  0  0
 16 35  1  0  0  0  0
 16 36  1  0  0  0  0
 17 18  1  0  0  0  0
 17 37  1  0  0  0  0
 17 38  1  0  0  0  0
 18 39  1  0  0  0  0
 18 40  1  0  0  0  0
 19 41  1  0  0  0  0
M  CHG  1  15   1
M  END
> <s_m_source_file>
AV-unprocessed.smi

> <i_m_source_file_index>
2380

> <i_lp_mmshare_version>
43012

> <i_f3d_flags>
0

> <s_epik_input>
W0NIM11jMVtjSF1jKFtDSDNdKW5jKFtjSF0xKVtOSF1DKD1PKVtOSF1bQ0hdMltDSDJdW0NIMl1OKFtDSDNdKVtDSDJdW0NIMl0y

> <s_epik_cmdline>
J2VwaWtfcHl0aG9uJywgJy1waCcsICc3LjAnLCAnLXRuJywgJzgnLCAnLW1hJywgJzIwMCcsICctbWV0YWxfYmluZGluZycsICctaW1hZScsICc8aW5maWxlLm1hZT4nLCAnLW9tYWUnLCAnPG91dGZpbGUubWFlPic=

> <r_epik_Ionization_Penalty>
0.00385557

> <r_epik_Ionization_Penalty_Charging>
0.00366825

> <r_epik_Ionization_Penalty_Neutral>
0.000187322

> <r_epik_State_Penalty>
0.00261101

> <r_epik_Charging_Adjusted_Penalty>
0.00627926

> <i_epik_Tot_Q>
1

> <i_epik_Tot_abs_Q>
1

> <r_epik_Metal_State_Penalty>
-0

> <b_epik_Metal_Only>
0

> <s_lp_Force_Field>
OPLS_2005

> <r_lp_Energy>
16.4741

> <b_lp_Chiralities_Consistent>
1

> <s_lp_Variant>
AV-unprocessed.smi:2380-2

> <Gold.Version>
5.8.1

> <Gold.Id.Protein>
6NUR|6NUR_protein|mol2

> <Gold.PLP.Fitness>
45.8915

> <Gold.PLP.PLP>
-34.0400

> <Gold.PLP.part.hbond>
-3.0000

> <Gold.PLP.part.metal>
0.0000

> <Gold.PLP.part.buried>
-6.5666

> <Gold.PLP.part.nonpolar>
-25.5317

> <Gold.PLP.part.repulsive>
0.1612

> <Gold.PLP.ligand.clash>
0.0000

> <Gold.PLP.ligand.torsion>
0.0762

> <Gold.PLP.Chemscore.Hbond>
4.0000

> <Gold.PLP.Chemscore.CHOScore>
0.0000

> <Gold.PLP.Chemscore.Metal>
0.0000

> <Gold.Chemscore.Hbonds>
donor molecule, donor type, donor heavy atom, donor atom, acceptor molecule, acceptor atom, score
      L1  H     8    27       P1  8028  1.00
      L1  H    11    28       P1  8028  1.00
      L1  H    15    42       P1 10175  1.98

> <Gold.PLP.Chemscore.Internal.Correction>
0.0038

> <Gold.Rescore>
     Score         DG    S(hbond)    S(metal)    S(lipo)     H(rot)  DE(clash)    DE(int)     intcor
     20.98     -22.44       2.76        0.00      88.10       1.00       0.13       1.33       ----

> <Gold.Chemscore.Fitness>
20.9771

> <Gold.Chemscore.DG>
-22.4399

> <Gold.Chemscore.ZeroCoef>
-5.4800

> <Gold.Chemscore.Hbond>
2.7581

> <Gold.Chemscore.Metal>
0.0000

> <Gold.Chemscore.Lipo>
88.1014

> <Gold.Chemscore.Internal_Hbond>
0.0000

> <Gold.Chemscore.DEClash>
0.1308

> <Gold.Chemscore.DEInternal>
1.3320

> <Gold.Chemscore.Rot>
1.0000

> <Gold.Chemscore.Internal.Correction>
   9.000000E+99

> <Gold.Chemscore.Hbonds>
donor molecule, donor type, donor heavy atom, donor atom, acceptor molecule, acceptor atom, score
      L1  H     8    27       P1  8028  0.96
      L1  H    11    28       P1  8028  0.97
      L1  H    15    42       P1 10175  0.47

> <Gold.Chemscore.Hbond.Weighted>
-9.2120

> <Gold.Chemscore.Metal.Weighted>
-0.0000

> <Gold.Chemscore.Lipo.Weighted>
-10.3079

> <Gold.Chemscore.Internal_Hbond.Weighted>
0.0000

> <Gold.Chemscore.DEClash.Weighted>
0.1308

> <Gold.Chemscore.DEInternal.Weighted>
1.3320

> <Gold.Chemscore.Rot.Weighted>
2.5600

> <Gold.Chemscore.Internal.Correction.Weighted>
   9.000000E+99

> <Gold.Protein.RotatedTorsions>
[ 6907 6896 6895 6894 ] final -143.96 input  -60.11 | X-H torsion
[ 7974 7965 7964 7962 ] final  -25.19 input  175.53 | X-H torsion
[ 8008 7997 7996 7995 ] final -119.79 input   59.86 | X-H torsion
[ 10167 10162 10161 10158 ] final -116.37 input  -65.29 | X-H torsion
[ 10718 10713 10712 10709 ] final -131.70 input   66.30 | X-H torsion
[ 10763 10752 10751 10750 ] final  -27.94 input  -60.55 | X-H torsion
[ 11005 11000 10999 10996 ] final  -23.69 input  -57.11 | X-H torsion

> <Gold.Protein.ActiveResidues>
 VAL166  LYS551  ARG553  GLY616  TRP617  ASP618  TYR619  PRO620  LYS621  CYS622 
 ASP623  PHE694  ASN695  SER759  ASP760  ASP761  ALA762  ILE779  LEU786  VAL792 
 PHE793  MET794  SER795  GLU796  ALA797  LYS798  CYS799  TRP800  GLU811  SER814 

> <Gold.Protein.RotatedAtoms>
  151.1076  133.5197  159.2606 H   0  0  0  0  0  0  0  0  0  0  0  0  # atno 6907 bound_to 6896
  151.2003  135.0439  159.8879 H   0  0  0  0  0  0  0  0  0  0  0  0  # atno 6908 bound_to 6896
  152.5448  134.0905  159.8328 H   0  0  0  0  0  0  0  0  0  0  0  0  # atno 6909 bound_to 6896
  146.1506  140.4854  142.8613 H   0  0  0  0  0  0  0  0  0  0  0  0  # atno 7974 bound_to 7965
  155.1213  140.0398  157.2751 H   0  0  0  0  0  0  0  0  0  0  0  0  # atno 8008 bound_to 7997
  154.6611  140.2591  155.7082 H   0  0  0  0  0  0  0  0  0  0  0  0  # atno 8009 bound_to 7997
  156.2619  140.2817  156.1083 H   0  0  0  0  0  0  0  0  0  0  0  0  # atno 8010 bound_to 7997
  140.0799  143.4797  152.1931 H   0  0  0  0  0  0  0  0  0  0  0  0  # atno 10167 bound_to 10162
  156.2271  130.7014  151.0818 H   0  0  0  0  0  0  0  0  0  0  0  0  # atno 10718 bound_to 10713
  153.7402  135.6933  153.4969 H   0  0  0  0  0  0  0  0  0  0  0  0  # atno 10763 bound_to 10752
  153.2074  135.4415  155.0338 H   0  0  0  0  0  0  0  0  0  0  0  0  # atno 10764 bound_to 10752
  154.8223  135.3428  154.6928 H   0  0  0  0  0  0  0  0  0  0  0  0  # atno 10765 bound_to 10752
  140.8776  133.7677  156.0262 H   0  0  0  0  0  0  0  0  0  0  0  0  # atno 11005 bound_to 11000
  144.7900  140.6013  143.6548 LP  0  0  0  0  0  0  0  0  0  0  0  0  # atno 17320 bound_to 7965
  145.4831  139.1494  143.3751 LP  0  0  0  0  0  0  0  0  0  0  0  0  # atno 17321 bound_to 7965
  139.5785  144.7499  151.3700 LP  0  0  0  0  0  0  0  0  0  0  0  0  # atno 17342 bound_to 10162
  140.7083  143.7457  150.7521 LP  0  0  0  0  0  0  0  0  0  0  0  0  # atno 17343 bound_to 10162
  157.7115  131.0731  150.6482 LP  0  0  0  0  0  0  0  0  0  0  0  0  # atno 17370 bound_to 10713
  156.6548  130.4495  149.5707 LP  0  0  0  0  0  0  0  0  0  0  0  0  # atno 17371 bound_to 10713
  140.8500  134.2965  157.5279 LP  0  0  0  0  0  0  0  0  0  0  0  0  # atno 17394 bound_to 11000
  139.8717  134.9462  156.3933 LP  0  0  0  0  0  0  0  0  0  0  0  0  # atno 17395 bound_to 11000

$$$$
