AV-unprocessed.smi:2339|AV-procd|sdf|9342|dock3
  -GOLD-   2272012563D 1   1.00000     0.00000
 Structure written by MMmdl.
 49 52  0  0  0  0  0  0  0  0  1 V2000
  145.8410  143.1334  155.0550 C   0  0  0  0  0  0  0  0  0  0  0  0
  146.5880  142.7695  153.7672 C   0  0  0  0  0  0  0  0  0  0  0  0
  147.4275  141.5934  153.9439 N   0  0  0  0  0  0  0  0  0  0  0  0
  148.7065  141.6942  154.4813 C   0  0  0  0  0  0  0  0  0  0  0  0
  149.5572  140.6573  154.6061 C   0  0  0  0  0  0  0  0  0  0  0  0
  149.1370  139.3179  154.1474 C   0  0  0  0  0  0  0  0  0  0  0  0
  149.8886  138.3476  154.2449 O   0  0  0  0  0  0  0  0  0  0  0  0
  147.7726  139.2115  153.5672 C   0  0  0  0  0  0  0  0  0  0  0  0
  147.3830  137.9334  153.1383 N   0  0  0  0  0  0  0  0  0  0  0  0
  146.2472  137.2504  153.3882 C   0  0  0  0  0  0  0  0  0  0  0  0
  145.3081  137.6538  154.0705 O   0  0  0  0  0  0  0  0  0  0  0  0
  146.1914  136.0590  152.7678 N   0  0  0  0  0  0  0  0  0  0  0  0
  145.1056  135.0710  152.8236 C   0  0  2  0  0  0  0  0  0  0  0  0
  145.1346  134.1720  154.0847 C   0  0  2  0  0  0  0  0  0  0  0  0
  146.0042  134.4501  155.2877 C   0  0  0  0  0  0  0  0  0  0  0  0
  147.2318  133.5704  155.0339 C   0  0  0  0  0  0  0  0  0  0  0  0
  147.2091  133.3064  153.6330 O   0  0  0  0  0  0  0  0  0  0  0  0
  145.8493  133.1233  153.2478 C   0  0  2  0  0  0  0  0  0  0  0  0
  145.4024  133.8278  151.9511 C   0  0  0  0  0  0  0  0  0  0  0  0
  146.4084  133.9066  150.8022 C   0  0  0  0  0  0  0  0  0  0  0  0
  146.2113  132.6493  149.9529 C   0  0  0  0  0  0  0  0  0  0  0  0
  144.7682  132.2044  150.2081 C   0  0  0  0  0  0  0  0  0  0  0  0
  144.2094  133.1830  151.2462 C   0  0  0  0  0  0  0  0  0  0  0  0
  147.0158  140.3366  153.5045 C   0  0  0  0  0  0  0  0  0  0  0  0
  145.2252  144.0206  154.9072 H   0  0  0  0  0  0  0  0  0  0  0  0
  146.5362  143.3425  155.8684 H   0  0  0  0  0  0  0  0  0  0  0  0
  145.1858  142.3218  155.3728 H   0  0  0  0  0  0  0  0  0  0  0  0
  145.8741  142.5899  152.9624 H   0  0  0  0  0  0  0  0  0  0  0  0
  147.2039  143.6106  153.4463 H   0  0  0  0  0  0  0  0  0  0  0  0
  148.9756  142.6887  154.8068 H   0  0  0  0  0  0  0  0  0  0  0  0
  150.5413  140.7832  155.0332 H   0  0  0  0  0  0  0  0  0  0  0  0
  148.0431  137.4817  152.5221 H   0  0  0  0  0  0  0  0  0  0  0  0
  146.9514  135.8395  152.1399 H   0  0  0  0  0  0  0  0  0  0  0  0
  144.1179  135.4885  152.6207 H   0  0  0  0  0  0  0  0  0  0  0  0
  144.1264  133.8434  154.3424 H   0  0  0  0  0  0  0  0  0  0  0  0
  146.2816  135.4998  155.3681 H   0  0  0  0  0  0  0  0  0  0  0  0
  145.5133  134.1752  156.2215 H   0  0  0  0  0  0  0  0  0  0  0  0
  148.1629  134.0509  155.3350 H   0  0  0  0  0  0  0  0  0  0  0  0
  147.1440  132.6266  155.5739 H   0  0  0  0  0  0  0  0  0  0  0  0
  145.4849  132.1060  153.3983 H   0  0  0  0  0  0  0  0  0  0  0  0
  146.2051  134.7876  150.1916 H   0  0  0  0  0  0  0  0  0  0  0  0
  147.4395  133.9937  151.1461 H   0  0  0  0  0  0  0  0  0  0  0  0
  146.4046  132.8409  148.8971 H   0  0  0  0  0  0  0  0  0  0  0  0
  146.8998  131.8682  150.2772 H   0  0  0  0  0  0  0  0  0  0  0  0
  144.1713  132.2120  149.2955 H   0  0  0  0  0  0  0  0  0  0  0  0
  144.7573  131.1864  150.5995 H   0  0  0  0  0  0  0  0  0  0  0  0
  143.5343  132.6812  151.9406 H   0  0  0  0  0  0  0  0  0  0  0  0
  143.6214  133.9483  150.7375 H   0  0  0  0  0  0  0  0  0  0  0  0
  146.0097  140.3473  153.1168 H   0  0  0  0  0  0  0  0  0  0  0  0
  1  2  1  0  0  0  0
  1 25  1  0  0  0  0
  1 26  1  0  0  0  0
  1 27  1  0  0  0  0
  2  3  1  0  0  0  0
  2 28  1  0  0  0  0
  2 29  1  0  0  0  0
  3 24  1  0  0  0  0
  3  4  1  0  0  0  0
  4  5  2  0  0  0  0
  4 30  1  0  0  0  0
  5  6  1  0  0  0  0
  5 31  1  0  0  0  0
  6  7  2  0  0  0  0
  6  8  1  0  0  0  0
  8  9  1  0  0  0  0
  8 24  2  0  0  0  0
  9 10  1  0  0  0  0
  9 32  1  0  0  0  0
 10 11  2  0  0  0  0
 10 12  1  0  0  0  0
 12 13  1  0  0  0  0
 12 33  1  0  0  0  0
 13 19  1  0  0  0  0
 13 14  1  0  0  0  0
 13 34  1  0  0  0  0
 14 18  1  0  0  0  0
 14 15  1  0  0  0  0
 14 35  1  0  0  0  0
 15 16  1  0  0  0  0
 15 36  1  0  0  0  0
 15 37  1  0  0  0  0
 16 17  1  0  0  0  0
 16 38  1  0  0  0  0
 16 39  1  0  0  0  0
 17 18  1  0  0  0  0
 18 19  1  0  0  0  0
 18 40  1  0  0  0  0
 19 23  1  0  0  0  0
 19 20  1  0  0  0  0
 20 21  1  0  0  0  0
 20 41  1  0  0  0  0
 20 42  1  0  0  0  0
 21 22  1  0  0  0  0
 21 43  1  0  0  0  0
 21 44  1  0  0  0  0
 22 23  1  0  0  0  0
 22 45  1  0  0  0  0
 22 46  1  0  0  0  0
 23 47  1  0  0  0  0
 23 48  1  0  0  0  0
 24 49  1  0  0  0  0
M  END
> <s_m_source_file>
AV-unprocessed.smi

> <i_m_source_file_index>
2339

> <i_lp_mmshare_version>
43012

> <i_f3d_flags>
0

> <s_epik_input>
W0NIM11bQ0gyXW4xW2NIXVtjSF1jKD1PKWMoW2NIXTEpW05IXUMoPU8pW05IXVtDQEBIXTJbQ0BASF0oW0NIMl1bQ0gyXU8zKVtDQEBIXTNDMjRbQ0gyXVtDSDJdW0NIMl1bQ0gyXTQ=

> <s_epik_cmdline>
J2VwaWtfcHl0aG9uJywgJy1waCcsICc3LjAnLCAnLXRuJywgJzgnLCAnLW1hJywgJzIwMCcsICctbWV0YWxfYmluZGluZycsICctaW1hZScsICc8aW5maWxlLm1hZT4nLCAnLW9tYWUnLCAnPG91dGZpbGUubWFlPic=

> <r_lp_tautomer_probability>
1

> <r_epik_Ionization_Penalty>
0.00145966

> <r_epik_Ionization_Penalty_Charging>
0.00143969

> <r_epik_Ionization_Penalty_Neutral>
1.99697e-05

> <r_epik_State_Penalty>
0.000961843

> <r_epik_Charging_Adjusted_Penalty>
0.00240153

> <i_epik_Tot_Q>
0

> <i_epik_Tot_abs_Q>
0

> <r_epik_Metal_State_Penalty>
-0

> <b_epik_Metal_Only>
0

> <s_lp_Force_Field>
OPLS_2005

> <r_lp_Energy>
59.2385

> <b_lp_Chiralities_Consistent>
1

> <s_lp_Variant>
AV-unprocessed.smi:2339-7

> <Gold.Version>
5.8.1

> <Gold.Id.Protein>
6NUR|6NUR_protein|mol2

> <Gold.PLP.Fitness>
47.6751

> <Gold.PLP.PLP>
-37.6993

> <Gold.PLP.part.hbond>
-2.0000

> <Gold.PLP.part.metal>
0.0000

> <Gold.PLP.part.buried>
-2.4224

> <Gold.PLP.part.nonpolar>
-30.4082

> <Gold.PLP.part.repulsive>
0.4725

> <Gold.PLP.ligand.clash>
0.0000

> <Gold.PLP.ligand.torsion>
0.8752

> <Gold.PLP.Chemscore.Hbond>
1.8406

> <Gold.PLP.Chemscore.CHOScore>
2.0000

> <Gold.PLP.Chemscore.Metal>
0.0000

> <Gold.Chemscore.Hbonds>
donor molecule, donor type, donor heavy atom, donor atom, acceptor molecule, acceptor atom, score
      L1  H     9    32       P1  7948  1.00
      L1  H    12    33       P1  7948  0.84
      L1  C     4    30       P1  8028  1.00
      L1  C    24    49       P1 10175  1.00

> <Gold.PLP.Chemscore.Internal.Correction>
0.2043

> <Gold.Rescore>
     Score         DG    S(hbond)    S(metal)    S(lipo)     H(rot)  DE(clash)    DE(int)     intcor
     17.80     -18.89       1.88        0.00      86.41       1.17       0.22       0.86       ----

> <Gold.Chemscore.Fitness>
17.7983

> <Gold.Chemscore.DG>
-18.8869

> <Gold.Chemscore.ZeroCoef>
-5.4800

> <Gold.Chemscore.Hbond>
1.8815

> <Gold.Chemscore.Metal>
0.0000

> <Gold.Chemscore.Lipo>
86.4099

> <Gold.Chemscore.Internal_Hbond>
0.0000

> <Gold.Chemscore.DEClash>
0.2240

> <Gold.Chemscore.DEInternal>
0.8646

> <Gold.Chemscore.Rot>
1.1670

> <Gold.Chemscore.Internal.Correction>
   9.000000E+99

> <Gold.Chemscore.Hbonds>
donor molecule, donor type, donor heavy atom, donor atom, acceptor molecule, acceptor atom, score
      L1  H     9    32       P1  7948  0.99
      L1  H    12    33       P1  7948  0.77

> <Gold.Chemscore.Hbond.Weighted>
-6.2844

> <Gold.Chemscore.Metal.Weighted>
-0.0000

> <Gold.Chemscore.Lipo.Weighted>
-10.1100

> <Gold.Chemscore.Internal_Hbond.Weighted>
0.0000

> <Gold.Chemscore.DEClash.Weighted>
0.2240

> <Gold.Chemscore.DEInternal.Weighted>
0.8646

> <Gold.Chemscore.Rot.Weighted>
2.9874

> <Gold.Chemscore.Internal.Correction.Weighted>
   9.000000E+99

> <Gold.Protein.RotatedTorsions>
[ 6907 6896 6895 6894 ] final -124.80 input  -60.11 | X-H torsion
[ 7974 7965 7964 7962 ] final  172.69 input  175.53 | X-H torsion
[ 8008 7997 7996 7995 ] final -167.76 input   59.86 | X-H torsion
[ 10167 10162 10161 10158 ] final  -16.50 input  -65.29 | X-H torsion
[ 10718 10713 10712 10709 ] final  108.79 input   66.30 | X-H torsion
[ 10763 10752 10751 10750 ] final -146.59 input  -60.55 | X-H torsion
[ 11005 11000 10999 10996 ] final   31.61 input  -57.11 | X-H torsion

> <Gold.Protein.ActiveResidues>
 VAL166  LYS551  ARG553  GLY616  TRP617  ASP618  TYR619  PRO620  LYS621  CYS622 
 ASP623  PHE694  ASN695  SER759  ASP760  ASP761  ALA762  ILE779  LEU786  VAL792 
 PHE793  MET794  SER795  GLU796  ALA797  LYS798  CYS799  TRP800  GLU811  SER814 

> <Gold.Protein.RotatedAtoms>
  150.8804  133.7381  159.2933 H   0  0  0  0  0  0  0  0  0  0  0  0  # atno 6907 bound_to 6896
  151.4964  135.1058  159.9827 H   0  0  0  0  0  0  0  0  0  0  0  0  # atno 6908 bound_to 6896
  152.4755  133.8084  159.7045 H   0  0  0  0  0  0  0  0  0  0  0  0  # atno 6909 bound_to 6896
  144.7262  139.9536  143.6432 H   0  0  0  0  0  0  0  0  0  0  0  0  # atno 7974 bound_to 7965
  155.8821  140.1010  157.1478 H   0  0  0  0  0  0  0  0  0  0  0  0  # atno 8008 bound_to 7997
  154.4006  140.1327  156.4273 H   0  0  0  0  0  0  0  0  0  0  0  0  # atno 8009 bound_to 7997
  155.7631  140.3462  155.5210 H   0  0  0  0  0  0  0  0  0  0  0  0  # atno 8010 bound_to 7997
  140.7234  143.5110  150.9750 H   0  0  0  0  0  0  0  0  0  0  0  0  # atno 10167 bound_to 10162
  157.6570  131.0901  150.6358 H   0  0  0  0  0  0  0  0  0  0  0  0  # atno 10718 bound_to 10713
  154.8328  135.3382  154.6686 H   0  0  0  0  0  0  0  0  0  0  0  0  # atno 10763 bound_to 10752
  153.7304  135.6952  153.4995 H   0  0  0  0  0  0  0  0  0  0  0  0  # atno 10764 bound_to 10752
  153.2316  135.4414  155.0554 H   0  0  0  0  0  0  0  0  0  0  0  0  # atno 10765 bound_to 10752
  140.2821  134.2961  155.7798 H   0  0  0  0  0  0  0  0  0  0  0  0  # atno 11005 bound_to 11000
  146.0692  139.3682  143.0533 LP  0  0  0  0  0  0  0  0  0  0  0  0  # atno 17320 bound_to 7965
  145.7990  140.9780  143.1009 LP  0  0  0  0  0  0  0  0  0  0  0  0  # atno 17321 bound_to 7965
  139.8824  143.7055  152.3155 LP  0  0  0  0  0  0  0  0  0  0  0  0  # atno 17342 bound_to 10162
  139.7342  144.7575  151.0753 LP  0  0  0  0  0  0  0  0  0  0  0  0  # atno 17343 bound_to 10162
  156.6663  130.4526  149.5671 LP  0  0  0  0  0  0  0  0  0  0  0  0  # atno 17370 bound_to 10713
  156.2030  130.6631  151.1188 LP  0  0  0  0  0  0  0  0  0  0  0  0  # atno 17371 bound_to 10713
  141.2161  133.7532  156.9496 LP  0  0  0  0  0  0  0  0  0  0  0  0  # atno 17394 bound_to 11000
  140.1274  134.9378  157.2289 LP  0  0  0  0  0  0  0  0  0  0  0  0  # atno 17395 bound_to 11000

$$$$
