AV-unprocessed.smi:1553|AV-procd|sdf|6238|dock9
  -GOLD-   22720 6423D 1   1.00000     0.00000
 Structure written by MMmdl.
 37 38  0  0  0  0  0  0  0  0  1 V2000
  152.4563  131.4711  157.3535 C   0  0  0  0  0  0  0  0  0  0  0  0
  151.7262  130.8165  156.2318 C   0  0  0  0  0  0  0  0  0  0  0  0
  150.6263  131.3238  155.6701 N   0  0  0  0  0  0  0  0  0  0  0  0
  150.1204  130.5125  154.6502 C   0  0  0  0  0  0  0  0  0  0  0  0
  148.8475  130.8935  153.9500 C   0  0  0  0  0  0  0  0  0  0  0  0
  148.7422  132.4012  153.6418 C   0  0  0  0  0  0  0  0  0  0  0  0
  147.9232  132.6601  152.4588 N   0  0  0  0  0  0  0  0  0  0  0  0
  146.9090  133.5420  152.3811 C   0  0  0  0  0  0  0  0  0  0  0  0
  146.6565  134.3101  153.3086 O   0  0  0  0  0  0  0  0  0  0  0  0
  146.1472  133.4169  151.2591 N   0  0  0  0  0  0  0  0  0  0  0  0
  146.1885  132.2523  150.3577 C   0  0  0  0  0  0  0  0  0  0  0  0
  144.8628  131.4885  150.5040 C   0  0  0  0  0  0  0  0  0  0  0  0
  143.7878  132.3523  150.1478 O   0  0  0  0  0  0  0  0  0  0  0  0
  143.7383  133.5430  150.9306 C   0  0  0  0  0  0  0  0  0  0  0  0
  145.0656  134.3242  150.8068 C   0  0  1  0  0  0  0  0  0  0  0  0
  144.9454  135.6940  151.5067 C   0  0  0  0  0  0  0  0  0  0  0  0
  150.8748  129.3865  154.4298 C   0  0  0  0  0  0  0  0  0  0  0  0
  152.2303  129.2897  155.5184 S   0  0  0  0  0  0  0  0  0  0  0  0
  151.8809  132.3083  157.7498 H   0  0  0  0  0  0  0  0  0  0  0  0
  153.4200  131.8416  157.0042 H   0  0  0  0  0  0  0  0  0  0  0  0
  152.6256  130.7535  158.1564 H   0  0  0  0  0  0  0  0  0  0  0  0
  148.7505  130.3311  153.0208 H   0  0  0  0  0  0  0  0  0  0  0  0
  147.9938  130.5985  154.5609 H   0  0  0  0  0  0  0  0  0  0  0  0
  148.3441  132.9304  154.5090 H   0  0  0  0  0  0  0  0  0  0  0  0
  149.7372  132.8113  153.4694 H   0  0  0  0  0  0  0  0  0  0  0  0
  148.0715  132.0513  151.6674 H   0  0  0  0  0  0  0  0  0  0  0  0
  146.3101  132.5900  149.3274 H   0  0  0  0  0  0  0  0  0  0  0  0
  147.0312  131.5831  150.5324 H   0  0  0  0  0  0  0  0  0  0  0  0
  144.8504  130.6195  149.8461 H   0  0  0  0  0  0  0  0  0  0  0  0
  144.7306  131.1236  151.5239 H   0  0  0  0  0  0  0  0  0  0  0  0
  142.9042  134.1493  150.5766 H   0  0  0  0  0  0  0  0  0  0  0  0
  143.5294  133.2918  151.9717 H   0  0  0  0  0  0  0  0  0  0  0  0
  145.2360  134.5418  149.7512 H   0  0  0  0  0  0  0  0  0  0  0  0
  144.1487  136.2856  151.0549 H   0  0  0  0  0  0  0  0  0  0  0  0
  145.8635  136.2745  151.4117 H   0  0  0  0  0  0  0  0  0  0  0  0
  144.7049  135.5915  152.5656 H   0  0  0  0  0  0  0  0  0  0  0  0
  150.7019  128.5988  153.7118 H   0  0  0  0  0  0  0  0  0  0  0  0
  1  2  1  0  0  0  0
  1 19  1  0  0  0  0
  1 20  1  0  0  0  0
  1 21  1  0  0  0  0
  2 18  1  0  0  0  0
  2  3  2  0  0  0  0
  3  4  1  0  0  0  0
  4  5  1  0  0  0  0
  4 17  2  0  0  0  0
  5  6  1  0  0  0  0
  5 22  1  0  0  0  0
  5 23  1  0  0  0  0
  6  7  1  0  0  0  0
  6 24  1  0  0  0  0
  6 25  1  0  0  0  0
  7  8  1  0  0  0  0
  7 26  1  0  0  0  0
  8  9  2  0  0  0  0
  8 10  1  0  0  0  0
 10 15  1  0  0  0  0
 10 11  1  0  0  0  0
 11 12  1  0  0  0  0
 11 27  1  0  0  0  0
 11 28  1  0  0  0  0
 12 13  1  0  0  0  0
 12 29  1  0  0  0  0
 12 30  1  0  0  0  0
 13 14  1  0  0  0  0
 14 15  1  0  0  0  0
 14 31  1  0  0  0  0
 14 32  1  0  0  0  0
 15 16  1  0  0  0  0
 15 33  1  0  0  0  0
 16 34  1  0  0  0  0
 16 35  1  0  0  0  0
 16 36  1  0  0  0  0
 17 18  1  0  0  0  0
 17 37  1  0  0  0  0
M  END
> <s_m_source_file>
AV-unprocessed.smi

> <i_m_source_file_index>
1553

> <i_lp_mmshare_version>
43012

> <i_f3d_flags>
0

> <s_epik_input>
W0NIM11jMW5jKFtjSF1zMSlbQ0gyXVtDSDJdW05IXUMoPU8pTjJbQ0gyXVtDSDJdT1tDSDJdW0NASF0yW0NIM10=

> <s_epik_cmdline>
J2VwaWtfcHl0aG9uJywgJy1waCcsICc3LjAnLCAnLXRuJywgJzgnLCAnLW1hJywgJzIwMCcsICctbWV0YWxfYmluZGluZycsICctaW1hZScsICc8aW5maWxlLm1hZT4nLCAnLW9tYWUnLCAnPG91dGZpbGUubWFlPic=

> <r_epik_Ionization_Penalty>
0.0020768

> <r_epik_Ionization_Penalty_Charging>
0

> <r_epik_Ionization_Penalty_Neutral>
0.0020768

> <r_epik_State_Penalty>
0.00139904

> <r_epik_Charging_Adjusted_Penalty>
0.00139904

> <i_epik_Tot_Q>
0

> <i_epik_Tot_abs_Q>
0

> <r_epik_Metal_State_Penalty>
-0

> <b_epik_Metal_Only>
0

> <s_lp_Force_Field>
OPLS_2005

> <r_lp_Energy>
28.2448

> <b_lp_Chiralities_Consistent>
1

> <s_lp_Variant>
AV-unprocessed.smi:1553-1

> <Gold.Version>
5.8.1

> <Gold.Id.Protein>
6NUR|6NUR_protein|mol2

> <Gold.PLP.Fitness>
39.4276

> <Gold.PLP.PLP>
-34.4505

> <Gold.PLP.part.hbond>
-1.0000

> <Gold.PLP.part.metal>
0.0000

> <Gold.PLP.part.buried>
-4.4659

> <Gold.PLP.part.nonpolar>
-29.6138

> <Gold.PLP.part.repulsive>
0.5621

> <Gold.PLP.ligand.clash>
0.0000

> <Gold.PLP.ligand.torsion>
0.5841

> <Gold.PLP.Chemscore.Hbond>
1.0000

> <Gold.PLP.Chemscore.CHOScore>
1.0000

> <Gold.PLP.Chemscore.Metal>
0.0000

> <Gold.Chemscore.Hbonds>
donor molecule, donor type, donor heavy atom, donor atom, acceptor molecule, acceptor atom, score
      L1  H     7    26       P1 10747  0.98
      L1  C    17    37       P1 10737  0.95

> <Gold.PLP.Chemscore.Internal.Correction>
0.1453

> <Gold.Rescore>
     Score         DG    S(hbond)    S(metal)    S(lipo)     H(rot)  DE(clash)    DE(int)     intcor
     12.34     -14.52       0.99        0.00      78.07       1.33       0.26       1.92       ----

> <Gold.Chemscore.Fitness>
12.3405

> <Gold.Chemscore.DG>
-14.5200

> <Gold.Chemscore.ZeroCoef>
-5.4800

> <Gold.Chemscore.Hbond>
0.9930

> <Gold.Chemscore.Metal>
0.0000

> <Gold.Chemscore.Lipo>
78.0710

> <Gold.Chemscore.Internal_Hbond>
0.0000

> <Gold.Chemscore.DEClash>
0.2585

> <Gold.Chemscore.DEInternal>
1.9210

> <Gold.Chemscore.Rot>
1.3325

> <Gold.Chemscore.Internal.Correction>
   9.000000E+99

> <Gold.Chemscore.Hbonds>
donor molecule, donor type, donor heavy atom, donor atom, acceptor molecule, acceptor atom, score
      L1  H     7    26       P1 10747  0.91

> <Gold.Chemscore.Hbond.Weighted>
-3.3167

> <Gold.Chemscore.Metal.Weighted>
-0.0000

> <Gold.Chemscore.Lipo.Weighted>
-9.1343

> <Gold.Chemscore.Internal_Hbond.Weighted>
0.0000

> <Gold.Chemscore.DEClash.Weighted>
0.2585

> <Gold.Chemscore.DEInternal.Weighted>
1.9210

> <Gold.Chemscore.Rot.Weighted>
3.4111

> <Gold.Chemscore.Internal.Correction.Weighted>
   9.000000E+99

> <Gold.Protein.RotatedTorsions>
[ 6907 6896 6895 6894 ] final   37.85 input  -60.11 | X-H torsion
[ 7974 7965 7964 7962 ] final  144.87 input  175.53 | X-H torsion
[ 8008 7997 7996 7995 ] final   68.11 input   59.86 | X-H torsion
[ 10167 10162 10161 10158 ] final   28.05 input  -65.29 | X-H torsion
[ 10718 10713 10712 10709 ] final -139.04 input   66.30 | X-H torsion
[ 10763 10752 10751 10750 ] final  -74.92 input  -60.55 | X-H torsion
[ 11005 11000 10999 10996 ] final  128.37 input  -57.11 | X-H torsion

> <Gold.Protein.ActiveResidues>
 VAL166  LYS551  ARG553  GLY616  TRP617  ASP618  TYR619  PRO620  LYS621  CYS622 
 ASP623  PHE694  ASN695  SER759  ASP760  ASP761  ALA762  ILE779  LEU786  VAL792 
 PHE793  MET794  SER795  GLU796  ALA797  LYS798  CYS799  TRP800  GLU811  SER814 

> <Gold.Protein.RotatedAtoms>
  152.1487  134.9005  160.0549 H   0  0  0  0  0  0  0  0  0  0  0  0  # atno 6907 bound_to 6896
  152.0045  133.3833  159.4203 H   0  0  0  0  0  0  0  0  0  0  0  0  # atno 6908 bound_to 6896
  150.6873  134.3719  159.5040 H   0  0  0  0  0  0  0  0  0  0  0  0  # atno 6909 bound_to 6896
  144.8800  139.5714  143.5847 H   0  0  0  0  0  0  0  0  0  0  0  0  # atno 7974 bound_to 7965
  155.7032  140.3495  155.4942 H   0  0  0  0  0  0  0  0  0  0  0  0  # atno 8008 bound_to 7997
  155.9422  140.1103  157.1068 H   0  0  0  0  0  0  0  0  0  0  0  0  # atno 8009 bound_to 7997
  154.4105  140.1210  156.4928 H   0  0  0  0  0  0  0  0  0  0  0  0  # atno 8010 bound_to 7997
  140.4886  144.0503  150.6289 H   0  0  0  0  0  0  0  0  0  0  0  0  # atno 10167 bound_to 10162
  156.3062  130.7456  151.1521 H   0  0  0  0  0  0  0  0  0  0  0  0  # atno 10718 bound_to 10713
  154.4796  135.5848  153.6380 H   0  0  0  0  0  0  0  0  0  0  0  0  # atno 10763 bound_to 10752
  152.9846  135.6086  154.3262 H   0  0  0  0  0  0  0  0  0  0  0  0  # atno 10764 bound_to 10752
  154.3152  135.2844  155.2526 H   0  0  0  0  0  0  0  0  0  0  0  0  # atno 10765 bound_to 10752
  139.9557  134.9613  156.8992 H   0  0  0  0  0  0  0  0  0  0  0  0  # atno 11005 bound_to 11000
  146.2988  139.7361  142.9107 LP  0  0  0  0  0  0  0  0  0  0  0  0  # atno 17320 bound_to 7965
  145.3972  141.0380  143.3091 LP  0  0  0  0  0  0  0  0  0  0  0  0  # atno 17321 bound_to 7965
  140.3766  143.2825  152.0218 LP  0  0  0  0  0  0  0  0  0  0  0  0  # atno 17342 bound_to 10162
  139.4847  144.6188  151.7295 LP  0  0  0  0  0  0  0  0  0  0  0  0  # atno 17343 bound_to 10162
  157.7380  131.0545  150.5320 LP  0  0  0  0  0  0  0  0  0  0  0  0  # atno 17370 bound_to 10713
  156.5454  130.4218  149.6133 LP  0  0  0  0  0  0  0  0  0  0  0  0  # atno 17371 bound_to 10713
  140.5614  134.0531  155.7400 LP  0  0  0  0  0  0  0  0  0  0  0  0  # atno 17394 bound_to 11000
  141.1228  133.9433  157.2695 LP  0  0  0  0  0  0  0  0  0  0  0  0  # atno 17395 bound_to 11000

$$$$
