AV-unprocessed.smi:213|AV-procd|sdf|1640|dock6
  -GOLD-   2262020 03D 1   1.00000     0.00000
 Structure written by MMmdl.
 59 62  0  0  0  0  0  0  0  0  2 V2000
  145.5344  132.9412  150.5939 C   0  0  0  0  0  0  0  0  0  0  0  0
  145.8497  133.6497  151.9247 C   0  0  1  0  0  0  0  0  0  0  0  0
  147.3270  133.4702  152.3468 C   0  0  0  0  0  0  0  0  0  0  0  0
  147.7213  132.0441  152.4623 N   0  3  0  0  0  0  0  0  0  0  0  0
  148.8402  131.8421  153.4134 C   0  0  0  0  0  0  0  0  0  0  0  0
  149.2425  130.3586  153.4665 C   0  0  0  0  0  0  0  0  0  0  0  0
  148.1140  129.5707  153.8236 O   0  0  0  0  0  0  0  0  0  0  0  0
  147.0637  129.6844  152.8716 C   0  0  0  0  0  0  0  0  0  0  0  0
  146.5886  131.1453  152.7987 C   0  0  0  0  0  0  0  0  0  0  0  0
  145.4782  135.0706  151.8691 N   0  0  0  0  0  0  0  0  0  0  0  0
  145.2477  135.7115  150.5758 C   0  0  0  0  0  0  0  0  0  0  0  0
  145.7897  135.8927  152.9123 C   0  0  0  0  0  0  0  0  0  0  0  0
  145.6704  135.4288  154.1868 N   0  0  0  0  0  0  0  0  0  0  0  0
  145.9753  136.2054  155.2296 C   0  0  0  0  0  0  0  0  0  0  0  0
  146.4114  137.4649  155.2305 N   0  0  0  0  0  0  0  0  0  0  0  0
  146.5283  137.9455  153.9604 C   0  0  0  0  0  0  0  0  0  0  0  0
  146.2426  137.2378  152.7568 C   0  0  0  0  0  0  0  0  0  0  0  0
  146.4725  138.0688  151.6645 N   0  0  0  0  0  0  0  0  0  0  0  0
  146.8803  139.1916  152.1900 C   0  0  0  0  0  0  0  0  0  0  0  0
  146.9431  139.2035  153.5638 N   0  0  0  0  0  0  0  0  0  0  0  0
  147.3568  140.3099  154.4082 C   0  0  0  0  0  0  0  0  0  0  0  0
  148.8597  140.6208  154.2725 C   0  0  1  0  0  0  0  0  0  0  0  0
  149.1306  141.2353  153.0264 O   0  0  0  0  0  0  0  0  0  0  0  0
  149.3977  141.4818  155.4329 C   0  0  1  0  0  0  0  0  0  0  0  0
  149.1276  140.9622  156.8546 C   0  0  0  0  0  0  0  0  0  0  0  0
  150.4489  141.1743  157.5803 C   0  0  0  0  0  0  0  0  0  0  0  0
  151.2470  142.0663  156.6341 C   0  0  0  0  0  0  0  0  0  0  0  0
  150.8060  141.6558  155.3510 O   0  0  0  0  0  0  0  0  0  0  0  0
  145.6896  131.8653  150.6754 H   0  0  0  0  0  0  0  0  0  0  0  0
  146.1619  133.2998  149.7781 H   0  0  0  0  0  0  0  0  0  0  0  0
  144.4938  133.0960  150.3063 H   0  0  0  0  0  0  0  0  0  0  0  0
  145.2060  133.1710  152.6616 H   0  0  0  0  0  0  0  0  0  0  0  0
  147.9632  133.9620  151.6099 H   0  0  0  0  0  0  0  0  0  0  0  0
  147.5276  133.9694  153.2960 H   0  0  0  0  0  0  0  0  0  0  0  0
  149.6988  132.4426  153.1101 H   0  0  0  0  0  0  0  0  0  0  0  0
  148.5429  132.1852  154.4059 H   0  0  0  0  0  0  0  0  0  0  0  0
  149.6434  130.0281  152.5069 H   0  0  0  0  0  0  0  0  0  0  0  0
  150.0271  130.2087  154.2083 H   0  0  0  0  0  0  0  0  0  0  0  0
  147.4010  129.3347  151.8947 H   0  0  0  0  0  0  0  0  0  0  0  0
  146.2408  129.0367  153.1747 H   0  0  0  0  0  0  0  0  0  0  0  0
  146.1574  131.4424  153.7560 H   0  0  0  0  0  0  0  0  0  0  0  0
  145.7970  131.2285  152.0550 H   0  0  0  0  0  0  0  0  0  0  0  0
  145.8493  136.6147  150.4670 H   0  0  0  0  0  0  0  0  0  0  0  0
  144.1963  135.9810  150.4719 H   0  0  0  0  0  0  0  0  0  0  0  0
  145.5039  135.0529  149.7469 H   0  0  0  0  0  0  0  0  0  0  0  0
  145.8525  135.7527  156.2024 H   0  0  0  0  0  0  0  0  0  0  0  0
  147.1493  140.0466  151.5869 H   0  0  0  0  0  0  0  0  0  0  0  0
  146.7585  141.1853  154.1520 H   0  0  0  0  0  0  0  0  0  0  0  0
  147.1150  140.0585  155.4414 H   0  0  0  0  0  0  0  0  0  0  0  0
  149.4090  139.6788  154.2782 H   0  0  0  0  0  0  0  0  0  0  0  0
  149.0976  140.5731  152.3532 H   0  0  0  0  0  0  0  0  0  0  0  0
  148.9600  142.4785  155.3511 H   0  0  0  0  0  0  0  0  0  0  0  0
  148.3208  141.5293  157.3201 H   0  0  0  0  0  0  0  0  0  0  0  0
  148.8449  139.9097  156.8813 H   0  0  0  0  0  0  0  0  0  0  0  0
  150.3256  141.6167  158.5694 H   0  0  0  0  0  0  0  0  0  0  0  0
  150.9591  140.2177  157.7008 H   0  0  0  0  0  0  0  0  0  0  0  0
  150.9985  143.1178  156.7871 H   0  0  0  0  0  0  0  0  0  0  0  0
  152.3244  141.9459  156.7487 H   0  0  0  0  0  0  0  0  0  0  0  0
  148.0660  131.7647  151.5548 H   0  0  0  0  0  0  0  0  0  0  0  0
  1  2  1  0  0  0  0
  1 29  1  0  0  0  0
  1 30  1  0  0  0  0
  1 31  1  0  0  0  0
  2  3  1  0  0  0  0
  2 10  1  0  0  0  0
  2 32  1  0  0  0  0
  3  4  1  0  0  0  0
  3 33  1  0  0  0  0
  3 34  1  0  0  0  0
  4  9  1  0  0  0  0
  4  5  1  0  0  0  0
  4 59  1  0  0  0  0
  5  6  1  0  0  0  0
  5 35  1  0  0  0  0
  5 36  1  0  0  0  0
  6  7  1  0  0  0  0
  6 37  1  0  0  0  0
  6 38  1  0  0  0  0
  7  8  1  0  0  0  0
  8  9  1  0  0  0  0
  8 39  1  0  0  0  0
  8 40  1  0  0  0  0
  9 41  1  0  0  0  0
  9 42  1  0  0  0  0
 10 11  1  0  0  0  0
 10 12  1  0  0  0  0
 11 43  1  0  0  0  0
 11 44  1  0  0  0  0
 11 45  1  0  0  0  0
 12 17  1  0  0  0  0
 12 13  2  0  0  0  0
 13 14  1  0  0  0  0
 14 15  2  0  0  0  0
 14 46  1  0  0  0  0
 15 16  1  0  0  0  0
 16 20  1  0  0  0  0
 16 17  2  0  0  0  0
 17 18  1  0  0  0  0
 18 19  2  0  0  0  0
 19 20  1  0  0  0  0
 19 47  1  0  0  0  0
 20 21  1  0  0  0  0
 21 22  1  0  0  0  0
 21 48  1  0  0  0  0
 21 49  1  0  0  0  0
 22 23  1  0  0  0  0
 22 24  1  0  0  0  0
 22 50  1  0  0  0  0
 23 51  1  0  0  0  0
 24 28  1  0  0  0  0
 24 25  1  0  0  0  0
 24 52  1  0  0  0  0
 25 26  1  0  0  0  0
 25 53  1  0  0  0  0
 25 54  1  0  0  0  0
 26 27  1  0  0  0  0
 26 55  1  0  0  0  0
 26 56  1  0  0  0  0
 27 28  1  0  0  0  0
 27 57  1  0  0  0  0
 27 58  1  0  0  0  0
M  CHG  1   4   1
M  END
> <s_m_source_file>
AV-unprocessed.smi

> <i_m_source_file_index>
213

> <i_lp_mmshare_version>
43012

> <i_f3d_flags>
0

> <s_epik_input>
W0NIMl0xW0NIMl1PW0NIMl1bQ0gyXU4xW0NIMl1bQ0BASF0oW0NIM10pTihbQ0gzXSljKG5bY0hdbjIpYyhjMjMpbltjSF1uM1tDSDJdW0NASF0oW09IXSlbQ0BASF00W0NIMl1bQ0gyXVtDSDJdTzQ=

> <s_epik_cmdline>
J2VwaWtfcHl0aG9uJywgJy1waCcsICc3LjAnLCAnLXRuJywgJzgnLCAnLW1hJywgJzIwMCcsICctbWV0YWxfYmluZGluZycsICctaW1hZScsICc8aW5maWxlLm1hZT4nLCAnLW9tYWUnLCAnPG91dGZpbGUubWFlPic=

> <r_lp_tautomer_probability>
1

> <r_epik_Ionization_Penalty>
0.399679

> <r_epik_Ionization_Penalty_Charging>
0.399433

> <r_epik_Ionization_Penalty_Neutral>
0.000246213

> <r_epik_State_Penalty>
0.286032

> <r_epik_Charging_Adjusted_Penalty>
0.685465

> <i_epik_Tot_Q>
1

> <i_epik_Tot_abs_Q>
1

> <r_epik_Metal_State_Penalty>
0.286072

> <b_epik_Metal_Only>
0

> <s_lp_Force_Field>
OPLS_2005

> <r_lp_Energy>
46.5476

> <b_lp_Chiralities_Consistent>
1

> <s_lp_Variant>
AV-unprocessed.smi:213-8

> <Gold.Version>
5.8.1

> <Gold.Id.Protein>
6NUR|6NUR_protein|mol2

> <Gold.PLP.Fitness>
49.9707

> <Gold.PLP.PLP>
-40.5991

> <Gold.PLP.part.hbond>
-4.2389

> <Gold.PLP.part.metal>
0.0000

> <Gold.PLP.part.buried>
-3.3097

> <Gold.PLP.part.nonpolar>
-33.7789

> <Gold.PLP.part.repulsive>
1.2402

> <Gold.PLP.ligand.clash>
0.0000

> <Gold.PLP.ligand.torsion>
1.1748

> <Gold.PLP.Chemscore.Hbond>
2.9317

> <Gold.PLP.Chemscore.CHOScore>
0.7176

> <Gold.PLP.Chemscore.Metal>
0.0000

> <Gold.Chemscore.Hbonds>
donor molecule, donor type, donor heavy atom, donor atom, acceptor molecule, acceptor atom, score
      L1  H     4    59       P1 10747  1.00
      L1  H    23    51       P1  7957  0.65
      P1  H  7989  7998       L1    28  0.26
      P1  H  8011  8017       L1    23  0.98
      L1  C    19    47       P1  7957  0.61

> <Gold.PLP.Chemscore.Internal.Correction>
0.7734

> <Gold.Rescore>
     Score         DG    S(hbond)    S(metal)    S(lipo)     H(rot)  DE(clash)    DE(int)     intcor
     11.22     -15.15       2.23        0.00      80.83       2.83       1.51       2.42       ----

> <Gold.Chemscore.Fitness>
11.2193

> <Gold.Chemscore.DG>
-15.1530

> <Gold.Chemscore.ZeroCoef>
-5.4800

> <Gold.Chemscore.Hbond>
2.2301

> <Gold.Chemscore.Metal>
0.0000

> <Gold.Chemscore.Lipo>
80.8343

> <Gold.Chemscore.Internal_Hbond>
0.0000

> <Gold.Chemscore.DEClash>
1.5104

> <Gold.Chemscore.DEInternal>
2.4233

> <Gold.Chemscore.Rot>
2.8254

> <Gold.Chemscore.Internal.Correction>
   9.000000E+99

> <Gold.Chemscore.Hbonds>
donor molecule, donor type, donor heavy atom, donor atom, acceptor molecule, acceptor atom, score
      L1  H     4    59       P1 10747  1.00
      L1  H    23    51       P1  7957  0.62
      P1  H  7954  7966       L1    18  0.01
      P1  H  7989  7998       L1    28  0.23
      P1  H  8011  8017       L1    23  0.36

> <Gold.Chemscore.Hbond.Weighted>
-7.4484

> <Gold.Chemscore.Metal.Weighted>
-0.0000

> <Gold.Chemscore.Lipo.Weighted>
-9.4576

> <Gold.Chemscore.Internal_Hbond.Weighted>
0.0000

> <Gold.Chemscore.DEClash.Weighted>
1.5104

> <Gold.Chemscore.DEInternal.Weighted>
2.4233

> <Gold.Chemscore.Rot.Weighted>
7.2330

> <Gold.Chemscore.Internal.Correction.Weighted>
   9.000000E+99

> <Gold.Protein.RotatedTorsions>
[ 6907 6896 6895 6894 ] final -105.26 input  -60.11 | X-H torsion
[ 7974 7965 7964 7962 ] final   70.23 input  175.53 | X-H torsion
[ 8008 7997 7996 7995 ] final  105.36 input   59.86 | X-H torsion
[ 10167 10162 10161 10158 ] final  -97.83 input  -65.29 | X-H torsion
[ 10718 10713 10712 10709 ] final   10.40 input   66.30 | X-H torsion
[ 10763 10752 10751 10750 ] final    5.87 input  -60.55 | X-H torsion
[ 11005 11000 10999 10996 ] final  -61.82 input  -57.11 | X-H torsion

> <Gold.Protein.ActiveResidues>
 VAL166  LYS551  ARG553  GLY616  TRP617  ASP618  TYR619  PRO620  LYS621  CYS622 
 ASP623  PHE694  ASN695  SER759  ASP760  ASP761  ALA762  ILE779  LEU786  VAL792 
 PHE793  MET794  SER795  GLU796  ALA797  LYS798  CYS799  TRP800  GLU811  SER814 

> <Gold.Protein.RotatedAtoms>
  150.7328  134.0154  159.3683 H   0  0  0  0  0  0  0  0  0  0  0  0  # atno 6907 bound_to 6896
  151.8116  135.0677  160.0423 H   0  0  0  0  0  0  0  0  0  0  0  0  # atno 6908 bound_to 6896
  152.3069  133.5676  159.5691 H   0  0  0  0  0  0  0  0  0  0  0  0  # atno 6909 bound_to 6896
  145.7807  139.2886  143.1267 H   0  0  0  0  0  0  0  0  0  0  0  0  # atno 7974 bound_to 7965
  156.1652  140.3132  155.8877 H   0  0  0  0  0  0  0  0  0  0  0  0  # atno 8008 bound_to 7997
  155.3700  140.0481  157.3062 H   0  0  0  0  0  0  0  0  0  0  0  0  # atno 8009 bound_to 7997
  154.5186  140.2190  155.9030 H   0  0  0  0  0  0  0  0  0  0  0  0  # atno 8010 bound_to 7997
  140.2793  143.3292  152.0457 H   0  0  0  0  0  0  0  0  0  0  0  0  # atno 10167 bound_to 10162
  156.9804  130.6003  149.5676 H   0  0  0  0  0  0  0  0  0  0  0  0  # atno 10718 bound_to 10713
  153.2543  135.6917  153.7645 H   0  0  0  0  0  0  0  0  0  0  0  0  # atno 10763 bound_to 10752
  153.6728  135.3341  155.3159 H   0  0  0  0  0  0  0  0  0  0  0  0  # atno 10764 bound_to 10752
  154.8406  135.4504  154.1511 H   0  0  0  0  0  0  0  0  0  0  0  0  # atno 10765 bound_to 10752
  141.1338  133.6634  156.5433 H   0  0  0  0  0  0  0  0  0  0  0  0  # atno 11005 bound_to 11000
  146.0077  140.8463  142.9986 LP  0  0  0  0  0  0  0  0  0  0  0  0  # atno 17320 bound_to 7965
  144.6797  140.2444  143.7339 LP  0  0  0  0  0  0  0  0  0  0  0  0  # atno 17321 bound_to 7965
  139.4967  144.6602  151.6481 LP  0  0  0  0  0  0  0  0  0  0  0  0  # atno 17342 bound_to 10162
  140.5825  143.9922  150.6276 LP  0  0  0  0  0  0  0  0  0  0  0  0  # atno 17343 bound_to 10162
  156.0246  130.5341  150.8372 LP  0  0  0  0  0  0  0  0  0  0  0  0  # atno 17370 bound_to 10713
  157.5530  131.0944  150.9669 LP  0  0  0  0  0  0  0  0  0  0  0  0  # atno 17371 bound_to 10713
  140.4122  134.7262  157.4842 LP  0  0  0  0  0  0  0  0  0  0  0  0  # atno 17394 bound_to 11000
  140.0419  134.6255  155.8970 LP  0  0  0  0  0  0  0  0  0  0  0  0  # atno 17395 bound_to 11000

$$$$
