AV-unprocessed.smi:1456|AV-procd|sdf|5917|dock2
  -GOLD-   22720 6 03D 1   1.00000     0.00000
 Structure written by MMmdl.
 42 43  0  0  0  0  0  0  0  0  2 V2000
  146.4210  137.0200  153.7852 C   0  0  0  0  0  0  0  0  0  0  0  0
  147.0521  138.3832  153.4254 C   0  0  0  0  0  0  0  0  0  0  0  0
  146.5577  138.7368  152.0093 C   0  0  0  0  0  0  0  0  0  0  0  0
  146.6013  139.5137  154.3837 C   0  0  0  0  0  0  0  0  0  0  0  0
  147.3242  139.5462  155.7440 C   0  0  0  0  0  0  0  0  0  0  0  0
  146.8645  138.5217  156.6794 N   0  0  0  0  0  0  0  0  0  0  0  0
  147.3560  138.3136  157.9098 C   0  0  0  0  0  0  0  0  0  0  0  0
  148.2703  138.9795  158.3958 O   0  0  0  0  0  0  0  0  0  0  0  0
  146.7186  137.3012  158.5230 N   0  0  0  0  0  0  0  0  0  0  0  0
  146.9281  136.8005  159.8348 C   0  0  0  0  0  0  0  0  0  0  0  0
  146.5333  137.4225  160.9519 N   0  0  0  0  0  0  0  0  0  0  0  0
  146.8671  136.7001  162.1003 C   0  0  0  0  0  0  0  0  0  0  0  0
  147.5201  135.5216  161.8367 C   0  0  0  0  0  0  0  0  0  0  0  0
  147.7440  135.2714  160.1259 S   0  0  0  0  0  0  0  0  0  0  0  0
  148.8468  139.4994  155.5372 C   0  0  0  0  0  0  0  0  0  0  0  0
  149.3524  138.3736  154.5979 C   0  0  0  0  0  0  0  0  0  0  0  0
  150.7897  138.7248  154.1667 C   0  0  0  0  0  0  0  0  0  0  0  0
  149.4287  137.0041  155.3088 C   0  0  0  0  0  0  0  0  0  0  0  0
  148.5380  138.2987  153.3519 N   0  3  0  0  0  0  0  0  0  0  0  0
  145.3370  137.0522  153.6688 H   0  0  0  0  0  0  0  0  0  0  0  0
  146.6015  136.7088  154.8086 H   0  0  0  0  0  0  0  0  0  0  0  0
  146.7918  136.2283  153.1333 H   0  0  0  0  0  0  0  0  0  0  0  0
  145.4719  138.8378  151.9795 H   0  0  0  0  0  0  0  0  0  0  0  0
  146.8345  137.9688  151.2857 H   0  0  0  0  0  0  0  0  0  0  0  0
  146.9814  139.6793  151.6597 H   0  0  0  0  0  0  0  0  0  0  0  0
  146.7986  140.4727  153.9021 H   0  0  0  0  0  0  0  0  0  0  0  0
  145.5194  139.4845  154.5199 H   0  0  0  0  0  0  0  0  0  0  0  0
  147.0986  140.5053  156.2143 H   0  0  0  0  0  0  0  0  0  0  0  0
  146.1179  137.9202  156.3632 H   0  0  0  0  0  0  0  0  0  0  0  0
  145.9931  136.8394  157.9951 H   0  0  0  0  0  0  0  0  0  0  0  0
  146.6003  137.0997  163.0675 H   0  0  0  0  0  0  0  0  0  0  0  0
  147.8815  134.7885  162.5424 H   0  0  0  0  0  0  0  0  0  0  0  0
  149.1356  140.4610  155.1094 H   0  0  0  0  0  0  0  0  0  0  0  0
  149.3575  139.4499  156.5001 H   0  0  0  0  0  0  0  0  0  0  0  0
  151.4519  138.8232  155.0279 H   0  0  0  0  0  0  0  0  0  0  0  0
  150.8259  139.6678  153.6194 H   0  0  0  0  0  0  0  0  0  0  0  0
  151.2113  137.9569  153.5165 H   0  0  0  0  0  0  0  0  0  0  0  0
  150.1555  137.0298  156.1214 H   0  0  0  0  0  0  0  0  0  0  0  0
  149.7435  136.2191  154.6203 H   0  0  0  0  0  0  0  0  0  0  0  0
  148.4916  136.6876  155.7543 H   0  0  0  0  0  0  0  0  0  0  0  0
  148.7943  137.4661  152.8408 H   0  0  0  0  0  0  0  0  0  0  0  0
  148.8221  139.0952  152.7997 H   0  0  0  0  0  0  0  0  0  0  0  0
  1  2  1  0  0  0  0
  1 20  1  0  0  0  0
  1 21  1  0  0  0  0
  1 22  1  0  0  0  0
  2 19  1  0  0  0  0
  2  3  1  0  0  0  0
  2  4  1  0  0  0  0
  3 23  1  0  0  0  0
  3 24  1  0  0  0  0
  3 25  1  0  0  0  0
  4  5  1  0  0  0  0
  4 26  1  0  0  0  0
  4 27  1  0  0  0  0
  5  6  1  0  0  0  0
  5 15  1  0  0  0  0
  5 28  1  0  0  0  0
  6  7  1  0  0  0  0
  6 29  1  0  0  0  0
  7  8  2  0  0  0  0
  7  9  1  0  0  0  0
  9 10  1  0  0  0  0
  9 30  1  0  0  0  0
 10 14  1  0  0  0  0
 10 11  2  0  0  0  0
 11 12  1  0  0  0  0
 12 13  2  0  0  0  0
 12 31  1  0  0  0  0
 13 14  1  0  0  0  0
 13 32  1  0  0  0  0
 15 16  1  0  0  0  0
 15 33  1  0  0  0  0
 15 34  1  0  0  0  0
 16 17  1  0  0  0  0
 16 18  1  0  0  0  0
 16 19  1  0  0  0  0
 17 35  1  0  0  0  0
 17 36  1  0  0  0  0
 17 37  1  0  0  0  0
 18 38  1  0  0  0  0
 18 39  1  0  0  0  0
 18 40  1  0  0  0  0
 19 41  1  0  0  0  0
 19 42  1  0  0  0  0
M  CHG  1  19   1
M  END
> <s_m_source_file>
AV-unprocessed.smi

> <i_m_source_file_index>
1456

> <i_lp_mmshare_version>
43012

> <i_f3d_flags>
0

> <s_epik_input>
W0NIM11DMShbQ0gzXSlbQ0gyXVtDSF0oW0NIMl1DKFtDSDNdKShbQ0gzXSlbTkhdMSlbTkhdQyg9TylbTkhdYzJuW2NIXVtjSF1zMg==

> <s_epik_cmdline>
J2VwaWtfcHl0aG9uJywgJy1waCcsICc3LjAnLCAnLXRuJywgJzgnLCAnLW1hJywgJzIwMCcsICctbWV0YWxfYmluZGluZycsICctaW1hZScsICc8aW5maWxlLm1hZT4nLCAnLW9tYWUnLCAnPG91dGZpbGUubWFlPic=

> <r_lp_tautomer_probability>
1

> <r_epik_Ionization_Penalty>
0.000374891

> <r_epik_Ionization_Penalty_Charging>
0.000101406

> <r_epik_Ionization_Penalty_Neutral>
0.000273485

> <r_epik_State_Penalty>
-0

> <r_epik_Charging_Adjusted_Penalty>
0.000101406

> <i_epik_Tot_Q>
1

> <i_epik_Tot_abs_Q>
1

> <r_epik_Metal_State_Penalty>
0.0101225

> <b_epik_Metal_Only>
0

> <s_lp_Force_Field>
OPLS_2005

> <r_lp_Energy>
24.6198

> <b_lp_Chiralities_Consistent>
1

> <s_lp_Variant>
AV-unprocessed.smi:1456-1

> <Gold.Version>
5.8.1

> <Gold.Id.Protein>
6NUR|6NUR_protein|mol2

> <Gold.PLP.Fitness>
35.4634

> <Gold.PLP.PLP>
-24.8983

> <Gold.PLP.part.hbond>
-4.0000

> <Gold.PLP.part.metal>
0.0000

> <Gold.PLP.part.buried>
-3.6983

> <Gold.PLP.part.nonpolar>
-17.7908

> <Gold.PLP.part.repulsive>
0.1525

> <Gold.PLP.ligand.clash>
0.0000

> <Gold.PLP.ligand.torsion>
0.7262

> <Gold.PLP.Chemscore.Hbond>
4.0000

> <Gold.PLP.Chemscore.CHOScore>
0.0000

> <Gold.PLP.Chemscore.Metal>
0.0000

> <Gold.Chemscore.Hbonds>
donor molecule, donor type, donor heavy atom, donor atom, acceptor molecule, acceptor atom, score
      L1  H    19    41       P1  7948  2.00
      L1  H    19    42       P1  7957  0.98
      P1  H  6934  6947       L1    11  1.00

> <Gold.PLP.Chemscore.Internal.Correction>
0.0176

> <Gold.Rescore>
     Score         DG    S(hbond)    S(metal)    S(lipo)     H(rot)  DE(clash)    DE(int)     intcor
     17.72     -19.71       2.69        0.00      66.71       1.00       0.04       1.94       ----

> <Gold.Chemscore.Fitness>
17.7208

> <Gold.Chemscore.DG>
-19.7051

> <Gold.Chemscore.ZeroCoef>
-5.4800

> <Gold.Chemscore.Hbond>
2.6887

> <Gold.Chemscore.Metal>
0.0000

> <Gold.Chemscore.Lipo>
66.7086

> <Gold.Chemscore.Internal_Hbond>
0.0000

> <Gold.Chemscore.DEClash>
0.0441

> <Gold.Chemscore.DEInternal>
1.9402

> <Gold.Chemscore.Rot>
1.0000

> <Gold.Chemscore.Internal.Correction>
   9.000000E+99

> <Gold.Chemscore.Hbonds>
donor molecule, donor type, donor heavy atom, donor atom, acceptor molecule, acceptor atom, score
      L1  H    19    41       P1  7948  0.97
      L1  H    19    42       P1  7957  0.89
      P1  H  6934  6947       L1    11  0.62

> <Gold.Chemscore.Hbond.Weighted>
-8.9801

> <Gold.Chemscore.Metal.Weighted>
-0.0000

> <Gold.Chemscore.Lipo.Weighted>
-7.8049

> <Gold.Chemscore.Internal_Hbond.Weighted>
0.0000

> <Gold.Chemscore.DEClash.Weighted>
0.0441

> <Gold.Chemscore.DEInternal.Weighted>
1.9402

> <Gold.Chemscore.Rot.Weighted>
2.5600

> <Gold.Chemscore.Internal.Correction.Weighted>
   9.000000E+99

> <Gold.Protein.RotatedTorsions>
[ 6907 6896 6895 6894 ] final   -4.88 input  -60.11 | X-H torsion
[ 7974 7965 7964 7962 ] final -146.12 input  175.53 | X-H torsion
[ 8008 7997 7996 7995 ] final  116.37 input   59.86 | X-H torsion
[ 10167 10162 10161 10158 ] final   39.88 input  -65.29 | X-H torsion
[ 10718 10713 10712 10709 ] final -135.32 input   66.30 | X-H torsion
[ 10763 10752 10751 10750 ] final -101.88 input  -60.55 | X-H torsion
[ 11005 11000 10999 10996 ] final  -42.67 input  -57.11 | X-H torsion

> <Gold.Protein.ActiveResidues>
 VAL166  LYS551  ARG553  GLY616  TRP617  ASP618  TYR619  PRO620  LYS621  CYS622 
 ASP623  PHE694  ASN695  SER759  ASP760  ASP761  ALA762  ILE779  LEU786  VAL792 
 PHE793  MET794  SER795  GLU796  ALA797  LYS798  CYS799  TRP800  GLU811  SER814 

> <Gold.Protein.RotatedAtoms>
  151.4905  135.1057  159.9801 H   0  0  0  0  0  0  0  0  0  0  0  0  # atno 6907 bound_to 6896
  152.4743  133.8097  159.7007 H   0  0  0  0  0  0  0  0  0  0  0  0  # atno 6908 bound_to 6896
  150.8771  133.7362  159.2969 H   0  0  0  0  0  0  0  0  0  0  0  0  # atno 6909 bound_to 6896
  144.8181  140.5496  143.5597 H   0  0  0  0  0  0  0  0  0  0  0  0  # atno 7974 bound_to 7965
  156.2435  140.2919  156.0512 H   0  0  0  0  0  0  0  0  0  0  0  0  # atno 8008 bound_to 7997
  155.1879  140.0406  157.2912 H   0  0  0  0  0  0  0  0  0  0  0  0  # atno 8009 bound_to 7997
  154.6214  140.2477  155.7551 H   0  0  0  0  0  0  0  0  0  0  0  0  # atno 8010 bound_to 7997
  140.3796  144.1997  150.6131 H   0  0  0  0  0  0  0  0  0  0  0  0  # atno 10167 bound_to 10162
  156.2649  130.7231  151.1179 H   0  0  0  0  0  0  0  0  0  0  0  0  # atno 10718 bound_to 10713
  154.7692  135.4881  153.9614 H   0  0  0  0  0  0  0  0  0  0  0  0  # atno 10763 bound_to 10752
  153.1346  135.6760  153.9131 H   0  0  0  0  0  0  0  0  0  0  0  0  # atno 10764 bound_to 10752
  153.8824  135.3130  155.3424 H   0  0  0  0  0  0  0  0  0  0  0  0  # atno 10765 bound_to 10752
  141.0332  133.6811  156.2627 H   0  0  0  0  0  0  0  0  0  0  0  0  # atno 11005 bound_to 11000
  145.5169  139.1477  143.3574 LP  0  0  0  0  0  0  0  0  0  0  0  0  # atno 17320 bound_to 7965
  146.2485  140.5309  142.8903 LP  0  0  0  0  0  0  0  0  0  0  0  0  # atno 17321 bound_to 7965
  140.4951  143.2335  151.8762 LP  0  0  0  0  0  0  0  0  0  0  0  0  # atno 17342 bound_to 10162
  139.4796  144.5123  151.8916 LP  0  0  0  0  0  0  0  0  0  0  0  0  # atno 17343 bound_to 10162
  157.7264  131.0647  150.5912 LP  0  0  0  0  0  0  0  0  0  0  0  0  # atno 17370 bound_to 10713
  156.6003  130.4353  149.5900 LP  0  0  0  0  0  0  0  0  0  0  0  0  # atno 17371 bound_to 10713
  140.6370  134.5205  157.5565 LP  0  0  0  0  0  0  0  0  0  0  0  0  # atno 17394 bound_to 11000
  139.9222  134.8126  156.1176 LP  0  0  0  0  0  0  0  0  0  0  0  0  # atno 17395 bound_to 11000

$$$$
