AV-unprocessed.smi:501|AV-procd|sdf|2742|dock6
  -GOLD-   2262023203D 1   1.00000     0.00000
 Structure written by MMmdl.
 45 47  0  0  0  0  0  0  0  0  1 V2000
  152.7291  142.6282  161.8943 C   0  0  0  0  0  0  0  0  0  0  0  0
  152.3244  143.2529  160.5748 C   0  0  0  0  0  0  0  0  0  0  0  0
  152.3274  144.6543  160.4301 C   0  0  0  0  0  0  0  0  0  0  0  0
  151.9541  145.2348  159.2043 C   0  0  0  0  0  0  0  0  0  0  0  0
  151.5794  144.4159  158.1224 C   0  0  0  0  0  0  0  0  0  0  0  0
  151.5742  143.0116  158.2482 C   0  0  0  0  0  0  0  0  0  0  0  0
  151.1979  142.2868  157.1376 O   0  0  0  0  0  0  0  0  0  0  0  0
  151.1829  140.8698  157.2332 C   0  0  0  0  0  0  0  0  0  0  0  0
  151.6423  140.2856  155.8922 C   0  0  0  0  0  0  0  0  0  0  0  0
  150.5424  139.6675  155.1651 N   0  0  0  0  0  0  0  0  0  0  0  0
  150.3526  138.3615  154.8374 C   0  0  0  0  0  0  0  0  0  0  0  0
  151.3074  137.2663  155.2142 C   0  0  0  0  0  0  0  0  0  0  0  0
  151.3245  136.9880  156.7266 C   0  0  0  0  0  0  0  0  0  0  0  0
  149.9775  136.9646  157.2850 N   0  0  0  0  0  0  0  0  0  0  0  0
  149.6894  136.8877  158.5918 C   0  0  0  0  0  0  0  0  0  0  0  0
  150.5301  136.8325  159.4880 O   0  0  0  0  0  0  0  0  0  0  0  0
  149.2329  138.0927  154.1642 N   0  0  0  0  0  0  0  0  0  0  0  0
  148.6410  139.3335  154.0425 C   0  0  0  0  0  0  0  0  0  0  0  0
  147.4276  139.7159  153.4271 C   0  0  0  0  0  0  0  0  0  0  0  0
  147.0193  141.0658  153.4325 C   0  0  0  0  0  0  0  0  0  0  0  0
  147.8163  142.0499  154.0522 C   0  0  0  0  0  0  0  0  0  0  0  0
  149.0294  141.6897  154.6701 C   0  0  0  0  0  0  0  0  0  0  0  0
  149.4335  140.3409  154.6605 C   0  0  0  0  0  0  0  0  0  0  0  0
  151.9506  142.4349  159.4882 C   0  0  0  0  0  0  0  0  0  0  0  0
  152.4313  143.2620  162.7301 H   0  0  0  0  0  0  0  0  0  0  0  0
  153.8105  142.4959  161.9315 H   0  0  0  0  0  0  0  0  0  0  0  0
  152.2585  141.6535  162.0264 H   0  0  0  0  0  0  0  0  0  0  0  0
  152.6161  145.2868  161.2570 H   0  0  0  0  0  0  0  0  0  0  0  0
  151.9561  146.3090  159.0927 H   0  0  0  0  0  0  0  0  0  0  0  0
  151.2947  144.8705  157.1849 H   0  0  0  0  0  0  0  0  0  0  0  0
  151.8493  140.5417  158.0305 H   0  0  0  0  0  0  0  0  0  0  0  0
  150.1757  140.5186  157.4630 H   0  0  0  0  0  0  0  0  0  0  0  0
  152.0599  141.0787  155.2712 H   0  0  0  0  0  0  0  0  0  0  0  0
  152.4496  139.5703  156.0364 H   0  0  0  0  0  0  0  0  0  0  0  0
  151.0062  136.3632  154.6817 H   0  0  0  0  0  0  0  0  0  0  0  0
  152.3115  137.4889  154.8595 H   0  0  0  0  0  0  0  0  0  0  0  0
  151.7858  136.0220  156.9261 H   0  0  0  0  0  0  0  0  0  0  0  0
  151.9324  137.7318  157.2449 H   0  0  0  0  0  0  0  0  0  0  0  0
  149.2095  137.0051  156.6306 H   0  0  0  0  0  0  0  0  0  0  0  0
  148.6005  136.8804  158.7537 H   0  0  0  0  0  0  0  0  0  0  0  0
  146.8098  138.9687  152.9513 H   0  0  0  0  0  0  0  0  0  0  0  0
  146.0898  141.3473  152.9595 H   0  0  0  0  0  0  0  0  0  0  0  0
  147.4961  143.0816  154.0530 H   0  0  0  0  0  0  0  0  0  0  0  0
  149.6412  142.4415  155.1462 H   0  0  0  0  0  0  0  0  0  0  0  0
  151.9593  141.3647  159.6283 H   0  0  0  0  0  0  0  0  0  0  0  0
  1  2  1  0  0  0  0
  1 25  1  0  0  0  0
  1 26  1  0  0  0  0
  1 27  1  0  0  0  0
  2 24  1  0  0  0  0
  2  3  2  0  0  0  0
  3  4  1  0  0  0  0
  3 28  1  0  0  0  0
  4  5  2  0  0  0  0
  4 29  1  0  0  0  0
  5  6  1  0  0  0  0
  5 30  1  0  0  0  0
  6  7  1  0  0  0  0
  6 24  2  0  0  0  0
  7  8  1  0  0  0  0
  8  9  1  0  0  0  0
  8 31  1  0  0  0  0
  8 32  1  0  0  0  0
  9 10  1  0  0  0  0
  9 33  1  0  0  0  0
  9 34  1  0  0  0  0
 10 23  1  0  0  0  0
 10 11  1  0  0  0  0
 11 12  1  0  0  0  0
 11 17  2  0  0  0  0
 12 13  1  0  0  0  0
 12 35  1  0  0  0  0
 12 36  1  0  0  0  0
 13 14  1  0  0  0  0
 13 37  1  0  0  0  0
 13 38  1  0  0  0  0
 14 15  1  0  0  0  0
 14 39  1  0  0  0  0
 15 16  2  0  0  0  0
 15 40  1  0  0  0  0
 17 18  1  0  0  0  0
 18 23  2  0  0  0  0
 18 19  1  0  0  0  0
 19 20  2  0  0  0  0
 19 41  1  0  0  0  0
 20 21  1  0  0  0  0
 20 42  1  0  0  0  0
 21 22  2  0  0  0  0
 21 43  1  0  0  0  0
 22 23  1  0  0  0  0
 22 44  1  0  0  0  0
 24 45  1  0  0  0  0
M  END
> <s_m_source_file>
AV-unprocessed.smi

> <i_m_source_file_index>
501

> <i_lp_mmshare_version>
43012

> <i_f3d_flags>
0

> <s_epik_input>
W0NIM11jMVtjSF1bY0hdW2NIXWMoW2NIXTEpT1tDSDJdW0NIMl1uKGMobjIpW0NIMl1bQ0gyXVtOSF1bQ0hdPU8pYyhjMjMpW2NIXVtjSF1bY0hdW2NIXTM=

> <s_epik_cmdline>
J2VwaWtfcHl0aG9uJywgJy1waCcsICc3LjAnLCAnLXRuJywgJzgnLCAnLW1hJywgJzIwMCcsICctbWV0YWxfYmluZGluZycsICctaW1hZScsICc8aW5maWxlLm1hZT4nLCAnLW9tYWUnLCAnPG91dGZpbGUubWFlPic=

> <r_lp_tautomer_probability>
1

> <r_epik_Ionization_Penalty>
0.092246

> <r_epik_Ionization_Penalty_Charging>
0

> <r_epik_Ionization_Penalty_Neutral>
0.092246

> <r_epik_State_Penalty>
0.0825475

> <r_epik_Charging_Adjusted_Penalty>
0.0825475

> <i_epik_Tot_Q>
0

> <i_epik_Tot_abs_Q>
0

> <r_epik_Metal_State_Penalty>
0.0713424

> <b_epik_Metal_Only>
0

> <s_lp_Force_Field>
OPLS_2005

> <r_lp_Energy>
15.5248

> <b_lp_Chiralities_Consistent>
1

> <s_lp_Variant>
AV-unprocessed.smi:501-1

> <Gold.Version>
5.8.1

> <Gold.Id.Protein>
6NUR|6NUR_protein|mol2

> <Gold.PLP.Fitness>
56.1604

> <Gold.PLP.PLP>
-54.5337

> <Gold.PLP.part.hbond>
-1.0000

> <Gold.PLP.part.metal>
0.0000

> <Gold.PLP.part.buried>
-4.5264

> <Gold.PLP.part.nonpolar>
-50.4824

> <Gold.PLP.part.repulsive>
1.1699

> <Gold.PLP.ligand.clash>
0.0000

> <Gold.PLP.ligand.torsion>
0.7946

> <Gold.PLP.Chemscore.Hbond>
1.0000

> <Gold.PLP.Chemscore.CHOScore>
0.0000

> <Gold.PLP.Chemscore.Metal>
0.0000

> <Gold.Chemscore.Hbonds>
donor molecule, donor type, donor heavy atom, donor atom, acceptor molecule, acceptor atom, score
      P1  H  6896  6909       L1    16  1.00

> <Gold.PLP.Chemscore.Internal.Correction>
0.2160

> <Gold.Rescore>
     Score         DG    S(hbond)    S(metal)    S(lipo)     H(rot)  DE(clash)    DE(int)     intcor
     17.77     -19.16       0.99        0.00     145.69       2.61       0.34       1.05       ----

> <Gold.Chemscore.Fitness>
17.7663

> <Gold.Chemscore.DG>
-19.1615

> <Gold.Chemscore.ZeroCoef>
-5.4800

> <Gold.Chemscore.Hbond>
0.9948

> <Gold.Chemscore.Metal>
0.0000

> <Gold.Chemscore.Lipo>
145.6931

> <Gold.Chemscore.Internal_Hbond>
0.0000

> <Gold.Chemscore.DEClash>
0.3431

> <Gold.Chemscore.DEInternal>
1.0520

> <Gold.Chemscore.Rot>
2.6122

> <Gold.Chemscore.Internal.Correction>
   9.000000E+99

> <Gold.Chemscore.Hbonds>
donor molecule, donor type, donor heavy atom, donor atom, acceptor molecule, acceptor atom, score
      P1  H  6896  6909       L1    16  0.59

> <Gold.Chemscore.Hbond.Weighted>
-3.3225

> <Gold.Chemscore.Metal.Weighted>
-0.0000

> <Gold.Chemscore.Lipo.Weighted>
-17.0461

> <Gold.Chemscore.Internal_Hbond.Weighted>
0.0000

> <Gold.Chemscore.DEClash.Weighted>
0.3431

> <Gold.Chemscore.DEInternal.Weighted>
1.0520

> <Gold.Chemscore.Rot.Weighted>
6.6872

> <Gold.Chemscore.Internal.Correction.Weighted>
   9.000000E+99

> <Gold.Protein.RotatedTorsions>
[ 6907 6896 6895 6894 ] final   76.89 input  -60.11 | X-H torsion
[ 7974 7965 7964 7962 ] final  134.36 input  175.53 | X-H torsion
[ 8008 7997 7996 7995 ] final  116.76 input   59.86 | X-H torsion
[ 10167 10162 10161 10158 ] final  -21.22 input  -65.29 | X-H torsion
[ 10718 10713 10712 10709 ] final  159.85 input   66.30 | X-H torsion
[ 10763 10752 10751 10750 ] final -176.36 input  -60.55 | X-H torsion
[ 11005 11000 10999 10996 ] final   39.99 input  -57.11 | X-H torsion

> <Gold.Protein.ActiveResidues>
 VAL166  LYS551  ARG553  GLY616  TRP617  ASP618  TYR619  PRO620  LYS621  CYS622 
 ASP623  PHE694  ASN695  SER759  ASP760  ASP761  ALA762  ILE779  LEU786  VAL792 
 PHE793  MET794  SER795  GLU796  ALA797  LYS798  CYS799  TRP800  GLU811  SER814 

> <Gold.Protein.RotatedAtoms>
  152.5093  134.3901  159.9380 H   0  0  0  0  0  0  0  0  0  0  0  0  # atno 6907 bound_to 6896
  151.3860  133.3798  159.2723 H   0  0  0  0  0  0  0  0  0  0  0  0  # atno 6908 bound_to 6896
  150.9468  134.8893  159.7706 H   0  0  0  0  0  0  0  0  0  0  0  0  # atno 6909 bound_to 6896
  144.9772  139.4543  143.5404 H   0  0  0  0  0  0  0  0  0  0  0  0  # atno 7974 bound_to 7965
  156.2457  140.2910  156.0573 H   0  0  0  0  0  0  0  0  0  0  0  0  # atno 8008 bound_to 7997
  155.1814  140.0404  157.2900 H   0  0  0  0  0  0  0  0  0  0  0  0  # atno 8009 bound_to 7997
  154.6257  140.2487  155.7502 H   0  0  0  0  0  0  0  0  0  0  0  0  # atno 8010 bound_to 7997
  140.7281  143.4648  151.0328 H   0  0  0  0  0  0  0  0  0  0  0  0  # atno 10167 bound_to 10162
  157.1585  131.0581  151.2244 H   0  0  0  0  0  0  0  0  0  0  0  0  # atno 10718 bound_to 10713
  154.5733  135.2830  155.0806 H   0  0  0  0  0  0  0  0  0  0  0  0  # atno 10763 bound_to 10752
  154.2170  135.6398  153.5136 H   0  0  0  0  0  0  0  0  0  0  0  0  # atno 10764 bound_to 10752
  153.0064  135.5505  154.6363 H   0  0  0  0  0  0  0  0  0  0  0  0  # atno 10765 bound_to 10752
  140.1974  134.3912  155.8114 H   0  0  0  0  0  0  0  0  0  0  0  0  # atno 11005 bound_to 11000
  146.3398  139.9021  142.8793 LP  0  0  0  0  0  0  0  0  0  0  0  0  # atno 17320 bound_to 7965
  145.2474  141.0031  143.3901 LP  0  0  0  0  0  0  0  0  0  0  0  0  # atno 17321 bound_to 7965
  139.8336  143.7658  152.3180 LP  0  0  0  0  0  0  0  0  0  0  0  0  # atno 17342 bound_to 10162
  139.7782  144.7453  151.0126 LP  0  0  0  0  0  0  0  0  0  0  0  0  # atno 17343 bound_to 10162
  157.4155  130.7408  149.6872 LP  0  0  0  0  0  0  0  0  0  0  0  0  # atno 17370 bound_to 10713
  155.9758  130.4084  150.3824 LP  0  0  0  0  0  0  0  0  0  0  0  0  # atno 17371 bound_to 10713
  141.2227  133.7076  156.8199 LP  0  0  0  0  0  0  0  0  0  0  0  0  # atno 17394 bound_to 11000
  140.2092  134.8840  157.3255 LP  0  0  0  0  0  0  0  0  0  0  0  0  # atno 17395 bound_to 11000

$$$$
