AV-unprocessed.smi:1417|AV-procd|sdf|5772|dock7
  -GOLD-   22720 5413D 1   1.00000     0.00000
 Structure written by MMmdl.
 39 40  0  0  0  0  0  0  0  0  3 V2000
  154.2801  137.5040  157.7376 C   0  0  0  0  0  0  0  0  0  0  0  0
  153.4040  137.7353  156.5546 C   0  0  0  0  0  0  0  0  0  0  0  0
  152.0641  137.5722  156.3435 C   0  0  0  0  0  0  0  0  0  0  0  0
  151.9020  137.9857  154.9892 C   0  0  0  0  0  0  0  0  0  0  0  0
  150.6868  138.0080  154.2572 N   0  0  0  0  0  0  0  0  0  0  0  0
  149.8783  139.0531  154.0143 C   0  0  0  0  0  0  0  0  0  0  0  0
  150.0725  140.2084  154.3916 O   0  0  0  0  0  0  0  0  0  0  0  0
  148.8105  138.6822  153.2923 N   0  0  0  0  0  0  0  0  0  0  0  0
  147.7429  139.5739  152.8396 C   0  0  2  0  0  0  0  0  0  0  0  0
  146.9317  140.1486  154.0182 C   0  0  0  0  0  0  0  0  0  0  0  0
  146.0598  139.0767  154.6947 C   0  0  0  0  0  0  0  0  0  0  0  0
  145.1600  138.4201  153.7093 N   0  3  2  0  0  0  0  0  0  0  0  0
  144.1939  137.4793  154.3317 C   0  0  0  0  0  0  0  0  0  0  0  0
  143.1151  137.0703  153.3232 C   0  0  0  0  0  0  0  0  0  0  0  0
  142.3937  138.1232  152.8881 N   0  5  0  0  0  0  0  0  0  0  0  0
  142.9934  135.8887  153.0091 O   0  0  0  0  0  0  0  0  0  0  0  0
  145.9228  137.7978  152.5979 C   0  0  0  0  0  0  0  0  0  0  0  0
  146.7999  138.8359  151.8734 C   0  0  0  0  0  0  0  0  0  0  0  0
  153.0393  138.3558  154.4304 N   0  0  0  0  0  0  0  0  0  0  0  0
  154.0079  138.2024  155.4290 O   0  0  0  0  0  0  0  0  0  0  0  0
  153.7116  137.0837  158.5675 H   0  0  0  0  0  0  0  0  0  0  0  0
  154.7288  138.4386  158.0744 H   0  0  0  0  0  0  0  0  0  0  0  0
  155.0847  136.8102  157.4935 H   0  0  0  0  0  0  0  0  0  0  0  0
  151.3346  137.2136  157.0539 H   0  0  0  0  0  0  0  0  0  0  0  0
  150.4071  137.1221  153.8628 H   0  0  0  0  0  0  0  0  0  0  0  0
  148.7382  137.7124  153.0215 H   0  0  0  0  0  0  0  0  0  0  0  0
  148.2057  140.3993  152.2955 H   0  0  0  0  0  0  0  0  0  0  0  0
  147.5908  140.6126  154.7525 H   0  0  0  0  0  0  0  0  0  0  0  0
  146.2863  140.9473  153.6499 H   0  0  0  0  0  0  0  0  0  0  0  0
  146.6882  138.3250  155.1750 H   0  0  0  0  0  0  0  0  0  0  0  0
  145.4738  139.5458  155.4854 H   0  0  0  0  0  0  0  0  0  0  0  0
  144.7035  136.5740  154.6667 H   0  0  0  0  0  0  0  0  0  0  0  0
  143.7424  137.9273  155.2183 H   0  0  0  0  0  0  0  0  0  0  0  0
  142.7644  139.0717  153.0206 H   0  0  0  0  0  0  0  0  0  0  0  0
  146.5360  136.9835  152.9868 H   0  0  0  0  0  0  0  0  0  0  0  0
  145.2299  137.3566  151.8805 H   0  0  0  0  0  0  0  0  0  0  0  0
  146.1524  139.5639  151.3823 H   0  0  0  0  0  0  0  0  0  0  0  0
  147.3713  138.3553  151.0782 H   0  0  0  0  0  0  0  0  0  0  0  0
  144.5948  139.1489  153.2956 H   0  0  0  0  0  0  0  0  0  0  0  0
  1  2  1  0  0  0  0
  1 21  1  0  0  0  0
  1 22  1  0  0  0  0
  1 23  1  0  0  0  0
  2 20  1  0  0  0  0
  2  3  2  0  0  0  0
  3  4  1  0  0  0  0
  3 24  1  0  0  0  0
  4  5  1  0  0  0  0
  4 19  2  0  0  0  0
  5  6  1  0  0  0  0
  5 25  1  0  0  0  0
  6  7  2  0  0  0  0
  6  8  1  0  0  0  0
  8  9  1  0  0  0  0
  8 26  1  0  0  0  0
  9 18  1  0  0  0  0
  9 10  1  0  0  0  0
  9 27  1  0  0  0  0
 10 11  1  0  0  0  0
 10 28  1  0  0  0  0
 10 29  1  0  0  0  0
 11 12  1  0  0  0  0
 11 30  1  0  0  0  0
 11 31  1  0  0  0  0
 12 13  1  0  0  0  0
 12 17  1  0  0  0  0
 12 39  1  0  0  0  0
 13 14  1  0  0  0  0
 13 32  1  0  0  0  0
 13 33  1  0  0  0  0
 14 15  1  0  0  0  0
 14 16  2  0  0  0  0
 15 34  1  0  0  0  0
 17 18  1  0  0  0  0
 17 35  1  0  0  0  0
 17 36  1  0  0  0  0
 18 37  1  0  0  0  0
 18 38  1  0  0  0  0
 19 20  1  0  0  0  0
M  CHG  1  12   1
M  CHG  1  15  -1
M  END
> <s_m_source_file>
AV-unprocessed.smi

> <i_m_source_file_index>
1417

> <i_lp_mmshare_version>
43012

> <i_f3d_flags>
0

> <s_epik_input>
W0NIM11jMVtjSF1jKG5vMSlbTkhdQyg9TylbTkhdW0NIXTJbQ0gyXVtDSDJdTihbQ0gyXVtDSDJdMilbQ0gyXUMoPU8pW05IMl0=

> <s_epik_cmdline>
J2VwaWtfcHl0aG9uJywgJy1waCcsICc3LjAnLCAnLXRuJywgJzgnLCAnLW1hJywgJzIwMCcsICctbWV0YWxfYmluZGluZycsICctaW1hZScsICc8aW5maWxlLm1hZT4nLCAnLW9tYWUnLCAnPG91dGZpbGUubWFlPic=

> <r_epik_Ionization_Penalty>
5.73218

> <r_epik_Ionization_Penalty_Charging>
5.73215

> <r_epik_Ionization_Penalty_Neutral>
3.37968e-05

> <r_epik_State_Penalty>
6.58009

> <r_epik_Charging_Adjusted_Penalty>
12.3122

> <i_epik_Tot_Q>
0

> <i_epik_Tot_abs_Q>
2

> <r_epik_Metal_State_Penalty>
2.55295

> <b_epik_Metal_Only>
1

> <s_lp_Force_Field>
OPLS_2005

> <r_lp_Energy>
7.04924

> <b_lp_Chiralities_Consistent>
1

> <s_lp_Variant>
AV-unprocessed.smi:1417-8

> <Gold.Version>
5.8.1

> <Gold.Id.Protein>
6NUR|6NUR_protein|mol2

> <Gold.PLP.Fitness>
42.3667

> <Gold.PLP.PLP>
-27.5433

> <Gold.PLP.part.hbond>
-6.8890

> <Gold.PLP.part.metal>
0.0000

> <Gold.PLP.part.buried>
-0.2686

> <Gold.PLP.part.nonpolar>
-20.2634

> <Gold.PLP.part.repulsive>
0.4580

> <Gold.PLP.ligand.clash>
0.0000

> <Gold.PLP.ligand.torsion>
0.8228

> <Gold.PLP.Chemscore.Hbond>
5.4811

> <Gold.PLP.Chemscore.CHOScore>
0.0000

> <Gold.PLP.Chemscore.Metal>
0.0000

> <Gold.Chemscore.Hbonds>
donor molecule, donor type, donor heavy atom, donor atom, acceptor molecule, acceptor atom, score
      L1  H     8    26       P1  7948  1.00
      L1  H    12    39       P1 10175  2.00
      L1  H    15    34       P1 10175  1.00
      P1  H  7989  7998       L1     7  0.99
      P1  H  7997  8009       L1    20  0.49

> <Gold.PLP.Chemscore.Internal.Correction>
0.0258

> <Gold.Rescore>
     Score         DG    S(hbond)    S(metal)    S(lipo)     H(rot)  DE(clash)    DE(int)     intcor
     16.16     -18.73       3.86        0.00      47.19       2.02       1.82       0.75       ----

> <Gold.Chemscore.Fitness>
16.1645

> <Gold.Chemscore.DG>
-18.7289

> <Gold.Chemscore.ZeroCoef>
-5.4800

> <Gold.Chemscore.Hbond>
3.8600

> <Gold.Chemscore.Metal>
0.0000

> <Gold.Chemscore.Lipo>
47.1939

> <Gold.Chemscore.Internal_Hbond>
0.0000

> <Gold.Chemscore.DEClash>
1.8176

> <Gold.Chemscore.DEInternal>
0.7468

> <Gold.Chemscore.Rot>
2.0176

> <Gold.Chemscore.Internal.Correction>
   9.000000E+99

> <Gold.Chemscore.Hbonds>
donor molecule, donor type, donor heavy atom, donor atom, acceptor molecule, acceptor atom, score
      L1  H     8    26       P1  7948  0.98
      L1  H    12    39       P1 10175  1.00
      L1  H    15    34       P1 10175  0.96
      P1  H  7989  7998       L1     7  0.62
      P1  H  7997  8009       L1    20  0.07

> <Gold.Chemscore.Hbond.Weighted>
-12.8923

> <Gold.Chemscore.Metal.Weighted>
-0.0000

> <Gold.Chemscore.Lipo.Weighted>
-5.5217

> <Gold.Chemscore.Internal_Hbond.Weighted>
0.0000

> <Gold.Chemscore.DEClash.Weighted>
1.8176

> <Gold.Chemscore.DEInternal.Weighted>
0.7468

> <Gold.Chemscore.Rot.Weighted>
5.1651

> <Gold.Chemscore.Internal.Correction.Weighted>
   9.000000E+99

> <Gold.Protein.RotatedTorsions>
[ 6907 6896 6895 6894 ] final   49.16 input  -60.11 | X-H torsion
[ 7974 7965 7964 7962 ] final  -46.60 input  175.53 | X-H torsion
[ 8008 7997 7996 7995 ] final -137.44 input   59.86 | X-H torsion
[ 10167 10162 10161 10158 ] final   92.12 input  -65.29 | X-H torsion
[ 10718 10713 10712 10709 ] final  -85.64 input   66.30 | X-H torsion
[ 10763 10752 10751 10750 ] final -138.32 input  -60.55 | X-H torsion
[ 11005 11000 10999 10996 ] final -179.08 input  -57.11 | X-H torsion

> <Gold.Protein.ActiveResidues>
 VAL166  LYS551  ARG553  GLY616  TRP617  ASP618  TYR619  PRO620  LYS621  CYS622 
 ASP623  PHE694  ASN695  SER759  ASP760  ASP761  ALA762  ILE779  LEU786  VAL792 
 PHE793  MET794  SER795  GLU796  ALA797  LYS798  CYS799  TRP800  GLU811  SER814 

> <Gold.Protein.RotatedAtoms>
  152.2877  134.7757  160.0383 H   0  0  0  0  0  0  0  0  0  0  0  0  # atno 6907 bound_to 6896
  151.8314  133.3404  159.3623 H   0  0  0  0  0  0  0  0  0  0  0  0  # atno 6908 bound_to 6896
  150.7216  134.5408  159.5790 H   0  0  0  0  0  0  0  0  0  0  0  0  # atno 6909 bound_to 6896
  145.9702  140.7390  142.9414 H   0  0  0  0  0  0  0  0  0  0  0  0  # atno 7974 bound_to 7965
  155.4119  140.0513  157.3031 H   0  0  0  0  0  0  0  0  0  0  0  0  # atno 8008 bound_to 7997
  154.4942  140.2132  155.9442 H   0  0  0  0  0  0  0  0  0  0  0  0  # atno 8009 bound_to 7997
  156.1383  140.3159  155.8461 H   0  0  0  0  0  0  0  0  0  0  0  0  # atno 8010 bound_to 7997
  139.8308  144.6688  150.9403 H   0  0  0  0  0  0  0  0  0  0  0  0  # atno 10167 bound_to 10162
  155.9995  130.4738  150.4592 H   0  0  0  0  0  0  0  0  0  0  0  0  # atno 10718 bound_to 10713
  154.8640  135.3616  154.5365 H   0  0  0  0  0  0  0  0  0  0  0  0  # atno 10763 bound_to 10752
  153.5989  135.7013  153.5397 H   0  0  0  0  0  0  0  0  0  0  0  0  # atno 10764 bound_to 10752
  153.3308  135.4125  155.1455 H   0  0  0  0  0  0  0  0  0  0  0  0  # atno 10765 bound_to 10752
  140.4226  134.6592  157.4672 H   0  0  0  0  0  0  0  0  0  0  0  0  # atno 11005 bound_to 11000
  144.6835  140.2736  143.7302 LP  0  0  0  0  0  0  0  0  0  0  0  0  # atno 17320 bound_to 7965
  145.7916  139.1929  143.2099 LP  0  0  0  0  0  0  0  0  0  0  0  0  # atno 17321 bound_to 7965
  140.7807  143.4003  151.1160 LP  0  0  0  0  0  0  0  0  0  0  0  0  # atno 17342 bound_to 10162
  139.7657  143.8569  152.3110 LP  0  0  0  0  0  0  0  0  0  0  0  0  # atno 17343 bound_to 10162
  157.2618  131.0568  151.2315 LP  0  0  0  0  0  0  0  0  0  0  0  0  # atno 17370 bound_to 10713
  157.3427  130.7041  149.6391 LP  0  0  0  0  0  0  0  0  0  0  0  0  # atno 17371 bound_to 10713
  140.0189  134.6576  155.9268 LP  0  0  0  0  0  0  0  0  0  0  0  0  # atno 17394 bound_to 11000
  141.1778  133.6542  156.4897 LP  0  0  0  0  0  0  0  0  0  0  0  0  # atno 17395 bound_to 11000

$$$$
