AV-unprocessed.smi:1192|AV-procd|sdf|4988|dock5
  -GOLD-   22720 3583D 1   1.00000     0.00000
 Structure written by MMmdl.
 39 40  0  0  0  0  0  0  0  0  1 V2000
  145.2179  143.3035  161.5248 C   0  0  0  0  0  0  0  0  0  0  0  0
  146.5744  143.4721  161.1550 O   0  0  0  0  0  0  0  0  0  0  0  0
  146.8453  144.7769  160.6702 C   0  0  0  0  0  0  0  0  0  0  0  0
  148.3609  144.9884  160.6332 C   0  0  0  0  0  0  0  0  0  0  0  0
  148.9240  144.0050  159.7732 O   0  0  0  0  0  0  0  0  0  0  0  0
  150.1536  144.2455  159.1957 C   0  0  0  0  0  0  0  0  0  0  0  0
  150.7592  145.4354  159.4382 N   0  0  0  0  0  0  0  0  0  0  0  0
  151.9659  145.6677  158.8813 C   0  0  0  0  0  0  0  0  0  0  0  0
  152.6292  144.7357  158.0615 C   0  0  0  0  0  0  0  0  0  0  0  0
  152.0016  143.5016  157.8104 C   0  0  0  0  0  0  0  0  0  0  0  0
  150.7375  143.2447  158.3823 C   0  0  0  0  0  0  0  0  0  0  0  0
  150.0441  141.9135  158.1324 C   0  0  0  0  0  0  0  0  0  0  0  0
  150.5239  141.2323  156.9322 N   0  0  0  0  0  0  0  0  0  0  0  0
  151.3600  140.1821  156.9061 C   0  0  0  0  0  0  0  0  0  0  0  0
  151.8150  139.6517  157.9200 O   0  0  0  0  0  0  0  0  0  0  0  0
  151.7093  139.6459  155.5118 C   0  0  0  0  0  0  0  0  0  0  0  0
  150.5755  138.9133  154.7670 C   0  0  0  0  0  0  0  0  0  0  0  0
  151.5921  137.8410  154.3661 C   0  0  0  0  0  0  0  0  0  0  0  0
  152.4688  138.3089  155.5310 C   0  0  0  0  0  0  0  0  0  0  0  0
  145.0586  142.2838  161.8743 H   0  0  0  0  0  0  0  0  0  0  0  0
  144.5527  143.4758  160.6778 H   0  0  0  0  0  0  0  0  0  0  0  0
  144.9432  143.9845  162.3317 H   0  0  0  0  0  0  0  0  0  0  0  0
  146.4390  144.8775  159.6626 H   0  0  0  0  0  0  0  0  0  0  0  0
  146.3685  145.5337  161.2951 H   0  0  0  0  0  0  0  0  0  0  0  0
  148.5883  145.9999  160.2926 H   0  0  0  0  0  0  0  0  0  0  0  0
  148.7720  144.8689  161.6368 H   0  0  0  0  0  0  0  0  0  0  0  0
  152.4167  146.6248  159.0972 H   0  0  0  0  0  0  0  0  0  0  0  0
  153.5961  144.9620  157.6368 H   0  0  0  0  0  0  0  0  0  0  0  0
  152.4865  142.7655  157.1862 H   0  0  0  0  0  0  0  0  0  0  0  0
  150.2087  141.2477  158.9800 H   0  0  0  0  0  0  0  0  0  0  0  0
  148.9685  142.0923  158.0938 H   0  0  0  0  0  0  0  0  0  0  0  0
  150.1938  141.5899  156.0475 H   0  0  0  0  0  0  0  0  0  0  0  0
  152.1969  140.3932  154.8828 H   0  0  0  0  0  0  0  0  0  0  0  0
  149.7890  138.5150  155.4104 H   0  0  0  0  0  0  0  0  0  0  0  0
  150.1582  139.4609  153.9226 H   0  0  0  0  0  0  0  0  0  0  0  0
  151.2313  136.8154  154.4507 H   0  0  0  0  0  0  0  0  0  0  0  0
  152.0458  138.0332  153.3926 H   0  0  0  0  0  0  0  0  0  0  0  0
  153.5285  138.3887  155.2863 H   0  0  0  0  0  0  0  0  0  0  0  0
  152.3112  137.7252  156.4402 H   0  0  0  0  0  0  0  0  0  0  0  0
  1  2  1  0  0  0  0
  1 20  1  0  0  0  0
  1 21  1  0  0  0  0
  1 22  1  0  0  0  0
  2  3  1  0  0  0  0
  3  4  1  0  0  0  0
  3 23  1  0  0  0  0
  3 24  1  0  0  0  0
  4  5  1  0  0  0  0
  4 25  1  0  0  0  0
  4 26  1  0  0  0  0
  5  6  1  0  0  0  0
  6 11  1  0  0  0  0
  6  7  2  0  0  0  0
  7  8  1  0  0  0  0
  8  9  2  0  0  0  0
  8 27  1  0  0  0  0
  9 10  1  0  0  0  0
  9 28  1  0  0  0  0
 10 11  2  0  0  0  0
 10 29  1  0  0  0  0
 11 12  1  0  0  0  0
 12 13  1  0  0  0  0
 12 30  1  0  0  0  0
 12 31  1  0  0  0  0
 13 14  1  0  0  0  0
 13 32  1  0  0  0  0
 14 15  2  0  0  0  0
 14 16  1  0  0  0  0
 16 19  1  0  0  0  0
 16 17  1  0  0  0  0
 16 33  1  0  0  0  0
 17 18  1  0  0  0  0
 17 34  1  0  0  0  0
 17 35  1  0  0  0  0
 18 19  1  0  0  0  0
 18 36  1  0  0  0  0
 18 37  1  0  0  0  0
 19 38  1  0  0  0  0
 19 39  1  0  0  0  0
M  END
> <s_m_source_file>
AV-unprocessed.smi

> <i_m_source_file_index>
1192

> <i_lp_mmshare_version>
43012

> <i_f3d_flags>
0

> <s_epik_input>
W0NIM11PW0NIMl1bQ0gyXU9jMW5bY0hdW2NIXVtjSF1jMVtDSDJdW05IXUMoPU8pW0NIXTJbQ0gyXVtDSDJdW0NIMl0y

> <s_epik_cmdline>
J2VwaWtfcHl0aG9uJywgJy1waCcsICc3LjAnLCAnLXRuJywgJzgnLCAnLW1hJywgJzIwMCcsICctbWV0YWxfYmluZGluZycsICctaW1hZScsICc8aW5maWxlLm1hZT4nLCAnLW9tYWUnLCAnPG91dGZpbGUubWFlPic=

> <r_lp_tautomer_probability>
1

> <r_epik_Ionization_Penalty>
6.50215e-05

> <r_epik_Ionization_Penalty_Charging>
0

> <r_epik_Ionization_Penalty_Neutral>
6.50215e-05

> <r_epik_State_Penalty>
-0

> <r_epik_Charging_Adjusted_Penalty>
0

> <i_epik_Tot_Q>
0

> <i_epik_Tot_abs_Q>
0

> <r_epik_Metal_State_Penalty>
-0

> <b_epik_Metal_Only>
0

> <s_lp_Force_Field>
OPLS_2005

> <r_lp_Energy>
11.4086

> <b_lp_Chiralities_Consistent>
1

> <s_lp_Variant>
AV-unprocessed.smi:1192-1

> <Gold.Version>
5.8.1

> <Gold.Id.Protein>
6NUR|6NUR_protein|mol2

> <Gold.PLP.Fitness>
46.8005

> <Gold.PLP.PLP>
-44.9057

> <Gold.PLP.part.hbond>
-2.0000

> <Gold.PLP.part.metal>
0.0000

> <Gold.PLP.part.buried>
-7.7635

> <Gold.PLP.part.nonpolar>
-34.3354

> <Gold.PLP.part.repulsive>
0.4259

> <Gold.PLP.ligand.clash>
0.0000

> <Gold.PLP.ligand.torsion>
0.7857

> <Gold.PLP.Chemscore.Hbond>
1.0000

> <Gold.PLP.Chemscore.CHOScore>
0.0000

> <Gold.PLP.Chemscore.Metal>
0.0000

> <Gold.Chemscore.Hbonds>
donor molecule, donor type, donor heavy atom, donor atom, acceptor molecule, acceptor atom, score
      P1  H  6933  6944       L1     2  0.49

> <Gold.PLP.Chemscore.Internal.Correction>
0.4661

> <Gold.Rescore>
     Score         DG    S(hbond)    S(metal)    S(lipo)     H(rot)  DE(clash)    DE(int)     intcor
     14.20     -15.29       0.96        0.00     102.79       2.12       0.27       0.81       ----

> <Gold.Chemscore.Fitness>
14.2010

> <Gold.Chemscore.DG>
-15.2877

> <Gold.Chemscore.ZeroCoef>
-5.4800

> <Gold.Chemscore.Hbond>
0.9621

> <Gold.Chemscore.Metal>
0.0000

> <Gold.Chemscore.Lipo>
102.7949

> <Gold.Chemscore.Internal_Hbond>
0.0000

> <Gold.Chemscore.DEClash>
0.2737

> <Gold.Chemscore.DEInternal>
0.8131

> <Gold.Chemscore.Rot>
2.1221

> <Gold.Chemscore.Internal.Correction>
   9.000000E+99

> <Gold.Chemscore.Hbonds>
donor molecule, donor type, donor heavy atom, donor atom, acceptor molecule, acceptor atom, score
      P1  H  6933  6944       L1     2  0.36

> <Gold.Chemscore.Hbond.Weighted>
-3.2133

> <Gold.Chemscore.Metal.Weighted>
-0.0000

> <Gold.Chemscore.Lipo.Weighted>
-12.0270

> <Gold.Chemscore.Internal_Hbond.Weighted>
0.0000

> <Gold.Chemscore.DEClash.Weighted>
0.2737

> <Gold.Chemscore.DEInternal.Weighted>
0.8131

> <Gold.Chemscore.Rot.Weighted>
5.4326

> <Gold.Chemscore.Internal.Correction.Weighted>
   9.000000E+99

> <Gold.Protein.RotatedTorsions>
[ 6907 6896 6895 6894 ] final  163.88 input  -60.11 | X-H torsion
[ 7974 7965 7964 7962 ] final  -33.70 input  175.53 | X-H torsion
[ 8008 7997 7996 7995 ] final -158.21 input   59.86 | X-H torsion
[ 10167 10162 10161 10158 ] final   55.24 input  -65.29 | X-H torsion
[ 10718 10713 10712 10709 ] final   33.32 input   66.30 | X-H torsion
[ 10763 10752 10751 10750 ] final  109.26 input  -60.55 | X-H torsion
[ 11005 11000 10999 10996 ] final -144.73 input  -57.11 | X-H torsion

> <Gold.Protein.ActiveResidues>
 VAL166  LYS551  ARG553  GLY616  TRP617  ASP618  TYR619  PRO620  LYS621  CYS622 
 ASP623  PHE694  ASN695  SER759  ASP760  ASP761  ALA762  ILE779  LEU786  VAL792 
 PHE793  MET794  SER795  GLU796  ALA797  LYS798  CYS799  TRP800  GLU811  SER814 

> <Gold.Protein.RotatedAtoms>
  151.9184  133.3579  159.3887 H   0  0  0  0  0  0  0  0  0  0  0  0  # atno 6907 bound_to 6896
  150.7042  134.4660  159.5412 H   0  0  0  0  0  0  0  0  0  0  0  0  # atno 6908 bound_to 6896
  152.2279  134.8350  160.0528 H   0  0  0  0  0  0  0  0  0  0  0  0  # atno 6909 bound_to 6896
  146.0890  140.5948  142.8873 H   0  0  0  0  0  0  0  0  0  0  0  0  # atno 7974 bound_to 7965
  155.7441  140.0818  157.2232 H   0  0  0  0  0  0  0  0  0  0  0  0  # atno 8008 bound_to 7997
  154.4019  140.1572  156.2705 H   0  0  0  0  0  0  0  0  0  0  0  0  # atno 8009 bound_to 7997
  155.8992  140.3411  155.6017 H   0  0  0  0  0  0  0  0  0  0  0  0  # atno 8010 bound_to 7997
  140.2216  144.3783  150.6448 H   0  0  0  0  0  0  0  0  0  0  0  0  # atno 10167 bound_to 10162
  157.2963  130.7328  149.6640 H   0  0  0  0  0  0  0  0  0  0  0  0  # atno 10718 bound_to 10713
  153.4322  135.3786  155.2177 H   0  0  0  0  0  0  0  0  0  0  0  0  # atno 10763 bound_to 10752
  154.8750  135.3843  154.4254 H   0  0  0  0  0  0  0  0  0  0  0  0  # atno 10764 bound_to 10752
  153.4788  135.7088  153.6013 H   0  0  0  0  0  0  0  0  0  0  0  0  # atno 10765 bound_to 10752
  140.7995  134.2874  157.4984 H   0  0  0  0  0  0  0  0  0  0  0  0  # atno 11005 bound_to 11000
  144.7346  140.4771  143.6913 LP  0  0  0  0  0  0  0  0  0  0  0  0  # atno 17320 bound_to 7965
  145.6076  139.1510  143.3094 LP  0  0  0  0  0  0  0  0  0  0  0  0  # atno 17321 bound_to 7965
  140.6251  143.2180  151.6613 LP  0  0  0  0  0  0  0  0  0  0  0  0  # atno 17342 bound_to 10162
  139.5142  144.3418  152.0733 LP  0  0  0  0  0  0  0  0  0  0  0  0  # atno 17343 bound_to 10162
  155.9669  130.4293  150.4828 LP  0  0  0  0  0  0  0  0  0  0  0  0  # atno 17370 bound_to 10713
  157.2800  131.0605  151.2204 LP  0  0  0  0  0  0  0  0  0  0  0  0  # atno 17371 bound_to 10713
  139.8723  134.9421  156.3816 LP  0  0  0  0  0  0  0  0  0  0  0  0  # atno 17394 bound_to 11000
  140.9309  133.7580  156.0023 LP  0  0  0  0  0  0  0  0  0  0  0  0  # atno 17395 bound_to 11000

$$$$
