AV-unprocessed.smi:3329|AV-procd|sdf|12800|dock2
  -GOLD-   2272019163D 1   1.00000     0.00000
 Structure written by MMmdl.
 41 42  0  0  0  0  0  0  0  0  3 V2000
  145.0932  132.5411  150.0143 C   0  0  0  0  0  0  0  0  0  0  0  0
  144.9069  133.6944  150.9574 C   0  0  0  0  0  0  0  0  0  0  0  0
  143.6829  134.2225  151.4576 C   0  0  0  0  0  0  0  0  0  0  0  0
  143.8606  135.2477  152.2750 N   0  0  0  0  0  0  0  0  0  0  0  0
  145.1994  135.4092  152.3271 N   0  0  0  0  0  0  0  0  0  0  0  0
  145.7670  136.4567  153.1574 C   0  0  0  0  0  0  0  0  0  0  0  0
  146.6880  135.8914  154.2509 C   0  0  0  0  0  0  0  0  0  0  0  0
  147.9040  136.7137  154.3938 N   0  3  0  0  0  0  0  0  0  0  0  0
  148.9532  136.1280  155.2507 C   0  0  0  0  0  0  0  0  0  0  0  0
  150.1600  137.0676  155.2739 C   0  0  0  0  0  0  0  0  0  0  0  0
  151.2215  136.6975  154.7756 O   0  0  0  0  0  0  0  0  0  0  0  0
  149.8672  138.2414  155.8894 N   0  5  0  0  0  0  0  0  0  0  0  0
  150.3604  139.5389  155.4279 C   0  0  2  0  0  0  0  0  0  0  0  0
  149.5366  140.0122  154.2142 C   0  0  0  0  0  0  0  0  0  0  0  0
  151.7942  139.4640  155.0700 C   0  0  0  0  0  0  0  0  0  0  0  0
  152.9164  139.4057  154.7904 N   0  0  0  0  0  0  0  0  0  0  0  0
  150.1611  140.5176  156.5841 C   0  0  0  0  0  0  0  0  0  0  0  0
  150.8536  141.8621  156.6309 C   0  0  0  0  0  0  0  0  0  0  0  0
  151.2296  140.7843  157.6219 C   0  0  0  0  0  0  0  0  0  0  0  0
  145.8556  134.4865  151.5394 C   0  0  0  0  0  0  0  0  0  0  0  0
  144.8035  132.8039  148.9970 H   0  0  0  0  0  0  0  0  0  0  0  0
  144.4917  131.6807  150.3080 H   0  0  0  0  0  0  0  0  0  0  0  0
  146.1310  132.2091  149.9778 H   0  0  0  0  0  0  0  0  0  0  0  0
  142.6754  133.8917  151.2520 H   0  0  0  0  0  0  0  0  0  0  0  0
  146.3142  137.1528  152.5199 H   0  0  0  0  0  0  0  0  0  0  0  0
  144.9496  137.0206  153.6087 H   0  0  0  0  0  0  0  0  0  0  0  0
  146.1629  135.8652  155.2062 H   0  0  0  0  0  0  0  0  0  0  0  0
  146.9669  134.8644  154.0106 H   0  0  0  0  0  0  0  0  0  0  0  0
  148.3135  136.8381  153.4781 H   0  0  0  0  0  0  0  0  0  0  0  0
  148.5661  135.9806  156.2598 H   0  0  0  0  0  0  0  0  0  0  0  0
  149.2574  135.1526  154.8672 H   0  0  0  0  0  0  0  0  0  0  0  0
  149.8409  141.0130  153.9058 H   0  0  0  0  0  0  0  0  0  0  0  0
  148.4709  140.0505  154.4432 H   0  0  0  0  0  0  0  0  0  0  0  0
  149.6676  139.3579  153.3520 H   0  0  0  0  0  0  0  0  0  0  0  0
  149.1408  140.5191  156.9656 H   0  0  0  0  0  0  0  0  0  0  0  0
  151.5729  142.0996  155.8498 H   0  0  0  0  0  0  0  0  0  0  0  0
  150.2792  142.7076  157.0037 H   0  0  0  0  0  0  0  0  0  0  0  0
  150.9012  140.9129  158.6507 H   0  0  0  0  0  0  0  0  0  0  0  0
  152.1966  140.3005  157.5023 H   0  0  0  0  0  0  0  0  0  0  0  0
  146.9327  134.4659  151.4619 H   0  0  0  0  0  0  0  0  0  0  0  0
  147.6579  137.6223  154.7586 H   0  0  0  0  0  0  0  0  0  0  0  0
  1  2  1  0  0  0  0
  1 21  1  0  0  0  0
  1 22  1  0  0  0  0
  1 23  1  0  0  0  0
  2 20  2  0  0  0  0
  2  3  1  0  0  0  0
  3  4  2  0  0  0  0
  3 24  1  0  0  0  0
  4  5  1  0  0  0  0
  5  6  1  0  0  0  0
  5 20  1  0  0  0  0
  6  7  1  0  0  0  0
  6 25  1  0  0  0  0
  6 26  1  0  0  0  0
  7  8  1  0  0  0  0
  7 27  1  0  0  0  0
  7 28  1  0  0  0  0
  8  9  1  0  0  0  0
  8 29  1  0  0  0  0
  8 41  1  0  0  0  0
  9 10  1  0  0  0  0
  9 30  1  0  0  0  0
  9 31  1  0  0  0  0
 10 11  2  0  0  0  0
 10 12  1  0  0  0  0
 12 13  1  0  0  0  0
 13 14  1  0  0  0  0
 13 15  1  0  0  0  0
 13 17  1  0  0  0  0
 14 32  1  0  0  0  0
 14 33  1  0  0  0  0
 14 34  1  0  0  0  0
 15 16  3  0  0  0  0
 17 19  1  0  0  0  0
 17 18  1  0  0  0  0
 17 35  1  0  0  0  0
 18 19  1  0  0  0  0
 18 36  1  0  0  0  0
 18 37  1  0  0  0  0
 19 38  1  0  0  0  0
 19 39  1  0  0  0  0
 20 40  1  0  0  0  0
M  CHG  1   8   1
M  CHG  1  12  -1
M  END
> <s_m_source_file>
AV-unprocessed.smi

> <i_m_source_file_index>
3329

> <i_lp_mmshare_version>
43012

> <i_f3d_flags>
0

> <s_epik_input>
W0NIM11jMVtjSF1ubihbY0hdMSlbQ0gyXVtDSDJdW05IXVtDSDJdQyg9TylbTkhdW0NAQF0oW0NIM10pKEMjTilbQ0hdMltDSDJdW0NIMl0y

> <s_epik_cmdline>
J2VwaWtfcHl0aG9uJywgJy1waCcsICc3LjAnLCAnLXRuJywgJzgnLCAnLW1hJywgJzIwMCcsICctbWV0YWxfYmluZGluZycsICctaW1hZScsICc8aW5maWxlLm1hZT4nLCAnLW9tYWUnLCAnPG91dGZpbGUubWFlPic=

> <r_lp_tautomer_probability>
1

> <r_epik_Ionization_Penalty>
5.61187

> <r_epik_Ionization_Penalty_Charging>
5.61186

> <r_epik_Ionization_Penalty_Neutral>
4.91277e-06

> <r_epik_State_Penalty>
5.94522

> <r_epik_Charging_Adjusted_Penalty>
11.5571

> <i_epik_Tot_Q>
0

> <i_epik_Tot_abs_Q>
2

> <r_epik_Metal_State_Penalty>
1.9215

> <b_epik_Metal_Only>
1

> <s_lp_Force_Field>
OPLS_2005

> <r_lp_Energy>
5.18635

> <b_lp_Chiralities_Consistent>
1

> <s_lp_Variant>
AV-unprocessed.smi:3329-6

> <Gold.Version>
5.8.1

> <Gold.Id.Protein>
6NUR|6NUR_protein|mol2

> <Gold.PLP.Fitness>
46.8946

> <Gold.PLP.PLP>
-30.7299

> <Gold.PLP.part.hbond>
-3.6493

> <Gold.PLP.part.metal>
0.0000

> <Gold.PLP.part.buried>
-3.3605

> <Gold.PLP.part.nonpolar>
-23.6789

> <Gold.PLP.part.repulsive>
0.2914

> <Gold.PLP.ligand.clash>
0.0000

> <Gold.PLP.ligand.torsion>
1.7733

> <Gold.PLP.Chemscore.Hbond>
4.0000

> <Gold.PLP.Chemscore.CHOScore>
2.0000

> <Gold.PLP.Chemscore.Metal>
0.0000

> <Gold.Chemscore.Hbonds>
donor molecule, donor type, donor heavy atom, donor atom, acceptor molecule, acceptor atom, score
      L1  H     8    29       P1  7948  2.00
      P1  H  7997  8008       L1    16  0.75
      P1  H 10752 10765       L1    11  0.99
      L1  C     3    24       P1 10186  1.00
      L1  C    20    40       P1  7948  0.68

> <Gold.PLP.Chemscore.Internal.Correction>
1.7113

> <Gold.Rescore>
     Score         DG    S(hbond)    S(metal)    S(lipo)     H(rot)  DE(clash)    DE(int)     intcor
     14.04     -16.81       2.96        0.00      63.09       2.31       0.04       2.74       ----

> <Gold.Chemscore.Fitness>
14.0421

> <Gold.Chemscore.DG>
-16.8149

> <Gold.Chemscore.ZeroCoef>
-5.4800

> <Gold.Chemscore.Hbond>
2.9571

> <Gold.Chemscore.Metal>
0.0000

> <Gold.Chemscore.Lipo>
63.0930

> <Gold.Chemscore.Internal_Hbond>
0.0000

> <Gold.Chemscore.DEClash>
0.0367

> <Gold.Chemscore.DEInternal>
2.7361

> <Gold.Chemscore.Rot>
2.3140

> <Gold.Chemscore.Internal.Correction>
   9.000000E+99

> <Gold.Chemscore.Hbonds>
donor molecule, donor type, donor heavy atom, donor atom, acceptor molecule, acceptor atom, score
      L1  H     8    29       P1  7948  0.98
      P1  H  7997  8008       L1    16  0.69
      P1  H 10752 10765       L1    11  0.92

> <Gold.Chemscore.Hbond.Weighted>
-9.8768

> <Gold.Chemscore.Metal.Weighted>
-0.0000

> <Gold.Chemscore.Lipo.Weighted>
-7.3819

> <Gold.Chemscore.Internal_Hbond.Weighted>
0.0000

> <Gold.Chemscore.DEClash.Weighted>
0.0367

> <Gold.Chemscore.DEInternal.Weighted>
2.7361

> <Gold.Chemscore.Rot.Weighted>
5.9238

> <Gold.Chemscore.Internal.Correction.Weighted>
   9.000000E+99

> <Gold.Protein.RotatedTorsions>
[ 6907 6896 6895 6894 ] final   53.66 input  -60.11 | X-H torsion
[ 7974 7965 7964 7962 ] final  164.13 input  175.53 | X-H torsion
[ 8008 7997 7996 7995 ] final  -35.18 input   59.86 | X-H torsion
[ 10167 10162 10161 10158 ] final   68.82 input  -65.29 | X-H torsion
[ 10718 10713 10712 10709 ] final  -51.08 input   66.30 | X-H torsion
[ 10763 10752 10751 10750 ] final  173.62 input  -60.55 | X-H torsion
[ 11005 11000 10999 10996 ] final  172.69 input  -57.11 | X-H torsion

> <Gold.Protein.ActiveResidues>
 VAL166  LYS551  ARG553  GLY616  TRP617  ASP618  TYR619  PRO620  LYS621  CYS622 
 ASP623  PHE694  ASN695  SER759  ASP760  ASP761  ALA762  ILE779  LEU786  VAL792 
 PHE793  MET794  SER795  GLU796  ALA797  LYS798  CYS799  TRP800  GLU811  SER814 

> <Gold.Protein.RotatedAtoms>
  152.3359  134.7198  160.0276 H   0  0  0  0  0  0  0  0  0  0  0  0  # atno 6907 bound_to 6896
  151.7599  133.3327  159.3423 H   0  0  0  0  0  0  0  0  0  0  0  0  # atno 6908 bound_to 6896
  150.7450  134.6047  159.6099 H   0  0  0  0  0  0  0  0  0  0  0  0  # atno 6909 bound_to 6896
  144.7559  139.8281  143.6350 H   0  0  0  0  0  0  0  0  0  0  0  0  # atno 7974 bound_to 7965
  154.4102  140.1664  156.2169 H   0  0  0  0  0  0  0  0  0  0  0  0  # atno 8008 bound_to 7997
  155.9397  140.3409  155.6293 H   0  0  0  0  0  0  0  0  0  0  0  0  # atno 8009 bound_to 7997
  155.7005  140.0744  157.2403 H   0  0  0  0  0  0  0  0  0  0  0  0  # atno 8010 bound_to 7997
  140.0745  144.5124  150.7204 H   0  0  0  0  0  0  0  0  0  0  0  0  # atno 10167 bound_to 10162
  156.1742  130.4149  149.9601 H   0  0  0  0  0  0  0  0  0  0  0  0  # atno 10718 bound_to 10713
  154.4425  135.2762  155.1837 H   0  0  0  0  0  0  0  0  0  0  0  0  # atno 10763 bound_to 10752
  154.3698  135.6111  153.5737 H   0  0  0  0  0  0  0  0  0  0  0  0  # atno 10764 bound_to 10752
  152.9842  135.5854  154.4756 H   0  0  0  0  0  0  0  0  0  0  0  0  # atno 10765 bound_to 10752
  140.3324  134.7346  157.4144 H   0  0  0  0  0  0  0  0  0  0  0  0  # atno 11005 bound_to 11000
  146.1567  139.4668  143.0014 LP  0  0  0  0  0  0  0  0  0  0  0  0  # atno 17320 bound_to 7965
  145.6782  141.0198  143.1620 LP  0  0  0  0  0  0  0  0  0  0  0  0  # atno 17321 bound_to 7965
  140.7109  143.2504  151.4584 LP  0  0  0  0  0  0  0  0  0  0  0  0  # atno 17342 bound_to 10162
  139.5816  144.1696  152.1976 LP  0  0  0  0  0  0  0  0  0  0  0  0  # atno 17343 bound_to 10162
  156.7392  130.9073  151.3631 LP  0  0  0  0  0  0  0  0  0  0  0  0  # atno 17370 bound_to 10713
  157.6824  130.9153  150.0301 LP  0  0  0  0  0  0  0  0  0  0  0  0  # atno 17371 bound_to 10713
  140.0849  134.5680  155.8502 LP  0  0  0  0  0  0  0  0  0  0  0  0  # atno 17394 bound_to 11000
  141.2060  133.6651  156.6214 LP  0  0  0  0  0  0  0  0  0  0  0  0  # atno 17395 bound_to 11000

$$$$
