AV-unprocessed.smi:3241|AV-procd|sdf|12388|dock10
  -GOLD-   2272018253D 1   1.00000     0.00000
 Structure written by MMmdl.
 44 45  0  0  0  0  0  0  0  0  2 V2000
  150.9082  137.5327  154.4337 C   0  0  0  0  0  0  0  0  0  0  0  0
  150.2853  138.7770  155.0882 C   0  0  1  0  0  0  0  0  0  0  0  0
  151.3834  139.7622  155.5372 C   0  0  0  0  0  0  0  0  0  0  0  0
  150.7896  141.0210  156.1873 C   0  0  0  0  0  0  0  0  0  0  0  0
  149.7986  141.7141  155.2421 C   0  0  0  0  0  0  0  0  0  0  0  0
  148.6931  140.7450  154.7980 C   0  0  0  0  0  0  0  0  0  0  0  0
  149.2791  139.4753  154.1455 C   0  0  2  0  0  0  0  0  0  0  0  0
  148.2278  138.5575  153.8711 O   0  0  0  0  0  0  0  0  0  0  0  0
  147.2380  139.0479  152.9792 C   0  0  0  0  0  0  0  0  0  0  0  0
  146.0432  138.0895  153.0035 C   0  0  0  0  0  0  0  0  0  0  0  0
  146.0982  137.1517  151.8656 N   0  3  0  0  0  0  0  0  0  0  0  0
  145.2103  135.9798  152.0022 C   0  0  0  0  0  0  0  0  0  0  0  0
  144.8244  135.3993  150.6323 C   0  0  0  0  0  0  0  0  0  0  0  0
  144.8966  133.9495  150.6092 N   0  0  0  0  0  0  0  0  0  0  0  0
  143.8657  133.0418  150.4871 C   0  0  0  0  0  0  0  0  0  0  0  0
  144.4194  131.7937  150.5085 C   0  0  0  0  0  0  0  0  0  0  0  0
  145.8128  132.0436  150.6503 C   0  0  0  0  0  0  0  0  0  0  0  0
  146.0957  133.3354  150.7069 N   0  0  0  0  0  0  0  0  0  0  0  0
  151.4433  137.7917  153.5197 H   0  0  0  0  0  0  0  0  0  0  0  0
  150.1477  136.7952  154.1761 H   0  0  0  0  0  0  0  0  0  0  0  0
  151.6161  137.0482  155.1069 H   0  0  0  0  0  0  0  0  0  0  0  0
  149.7469  138.4490  155.9787 H   0  0  0  0  0  0  0  0  0  0  0  0
  152.0573  139.2734  156.2417 H   0  0  0  0  0  0  0  0  0  0  0  0
  151.9921  140.0518  154.6794 H   0  0  0  0  0  0  0  0  0  0  0  0
  150.2838  140.7505  157.1150 H   0  0  0  0  0  0  0  0  0  0  0  0
  151.5883  141.7115  156.4599 H   0  0  0  0  0  0  0  0  0  0  0  0
  149.3578  142.5802  155.7362 H   0  0  0  0  0  0  0  0  0  0  0  0
  150.3286  142.0927  154.3670 H   0  0  0  0  0  0  0  0  0  0  0  0
  148.0893  140.4663  155.6625 H   0  0  0  0  0  0  0  0  0  0  0  0
  148.0237  141.2576  154.1076 H   0  0  0  0  0  0  0  0  0  0  0  0
  149.8007  139.7431  153.2242 H   0  0  0  0  0  0  0  0  0  0  0  0
  146.9135  140.0431  153.2836 H   0  0  0  0  0  0  0  0  0  0  0  0
  147.6375  139.1283  151.9670 H   0  0  0  0  0  0  0  0  0  0  0  0
  146.0232  137.5338  153.9418 H   0  0  0  0  0  0  0  0  0  0  0  0
  145.1160  138.6611  152.9462 H   0  0  0  0  0  0  0  0  0  0  0  0
  145.8418  137.6482  151.0236 H   0  0  0  0  0  0  0  0  0  0  0  0
  145.7230  135.2167  152.5891 H   0  0  0  0  0  0  0  0  0  0  0  0
  144.3140  136.2616  152.5569 H   0  0  0  0  0  0  0  0  0  0  0  0
  143.8181  135.7124  150.3494 H   0  0  0  0  0  0  0  0  0  0  0  0
  145.4971  135.7843  149.8652 H   0  0  0  0  0  0  0  0  0  0  0  0
  142.8361  133.3555  150.3956 H   0  0  0  0  0  0  0  0  0  0  0  0
  143.9071  130.8458  150.4358 H   0  0  0  0  0  0  0  0  0  0  0  0
  146.6214  131.3304  150.7117 H   0  0  0  0  0  0  0  0  0  0  0  0
  147.0490  136.8253  151.7664 H   0  0  0  0  0  0  0  0  0  0  0  0
  1  2  1  0  0  0  0
  1 19  1  0  0  0  0
  1 20  1  0  0  0  0
  1 21  1  0  0  0  0
  2  7  1  0  0  0  0
  2  3  1  0  0  0  0
  2 22  1  0  0  0  0
  3  4  1  0  0  0  0
  3 23  1  0  0  0  0
  3 24  1  0  0  0  0
  4  5  1  0  0  0  0
  4 25  1  0  0  0  0
  4 26  1  0  0  0  0
  5  6  1  0  0  0  0
  5 27  1  0  0  0  0
  5 28  1  0  0  0  0
  6  7  1  0  0  0  0
  6 29  1  0  0  0  0
  6 30  1  0  0  0  0
  7  8  1  0  0  0  0
  7 31  1  0  0  0  0
  8  9  1  0  0  0  0
  9 10  1  0  0  0  0
  9 32  1  0  0  0  0
  9 33  1  0  0  0  0
 10 11  1  0  0  0  0
 10 34  1  0  0  0  0
 10 35  1  0  0  0  0
 11 12  1  0  0  0  0
 11 36  1  0  0  0  0
 11 44  1  0  0  0  0
 12 13  1  0  0  0  0
 12 37  1  0  0  0  0
 12 38  1  0  0  0  0
 13 14  1  0  0  0  0
 13 39  1  0  0  0  0
 13 40  1  0  0  0  0
 14 18  1  0  0  0  0
 14 15  1  0  0  0  0
 15 16  2  0  0  0  0
 15 41  1  0  0  0  0
 16 17  1  0  0  0  0
 16 42  1  0  0  0  0
 17 18  2  0  0  0  0
 17 43  1  0  0  0  0
M  CHG  1  11   1
M  END
> <s_m_source_file>
AV-unprocessed.smi

> <i_m_source_file_index>
3241

> <i_lp_mmshare_version>
43012

> <i_f3d_flags>
0

> <s_epik_input>
W0NIM11bQ0BASF0xW0NIMl1bQ0gyXVtDSDJdW0NIMl1bQ0BIXTFPW0NIMl1bQ0gyXVtOSF1bQ0gyXVtDSDJdbjJbY0hdW2NIXVtjSF1uMg==

> <s_epik_cmdline>
J2VwaWtfcHl0aG9uJywgJy1waCcsICc3LjAnLCAnLXRuJywgJzgnLCAnLW1hJywgJzIwMCcsICctbWV0YWxfYmluZGluZycsICctaW1hZScsICc8aW5maWxlLm1hZT4nLCAnLW9tYWUnLCAnPG91dGZpbGUubWFlPic=

> <r_lp_tautomer_probability>
1

> <r_epik_Ionization_Penalty>
0.00924946

> <r_epik_Ionization_Penalty_Charging>
0.00924645

> <r_epik_Ionization_Penalty_Neutral>
3.00629e-06

> <r_epik_State_Penalty>
0.0070118

> <r_epik_Charging_Adjusted_Penalty>
0.0162583

> <i_epik_Tot_Q>
1

> <i_epik_Tot_abs_Q>
1

> <r_epik_Metal_State_Penalty>
0.00702523

> <b_epik_Metal_Only>
0

> <s_lp_Force_Field>
OPLS_2005

> <r_lp_Energy>
14.0519

> <b_lp_Chiralities_Consistent>
1

> <s_lp_Variant>
AV-unprocessed.smi:3241-4

> <Gold.Version>
5.8.1

> <Gold.Id.Protein>
6NUR|6NUR_protein|mol2

> <Gold.PLP.Fitness>
47.9530

> <Gold.PLP.PLP>
-37.5631

> <Gold.PLP.part.hbond>
-1.0000

> <Gold.PLP.part.metal>
0.0000

> <Gold.PLP.part.buried>
-3.0723

> <Gold.PLP.part.nonpolar>
-35.1025

> <Gold.PLP.part.repulsive>
0.4549

> <Gold.PLP.ligand.clash>
0.0000

> <Gold.PLP.ligand.torsion>
0.8692

> <Gold.PLP.Chemscore.Hbond>
2.0000

> <Gold.PLP.Chemscore.CHOScore>
2.0000

> <Gold.PLP.Chemscore.Metal>
0.0000

> <Gold.Chemscore.Hbonds>
donor molecule, donor type, donor heavy atom, donor atom, acceptor molecule, acceptor atom, score
      L1  H    11    44       P1  7948  2.00
      L1  C    15    41       P1 10186  1.00
      L1  C    17    43       P1 10747  1.00

> <Gold.PLP.Chemscore.Internal.Correction>
0.1282

> <Gold.Rescore>
     Score         DG    S(hbond)    S(metal)    S(lipo)     H(rot)  DE(clash)    DE(int)     intcor
     15.19     -16.14       1.05        0.00     102.49       1.89       0.15       0.80       ----

> <Gold.Chemscore.Fitness>
15.1885

> <Gold.Chemscore.DG>
-16.1353

> <Gold.Chemscore.ZeroCoef>
-5.4800

> <Gold.Chemscore.Hbond>
1.0491

> <Gold.Chemscore.Metal>
0.0000

> <Gold.Chemscore.Lipo>
102.4913

> <Gold.Chemscore.Internal_Hbond>
0.0000

> <Gold.Chemscore.DEClash>
0.1473

> <Gold.Chemscore.DEInternal>
0.7995

> <Gold.Chemscore.Rot>
1.8906

> <Gold.Chemscore.Internal.Correction>
   9.000000E+99

> <Gold.Chemscore.Hbonds>
donor molecule, donor type, donor heavy atom, donor atom, acceptor molecule, acceptor atom, score
      L1  H    11    36       P1 10171  0.01
      L1  H    11    44       P1  7948  0.98

> <Gold.Chemscore.Hbond.Weighted>
-3.5039

> <Gold.Chemscore.Metal.Weighted>
-0.0000

> <Gold.Chemscore.Lipo.Weighted>
-11.9915

> <Gold.Chemscore.Internal_Hbond.Weighted>
0.0000

> <Gold.Chemscore.DEClash.Weighted>
0.1473

> <Gold.Chemscore.DEInternal.Weighted>
0.7995

> <Gold.Chemscore.Rot.Weighted>
4.8400

> <Gold.Chemscore.Internal.Correction.Weighted>
   9.000000E+99

> <Gold.Protein.RotatedTorsions>
[ 6907 6896 6895 6894 ] final   37.71 input  -60.11 | X-H torsion
[ 7974 7965 7964 7962 ] final   71.58 input  175.53 | X-H torsion
[ 8008 7997 7996 7995 ] final -124.72 input   59.86 | X-H torsion
[ 10167 10162 10161 10158 ] final  168.96 input  -65.29 | X-H torsion
[ 10718 10713 10712 10709 ] final  -85.02 input   66.30 | X-H torsion
[ 10763 10752 10751 10750 ] final -146.67 input  -60.55 | X-H torsion
[ 11005 11000 10999 10996 ] final  -44.87 input  -57.11 | X-H torsion

> <Gold.Protein.ActiveResidues>
 VAL166  LYS551  ARG553  GLY616  TRP617  ASP618  TYR619  PRO620  LYS621  CYS622 
 ASP623  PHE694  ASN695  SER759  ASP760  ASP761  ALA762  ILE779  LEU786  VAL792 
 PHE793  MET794  SER795  GLU796  ALA797  LYS798  CYS799  TRP800  GLU811  SER814 

> <Gold.Protein.RotatedAtoms>
  152.1467  134.9020  160.0550 H   0  0  0  0  0  0  0  0  0  0  0  0  # atno 6907 bound_to 6896
  152.0067  133.3841  159.4211 H   0  0  0  0  0  0  0  0  0  0  0  0  # atno 6908 bound_to 6896
  150.6871  134.3697  159.5030 H   0  0  0  0  0  0  0  0  0  0  0  0  # atno 6909 bound_to 6896
  145.7640  139.2813  143.1359 H   0  0  0  0  0  0  0  0  0  0  0  0  # atno 7974 bound_to 7965
  155.2015  140.0416  157.2918 H   0  0  0  0  0  0  0  0  0  0  0  0  # atno 8008 bound_to 7997
  154.6071  140.2467  155.7688 H   0  0  0  0  0  0  0  0  0  0  0  0  # atno 8009 bound_to 7997
  156.2357  140.2922  156.0315 H   0  0  0  0  0  0  0  0  0  0  0  0  # atno 8010 bound_to 7997
  139.4980  144.3758  151.9676 H   0  0  0  0  0  0  0  0  0  0  0  0  # atno 10167 bound_to 10162
  156.0000  130.4717  150.4499 H   0  0  0  0  0  0  0  0  0  0  0  0  # atno 10718 bound_to 10713
  154.8325  135.3380  154.6697 H   0  0  0  0  0  0  0  0  0  0  0  0  # atno 10763 bound_to 10752
  153.7316  135.6951  153.4992 H   0  0  0  0  0  0  0  0  0  0  0  0  # atno 10764 bound_to 10752
  153.2308  135.4417  155.0545 H   0  0  0  0  0  0  0  0  0  0  0  0  # atno 10765 bound_to 10752
  141.0479  133.6754  156.2933 H   0  0  0  0  0  0  0  0  0  0  0  0  # atno 11005 bound_to 11000
  146.0236  140.8325  142.9911 LP  0  0  0  0  0  0  0  0  0  0  0  0  # atno 17320 bound_to 7965
  144.6825  140.2664  143.7312 LP  0  0  0  0  0  0  0  0  0  0  0  0  # atno 17321 bound_to 7965
  140.3194  144.3445  150.6013 LP  0  0  0  0  0  0  0  0  0  0  0  0  # atno 17342 bound_to 10162
  140.5735  143.2178  151.7557 LP  0  0  0  0  0  0  0  0  0  0  0  0  # atno 17343 bound_to 10162
  157.2533  131.0551  151.2366 LP  0  0  0  0  0  0  0  0  0  0  0  0  # atno 17370 bound_to 10713
  157.3507  130.7080  149.6439 LP  0  0  0  0  0  0  0  0  0  0  0  0  # atno 17371 bound_to 10713
  140.6112  134.5456  157.5534 LP  0  0  0  0  0  0  0  0  0  0  0  0  # atno 17394 bound_to 11000
  139.9326  134.7935  156.0889 LP  0  0  0  0  0  0  0  0  0  0  0  0  # atno 17395 bound_to 11000

$$$$
