AV-unprocessed.smi:1998|AV-procd|sdf|8090|dock7
  -GOLD-   2272010303D 1   1.00000     0.00000
 Structure written by MMmdl.
 47 48  0  0  0  0  0  0  0  0  1 V2000
  153.7992  142.0492  162.2799 C   0  0  0  0  0  0  0  0  0  0  0  0
  153.0412  142.8923  161.2973 C   0  0  0  0  0  0  0  0  0  0  0  0
  152.3541  144.1153  161.5349 C   0  0  0  0  0  0  0  0  0  0  0  0
  151.8293  144.4501  160.3189 C   0  0  0  0  0  0  0  0  0  0  0  0
  151.0001  145.6269  159.9201 C   0  0  0  0  0  0  0  0  0  0  0  0
  152.2093  143.4590  159.4305 N   0  0  0  0  0  0  0  0  0  0  0  0
  151.9302  143.3475  158.0048 C   0  0  0  0  0  0  0  0  0  0  0  0
  150.9591  142.1992  157.7260 C   0  0  0  0  0  0  0  0  0  0  0  0
  151.1679  141.0833  158.2010 O   0  0  0  0  0  0  0  0  0  0  0  0
  149.8835  142.5041  156.9856 N   0  0  0  0  0  0  0  0  0  0  0  0
  148.7150  141.6544  156.7693 C   0  0  0  0  0  0  0  0  0  0  0  0
  148.8318  140.8238  155.4554 C   0  0  0  0  0  0  0  0  0  0  0  0
  147.5801  139.9186  155.3670 C   0  0  0  0  0  0  0  0  0  0  0  0
  148.7460  141.8333  154.2821 C   0  0  0  0  0  0  0  0  0  0  0  0
  150.1099  140.0592  155.4084 N   0  0  0  0  0  0  0  0  0  0  0  0
  150.2957  139.1007  156.5034 C   0  0  0  0  0  0  0  0  0  0  0  0
  151.6924  138.4596  156.4758 C   0  0  0  0  0  0  0  0  0  0  0  0
  151.9078  137.8313  155.2176 O   0  0  0  0  0  0  0  0  0  0  0  0
  151.7845  138.7365  154.1271 C   0  0  0  0  0  0  0  0  0  0  0  0
  150.3872  139.3801  154.1388 C   0  0  0  0  0  0  0  0  0  0  0  0
  152.9537  142.5060  160.0349 N   0  0  0  0  0  0  0  0  0  0  0  0
  153.8744  142.5451  163.2476 H   0  0  0  0  0  0  0  0  0  0  0  0
  154.8124  141.8492  161.9329 H   0  0  0  0  0  0  0  0  0  0  0  0
  153.3048  141.0900  162.4359 H   0  0  0  0  0  0  0  0  0  0  0  0
  152.2575  144.6623  162.4610 H   0  0  0  0  0  0  0  0  0  0  0  0
  150.8164  146.2802  160.7732 H   0  0  0  0  0  0  0  0  0  0  0  0
  150.0343  145.3073  159.5287 H   0  0  0  0  0  0  0  0  0  0  0  0
  151.5004  146.2156  159.1511 H   0  0  0  0  0  0  0  0  0  0  0  0
  151.5081  144.2842  157.6377 H   0  0  0  0  0  0  0  0  0  0  0  0
  152.8680  143.1873  157.4719 H   0  0  0  0  0  0  0  0  0  0  0  0
  149.8131  143.4516  156.6431 H   0  0  0  0  0  0  0  0  0  0  0  0
  148.6169  141.0007  157.6359 H   0  0  0  0  0  0  0  0  0  0  0  0
  147.7996  142.2491  156.7694 H   0  0  0  0  0  0  0  0  0  0  0  0
  146.6666  140.5139  155.3846 H   0  0  0  0  0  0  0  0  0  0  0  0
  147.5164  139.2218  156.2024 H   0  0  0  0  0  0  0  0  0  0  0  0
  147.5584  139.3352  154.4467 H   0  0  0  0  0  0  0  0  0  0  0  0
  147.9188  142.5319  154.4126 H   0  0  0  0  0  0  0  0  0  0  0  0
  148.5782  141.3394  153.3250 H   0  0  0  0  0  0  0  0  0  0  0  0
  149.6587  142.4225  154.1898 H   0  0  0  0  0  0  0  0  0  0  0  0
  150.1708  139.5828  157.4712 H   0  0  0  0  0  0  0  0  0  0  0  0
  149.5461  138.3115  156.4439 H   0  0  0  0  0  0  0  0  0  0  0  0
  152.4614  139.2113  156.6556 H   0  0  0  0  0  0  0  0  0  0  0  0
  151.7828  137.7143  157.2661 H   0  0  0  0  0  0  0  0  0  0  0  0
  152.5602  139.5011  154.1888 H   0  0  0  0  0  0  0  0  0  0  0  0
  151.9437  138.1942  153.1950 H   0  0  0  0  0  0  0  0  0  0  0  0
  149.6391  138.6097  153.9515 H   0  0  0  0  0  0  0  0  0  0  0  0
  150.3402  140.0782  153.3051 H   0  0  0  0  0  0  0  0  0  0  0  0
  1  2  1  0  0  0  0
  1 22  1  0  0  0  0
  1 23  1  0  0  0  0
  1 24  1  0  0  0  0
  2 21  2  0  0  0  0
  2  3  1  0  0  0  0
  3  4  2  0  0  0  0
  3 25  1  0  0  0  0
  4  5  1  0  0  0  0
  4  6  1  0  0  0  0
  5 26  1  0  0  0  0
  5 27  1  0  0  0  0
  5 28  1  0  0  0  0
  6  7  1  0  0  0  0
  6 21  1  0  0  0  0
  7  8  1  0  0  0  0
  7 29  1  0  0  0  0
  7 30  1  0  0  0  0
  8  9  2  0  0  0  0
  8 10  1  0  0  0  0
 10 11  1  0  0  0  0
 10 31  1  0  0  0  0
 11 12  1  0  0  0  0
 11 32  1  0  0  0  0
 11 33  1  0  0  0  0
 12 13  1  0  0  0  0
 12 14  1  0  0  0  0
 12 15  1  0  0  0  0
 13 34  1  0  0  0  0
 13 35  1  0  0  0  0
 13 36  1  0  0  0  0
 14 37  1  0  0  0  0
 14 38  1  0  0  0  0
 14 39  1  0  0  0  0
 15 20  1  0  0  0  0
 15 16  1  0  0  0  0
 16 17  1  0  0  0  0
 16 40  1  0  0  0  0
 16 41  1  0  0  0  0
 17 18  1  0  0  0  0
 17 42  1  0  0  0  0
 17 43  1  0  0  0  0
 18 19  1  0  0  0  0
 19 20  1  0  0  0  0
 19 44  1  0  0  0  0
 19 45  1  0  0  0  0
 20 46  1  0  0  0  0
 20 47  1  0  0  0  0
M  END
> <s_m_source_file>
AV-unprocessed.smi

> <i_m_source_file_index>
1998

> <i_lp_mmshare_version>
43012

> <i_f3d_flags>
0

> <s_epik_input>
W0NIM11jMVtjSF1jKFtDSDNdKW4objEpW0NIMl1DKD1PKVtOSF1bQ0gyXUMoW0NIM10pKFtDSDNdKU4yW0NIMl1bQ0gyXU9bQ0gyXVtDSDJdMg==

> <s_epik_cmdline>
J2VwaWtfcHl0aG9uJywgJy1waCcsICc3LjAnLCAnLXRuJywgJzgnLCAnLW1hJywgJzIwMCcsICctbWV0YWxfYmluZGluZycsICctaW1hZScsICc8aW5maWxlLm1hZT4nLCAnLW9tYWUnLCAnPG91dGZpbGUubWFlPic=

> <r_lp_tautomer_probability>
1

> <r_epik_Ionization_Penalty>
0.197271

> <r_epik_Ionization_Penalty_Charging>
0

> <r_epik_Ionization_Penalty_Neutral>
0.197271

> <r_epik_State_Penalty>
0.186684

> <r_epik_Charging_Adjusted_Penalty>
0.186684

> <i_epik_Tot_Q>
0

> <i_epik_Tot_abs_Q>
0

> <r_epik_Metal_State_Penalty>
0.186642

> <b_epik_Metal_Only>
0

> <s_lp_Force_Field>
OPLS_2005

> <r_lp_Energy>
37.8286

> <b_lp_Chiralities_Consistent>
1

> <s_lp_Variant>
AV-unprocessed.smi:1998-1

> <Gold.Version>
5.8.1

> <Gold.Id.Protein>
6NUR|6NUR_protein|mol2

> <Gold.PLP.Fitness>
43.7007

> <Gold.PLP.PLP>
-41.4714

> <Gold.PLP.part.hbond>
-1.0000

> <Gold.PLP.part.metal>
0.0000

> <Gold.PLP.part.buried>
-5.3672

> <Gold.PLP.part.nonpolar>
-33.3072

> <Gold.PLP.part.repulsive>
0.0922

> <Gold.PLP.ligand.clash>
0.0000

> <Gold.PLP.ligand.torsion>
0.4158

> <Gold.PLP.Chemscore.Hbond>
0.9920

> <Gold.PLP.Chemscore.CHOScore>
0.0000

> <Gold.PLP.Chemscore.Metal>
0.0000

> <Gold.Chemscore.Hbonds>
donor molecule, donor type, donor heavy atom, donor atom, acceptor molecule, acceptor atom, score
      L1  H    10    31       P1  8028  0.99

> <Gold.PLP.Chemscore.Internal.Correction>
0.0848

> <Gold.Rescore>
     Score         DG    S(hbond)    S(metal)    S(lipo)     H(rot)  DE(clash)    DE(int)     intcor
     15.46     -16.63       0.99        0.00     103.65       1.67       0.36       0.81       ----

> <Gold.Chemscore.Fitness>
15.4594

> <Gold.Chemscore.DG>
-16.6306

> <Gold.Chemscore.ZeroCoef>
-5.4800

> <Gold.Chemscore.Hbond>
0.9850

> <Gold.Chemscore.Metal>
0.0000

> <Gold.Chemscore.Lipo>
103.6506

> <Gold.Chemscore.Internal_Hbond>
0.0000

> <Gold.Chemscore.DEClash>
0.3564

> <Gold.Chemscore.DEInternal>
0.8147

> <Gold.Chemscore.Rot>
1.6666

> <Gold.Chemscore.Internal.Correction>
   9.000000E+99

> <Gold.Chemscore.Hbonds>
donor molecule, donor type, donor heavy atom, donor atom, acceptor molecule, acceptor atom, score
      L1  H    10    31       P1  8028  0.94

> <Gold.Chemscore.Hbond.Weighted>
-3.2901

> <Gold.Chemscore.Metal.Weighted>
-0.0000

> <Gold.Chemscore.Lipo.Weighted>
-12.1271

> <Gold.Chemscore.Internal_Hbond.Weighted>
0.0000

> <Gold.Chemscore.DEClash.Weighted>
0.3564

> <Gold.Chemscore.DEInternal.Weighted>
0.8147

> <Gold.Chemscore.Rot.Weighted>
4.2666

> <Gold.Chemscore.Internal.Correction.Weighted>
   9.000000E+99

> <Gold.Protein.RotatedTorsions>
[ 6907 6896 6895 6894 ] final  152.38 input  -60.11 | X-H torsion
[ 7974 7965 7964 7962 ] final   -8.08 input  175.53 | X-H torsion
[ 8008 7997 7996 7995 ] final  -83.84 input   59.86 | X-H torsion
[ 10167 10162 10161 10158 ] final   32.55 input  -65.29 | X-H torsion
[ 10718 10713 10712 10709 ] final   -4.93 input   66.30 | X-H torsion
[ 10763 10752 10751 10750 ] final  -15.35 input  -60.55 | X-H torsion
[ 11005 11000 10999 10996 ] final   21.42 input  -57.11 | X-H torsion

> <Gold.Protein.ActiveResidues>
 VAL166  LYS551  ARG553  GLY616  TRP617  ASP618  TYR619  PRO620  LYS621  CYS622 
 ASP623  PHE694  ASN695  SER759  ASP760  ASP761  ALA762  ILE779  LEU786  VAL792 
 PHE793  MET794  SER795  GLU796  ALA797  LYS798  CYS799  TRP800  GLU811  SER814 

> <Gold.Protein.RotatedAtoms>
  152.0875  133.4183  159.4528 H   0  0  0  0  0  0  0  0  0  0  0  0  # atno 6907 bound_to 6896
  150.6862  134.2911  159.4676 H   0  0  0  0  0  0  0  0  0  0  0  0  # atno 6908 bound_to 6896
  152.0759  134.9503  160.0624 H   0  0  0  0  0  0  0  0  0  0  0  0  # atno 6909 bound_to 6896
  146.2290  140.2415  142.8343 H   0  0  0  0  0  0  0  0  0  0  0  0  # atno 7974 bound_to 7965
  154.6234  140.0613  156.9643 H   0  0  0  0  0  0  0  0  0  0  0  0  # atno 8008 bound_to 7997
  155.1781  140.3297  155.4362 H   0  0  0  0  0  0  0  0  0  0  0  0  # atno 8009 bound_to 7997
  156.2444  140.1902  156.6879 H   0  0  0  0  0  0  0  0  0  0  0  0  # atno 8010 bound_to 7997
  140.4489  144.1078  150.6188 H   0  0  0  0  0  0  0  0  0  0  0  0  # atno 10167 bound_to 10162
  156.7540  130.5248  149.5798 H   0  0  0  0  0  0  0  0  0  0  0  0  # atno 10718 bound_to 10713
  153.5421  135.7013  153.5632 H   0  0  0  0  0  0  0  0  0  0  0  0  # atno 10763 bound_to 10752
  153.3593  135.3974  155.1706 H   0  0  0  0  0  0  0  0  0  0  0  0  # atno 10764 bound_to 10752
  154.8672  135.3785  154.4925 H   0  0  0  0  0  0  0  0  0  0  0  0  # atno 10765 bound_to 10752
  140.3918  134.1811  155.7662 H   0  0  0  0  0  0  0  0  0  0  0  0  # atno 11005 bound_to 11000
  144.9481  140.8149  143.5589 LP  0  0  0  0  0  0  0  0  0  0  0  0  # atno 17320 bound_to 7965
  145.2373  139.2088  143.5011 LP  0  0  0  0  0  0  0  0  0  0  0  0  # atno 17321 bound_to 7965
  140.4231  143.2602  151.9690 LP  0  0  0  0  0  0  0  0  0  0  0  0  # atno 17342 bound_to 10162
  139.4795  144.5813  151.7928 LP  0  0  0  0  0  0  0  0  0  0  0  0  # atno 17343 bound_to 10162
  156.1382  130.6226  151.0431 LP  0  0  0  0  0  0  0  0  0  0  0  0  # atno 17370 bound_to 10713
  157.6764  131.0849  150.7483 LP  0  0  0  0  0  0  0  0  0  0  0  0  # atno 17371 bound_to 10713
  141.1888  133.8252  157.0981 LP  0  0  0  0  0  0  0  0  0  0  0  0  # atno 17394 bound_to 11000
  140.0401  134.9858  157.0946 LP  0  0  0  0  0  0  0  0  0  0  0  0  # atno 17395 bound_to 11000

$$$$
