AV-unprocessed.smi:2702|AV-procd|sdf|10431|dock3
  -GOLD-   2272014473D 1   1.00000     0.00000
 Structure written by MMmdl.
 47 48  0  0  0  0  0  0  0  0  1 V2000
  149.1735  133.2084  153.6292 C   0  0  0  0  0  0  0  0  0  0  0  0
  149.2440  134.4246  154.3522 O   0  0  0  0  0  0  0  0  0  0  0  0
  150.4496  134.5510  155.0865 C   0  0  0  0  0  0  0  0  0  0  0  0
  150.8626  136.0057  155.1776 C   0  0  0  0  0  0  0  0  0  0  0  0
  150.2539  136.9692  154.4474 C   0  0  0  0  0  0  0  0  0  0  0  0
  150.6852  138.3638  154.5444 C   0  0  0  0  0  0  0  0  0  0  0  0
  150.1487  139.2705  153.9072 O   0  0  0  0  0  0  0  0  0  0  0  0
  151.7311  138.5838  155.3947 N   0  0  0  0  0  0  0  0  0  0  0  0
  152.2869  139.9351  155.5936 C   0  0  0  0  0  0  0  0  0  0  0  0
  152.3455  140.3686  157.0657 C   0  0  0  0  0  0  0  0  0  0  0  0
  153.0073  139.7357  157.8899 O   0  0  0  0  0  0  0  0  0  0  0  0
  151.6476  141.4715  157.3747 N   0  0  0  0  0  0  0  0  0  0  0  0
  151.5587  142.0734  158.7029 C   0  0  1  0  0  0  0  0  0  0  0  0
  152.9437  142.0518  159.3776 C   0  0  0  0  0  0  0  0  0  0  0  0
  152.8828  142.6458  160.7926 C   0  0  0  0  0  0  0  0  0  0  0  0
  152.2807  144.0597  160.7859 C   0  0  0  0  0  0  0  0  0  0  0  0
  150.8974  144.0809  160.1045 C   0  0  1  0  0  0  0  0  0  0  0  0
  150.2423  145.4697  160.1865 C   0  0  0  0  0  0  0  0  0  0  0  0
  150.9613  143.5072  158.6636 C   0  0  1  0  0  0  0  0  0  0  0  0
  151.6787  144.4385  157.6583 C   0  0  0  0  0  0  0  0  0  0  0  0
  152.3311  137.5418  156.1299 C   0  0  0  0  0  0  0  0  0  0  0  0
  151.9279  136.3152  156.0290 N   0  0  0  0  0  0  0  0  0  0  0  0
  148.2301  133.1607  153.0852 H   0  0  0  0  0  0  0  0  0  0  0  0
  149.2204  132.3481  154.2983 H   0  0  0  0  0  0  0  0  0  0  0  0
  149.9847  133.1331  152.9038 H   0  0  0  0  0  0  0  0  0  0  0  0
  150.3188  134.1516  156.0940 H   0  0  0  0  0  0  0  0  0  0  0  0
  151.2442  133.9731  154.6112 H   0  0  0  0  0  0  0  0  0  0  0  0
  149.4388  136.7132  153.7863 H   0  0  0  0  0  0  0  0  0  0  0  0
  153.2919  140.0140  155.1750 H   0  0  0  0  0  0  0  0  0  0  0  0
  151.6949  140.6647  155.0377 H   0  0  0  0  0  0  0  0  0  0  0  0
  151.1331  141.9273  156.6352 H   0  0  0  0  0  0  0  0  0  0  0  0
  150.8993  141.4477  159.3082 H   0  0  0  0  0  0  0  0  0  0  0  0
  153.3148  141.0275  159.4320 H   0  0  0  0  0  0  0  0  0  0  0  0
  153.6658  142.6067  158.7777 H   0  0  0  0  0  0  0  0  0  0  0  0
  152.2807  141.9986  161.4319 H   0  0  0  0  0  0  0  0  0  0  0  0
  153.8811  142.6683  161.2301 H   0  0  0  0  0  0  0  0  0  0  0  0
  152.1941  144.4178  161.8123 H   0  0  0  0  0  0  0  0  0  0  0  0
  152.9604  144.7471  160.2815 H   0  0  0  0  0  0  0  0  0  0  0  0
  150.2534  143.4123  160.6784 H   0  0  0  0  0  0  0  0  0  0  0  0
  150.8606  146.2389  159.7237 H   0  0  0  0  0  0  0  0  0  0  0  0
  150.0854  145.7627  161.2248 H   0  0  0  0  0  0  0  0  0  0  0  0
  149.2698  145.4765  159.6937 H   0  0  0  0  0  0  0  0  0  0  0  0
  149.9321  143.4173  158.3126 H   0  0  0  0  0  0  0  0  0  0  0  0
  152.7176  144.6172  157.9330 H   0  0  0  0  0  0  0  0  0  0  0  0
  151.1848  145.4070  157.5886 H   0  0  0  0  0  0  0  0  0  0  0  0
  151.6740  144.0215  156.6513 H   0  0  0  0  0  0  0  0  0  0  0  0
  153.1498  137.8418  156.7859 H   0  0  0  0  0  0  0  0  0  0  0  0
  1  2  1  0  0  0  0
  1 23  1  0  0  0  0
  1 24  1  0  0  0  0
  1 25  1  0  0  0  0
  2  3  1  0  0  0  0
  3  4  1  0  0  0  0
  3 26  1  0  0  0  0
  3 27  1  0  0  0  0
  4 22  1  0  0  0  0
  4  5  2  0  0  0  0
  5  6  1  0  0  0  0
  5 28  1  0  0  0  0
  6  7  2  0  0  0  0
  6  8  1  0  0  0  0
  8  9  1  0  0  0  0
  8 21  1  0  0  0  0
  9 10  1  0  0  0  0
  9 29  1  0  0  0  0
  9 30  1  0  0  0  0
 10 11  2  0  0  0  0
 10 12  1  0  0  0  0
 12 13  1  0  0  0  0
 12 31  1  0  0  0  0
 13 19  1  0  0  0  0
 13 14  1  0  0  0  0
 13 32  1  0  0  0  0
 14 15  1  0  0  0  0
 14 33  1  0  0  0  0
 14 34  1  0  0  0  0
 15 16  1  0  0  0  0
 15 35  1  0  0  0  0
 15 36  1  0  0  0  0
 16 17  1  0  0  0  0
 16 37  1  0  0  0  0
 16 38  1  0  0  0  0
 17 18  1  0  0  0  0
 17 19  1  0  0  0  0
 17 39  1  0  0  0  0
 18 40  1  0  0  0  0
 18 41  1  0  0  0  0
 18 42  1  0  0  0  0
 19 20  1  0  0  0  0
 19 43  1  0  0  0  0
 20 44  1  0  0  0  0
 20 45  1  0  0  0  0
 20 46  1  0  0  0  0
 21 22  2  0  0  0  0
 21 47  1  0  0  0  0
M  END
> <s_m_source_file>
AV-unprocessed.smi

> <i_m_source_file_index>
2702

> <i_lp_mmshare_version>
43012

> <i_f3d_flags>
0

> <s_epik_input>
W0NIM11PW0NIMl1jMVtjSF1jKD1PKW4oW2NIXW4xKVtDSDJdQyg9TylbTkhdW0NAQEhdMltDSDJdW0NIMl1bQ0gyXVtDQEBIXShbQ0gzXSlbQ0BIXTJbQ0gzXQ==

> <s_epik_cmdline>
J2VwaWtfcHl0aG9uJywgJy1waCcsICc3LjAnLCAnLXRuJywgJzgnLCAnLW1hJywgJzIwMCcsICctbWV0YWxfYmluZGluZycsICctaW1hZScsICc8aW5maWxlLm1hZT4nLCAnLW9tYWUnLCAnPG91dGZpbGUubWFlPic=

> <r_lp_tautomer_probability>
1

> <r_epik_Ionization_Penalty>
1.22164e-06

> <r_epik_Ionization_Penalty_Charging>
3.17988e-07

> <r_epik_Ionization_Penalty_Neutral>
9.03656e-07

> <r_epik_State_Penalty>
-0

> <r_epik_Charging_Adjusted_Penalty>
3.17988e-07

> <i_epik_Tot_Q>
0

> <i_epik_Tot_abs_Q>
0

> <r_epik_Metal_State_Penalty>
-0

> <b_epik_Metal_Only>
0

> <s_lp_Force_Field>
OPLS_2005

> <r_lp_Energy>
18.9829

> <b_lp_Chiralities_Consistent>
1

> <s_lp_Variant>
AV-unprocessed.smi:2702-2

> <Gold.Version>
5.8.1

> <Gold.Id.Protein>
6NUR|6NUR_protein|mol2

> <Gold.PLP.Fitness>
45.2544

> <Gold.PLP.PLP>
-39.6306

> <Gold.PLP.part.hbond>
-2.4685

> <Gold.PLP.part.metal>
0.0000

> <Gold.PLP.part.buried>
0.3269

> <Gold.PLP.part.nonpolar>
-37.4517

> <Gold.PLP.part.repulsive>
2.1132

> <Gold.PLP.ligand.clash>
0.0000

> <Gold.PLP.ligand.torsion>
0.5394

> <Gold.PLP.Chemscore.Hbond>
2.2119

> <Gold.PLP.Chemscore.CHOScore>
0.0000

> <Gold.PLP.Chemscore.Metal>
0.0000

> <Gold.Chemscore.Hbonds>
donor molecule, donor type, donor heavy atom, donor atom, acceptor molecule, acceptor atom, score
      P1  H  7989  7998       L1     7  0.57
      P1  H  7997  8009       L1    11  0.83
      P1  H 10752 10763       L1    22  1.00

> <Gold.PLP.Chemscore.Internal.Correction>
0.0671

> <Gold.Rescore>
     Score         DG    S(hbond)    S(metal)    S(lipo)     H(rot)  DE(clash)    DE(int)     intcor
     10.78     -17.23       0.98        0.00     114.50       1.93       3.14       3.31       ----

> <Gold.Chemscore.Fitness>
10.7755

> <Gold.Chemscore.DG>
-17.2282

> <Gold.Chemscore.ZeroCoef>
-5.4800

> <Gold.Chemscore.Hbond>
0.9847

> <Gold.Chemscore.Metal>
0.0000

> <Gold.Chemscore.Lipo>
114.4974

> <Gold.Chemscore.Internal_Hbond>
0.0000

> <Gold.Chemscore.DEClash>
3.1397

> <Gold.Chemscore.DEInternal>
3.3130

> <Gold.Chemscore.Rot>
1.9284

> <Gold.Chemscore.Internal.Correction>
   9.000000E+99

> <Gold.Chemscore.Hbonds>
donor molecule, donor type, donor heavy atom, donor atom, acceptor molecule, acceptor atom, score
      P1  H  7989  7998       L1     7  0.40
      P1  H  7997  8009       L1    11  0.21
      P1  H 10752 10763       L1    22  0.13

> <Gold.Chemscore.Hbond.Weighted>
-3.2888

> <Gold.Chemscore.Metal.Weighted>
-0.0000

> <Gold.Chemscore.Lipo.Weighted>
-13.3962

> <Gold.Chemscore.Internal_Hbond.Weighted>
0.0000

> <Gold.Chemscore.DEClash.Weighted>
3.1397

> <Gold.Chemscore.DEInternal.Weighted>
3.3130

> <Gold.Chemscore.Rot.Weighted>
4.9368

> <Gold.Chemscore.Internal.Correction.Weighted>
   9.000000E+99

> <Gold.Protein.RotatedTorsions>
[ 6907 6896 6895 6894 ] final  164.90 input  -60.11 | X-H torsion
[ 7974 7965 7964 7962 ] final  -66.00 input  175.53 | X-H torsion
[ 8008 7997 7996 7995 ] final  138.73 input   59.86 | X-H torsion
[ 10167 10162 10161 10158 ] final  -79.06 input  -65.29 | X-H torsion
[ 10718 10713 10712 10709 ] final  -17.96 input   66.30 | X-H torsion
[ 10763 10752 10751 10750 ] final  101.00 input  -60.55 | X-H torsion
[ 11005 11000 10999 10996 ] final   15.49 input  -57.11 | X-H torsion

> <Gold.Protein.ActiveResidues>
 VAL166  LYS551  ARG553  GLY616  TRP617  ASP618  TYR619  PRO620  LYS621  CYS622 
 ASP623  PHE694  ASN695  SER759  ASP760  ASP761  ALA762  ILE779  LEU786  VAL792 
 PHE793  MET794  SER795  GLU796  ALA797  LYS798  CYS799  TRP800  GLU811  SER814 

> <Gold.Protein.RotatedAtoms>
  151.9027  133.3542  159.3836 H   0  0  0  0  0  0  0  0  0  0  0  0  # atno 6907 bound_to 6896
  150.7076  134.4812  159.5480 H   0  0  0  0  0  0  0  0  0  0  0  0  # atno 6908 bound_to 6896
  152.2403  134.8235  160.0512 H   0  0  0  0  0  0  0  0  0  0  0  0  # atno 6909 bound_to 6896
  145.7473  140.8925  143.0498 H   0  0  0  0  0  0  0  0  0  0  0  0  # atno 7974 bound_to 7965
  156.2995  140.2386  156.4121 H   0  0  0  0  0  0  0  0  0  0  0  0  # atno 8008 bound_to 7997
  154.8432  140.0427  157.1575 H   0  0  0  0  0  0  0  0  0  0  0  0  # atno 8009 bound_to 7997
  154.9080  140.2986  155.5285 H   0  0  0  0  0  0  0  0  0  0  0  0  # atno 8010 bound_to 7997
  140.4626  143.2449  151.8325 H   0  0  0  0  0  0  0  0  0  0  0  0  # atno 10167 bound_to 10162
  156.5662  130.4738  149.6384 H   0  0  0  0  0  0  0  0  0  0  0  0  # atno 10718 bound_to 10713
  153.3211  135.4059  155.1418 H   0  0  0  0  0  0  0  0  0  0  0  0  # atno 10763 bound_to 10752
  154.8601  135.3588  154.5595 H   0  0  0  0  0  0  0  0  0  0  0  0  # atno 10764 bound_to 10752
  153.6028  135.7070  153.5436 H   0  0  0  0  0  0  0  0  0  0  0  0  # atno 10765 bound_to 10752
  140.4578  134.1159  155.7712 H   0  0  0  0  0  0  0  0  0  0  0  0  # atno 11005 bound_to 11000
  144.6857  139.9542  143.7479 LP  0  0  0  0  0  0  0  0  0  0  0  0  # atno 17320 bound_to 7965
  146.0391  139.3405  143.0708 LP  0  0  0  0  0  0  0  0  0  0  0  0  # atno 17321 bound_to 7965
  139.4808  144.4989  151.9087 LP  0  0  0  0  0  0  0  0  0  0  0  0  # atno 17342 bound_to 10162
  140.4074  144.2413  150.5890 LP  0  0  0  0  0  0  0  0  0  0  0  0  # atno 17343 bound_to 10162
  156.2755  130.7041  151.1851 LP  0  0  0  0  0  0  0  0  0  0  0  0  # atno 17370 bound_to 10713
  157.7358  131.0569  150.5450 LP  0  0  0  0  0  0  0  0  0  0  0  0  # atno 17371 bound_to 10713
  141.1635  133.8747  157.1781 LP  0  0  0  0  0  0  0  0  0  0  0  0  # atno 17394 bound_to 11000
  139.9965  135.0044  157.0094 LP  0  0  0  0  0  0  0  0  0  0  0  0  # atno 17395 bound_to 11000

$$$$
