AV-unprocessed.smi:2061|AV-procd|sdf|8376|dock8
  -GOLD-   2272011 53D 1   1.00000     0.00000
 Structure written by MMmdl.
 44 45  0  0  0  0  0  0  0  0  2 V2000
  147.9550  132.4457  153.8620 C   0  0  0  0  0  0  0  0  0  0  0  0
  148.6626  133.6438  154.3961 C   0  0  0  0  0  0  0  0  0  0  0  0
  149.9822  133.9212  154.6145 C   0  0  0  0  0  0  0  0  0  0  0  0
  149.9545  135.2441  155.1347 C   0  0  0  0  0  0  0  0  0  0  0  0
  151.0200  135.9617  155.5226 N   0  5  0  0  0  0  0  0  0  0  0  0
  150.8918  137.2814  155.7921 C   0  0  0  0  0  0  0  0  0  0  0  0
  149.8639  137.9540  155.6817 O   0  0  0  0  0  0  0  0  0  0  0  0
  152.0271  137.8594  156.2105 N   0  0  0  0  0  0  0  0  0  0  0  0
  152.1945  139.2700  156.5537 C   0  0  0  0  0  0  0  0  0  0  0  0
  152.5931  139.5052  158.0408 C   0  0  2  0  0  0  0  0  0  0  0  0
  151.8049  138.5108  158.9317 C   0  0  0  0  0  0  0  0  0  0  0  0
  152.4350  140.9129  158.4780 N   0  0  0  0  0  0  0  0  0  0  0  0
  151.0533  141.3890  158.3427 C   0  0  0  0  0  0  0  0  0  0  0  0
  150.8485  142.8424  158.8147 C   0  0  2  0  0  0  0  0  0  0  0  0
  151.4221  143.8866  157.8416 C   0  0  0  0  0  0  0  0  0  0  0  0
  151.3538  143.0126  160.1369 O   0  0  0  0  0  0  0  0  0  0  0  0
  152.7013  142.5910  160.3172 C   0  0  1  0  0  0  0  0  0  0  0  0
  153.0633  142.7795  161.7943 C   0  0  0  0  0  0  0  0  0  0  0  0
  152.8490  141.1262  159.8681 C   0  0  0  0  0  0  0  0  0  0  0  0
  148.7251  135.7206  155.2391 N   0  0  0  0  0  0  0  0  0  0  0  0
  147.8911  134.7029  154.7610 O   0  0  0  0  0  0  0  0  0  0  0  0
  147.9641  131.6366  154.5923 H   0  0  0  0  0  0  0  0  0  0  0  0
  148.4368  132.0869  152.9525 H   0  0  0  0  0  0  0  0  0  0  0  0
  146.9159  132.6757  153.6249 H   0  0  0  0  0  0  0  0  0  0  0  0
  150.8329  133.2828  154.4295 H   0  0  0  0  0  0  0  0  0  0  0  0
  152.8440  137.2716  156.2882 H   0  0  0  0  0  0  0  0  0  0  0  0
  152.9332  139.6703  155.8608 H   0  0  0  0  0  0  0  0  0  0  0  0
  151.2582  139.7839  156.3352 H   0  0  0  0  0  0  0  0  0  0  0  0
  153.6486  139.2456  158.1347 H   0  0  0  0  0  0  0  0  0  0  0  0
  151.8790  137.4837  158.5763 H   0  0  0  0  0  0  0  0  0  0  0  0
  150.7461  138.7685  158.9680 H   0  0  0  0  0  0  0  0  0  0  0  0
  152.1813  138.4813  159.9530 H   0  0  0  0  0  0  0  0  0  0  0  0
  150.7235  141.3367  157.3068 H   0  0  0  0  0  0  0  0  0  0  0  0
  150.3906  140.7364  158.9134 H   0  0  0  0  0  0  0  0  0  0  0  0
  149.7751  143.0242  158.8755 H   0  0  0  0  0  0  0  0  0  0  0  0
  150.9300  143.8218  156.8708 H   0  0  0  0  0  0  0  0  0  0  0  0
  152.4899  143.7483  157.6736 H   0  0  0  0  0  0  0  0  0  0  0  0
  151.2705  144.8969  158.2220 H   0  0  0  0  0  0  0  0  0  0  0  0
  153.3623  143.2213  159.7217 H   0  0  0  0  0  0  0  0  0  0  0  0
  154.0932  142.4778  161.9874 H   0  0  0  0  0  0  0  0  0  0  0  0
  152.4138  142.1860  162.4385 H   0  0  0  0  0  0  0  0  0  0  0  0
  152.9625  143.8239  162.0902 H   0  0  0  0  0  0  0  0  0  0  0  0
  152.2724  140.4766  160.5288 H   0  0  0  0  0  0  0  0  0  0  0  0
  153.8962  140.8651  160.0024 H   0  0  0  0  0  0  0  0  0  0  0  0
  1  2  1  0  0  0  0
  1 22  1  0  0  0  0
  1 23  1  0  0  0  0
  1 24  1  0  0  0  0
  2 21  1  0  0  0  0
  2  3  2  0  0  0  0
  3  4  1  0  0  0  0
  3 25  1  0  0  0  0
  4  5  1  0  0  0  0
  4 20  2  0  0  0  0
  5  6  1  0  0  0  0
  6  7  2  0  0  0  0
  6  8  1  0  0  0  0
  8  9  1  0  0  0  0
  8 26  1  0  0  0  0
  9 10  1  0  0  0  0
  9 27  1  0  0  0  0
  9 28  1  0  0  0  0
 10 11  1  0  0  0  0
 10 12  1  0  0  0  0
 10 29  1  0  0  0  0
 11 30  1  0  0  0  0
 11 31  1  0  0  0  0
 11 32  1  0  0  0  0
 12 19  1  0  0  0  0
 12 13  1  0  0  0  0
 13 14  1  0  0  0  0
 13 33  1  0  0  0  0
 13 34  1  0  0  0  0
 14 15  1  0  0  0  0
 14 16  1  0  0  0  0
 14 35  1  0  0  0  0
 15 36  1  0  0  0  0
 15 37  1  0  0  0  0
 15 38  1  0  0  0  0
 16 17  1  0  0  0  0
 17 18  1  0  0  0  0
 17 19  1  0  0  0  0
 17 39  1  0  0  0  0
 18 40  1  0  0  0  0
 18 41  1  0  0  0  0
 18 42  1  0  0  0  0
 19 43  1  0  0  0  0
 19 44  1  0  0  0  0
 20 21  1  0  0  0  0
M  CHG  1   5  -1
M  END
> <s_m_source_file>
AV-unprocessed.smi

> <i_m_source_file_index>
2061

> <i_lp_mmshare_version>
43012

> <i_f3d_flags>
0

> <s_epik_input>
W0NIM11jMVtjSF1jKG5vMSlbTkhdQyg9TylbTkhdW0NIMl1bQ0BIXShbQ0gzXSlOMltDSDJdW0NAQEhdKFtDSDNdKU9bQ0BASF0oW0NIM10pW0NIMl0y

> <s_epik_cmdline>
J2VwaWtfcHl0aG9uJywgJy1waCcsICc3LjAnLCAnLXRuJywgJzgnLCAnLW1hJywgJzIwMCcsICctbWV0YWxfYmluZGluZycsICctaW1hZScsICc8aW5maWxlLm1hZT4nLCAnLW9tYWUnLCAnPG91dGZpbGUubWFlPic=

> <r_epik_Ionization_Penalty>
6.88367

> <r_epik_Ionization_Penalty_Charging>
6.57198

> <r_epik_Ionization_Penalty_Neutral>
0.311681

> <r_epik_State_Penalty>
6.77619

> <r_epik_Charging_Adjusted_Penalty>
13.3482

> <i_epik_Tot_Q>
-1

> <i_epik_Tot_abs_Q>
1

> <r_epik_Metal_State_Penalty>
2.70524

> <b_epik_Metal_Only>
1

> <s_lp_Force_Field>
OPLS_2005

> <r_lp_Energy>
24.3932

> <b_lp_Chiralities_Consistent>
1

> <s_lp_Variant>
AV-unprocessed.smi:2061-17

> <Gold.Version>
5.8.1

> <Gold.Id.Protein>
6NUR|6NUR_protein|mol2

> <Gold.PLP.Fitness>
40.7726

> <Gold.PLP.PLP>
-35.1056

> <Gold.PLP.part.hbond>
-1.6339

> <Gold.PLP.part.metal>
0.0000

> <Gold.PLP.part.buried>
-5.3297

> <Gold.PLP.part.nonpolar>
-28.9663

> <Gold.PLP.part.repulsive>
0.7612

> <Gold.PLP.ligand.clash>
0.0000

> <Gold.PLP.ligand.torsion>
0.1933

> <Gold.PLP.Chemscore.Hbond>
2.0000

> <Gold.PLP.Chemscore.CHOScore>
0.0000

> <Gold.PLP.Chemscore.Metal>
0.0000

> <Gold.Chemscore.Hbonds>
donor molecule, donor type, donor heavy atom, donor atom, acceptor molecule, acceptor atom, score
      P1  H 10752 10763       L1     5  1.46

> <Gold.PLP.Chemscore.Internal.Correction>
0.0536

> <Gold.Rescore>
     Score         DG    S(hbond)    S(metal)    S(lipo)     H(rot)  DE(clash)    DE(int)     intcor
     13.21     -15.43       0.93        0.00      91.64       1.52       0.30       1.91       ----

> <Gold.Chemscore.Fitness>
13.2147

> <Gold.Chemscore.DG>
-15.4291

> <Gold.Chemscore.ZeroCoef>
-5.4800

> <Gold.Chemscore.Hbond>
0.9328

> <Gold.Chemscore.Metal>
0.0000

> <Gold.Chemscore.Lipo>
91.6424

> <Gold.Chemscore.Internal_Hbond>
0.0000

> <Gold.Chemscore.DEClash>
0.3011

> <Gold.Chemscore.DEInternal>
1.9133

> <Gold.Chemscore.Rot>
1.5190

> <Gold.Chemscore.Internal.Correction>
   9.000000E+99

> <Gold.Chemscore.Hbonds>
donor molecule, donor type, donor heavy atom, donor atom, acceptor molecule, acceptor atom, score
      P1  H 10752 10763       L1     5  0.56

> <Gold.Chemscore.Hbond.Weighted>
-3.1156

> <Gold.Chemscore.Metal.Weighted>
-0.0000

> <Gold.Chemscore.Lipo.Weighted>
-10.7222

> <Gold.Chemscore.Internal_Hbond.Weighted>
0.0000

> <Gold.Chemscore.DEClash.Weighted>
0.3011

> <Gold.Chemscore.DEInternal.Weighted>
1.9133

> <Gold.Chemscore.Rot.Weighted>
3.8886

> <Gold.Chemscore.Internal.Correction.Weighted>
   9.000000E+99

> <Gold.Protein.RotatedTorsions>
[ 6907 6896 6895 6894 ] final -166.79 input  -60.11 | X-H torsion
[ 7974 7965 7964 7962 ] final  133.25 input  175.53 | X-H torsion
[ 8008 7997 7996 7995 ] final   27.48 input   59.86 | X-H torsion
[ 10167 10162 10161 10158 ] final -130.09 input  -65.29 | X-H torsion
[ 10718 10713 10712 10709 ] final  -86.35 input   66.30 | X-H torsion
[ 10763 10752 10751 10750 ] final   65.15 input  -60.55 | X-H torsion
[ 11005 11000 10999 10996 ] final -178.12 input  -57.11 | X-H torsion

> <Gold.Protein.ActiveResidues>
 VAL166  LYS551  ARG553  GLY616  TRP617  ASP618  TYR619  PRO620  LYS621  CYS622 
 ASP623  PHE694  ASN695  SER759  ASP760  ASP761  ALA762  ILE779  LEU786  VAL792 
 PHE793  MET794  SER795  GLU796  ALA797  LYS798  CYS799  TRP800  GLU811  SER814 

> <Gold.Protein.RotatedAtoms>
  151.4493  133.3622  159.2792 H   0  0  0  0  0  0  0  0  0  0  0  0  # atno 6907 bound_to 6896
  150.9102  134.8520  159.7431 H   0  0  0  0  0  0  0  0  0  0  0  0  # atno 6908 bound_to 6896
  152.4928  134.4422  159.9599 H   0  0  0  0  0  0  0  0  0  0  0  0  # atno 6909 bound_to 6896
  144.9885  139.4431  143.5351 H   0  0  0  0  0  0  0  0  0  0  0  0  # atno 7974 bound_to 7965
  155.0437  140.3172  155.4716 H   0  0  0  0  0  0  0  0  0  0  0  0  # atno 8008 bound_to 7997
  156.2849  140.2158  156.5504 H   0  0  0  0  0  0  0  0  0  0  0  0  # atno 8009 bound_to 7997
  154.7269  140.0485  157.0678 H   0  0  0  0  0  0  0  0  0  0  0  0  # atno 8010 bound_to 7997
  139.9330  143.6251  152.2524 H   0  0  0  0  0  0  0  0  0  0  0  0  # atno 10167 bound_to 10162
  155.9990  130.4762  150.4702 H   0  0  0  0  0  0  0  0  0  0  0  0  # atno 10718 bound_to 10713
  153.0085  135.5367  154.6622 H   0  0  0  0  0  0  0  0  0  0  0  0  # atno 10763 bound_to 10752
  154.5828  135.2851  155.0717 H   0  0  0  0  0  0  0  0  0  0  0  0  # atno 10764 bound_to 10752
  154.1840  135.6511  153.5094 H   0  0  0  0  0  0  0  0  0  0  0  0  # atno 10765 bound_to 10752
  140.4333  134.6499  157.4722 H   0  0  0  0  0  0  0  0  0  0  0  0  # atno 11005 bound_to 11000
  146.3425  139.9201  142.8768 LP  0  0  0  0  0  0  0  0  0  0  0  0  # atno 17320 bound_to 7965
  145.2320  140.9976  143.3985 LP  0  0  0  0  0  0  0  0  0  0  0  0  # atno 17321 bound_to 7965
  139.6767  144.7658  151.1683 LP  0  0  0  0  0  0  0  0  0  0  0  0  # atno 17342 bound_to 10162
  140.7632  143.5785  150.8920 LP  0  0  0  0  0  0  0  0  0  0  0  0  # atno 17343 bound_to 10162
  157.2718  131.0588  151.2255 LP  0  0  0  0  0  0  0  0  0  0  0  0  # atno 17370 bound_to 10713
  157.3333  130.6996  149.6337 LP  0  0  0  0  0  0  0  0  0  0  0  0  # atno 17371 bound_to 10713
  140.0119  134.6677  155.9367 LP  0  0  0  0  0  0  0  0  0  0  0  0  # atno 17394 bound_to 11000
  141.1736  133.6539  156.4745 LP  0  0  0  0  0  0  0  0  0  0  0  0  # atno 17395 bound_to 11000

$$$$
