AV-unprocessed.smi:2781|AV-procd|sdf|10719|dock1
  -GOLD-   2272015153D 1   1.00000     0.00000
 Structure written by MMmdl.
 35 38  0  0  0  0  0  0  0  0  1 V2000
  150.7769  140.7127  156.3076 O   0  0  0  0  0  0  0  0  0  0  0  0
  150.3274  141.8577  156.2486 C   0  0  0  0  0  0  0  0  0  0  0  0
  150.5352  142.8228  157.1618 N   0  0  0  0  0  0  0  0  0  0  0  0
  151.3175  142.7584  158.3455 C   0  0  0  0  0  0  0  0  0  0  0  0
  151.3432  143.9469  159.1101 C   0  0  0  0  0  0  0  0  0  0  0  0
  152.0951  143.9892  160.3005 C   0  0  0  0  0  0  0  0  0  0  0  0
  152.8016  142.8392  160.6945 C   0  0  0  0  0  0  0  0  0  0  0  0
  153.5381  142.8324  161.8306 F   0  0  0  0  0  0  0  0  0  0  0  0
  152.7235  141.6964  159.8775 C   0  0  0  0  0  0  0  0  0  0  0  0
  152.0032  141.6547  158.7362 N   0  0  0  0  0  0  0  0  0  0  0  0
  149.5571  142.3026  155.2469 N   0  0  0  0  0  0  0  0  0  0  0  0
  149.1389  141.5435  154.1132 C   0  0  2  0  0  0  0  0  0  0  0  0
  147.6706  141.3920  153.7611 C   0  0  2  0  0  0  0  0  0  0  0  0
  146.4192  141.3793  154.6466 C   0  0  2  0  0  0  0  0  0  0  0  0
  146.7020  141.7757  156.1098 C   0  0  0  0  0  0  0  0  0  0  0  0
  147.5017  140.5623  156.6322 C   0  0  0  0  0  0  0  0  0  0  0  0
  147.5618  139.6478  155.3920 C   0  0  1  0  0  0  0  0  0  0  0  0
  146.1732  139.8835  154.8078 C   0  0  0  0  0  0  0  0  0  0  0  0
  148.4634  140.1940  154.2784 C   0  0  2  0  0  0  0  0  0  0  0  0
  150.0905  143.7110  156.9835 H   0  0  0  0  0  0  0  0  0  0  0  0
  150.7939  144.8210  158.7914 H   0  0  0  0  0  0  0  0  0  0  0  0
  152.1286  144.8877  160.8987 H   0  0  0  0  0  0  0  0  0  0  0  0
  153.2518  140.7931  160.1450 H   0  0  0  0  0  0  0  0  0  0  0  0
  149.2363  143.2589  155.2865 H   0  0  0  0  0  0  0  0  0  0  0  0
  149.8029  141.6029  153.2518 H   0  0  0  0  0  0  0  0  0  0  0  0
  147.4426  141.3823  152.6970 H   0  0  0  0  0  0  0  0  0  0  0  0
  145.5935  141.9280  154.1928 H   0  0  0  0  0  0  0  0  0  0  0  0
  147.2238  142.7270  156.2030 H   0  0  0  0  0  0  0  0  0  0  0  0
  145.7668  141.8731  156.6631 H   0  0  0  0  0  0  0  0  0  0  0  0
  148.4847  140.8132  157.0280 H   0  0  0  0  0  0  0  0  0  0  0  0
  146.9530  140.0719  157.4374 H   0  0  0  0  0  0  0  0  0  0  0  0
  147.7852  138.6060  155.6226 H   0  0  0  0  0  0  0  0  0  0  0  0
  145.3579  139.6402  155.4919 H   0  0  0  0  0  0  0  0  0  0  0  0
  146.0100  139.3678  153.8595 H   0  0  0  0  0  0  0  0  0  0  0  0
  148.7254  139.4451  153.5331 H   0  0  0  0  0  0  0  0  0  0  0  0
  1  2  2  0  0  0  0
  2  3  1  0  0  0  0
  2 11  1  0  0  0  0
  3  4  1  0  0  0  0
  3 20  1  0  0  0  0
  4 10  1  0  0  0  0
  4  5  2  0  0  0  0
  5  6  1  0  0  0  0
  5 21  1  0  0  0  0
  6  7  2  0  0  0  0
  6 22  1  0  0  0  0
  7  8  1  0  0  0  0
  7  9  1  0  0  0  0
  9 10  2  0  0  0  0
  9 23  1  0  0  0  0
 11 12  1  0  0  0  0
 11 24  1  0  0  0  0
 12 19  1  0  0  0  0
 12 13  1  0  0  0  0
 12 25  1  0  0  0  0
 13 19  1  0  0  0  0
 13 14  1  0  0  0  0
 13 26  1  0  0  0  0
 14 18  1  0  0  0  0
 14 15  1  0  0  0  0
 14 27  1  0  0  0  0
 15 16  1  0  0  0  0
 15 28  1  0  0  0  0
 15 29  1  0  0  0  0
 16 17  1  0  0  0  0
 16 30  1  0  0  0  0
 16 31  1  0  0  0  0
 17 18  1  0  0  0  0
 17 19  1  0  0  0  0
 17 32  1  0  0  0  0
 18 33  1  0  0  0  0
 18 34  1  0  0  0  0
 19 35  1  0  0  0  0
M  END
> <s_m_source_file>
AV-unprocessed.smi

> <i_m_source_file_index>
2781

> <i_lp_mmshare_version>
43012

> <i_f3d_flags>
0

> <s_epik_input>
bjFbY0hdYyhGKVtjSF1bY0hdYzFbTkhdQyg9TylbTkhdW0NASF0yW0NAQEhdM1tDQEhdKFtDSDJdNClbQ0gyXVtDSDJdW0NASF00W0NASF0yMw==

> <s_epik_cmdline>
J2VwaWtfcHl0aG9uJywgJy1waCcsICc3LjAnLCAnLXRuJywgJzgnLCAnLW1hJywgJzIwMCcsICctbWV0YWxfYmluZGluZycsICctaW1hZScsICc8aW5maWxlLm1hZT4nLCAnLW9tYWUnLCAnPG91dGZpbGUubWFlPic=

> <r_lp_tautomer_probability>
1

> <r_epik_Ionization_Penalty>
4.05776e-05

> <r_epik_Ionization_Penalty_Charging>
0

> <r_epik_Ionization_Penalty_Neutral>
4.05776e-05

> <r_epik_State_Penalty>
-0

> <r_epik_Charging_Adjusted_Penalty>
0

> <i_epik_Tot_Q>
0

> <i_epik_Tot_abs_Q>
0

> <r_epik_Metal_State_Penalty>
-0

> <b_epik_Metal_Only>
0

> <s_lp_Force_Field>
OPLS_2005

> <r_lp_Energy>
85.3989

> <b_lp_Chiralities_Consistent>
1

> <s_lp_Variant>
AV-unprocessed.smi:2781-3

> <Gold.Version>
5.8.1

> <Gold.Id.Protein>
6NUR|6NUR_protein|mol2

> <Gold.PLP.Fitness>
40.4042

> <Gold.PLP.PLP>
-34.8315

> <Gold.PLP.part.hbond>
-2.0000

> <Gold.PLP.part.metal>
0.0000

> <Gold.PLP.part.buried>
-3.6647

> <Gold.PLP.part.nonpolar>
-29.4712

> <Gold.PLP.part.repulsive>
0.2407

> <Gold.PLP.ligand.clash>
0.0000

> <Gold.PLP.ligand.torsion>
0.0385

> <Gold.PLP.Chemscore.Hbond>
1.8590

> <Gold.PLP.Chemscore.CHOScore>
0.0000

> <Gold.PLP.Chemscore.Metal>
0.0000

> <Gold.Chemscore.Hbonds>
donor molecule, donor type, donor heavy atom, donor atom, acceptor molecule, acceptor atom, score
      L1  H     3    20       P1  8028  0.87
      L1  H    11    24       P1  8028  1.00

> <Gold.PLP.Chemscore.Internal.Correction>
0.0726

> <Gold.Rescore>
     Score         DG    S(hbond)    S(metal)    S(lipo)     H(rot)  DE(clash)    DE(int)     intcor
     16.81     -18.86       1.97        0.00      79.91       1.00       0.71       1.33       ----

> <Gold.Chemscore.Fitness>
16.8129

> <Gold.Chemscore.DG>
-18.8580

> <Gold.Chemscore.ZeroCoef>
-5.4800

> <Gold.Chemscore.Hbond>
1.9726

> <Gold.Chemscore.Metal>
0.0000

> <Gold.Chemscore.Lipo>
79.9095

> <Gold.Chemscore.Internal_Hbond>
0.0000

> <Gold.Chemscore.DEClash>
0.7137

> <Gold.Chemscore.DEInternal>
1.3314

> <Gold.Chemscore.Rot>
1.0000

> <Gold.Chemscore.Internal.Correction>
   9.000000E+99

> <Gold.Chemscore.Hbonds>
donor molecule, donor type, donor heavy atom, donor atom, acceptor molecule, acceptor atom, score
      L1  H     3    20       P1  8028  0.79
      L1  H    11    24       P1  8028  0.94

> <Gold.Chemscore.Hbond.Weighted>
-6.5886

> <Gold.Chemscore.Metal.Weighted>
-0.0000

> <Gold.Chemscore.Lipo.Weighted>
-9.3494

> <Gold.Chemscore.Internal_Hbond.Weighted>
0.0000

> <Gold.Chemscore.DEClash.Weighted>
0.7137

> <Gold.Chemscore.DEInternal.Weighted>
1.3314

> <Gold.Chemscore.Rot.Weighted>
2.5600

> <Gold.Chemscore.Internal.Correction.Weighted>
   9.000000E+99

> <Gold.Protein.RotatedTorsions>
[ 6907 6896 6895 6894 ] final  137.90 input  -60.11 | X-H torsion
[ 7974 7965 7964 7962 ] final -131.49 input  175.53 | X-H torsion
[ 8008 7997 7996 7995 ] final   79.35 input   59.86 | X-H torsion
[ 10167 10162 10161 10158 ] final -117.27 input  -65.29 | X-H torsion
[ 10718 10713 10712 10709 ] final -122.55 input   66.30 | X-H torsion
[ 10763 10752 10751 10750 ] final  142.64 input  -60.55 | X-H torsion
[ 11005 11000 10999 10996 ] final  175.60 input  -57.11 | X-H torsion

> <Gold.Protein.ActiveResidues>
 VAL166  LYS551  ARG553  GLY616  TRP617  ASP618  TYR619  PRO620  LYS621  CYS622 
 ASP623  PHE694  ASN695  SER759  ASP760  ASP761  ALA762  ILE779  LEU786  VAL792 
 PHE793  MET794  SER795  GLU796  ALA797  LYS798  CYS799  TRP800  GLU811  SER814 

> <Gold.Protein.RotatedAtoms>
  152.2728  133.5398  159.5449 H   0  0  0  0  0  0  0  0  0  0  0  0  # atno 6907 bound_to 6896
  150.7165  134.0674  159.3861 H   0  0  0  0  0  0  0  0  0  0  0  0  # atno 6908 bound_to 6896
  151.8588  135.0531  160.0518 H   0  0  0  0  0  0  0  0  0  0  0  0  # atno 6909 bound_to 6896
  144.9374  140.7199  143.4868 H   0  0  0  0  0  0  0  0  0  0  0  0  # atno 7974 bound_to 7965
  155.8684  140.3450  155.5804 H   0  0  0  0  0  0  0  0  0  0  0  0  # atno 8008 bound_to 7997
  155.7855  140.0864  157.2056 H   0  0  0  0  0  0  0  0  0  0  0  0  # atno 8009 bound_to 7997
  154.4016  140.1493  156.3089 H   0  0  0  0  0  0  0  0  0  0  0  0  # atno 8010 bound_to 7997
  140.0702  143.4884  152.1984 H   0  0  0  0  0  0  0  0  0  0  0  0  # atno 10167 bound_to 10162
  156.1428  130.6478  150.9796 H   0  0  0  0  0  0  0  0  0  0  0  0  # atno 10718 bound_to 10713
  153.9592  135.2962  155.3434 H   0  0  0  0  0  0  0  0  0  0  0  0  # atno 10763 bound_to 10752
  154.7384  135.5036  153.9084 H   0  0  0  0  0  0  0  0  0  0  0  0  # atno 10764 bound_to 10752
  153.0955  135.6720  153.9881 H   0  0  0  0  0  0  0  0  0  0  0  0  # atno 10765 bound_to 10752
  140.3640  134.7088  157.4349 H   0  0  0  0  0  0  0  0  0  0  0  0  # atno 11005 bound_to 11000
  145.3045  139.1839  143.4671 LP  0  0  0  0  0  0  0  0  0  0  0  0  # atno 17320 bound_to 7965
  146.3272  140.3041  142.8622 LP  0  0  0  0  0  0  0  0  0  0  0  0  # atno 17321 bound_to 7965
  139.5840  144.7523  151.3566 LP  0  0  0  0  0  0  0  0  0  0  0  0  # atno 17342 bound_to 10162
  140.7129  143.7343  150.7600 LP  0  0  0  0  0  0  0  0  0  0  0  0  # atno 17343 bound_to 10162
  157.6590  131.0884  150.7882 LP  0  0  0  0  0  0  0  0  0  0  0  0  # atno 17370 bound_to 10713
  156.7956  130.4904  149.5378 LP  0  0  0  0  0  0  0  0  0  0  0  0  # atno 17371 bound_to 10713
  140.0604  134.6004  155.8755 LP  0  0  0  0  0  0  0  0  0  0  0  0  # atno 17394 bound_to 11000
  141.1975  133.6597  156.5746 LP  0  0  0  0  0  0  0  0  0  0  0  0  # atno 17395 bound_to 11000

$$$$
