AV-unprocessed.smi:36|AV-procd|sdf|299|dock4
  -GOLD-   2262016103D 1   1.00000     0.00000
 Structure written by MMmdl.
 63 66  0  0  0  0  0  0  0  0  2 V2000
  146.2504  132.0223  156.6161 C   0  0  0  0  0  0  0  0  0  0  0  0
  146.2833  133.5583  156.5553 C   0  0  0  0  0  0  0  0  0  0  0  0
  144.9306  134.1225  157.0218 C   0  0  0  0  0  0  0  0  0  0  0  0
  147.4109  134.0937  157.4530 C   0  0  0  0  0  0  0  0  0  0  0  0
  146.5947  134.1064  154.7517 Si  0  0  0  0  0  0  0  0  0  0  0  0
  148.3107  133.5374  154.1610 C   0  0  0  0  0  0  0  0  0  0  0  0
  145.2645  133.4156  153.5849 C   0  0  0  0  0  0  0  0  0  0  0  0
  146.5060  135.7979  154.7013 O   0  0  0  0  0  0  0  0  0  0  0  0
  146.2660  136.5539  153.5302 C   0  0  0  0  0  0  0  0  0  0  0  0
  146.9803  137.9084  153.6529 C   0  0  2  0  0  0  0  0  0  0  0  0
  146.3803  138.7276  154.6470 O   0  0  0  0  0  0  0  0  0  0  0  0
  146.8556  140.0304  154.4973 C   0  0  1  0  0  0  0  0  0  0  0  0
  148.0805  140.1915  155.3491 N   0  0  0  0  0  0  0  0  0  0  0  0
  148.3045  141.0500  156.3675 C   0  0  0  0  0  0  0  0  0  0  0  0
  149.4996  141.0123  156.9528 N   0  0  0  0  0  0  0  0  0  0  0  0
  150.1408  140.0289  156.2145 C   0  0  0  0  0  0  0  0  0  0  0  0
  151.4513  139.4818  156.2811 C   0  0  0  0  0  0  0  0  0  0  0  0
  152.3587  139.8820  157.1847 N   0  5  0  0  0  0  0  0  0  0  0  0
  151.9651  140.1794  158.4493 C   0  0  0  0  0  0  0  0  0  0  0  0
  151.5302  139.4091  159.3082 O   0  0  0  0  0  0  0  0  0  0  0  0
  152.0257  141.6508  158.7597 C   0  0  0  0  0  0  0  0  0  0  0  0
  152.5607  142.0837  159.9945 C   0  0  0  0  0  0  0  0  0  0  0  0
  152.6477  143.4569  160.2955 C   0  0  0  0  0  0  0  0  0  0  0  0
  152.2098  144.4126  159.3599 C   0  0  0  0  0  0  0  0  0  0  0  0
  151.6891  143.9942  158.1209 C   0  0  0  0  0  0  0  0  0  0  0  0
  151.6006  142.6210  157.8197 C   0  0  0  0  0  0  0  0  0  0  0  0
  151.7563  138.5058  155.3877 N   0  0  0  0  0  0  0  0  0  0  0  0
  150.8519  138.1095  154.4841 C   0  0  0  0  0  0  0  0  0  0  0  0
  149.5993  138.5398  154.3032 N   0  0  0  0  0  0  0  0  0  0  0  0
  149.2772  139.5111  155.2063 C   0  0  0  0  0  0  0  0  0  0  0  0
  147.2037  140.2003  153.0060 C   0  0  0  0  0  0  0  0  0  0  0  0
  146.9559  138.8154  152.4193 C   0  0  2  0  0  0  0  0  0  0  0  0
  145.7059  138.7689  151.7573 O   0  0  0  0  0  0  0  0  0  0  0  0
  146.0547  131.6697  157.6294 H   0  0  0  0  0  0  0  0  0  0  0  0
  147.1986  131.5901  156.2960 H   0  0  0  0  0  0  0  0  0  0  0  0
  145.4700  131.6179  155.9707 H   0  0  0  0  0  0  0  0  0  0  0  0
  144.1150  133.7601  156.3953 H   0  0  0  0  0  0  0  0  0  0  0  0
  144.9159  135.2120  156.9826 H   0  0  0  0  0  0  0  0  0  0  0  0
  144.7104  133.8293  158.0489 H   0  0  0  0  0  0  0  0  0  0  0  0
  147.2635  133.7988  158.4925 H   0  0  0  0  0  0  0  0  0  0  0  0
  147.4587  135.1827  157.4248 H   0  0  0  0  0  0  0  0  0  0  0  0
  148.3832  133.7132  157.1390 H   0  0  0  0  0  0  0  0  0  0  0  0
  148.3864  132.4505  154.1448 H   0  0  0  0  0  0  0  0  0  0  0  0
  149.1048  133.9050  154.8108 H   0  0  0  0  0  0  0  0  0  0  0  0
  148.5250  133.8898  153.1525 H   0  0  0  0  0  0  0  0  0  0  0  0
  145.2578  132.3258  153.5854 H   0  0  0  0  0  0  0  0  0  0  0  0
  145.4285  133.7381  152.5569 H   0  0  0  0  0  0  0  0  0  0  0  0
  144.2673  133.7475  153.8727 H   0  0  0  0  0  0  0  0  0  0  0  0
  146.6376  136.0046  152.6644 H   0  0  0  0  0  0  0  0  0  0  0  0
  145.1919  136.6841  153.3956 H   0  0  0  0  0  0  0  0  0  0  0  0
  148.0226  137.7436  153.9232 H   0  0  0  0  0  0  0  0  0  0  0  0
  146.1528  140.7685  154.8850 H   0  0  0  0  0  0  0  0  0  0  0  0
  147.5488  141.7436  156.7045 H   0  0  0  0  0  0  0  0  0  0  0  0
  152.9025  141.3622  160.7227 H   0  0  0  0  0  0  0  0  0  0  0  0
  153.0517  143.7759  161.2448 H   0  0  0  0  0  0  0  0  0  0  0  0
  152.2771  145.4654  159.5903 H   0  0  0  0  0  0  0  0  0  0  0  0
  151.3594  144.7265  157.3987 H   0  0  0  0  0  0  0  0  0  0  0  0
  151.2075  142.3201  156.8592 H   0  0  0  0  0  0  0  0  0  0  0  0
  151.1794  137.3333  153.8086 H   0  0  0  0  0  0  0  0  0  0  0  0
  146.5786  140.9724  152.5553 H   0  0  0  0  0  0  0  0  0  0  0  0
  148.2476  140.4928  152.8862 H   0  0  0  0  0  0  0  0  0  0  0  0
  147.7309  138.5358  151.7050 H   0  0  0  0  0  0  0  0  0  0  0  0
  145.2998  139.6199  151.8193 H   0  0  0  0  0  0  0  0  0  0  0  0
  1  2  1  0  0  0  0
  1 34  1  0  0  0  0
  1 35  1  0  0  0  0
  1 36  1  0  0  0  0
  2  3  1  0  0  0  0
  2  4  1  0  0  0  0
  2  5  1  0  0  0  0
  3 37  1  0  0  0  0
  3 38  1  0  0  0  0
  3 39  1  0  0  0  0
  4 40  1  0  0  0  0
  4 41  1  0  0  0  0
  4 42  1  0  0  0  0
  5  6  1  0  0  0  0
  5  7  1  0  0  0  0
  5  8  1  0  0  0  0
  6 43  1  0  0  0  0
  6 44  1  0  0  0  0
  6 45  1  0  0  0  0
  7 46  1  0  0  0  0
  7 47  1  0  0  0  0
  7 48  1  0  0  0  0
  8  9  1  0  0  0  0
  9 10  1  0  0  0  0
  9 49  1  0  0  0  0
  9 50  1  0  0  0  0
 10 32  1  0  0  0  0
 10 11  1  0  0  0  0
 10 51  1  0  0  0  0
 11 12  1  0  0  0  0
 12 13  1  0  0  0  0
 12 31  1  0  0  0  0
 12 52  1  0  0  0  0
 13 30  1  0  0  0  0
 13 14  1  0  0  0  0
 14 15  2  0  0  0  0
 14 53  1  0  0  0  0
 15 16  1  0  0  0  0
 16 30  2  0  0  0  0
 16 17  1  0  0  0  0
 17 18  1  0  0  0  0
 17 27  2  0  0  0  0
 18 19  1  0  0  0  0
 19 20  2  0  0  0  0
 19 21  1  0  0  0  0
 21 26  1  0  0  0  0
 21 22  2  0  0  0  0
 22 23  1  0  0  0  0
 22 54  1  0  0  0  0
 23 24  2  0  0  0  0
 23 55  1  0  0  0  0
 24 25  1  0  0  0  0
 24 56  1  0  0  0  0
 25 26  2  0  0  0  0
 25 57  1  0  0  0  0
 26 58  1  0  0  0  0
 27 28  1  0  0  0  0
 28 29  2  0  0  0  0
 28 59  1  0  0  0  0
 29 30  1  0  0  0  0
 31 32  1  0  0  0  0
 31 60  1  0  0  0  0
 31 61  1  0  0  0  0
 32 33  1  0  0  0  0
 32 62  1  0  0  0  0
 33 63  1  0  0  0  0
M  CHG  1  18  -1
M  END
> <s_m_source_file>
AV-unprocessed.smi

> <i_m_source_file_index>
36

> <i_lp_mmshare_version>
43012

> <i_f3d_flags>
0

> <s_epik_input>
W0NIM11DKFtDSDNdKShbQ0gzXSlbU2ldKFtDSDNdKShbQ0gzXSlPW0NIMl1bQ0BASF0xT1tDQEhdKFtDSDJdW0NASF0xW09IXSluKFtjSF1uMiljKGMyMyluW2NIXW5jM1tOSF1DKD1PKWM0W2NIXVtjSF1bY0hdW2NIXVtjSF00

> <s_epik_cmdline>
J2VwaWtfcHl0aG9uJywgJy1waCcsICc3LjAnLCAnLXRuJywgJzgnLCAnLW1hJywgJzIwMCcsICctbWV0YWxfYmluZGluZycsICctaW1hZScsICc8aW5maWxlLm1hZT4nLCAnLW9tYWUnLCAnPG91dGZpbGUubWFlPic=

> <r_lp_tautomer_probability>
1

> <r_epik_Ionization_Penalty>
4.75685

> <r_epik_Ionization_Penalty_Charging>
3.55822

> <r_epik_Ionization_Penalty_Neutral>
1.19863

> <r_epik_State_Penalty>
3.564

> <r_epik_Charging_Adjusted_Penalty>
7.12222

> <i_epik_Tot_Q>
-1

> <i_epik_Tot_abs_Q>
1

> <r_epik_Metal_State_Penalty>
0.523258

> <b_epik_Metal_Only>
1

> <s_epik_Chemistry_Notes>
This compound contains an acetal/aminal-like group ( X-CH(R)-Y where X, Y are N, S, or O) that may be acid/base labile, releasing an aldehyde.

> <s_lp_Force_Field>
OPLS_2005

> <r_lp_Energy>
31.8214

> <b_lp_Chiralities_Consistent>
1

> <s_lp_Variant>
AV-unprocessed.smi:36-21

> <Gold.Version>
5.8.1

> <Gold.Id.Protein>
6NUR|6NUR_protein|mol2

> <Gold.PLP.Fitness>
54.1563

> <Gold.PLP.PLP>
-46.3066

> <Gold.PLP.part.hbond>
-3.0000

> <Gold.PLP.part.metal>
0.0000

> <Gold.PLP.part.buried>
-3.3999

> <Gold.PLP.part.nonpolar>
-39.4201

> <Gold.PLP.part.repulsive>
0.4876

> <Gold.PLP.ligand.clash>
0.0000

> <Gold.PLP.ligand.torsion>
2.2503

> <Gold.PLP.Chemscore.Hbond>
3.0000

> <Gold.PLP.Chemscore.CHOScore>
1.0000

> <Gold.PLP.Chemscore.Metal>
0.0000

> <Gold.Chemscore.Hbonds>
donor molecule, donor type, donor heavy atom, donor atom, acceptor molecule, acceptor atom, score
      L1  H    33    63       P1 10175  0.83
      P1  H  7997  8010       L1    18  1.62
      L1  C    28    59       P1  7949  0.63

> <Gold.PLP.Chemscore.Internal.Correction>
0.3503

> <Gold.Rescore>
     Score         DG    S(hbond)    S(metal)    S(lipo)     H(rot)  DE(clash)    DE(int)     intcor
     12.97     -16.84       1.86        0.00     102.45       2.67       0.00       3.87       ----

> <Gold.Chemscore.Fitness>
12.9712

> <Gold.Chemscore.DG>
-16.8385

> <Gold.Chemscore.ZeroCoef>
-5.4800

> <Gold.Chemscore.Hbond>
1.8584

> <Gold.Chemscore.Metal>
0.0000

> <Gold.Chemscore.Lipo>
102.4541

> <Gold.Chemscore.Internal_Hbond>
0.0000

> <Gold.Chemscore.DEClash>
0.0022

> <Gold.Chemscore.DEInternal>
3.8651

> <Gold.Chemscore.Rot>
2.6702

> <Gold.Chemscore.Internal.Correction>
   9.000000E+99

> <Gold.Chemscore.Hbonds>
donor molecule, donor type, donor heavy atom, donor atom, acceptor molecule, acceptor atom, score
      L1  H    33    63       P1 10175  0.64
      P1  H  7997  8010       L1    18  0.75

> <Gold.Chemscore.Hbond.Weighted>
-6.2071

> <Gold.Chemscore.Metal.Weighted>
-0.0000

> <Gold.Chemscore.Lipo.Weighted>
-11.9871

> <Gold.Chemscore.Internal_Hbond.Weighted>
0.0000

> <Gold.Chemscore.DEClash.Weighted>
0.0022

> <Gold.Chemscore.DEInternal.Weighted>
3.8651

> <Gold.Chemscore.Rot.Weighted>
6.8358

> <Gold.Chemscore.Internal.Correction.Weighted>
   9.000000E+99

> <Gold.Protein.RotatedTorsions>
[ 6907 6896 6895 6894 ] final   -4.96 input  -60.11 | X-H torsion
[ 7974 7965 7964 7962 ] final -100.83 input  175.53 | X-H torsion
[ 8008 7997 7996 7995 ] final   53.71 input   59.86 | X-H torsion
[ 10167 10162 10161 10158 ] final   68.23 input  -65.29 | X-H torsion
[ 10718 10713 10712 10709 ] final  125.75 input   66.30 | X-H torsion
[ 10763 10752 10751 10750 ] final   51.25 input  -60.55 | X-H torsion
[ 11005 11000 10999 10996 ] final -176.10 input  -57.11 | X-H torsion

> <Gold.Protein.ActiveResidues>
 VAL166  LYS551  ARG553  GLY616  TRP617  ASP618  TYR619  PRO620  LYS621  CYS622 
 ASP623  PHE694  ASN695  SER759  ASP760  ASP761  ALA762  ILE779  LEU786  VAL792 
 PHE793  MET794  SER795  GLU796  ALA797  LYS798  CYS799  TRP800  GLU811  SER814 

> <Gold.Protein.RotatedAtoms>
  151.4893  135.1056  159.9798 H   0  0  0  0  0  0  0  0  0  0  0  0  # atno 6907 bound_to 6896
  152.4747  133.8108  159.7013 H   0  0  0  0  0  0  0  0  0  0  0  0  # atno 6908 bound_to 6896
  150.8778  133.7352  159.2967 H   0  0  0  0  0  0  0  0  0  0  0  0  # atno 6909 bound_to 6896
  145.2894  140.9348  143.2886 H   0  0  0  0  0  0  0  0  0  0  0  0  # atno 7974 bound_to 7965
  155.4727  140.3466  155.4328 H   0  0  0  0  0  0  0  0  0  0  0  0  # atno 8008 bound_to 7997
  156.1090  140.1455  156.9394 H   0  0  0  0  0  0  0  0  0  0  0  0  # atno 8009 bound_to 7997
  154.4743  140.0890  156.7202 H   0  0  0  0  0  0  0  0  0  0  0  0  # atno 8010 bound_to 7997
  140.0809  144.5072  150.7163 H   0  0  0  0  0  0  0  0  0  0  0  0  # atno 10167 bound_to 10162
  157.5477  131.1095  150.8755 H   0  0  0  0  0  0  0  0  0  0  0  0  # atno 10718 bound_to 10713
  152.9785  135.5852  154.4384 H   0  0  0  0  0  0  0  0  0  0  0  0  # atno 10763 bound_to 10752
  154.3988  135.2768  155.2111 H   0  0  0  0  0  0  0  0  0  0  0  0  # atno 10764 bound_to 10752
  154.3951  135.6116  153.5919 H   0  0  0  0  0  0  0  0  0  0  0  0  # atno 10765 bound_to 10752
  140.4559  134.6300  157.4821 H   0  0  0  0  0  0  0  0  0  0  0  0  # atno 11005 bound_to 11000
  144.9185  139.4440  143.6552 LP  0  0  0  0  0  0  0  0  0  0  0  0  # atno 17320 bound_to 7965
  146.3190  139.8032  142.8961 LP  0  0  0  0  0  0  0  0  0  0  0  0  # atno 17321 bound_to 7965
  140.7078  143.2481  151.4673 LP  0  0  0  0  0  0  0  0  0  0  0  0  # atno 17342 bound_to 10162
  139.5780  144.1774  152.1930 LP  0  0  0  0  0  0  0  0  0  0  0  0  # atno 17343 bound_to 10162
  156.9289  130.5342  149.5279 LP  0  0  0  0  0  0  0  0  0  0  0  0  # atno 17370 bound_to 10713
  156.0549  130.5612  150.9071 LP  0  0  0  0  0  0  0  0  0  0  0  0  # atno 17371 bound_to 10713
  139.9977  134.6886  155.9583 LP  0  0  0  0  0  0  0  0  0  0  0  0  # atno 17394 bound_to 11000
  141.1643  133.6537  156.4426 LP  0  0  0  0  0  0  0  0  0  0  0  0  # atno 17395 bound_to 11000

$$$$
