AV-unprocessed.smi:1327|AV-procd|sdf|5477|dock3
  -GOLD-   22720 5 53D 1   1.00000     0.00000
 Structure written by MMmdl.
 40 41  0  0  0  0  0  0  0  0  1 V2000
  152.4017  140.1800  154.7574 O   0  0  0  0  0  0  0  0  0  0  0  0
  151.4832  139.0933  155.1301 S   0  0  0  0  0  0  0  0  0  0  0  0
  151.6849  137.7251  154.6291 O   0  0  0  0  0  0  0  0  0  0  0  0
  151.3917  139.0161  156.8481 N   0  0  0  0  0  0  0  0  0  0  0  0
  150.8397  140.1583  157.5747 C   0  0  0  0  0  0  0  0  0  0  0  0
  151.7439  140.5557  158.7534 C   0  0  0  0  0  0  0  0  0  0  0  0
  151.8688  142.0597  158.9366 C   0  0  0  0  0  0  0  0  0  0  0  0
  152.5372  142.5911  160.0604 C   0  0  0  0  0  0  0  0  0  0  0  0
  152.6183  143.9906  160.1945 C   0  0  0  0  0  0  0  0  0  0  0  0
  152.0293  144.8019  159.2057 C   0  0  0  0  0  0  0  0  0  0  0  0
  151.3837  144.1748  158.1217 C   0  0  0  0  0  0  0  0  0  0  0  0
  151.3016  142.8339  157.9829 N   0  0  0  0  0  0  0  0  0  0  0  0
  149.8592  139.5966  154.7867 N   0  0  0  0  0  0  0  0  0  0  0  0
  149.0078  138.6914  153.9943 C   0  0  0  0  0  0  0  0  0  0  0  0
  147.5059  138.8399  154.3071 C   0  0  0  0  0  0  0  0  0  0  0  0
  146.8826  140.1260  153.7431 C   0  0  0  0  0  0  0  0  0  0  0  0
  147.0382  141.3671  154.6395 C   0  0  0  0  0  0  0  0  0  0  0  0
  148.3699  141.4833  155.4012 C   0  0  0  0  0  0  0  0  0  0  0  0
  149.6054  141.0389  154.6047 C   0  0  0  0  0  0  0  0  0  0  0  0
  152.2559  138.6665  157.2626 H   0  0  0  0  0  0  0  0  0  0  0  0
  150.7182  140.9992  156.8909 H   0  0  0  0  0  0  0  0  0  0  0  0
  149.8464  139.8926  157.9368 H   0  0  0  0  0  0  0  0  0  0  0  0
  151.3465  140.1241  159.6727 H   0  0  0  0  0  0  0  0  0  0  0  0
  152.7376  140.1238  158.6254 H   0  0  0  0  0  0  0  0  0  0  0  0
  152.9759  141.9430  160.8049 H   0  0  0  0  0  0  0  0  0  0  0  0
  153.1222  144.4336  161.0408 H   0  0  0  0  0  0  0  0  0  0  0  0
  152.0708  145.8787  159.2762 H   0  0  0  0  0  0  0  0  0  0  0  0
  150.9206  144.7664  157.3460 H   0  0  0  0  0  0  0  0  0  0  0  0
  149.2046  138.8452  152.9328 H   0  0  0  0  0  0  0  0  0  0  0  0
  149.2926  137.6614  154.2075 H   0  0  0  0  0  0  0  0  0  0  0  0
  146.9934  137.9945  153.8466 H   0  0  0  0  0  0  0  0  0  0  0  0
  147.3172  138.7498  155.3775 H   0  0  0  0  0  0  0  0  0  0  0  0
  147.3034  140.3276  152.7571 H   0  0  0  0  0  0  0  0  0  0  0  0
  145.8177  139.9631  153.5738 H   0  0  0  0  0  0  0  0  0  0  0  0
  146.9001  142.2536  154.0194 H   0  0  0  0  0  0  0  0  0  0  0  0
  146.2268  141.3896  155.3679 H   0  0  0  0  0  0  0  0  0  0  0  0
  148.4954  142.5238  155.7024 H   0  0  0  0  0  0  0  0  0  0  0  0
  148.3163  140.9194  156.3339 H   0  0  0  0  0  0  0  0  0  0  0  0
  150.4666  141.6006  154.9662 H   0  0  0  0  0  0  0  0  0  0  0  0
  149.5194  141.2813  153.5449 H   0  0  0  0  0  0  0  0  0  0  0  0
  1  2  2  0  0  0  0
  2  3  2  0  0  0  0
  2  4  1  0  0  0  0
  2 13  1  0  0  0  0
  4  5  1  0  0  0  0
  4 20  1  0  0  0  0
  5  6  1  0  0  0  0
  5 21  1  0  0  0  0
  5 22  1  0  0  0  0
  6  7  1  0  0  0  0
  6 23  1  0  0  0  0
  6 24  1  0  0  0  0
  7 12  1  0  0  0  0
  7  8  2  0  0  0  0
  8  9  1  0  0  0  0
  8 25  1  0  0  0  0
  9 10  2  0  0  0  0
  9 26  1  0  0  0  0
 10 11  1  0  0  0  0
 10 27  1  0  0  0  0
 11 12  2  0  0  0  0
 11 28  1  0  0  0  0
 13 19  1  0  0  0  0
 13 14  1  0  0  0  0
 14 15  1  0  0  0  0
 14 29  1  0  0  0  0
 14 30  1  0  0  0  0
 15 16  1  0  0  0  0
 15 31  1  0  0  0  0
 15 32  1  0  0  0  0
 16 17  1  0  0  0  0
 16 33  1  0  0  0  0
 16 34  1  0  0  0  0
 17 18  1  0  0  0  0
 17 35  1  0  0  0  0
 17 36  1  0  0  0  0
 18 19  1  0  0  0  0
 18 37  1  0  0  0  0
 18 38  1  0  0  0  0
 19 39  1  0  0  0  0
 19 40  1  0  0  0  0
M  END
> <s_m_source_file>
AV-unprocessed.smi

> <i_m_source_file_index>
1327

> <i_lp_mmshare_version>
43012

> <i_f3d_flags>
0

> <s_epik_input>
W0NIMl0xW0NIMl1bQ0gyXVtDSDJdW0NIMl1bQ0gyXU4xUyg9TykoPU8pW05IXVtDSDJdW0NIMl1jMltjSF1bY0hdW2NIXVtjSF1uMg==

> <s_epik_cmdline>
J2VwaWtfcHl0aG9uJywgJy1waCcsICc3LjAnLCAnLXRuJywgJzgnLCAnLW1hJywgJzIwMCcsICctbWV0YWxfYmluZGluZycsICctaW1hZScsICc8aW5maWxlLm1hZT4nLCAnLW9tYWUnLCAnPG91dGZpbGUubWFlPic=

> <r_lp_tautomer_probability>
1

> <r_epik_Ionization_Penalty>
0.00665037

> <r_epik_Ionization_Penalty_Charging>
0

> <r_epik_Ionization_Penalty_Neutral>
0.00665037

> <r_epik_State_Penalty>
-0

> <r_epik_Charging_Adjusted_Penalty>
0

> <i_epik_Tot_Q>
0

> <i_epik_Tot_abs_Q>
0

> <r_epik_Metal_State_Penalty>
0.361784

> <b_epik_Metal_Only>
0

> <s_lp_Force_Field>
OPLS_2005

> <r_lp_Energy>
15.8899

> <b_lp_Chiralities_Consistent>
1

> <s_lp_Variant>
AV-unprocessed.smi:1327-1

> <Gold.Version>
5.8.1

> <Gold.Id.Protein>
6NUR|6NUR_protein|mol2

> <Gold.PLP.Fitness>
47.1461

> <Gold.PLP.PLP>
-38.8377

> <Gold.PLP.part.hbond>
-2.9861

> <Gold.PLP.part.metal>
0.0000

> <Gold.PLP.part.buried>
-0.3966

> <Gold.PLP.part.nonpolar>
-37.3881

> <Gold.PLP.part.repulsive>
0.1877

> <Gold.PLP.ligand.clash>
0.0000

> <Gold.PLP.ligand.torsion>
1.8400

> <Gold.PLP.Chemscore.Hbond>
2.2792

> <Gold.PLP.Chemscore.CHOScore>
1.0000

> <Gold.PLP.Chemscore.Metal>
0.0000

> <Gold.Chemscore.Hbonds>
donor molecule, donor type, donor heavy atom, donor atom, acceptor molecule, acceptor atom, score
      P1  H  7989  7998       L1     1  0.54
      P1  H  7997  8009       L1     1  0.23
      L1  C    11    28       P1  8028  0.82

> <Gold.PLP.Chemscore.Internal.Correction>
2.1508

> <Gold.Rescore>
     Score         DG    S(hbond)    S(metal)    S(lipo)     H(rot)  DE(clash)    DE(int)     intcor
     17.71     -19.70       1.68        0.00     105.77       1.47       0.23       1.77       ----

> <Gold.Chemscore.Fitness>
17.7097

> <Gold.Chemscore.DG>
-19.7046

> <Gold.Chemscore.ZeroCoef>
-5.4800

> <Gold.Chemscore.Hbond>
1.6825

> <Gold.Chemscore.Metal>
0.0000

> <Gold.Chemscore.Lipo>
105.7686

> <Gold.Chemscore.Internal_Hbond>
0.0000

> <Gold.Chemscore.DEClash>
0.2276

> <Gold.Chemscore.DEInternal>
1.7673

> <Gold.Chemscore.Rot>
1.4725

> <Gold.Chemscore.Internal.Correction>
   9.000000E+99

> <Gold.Chemscore.Hbonds>
donor molecule, donor type, donor heavy atom, donor atom, acceptor molecule, acceptor atom, score
      P1  H  7989  7998       L1     1  0.24
      P1  H  7997  8009       L1     1  0.21
      P1  H 10752 10764       L1     3  0.03

> <Gold.Chemscore.Hbond.Weighted>
-5.6194

> <Gold.Chemscore.Metal.Weighted>
-0.0000

> <Gold.Chemscore.Lipo.Weighted>
-12.3749

> <Gold.Chemscore.Internal_Hbond.Weighted>
0.0000

> <Gold.Chemscore.DEClash.Weighted>
0.2276

> <Gold.Chemscore.DEInternal.Weighted>
1.7673

> <Gold.Chemscore.Rot.Weighted>
3.7697

> <Gold.Chemscore.Internal.Correction.Weighted>
   9.000000E+99

> <Gold.Protein.RotatedTorsions>
[ 6907 6896 6895 6894 ] final  133.55 input  -60.11 | X-H torsion
[ 7974 7965 7964 7962 ] final  115.77 input  175.53 | X-H torsion
[ 8008 7997 7996 7995 ] final -139.29 input   59.86 | X-H torsion
[ 10167 10162 10161 10158 ] final  129.39 input  -65.29 | X-H torsion
[ 10718 10713 10712 10709 ] final -150.86 input   66.30 | X-H torsion
[ 10763 10752 10751 10750 ] final  -59.99 input  -60.55 | X-H torsion
[ 11005 11000 10999 10996 ] final   53.23 input  -57.11 | X-H torsion

> <Gold.Protein.ActiveResidues>
 VAL166  LYS551  ARG553  GLY616  TRP617  ASP618  TYR619  PRO620  LYS621  CYS622 
 ASP623  PHE694  ASN695  SER759  ASP760  ASP761  ALA762  ILE779  LEU786  VAL792 
 PHE793  MET794  SER795  GLU796  ALA797  LYS798  CYS799  TRP800  GLU811  SER814 

> <Gold.Protein.RotatedAtoms>
  152.3207  133.5851  159.5742 H   0  0  0  0  0  0  0  0  0  0  0  0  # atno 6907 bound_to 6896
  150.7370  134.0015  159.3649 H   0  0  0  0  0  0  0  0  0  0  0  0  # atno 6908 bound_to 6896
  151.7900  135.0739  160.0437 H   0  0  0  0  0  0  0  0  0  0  0  0  # atno 6909 bound_to 6896
  145.1878  139.3016  143.4384 H   0  0  0  0  0  0  0  0  0  0  0  0  # atno 7974 bound_to 7965
  155.4425  140.0533  157.3009 H   0  0  0  0  0  0  0  0  0  0  0  0  # atno 8008 bound_to 7997
  154.4812  140.2082  155.9717 H   0  0  0  0  0  0  0  0  0  0  0  0  # atno 8009 bound_to 7997
  156.1208  140.3188  155.8210 H   0  0  0  0  0  0  0  0  0  0  0  0  # atno 8010 bound_to 7997
  139.5480  144.6790  151.4412 H   0  0  0  0  0  0  0  0  0  0  0  0  # atno 10167 bound_to 10162
  156.4516  130.8171  151.2401 H   0  0  0  0  0  0  0  0  0  0  0  0  # atno 10718 bound_to 10713
  154.2623  135.6306  153.5279 H   0  0  0  0  0  0  0  0  0  0  0  0  # atno 10763 bound_to 10752
  152.9893  135.5590  154.5690 H   0  0  0  0  0  0  0  0  0  0  0  0  # atno 10764 bound_to 10752
  154.5242  135.2884  155.1211 H   0  0  0  0  0  0  0  0  0  0  0  0  # atno 10765 bound_to 10752
  140.0784  134.5373  155.8972 H   0  0  0  0  0  0  0  0  0  0  0  0  # atno 11005 bound_to 11000
  146.3441  140.2080  142.8590 LP  0  0  0  0  0  0  0  0  0  0  0  0  # atno 17320 bound_to 7965
  145.0071  140.8682  143.5246 LP  0  0  0  0  0  0  0  0  0  0  0  0  # atno 17321 bound_to 7965
  140.6734  143.8242  150.7028 LP  0  0  0  0  0  0  0  0  0  0  0  0  # atno 17342 bound_to 10162
  140.1674  143.4224  152.2025 LP  0  0  0  0  0  0  0  0  0  0  0  0  # atno 17343 bound_to 10162
  157.7502  131.0136  150.3430 LP  0  0  0  0  0  0  0  0  0  0  0  0  # atno 17370 bound_to 10713
  156.3810  130.3880  149.7102 LP  0  0  0  0  0  0  0  0  0  0  0  0  # atno 17371 bound_to 10713
  141.2038  133.6634  156.6082 LP  0  0  0  0  0  0  0  0  0  0  0  0  # atno 17394 bound_to 11000
  140.3524  134.7757  157.4476 LP  0  0  0  0  0  0  0  0  0  0  0  0  # atno 17395 bound_to 11000

$$$$
