AV-unprocessed.smi:1659|AV-procd|sdf|6651|dock1
  -GOLD-   22720 7353D 1   1.00000     0.00000
 Structure written by MMmdl.
 42 43  0  0  0  0  0  0  0  0  2 V2000
  150.6718  141.2236  156.0443 C   0  0  0  0  0  0  0  0  0  0  0  0
  151.1685  139.8722  155.6599 C   0  0  0  0  0  0  0  0  0  0  0  0
  150.5867  138.8197  155.0120 C   0  0  0  0  0  0  0  0  0  0  0  0
  151.6256  137.8498  154.9693 C   0  0  0  0  0  0  0  0  0  0  0  0
  151.5380  136.6218  154.4355 N   0  5  0  0  0  0  0  0  0  0  0  0
  150.7926  135.6674  155.0394 C   0  0  0  0  0  0  0  0  0  0  0  0
  150.7292  135.4468  156.2512 O   0  0  0  0  0  0  0  0  0  0  0  0
  150.0758  134.9211  154.1882 N   0  0  0  0  0  0  0  0  0  0  0  0
  149.1868  133.8306  154.5713 C   0  0  0  0  0  0  0  0  0  0  0  0
  147.7854  134.0086  153.9677 C   0  0  0  0  0  0  0  0  0  0  0  0
  147.3839  132.8747  153.0051 C   0  0  0  0  0  0  0  0  0  0  0  0
  146.3354  133.3050  152.0722 N   0  0  0  0  0  0  0  0  0  0  0  0
  146.6558  133.1804  150.6415 C   0  0  0  0  0  0  0  0  0  0  0  0
  145.8690  132.0597  149.9235 C   0  0  0  0  0  0  0  0  0  0  0  0
  144.4578  131.7629  150.4688 C   0  0  0  0  0  0  0  0  0  0  0  0
  143.5404  132.9951  150.6159 C   0  0  0  0  0  0  0  0  0  0  0  0
  144.0907  134.1733  151.4559 C   0  0  0  0  0  0  0  0  0  0  0  0
  145.1400  133.7740  152.5068 C   0  0  0  0  0  0  0  0  0  0  0  0
  144.8588  133.8947  153.6993 O   0  0  0  0  0  0  0  0  0  0  0  0
  152.7338  138.2702  155.5564 N   0  0  0  0  0  0  0  0  0  0  0  0
  152.4512  139.5692  155.9956 O   0  0  0  0  0  0  0  0  0  0  0  0
  149.6827  141.1567  156.4972 H   0  0  0  0  0  0  0  0  0  0  0  0
  150.6008  141.8700  155.1696 H   0  0  0  0  0  0  0  0  0  0  0  0
  151.3399  141.6985  156.7630 H   0  0  0  0  0  0  0  0  0  0  0  0
  149.5811  138.7538  154.6243 H   0  0  0  0  0  0  0  0  0  0  0  0
  150.1528  135.1291  153.2033 H   0  0  0  0  0  0  0  0  0  0  0  0
  149.6171  132.8882  154.2300 H   0  0  0  0  0  0  0  0  0  0  0  0
  149.1184  133.7751  155.6590 H   0  0  0  0  0  0  0  0  0  0  0  0
  147.0541  134.0920  154.7727 H   0  0  0  0  0  0  0  0  0  0  0  0
  147.7554  134.9581  153.4319 H   0  0  0  0  0  0  0  0  0  0  0  0
  148.2601  132.5305  152.4540 H   0  0  0  0  0  0  0  0  0  0  0  0
  147.0423  132.0034  153.5669 H   0  0  0  0  0  0  0  0  0  0  0  0
  146.4685  134.1345  150.1490 H   0  0  0  0  0  0  0  0  0  0  0  0
  147.7245  133.0179  150.4953 H   0  0  0  0  0  0  0  0  0  0  0  0
  145.8084  132.2979  148.8611 H   0  0  0  0  0  0  0  0  0  0  0  0
  146.4478  131.1373  149.9845 H   0  0  0  0  0  0  0  0  0  0  0  0
  143.9732  131.0399  149.8117 H   0  0  0  0  0  0  0  0  0  0  0  0
  144.5416  131.2559  151.4312 H   0  0  0  0  0  0  0  0  0  0  0  0
  143.2864  133.3669  149.6228 H   0  0  0  0  0  0  0  0  0  0  0  0
  142.5971  132.6654  151.0529 H   0  0  0  0  0  0  0  0  0  0  0  0
  144.5194  134.9319  150.8010 H   0  0  0  0  0  0  0  0  0  0  0  0
  143.2601  134.6750  151.9541 H   0  0  0  0  0  0  0  0  0  0  0  0
  1  2  1  0  0  0  0
  1 22  1  0  0  0  0
  1 23  1  0  0  0  0
  1 24  1  0  0  0  0
  2 21  1  0  0  0  0
  2  3  2  0  0  0  0
  3  4  1  0  0  0  0
  3 25  1  0  0  0  0
  4  5  1  0  0  0  0
  4 20  2  0  0  0  0
  5  6  1  0  0  0  0
  6  7  2  0  0  0  0
  6  8  1  0  0  0  0
  8  9  1  0  0  0  0
  8 26  1  0  0  0  0
  9 10  1  0  0  0  0
  9 27  1  0  0  0  0
  9 28  1  0  0  0  0
 10 11  1  0  0  0  0
 10 29  1  0  0  0  0
 10 30  1  0  0  0  0
 11 12  1  0  0  0  0
 11 31  1  0  0  0  0
 11 32  1  0  0  0  0
 12 18  1  0  0  0  0
 12 13  1  0  0  0  0
 13 14  1  0  0  0  0
 13 33  1  0  0  0  0
 13 34  1  0  0  0  0
 14 15  1  0  0  0  0
 14 35  1  0  0  0  0
 14 36  1  0  0  0  0
 15 16  1  0  0  0  0
 15 37  1  0  0  0  0
 15 38  1  0  0  0  0
 16 17  1  0  0  0  0
 16 39  1  0  0  0  0
 16 40  1  0  0  0  0
 17 18  1  0  0  0  0
 17 41  1  0  0  0  0
 17 42  1  0  0  0  0
 18 19  2  0  0  0  0
 20 21  1  0  0  0  0
M  CHG  1   5  -1
M  END
> <s_m_source_file>
AV-unprocessed.smi

> <i_m_source_file_index>
1659

> <i_lp_mmshare_version>
43012

> <i_f3d_flags>
0

> <s_epik_input>
W0NIM11jMVtjSF1jKG5vMSlbTkhdQyg9TylbTkhdW0NIMl1bQ0gyXVtDSDJdTjJbQ0gyXVtDSDJdW0NIMl1bQ0gyXVtDSDJdQzI9Tw==

> <s_epik_cmdline>
J2VwaWtfcHl0aG9uJywgJy1waCcsICc3LjAnLCAnLXRuJywgJzgnLCAnLW1hJywgJzIwMCcsICctbWV0YWxfYmluZGluZycsICctaW1hZScsICc8aW5maWxlLm1hZT4nLCAnLW9tYWUnLCAnPG91dGZpbGUubWFlPic=

> <r_lp_tautomer_probability>
1

> <r_epik_Ionization_Penalty>
6.59786

> <r_epik_Ionization_Penalty_Charging>
6.59773

> <r_epik_Ionization_Penalty_Neutral>
0.00012688

> <r_epik_State_Penalty>
6.59772

> <r_epik_Charging_Adjusted_Penalty>
13.1954

> <i_epik_Tot_Q>
-1

> <i_epik_Tot_abs_Q>
1

> <r_epik_Metal_State_Penalty>
2.522

> <b_epik_Metal_Only>
1

> <s_lp_Force_Field>
OPLS_2005

> <r_lp_Energy>
19.1909

> <b_lp_Chiralities_Consistent>
1

> <s_lp_Variant>
AV-unprocessed.smi:1659-2

> <Gold.Version>
5.8.1

> <Gold.Id.Protein>
6NUR|6NUR_protein|mol2

> <Gold.PLP.Fitness>
44.0430

> <Gold.PLP.PLP>
-37.6934

> <Gold.PLP.part.hbond>
-3.8786

> <Gold.PLP.part.metal>
0.0000

> <Gold.PLP.part.buried>
-1.4095

> <Gold.PLP.part.nonpolar>
-32.9354

> <Gold.PLP.part.repulsive>
1.0438

> <Gold.PLP.ligand.clash>
0.0000

> <Gold.PLP.ligand.torsion>
1.5204

> <Gold.PLP.Chemscore.Hbond>
3.0000

> <Gold.PLP.Chemscore.CHOScore>
0.0000

> <Gold.PLP.Chemscore.Metal>
0.0000

> <Gold.Chemscore.Hbonds>
donor molecule, donor type, donor heavy atom, donor atom, acceptor molecule, acceptor atom, score
      P1  H  7997  8010       L1    21  0.85
      P1  H 10752 10765       L1     5  1.80

> <Gold.PLP.Chemscore.Internal.Correction>
0.3904

> <Gold.Rescore>
     Score         DG    S(hbond)    S(metal)    S(lipo)     H(rot)  DE(clash)    DE(int)     intcor
      9.87     -12.66       0.85        0.00      77.48       1.84       0.02       2.77       ----

> <Gold.Chemscore.Fitness>
9.8681

> <Gold.Chemscore.DG>
-12.6606

> <Gold.Chemscore.ZeroCoef>
-5.4800

> <Gold.Chemscore.Hbond>
0.8455

> <Gold.Chemscore.Metal>
0.0000

> <Gold.Chemscore.Lipo>
77.4767

> <Gold.Chemscore.Internal_Hbond>
0.0000

> <Gold.Chemscore.DEClash>
0.0191

> <Gold.Chemscore.DEInternal>
2.7734

> <Gold.Chemscore.Rot>
1.8391

> <Gold.Chemscore.Internal.Correction>
   9.000000E+99

> <Gold.Chemscore.Hbonds>
donor molecule, donor type, donor heavy atom, donor atom, acceptor molecule, acceptor atom, score
      P1  H  7997  8010       L1    21  0.14
      P1  H 10752 10765       L1     5  0.17

> <Gold.Chemscore.Hbond.Weighted>
-2.8240

> <Gold.Chemscore.Metal.Weighted>
-0.0000

> <Gold.Chemscore.Lipo.Weighted>
-9.0648

> <Gold.Chemscore.Internal_Hbond.Weighted>
0.0000

> <Gold.Chemscore.DEClash.Weighted>
0.0191

> <Gold.Chemscore.DEInternal.Weighted>
2.7734

> <Gold.Chemscore.Rot.Weighted>
4.7082

> <Gold.Chemscore.Internal.Correction.Weighted>
   9.000000E+99

> <Gold.Protein.RotatedTorsions>
[ 6907 6896 6895 6894 ] final  -76.00 input  -60.11 | X-H torsion
[ 7974 7965 7964 7962 ] final  142.90 input  175.53 | X-H torsion
[ 8008 7997 7996 7995 ] final   74.27 input   59.86 | X-H torsion
[ 10167 10162 10161 10158 ] final  -23.80 input  -65.29 | X-H torsion
[ 10718 10713 10712 10709 ] final    4.43 input   66.30 | X-H torsion
[ 10763 10752 10751 10750 ] final  154.98 input  -60.55 | X-H torsion
[ 11005 11000 10999 10996 ] final   64.41 input  -57.11 | X-H torsion

> <Gold.Protein.ActiveResidues>
 VAL166  LYS551  ARG553  GLY616  TRP617  ASP618  TYR619  PRO620  LYS621  CYS622 
 ASP623  PHE694  ASN695  SER759  ASP760  ASP761  ALA762  ILE779  LEU786  VAL792 
 PHE793  MET794  SER795  GLU796  ALA797  LYS798  CYS799  TRP800  GLU811  SER814 

> <Gold.Protein.RotatedAtoms>
  150.7041  134.4638  159.5392 H   0  0  0  0  0  0  0  0  0  0  0  0  # atno 6907 bound_to 6896
  152.2307  134.8322  160.0483 H   0  0  0  0  0  0  0  0  0  0  0  0  # atno 6908 bound_to 6896
  151.9139  133.3533  159.3910 H   0  0  0  0  0  0  0  0  0  0  0  0  # atno 6909 bound_to 6896
  144.8967  139.5480  143.5773 H   0  0  0  0  0  0  0  0  0  0  0  0  # atno 7974 bound_to 7965
  155.7959  140.3478  155.5375 H   0  0  0  0  0  0  0  0  0  0  0  0  # atno 8008 bound_to 7997
  155.8587  140.0968  157.1648 H   0  0  0  0  0  0  0  0  0  0  0  0  # atno 8009 bound_to 7997
  154.4011  140.1362  156.3921 H   0  0  0  0  0  0  0  0  0  0  0  0  # atno 8010 bound_to 7997
  140.7288  143.4411  151.0656 H   0  0  0  0  0  0  0  0  0  0  0  0  # atno 10167 bound_to 10162
  156.8925  130.5692  149.5649 H   0  0  0  0  0  0  0  0  0  0  0  0  # atno 10718 bound_to 10713
  154.1610  135.2809  155.3108 H   0  0  0  0  0  0  0  0  0  0  0  0  # atno 10763 bound_to 10752
  154.6147  135.5487  153.7513 H   0  0  0  0  0  0  0  0  0  0  0  0  # atno 10764 bound_to 10752
  153.0192  135.6424  154.1752 H   0  0  0  0  0  0  0  0  0  0  0  0  # atno 10765 bound_to 10752
  139.9961  134.6515  156.0008 H   0  0  0  0  0  0  0  0  0  0  0  0  # atno 11005 bound_to 11000
  146.3085  139.7664  142.9037 LP  0  0  0  0  0  0  0  0  0  0  0  0  # atno 17320 bound_to 7965
  145.3687  141.0339  143.3243 LP  0  0  0  0  0  0  0  0  0  0  0  0  # atno 17321 bound_to 7965
  139.8078  143.7994  152.3169 LP  0  0  0  0  0  0  0  0  0  0  0  0  # atno 17342 bound_to 10162
  139.8033  144.7365  150.9796 LP  0  0  0  0  0  0  0  0  0  0  0  0  # atno 17343 bound_to 10162
  156.0622  130.5672  150.9215 LP  0  0  0  0  0  0  0  0  0  0  0  0  # atno 17370 bound_to 10713
  157.6075  131.0938  150.8853 LP  0  0  0  0  0  0  0  0  0  0  0  0  # atno 17371 bound_to 10713
  141.1605  133.6539  156.4303 LP  0  0  0  0  0  0  0  0  0  0  0  0  # atno 17394 bound_to 11000
  140.4816  134.6659  157.5173 LP  0  0  0  0  0  0  0  0  0  0  0  0  # atno 17395 bound_to 11000

$$$$
