AV-unprocessed.smi:438|AV-procd|sdf|2563|dock9
  -GOLD-   2262022533D 1   1.00000     0.00000
 Structure written by MMmdl.
 48 49  0  0  0  0  0  0  0  0  1 V2000
  145.9273  129.3430  152.2162 C   0  0  0  0  0  0  0  0  0  0  0  0
  146.3433  130.7808  152.4716 C   0  0  0  0  0  0  0  0  0  0  0  0
  147.2300  130.9744  153.5380 N   0  0  0  0  0  0  0  0  0  0  0  0
  147.6449  132.1655  153.8302 C   0  0  0  0  0  0  0  0  0  0  0  0
  148.7824  132.6950  155.1424 S   0  0  0  0  0  0  0  0  0  0  0  0
  149.5029  134.1867  154.4013 C   0  0  0  0  0  0  0  0  0  0  0  0
  148.9477  135.4677  155.0182 C   0  0  0  0  0  0  0  0  0  0  0  0
  148.1475  135.4048  155.9513 O   0  0  0  0  0  0  0  0  0  0  0  0
  149.3765  136.6228  154.4864 N   0  0  0  0  0  0  0  0  0  0  0  0
  148.9799  137.9589  154.9260 C   0  0  2  0  0  0  0  0  0  0  0  0
  147.5473  138.2633  154.4376 C   0  0  0  0  0  0  0  0  0  0  0  0
  147.1089  139.6862  154.8123 C   0  0  0  0  0  0  0  0  0  0  0  0
  148.1011  140.7261  154.2756 C   0  0  0  0  0  0  0  0  0  0  0  0
  149.5235  140.4394  154.7788 C   0  0  0  0  0  0  0  0  0  0  0  0
  149.9880  139.0161  154.4089 C   0  0  1  0  0  0  0  0  0  0  0  0
  151.4188  138.7665  154.9194 C   0  0  0  0  0  0  0  0  0  0  0  0
  147.2129  133.2668  153.0899 N   0  0  0  0  0  0  0  0  0  0  0  0
  146.3533  133.1873  152.0497 C   0  0  0  0  0  0  0  0  0  0  0  0
  146.0067  134.2025  151.4480 O   0  0  0  0  0  0  0  0  0  0  0  0
  145.8909  131.8274  151.7257 C   0  0  0  0  0  0  0  0  0  0  0  0
  144.9366  131.6626  150.5461 C   0  0  0  0  0  0  0  0  0  0  0  0
  143.6467  132.4755  150.7280 C   0  0  0  0  0  0  0  0  0  0  0  0
  142.8111  132.3045  149.6041 O   0  0  0  0  0  0  0  0  0  0  0  0
  144.8417  129.2586  152.1626 H   0  0  0  0  0  0  0  0  0  0  0  0
  146.2730  128.6829  153.0126 H   0  0  0  0  0  0  0  0  0  0  0  0
  146.3510  128.9869  151.2769 H   0  0  0  0  0  0  0  0  0  0  0  0
  149.3188  134.1756  153.3258 H   0  0  0  0  0  0  0  0  0  0  0  0
  150.5841  134.1687  154.5417 H   0  0  0  0  0  0  0  0  0  0  0  0
  150.0331  136.5748  153.7210 H   0  0  0  0  0  0  0  0  0  0  0  0
  148.9885  137.9914  156.0174 H   0  0  0  0  0  0  0  0  0  0  0  0
  147.4933  138.1440  153.3547 H   0  0  0  0  0  0  0  0  0  0  0  0
  146.8443  137.5449  154.8611 H   0  0  0  0  0  0  0  0  0  0  0  0
  146.1119  139.8843  154.4178 H   0  0  0  0  0  0  0  0  0  0  0  0
  147.0363  139.7737  155.8972 H   0  0  0  0  0  0  0  0  0  0  0  0
  148.0885  140.7172  153.1850 H   0  0  0  0  0  0  0  0  0  0  0  0
  147.7926  141.7263  154.5810 H   0  0  0  0  0  0  0  0  0  0  0  0
  150.2108  141.1759  154.3607 H   0  0  0  0  0  0  0  0  0  0  0  0
  149.5572  140.5681  155.8616 H   0  0  0  0  0  0  0  0  0  0  0  0
  150.0145  138.9529  153.3197 H   0  0  0  0  0  0  0  0  0  0  0  0
  151.4588  138.7888  156.0089 H   0  0  0  0  0  0  0  0  0  0  0  0
  152.1049  139.5276  154.5468 H   0  0  0  0  0  0  0  0  0  0  0  0
  151.8022  137.7998  154.5924 H   0  0  0  0  0  0  0  0  0  0  0  0
  147.5543  134.1822  153.3450 H   0  0  0  0  0  0  0  0  0  0  0  0
  144.6892  130.6104  150.4073 H   0  0  0  0  0  0  0  0  0  0  0  0
  145.4404  131.9603  149.6252 H   0  0  0  0  0  0  0  0  0  0  0  0
  143.1102  132.1537  151.6211 H   0  0  0  0  0  0  0  0  0  0  0  0
  143.8699  133.5365  150.8452 H   0  0  0  0  0  0  0  0  0  0  0  0
  142.1519  132.9816  149.6139 H   0  0  0  0  0  0  0  0  0  0  0  0
  1 24  1  0  0  0  0
  1 25  1  0  0  0  0
  1 26  1  0  0  0  0
  1  2  1  0  0  0  0
  2 20  2  0  0  0  0
  2  3  1  0  0  0  0
  3  4  2  0  0  0  0
  4  5  1  0  0  0  0
  4 17  1  0  0  0  0
  5  6  1  0  0  0  0
  6  7  1  0  0  0  0
  6 27  1  0  0  0  0
  6 28  1  0  0  0  0
  7  8  2  0  0  0  0
  7  9  1  0  0  0  0
  9 10  1  0  0  0  0
  9 29  1  0  0  0  0
 10 15  1  0  0  0  0
 10 11  1  0  0  0  0
 10 30  1  0  0  0  0
 11 12  1  0  0  0  0
 11 31  1  0  0  0  0
 11 32  1  0  0  0  0
 12 13  1  0  0  0  0
 12 33  1  0  0  0  0
 12 34  1  0  0  0  0
 13 14  1  0  0  0  0
 13 35  1  0  0  0  0
 13 36  1  0  0  0  0
 14 15  1  0  0  0  0
 14 37  1  0  0  0  0
 14 38  1  0  0  0  0
 15 16  1  0  0  0  0
 15 39  1  0  0  0  0
 16 40  1  0  0  0  0
 16 41  1  0  0  0  0
 16 42  1  0  0  0  0
 17 43  1  0  0  0  0
 17 18  1  0  0  0  0
 18 19  2  0  0  0  0
 18 20  1  0  0  0  0
 20 21  1  0  0  0  0
 21 22  1  0  0  0  0
 21 44  1  0  0  0  0
 21 45  1  0  0  0  0
 22 23  1  0  0  0  0
 22 46  1  0  0  0  0
 22 47  1  0  0  0  0
 23 48  1  0  0  0  0
M  END
> <s_m_source_file>
AV-unprocessed.smi

> <i_m_source_file_index>
438

> <i_lp_mmshare_version>
43012

> <i_f3d_flags>
0

> <s_epik_input>
W09IXVtDSDJdW0NIMl1jMWMoW09IXSluYyhuYzFbQ0gzXSlTW0NIMl1DKD1PKVtOSF1bQ0BASF0yW0NIMl1bQ0gyXVtDSDJdW0NIMl1bQ0BIXTJbQ0gzXQ==

> <s_epik_cmdline>
J2VwaWtfcHl0aG9uJywgJy1waCcsICc3LjAnLCAnLXRuJywgJzgnLCAnLW1hJywgJzIwMCcsICctbWV0YWxfYmluZGluZycsICctaW1hZScsICc8aW5maWxlLm1hZT4nLCAnLW9tYWUnLCAnPG91dGZpbGUubWFlPic=

> <r_lp_tautomer_probability>
0.660323

> <r_epik_Ionization_Penalty>
0.00860626

> <r_epik_Ionization_Penalty_Charging>
0.00860522

> <r_epik_Ionization_Penalty_Neutral>
1.04215e-06

> <r_epik_State_Penalty>
0.156825

> <r_epik_Charging_Adjusted_Penalty>
0.16543

> <i_epik_Tot_Q>
0

> <i_epik_Tot_abs_Q>
0

> <r_epik_Metal_State_Penalty>
0.752038

> <b_epik_Metal_Only>
0

> <s_lp_Force_Field>
OPLS_2005

> <r_lp_Energy>
14.035

> <b_lp_Chiralities_Consistent>
1

> <s_lp_Variant>
AV-unprocessed.smi:438-1

> <Gold.Version>
5.8.1

> <Gold.Id.Protein>
6NUR|6NUR_protein|mol2

> <Gold.PLP.Fitness>
43.7708

> <Gold.PLP.PLP>
-40.0953

> <Gold.PLP.part.hbond>
-3.6760

> <Gold.PLP.part.metal>
0.0000

> <Gold.PLP.part.buried>
-6.5570

> <Gold.PLP.part.nonpolar>
-32.0683

> <Gold.PLP.part.repulsive>
0.3245

> <Gold.PLP.ligand.clash>
0.0000

> <Gold.PLP.ligand.torsion>
0.9232

> <Gold.PLP.Chemscore.Hbond>
1.8196

> <Gold.PLP.Chemscore.CHOScore>
0.0000

> <Gold.PLP.Chemscore.Metal>
0.0000

> <Gold.Chemscore.Hbonds>
donor molecule, donor type, donor heavy atom, donor atom, acceptor molecule, acceptor atom, score
      L1  H     9    29       P1  7948  0.15
      L1  H    23    48       P1 10186  1.00
      P1  H 10785 10796       L1    23  0.18

> <Gold.PLP.Chemscore.Internal.Correction>
0.0630

> <Gold.Rescore>
     Score         DG    S(hbond)    S(metal)    S(lipo)     H(rot)  DE(clash)    DE(int)     intcor
     13.08     -14.08       1.45        0.00      94.90       2.86       0.01       0.99       ----

> <Gold.Chemscore.Fitness>
13.0805

> <Gold.Chemscore.DG>
-14.0799

> <Gold.Chemscore.ZeroCoef>
-5.4800

> <Gold.Chemscore.Hbond>
1.4461

> <Gold.Chemscore.Metal>
0.0000

> <Gold.Chemscore.Lipo>
94.8963

> <Gold.Chemscore.Internal_Hbond>
0.0000

> <Gold.Chemscore.DEClash>
0.0107

> <Gold.Chemscore.DEInternal>
0.9887

> <Gold.Chemscore.Rot>
2.8645

> <Gold.Chemscore.Internal.Correction>
   9.000000E+99

> <Gold.Chemscore.Hbonds>
donor molecule, donor type, donor heavy atom, donor atom, acceptor molecule, acceptor atom, score
      L1  H     9    29       P1  7948  0.03
      L1  H    23    48       P1 10186  1.00
      P1  H 10785 10796       L1    23  0.13

> <Gold.Chemscore.Hbond.Weighted>
-4.8301

> <Gold.Chemscore.Metal.Weighted>
-0.0000

> <Gold.Chemscore.Lipo.Weighted>
-11.1029

> <Gold.Chemscore.Internal_Hbond.Weighted>
0.0000

> <Gold.Chemscore.DEClash.Weighted>
0.0107

> <Gold.Chemscore.DEInternal.Weighted>
0.9887

> <Gold.Chemscore.Rot.Weighted>
7.3331

> <Gold.Chemscore.Internal.Correction.Weighted>
   9.000000E+99

> <Gold.Protein.RotatedTorsions>
[ 6907 6896 6895 6894 ] final  -51.26 input  -60.11 | X-H torsion
[ 7974 7965 7964 7962 ] final  -48.29 input  175.53 | X-H torsion
[ 8008 7997 7996 7995 ] final  -63.37 input   59.86 | X-H torsion
[ 10167 10162 10161 10158 ] final    3.69 input  -65.29 | X-H torsion
[ 10718 10713 10712 10709 ] final   95.01 input   66.30 | X-H torsion
[ 10763 10752 10751 10750 ] final  117.08 input  -60.55 | X-H torsion
[ 11005 11000 10999 10996 ] final  -44.62 input  -57.11 | X-H torsion

> <Gold.Protein.ActiveResidues>
 VAL166  LYS551  ARG553  GLY616  TRP617  ASP618  TYR619  PRO620  LYS621  CYS622 
 ASP623  PHE694  ASN695  SER759  ASP760  ASP761  ALA762  ILE779  LEU786  VAL792 
 PHE793  MET794  SER795  GLU796  ALA797  LYS798  CYS799  TRP800  GLU811  SER814 

> <Gold.Protein.RotatedAtoms>
  150.8628  134.7984  159.7095 H   0  0  0  0  0  0  0  0  0  0  0  0  # atno 6907 bound_to 6896
  152.4659  134.5072  159.9752 H   0  0  0  0  0  0  0  0  0  0  0  0  # atno 6908 bound_to 6896
  151.5173  133.3435  159.2931 H   0  0  0  0  0  0  0  0  0  0  0  0  # atno 6909 bound_to 6896
  145.9527  140.7556  142.9496 H   0  0  0  0  0  0  0  0  0  0  0  0  # atno 7974 bound_to 7965
  154.4551  140.0976  156.6732 H   0  0  0  0  0  0  0  0  0  0  0  0  # atno 8008 bound_to 7997
  155.5165  140.3478  155.4380 H   0  0  0  0  0  0  0  0  0  0  0  0  # atno 8009 bound_to 7997
  156.0760  140.1361  156.9760 H   0  0  0  0  0  0  0  0  0  0  0  0  # atno 8010 bound_to 7997
  140.6573  143.7395  150.7675 H   0  0  0  0  0  0  0  0  0  0  0  0  # atno 10167 bound_to 10162
  157.6943  131.0531  150.4274 H   0  0  0  0  0  0  0  0  0  0  0  0  # atno 10718 bound_to 10713
  153.5470  135.3547  155.2743 H   0  0  0  0  0  0  0  0  0  0  0  0  # atno 10763 bound_to 10752
  154.8711  135.4104  154.2980 H   0  0  0  0  0  0  0  0  0  0  0  0  # atno 10764 bound_to 10752
  153.3698  135.7063  153.6715 H   0  0  0  0  0  0  0  0  0  0  0  0  # atno 10765 bound_to 10752
  141.0462  133.6760  156.2897 H   0  0  0  0  0  0  0  0  0  0  0  0  # atno 11005 bound_to 11000
  144.6799  140.2462  143.7337 LP  0  0  0  0  0  0  0  0  0  0  0  0  # atno 17320 bound_to 7965
  145.8148  139.2018  143.1972 LP  0  0  0  0  0  0  0  0  0  0  0  0  # atno 17321 bound_to 7965
  140.1057  143.4746  152.2399 LP  0  0  0  0  0  0  0  0  0  0  0  0  # atno 17342 bound_to 10162
  139.5798  144.7505  151.3670 LP  0  0  0  0  0  0  0  0  0  0  0  0  # atno 17343 bound_to 10162
  156.4643  130.4039  149.6557 LP  0  0  0  0  0  0  0  0  0  0  0  0  # atno 17370 bound_to 10713
  156.3660  130.7506  151.2484 LP  0  0  0  0  0  0  0  0  0  0  0  0  # atno 17371 bound_to 10713
  140.6142  134.5427  157.5538 LP  0  0  0  0  0  0  0  0  0  0  0  0  # atno 17394 bound_to 11000
  139.9314  134.7957  156.0922 LP  0  0  0  0  0  0  0  0  0  0  0  0  # atno 17395 bound_to 11000

$$$$
