AV-unprocessed.smi:555|AV-procd|sdf|2911|dock1
  -GOLD-   2262023403D 1   1.00000     0.00000
 Structure written by MMmdl.
 50 51  0  0  0  0  0  0  0  0  2 V2000
  152.8393  138.7228  154.5148 C   0  0  0  0  0  0  0  0  0  0  0  0
  151.6937  139.5469  154.6418 O   0  0  0  0  0  0  0  0  0  0  0  0
  151.1772  139.5580  155.9617 C   0  0  0  0  0  0  0  0  0  0  0  0
  149.9527  140.4843  156.0087 C   0  0  0  0  0  0  0  0  0  0  0  0
  148.8262  139.9229  155.2566 N   0  0  0  0  0  0  0  0  0  0  0  0
  148.2707  138.7939  155.8341 N   0  0  0  0  0  0  0  0  0  0  0  0
  147.2771  138.1932  155.2630 C   0  0  0  0  0  0  0  0  0  0  0  0
  146.6584  136.9725  155.8501 C   0  0  0  0  0  0  0  0  0  0  0  0
  147.2000  136.3372  156.7558 O   0  0  0  0  0  0  0  0  0  0  0  0
  145.4706  136.6230  155.3241 N   0  0  0  0  0  0  0  0  0  0  0  0
  144.6621  135.4758  155.7325 C   0  0  2  0  0  0  0  0  0  0  0  0
  145.4792  134.1816  155.6347 C   0  0  0  0  0  0  0  0  0  0  0  0
  145.7748  133.7878  154.1756 C   0  0  0  0  0  0  0  0  0  0  0  0
  144.5314  133.6670  153.3573 N   0  3  2  0  0  0  0  0  0  0  0  0
  144.7789  133.2008  151.9527 C   0  0  0  0  0  0  0  0  0  0  0  0
  145.6155  134.2122  151.1404 C   0  0  0  0  0  0  0  0  0  0  0  0
  143.4752  132.9146  151.1768 C   0  0  0  0  0  0  0  0  0  0  0  0
  143.7308  134.9254  153.4221 C   0  0  0  0  0  0  0  0  0  0  0  0
  143.3989  135.3304  154.8693 C   0  0  0  0  0  0  0  0  0  0  0  0
  146.7260  138.6891  154.0133 C   0  0  0  0  0  0  0  0  0  0  0  0
  147.2816  139.7896  153.4600 C   0  0  0  0  0  0  0  0  0  0  0  0
  148.4102  140.4844  154.0816 C   0  0  0  0  0  0  0  0  0  0  0  0
  148.9410  141.4801  153.5907 O   0  0  0  0  0  0  0  0  0  0  0  0
  153.1954  138.7468  153.4850 H   0  0  0  0  0  0  0  0  0  0  0  0
  152.6105  137.6867  154.7676 H   0  0  0  0  0  0  0  0  0  0  0  0
  153.6485  139.0702  155.1584 H   0  0  0  0  0  0  0  0  0  0  0  0
  150.9005  138.5461  156.2619 H   0  0  0  0  0  0  0  0  0  0  0  0
  151.9416  139.9112  156.6558 H   0  0  0  0  0  0  0  0  0  0  0  0
  149.6597  140.6443  157.0480 H   0  0  0  0  0  0  0  0  0  0  0  0
  150.2147  141.4724  155.6266 H   0  0  0  0  0  0  0  0  0  0  0  0
  145.1049  137.1983  154.5787 H   0  0  0  0  0  0  0  0  0  0  0  0
  144.3686  135.6182  156.7740 H   0  0  0  0  0  0  0  0  0  0  0  0
  146.4126  134.2835  156.1899 H   0  0  0  0  0  0  0  0  0  0  0  0
  144.9286  133.3727  156.1170 H   0  0  0  0  0  0  0  0  0  0  0  0
  146.4461  134.5135  153.7138 H   0  0  0  0  0  0  0  0  0  0  0  0
  146.3089  132.8403  154.2121 H   0  0  0  0  0  0  0  0  0  0  0  0
  145.3410  132.2667  152.0042 H   0  0  0  0  0  0  0  0  0  0  0  0
  145.6776  133.9180  150.0920 H   0  0  0  0  0  0  0  0  0  0  0  0
  146.6447  134.2791  151.4903 H   0  0  0  0  0  0  0  0  0  0  0  0
  145.1766  135.2098  151.1742 H   0  0  0  0  0  0  0  0  0  0  0  0
  143.6815  132.7043  150.1269 H   0  0  0  0  0  0  0  0  0  0  0  0
  142.7942  133.7658  151.2118 H   0  0  0  0  0  0  0  0  0  0  0  0
  142.9509  132.0383  151.5576 H   0  0  0  0  0  0  0  0  0  0  0  0
  144.2713  135.7282  152.9180 H   0  0  0  0  0  0  0  0  0  0  0  0
  142.7818  134.8105  152.9023 H   0  0  0  0  0  0  0  0  0  0  0  0
  142.7494  134.5733  155.3105 H   0  0  0  0  0  0  0  0  0  0  0  0
  142.8239  136.2572  154.8747 H   0  0  0  0  0  0  0  0  0  0  0  0
  145.8928  138.1966  153.5327 H   0  0  0  0  0  0  0  0  0  0  0  0
  146.8822  140.1696  152.5312 H   0  0  0  0  0  0  0  0  0  0  0  0
  143.9724  132.9506  153.7990 H   0  0  0  0  0  0  0  0  0  0  0  0
  1  2  1  0  0  0  0
  1 24  1  0  0  0  0
  1 25  1  0  0  0  0
  1 26  1  0  0  0  0
  2  3  1  0  0  0  0
  3  4  1  0  0  0  0
  3 27  1  0  0  0  0
  3 28  1  0  0  0  0
  4  5  1  0  0  0  0
  4 29  1  0  0  0  0
  4 30  1  0  0  0  0
  5 22  1  0  0  0  0
  5  6  1  0  0  0  0
  6  7  2  0  0  0  0
  7  8  1  0  0  0  0
  7 20  1  0  0  0  0
  8  9  2  0  0  0  0
  8 10  1  0  0  0  0
 10 11  1  0  0  0  0
 10 31  1  0  0  0  0
 11 19  1  0  0  0  0
 11 12  1  0  0  0  0
 11 32  1  0  0  0  0
 12 13  1  0  0  0  0
 12 33  1  0  0  0  0
 12 34  1  0  0  0  0
 13 14  1  0  0  0  0
 13 35  1  0  0  0  0
 13 36  1  0  0  0  0
 14 15  1  0  0  0  0
 14 18  1  0  0  0  0
 14 50  1  0  0  0  0
 15 16  1  0  0  0  0
 15 17  1  0  0  0  0
 15 37  1  0  0  0  0
 16 38  1  0  0  0  0
 16 39  1  0  0  0  0
 16 40  1  0  0  0  0
 17 41  1  0  0  0  0
 17 42  1  0  0  0  0
 17 43  1  0  0  0  0
 18 19  1  0  0  0  0
 18 44  1  0  0  0  0
 18 45  1  0  0  0  0
 19 46  1  0  0  0  0
 19 47  1  0  0  0  0
 20 21  2  0  0  0  0
 20 48  1  0  0  0  0
 21 22  1  0  0  0  0
 21 49  1  0  0  0  0
 22 23  2  0  0  0  0
M  CHG  1  14   1
M  END
> <s_m_source_file>
AV-unprocessed.smi

> <i_m_source_file_index>
555

> <i_lp_mmshare_version>
43012

> <i_f3d_flags>
0

> <s_epik_input>
W0NIM11PW0NIMl1bQ0gyXW4xbmMoW2NIXVtjSF1jMT1PKUMoPU8pW05IXVtDSF0yW0NIMl1bQ0gyXU4oW0NIXShbQ0gzXSlbQ0gzXSlbQ0gyXVtDSDJdMg==

> <s_epik_cmdline>
J2VwaWtfcHl0aG9uJywgJy1waCcsICc3LjAnLCAnLXRuJywgJzgnLCAnLW1hJywgJzIwMCcsICctbWV0YWxfYmluZGluZycsICctaW1hZScsICc8aW5maWxlLm1hZT4nLCAnLW9tYWUnLCAnPG91dGZpbGUubWFlPic=

> <r_lp_tautomer_probability>
1

> <r_epik_Ionization_Penalty>
0.00560205

> <r_epik_Ionization_Penalty_Charging>
0.00559911

> <r_epik_Ionization_Penalty_Neutral>
2.94673e-06

> <r_epik_State_Penalty>
0.00410202

> <r_epik_Charging_Adjusted_Penalty>
0.00970113

> <i_epik_Tot_Q>
1

> <i_epik_Tot_abs_Q>
1

> <r_epik_Metal_State_Penalty>
-0

> <b_epik_Metal_Only>
0

> <s_lp_Force_Field>
OPLS_2005

> <r_lp_Energy>
41.3332

> <b_lp_Chiralities_Consistent>
1

> <s_lp_Variant>
AV-unprocessed.smi:555-2

> <Gold.Version>
5.8.1

> <Gold.Id.Protein>
6NUR|6NUR_protein|mol2

> <Gold.PLP.Fitness>
37.4965

> <Gold.PLP.PLP>
-26.3194

> <Gold.PLP.part.hbond>
-3.4974

> <Gold.PLP.part.metal>
0.0000

> <Gold.PLP.part.buried>
-5.7372

> <Gold.PLP.part.nonpolar>
-19.1855

> <Gold.PLP.part.repulsive>
1.4761

> <Gold.PLP.ligand.clash>
0.0000

> <Gold.PLP.ligand.torsion>
0.2212

> <Gold.PLP.Chemscore.Hbond>
3.7840

> <Gold.PLP.Chemscore.CHOScore>
0.0000

> <Gold.PLP.Chemscore.Metal>
0.0000

> <Gold.Chemscore.Hbonds>
donor molecule, donor type, donor heavy atom, donor atom, acceptor molecule, acceptor atom, score
      L1  H    14    50       P1 10957  2.00
      P1  H  7989  7998       L1     2  1.00
      P1  H  8011  8017       L1    23  0.80

> <Gold.PLP.Chemscore.Internal.Correction>
0.2676

> <Gold.Rescore>
     Score         DG    S(hbond)    S(metal)    S(lipo)     H(rot)  DE(clash)    DE(int)     intcor
     14.62     -15.86       2.48        0.00      56.03       1.74       0.03       1.21       ----

> <Gold.Chemscore.Fitness>
14.6212

> <Gold.Chemscore.DG>
-15.8596

> <Gold.Chemscore.ZeroCoef>
-5.4800

> <Gold.Chemscore.Hbond>
2.4814

> <Gold.Chemscore.Metal>
0.0000

> <Gold.Chemscore.Lipo>
56.0324

> <Gold.Chemscore.Internal_Hbond>
0.0000

> <Gold.Chemscore.DEClash>
0.0270

> <Gold.Chemscore.DEInternal>
1.2114

> <Gold.Chemscore.Rot>
1.7438

> <Gold.Chemscore.Internal.Correction>
   9.000000E+99

> <Gold.Chemscore.Hbonds>
donor molecule, donor type, donor heavy atom, donor atom, acceptor molecule, acceptor atom, score
      L1  H    14    50       P1 10957  0.88
      P1  H  7989  7998       L1     2  0.84
      P1  H  8011  8017       L1    23  0.80

> <Gold.Chemscore.Hbond.Weighted>
-8.2880

> <Gold.Chemscore.Metal.Weighted>
-0.0000

> <Gold.Chemscore.Lipo.Weighted>
-6.5558

> <Gold.Chemscore.Internal_Hbond.Weighted>
0.0000

> <Gold.Chemscore.DEClash.Weighted>
0.0270

> <Gold.Chemscore.DEInternal.Weighted>
1.2114

> <Gold.Chemscore.Rot.Weighted>
4.4642

> <Gold.Chemscore.Internal.Correction.Weighted>
   9.000000E+99

> <Gold.Protein.RotatedTorsions>
[ 6907 6896 6895 6894 ] final  -18.35 input  -60.11 | X-H torsion
[ 7974 7965 7964 7962 ] final  140.82 input  175.53 | X-H torsion
[ 8008 7997 7996 7995 ] final  156.06 input   59.86 | X-H torsion
[ 10167 10162 10161 10158 ] final  -86.22 input  -65.29 | X-H torsion
[ 10718 10713 10712 10709 ] final  134.82 input   66.30 | X-H torsion
[ 10763 10752 10751 10750 ] final -160.23 input  -60.55 | X-H torsion
[ 11005 11000 10999 10996 ] final -148.90 input  -57.11 | X-H torsion

> <Gold.Protein.ActiveResidues>
 VAL166  LYS551  ARG553  GLY616  TRP617  ASP618  TYR619  PRO620  LYS621  CYS622 
 ASP623  PHE694  ASN695  SER759  ASP760  ASP761  ALA762  ILE779  LEU786  VAL792 
 PHE793  MET794  SER795  GLU796  ALA797  LYS798  CYS799  TRP800  GLU811  SER814 

> <Gold.Protein.RotatedAtoms>
  151.2795  135.0709  159.9163 H   0  0  0  0  0  0  0  0  0  0  0  0  # atno 6907 bound_to 6896
  152.5336  134.0045  159.7920 H   0  0  0  0  0  0  0  0  0  0  0  0  # atno 6908 bound_to 6896
  151.0297  133.5751  159.2693 H   0  0  0  0  0  0  0  0  0  0  0  0  # atno 6909 bound_to 6896
  144.9152  139.5240  143.5690 H   0  0  0  0  0  0  0  0  0  0  0  0  # atno 7974 bound_to 7965
  156.2443  140.1922  156.6898 H   0  0  0  0  0  0  0  0  0  0  0  0  # atno 8008 bound_to 7997
  154.6260  140.0602  156.9700 H   0  0  0  0  0  0  0  0  0  0  0  0  # atno 8009 bound_to 7997
  155.1786  140.3274  155.4382 H   0  0  0  0  0  0  0  0  0  0  0  0  # atno 8010 bound_to 7997
  140.3962  143.2682  151.9201 H   0  0  0  0  0  0  0  0  0  0  0  0  # atno 10167 bound_to 10162
  157.4634  131.1075  150.9892 H   0  0  0  0  0  0  0  0  0  0  0  0  # atno 10718 bound_to 10713
  154.7408  135.3068  154.8732 H   0  0  0  0  0  0  0  0  0  0  0  0  # atno 10763 bound_to 10752
  153.9547  135.6760  153.4748 H   0  0  0  0  0  0  0  0  0  0  0  0  # atno 10764 bound_to 10752
  153.1007  135.4913  154.8786 H   0  0  0  0  0  0  0  0  0  0  0  0  # atno 10765 bound_to 10752
  140.7564  134.3348  157.5113 H   0  0  0  0  0  0  0  0  0  0  0  0  # atno 11005 bound_to 11000
  146.3178  139.7989  142.8969 LP  0  0  0  0  0  0  0  0  0  0  0  0  # atno 17320 bound_to 7965
  145.3388  141.0283  143.3404 LP  0  0  0  0  0  0  0  0  0  0  0  0  # atno 17321 bound_to 7965
  139.4786  144.5678  151.8136 LP  0  0  0  0  0  0  0  0  0  0  0  0  # atno 17342 bound_to 10162
  140.4788  144.1480  150.5929 LP  0  0  0  0  0  0  0  0  0  0  0  0  # atno 17343 bound_to 10162
  157.0682  130.5853  149.5397 LP  0  0  0  0  0  0  0  0  0  0  0  0  # atno 17370 bound_to 10713
  156.0039  130.5123  150.7761 LP  0  0  0  0  0  0  0  0  0  0  0  0  # atno 17371 bound_to 10713
  139.8778  134.9175  156.3179 LP  0  0  0  0  0  0  0  0  0  0  0  0  # atno 17394 bound_to 11000
  140.9703  133.7331  156.0525 LP  0  0  0  0  0  0  0  0  0  0  0  0  # atno 17395 bound_to 11000

$$$$
