AV-unprocessed.smi:2655|AV-procd|sdf|10302|dock8
  -GOLD-   2272014313D 1   1.00000     0.00000
 Structure written by MMmdl.
 33 34  0  0  0  0  0  0  0  0  2 V2000
  145.3319  133.0856  151.9823 C   0  0  0  0  0  0  0  0  0  0  0  0
  144.4513  134.1550  152.5929 C   0  0  0  0  0  0  0  0  0  0  0  0
  143.4276  133.8245  153.4430 N   0  0  0  0  0  0  0  0  0  0  0  0
  142.7866  134.9821  153.8610 N   0  5  0  0  0  0  0  0  0  0  0  0
  143.4317  136.0089  153.2521 C   0  0  0  0  0  0  0  0  0  0  0  0
  143.1788  137.2081  153.3536 O   0  0  0  0  0  0  0  0  0  0  0  0
  144.4980  135.4762  152.4325 C   0  0  0  0  0  0  0  0  0  0  0  0
  145.4636  136.3052  151.6065 C   0  0  0  0  0  0  0  0  0  0  0  0
  145.7202  137.6858  152.2316 C   0  0  0  0  0  0  0  0  0  0  0  0
  147.1206  137.8541  152.6006 N   0  0  0  0  0  0  0  0  0  0  0  0
  147.5983  138.8381  153.3758 C   0  0  0  0  0  0  0  0  0  0  0  0
  146.8919  139.7203  153.8644 O   0  0  0  0  0  0  0  0  0  0  0  0
  148.9277  138.7274  153.5371 N   0  0  0  0  0  0  0  0  0  0  0  0
  149.7956  139.5549  154.2955 C   0  0  0  0  0  0  0  0  0  0  0  0
  149.4195  140.7001  155.0563 C   0  0  0  0  0  0  0  0  0  0  0  0
  150.6069  141.1200  155.5854 C   0  0  0  0  0  0  0  0  0  0  0  0
  150.9736  142.2542  156.4799 C   0  0  0  0  0  0  0  0  0  0  0  0
  151.6194  140.3058  155.1832 O   0  0  0  0  0  0  0  0  0  0  0  0
  151.0909  139.3060  154.3584 N   0  0  0  0  0  0  0  0  0  0  0  0
  145.2894  133.1391  150.8942 H   0  0  0  0  0  0  0  0  0  0  0  0
  145.0110  132.0901  152.2904 H   0  0  0  0  0  0  0  0  0  0  0  0
  146.3669  133.2254  152.2947 H   0  0  0  0  0  0  0  0  0  0  0  0
  145.0545  136.4198  150.6023 H   0  0  0  0  0  0  0  0  0  0  0  0
  146.3997  135.7557  151.4985 H   0  0  0  0  0  0  0  0  0  0  0  0
  145.4139  138.4781  151.5462 H   0  0  0  0  0  0  0  0  0  0  0  0
  145.1175  137.8062  153.1322 H   0  0  0  0  0  0  0  0  0  0  0  0
  147.7701  137.1709  152.2393 H   0  0  0  0  0  0  0  0  0  0  0  0
  149.3726  137.9542  153.0648 H   0  0  0  0  0  0  0  0  0  0  0  0
  148.4494  141.1506  155.2024 H   0  0  0  0  0  0  0  0  0  0  0  0
  150.0833  142.7184  156.9045 H   0  0  0  0  0  0  0  0  0  0  0  0
  151.5237  143.0177  155.9297 H   0  0  0  0  0  0  0  0  0  0  0  0
  151.6007  141.9114  157.3030 H   0  0  0  0  0  0  0  0  0  0  0  0
  143.1865  132.8853  153.7257 H   0  0  0  0  0  0  0  0  0  0  0  0
  1 20  1  0  0  0  0
  1 21  1  0  0  0  0
  1 22  1  0  0  0  0
  1  2  1  0  0  0  0
  2  7  2  0  0  0  0
  2  3  1  0  0  0  0
  3  4  1  0  0  0  0
  3 33  1  0  0  0  0
  4  5  1  0  0  0  0
  5  7  1  0  0  0  0
  5  6  2  0  0  0  0
  7  8  1  0  0  0  0
  8  9  1  0  0  0  0
  8 23  1  0  0  0  0
  8 24  1  0  0  0  0
  9 10  1  0  0  0  0
  9 25  1  0  0  0  0
  9 26  1  0  0  0  0
 10 11  1  0  0  0  0
 10 27  1  0  0  0  0
 11 12  2  0  0  0  0
 11 13  1  0  0  0  0
 13 14  1  0  0  0  0
 13 28  1  0  0  0  0
 14 19  2  0  0  0  0
 14 15  1  0  0  0  0
 15 16  2  0  0  0  0
 15 29  1  0  0  0  0
 16 17  1  0  0  0  0
 16 18  1  0  0  0  0
 17 30  1  0  0  0  0
 17 31  1  0  0  0  0
 17 32  1  0  0  0  0
 18 19  1  0  0  0  0
M  CHG  1   4  -1
M  END
> <s_m_source_file>
AV-unprocessed.smi

> <i_m_source_file_index>
2655

> <i_lp_mmshare_version>
43012

> <i_f3d_flags>
0

> <s_epik_input>
W0NIM11DMT1OW05IXUMoPU8pW0NASF0xW0NIMl1bQ0gyXVtOSF1DKD1PKVtOSF1jMltjSF1jKFtDSDNdKW9uMg==

> <s_epik_cmdline>
J2VwaWtfcHl0aG9uJywgJy1waCcsICc3LjAnLCAnLXRuJywgJzgnLCAnLW1hJywgJzIwMCcsICctbWV0YWxfYmluZGluZycsICctaW1hZScsICc8aW5maWxlLm1hZT4nLCAnLW9tYWUnLCAnPG91dGZpbGUubWFlPic=

> <r_lp_tautomer_probability>
0.00220696

> <r_epik_Ionization_Penalty>
4.81787

> <r_epik_Ionization_Penalty_Charging>
2.1236

> <r_epik_Ionization_Penalty_Neutral>
2.69427

> <r_epik_State_Penalty>
2.7337

> <r_epik_Charging_Adjusted_Penalty>
4.8573

> <i_epik_Tot_Q>
-1

> <i_epik_Tot_abs_Q>
1

> <r_epik_Metal_State_Penalty>
2.0342

> <b_epik_Metal_Only>
1

> <s_lp_Force_Field>
OPLS_2005

> <r_lp_Energy>
14.0901

> <b_lp_Chiralities_Consistent>
1

> <s_lp_Variant>
AV-unprocessed.smi:2655-5

> <Gold.Version>
5.8.1

> <Gold.Id.Protein>
6NUR|6NUR_protein|mol2

> <Gold.PLP.Fitness>
37.2484

> <Gold.PLP.PLP>
-30.2862

> <Gold.PLP.part.hbond>
-6.0000

> <Gold.PLP.part.metal>
0.0000

> <Gold.PLP.part.buried>
-1.2471

> <Gold.PLP.part.nonpolar>
-23.2202

> <Gold.PLP.part.repulsive>
1.0962

> <Gold.PLP.ligand.clash>
0.0000

> <Gold.PLP.ligand.torsion>
0.8185

> <Gold.PLP.Chemscore.Hbond>
2.8656

> <Gold.PLP.Chemscore.CHOScore>
0.0000

> <Gold.PLP.Chemscore.Metal>
0.0000

> <Gold.Chemscore.Hbonds>
donor molecule, donor type, donor heavy atom, donor atom, acceptor molecule, acceptor atom, score
      L1  H     3    33       P1 10957  1.00
      L1  H    10    27       P1  7948  1.00
      L1  H    13    28       P1  7948  0.71

> <Gold.PLP.Chemscore.Internal.Correction>
0.0025

> <Gold.Rescore>
     Score         DG    S(hbond)    S(metal)    S(lipo)     H(rot)  DE(clash)    DE(int)     intcor
     11.86     -15.20       2.70        0.00      46.50       1.85       0.03       3.31       ----

> <Gold.Chemscore.Fitness>
11.8625

> <Gold.Chemscore.DG>
-15.1995

> <Gold.Chemscore.ZeroCoef>
-5.4800

> <Gold.Chemscore.Hbond>
2.6992

> <Gold.Chemscore.Metal>
0.0000

> <Gold.Chemscore.Lipo>
46.5046

> <Gold.Chemscore.Internal_Hbond>
0.0000

> <Gold.Chemscore.DEClash>
0.0311

> <Gold.Chemscore.DEInternal>
3.3058

> <Gold.Chemscore.Rot>
1.8504

> <Gold.Chemscore.Internal.Correction>
   9.000000E+99

> <Gold.Chemscore.Hbonds>
donor molecule, donor type, donor heavy atom, donor atom, acceptor molecule, acceptor atom, score
      L1  H     3    33       P1 10957  0.92
      L1  H    10    27       P1  7948  0.94
      L1  H    13    28       P1  7948  0.66

> <Gold.Chemscore.Hbond.Weighted>
-9.0154

> <Gold.Chemscore.Metal.Weighted>
-0.0000

> <Gold.Chemscore.Lipo.Weighted>
-5.4410

> <Gold.Chemscore.Internal_Hbond.Weighted>
0.0000

> <Gold.Chemscore.DEClash.Weighted>
0.0311

> <Gold.Chemscore.DEInternal.Weighted>
3.3058

> <Gold.Chemscore.Rot.Weighted>
4.7369

> <Gold.Chemscore.Internal.Correction.Weighted>
   9.000000E+99

> <Gold.Protein.RotatedTorsions>
[ 6907 6896 6895 6894 ] final  119.75 input  -60.11 | X-H torsion
[ 7974 7965 7964 7962 ] final  -65.32 input  175.53 | X-H torsion
[ 8008 7997 7996 7995 ] final   67.87 input   59.86 | X-H torsion
[ 10167 10162 10161 10158 ] final -178.40 input  -65.29 | X-H torsion
[ 10718 10713 10712 10709 ] final  167.93 input   66.30 | X-H torsion
[ 10763 10752 10751 10750 ] final -148.32 input  -60.55 | X-H torsion
[ 11005 11000 10999 10996 ] final   -8.69 input  -57.11 | X-H torsion

> <Gold.Protein.ActiveResidues>
 VAL166  LYS551  ARG553  GLY616  TRP617  ASP618  TYR619  PRO620  LYS621  CYS622 
 ASP623  PHE694  ASN695  SER759  ASP760  ASP761  ALA762  ILE779  LEU786  VAL792 
 PHE793  MET794  SER795  GLU796  ALA797  LYS798  CYS799  TRP800  GLU811  SER814 

> <Gold.Protein.RotatedAtoms>
  152.4449  133.7517  159.6697 H   0  0  0  0  0  0  0  0  0  0  0  0  # atno 6907 bound_to 6896
  150.8347  133.8023  159.3090 H   0  0  0  0  0  0  0  0  0  0  0  0  # atno 6908 bound_to 6896
  151.5666  135.1066  160.0037 H   0  0  0  0  0  0  0  0  0  0  0  0  # atno 6909 bound_to 6896
  145.7557  140.8886  143.0456 H   0  0  0  0  0  0  0  0  0  0  0  0  # atno 7974 bound_to 7965
  155.6996  140.3495  155.4927 H   0  0  0  0  0  0  0  0  0  0  0  0  # atno 8008 bound_to 7997
  155.9452  140.1109  157.1044 H   0  0  0  0  0  0  0  0  0  0  0  0  # atno 8009 bound_to 7997
  154.4110  140.1205  156.4966 H   0  0  0  0  0  0  0  0  0  0  0  0  # atno 8010 bound_to 7997
  139.5434  144.2301  152.0940 H   0  0  0  0  0  0  0  0  0  0  0  0  # atno 10167 bound_to 10162
  157.0444  131.0295  151.2702 H   0  0  0  0  0  0  0  0  0  0  0  0  # atno 10718 bound_to 10713
  154.8239  135.3337  154.6955 H   0  0  0  0  0  0  0  0  0  0  0  0  # atno 10763 bound_to 10752
  153.7584  135.6934  153.4935 H   0  0  0  0  0  0  0  0  0  0  0  0  # atno 10764 bound_to 10752
  153.2128  135.4476  155.0349 H   0  0  0  0  0  0  0  0  0  0  0  0  # atno 10765 bound_to 10752
  140.7262  133.8787  155.8858 H   0  0  0  0  0  0  0  0  0  0  0  0  # atno 11005 bound_to 11000
  144.6840  139.9653  143.7481 LP  0  0  0  0  0  0  0  0  0  0  0  0  # atno 17320 bound_to 7965
  146.0313  139.3338  143.0753 LP  0  0  0  0  0  0  0  0  0  0  0  0  # atno 17321 bound_to 7965
  140.1783  144.4869  150.6542 LP  0  0  0  0  0  0  0  0  0  0  0  0  # atno 17342 bound_to 10162
  140.6673  143.2272  151.5712 LP  0  0  0  0  0  0  0  0  0  0  0  0  # atno 17343 bound_to 10162
  157.5079  130.7920  149.7674 LP  0  0  0  0  0  0  0  0  0  0  0  0  # atno 17370 bound_to 10713
  156.0028  130.3871  150.2543 LP  0  0  0  0  0  0  0  0  0  0  0  0  # atno 17371 bound_to 10713
  140.9961  134.1214  157.4362 LP  0  0  0  0  0  0  0  0  0  0  0  0  # atno 17394 bound_to 11000
  139.8836  135.0055  156.6316 LP  0  0  0  0  0  0  0  0  0  0  0  0  # atno 17395 bound_to 11000

$$$$
