AV-unprocessed.smi:2881|AV-procd|sdf|11061|dock5
  -GOLD-   2272015533D 1   1.00000     0.00000
 Structure written by MMmdl.
 40 42  0  0  0  0  0  0  0  0  1 V2000
  147.0878  139.7702  152.6678 C   0  0  0  0  0  0  0  0  0  0  0  0
  148.4126  139.6612  153.3430 C   0  0  0  0  0  0  0  0  0  0  0  0
  149.0553  140.4967  154.2120 C   0  0  0  0  0  0  0  0  0  0  0  0
  150.2816  139.8289  154.5035 C   0  0  0  0  0  0  0  0  0  0  0  0
  151.3814  140.2765  155.4293 C   0  0  0  0  0  0  0  0  0  0  0  0
  150.7739  140.7365  156.7538 C   0  0  0  0  0  0  0  0  0  0  0  0
  149.8020  140.1465  157.2253 O   0  0  0  0  0  0  0  0  0  0  0  0
  151.3824  141.7693  157.3566 N   0  0  0  0  0  0  0  0  0  0  0  0
  151.0764  142.2746  158.6948 C   0  0  2  0  0  0  0  0  0  0  0  0
  150.5813  143.7419  158.6791 C   0  0  2  0  0  0  0  0  0  0  0  0
  151.5250  144.6485  157.8601 C   0  0  0  0  0  0  0  0  0  0  0  0
  152.7808  144.7132  158.7473 C   0  0  0  0  0  0  0  0  0  0  0  0
  152.3847  143.8602  159.9712 C   0  0  1  0  0  0  0  0  0  0  0  0
  150.9038  144.1977  160.0987 C   0  0  0  0  0  0  0  0  0  0  0  0
  152.3163  142.3501  159.6331 C   0  0  2  0  0  0  0  0  0  0  0  0
  153.6305  141.7101  159.1255 C   0  0  0  0  0  0  0  0  0  0  0  0
  153.3758  140.4426  158.5587 O   0  0  0  0  0  0  0  0  0  0  0  0
  150.3920  138.6743  153.8600 N   0  0  0  0  0  0  0  0  0  0  0  0
  149.2468  138.5830  153.1586 N   0  0  0  0  0  0  0  0  0  0  0  0
  149.0512  137.7901  152.5640 H   0  0  0  0  0  0  0  0  0  0  0  0
  146.6515  140.7572  152.8233 H   0  0  0  0  0  0  0  0  0  0  0  0
  146.3917  139.0289  153.0608 H   0  0  0  0  0  0  0  0  0  0  0  0
  147.1837  139.6106  151.5936 H   0  0  0  0  0  0  0  0  0  0  0  0
  148.7005  141.4431  154.5931 H   0  0  0  0  0  0  0  0  0  0  0  0
  152.0958  139.4724  155.6130 H   0  0  0  0  0  0  0  0  0  0  0  0
  151.9436  141.0974  154.9828 H   0  0  0  0  0  0  0  0  0  0  0  0
  152.1706  142.1892  156.8849 H   0  0  0  0  0  0  0  0  0  0  0  0
  150.3098  141.6552  159.1643 H   0  0  0  0  0  0  0  0  0  0  0  0
  149.5331  143.8418  158.3958 H   0  0  0  0  0  0  0  0  0  0  0  0
  151.7358  144.2758  156.8577 H   0  0  0  0  0  0  0  0  0  0  0  0
  151.0917  145.6434  157.7484 H   0  0  0  0  0  0  0  0  0  0  0  0
  153.6745  144.3534  158.2397 H   0  0  0  0  0  0  0  0  0  0  0  0
  152.9751  145.7434  159.0481 H   0  0  0  0  0  0  0  0  0  0  0  0
  152.9747  144.0785  160.8618 H   0  0  0  0  0  0  0  0  0  0  0  0
  150.7127  145.2591  160.2682 H   0  0  0  0  0  0  0  0  0  0  0  0
  150.3897  143.6178  160.8673 H   0  0  0  0  0  0  0  0  0  0  0  0
  152.0525  141.8243  160.5527 H   0  0  0  0  0  0  0  0  0  0  0  0
  154.0802  142.3374  158.3556 H   0  0  0  0  0  0  0  0  0  0  0  0
  154.3724  141.6055  159.9164 H   0  0  0  0  0  0  0  0  0  0  0  0
  152.4466  140.3648  158.4043 H   0  0  0  0  0  0  0  0  0  0  0  0
  1  2  1  0  0  0  0
  1 21  1  0  0  0  0
  1 22  1  0  0  0  0
  1 23  1  0  0  0  0
  2 19  1  0  0  0  0
  2  3  2  0  0  0  0
  3  4  1  0  0  0  0
  3 24  1  0  0  0  0
  4  5  1  0  0  0  0
  4 18  2  0  0  0  0
  5  6  1  0  0  0  0
  5 25  1  0  0  0  0
  5 26  1  0  0  0  0
  6  7  2  0  0  0  0
  6  8  1  0  0  0  0
  8  9  1  0  0  0  0
  8 27  1  0  0  0  0
  9 15  1  0  0  0  0
  9 10  1  0  0  0  0
  9 28  1  0  0  0  0
 10 14  1  0  0  0  0
 10 11  1  0  0  0  0
 10 29  1  0  0  0  0
 11 12  1  0  0  0  0
 11 30  1  0  0  0  0
 11 31  1  0  0  0  0
 12 13  1  0  0  0  0
 12 32  1  0  0  0  0
 12 33  1  0  0  0  0
 13 14  1  0  0  0  0
 13 15  1  0  0  0  0
 13 34  1  0  0  0  0
 14 35  1  0  0  0  0
 14 36  1  0  0  0  0
 15 16  1  0  0  0  0
 15 37  1  0  0  0  0
 16 17  1  0  0  0  0
 16 38  1  0  0  0  0
 16 39  1  0  0  0  0
 17 40  1  0  0  0  0
 18 19  1  0  0  0  0
 19 20  1  0  0  0  0
M  END
> <s_m_source_file>
AV-unprocessed.smi

> <i_m_source_file_index>
2881

> <i_lp_mmshare_version>
43012

> <i_f3d_flags>
0

> <s_epik_input>
W0NIM11jMVtjSF1jKG5bbkhdMSlbQ0gyXUMoPU8pW05IXVtDQEhdKFtDQEBIXTIzKVtDQEhdKFtDSDJdW09IXSlbQ0BASF0oW0NIMl0zKVtDSDJdW0NIMl0y

> <s_epik_cmdline>
J2VwaWtfcHl0aG9uJywgJy1waCcsICc3LjAnLCAnLXRuJywgJzgnLCAnLW1hJywgJzIwMCcsICctbWV0YWxfYmluZGluZycsICctaW1hZScsICc8aW5maWxlLm1hZT4nLCAnLW9tYWUnLCAnPG91dGZpbGUubWFlPic=

> <r_lp_tautomer_probability>
0.5

> <r_epik_Ionization_Penalty>
9.4349e-05

> <r_epik_Ionization_Penalty_Charging>
0

> <r_epik_Ionization_Penalty_Neutral>
9.4349e-05

> <r_epik_State_Penalty>
0.41068

> <r_epik_Charging_Adjusted_Penalty>
0.41068

> <i_epik_Tot_Q>
0

> <i_epik_Tot_abs_Q>
0

> <r_epik_Metal_State_Penalty>
0.4107

> <b_epik_Metal_Only>
0

> <s_lp_Force_Field>
OPLS_2005

> <r_lp_Energy>
48.5283

> <b_lp_Chiralities_Consistent>
1

> <s_lp_Variant>
AV-unprocessed.smi:2881-7

> <Gold.Version>
5.8.1

> <Gold.Id.Protein>
6NUR|6NUR_protein|mol2

> <Gold.PLP.Fitness>
42.7811

> <Gold.PLP.PLP>
-38.8945

> <Gold.PLP.part.hbond>
-3.0000

> <Gold.PLP.part.metal>
0.0000

> <Gold.PLP.part.buried>
-0.6988

> <Gold.PLP.part.nonpolar>
-34.0881

> <Gold.PLP.part.repulsive>
0.3627

> <Gold.PLP.ligand.clash>
0.0000

> <Gold.PLP.ligand.torsion>
0.5974

> <Gold.PLP.Chemscore.Hbond>
1.6890

> <Gold.PLP.Chemscore.CHOScore>
0.0000

> <Gold.PLP.Chemscore.Metal>
0.0000

> <Gold.Chemscore.Hbonds>
donor molecule, donor type, donor heavy atom, donor atom, acceptor molecule, acceptor atom, score
      L1  H    19    20       P1  7948  1.00
      P1  H  7997  8008       L1    17  0.80

> <Gold.PLP.Chemscore.Internal.Correction>
0.0144

> <Gold.Rescore>
     Score         DG    S(hbond)    S(metal)    S(lipo)     H(rot)  DE(clash)    DE(int)     intcor
     14.10     -18.74       1.53        0.00     119.35       2.28       1.22       3.42       ----

> <Gold.Chemscore.Fitness>
14.1020

> <Gold.Chemscore.DG>
-18.7379

> <Gold.Chemscore.ZeroCoef>
-5.4800

> <Gold.Chemscore.Hbond>
1.5326

> <Gold.Chemscore.Metal>
0.0000

> <Gold.Chemscore.Lipo>
119.3538

> <Gold.Chemscore.Internal_Hbond>
0.0000

> <Gold.Chemscore.DEClash>
1.2208

> <Gold.Chemscore.DEInternal>
3.4151

> <Gold.Chemscore.Rot>
2.2755

> <Gold.Chemscore.Internal.Correction>
   9.000000E+99

> <Gold.Chemscore.Hbonds>
donor molecule, donor type, donor heavy atom, donor atom, acceptor molecule, acceptor atom, score
      L1  H    19    20       P1  7948  0.99
      P1  H  7997  8008       L1    17  0.54

> <Gold.Chemscore.Hbond.Weighted>
-5.1187

> <Gold.Chemscore.Metal.Weighted>
-0.0000

> <Gold.Chemscore.Lipo.Weighted>
-13.9644

> <Gold.Chemscore.Internal_Hbond.Weighted>
0.0000

> <Gold.Chemscore.DEClash.Weighted>
1.2208

> <Gold.Chemscore.DEInternal.Weighted>
3.4151

> <Gold.Chemscore.Rot.Weighted>
5.8252

> <Gold.Chemscore.Internal.Correction.Weighted>
   9.000000E+99

> <Gold.Protein.RotatedTorsions>
[ 6907 6896 6895 6894 ] final -106.11 input  -60.11 | X-H torsion
[ 7974 7965 7964 7962 ] final  -57.90 input  175.53 | X-H torsion
[ 8008 7997 7996 7995 ] final  -96.81 input   59.86 | X-H torsion
[ 10167 10162 10161 10158 ] final -137.77 input  -65.29 | X-H torsion
[ 10718 10713 10712 10709 ] final -179.91 input   66.30 | X-H torsion
[ 10763 10752 10751 10750 ] final  -45.71 input  -60.55 | X-H torsion
[ 11005 11000 10999 10996 ] final   38.56 input  -57.11 | X-H torsion

> <Gold.Protein.ActiveResidues>
 VAL166  LYS551  ARG553  GLY616  TRP617  ASP618  TYR619  PRO620  LYS621  CYS622 
 ASP623  PHE694  ASN695  SER759  ASP760  ASP761  ALA762  ILE779  LEU786  VAL792 
 PHE793  MET794  SER795  GLU796  ALA797  LYS798  CYS799  TRP800  GLU811  SER814 

> <Gold.Protein.RotatedAtoms>
  150.7371  134.0026  159.3642 H   0  0  0  0  0  0  0  0  0  0  0  0  # atno 6907 bound_to 6896
  151.7981  135.0714  160.0406 H   0  0  0  0  0  0  0  0  0  0  0  0  # atno 6908 bound_to 6896
  152.3160  133.5767  159.5749 H   0  0  0  0  0  0  0  0  0  0  0  0  # atno 6909 bound_to 6896
  145.8456  140.8387  143.0012 H   0  0  0  0  0  0  0  0  0  0  0  0  # atno 7974 bound_to 7965
  154.7793  140.0468  157.1114 H   0  0  0  0  0  0  0  0  0  0  0  0  # atno 8008 bound_to 7997
  154.9724  140.3091  155.4962 H   0  0  0  0  0  0  0  0  0  0  0  0  # atno 8009 bound_to 7997
  156.2934  140.2251  156.4817 H   0  0  0  0  0  0  0  0  0  0  0  0  # atno 8010 bound_to 7997
  139.8544  143.7157  152.2655 H   0  0  0  0  0  0  0  0  0  0  0  0  # atno 10167 bound_to 10162
  156.8661  130.9768  151.3078 H   0  0  0  0  0  0  0  0  0  0  0  0  # atno 10718 bound_to 10713
  154.0330  135.6654  153.4782 H   0  0  0  0  0  0  0  0  0  0  0  0  # atno 10763 bound_to 10752
  153.0533  135.5071  154.7915 H   0  0  0  0  0  0  0  0  0  0  0  0  # atno 10764 bound_to 10752
  154.6866  135.3054  154.9503 H   0  0  0  0  0  0  0  0  0  0  0  0  # atno 10765 bound_to 10752
  140.2114  134.3750  155.8047 H   0  0  0  0  0  0  0  0  0  0  0  0  # atno 11005 bound_to 11000
  144.6731  140.0877  143.7466 LP  0  0  0  0  0  0  0  0  0  0  0  0  # atno 17320 bound_to 7965
  145.9415  139.2672  143.1266 LP  0  0  0  0  0  0  0  0  0  0  0  0  # atno 17321 bound_to 7965
  139.7434  144.7553  151.0617 LP  0  0  0  0  0  0  0  0  0  0  0  0  # atno 17342 bound_to 10162
  140.7783  143.4945  150.9850 LP  0  0  0  0  0  0  0  0  0  0  0  0  # atno 17343 bound_to 10162
  157.6222  130.8664  149.9129 LP  0  0  0  0  0  0  0  0  0  0  0  0  # atno 17370 bound_to 10713
  156.0751  130.3680  150.0695 LP  0  0  0  0  0  0  0  0  0  0  0  0  # atno 17371 bound_to 10713
  141.2226  133.7145  156.8424 LP  0  0  0  0  0  0  0  0  0  0  0  0  # atno 17394 bound_to 11000
  140.1946  134.8941  157.3100 LP  0  0  0  0  0  0  0  0  0  0  0  0  # atno 17395 bound_to 11000

$$$$
