AV-unprocessed.smi:798|AV-procd|sdf|3774|dock8
  -GOLD-   22720 1203D 1   1.00000     0.00000
 Structure written by MMmdl.
 34 36  0  0  0  0  0  0  0  0  1 V2000
  145.2886  129.1946  152.0342 O   0  0  0  0  0  0  0  0  0  0  0  0
  146.3321  129.7128  151.6359 C   0  0  0  0  0  0  0  0  0  0  0  0
  147.4923  129.0649  151.4319 N   0  0  0  0  0  0  0  0  0  0  0  0
  147.7760  127.6865  151.6211 C   0  0  0  0  0  0  0  0  0  0  0  0
  147.3616  126.9796  152.6841 N   0  0  0  0  0  0  0  0  0  0  0  0
  147.7758  125.6553  152.6209 N   0  0  0  0  0  0  0  0  0  0  0  0
  148.4856  125.4163  151.5147 C   0  0  0  0  0  0  0  0  0  0  0  0
  148.7190  126.7858  150.4423 S   0  0  0  0  0  0  0  0  0  0  0  0
  146.4512  131.0164  151.3479 N   0  0  0  0  0  0  0  0  0  0  0  0
  145.3771  132.0030  151.4342 C   0  0  1  0  0  0  0  0  0  0  0  0
  145.7744  133.1521  152.3872 C   0  0  2  0  0  0  0  0  0  0  0  0
  144.5086  133.9442  152.7600 C   0  0  0  0  0  0  0  0  0  0  0  0
  144.1877  134.6918  151.4522 C   0  0  0  0  0  0  0  0  0  0  0  0
  145.3116  134.2260  150.5013 C   0  0  1  0  0  0  0  0  0  0  0  0
  146.4895  134.1336  151.4629 C   0  0  0  0  0  0  0  0  0  0  0  0
  145.1450  132.7431  150.0912 C   0  0  2  0  0  0  0  0  0  0  0  0
  143.8169  132.4084  149.3849 C   0  0  0  0  0  0  0  0  0  0  0  0
  143.6857  133.1758  148.2076 O   0  0  0  0  0  0  0  0  0  0  0  0
  148.2643  129.6239  151.1004 H   0  0  0  0  0  0  0  0  0  0  0  0
  148.8748  124.4262  151.3287 H   0  0  0  0  0  0  0  0  0  0  0  0
  147.3481  131.3527  151.0299 H   0  0  0  0  0  0  0  0  0  0  0  0
  144.4637  131.5252  151.7947 H   0  0  0  0  0  0  0  0  0  0  0  0
  146.3502  132.8312  153.2561 H   0  0  0  0  0  0  0  0  0  0  0  0
  143.6914  133.2993  153.0852 H   0  0  0  0  0  0  0  0  0  0  0  0
  144.7157  134.6512  153.5643 H   0  0  0  0  0  0  0  0  0  0  0  0
  143.1877  134.4755  151.0783 H   0  0  0  0  0  0  0  0  0  0  0  0
  144.2468  135.7693  151.6107 H   0  0  0  0  0  0  0  0  0  0  0  0
  145.4697  134.8944  149.6546 H   0  0  0  0  0  0  0  0  0  0  0  0
  146.7337  135.0822  151.9444 H   0  0  0  0  0  0  0  0  0  0  0  0
  147.3925  133.7235  151.0073 H   0  0  0  0  0  0  0  0  0  0  0  0
  145.9584  132.5144  149.3990 H   0  0  0  0  0  0  0  0  0  0  0  0
  143.7542  131.3520  149.1247 H   0  0  0  0  0  0  0  0  0  0  0  0
  142.9733  132.6357  150.0367 H   0  0  0  0  0  0  0  0  0  0  0  0
  144.4967  133.6361  148.0548 H   0  0  0  0  0  0  0  0  0  0  0  0
  1  2  2  0  0  0  0
  2  3  1  0  0  0  0
  2  9  1  0  0  0  0
  3  4  1  0  0  0  0
  3 19  1  0  0  0  0
  4  8  1  0  0  0  0
  4  5  2  0  0  0  0
  5  6  1  0  0  0  0
  6  7  2  0  0  0  0
  7  8  1  0  0  0  0
  7 20  1  0  0  0  0
  9 10  1  0  0  0  0
  9 21  1  0  0  0  0
 10 16  1  0  0  0  0
 10 11  1  0  0  0  0
 10 22  1  0  0  0  0
 11 15  1  0  0  0  0
 11 12  1  0  0  0  0
 11 23  1  0  0  0  0
 12 13  1  0  0  0  0
 12 24  1  0  0  0  0
 12 25  1  0  0  0  0
 13 14  1  0  0  0  0
 13 26  1  0  0  0  0
 13 27  1  0  0  0  0
 14 15  1  0  0  0  0
 14 16  1  0  0  0  0
 14 28  1  0  0  0  0
 15 29  1  0  0  0  0
 15 30  1  0  0  0  0
 16 17  1  0  0  0  0
 16 31  1  0  0  0  0
 17 18  1  0  0  0  0
 17 32  1  0  0  0  0
 17 33  1  0  0  0  0
 18 34  1  0  0  0  0
M  END
> <s_m_source_file>
AV-unprocessed.smi

> <i_m_source_file_index>
798

> <i_lp_mmshare_version>
43012

> <i_f3d_flags>
0

> <s_epik_input>
W0NIMl0xW0NIMl1bQ0BASF0oW0NIMl0yKVtDQEBIXShbQ0gyXVtPSF0pW0NAQEhdKFtDQEhdMTIpW05IXUMoPU8pW05IXWMzbm5bY0hdczM=

> <s_epik_cmdline>
J2VwaWtfcHl0aG9uJywgJy1waCcsICc3LjAnLCAnLXRuJywgJzgnLCAnLW1hJywgJzIwMCcsICctbWV0YWxfYmluZGluZycsICctaW1hZScsICc8aW5maWxlLm1hZT4nLCAnLW9tYWUnLCAnPG91dGZpbGUubWFlPic=

> <r_lp_tautomer_probability>
1

> <r_epik_Ionization_Penalty>
0.000329046

> <r_epik_Ionization_Penalty_Charging>
0

> <r_epik_Ionization_Penalty_Neutral>
0.000329046

> <r_epik_State_Penalty>
-0

> <r_epik_Charging_Adjusted_Penalty>
0

> <i_epik_Tot_Q>
0

> <i_epik_Tot_abs_Q>
0

> <r_epik_Metal_State_Penalty>
0.173433

> <b_epik_Metal_Only>
0

> <s_lp_Force_Field>
OPLS_2005

> <r_lp_Energy>
48.4277

> <b_lp_Chiralities_Consistent>
1

> <s_lp_Variant>
AV-unprocessed.smi:798-6

> <Gold.Version>
5.8.1

> <Gold.Id.Protein>
6NUR|6NUR_protein|mol2

> <Gold.PLP.Fitness>
45.0494

> <Gold.PLP.PLP>
-37.1375

> <Gold.PLP.part.hbond>
-4.6400

> <Gold.PLP.part.metal>
0.0000

> <Gold.PLP.part.buried>
-4.8595

> <Gold.PLP.part.nonpolar>
-27.5243

> <Gold.PLP.part.repulsive>
0.2794

> <Gold.PLP.ligand.clash>
0.0000

> <Gold.PLP.ligand.torsion>
0.3611

> <Gold.PLP.Chemscore.Hbond>
2.8713

> <Gold.PLP.Chemscore.CHOScore>
0.0000

> <Gold.PLP.Chemscore.Metal>
0.0000

> <Gold.Chemscore.Hbonds>
donor molecule, donor type, donor heavy atom, donor atom, acceptor molecule, acceptor atom, score
      L1  H     3    19       P1 10747  1.00
      L1  H     9    21       P1 10747  0.90
      L1  H    18    34       P1  7921  0.99

> <Gold.PLP.Chemscore.Internal.Correction>
0.0205

> <Gold.Rescore>
     Score         DG    S(hbond)    S(metal)    S(lipo)     H(rot)  DE(clash)    DE(int)     intcor
     15.82     -16.80       2.50        0.00      67.78       1.94       0.51       0.46       ----

> <Gold.Chemscore.Fitness>
15.8230

> <Gold.Chemscore.DG>
-16.7975

> <Gold.Chemscore.ZeroCoef>
-5.4800

> <Gold.Chemscore.Hbond>
2.5043

> <Gold.Chemscore.Metal>
0.0000

> <Gold.Chemscore.Lipo>
67.7793

> <Gold.Chemscore.Internal_Hbond>
0.0000

> <Gold.Chemscore.DEClash>
0.5145

> <Gold.Chemscore.DEInternal>
0.4600

> <Gold.Chemscore.Rot>
1.9442

> <Gold.Chemscore.Internal.Correction>
   9.000000E+99

> <Gold.Chemscore.Hbonds>
donor molecule, donor type, donor heavy atom, donor atom, acceptor molecule, acceptor atom, score
      L1  H     3    19       P1 10747  0.49
      L1  H     9    21       P1 10747  0.86
      L1  H    18    34       P1  7921  0.91

> <Gold.Chemscore.Hbond.Weighted>
-8.3644

> <Gold.Chemscore.Metal.Weighted>
-0.0000

> <Gold.Chemscore.Lipo.Weighted>
-7.9302

> <Gold.Chemscore.Internal_Hbond.Weighted>
0.0000

> <Gold.Chemscore.DEClash.Weighted>
0.5145

> <Gold.Chemscore.DEInternal.Weighted>
0.4600

> <Gold.Chemscore.Rot.Weighted>
4.9771

> <Gold.Chemscore.Internal.Correction.Weighted>
   9.000000E+99

> <Gold.Protein.RotatedTorsions>
[ 6907 6896 6895 6894 ] final  -50.75 input  -60.11 | X-H torsion
[ 7974 7965 7964 7962 ] final  143.84 input  175.53 | X-H torsion
[ 8008 7997 7996 7995 ] final   93.69 input   59.86 | X-H torsion
[ 10167 10162 10161 10158 ] final   37.98 input  -65.29 | X-H torsion
[ 10718 10713 10712 10709 ] final   52.70 input   66.30 | X-H torsion
[ 10763 10752 10751 10750 ] final -133.12 input  -60.55 | X-H torsion
[ 11005 11000 10999 10996 ] final   37.60 input  -57.11 | X-H torsion

> <Gold.Protein.ActiveResidues>
 VAL166  LYS551  ARG553  GLY616  TRP617  ASP618  TYR619  PRO620  LYS621  CYS622 
 ASP623  PHE694  ASN695  SER759  ASP760  ASP761  ALA762  ILE779  LEU786  VAL792 
 PHE793  MET794  SER795  GLU796  ALA797  LYS798  CYS799  TRP800  GLU811  SER814 

> <Gold.Protein.RotatedAtoms>
  150.8677  134.8044  159.7131 H   0  0  0  0  0  0  0  0  0  0  0  0  # atno 6907 bound_to 6896
  152.4693  134.4997  159.9730 H   0  0  0  0  0  0  0  0  0  0  0  0  # atno 6908 bound_to 6896
  151.5090  133.3450  159.2917 H   0  0  0  0  0  0  0  0  0  0  0  0  # atno 6909 bound_to 6896
  144.8886  139.5591  143.5809 H   0  0  0  0  0  0  0  0  0  0  0  0  # atno 7974 bound_to 7965
  156.0496  140.3309  155.7336 H   0  0  0  0  0  0  0  0  0  0  0  0  # atno 8008 bound_to 7997
  155.5621  140.0620  157.2844 H   0  0  0  0  0  0  0  0  0  0  0  0  # atno 8009 bound_to 7997
  154.4430  140.1875  156.0781 H   0  0  0  0  0  0  0  0  0  0  0  0  # atno 8010 bound_to 7997
  140.3981  144.1761  150.6132 H   0  0  0  0  0  0  0  0  0  0  0  0  # atno 10167 bound_to 10162
  157.5099  130.8494  149.8422 H   0  0  0  0  0  0  0  0  0  0  0  0  # atno 10718 bound_to 10713
  154.8736  135.3776  154.4521 H   0  0  0  0  0  0  0  0  0  0  0  0  # atno 10763 bound_to 10752
  153.5196  135.7029  153.5743 H   0  0  0  0  0  0  0  0  0  0  0  0  # atno 10764 bound_to 10752
  153.3996  135.3951  155.1944 H   0  0  0  0  0  0  0  0  0  0  0  0  # atno 10765 bound_to 10752
  140.2209  134.3642  155.8005 H   0  0  0  0  0  0  0  0  0  0  0  0  # atno 11005 bound_to 11000
  146.3040  139.7519  142.9070 LP  0  0  0  0  0  0  0  0  0  0  0  0  # atno 17320 bound_to 7965
  145.3823  141.0360  143.3170 LP  0  0  0  0  0  0  0  0  0  0  0  0  # atno 17321 bound_to 7965
  140.4769  143.2393  151.9010 LP  0  0  0  0  0  0  0  0  0  0  0  0  # atno 17342 bound_to 10162
  139.4786  144.5311  151.8666 LP  0  0  0  0  0  0  0  0  0  0  0  0  # atno 17343 bound_to 10162
  156.0282  130.3773  150.1762 LP  0  0  0  0  0  0  0  0  0  0  0  0  # atno 17370 bound_to 10713
  156.9952  130.9905  151.3405 LP  0  0  0  0  0  0  0  0  0  0  0  0  # atno 17371 bound_to 10713
  141.2223  133.7193  156.8574 LP  0  0  0  0  0  0  0  0  0  0  0  0  # atno 17394 bound_to 11000
  140.1851  134.9006  157.2994 LP  0  0  0  0  0  0  0  0  0  0  0  0  # atno 17395 bound_to 11000

$$$$
