AV-unprocessed.smi:2710|AV-procd|sdf|10470|dock3
  -GOLD-   2272014513D 1   1.00000     0.00000
 Structure written by MMmdl.
 53 54  0  0  0  0  0  0  0  0  2 V2000
  144.8511  136.0394  151.2908 C   0  0  0  0  0  0  0  0  0  0  0  0
  144.5498  135.0287  150.1740 C   0  0  0  0  0  0  0  0  0  0  0  0
  143.7528  133.8587  150.6471 N   0  3  2  0  0  0  0  0  0  0  0  0
  143.8394  133.6191  152.1156 C   0  0  0  0  0  0  0  0  0  0  0  0
  145.2023  133.0270  152.5268 C   0  0  0  0  0  0  0  0  0  0  0  0
  145.5205  131.7441  151.7377 C   0  0  2  0  0  0  0  0  0  0  0  0
  146.8803  131.2996  152.0331 N   0  0  0  0  0  0  0  0  0  0  0  0
  147.4744  131.3392  153.2346 C   0  0  0  0  0  0  0  0  0  0  0  0
  146.9285  131.7636  154.2526 O   0  0  0  0  0  0  0  0  0  0  0  0
  148.7349  130.8788  153.1673 N   0  0  0  0  0  0  0  0  0  0  0  0
  149.6766  130.7519  154.2226 C   0  0  0  0  0  0  0  0  0  0  0  0
  149.6753  131.7010  155.2646 C   0  0  0  0  0  0  0  0  0  0  0  0
  150.5516  131.6390  156.2890 N   0  0  0  0  0  0  0  0  0  0  0  0
  151.4403  130.6370  156.2844 C   0  0  0  0  0  0  0  0  0  0  0  0
  152.4445  130.6078  157.4510 C   0  0  0  0  0  0  0  0  0  0  0  0
  151.7415  130.4634  158.8233 C   0  0  0  0  0  0  0  0  0  0  0  0
  153.2404  131.9294  157.4920 C   0  0  0  0  0  0  0  0  0  0  0  0
  153.3994  129.4087  157.2858 C   0  0  0  0  0  0  0  0  0  0  0  0
  151.5483  129.7032  155.3300 N   0  0  0  0  0  0  0  0  0  0  0  0
  150.6730  129.7503  154.3032 C   0  0  0  0  0  0  0  0  0  0  0  0
  145.3657  131.9857  150.2254 C   0  0  0  0  0  0  0  0  0  0  0  0
  143.9825  132.5856  149.8986 C   0  0  2  0  0  0  0  0  0  0  0  0
  143.7313  132.7042  148.3846 C   0  0  0  0  0  0  0  0  0  0  0  0
  145.3135  136.9358  150.8774 H   0  0  0  0  0  0  0  0  0  0  0  0
  145.5409  135.6418  152.0345 H   0  0  0  0  0  0  0  0  0  0  0  0
  143.9385  136.3473  151.8015 H   0  0  0  0  0  0  0  0  0  0  0  0
  143.9948  135.5727  149.4127 H   0  0  0  0  0  0  0  0  0  0  0  0
  145.4757  134.7054  149.6992 H   0  0  0  0  0  0  0  0  0  0  0  0
  143.6338  134.5278  152.6790 H   0  0  0  0  0  0  0  0  0  0  0  0
  143.0487  132.9217  152.3952 H   0  0  0  0  0  0  0  0  0  0  0  0
  145.9895  133.7661  152.3748 H   0  0  0  0  0  0  0  0  0  0  0  0
  145.1975  132.8097  153.5957 H   0  0  0  0  0  0  0  0  0  0  0  0
  144.7972  130.9802  152.0288 H   0  0  0  0  0  0  0  0  0  0  0  0
  147.4153  130.9361  151.2579 H   0  0  0  0  0  0  0  0  0  0  0  0
  149.0791  130.6454  152.2474 H   0  0  0  0  0  0  0  0  0  0  0  0
  148.9645  132.5143  155.2819 H   0  0  0  0  0  0  0  0  0  0  0  0
  152.4638  130.4590  159.6404 H   0  0  0  0  0  0  0  0  0  0  0  0
  151.1775  129.5321  158.8928 H   0  0  0  0  0  0  0  0  0  0  0  0
  151.0497  131.2861  159.0097 H   0  0  0  0  0  0  0  0  0  0  0  0
  152.5759  132.7874  157.6013 H   0  0  0  0  0  0  0  0  0  0  0  0
  153.8242  132.0795  156.5833 H   0  0  0  0  0  0  0  0  0  0  0  0
  153.9402  131.9464  158.3281 H   0  0  0  0  0  0  0  0  0  0  0  0
  154.1136  129.3531  158.1080 H   0  0  0  0  0  0  0  0  0  0  0  0
  153.9753  129.4783  156.3624 H   0  0  0  0  0  0  0  0  0  0  0  0
  152.8507  128.4665  157.2609 H   0  0  0  0  0  0  0  0  0  0  0  0
  150.7993  128.9924  153.5458 H   0  0  0  0  0  0  0  0  0  0  0  0
  146.1552  132.6467  149.8649 H   0  0  0  0  0  0  0  0  0  0  0  0
  145.4929  131.0416  149.6937 H   0  0  0  0  0  0  0  0  0  0  0  0
  143.2304  131.8847  150.2650 H   0  0  0  0  0  0  0  0  0  0  0  0
  143.6909  131.7155  147.9263 H   0  0  0  0  0  0  0  0  0  0  0  0
  144.5223  133.2544  147.8753 H   0  0  0  0  0  0  0  0  0  0  0  0
  142.7817  133.1983  148.1776 H   0  0  0  0  0  0  0  0  0  0  0  0
  142.7909  134.1067  150.4644 H   0  0  0  0  0  0  0  0  0  0  0  0
  1  2  1  0  0  0  0
  1 24  1  0  0  0  0
  1 25  1  0  0  0  0
  1 26  1  0  0  0  0
  2  3  1  0  0  0  0
  2 27  1  0  0  0  0
  2 28  1  0  0  0  0
  3 22  1  0  0  0  0
  3  4  1  0  0  0  0
  3 53  1  0  0  0  0
  4  5  1  0  0  0  0
  4 29  1  0  0  0  0
  4 30  1  0  0  0  0
  5  6  1  0  0  0  0
  5 31  1  0  0  0  0
  5 32  1  0  0  0  0
  6  7  1  0  0  0  0
  6 21  1  0  0  0  0
  6 33  1  0  0  0  0
  7  8  1  0  0  0  0
  7 34  1  0  0  0  0
  8  9  2  0  0  0  0
  8 10  1  0  0  0  0
 10 11  1  0  0  0  0
 10 35  1  0  0  0  0
 11 20  1  0  0  0  0
 11 12  2  0  0  0  0
 12 13  1  0  0  0  0
 12 36  1  0  0  0  0
 13 14  2  0  0  0  0
 14 15  1  0  0  0  0
 14 19  1  0  0  0  0
 15 16  1  0  0  0  0
 15 17  1  0  0  0  0
 15 18  1  0  0  0  0
 16 37  1  0  0  0  0
 16 38  1  0  0  0  0
 16 39  1  0  0  0  0
 17 40  1  0  0  0  0
 17 41  1  0  0  0  0
 17 42  1  0  0  0  0
 18 43  1  0  0  0  0
 18 44  1  0  0  0  0
 18 45  1  0  0  0  0
 19 20  2  0  0  0  0
 20 46  1  0  0  0  0
 21 22  1  0  0  0  0
 21 47  1  0  0  0  0
 21 48  1  0  0  0  0
 22 23  1  0  0  0  0
 22 49  1  0  0  0  0
 23 50  1  0  0  0  0
 23 51  1  0  0  0  0
 23 52  1  0  0  0  0
M  CHG  1   3   1
M  END
> <s_m_source_file>
AV-unprocessed.smi

> <i_m_source_file_index>
2710

> <i_lp_mmshare_version>
43012

> <i_f3d_flags>
0

> <s_epik_input>
W0NIM11bQ0gyXU4xW0NIMl1bQ0gyXVtDQEhdKFtDSDJdW0NASF0xW0NIM10pW05IXUMoPU8pW05IXWMyW2NIXW5jKEMoW0NIM10pKFtDSDNdKVtDSDNdKW5bY0hdMg==

> <s_epik_cmdline>
J2VwaWtfcHl0aG9uJywgJy1waCcsICc3LjAnLCAnLXRuJywgJzgnLCAnLW1hJywgJzIwMCcsICctbWV0YWxfYmluZGluZycsICctaW1hZScsICc8aW5maWxlLm1hZT4nLCAnLW9tYWUnLCAnPG91dGZpbGUubWFlPic=

> <r_lp_tautomer_probability>
1

> <r_epik_Ionization_Penalty>
0.00396003

> <r_epik_Ionization_Penalty_Charging>
0.0039379

> <r_epik_Ionization_Penalty_Neutral>
2.21316e-05

> <r_epik_State_Penalty>
0.00281651

> <r_epik_Charging_Adjusted_Penalty>
0.00675441

> <i_epik_Tot_Q>
1

> <i_epik_Tot_abs_Q>
1

> <r_epik_Metal_State_Penalty>
-0

> <b_epik_Metal_Only>
0

> <s_lp_Force_Field>
OPLS_2005

> <r_lp_Energy>
21.9784

> <b_lp_Chiralities_Consistent>
1

> <s_lp_Variant>
AV-unprocessed.smi:2710-7

> <Gold.Version>
5.8.1

> <Gold.Id.Protein>
6NUR|6NUR_protein|mol2

> <Gold.PLP.Fitness>
49.5993

> <Gold.PLP.PLP>
-36.6571

> <Gold.PLP.part.hbond>
-3.0000

> <Gold.PLP.part.metal>
0.0000

> <Gold.PLP.part.buried>
-3.0283

> <Gold.PLP.part.nonpolar>
-30.7542

> <Gold.PLP.part.repulsive>
0.1700

> <Gold.PLP.ligand.clash>
0.0603

> <Gold.PLP.ligand.torsion>
0.9541

> <Gold.PLP.Chemscore.Hbond>
3.9500

> <Gold.PLP.Chemscore.CHOScore>
1.0000

> <Gold.PLP.Chemscore.Metal>
0.0000

> <Gold.Chemscore.Hbonds>
donor molecule, donor type, donor heavy atom, donor atom, acceptor molecule, acceptor atom, score
      L1  H     3    53       P1 10186  2.00
      L1  H     7    34       P1 10747  1.00
      L1  H    10    35       P1 10747  0.95
      L1  C    20    46       P1 10737  0.98

> <Gold.PLP.Chemscore.Internal.Correction>
0.0608

> <Gold.Rescore>
     Score         DG    S(hbond)    S(metal)    S(lipo)     H(rot)  DE(clash)    DE(int)     intcor
     17.94     -21.55       2.38        0.00      98.08       1.31       0.01       3.59       ----

> <Gold.Chemscore.Fitness>
17.9438

> <Gold.Chemscore.DG>
-21.5481

> <Gold.Chemscore.ZeroCoef>
-5.4800

> <Gold.Chemscore.Hbond>
2.3778

> <Gold.Chemscore.Metal>
0.0000

> <Gold.Chemscore.Lipo>
98.0775

> <Gold.Chemscore.Internal_Hbond>
0.0000

> <Gold.Chemscore.DEClash>
0.0111

> <Gold.Chemscore.DEInternal>
3.5932

> <Gold.Chemscore.Rot>
1.3081

> <Gold.Chemscore.Internal.Correction>
   9.000000E+99

> <Gold.Chemscore.Hbonds>
donor molecule, donor type, donor heavy atom, donor atom, acceptor molecule, acceptor atom, score
      L1  H     3    53       P1 10186  0.80
      L1  H     7    34       P1 10747  0.95
      L1  H    10    35       P1 10747  0.20

> <Gold.Chemscore.Hbond.Weighted>
-7.9418

> <Gold.Chemscore.Metal.Weighted>
-0.0000

> <Gold.Chemscore.Lipo.Weighted>
-11.4751

> <Gold.Chemscore.Internal_Hbond.Weighted>
0.0000

> <Gold.Chemscore.DEClash.Weighted>
0.0111

> <Gold.Chemscore.DEInternal.Weighted>
3.5932

> <Gold.Chemscore.Rot.Weighted>
3.3488

> <Gold.Chemscore.Internal.Correction.Weighted>
   9.000000E+99

> <Gold.Protein.RotatedTorsions>
[ 6907 6896 6895 6894 ] final  117.22 input  -60.11 | X-H torsion
[ 7974 7965 7964 7962 ] final -119.72 input  175.53 | X-H torsion
[ 8008 7997 7996 7995 ] final   60.50 input   59.86 | X-H torsion
[ 10167 10162 10161 10158 ] final   20.21 input  -65.29 | X-H torsion
[ 10718 10713 10712 10709 ] final   55.24 input   66.30 | X-H torsion
[ 10763 10752 10751 10750 ] final   63.65 input  -60.55 | X-H torsion
[ 11005 11000 10999 10996 ] final    1.02 input  -57.11 | X-H torsion

> <Gold.Protein.ActiveResidues>
 VAL166  LYS551  ARG553  GLY616  TRP617  ASP618  TYR619  PRO620  LYS621  CYS622 
 ASP623  PHE694  ASN695  SER759  ASP760  ASP761  ALA762  ILE779  LEU786  VAL792 
 PHE793  MET794  SER795  GLU796  ALA797  LYS798  CYS799  TRP800  GLU811  SER814 

> <Gold.Protein.RotatedAtoms>
  152.4627  133.7855  159.6873 H   0  0  0  0  0  0  0  0  0  0  0  0  # atno 6907 bound_to 6896
  150.8577  133.7680  159.3009 H   0  0  0  0  0  0  0  0  0  0  0  0  # atno 6908 bound_to 6896
  151.5256  135.1071  159.9941 H   0  0  0  0  0  0  0  0  0  0  0  0  # atno 6909 bound_to 6896
  145.0594  140.8278  143.4161 H   0  0  0  0  0  0  0  0  0  0  0  0  # atno 7974 bound_to 7965
  155.5833  140.3492  155.4546 H   0  0  0  0  0  0  0  0  0  0  0  0  # atno 8008 bound_to 7997
  156.0357  140.1284  157.0235 H   0  0  0  0  0  0  0  0  0  0  0  0  # atno 8009 bound_to 7997
  154.4370  140.1034  156.6149 H   0  0  0  0  0  0  0  0  0  0  0  0  # atno 8010 bound_to 7997
  140.5521  143.9491  150.6585 H   0  0  0  0  0  0  0  0  0  0  0  0  # atno 10167 bound_to 10162
  157.5327  130.8642  149.8710 H   0  0  0  0  0  0  0  0  0  0  0  0  # atno 10718 bound_to 10713
  153.0026  135.5421  154.6385 H   0  0  0  0  0  0  0  0  0  0  0  0  # atno 10763 bound_to 10752
  154.5646  135.2836  155.0889 H   0  0  0  0  0  0  0  0  0  0  0  0  # atno 10764 bound_to 10752
  154.2078  135.6472  153.5158 H   0  0  0  0  0  0  0  0  0  0  0  0  # atno 10765 bound_to 10752
  140.6201  133.9669  155.8220 H   0  0  0  0  0  0  0  0  0  0  0  0  # atno 11005 bound_to 11000
  145.1428  139.2562  143.5481 LP  0  0  0  0  0  0  0  0  0  0  0  0  # atno 17320 bound_to 7965
  146.3523  140.1110  142.8604 LP  0  0  0  0  0  0  0  0  0  0  0  0  # atno 17321 bound_to 7965
  140.2919  143.3318  152.1054 LP  0  0  0  0  0  0  0  0  0  0  0  0  # atno 17342 bound_to 10162
  139.5032  144.6750  151.6151 LP  0  0  0  0  0  0  0  0  0  0  0  0  # atno 17343 bound_to 10162
  156.0435  130.3733  150.1376 LP  0  0  0  0  0  0  0  0  0  0  0  0  # atno 17370 bound_to 10713
  156.9560  130.9790  151.3489 LP  0  0  0  0  0  0  0  0  0  0  0  0  # atno 17371 bound_to 10713
  141.0748  134.0151  157.3473 LP  0  0  0  0  0  0  0  0  0  0  0  0  # atno 17394 bound_to 11000
  139.9157  135.0196  156.7871 LP  0  0  0  0  0  0  0  0  0  0  0  0  # atno 17395 bound_to 11000

$$$$
