AV-unprocessed.smi:1519|AV-procd|sdf|6128|dock2
  -GOLD-   22720 6273D 1   1.00000     0.00000
 Structure written by MMmdl.
 40 41  0  0  0  0  0  0  0  0  1 V2000
  153.5094  141.7817  161.3580 C   0  0  0  0  0  0  0  0  0  0  0  0
  152.8107  142.9076  160.6756 C   0  0  0  0  0  0  0  0  0  0  0  0
  152.5946  142.9536  159.3587 N   0  0  0  0  0  0  0  0  0  0  0  0
  151.9205  144.1131  158.9629 C   0  0  0  0  0  0  0  0  0  0  0  0
  151.5899  144.3275  157.5170 C   0  0  0  0  0  0  0  0  0  0  0  0
  151.6019  143.0131  156.7192 C   0  0  0  0  0  0  0  0  0  0  0  0
  150.2630  142.6368  156.2796 N   0  0  0  0  0  0  0  0  0  0  0  0
  149.6919  141.4358  156.4742 C   0  0  0  0  0  0  0  0  0  0  0  0
  150.2714  140.5254  157.0685 O   0  0  0  0  0  0  0  0  0  0  0  0
  148.4222  141.3279  156.0072 N   0  0  0  0  0  0  0  0  0  0  0  0
  147.8586  142.0358  154.8453 C   0  0  0  0  0  0  0  0  0  0  0  0
  147.7177  141.0420  153.6777 C   0  0  0  0  0  0  0  0  0  0  0  0
  146.8477  139.8276  154.0712 C   0  0  0  0  0  0  0  0  0  0  0  0
  146.7909  138.7925  152.9329 C   0  0  0  0  0  0  0  0  0  0  0  0
  146.2063  139.3513  151.7754 O   0  0  0  0  0  0  0  0  0  0  0  0
  147.3473  139.2127  155.3993 C   0  0  0  0  0  0  0  0  0  0  0  0
  147.5043  140.2884  156.4890 C   0  0  0  0  0  0  0  0  0  0  0  0
  151.6253  144.9509  160.0097 C   0  0  0  0  0  0  0  0  0  0  0  0
  152.1856  144.3122  161.5309 S   0  0  0  0  0  0  0  0  0  0  0  0
  153.8273  141.0304  160.6343 H   0  0  0  0  0  0  0  0  0  0  0  0
  152.8410  141.3115  162.0793 H   0  0  0  0  0  0  0  0  0  0  0  0
  154.3886  142.1533  161.8843 H   0  0  0  0  0  0  0  0  0  0  0  0
  150.6102  144.7979  157.4257 H   0  0  0  0  0  0  0  0  0  0  0  0
  152.2995  145.0308  157.0796 H   0  0  0  0  0  0  0  0  0  0  0  0
  152.2686  143.0924  155.8586 H   0  0  0  0  0  0  0  0  0  0  0  0
  151.9930  142.2065  157.3400 H   0  0  0  0  0  0  0  0  0  0  0  0
  149.7246  143.3431  155.7996 H   0  0  0  0  0  0  0  0  0  0  0  0
  146.8799  142.4374  155.1123 H   0  0  0  0  0  0  0  0  0  0  0  0
  148.4444  142.8965  154.5238 H   0  0  0  0  0  0  0  0  0  0  0  0
  147.2832  141.5473  152.8147 H   0  0  0  0  0  0  0  0  0  0  0  0
  148.7083  140.7034  153.3707 H   0  0  0  0  0  0  0  0  0  0  0  0
  145.8351  140.1992  154.2374 H   0  0  0  0  0  0  0  0  0  0  0  0
  147.7954  138.4548  152.6758 H   0  0  0  0  0  0  0  0  0  0  0  0
  146.2232  137.9119  153.2354 H   0  0  0  0  0  0  0  0  0  0  0  0
  145.2867  139.4939  151.9414 H   0  0  0  0  0  0  0  0  0  0  0  0
  146.6549  138.4439  155.7437 H   0  0  0  0  0  0  0  0  0  0  0  0
  148.3057  138.7160  155.2410 H   0  0  0  0  0  0  0  0  0  0  0  0
  147.8399  139.8296  157.4201 H   0  0  0  0  0  0  0  0  0  0  0  0
  146.5363  140.7374  156.7158 H   0  0  0  0  0  0  0  0  0  0  0  0
  151.1124  145.9008  159.9787 H   0  0  0  0  0  0  0  0  0  0  0  0
  1  2  1  0  0  0  0
  1 20  1  0  0  0  0
  1 21  1  0  0  0  0
  1 22  1  0  0  0  0
  2 19  1  0  0  0  0
  2  3  2  0  0  0  0
  3  4  1  0  0  0  0
  4  5  1  0  0  0  0
  4 18  2  0  0  0  0
  5  6  1  0  0  0  0
  5 23  1  0  0  0  0
  5 24  1  0  0  0  0
  6  7  1  0  0  0  0
  6 25  1  0  0  0  0
  6 26  1  0  0  0  0
  7  8  1  0  0  0  0
  7 27  1  0  0  0  0
  8  9  2  0  0  0  0
  8 10  1  0  0  0  0
 10 17  1  0  0  0  0
 10 11  1  0  0  0  0
 11 12  1  0  0  0  0
 11 28  1  0  0  0  0
 11 29  1  0  0  0  0
 12 13  1  0  0  0  0
 12 30  1  0  0  0  0
 12 31  1  0  0  0  0
 13 14  1  0  0  0  0
 13 16  1  0  0  0  0
 13 32  1  0  0  0  0
 14 15  1  0  0  0  0
 14 33  1  0  0  0  0
 14 34  1  0  0  0  0
 15 35  1  0  0  0  0
 16 17  1  0  0  0  0
 16 36  1  0  0  0  0
 16 37  1  0  0  0  0
 17 38  1  0  0  0  0
 17 39  1  0  0  0  0
 18 19  1  0  0  0  0
 18 40  1  0  0  0  0
M  END
> <s_m_source_file>
AV-unprocessed.smi

> <i_m_source_file_index>
1519

> <i_lp_mmshare_version>
43012

> <i_f3d_flags>
0

> <s_epik_input>
W0NIM11jMW5jKFtjSF1zMSlbQ0gyXVtDSDJdW05IXUMoPU8pTjJbQ0gyXVtDSDJdW0NIXShbQ0gyXVtPSF0pW0NIMl1bQ0gyXTI=

> <s_epik_cmdline>
J2VwaWtfcHl0aG9uJywgJy1waCcsICc3LjAnLCAnLXRuJywgJzgnLCAnLW1hJywgJzIwMCcsICctbWV0YWxfYmluZGluZycsICctaW1hZScsICc8aW5maWxlLm1hZT4nLCAnLW9tYWUnLCAnPG91dGZpbGUubWFlPic=

> <r_epik_Ionization_Penalty>
0.00208048

> <r_epik_Ionization_Penalty_Charging>
0

> <r_epik_Ionization_Penalty_Neutral>
0.00208048

> <r_epik_State_Penalty>
0.00137324

> <r_epik_Charging_Adjusted_Penalty>
0.00137324

> <i_epik_Tot_Q>
0

> <i_epik_Tot_abs_Q>
0

> <r_epik_Metal_State_Penalty>
-0

> <b_epik_Metal_Only>
0

> <s_lp_Force_Field>
OPLS_2005

> <r_lp_Energy>
26.0602

> <b_lp_Chiralities_Consistent>
1

> <s_lp_Variant>
AV-unprocessed.smi:1519-1

> <Gold.Version>
5.8.1

> <Gold.Id.Protein>
6NUR|6NUR_protein|mol2

> <Gold.PLP.Fitness>
45.1110

> <Gold.PLP.PLP>
-40.9620

> <Gold.PLP.part.hbond>
-2.7554

> <Gold.PLP.part.metal>
0.0000

> <Gold.PLP.part.buried>
-5.8511

> <Gold.PLP.part.nonpolar>
-33.5319

> <Gold.PLP.part.repulsive>
0.1148

> <Gold.PLP.ligand.clash>
0.0000

> <Gold.PLP.ligand.torsion>
0.9550

> <Gold.PLP.Chemscore.Hbond>
2.0000

> <Gold.PLP.Chemscore.CHOScore>
0.0000

> <Gold.PLP.Chemscore.Metal>
0.0000

> <Gold.Chemscore.Hbonds>
donor molecule, donor type, donor heavy atom, donor atom, acceptor molecule, acceptor atom, score
      L1  H     7    27       P1  8028  1.00
      L1  H    15    35       P1 10175  1.00

> <Gold.PLP.Chemscore.Internal.Correction>
0.0589

> <Gold.Rescore>
     Score         DG    S(hbond)    S(metal)    S(lipo)     H(rot)  DE(clash)    DE(int)     intcor
     16.98     -19.69       1.92        0.00     112.67       2.10       1.89       0.83       ----

> <Gold.Chemscore.Fitness>
16.9757

> <Gold.Chemscore.DG>
-19.6911

> <Gold.Chemscore.ZeroCoef>
-5.4800

> <Gold.Chemscore.Hbond>
1.9186

> <Gold.Chemscore.Metal>
0.0000

> <Gold.Chemscore.Lipo>
112.6662

> <Gold.Chemscore.Internal_Hbond>
0.0000

> <Gold.Chemscore.DEClash>
1.8900

> <Gold.Chemscore.DEInternal>
0.8254

> <Gold.Chemscore.Rot>
2.1012

> <Gold.Chemscore.Internal.Correction>
   9.000000E+99

> <Gold.Chemscore.Hbonds>
donor molecule, donor type, donor heavy atom, donor atom, acceptor molecule, acceptor atom, score
      L1  H     7    27       P1  8028  0.98
      L1  H    15    35       P1 10175  0.91

> <Gold.Chemscore.Hbond.Weighted>
-6.4083

> <Gold.Chemscore.Metal.Weighted>
-0.0000

> <Gold.Chemscore.Lipo.Weighted>
-13.1819

> <Gold.Chemscore.Internal_Hbond.Weighted>
0.0000

> <Gold.Chemscore.DEClash.Weighted>
1.8900

> <Gold.Chemscore.DEInternal.Weighted>
0.8254

> <Gold.Chemscore.Rot.Weighted>
5.3791

> <Gold.Chemscore.Internal.Correction.Weighted>
   9.000000E+99

> <Gold.Protein.RotatedTorsions>
[ 6907 6896 6895 6894 ] final -137.56 input  -60.11 | X-H torsion
[ 7974 7965 7964 7962 ] final  -62.75 input  175.53 | X-H torsion
[ 8008 7997 7996 7995 ] final   19.82 input   59.86 | X-H torsion
[ 10167 10162 10161 10158 ] final  -99.20 input  -65.29 | X-H torsion
[ 10718 10713 10712 10709 ] final  161.49 input   66.30 | X-H torsion
[ 10763 10752 10751 10750 ] final  -43.00 input  -60.55 | X-H torsion
[ 11005 11000 10999 10996 ] final  -95.76 input  -57.11 | X-H torsion

> <Gold.Protein.ActiveResidues>
 VAL166  LYS551  ARG553  GLY616  TRP617  ASP618  TYR619  PRO620  LYS621  CYS622 
 ASP623  PHE694  ASN695  SER759  ASP760  ASP761  ALA762  ILE779  LEU786  VAL792 
 PHE793  MET794  SER795  GLU796  ALA797  LYS798  CYS799  TRP800  GLU811  SER814 

> <Gold.Protein.RotatedAtoms>
  151.0240  133.5851  159.2667 H   0  0  0  0  0  0  0  0  0  0  0  0  # atno 6907 bound_to 6896
  151.2957  135.0754  159.9230 H   0  0  0  0  0  0  0  0  0  0  0  0  # atno 6908 bound_to 6896
  152.5329  133.9930  159.7913 H   0  0  0  0  0  0  0  0  0  0  0  0  # atno 6909 bound_to 6896
  145.7875  140.8728  143.0298 H   0  0  0  0  0  0  0  0  0  0  0  0  # atno 7974 bound_to 7965
  154.9263  140.3034  155.5190 H   0  0  0  0  0  0  0  0  0  0  0  0  # atno 8008 bound_to 7997
  156.3006  140.2362  156.4255 H   0  0  0  0  0  0  0  0  0  0  0  0  # atno 8009 bound_to 7997
  154.8281  140.0420  157.1446 H   0  0  0  0  0  0  0  0  0  0  0  0  # atno 8010 bound_to 7997
  140.2649  143.3382  152.0590 H   0  0  0  0  0  0  0  0  0  0  0  0  # atno 10167 bound_to 10162
  157.1358  131.0528  151.2350 H   0  0  0  0  0  0  0  0  0  0  0  0  # atno 10718 bound_to 10713
  153.9884  135.6708  153.4753 H   0  0  0  0  0  0  0  0  0  0  0  0  # atno 10763 bound_to 10752
  153.0716  135.4971  154.8314 H   0  0  0  0  0  0  0  0  0  0  0  0  # atno 10764 bound_to 10752
  154.7124  135.3100  154.9139 H   0  0  0  0  0  0  0  0  0  0  0  0  # atno 10765 bound_to 10752
  141.1432  133.8049  157.0480 H   0  0  0  0  0  0  0  0  0  0  0  0  # atno 11005 bound_to 11000
  144.6787  140.0076  143.7484 LP  0  0  0  0  0  0  0  0  0  0  0  0  # atno 17320 bound_to 7965
  146.0011  139.3091  143.0927 LP  0  0  0  0  0  0  0  0  0  0  0  0  # atno 17321 bound_to 7965
  139.5006  144.6694  151.6278 LP  0  0  0  0  0  0  0  0  0  0  0  0  # atno 17342 bound_to 10162
  140.5936  143.9735  150.6340 LP  0  0  0  0  0  0  0  0  0  0  0  0  # atno 17343 bound_to 10162
  157.4352  130.7513  149.7023 LP  0  0  0  0  0  0  0  0  0  0  0  0  # atno 17370 bound_to 10713
  155.9798  130.4036  150.3563 LP  0  0  0  0  0  0  0  0  0  0  0  0  # atno 17371 bound_to 10713
  140.0650  134.9734  157.1371 LP  0  0  0  0  0  0  0  0  0  0  0  0  # atno 17394 bound_to 11000
  140.3793  134.2305  155.7172 LP  0  0  0  0  0  0  0  0  0  0  0  0  # atno 17395 bound_to 11000

$$$$
