AV-unprocessed.smi:837|AV-procd|sdf|3905|dock6
  -GOLD-   22720 1363D 1   1.00000     0.00000
 Structure written by MMmdl.
 49 51  0  0  0  0  0  0  0  0  3 V2000
  144.9435  136.5781  159.5720 C   0  0  0  0  0  0  0  0  0  0  0  0
  145.5988  136.0482  160.8665 C   0  0  1  0  0  0  0  0  0  0  0  0
  144.9071  134.7393  161.3083 C   0  0  0  0  0  0  0  0  0  0  0  0
  145.4697  134.2125  162.6361 C   0  0  0  0  0  0  0  0  0  0  0  0
  146.9864  134.0024  162.5517 C   0  0  0  0  0  0  0  0  0  0  0  0
  147.6995  135.2961  162.1228 C   0  0  0  0  0  0  0  0  0  0  0  0
  147.1554  135.8947  160.7973 C   0  0  2  0  0  0  0  0  0  0  0  0
  147.7811  137.1891  160.5864 N   0  5  0  0  0  0  0  0  0  0  0  0
  148.5122  137.1478  159.4493 C   0  0  0  0  0  0  0  0  0  0  0  0
  149.1897  138.0618  158.9793 O   0  0  0  0  0  0  0  0  0  0  0  0
  148.4317  135.9374  158.8650 N   0  0  0  0  0  0  0  0  0  0  0  0
  149.1514  135.5483  157.6464 C   0  0  0  0  0  0  0  0  0  0  0  0
  148.3252  134.5578  156.8219 C   0  0  0  0  0  0  0  0  0  0  0  0
  148.4855  133.3458  156.9633 O   0  0  0  0  0  0  0  0  0  0  0  0
  147.4569  135.0948  155.9526 N   0  0  0  0  0  0  0  0  0  0  0  0
  146.6401  134.3521  154.9977 C   0  0  0  0  0  0  0  0  0  0  0  0
  146.4686  135.0736  153.6416 C   0  0  0  0  0  0  0  0  0  0  0  0
  146.1562  134.1516  152.4714 C   0  0  0  0  0  0  0  0  0  0  0  0
  144.9841  134.3390  151.7043 C   0  0  0  0  0  0  0  0  0  0  0  0
  144.7091  133.4642  150.6334 C   0  0  0  0  0  0  0  0  0  0  0  0
  145.6047  132.4115  150.3598 C   0  0  0  0  0  0  0  0  0  0  0  0
  146.7156  132.2619  151.1135 N   0  3  0  0  0  0  0  0  0  0  0  0
  147.0211  133.0855  152.1403 C   0  0  0  0  0  0  0  0  0  0  0  0
  147.6567  135.1164  159.5818 C   0  0  0  0  0  0  0  0  0  0  0  0
  147.3892  133.9406  159.3320 O   0  0  0  0  0  0  0  0  0  0  0  0
  145.0586  135.8803  158.7423 H   0  0  0  0  0  0  0  0  0  0  0  0
  145.3701  137.5336  159.2664 H   0  0  0  0  0  0  0  0  0  0  0  0
  143.8748  136.7370  159.7161 H   0  0  0  0  0  0  0  0  0  0  0  0
  145.3867  136.7880  161.6405 H   0  0  0  0  0  0  0  0  0  0  0  0
  143.8355  134.9083  161.4187 H   0  0  0  0  0  0  0  0  0  0  0  0
  145.0127  133.9759  160.5372 H   0  0  0  0  0  0  0  0  0  0  0  0
  145.2424  134.9188  163.4353 H   0  0  0  0  0  0  0  0  0  0  0  0
  144.9795  133.2755  162.9018 H   0  0  0  0  0  0  0  0  0  0  0  0
  147.3674  133.6773  163.5201 H   0  0  0  0  0  0  0  0  0  0  0  0
  147.2098  133.1961  161.8532 H   0  0  0  0  0  0  0  0  0  0  0  0
  147.5944  136.0306  162.9232 H   0  0  0  0  0  0  0  0  0  0  0  0
  148.7691  135.0976  162.0406 H   0  0  0  0  0  0  0  0  0  0  0  0
  149.3690  136.4240  157.0325 H   0  0  0  0  0  0  0  0  0  0  0  0
  150.1215  135.1165  157.8994 H   0  0  0  0  0  0  0  0  0  0  0  0
  147.3972  136.1023  155.9151 H   0  0  0  0  0  0  0  0  0  0  0  0
  147.0445  133.3497  154.8515 H   0  0  0  0  0  0  0  0  0  0  0  0
  145.6609  134.2231  155.4593 H   0  0  0  0  0  0  0  0  0  0  0  0
  145.6700  135.8110  153.7295 H   0  0  0  0  0  0  0  0  0  0  0  0
  147.3712  135.6399  153.4105 H   0  0  0  0  0  0  0  0  0  0  0  0
  144.2946  135.1376  151.9364 H   0  0  0  0  0  0  0  0  0  0  0  0
  143.8123  133.5850  150.0436 H   0  0  0  0  0  0  0  0  0  0  0  0
  145.4620  131.6855  149.5730 H   0  0  0  0  0  0  0  0  0  0  0  0
  147.9341  132.8585  152.6708 H   0  0  0  0  0  0  0  0  0  0  0  0
  147.3468  131.4891  150.9018 H   0  0  0  0  0  0  0  0  0  0  0  0
  1  2  1  0  0  0  0
  1 26  1  0  0  0  0
  1 27  1  0  0  0  0
  1 28  1  0  0  0  0
  2  7  1  0  0  0  0
  2  3  1  0  0  0  0
  2 29  1  0  0  0  0
  3  4  1  0  0  0  0
  3 30  1  0  0  0  0
  3 31  1  0  0  0  0
  4  5  1  0  0  0  0
  4 32  1  0  0  0  0
  4 33  1  0  0  0  0
  5  6  1  0  0  0  0
  5 34  1  0  0  0  0
  5 35  1  0  0  0  0
  6  7  1  0  0  0  0
  6 36  1  0  0  0  0
  6 37  1  0  0  0  0
  7 24  1  0  0  0  0
  7  8  1  0  0  0  0
  8  9  1  0  0  0  0
  9 10  2  0  0  0  0
  9 11  1  0  0  0  0
 11 12  1  0  0  0  0
 11 24  1  0  0  0  0
 12 13  1  0  0  0  0
 12 38  1  0  0  0  0
 12 39  1  0  0  0  0
 13 14  2  0  0  0  0
 13 15  1  0  0  0  0
 15 16  1  0  0  0  0
 15 40  1  0  0  0  0
 16 17  1  0  0  0  0
 16 41  1  0  0  0  0
 16 42  1  0  0  0  0
 17 18  1  0  0  0  0
 17 43  1  0  0  0  0
 17 44  1  0  0  0  0
 18 23  1  0  0  0  0
 18 19  2  0  0  0  0
 19 20  1  0  0  0  0
 19 45  1  0  0  0  0
 20 21  2  0  0  0  0
 20 46  1  0  0  0  0
 21 22  1  0  0  0  0
 21 47  1  0  0  0  0
 22 23  2  0  0  0  0
 22 49  1  0  0  0  0
 23 48  1  0  0  0  0
 24 25  2  0  0  0  0
M  CHG  1   8  -1
M  CHG  1  22   1
M  END
> <s_m_source_file>
AV-unprocessed.smi

> <i_m_source_file_index>
837

> <i_lp_mmshare_version>
43012

> <i_f3d_flags>
0

> <s_epik_input>
W0NIMl0xW0NIMl1bQ0gyXVtDSDJdW0NAQEhdKFtDSDNdKVtDQEBdMTJbTkhdQyg9TylOKEMyPU8pW0NIMl1DKD1PKVtOSF1bQ0gyXVtDSDJdYzNbY0hdW2NIXVtjSF1uW2NIXTM=

> <s_epik_cmdline>
J2VwaWtfcHl0aG9uJywgJy1waCcsICc3LjAnLCAnLXRuJywgJzgnLCAnLW1hJywgJzIwMCcsICctbWV0YWxfYmluZGluZycsICctaW1hZScsICc8aW5maWxlLm1hZT4nLCAnLW9tYWUnLCAnPG91dGZpbGUubWFlPic=

> <r_lp_tautomer_probability>
1

> <r_epik_Ionization_Penalty>
8.27169

> <r_epik_Ionization_Penalty_Charging>
8.27169

> <r_epik_Ionization_Penalty_Neutral>
1.56557e-07

> <r_epik_State_Penalty>
8.42098

> <r_epik_Charging_Adjusted_Penalty>
16.6927

> <i_epik_Tot_Q>
0

> <i_epik_Tot_abs_Q>
2

> <r_epik_Metal_State_Penalty>
4.38565

> <b_epik_Metal_Only>
1

> <s_lp_Force_Field>
OPLS_2005

> <r_lp_Energy>
12.2851

> <b_lp_Chiralities_Consistent>
1

> <s_lp_Variant>
AV-unprocessed.smi:837-14

> <Gold.Version>
5.8.1

> <Gold.Id.Protein>
6NUR|6NUR_protein|mol2

> <Gold.PLP.Fitness>
44.9853

> <Gold.PLP.PLP>
-34.1258

> <Gold.PLP.part.hbond>
-4.1599

> <Gold.PLP.part.metal>
0.0000

> <Gold.PLP.part.buried>
-3.5969

> <Gold.PLP.part.nonpolar>
-25.8120

> <Gold.PLP.part.repulsive>
0.0534

> <Gold.PLP.ligand.clash>
0.0320

> <Gold.PLP.ligand.torsion>
1.0194

> <Gold.PLP.Chemscore.Hbond>
4.2880

> <Gold.PLP.Chemscore.CHOScore>
0.0000

> <Gold.PLP.Chemscore.Metal>
0.0000

> <Gold.Chemscore.Hbonds>
donor molecule, donor type, donor heavy atom, donor atom, acceptor molecule, acceptor atom, score
      L1  H    22    49       P1 10747  1.00
      P1  H  6931  6943       L1     8  1.30
      P1  H  6934  6947       L1     8  1.76

> <Gold.PLP.Chemscore.Internal.Correction>
0.0662

> <Gold.Rescore>
     Score         DG    S(hbond)    S(metal)    S(lipo)     H(rot)  DE(clash)    DE(int)     intcor
     12.61     -17.07       2.17        0.00      79.01       1.92       0.18       4.28       ----

> <Gold.Chemscore.Fitness>
12.6055

> <Gold.Chemscore.DG>
-17.0732

> <Gold.Chemscore.ZeroCoef>
-5.4800

> <Gold.Chemscore.Hbond>
2.1731

> <Gold.Chemscore.Metal>
0.0000

> <Gold.Chemscore.Lipo>
79.0060

> <Gold.Chemscore.Internal_Hbond>
0.0000

> <Gold.Chemscore.DEClash>
0.1830

> <Gold.Chemscore.DEInternal>
4.2847

> <Gold.Chemscore.Rot>
1.9175

> <Gold.Chemscore.Internal.Correction>
   9.000000E+99

> <Gold.Chemscore.Hbonds>
donor molecule, donor type, donor heavy atom, donor atom, acceptor molecule, acceptor atom, score
      L1  H    22    49       P1 10747  0.95
      P1  H  6931  6943       L1     8  0.22
      P1  H  6934  6947       L1     8  0.60

> <Gold.Chemscore.Hbond.Weighted>
-7.2583

> <Gold.Chemscore.Metal.Weighted>
-0.0000

> <Gold.Chemscore.Lipo.Weighted>
-9.2437

> <Gold.Chemscore.Internal_Hbond.Weighted>
0.0000

> <Gold.Chemscore.DEClash.Weighted>
0.1830

> <Gold.Chemscore.DEInternal.Weighted>
4.2847

> <Gold.Chemscore.Rot.Weighted>
4.9087

> <Gold.Chemscore.Internal.Correction.Weighted>
   9.000000E+99

> <Gold.Protein.RotatedTorsions>
[ 6907 6896 6895 6894 ] final  -84.22 input  -60.11 | X-H torsion
[ 7974 7965 7964 7962 ] final  -45.12 input  175.53 | X-H torsion
[ 8008 7997 7996 7995 ] final  -28.74 input   59.86 | X-H torsion
[ 10167 10162 10161 10158 ] final   91.09 input  -65.29 | X-H torsion
[ 10718 10713 10712 10709 ] final   85.66 input   66.30 | X-H torsion
[ 10763 10752 10751 10750 ] final   64.21 input  -60.55 | X-H torsion
[ 11005 11000 10999 10996 ] final -115.83 input  -57.11 | X-H torsion

> <Gold.Protein.ActiveResidues>
 VAL166  LYS551  ARG553  GLY616  TRP617  ASP618  TYR619  PRO620  LYS621  CYS622 
 ASP623  PHE694  ASN695  SER759  ASP760  ASP761  ALA762  ILE779  LEU786  VAL792 
 PHE793  MET794  SER795  GLU796  ALA797  LYS798  CYS799  TRP800  GLU811  SER814 

> <Gold.Protein.RotatedAtoms>
  150.6878  134.3392  159.4860 H   0  0  0  0  0  0  0  0  0  0  0  0  # atno 6907 bound_to 6896
  152.1247  134.9177  160.0570 H   0  0  0  0  0  0  0  0  0  0  0  0  # atno 6908 bound_to 6896
  152.0369  133.3926  159.4357 H   0  0  0  0  0  0  0  0  0  0  0  0  # atno 6909 bound_to 6896
  145.9852  140.7240  142.9344 H   0  0  0  0  0  0  0  0  0  0  0  0  # atno 7974 bound_to 7965
  154.4319  140.1837  156.1137 H   0  0  0  0  0  0  0  0  0  0  0  0  # atno 8008 bound_to 7997
  156.0198  140.3342  155.7001 H   0  0  0  0  0  0  0  0  0  0  0  0  # atno 8009 bound_to 7997
  155.5993  140.0639  157.2728 H   0  0  0  0  0  0  0  0  0  0  0  0  # atno 8010 bound_to 7997
  139.8409  144.6642  150.9285 H   0  0  0  0  0  0  0  0  0  0  0  0  # atno 10167 bound_to 10162
  157.6918  131.0184  150.2855 H   0  0  0  0  0  0  0  0  0  0  0  0  # atno 10718 bound_to 10713
  153.0047  135.5401  154.6474 H   0  0  0  0  0  0  0  0  0  0  0  0  # atno 10763 bound_to 10752
  154.5714  135.2842  155.0825 H   0  0  0  0  0  0  0  0  0  0  0  0  # atno 10764 bound_to 10752
  154.1989  135.6487  153.5134 H   0  0  0  0  0  0  0  0  0  0  0  0  # atno 10765 bound_to 10752
  141.0462  133.9758  157.2913 H   0  0  0  0  0  0  0  0  0  0  0  0  # atno 11005 bound_to 11000
  144.6873  140.2976  143.7268 LP  0  0  0  0  0  0  0  0  0  0  0  0  # atno 17320 bound_to 7965
  145.7711  139.1857  143.2212 LP  0  0  0  0  0  0  0  0  0  0  0  0  # atno 17321 bound_to 7965
  140.7798  143.3914  151.1304 LP  0  0  0  0  0  0  0  0  0  0  0  0  # atno 17342 bound_to 10162
  139.7560  143.8706  152.3089 LP  0  0  0  0  0  0  0  0  0  0  0  0  # atno 17343 bound_to 10162
  156.3395  130.3813  149.7421 LP  0  0  0  0  0  0  0  0  0  0  0  0  # atno 17370 bound_to 10713
  156.4935  130.8096  151.3104 LP  0  0  0  0  0  0  0  0  0  0  0  0  # atno 17371 bound_to 10713
  139.9314  135.0199  156.8412 LP  0  0  0  0  0  0  0  0  0  0  0  0  # atno 17394 bound_to 11000
  140.6142  134.0054  155.7590 LP  0  0  0  0  0  0  0  0  0  0  0  0  # atno 17395 bound_to 11000

$$$$
