AV-unprocessed.smi:559|AV-procd|sdf|2924|dock9
  -GOLD-   2262023413D 1   1.00000     0.00000
 Structure written by MMmdl.
 41 42  0  0  0  0  0  0  0  0  1 V2000
  150.0820  130.2669  154.7009 C   0  0  0  0  0  0  0  0  0  0  0  0
  149.0512  131.2761  154.2831 C   0  0  0  0  0  0  0  0  0  0  0  0
  148.0689  130.9053  153.4789 N   0  0  0  0  0  0  0  0  0  0  0  0
  147.3391  132.0225  153.2886 N   0  0  0  0  0  0  0  0  0  0  0  0
  146.1711  131.9728  152.4311 C   0  0  0  0  0  0  0  0  0  0  0  0
  147.8594  133.1006  153.9768 C   0  0  0  0  0  0  0  0  0  0  0  0
  147.2350  134.4573  153.9192 C   0  0  0  0  0  0  0  0  0  0  0  0
  148.9786  132.6572  154.6305 C   0  0  0  0  0  0  0  0  0  0  0  0
  149.9369  133.4377  155.4973 C   0  0  0  0  0  0  0  0  0  0  0  0
  149.7390  133.0382  156.9599 C   0  0  0  0  0  0  0  0  0  0  0  0
  150.6379  132.4553  157.5653 O   0  0  0  0  0  0  0  0  0  0  0  0
  148.5435  133.3247  157.4997 N   0  0  0  0  0  0  0  0  0  0  0  0
  148.0711  132.8689  158.8023 C   0  0  0  0  0  0  0  0  0  0  0  0
  148.2289  133.9727  159.8661 C   0  0  2  0  0  0  0  0  0  0  0  0
  147.8033  133.5053  161.2712 C   0  0  0  0  0  0  0  0  0  0  0  0
  147.7517  134.7248  162.1975 C   0  0  0  0  0  0  0  0  0  0  0  0
  147.2023  136.1206  161.1468 S   0  0  0  0  0  0  0  0  0  0  0  0
  145.7632  136.3494  161.3463 O   0  0  0  0  0  0  0  0  0  0  0  0
  148.1685  137.2225  161.2688 O   0  0  0  0  0  0  0  0  0  0  0  0
  147.4512  135.2626  159.5480 C   0  0  0  0  0  0  0  0  0  0  0  0
  151.0473  130.4869  154.2452 H   0  0  0  0  0  0  0  0  0  0  0  0
  149.7994  129.2546  154.4094 H   0  0  0  0  0  0  0  0  0  0  0  0
  150.2161  130.2717  155.7826 H   0  0  0  0  0  0  0  0  0  0  0  0
  145.2944  132.3106  152.9838 H   0  0  0  0  0  0  0  0  0  0  0  0
  145.9942  130.9560  152.0782 H   0  0  0  0  0  0  0  0  0  0  0  0
  146.3233  132.6234  151.5700 H   0  0  0  0  0  0  0  0  0  0  0  0
  147.7662  135.1650  154.5553 H   0  0  0  0  0  0  0  0  0  0  0  0
  146.1980  134.4226  154.2530 H   0  0  0  0  0  0  0  0  0  0  0  0
  147.2511  134.8467  152.9010 H   0  0  0  0  0  0  0  0  0  0  0  0
  150.9719  133.2506  155.2087 H   0  0  0  0  0  0  0  0  0  0  0  0
  149.7852  134.5131  155.4032 H   0  0  0  0  0  0  0  0  0  0  0  0
  147.8751  133.8144  156.9225 H   0  0  0  0  0  0  0  0  0  0  0  0
  147.0346  132.5315  158.7506 H   0  0  0  0  0  0  0  0  0  0  0  0
  148.6611  131.9974  159.0866 H   0  0  0  0  0  0  0  0  0  0  0  0
  149.2851  134.2400  159.9252 H   0  0  0  0  0  0  0  0  0  0  0  0
  146.8078  133.0627  161.2159 H   0  0  0  0  0  0  0  0  0  0  0  0
  148.4720  132.7380  161.6622 H   0  0  0  0  0  0  0  0  0  0  0  0
  147.0727  134.5946  163.0404 H   0  0  0  0  0  0  0  0  0  0  0  0
  148.7443  134.9618  162.5806 H   0  0  0  0  0  0  0  0  0  0  0  0
  147.9783  135.9161  158.8529 H   0  0  0  0  0  0  0  0  0  0  0  0
  146.4677  135.0374  159.1347 H   0  0  0  0  0  0  0  0  0  0  0  0
  1  2  1  0  0  0  0
  1 21  1  0  0  0  0
  1 22  1  0  0  0  0
  1 23  1  0  0  0  0
  2  8  1  0  0  0  0
  2  3  2  0  0  0  0
  3  4  1  0  0  0  0
  4  5  1  0  0  0  0
  4  6  1  0  0  0  0
  5 24  1  0  0  0  0
  5 25  1  0  0  0  0
  5 26  1  0  0  0  0
  6  7  1  0  0  0  0
  6  8  2  0  0  0  0
  7 27  1  0  0  0  0
  7 28  1  0  0  0  0
  7 29  1  0  0  0  0
  8  9  1  0  0  0  0
  9 10  1  0  0  0  0
  9 30  1  0  0  0  0
  9 31  1  0  0  0  0
 10 11  2  0  0  0  0
 10 12  1  0  0  0  0
 12 13  1  0  0  0  0
 12 32  1  0  0  0  0
 13 14  1  0  0  0  0
 13 33  1  0  0  0  0
 13 34  1  0  0  0  0
 14 20  1  0  0  0  0
 14 15  1  0  0  0  0
 14 35  1  0  0  0  0
 15 16  1  0  0  0  0
 15 36  1  0  0  0  0
 15 37  1  0  0  0  0
 16 17  1  0  0  0  0
 16 38  1  0  0  0  0
 16 39  1  0  0  0  0
 17 18  2  0  0  0  0
 17 19  2  0  0  0  0
 17 20  1  0  0  0  0
 20 40  1  0  0  0  0
 20 41  1  0  0  0  0
M  END
> <s_m_source_file>
AV-unprocessed.smi

> <i_m_source_file_index>
559

> <i_lp_mmshare_version>
43012

> <i_f3d_flags>
0

> <s_epik_input>
W0NIM11jMW5uKFtDSDNdKWMoW0NIM10pYzFbQ0gyXUMoPU8pW05IXVtDSDJdW0NAQEhdKFtDSDJdMilbQ0gyXVtDSDJdUzIoPU8pPU8=

> <s_epik_cmdline>
J2VwaWtfcHl0aG9uJywgJy1waCcsICc3LjAnLCAnLXRuJywgJzgnLCAnLW1hJywgJzIwMCcsICctbWV0YWxfYmluZGluZycsICctaW1hZScsICc8aW5maWxlLm1hZT4nLCAnLW9tYWUnLCAnPG91dGZpbGUubWFlPic=

> <r_lp_tautomer_probability>
1

> <r_epik_Ionization_Penalty>
0.00301269

> <r_epik_Ionization_Penalty_Charging>
0

> <r_epik_Ionization_Penalty_Neutral>
0.00301269

> <r_epik_State_Penalty>
0.00211587

> <r_epik_Charging_Adjusted_Penalty>
0.00211587

> <i_epik_Tot_Q>
0

> <i_epik_Tot_abs_Q>
0

> <r_epik_Metal_State_Penalty>
-0

> <b_epik_Metal_Only>
0

> <s_lp_Force_Field>
OPLS_2005

> <r_lp_Energy>
-3.01738

> <b_lp_Chiralities_Consistent>
1

> <s_lp_Variant>
AV-unprocessed.smi:559-1

> <Gold.Version>
5.8.1

> <Gold.Id.Protein>
6NUR|6NUR_protein|mol2

> <Gold.PLP.Fitness>
38.0154

> <Gold.PLP.PLP>
-29.9049

> <Gold.PLP.part.hbond>
-3.0000

> <Gold.PLP.part.metal>
0.0000

> <Gold.PLP.part.buried>
-3.4997

> <Gold.PLP.part.nonpolar>
-24.5530

> <Gold.PLP.part.repulsive>
0.1542

> <Gold.PLP.ligand.clash>
0.0000

> <Gold.PLP.ligand.torsion>
0.3078

> <Gold.PLP.Chemscore.Hbond>
2.9040

> <Gold.PLP.Chemscore.CHOScore>
0.0000

> <Gold.PLP.Chemscore.Metal>
0.0000

> <Gold.Chemscore.Hbonds>
donor molecule, donor type, donor heavy atom, donor atom, acceptor molecule, acceptor atom, score
      P1  H  6896  6908       L1    11  1.00
      P1  H  6931  6943       L1    19  0.89
      P1  H  6934  6947       L1    19  0.54

> <Gold.PLP.Chemscore.Internal.Correction>
0.0142

> <Gold.Rescore>
     Score         DG    S(hbond)    S(metal)    S(lipo)     H(rot)  DE(clash)    DE(int)     intcor
     16.94     -17.54       2.75        0.00      60.46       1.64       0.08       0.52       ----

> <Gold.Chemscore.Fitness>
16.9423

> <Gold.Chemscore.DG>
-17.5430

> <Gold.Chemscore.ZeroCoef>
-5.4800

> <Gold.Chemscore.Hbond>
2.7503

> <Gold.Chemscore.Metal>
0.0000

> <Gold.Chemscore.Lipo>
60.4639

> <Gold.Chemscore.Internal_Hbond>
0.0000

> <Gold.Chemscore.DEClash>
0.0832

> <Gold.Chemscore.DEInternal>
0.5175

> <Gold.Chemscore.Rot>
1.6396

> <Gold.Chemscore.Internal.Correction>
   9.000000E+99

> <Gold.Chemscore.Hbonds>
donor molecule, donor type, donor heavy atom, donor atom, acceptor molecule, acceptor atom, score
      P1  H  6896  6908       L1    11  0.88
      P1  H  6931  6943       L1    19  0.83
      P1  H  6934  6947       L1    19  0.39

> <Gold.Chemscore.Hbond.Weighted>
-9.1861

> <Gold.Chemscore.Metal.Weighted>
-0.0000

> <Gold.Chemscore.Lipo.Weighted>
-7.0743

> <Gold.Chemscore.Internal_Hbond.Weighted>
0.0000

> <Gold.Chemscore.DEClash.Weighted>
0.0832

> <Gold.Chemscore.DEInternal.Weighted>
0.5175

> <Gold.Chemscore.Rot.Weighted>
4.1974

> <Gold.Chemscore.Internal.Correction.Weighted>
   9.000000E+99

> <Gold.Protein.RotatedTorsions>
[ 6907 6896 6895 6894 ] final   81.38 input  -60.11 | X-H torsion
[ 7974 7965 7964 7962 ] final   16.61 input  175.53 | X-H torsion
[ 8008 7997 7996 7995 ] final   51.45 input   59.86 | X-H torsion
[ 10167 10162 10161 10158 ] final  -71.72 input  -65.29 | X-H torsion
[ 10718 10713 10712 10709 ] final   43.73 input   66.30 | X-H torsion
[ 10763 10752 10751 10750 ] final  160.83 input  -60.55 | X-H torsion
[ 11005 11000 10999 10996 ] final   14.51 input  -57.11 | X-H torsion

> <Gold.Protein.ActiveResidues>
 VAL166  LYS551  ARG553  GLY616  TRP617  ASP618  TYR619  PRO620  LYS621  CYS622 
 ASP623  PHE694  ASN695  SER759  ASP760  ASP761  ALA762  ILE779  LEU786  VAL792 
 PHE793  MET794  SER795  GLU796  ALA797  LYS798  CYS799  TRP800  GLU811  SER814 

> <Gold.Protein.RotatedAtoms>
  152.5266  134.3212  159.9148 H   0  0  0  0  0  0  0  0  0  0  0  0  # atno 6907 bound_to 6896
  151.3161  133.4053  159.2658 H   0  0  0  0  0  0  0  0  0  0  0  0  # atno 6908 bound_to 6896
  150.9998  134.9329  159.8004 H   0  0  0  0  0  0  0  0  0  0  0  0  # atno 6909 bound_to 6896
  146.2244  139.8723  142.8585 H   0  0  0  0  0  0  0  0  0  0  0  0  # atno 7974 bound_to 7965
  155.4354  140.3452  155.4284 H   0  0  0  0  0  0  0  0  0  0  0  0  # atno 8008 bound_to 7997
  156.1311  140.1514  156.9094 H   0  0  0  0  0  0  0  0  0  0  0  0  # atno 8009 bound_to 7997
  154.4895  140.0845  156.7543 H   0  0  0  0  0  0  0  0  0  0  0  0  # atno 8010 bound_to 7997
  140.5250  143.2327  151.7362 H   0  0  0  0  0  0  0  0  0  0  0  0  # atno 10167 bound_to 10162
  157.4191  130.7959  149.7499 H   0  0  0  0  0  0  0  0  0  0  0  0  # atno 10718 bound_to 10713
  154.2536  135.2770  155.2807 H   0  0  0  0  0  0  0  0  0  0  0  0  # atno 10763 bound_to 10752
  154.5444  135.5693  153.6871 H   0  0  0  0  0  0  0  0  0  0  0  0  # atno 10764 bound_to 10752
  152.9976  135.6259  154.2683 H   0  0  0  0  0  0  0  0  0  0  0  0  # atno 10765 bound_to 10752
  140.4687  134.1053  155.7729 H   0  0  0  0  0  0  0  0  0  0  0  0  # atno 11005 bound_to 11000
  145.2595  141.0072  143.3834 LP  0  0  0  0  0  0  0  0  0  0  0  0  # atno 17320 bound_to 7965
  144.9309  139.4299  143.6495 LP  0  0  0  0  0  0  0  0  0  0  0  0  # atno 17321 bound_to 7965
  139.4935  144.4198  151.9990 LP  0  0  0  0  0  0  0  0  0  0  0  0  # atno 17342 bound_to 10162
  140.3297  144.3331  150.5990 LP  0  0  0  0  0  0  0  0  0  0  0  0  # atno 17343 bound_to 10162
  155.9875  130.3966  150.3163 LP  0  0  0  0  0  0  0  0  0  0  0  0  # atno 17370 bound_to 10713
  157.1309  131.0271  151.2969 LP  0  0  0  0  0  0  0  0  0  0  0  0  # atno 17371 bound_to 10713
  141.1587  133.8834  157.1907 LP  0  0  0  0  0  0  0  0  0  0  0  0  # atno 17394 bound_to 11000
  139.9899  135.0068  156.9950 LP  0  0  0  0  0  0  0  0  0  0  0  0  # atno 17395 bound_to 11000

$$$$
