AV-unprocessed.smi:69|AV-procd|sdf|649|dock3
  -GOLD-   2262016543D 1   1.00000     0.00000
 Structure written by MMmdl.
 32 34  0  0  0  0  0  0  0  0  1 V2000
  149.9429  133.9992  156.0595 N   0  0  0  0  0  0  0  0  0  0  0  0
  149.5090  135.2215  155.7223 C   0  0  0  0  0  0  0  0  0  0  0  0
  148.1751  135.4249  155.6266 N   0  0  0  0  0  0  0  0  0  0  0  0
  147.7189  136.6364  155.2970 C   0  0  0  0  0  0  0  0  0  0  0  0
  148.4137  137.7443  155.0295 N   0  0  0  0  0  0  0  0  0  0  0  0
  149.7619  137.5443  155.1243 C   0  0  0  0  0  0  0  0  0  0  0  0
  150.3823  136.3088  155.4661 C   0  0  0  0  0  0  0  0  0  0  0  0
  151.7606  136.4553  155.4759 N   0  0  0  0  0  0  0  0  0  0  0  0
  151.9418  137.7099  155.1666 C   0  0  0  0  0  0  0  0  0  0  0  0
  150.7989  138.4427  154.9231 N   0  0  0  0  0  0  0  0  0  0  0  0
  150.7514  139.9102  154.5852 C   0  0  2  0  0  0  0  0  0  0  0  0
  151.3529  140.6179  155.6214 O   0  0  0  0  0  0  0  0  0  0  0  0
  150.3623  141.0700  156.5331 C   0  0  1  0  0  0  0  0  0  0  0  0
  150.8941  142.2776  157.3191 C   0  0  0  0  0  0  0  0  0  0  0  0
  150.9758  143.4077  156.4771 O   0  0  0  0  0  0  0  0  0  0  0  0
  149.1801  141.4144  155.6138 C   0  0  2  0  0  0  0  0  0  0  0  0
  147.9557  141.1935  156.2844 O   0  0  0  0  0  0  0  0  0  0  0  0
  149.3249  140.4657  154.4196 C   0  0  1  0  0  0  0  0  0  0  0  0
  149.1902  141.1857  153.2102 O   0  0  0  0  0  0  0  0  0  0  0  0
  151.3555  139.9901  153.6800 H   0  0  0  0  0  0  0  0  0  0  0  0
  150.0990  140.2605  157.2140 H   0  0  0  0  0  0  0  0  0  0  0  0
  149.2441  142.4556  155.2929 H   0  0  0  0  0  0  0  0  0  0  0  0
  148.5929  139.6588  154.4131 H   0  0  0  0  0  0  0  0  0  0  0  0
  150.9340  133.8230  156.1402 H   0  0  0  0  0  0  0  0  0  0  0  0
  149.2786  133.2608  156.2402 H   0  0  0  0  0  0  0  0  0  0  0  0
  146.6448  136.7333  155.2401 H   0  0  0  0  0  0  0  0  0  0  0  0
  152.9304  138.1418  155.1091 H   0  0  0  0  0  0  0  0  0  0  0  0
  150.2712  142.4930  158.1875 H   0  0  0  0  0  0  0  0  0  0  0  0
  151.9003  142.0709  157.6848 H   0  0  0  0  0  0  0  0  0  0  0  0
  150.0992  143.6804  156.2537 H   0  0  0  0  0  0  0  0  0  0  0  0
  147.4320  141.9772  156.2160 H   0  0  0  0  0  0  0  0  0  0  0  0
  149.1179  140.5670  152.4996 H   0  0  0  0  0  0  0  0  0  0  0  0
  1  2  1  0  0  0  0
  1 24  1  0  0  0  0
  1 25  1  0  0  0  0
  2  7  1  0  0  0  0
  2  3  2  0  0  0  0
  3  4  1  0  0  0  0
  4  5  2  0  0  0  0
  4 26  1  0  0  0  0
  5  6  1  0  0  0  0
  6 10  1  0  0  0  0
  6  7  2  0  0  0  0
  7  8  1  0  0  0  0
  8  9  2  0  0  0  0
  9 10  1  0  0  0  0
  9 27  1  0  0  0  0
 10 11  1  0  0  0  0
 11 20  1  0  0  0  0
 11 18  1  0  0  0  0
 11 12  1  0  0  0  0
 12 13  1  0  0  0  0
 13 21  1  0  0  0  0
 13 14  1  0  0  0  0
 13 16  1  0  0  0  0
 14 15  1  0  0  0  0
 14 28  1  0  0  0  0
 14 29  1  0  0  0  0
 15 30  1  0  0  0  0
 16 22  1  0  0  0  0
 16 17  1  0  0  0  0
 16 18  1  0  0  0  0
 17 31  1  0  0  0  0
 18 23  1  0  0  0  0
 18 19  1  0  0  0  0
 19 32  1  0  0  0  0
M  END
> <s_m_source_file>
AV-unprocessed.smi

> <i_m_source_file_index>
69

> <i_lp_mmshare_version>
43012

> <i_f3d_flags>
0

> <s_epik_input>
bjFbY0hdbmMoW05IMl0pYyhjMTIpbltjSF1uMltDQEBIXTNPW0NASF0oW0NIMl1bT0hdKVtDQEBIXShbT0hdKVtDQEhdM1tPSF0=

> <s_epik_cmdline>
J2VwaWtfcHl0aG9uJywgJy1waCcsICc3LjAnLCAnLXRuJywgJzgnLCAnLW1hJywgJzIwMCcsICctbWV0YWxfYmluZGluZycsICctaW1hZScsICc8aW5maWxlLm1hZT4nLCAnLW9tYWUnLCAnPG91dGZpbGUubWFlPic=

> <r_lp_tautomer_probability>
1

> <r_epik_Ionization_Penalty>
0.000428445

> <r_epik_Ionization_Penalty_Charging>
0

> <r_epik_Ionization_Penalty_Neutral>
0.000428445

> <r_epik_State_Penalty>
-0

> <r_epik_Charging_Adjusted_Penalty>
0

> <i_epik_Tot_Q>
0

> <i_epik_Tot_abs_Q>
0

> <r_epik_Metal_State_Penalty>
-0

> <b_epik_Metal_Only>
0

> <s_epik_Chemistry_Notes>
This compound contains an acetal/aminal-like group ( X-CH(R)-Y where X, Y are N, S, or O) that may be acid/base labile, releasing an aldehyde.

> <s_lp_Force_Field>
OPLS_2005

> <r_lp_Energy>
31.8637

> <b_lp_Chiralities_Consistent>
1

> <s_lp_Variant>
AV-unprocessed.smi:69-7

> <Gold.Version>
5.8.1

> <Gold.Id.Protein>
6NUR|6NUR_protein|mol2

> <Gold.PLP.Fitness>
37.4275

> <Gold.PLP.PLP>
-26.3679

> <Gold.PLP.part.hbond>
-5.5669

> <Gold.PLP.part.metal>
0.0000

> <Gold.PLP.part.buried>
-0.9690

> <Gold.PLP.part.nonpolar>
-20.3351

> <Gold.PLP.part.repulsive>
0.3412

> <Gold.PLP.ligand.clash>
0.0000

> <Gold.PLP.ligand.torsion>
0.1055

> <Gold.PLP.Chemscore.Hbond>
3.7500

> <Gold.PLP.Chemscore.CHOScore>
0.0000

> <Gold.PLP.Chemscore.Metal>
0.0000

> <Gold.Chemscore.Hbonds>
donor molecule, donor type, donor heavy atom, donor atom, acceptor molecule, acceptor atom, score
      L1  H    15    30       P1  8028  1.00
      L1  H    19    32       P1  7957  0.95
      P1  H  8011  8017       L1    19  0.80
      P1  H 10752 10764       L1     8  1.00

> <Gold.PLP.Chemscore.Internal.Correction>
0.0206

> <Gold.Rescore>
     Score         DG    S(hbond)    S(metal)    S(lipo)     H(rot)  DE(clash)    DE(int)     intcor
      5.78      -8.70       2.91        0.00      32.57       4.03       1.60       1.33       ----

> <Gold.Chemscore.Fitness>
5.7774

> <Gold.Chemscore.DG>
-8.7012

> <Gold.Chemscore.ZeroCoef>
-5.4800

> <Gold.Chemscore.Hbond>
2.9106

> <Gold.Chemscore.Metal>
0.0000

> <Gold.Chemscore.Lipo>
32.5716

> <Gold.Chemscore.Internal_Hbond>
0.0000

> <Gold.Chemscore.DEClash>
1.5980

> <Gold.Chemscore.DEInternal>
1.3258

> <Gold.Chemscore.Rot>
4.0277

> <Gold.Chemscore.Internal.Correction>
   9.000000E+99

> <Gold.Chemscore.Hbonds>
donor molecule, donor type, donor heavy atom, donor atom, acceptor molecule, acceptor atom, score
      L1  H    15    30       P1  8028  0.98
      L1  H    19    32       P1  7957  0.85
      P1  H  8011  8017       L1    19  0.12
      P1  H 10752 10764       L1     8  0.60

> <Gold.Chemscore.Hbond.Weighted>
-9.7213

> <Gold.Chemscore.Metal.Weighted>
-0.0000

> <Gold.Chemscore.Lipo.Weighted>
-3.8109

> <Gold.Chemscore.Internal_Hbond.Weighted>
0.0000

> <Gold.Chemscore.DEClash.Weighted>
1.5980

> <Gold.Chemscore.DEInternal.Weighted>
1.3258

> <Gold.Chemscore.Rot.Weighted>
10.3110

> <Gold.Chemscore.Internal.Correction.Weighted>
   9.000000E+99

> <Gold.Protein.RotatedTorsions>
[ 6907 6896 6895 6894 ] final   -6.49 input  -60.11 | X-H torsion
[ 7974 7965 7964 7962 ] final   44.55 input  175.53 | X-H torsion
[ 8008 7997 7996 7995 ] final   53.07 input   59.86 | X-H torsion
[ 10167 10162 10161 10158 ] final  -66.44 input  -65.29 | X-H torsion
[ 10718 10713 10712 10709 ] final  -56.53 input   66.30 | X-H torsion
[ 10763 10752 10751 10750 ] final  -54.87 input  -60.55 | X-H torsion
[ 11005 11000 10999 10996 ] final   96.24 input  -57.11 | X-H torsion

> <Gold.Protein.ActiveResidues>
 VAL166  LYS551  ARG553  GLY616  TRP617  ASP618  TYR619  PRO620  LYS621  CYS622 
 ASP623  PHE694  ASN695  SER759  ASP760  ASP761  ALA762  ILE779  LEU786  VAL792 
 PHE793  MET794  SER795  GLU796  ALA797  LYS798  CYS799  TRP800  GLU811  SER814 

> <Gold.Protein.RotatedAtoms>
  151.4647  135.1041  159.9734 H   0  0  0  0  0  0  0  0  0  0  0  0  # atno 6907 bound_to 6896
  152.4839  133.8320  159.7118 H   0  0  0  0  0  0  0  0  0  0  0  0  # atno 6908 bound_to 6896
  150.8933  133.7154  159.2925 H   0  0  0  0  0  0  0  0  0  0  0  0  # atno 6909 bound_to 6896
  146.0558  139.5062  142.9689 H   0  0  0  0  0  0  0  0  0  0  0  0  # atno 7974 bound_to 7965
  155.4622  140.3462  155.4314 H   0  0  0  0  0  0  0  0  0  0  0  0  # atno 8008 bound_to 7997
  156.1153  140.1472  156.9310 H   0  0  0  0  0  0  0  0  0  0  0  0  # atno 8009 bound_to 7997
  154.4785  140.0877  156.7299 H   0  0  0  0  0  0  0  0  0  0  0  0  # atno 8010 bound_to 7997
  140.5656  143.2314  151.6640 H   0  0  0  0  0  0  0  0  0  0  0  0  # atno 10167 bound_to 10162
  156.1281  130.4161  150.0317 H   0  0  0  0  0  0  0  0  0  0  0  0  # atno 10718 bound_to 10713
  154.1818  135.6442  153.5036 H   0  0  0  0  0  0  0  0  0  0  0  0  # atno 10763 bound_to 10752
  153.0057  135.5408  154.6506 H   0  0  0  0  0  0  0  0  0  0  0  0  # atno 10764 bound_to 10752
  154.5872  135.2931  155.0645 H   0  0  0  0  0  0  0  0  0  0  0  0  # atno 10765 bound_to 10752
  139.8783  134.8941  156.4130 H   0  0  0  0  0  0  0  0  0  0  0  0  # atno 11005 bound_to 11000
  145.6646  141.0232  143.1690 LP  0  0  0  0  0  0  0  0  0  0  0  0  # atno 17320 bound_to 7965
  144.7147  139.8240  143.7402 LP  0  0  0  0  0  0  0  0  0  0  0  0  # atno 17321 bound_to 7965
  139.5091  144.3587  152.0583 LP  0  0  0  0  0  0  0  0  0  0  0  0  # atno 17342 bound_to 10162
  140.2718  144.3956  150.6149 LP  0  0  0  0  0  0  0  0  0  0  0  0  # atno 17343 bound_to 10162
  156.8237  130.9368  151.3640 LP  0  0  0  0  0  0  0  0  0  0  0  0  # atno 17370 bound_to 10713
  157.6462  130.8846  149.9542 LP  0  0  0  0  0  0  0  0  0  0  0  0  # atno 17371 bound_to 10713
  140.9187  133.7660  155.9880 LP  0  0  0  0  0  0  0  0  0  0  0  0  # atno 17394 bound_to 11000
  140.8464  134.3006  157.5293 LP  0  0  0  0  0  0  0  0  0  0  0  0  # atno 17395 bound_to 11000

$$$$
