AV-unprocessed.smi:157|AV-procd|sdf|1311|dock5
  -GOLD-   2262019 03D 1   1.00000     0.00000
 Structure written by MMmdl.
 36 38  0  0  0  0  0  0  0  0  2 V2000
  150.7109  139.8317  154.3153 O   0  0  0  0  0  0  0  0  0  0  0  0
  151.5550  138.7043  154.4066 C   0  0  0  0  0  0  0  0  0  0  0  0
  151.7204  138.2767  155.8740 C   0  0  1  0  0  0  0  0  0  0  0  0
  152.5901  139.1805  156.5634 O   0  0  0  0  0  0  0  0  0  0  0  0
  152.0561  139.5317  157.8081 C   0  0  1  0  0  0  0  0  0  0  0  0
  151.4952  140.9223  157.7152 N   0  0  0  0  0  0  0  0  0  0  0  0
  150.5081  141.3531  156.8990 C   0  0  0  0  0  0  0  0  0  0  0  0
  150.2252  142.6395  157.0128 N   0  3  0  0  0  0  0  0  0  0  0  0
  151.0876  143.1465  157.9605 C   0  0  0  0  0  0  0  0  0  0  0  0
  151.8683  142.0676  158.3830 C   0  0  0  0  0  0  0  0  0  0  0  0
  152.9106  142.0285  159.3218 N   0  0  0  0  0  0  0  0  0  0  0  0
  153.1162  142.9695  160.1850 C   0  0  0  0  0  0  0  0  0  0  0  0
  152.4735  144.1889  160.3174 N   0  0  0  0  0  0  0  0  0  0  0  0
  152.2080  145.0694  159.1937 C   0  0  0  0  0  0  0  0  0  0  0  0
  151.0468  144.6024  158.3059 C   0  0  2  0  0  0  0  0  0  0  0  0
  149.8307  144.9807  158.9175 O   0  0  0  0  0  0  0  0  0  0  0  0
  150.9352  138.5308  158.0862 C   0  0  0  0  0  0  0  0  0  0  0  0
  150.4207  138.2582  156.6885 C   0  0  2  0  0  0  0  0  0  0  0  0
  149.7650  137.0087  156.6356 O   0  0  0  0  0  0  0  0  0  0  0  0
  152.2030  137.2985  155.9240 H   0  0  0  0  0  0  0  0  0  0  0  0
  152.8165  139.5915  158.5875 H   0  0  0  0  0  0  0  0  0  0  0  0
  151.0995  145.1643  157.3728 H   0  0  0  0  0  0  0  0  0  0  0  0
  149.7446  139.0535  156.3713 H   0  0  0  0  0  0  0  0  0  0  0  0
  149.9095  139.6470  154.7811 H   0  0  0  0  0  0  0  0  0  0  0  0
  151.1064  137.8951  153.8298 H   0  0  0  0  0  0  0  0  0  0  0  0
  152.5164  138.9350  153.9485 H   0  0  0  0  0  0  0  0  0  0  0  0
  149.9978  140.7079  156.2079 H   0  0  0  0  0  0  0  0  0  0  0  0
  153.9002  142.8376  160.9320 H   0  0  0  0  0  0  0  0  0  0  0  0
  152.5997  144.7113  161.1729 H   0  0  0  0  0  0  0  0  0  0  0  0
  152.0367  146.0843  159.5545 H   0  0  0  0  0  0  0  0  0  0  0  0
  153.1173  145.1123  158.5920 H   0  0  0  0  0  0  0  0  0  0  0  0
  149.1651  145.0545  158.2512 H   0  0  0  0  0  0  0  0  0  0  0  0
  151.3782  137.6352  158.5247 H   0  0  0  0  0  0  0  0  0  0  0  0
  150.1804  138.9206  158.7693 H   0  0  0  0  0  0  0  0  0  0  0  0
  149.0275  137.0310  157.2271 H   0  0  0  0  0  0  0  0  0  0  0  0
  149.5241  143.1494  156.4906 H   0  0  0  0  0  0  0  0  0  0  0  0
  1  2  1  0  0  0  0
  1 24  1  0  0  0  0
  2  3  1  0  0  0  0
  2 25  1  0  0  0  0
  2 26  1  0  0  0  0
  3 20  1  0  0  0  0
  3 18  1  0  0  0  0
  3  4  1  0  0  0  0
  4  5  1  0  0  0  0
  5 21  1  0  0  0  0
  5  6  1  0  0  0  0
  5 17  1  0  0  0  0
  6 10  1  0  0  0  0
  6  7  1  0  0  0  0
  7  8  2  0  0  0  0
  7 27  1  0  0  0  0
  8  9  1  0  0  0  0
  8 36  1  0  0  0  0
  9 15  1  0  0  0  0
  9 10  2  0  0  0  0
 10 11  1  0  0  0  0
 11 12  2  0  0  0  0
 12 13  1  0  0  0  0
 12 28  1  0  0  0  0
 13 14  1  0  0  0  0
 13 29  1  0  0  0  0
 14 15  1  0  0  0  0
 14 30  1  0  0  0  0
 14 31  1  0  0  0  0
 15 22  1  0  0  0  0
 15 16  1  0  0  0  0
 16 32  1  0  0  0  0
 17 18  1  0  0  0  0
 17 33  1  0  0  0  0
 17 34  1  0  0  0  0
 18 23  1  0  0  0  0
 18 19  1  0  0  0  0
 19 35  1  0  0  0  0
M  CHG  1   8   1
M  END
> <s_m_source_file>
AV-unprocessed.smi

> <i_m_source_file_index>
157

> <i_lp_mmshare_version>
43012

> <i_f3d_flags>
0

> <s_epik_input>
W09IXVtDSDJdW0NASF0xT1tDQEhdKFtDSDJdW0NAQEhdMVtPSF0pbihbY0hdbjIpYyhjMjMpTj1bQ0hdW05IXVtDSDJdW0NASF0zW09IXQ==

> <s_epik_cmdline>
J2VwaWtfcHl0aG9uJywgJy1waCcsICc3LjAnLCAnLXRuJywgJzgnLCAnLW1hJywgJzIwMCcsICctbWV0YWxfYmluZGluZycsICctaW1hZScsICc8aW5maWxlLm1hZT4nLCAnLW9tYWUnLCAnPG91dGZpbGUubWFlPic=

> <r_epik_Ionization_Penalty>
1.68594

> <r_epik_Ionization_Penalty_Charging>
0

> <r_epik_Ionization_Penalty_Neutral>
1.68594

> <r_epik_State_Penalty>
1.79006

> <r_epik_Charging_Adjusted_Penalty>
1.79006

> <i_epik_Tot_Q>
1

> <i_epik_Tot_abs_Q>
1

> <r_epik_Metal_State_Penalty>
5.85324

> <b_epik_Metal_Only>
0

> <s_epik_Chemistry_Notes>
This compound has an imine and may undergo hydrolysis. This compound contains an acetal/aminal-like group ( X-CH(R)-Y where X, Y are N, S, or O) that may be acid/base labile, releasing an aldehyde.

> <s_lp_Force_Field>
OPLS_2005

> <r_lp_Energy>
51.6948

> <b_lp_Chiralities_Consistent>
1

> <s_lp_Variant>
AV-unprocessed.smi:157-21

> <Gold.Version>
5.8.1

> <Gold.Id.Protein>
6NUR|6NUR_protein|mol2

> <Gold.PLP.Fitness>
48.8099

> <Gold.PLP.PLP>
-34.0873

> <Gold.PLP.part.hbond>
-4.0000

> <Gold.PLP.part.metal>
0.0000

> <Gold.PLP.part.buried>
-6.2097

> <Gold.PLP.part.nonpolar>
-23.5631

> <Gold.PLP.part.repulsive>
0.0454

> <Gold.PLP.ligand.clash>
0.0000

> <Gold.PLP.ligand.torsion>
0.1509

> <Gold.PLP.Chemscore.Hbond>
5.0000

> <Gold.PLP.Chemscore.CHOScore>
0.0000

> <Gold.PLP.Chemscore.Metal>
0.0000

> <Gold.Chemscore.Hbonds>
donor molecule, donor type, donor heavy atom, donor atom, acceptor molecule, acceptor atom, score
      L1  H     8    36       P1  8028  2.00
      L1  H    16    32       P1  8029  1.00
      P1  H  7989  7998       L1     1  1.00
      P1  H  7997  8009       L1     4  1.00

> <Gold.PLP.Chemscore.Internal.Correction>
0.0245

> <Gold.Rescore>
     Score         DG    S(hbond)    S(metal)    S(lipo)     H(rot)  DE(clash)    DE(int)     intcor
     13.30     -14.51       3.62        0.00      54.08       3.67       0.00       1.20       ----

> <Gold.Chemscore.Fitness>
13.3031

> <Gold.Chemscore.DG>
-14.5058

> <Gold.Chemscore.ZeroCoef>
-5.4800

> <Gold.Chemscore.Hbond>
3.6176

> <Gold.Chemscore.Metal>
0.0000

> <Gold.Chemscore.Lipo>
54.0849

> <Gold.Chemscore.Internal_Hbond>
0.0000

> <Gold.Chemscore.DEClash>
0.0000

> <Gold.Chemscore.DEInternal>
1.2028

> <Gold.Chemscore.Rot>
3.6659

> <Gold.Chemscore.Internal.Correction>
   9.000000E+99

> <Gold.Chemscore.Hbonds>
donor molecule, donor type, donor heavy atom, donor atom, acceptor molecule, acceptor atom, score
      L1  H     8    36       P1  8028  0.95
      L1  H    16    32       P1  8029  0.59
      P1  H  7989  7998       L1     1  0.34
      P1  H  7997  8009       L1     4  0.44

> <Gold.Chemscore.Hbond.Weighted>
-12.0827

> <Gold.Chemscore.Metal.Weighted>
-0.0000

> <Gold.Chemscore.Lipo.Weighted>
-6.3279

> <Gold.Chemscore.Internal_Hbond.Weighted>
0.0000

> <Gold.Chemscore.DEClash.Weighted>
0.0000

> <Gold.Chemscore.DEInternal.Weighted>
1.2028

> <Gold.Chemscore.Rot.Weighted>
9.3848

> <Gold.Chemscore.Internal.Correction.Weighted>
   9.000000E+99

> <Gold.Protein.RotatedTorsions>
[ 6907 6896 6895 6894 ] final  -27.76 input  -60.11 | X-H torsion
[ 7974 7965 7964 7962 ] final   93.40 input  175.53 | X-H torsion
[ 8008 7997 7996 7995 ] final -172.98 input   59.86 | X-H torsion
[ 10167 10162 10161 10158 ] final  100.13 input  -65.29 | X-H torsion
[ 10718 10713 10712 10709 ] final  -60.89 input   66.30 | X-H torsion
[ 10763 10752 10751 10750 ] final  162.71 input  -60.55 | X-H torsion
[ 11005 11000 10999 10996 ] final -158.86 input  -57.11 | X-H torsion

> <Gold.Protein.ActiveResidues>
 VAL166  LYS551  ARG553  GLY616  TRP617  ASP618  TYR619  PRO620  LYS621  CYS622 
 ASP623  PHE694  ASN695  SER759  ASP760  ASP761  ALA762  ILE779  LEU786  VAL792 
 PHE793  MET794  SER795  GLU796  ALA797  LYS798  CYS799  TRP800  GLU811  SER814 

> <Gold.Protein.RotatedAtoms>
  151.1424  135.0186  159.8631 H   0  0  0  0  0  0  0  0  0  0  0  0  # atno 6907 bound_to 6896
  152.5452  134.1483  159.8518 H   0  0  0  0  0  0  0  0  0  0  0  0  # atno 6908 bound_to 6896
  151.1560  133.4830  159.2627 H   0  0  0  0  0  0  0  0  0  0  0  0  # atno 6909 bound_to 6896
  145.4794  139.2279  143.2891 H   0  0  0  0  0  0  0  0  0  0  0  0  # atno 7974 bound_to 7965
  155.9515  140.1127  157.0972 H   0  0  0  0  0  0  0  0  0  0  0  0  # atno 8008 bound_to 7997
  154.4111  140.1199  156.5126 H   0  0  0  0  0  0  0  0  0  0  0  0  # atno 8009 bound_to 7997
  155.6836  140.3473  155.4867 H   0  0  0  0  0  0  0  0  0  0  0  0  # atno 8010 bound_to 7997
  139.7554  144.6971  151.0370 H   0  0  0  0  0  0  0  0  0  0  0  0  # atno 10167 bound_to 10162
  156.0959  130.4193  150.0917 H   0  0  0  0  0  0  0  0  0  0  0  0  # atno 10718 bound_to 10713
  154.2826  135.2763  155.2690 H   0  0  0  0  0  0  0  0  0  0  0  0  # atno 10763 bound_to 10752
  154.5204  135.5758  153.6680 H   0  0  0  0  0  0  0  0  0  0  0  0  # atno 10764 bound_to 10752
  152.9926  135.6203  154.2986 H   0  0  0  0  0  0  0  0  0  0  0  0  # atno 10765 bound_to 10752
  140.6490  134.4471  157.5235 H   0  0  0  0  0  0  0  0  0  0  0  0  # atno 11005 bound_to 11000
  146.2350  140.5580  142.8959 LP  0  0  0  0  0  0  0  0  0  0  0  0  # atno 17320 bound_to 7965
  144.7898  140.6008  143.6549 LP  0  0  0  0  0  0  0  0  0  0  0  0  # atno 17321 bound_to 7965
  140.7802  143.4759  151.0083 LP  0  0  0  0  0  0  0  0  0  0  0  0  # atno 17342 bound_to 10162
  139.8446  143.7519  152.3179 LP  0  0  0  0  0  0  0  0  0  0  0  0  # atno 17343 bound_to 10162
  156.8916  130.9590  151.3588 LP  0  0  0  0  0  0  0  0  0  0  0  0  # atno 17370 bound_to 10713
  157.6120  130.8590  149.8967 LP  0  0  0  0  0  0  0  0  0  0  0  0  # atno 17371 bound_to 10713
  139.9052  134.8464  156.1733 LP  0  0  0  0  0  0  0  0  0  0  0  0  # atno 17394 bound_to 11000
  141.0551  133.6869  156.1844 LP  0  0  0  0  0  0  0  0  0  0  0  0  # atno 17395 bound_to 11000

$$$$
