AV-unprocessed.smi:3289|AV-procd|sdf|12608|dock2
  -GOLD-   2272018533D 1   1.00000     0.00000
 Structure written by MMmdl.
 40 41  0  0  0  0  0  0  0  0  2 V2000
  144.6222  142.2094  155.3749 C   0  0  0  0  0  0  0  0  0  0  0  0
  145.9111  142.5258  154.5991 C   0  0  0  0  0  0  0  0  0  0  0  0
  145.6624  143.5659  153.4978 C   0  0  0  0  0  0  0  0  0  0  0  0
  146.5578  141.2876  154.0404 C   0  0  0  0  0  0  0  0  0  0  0  0
  145.9032  140.2078  153.5939 N   0  3  0  0  0  0  0  0  0  0  0  0
  146.7816  139.2729  153.1204 C   0  0  0  0  0  0  0  0  0  0  0  0
  148.0323  139.8114  153.2653 C   0  0  0  0  0  0  0  0  0  0  0  0
  147.8666  141.0547  153.8220 N   0  0  0  0  0  0  0  0  0  0  0  0
  148.9451  141.9990  154.1500 C   0  0  0  0  0  0  0  0  0  0  0  0
  149.8823  141.4256  155.2148 C   0  0  0  0  0  0  0  0  0  0  0  0
  150.4763  140.3677  155.0075 O   0  0  0  0  0  0  0  0  0  0  0  0
  149.9758  142.1170  156.3607 N   0  0  0  0  0  0  0  0  0  0  0  0
  150.7042  141.6902  157.5502 C   0  0  0  0  0  0  0  0  0  0  0  0
  151.0172  142.8818  158.4717 C   0  0  1  0  0  0  0  0  0  0  0  0
  152.0993  142.6278  159.5186 C   0  0  0  0  0  0  0  0  0  0  0  0
  152.5062  144.0373  159.8913 C   0  0  0  0  0  0  0  0  0  0  0  0
  152.2947  144.8175  158.5907 C   0  0  0  0  0  0  0  0  0  0  0  0
  151.5508  143.9641  157.7236 O   0  0  0  0  0  0  0  0  0  0  0  0
  144.8099  141.4958  156.1775 H   0  0  0  0  0  0  0  0  0  0  0  0
  143.8554  141.7869  154.7250 H   0  0  0  0  0  0  0  0  0  0  0  0
  144.2088  143.1104  155.8289 H   0  0  0  0  0  0  0  0  0  0  0  0
  146.6175  142.9459  155.3131 H   0  0  0  0  0  0  0  0  0  0  0  0
  146.5902  143.8399  152.9950 H   0  0  0  0  0  0  0  0  0  0  0  0
  145.2311  144.4788  153.9101 H   0  0  0  0  0  0  0  0  0  0  0  0
  144.9749  143.1853  152.7418 H   0  0  0  0  0  0  0  0  0  0  0  0
  146.4593  138.3215  152.7229 H   0  0  0  0  0  0  0  0  0  0  0  0
  149.0055  139.4127  153.0177 H   0  0  0  0  0  0  0  0  0  0  0  0
  149.5122  142.1996  153.2402 H   0  0  0  0  0  0  0  0  0  0  0  0
  148.5034  142.9445  154.4676 H   0  0  0  0  0  0  0  0  0  0  0  0
  149.4629  142.9836  156.4345 H   0  0  0  0  0  0  0  0  0  0  0  0
  150.1580  140.9159  158.0913 H   0  0  0  0  0  0  0  0  0  0  0  0
  151.6367  141.2320  157.2203 H   0  0  0  0  0  0  0  0  0  0  0  0
  150.1048  143.2266  158.9619 H   0  0  0  0  0  0  0  0  0  0  0  0
  151.7463  142.0469  160.3703 H   0  0  0  0  0  0  0  0  0  0  0  0
  152.9444  142.1016  159.0719 H   0  0  0  0  0  0  0  0  0  0  0  0
  151.8435  144.4216  160.6679 H   0  0  0  0  0  0  0  0  0  0  0  0
  153.5304  144.0970  160.2607 H   0  0  0  0  0  0  0  0  0  0  0  0
  151.7497  145.7443  158.7723 H   0  0  0  0  0  0  0  0  0  0  0  0
  153.2433  145.0703  158.1164 H   0  0  0  0  0  0  0  0  0  0  0  0
  144.8968  140.1004  153.6103 H   0  0  0  0  0  0  0  0  0  0  0  0
  1  2  1  0  0  0  0
  1 19  1  0  0  0  0
  1 20  1  0  0  0  0
  1 21  1  0  0  0  0
  2  3  1  0  0  0  0
  2  4  1  0  0  0  0
  2 22  1  0  0  0  0
  3 23  1  0  0  0  0
  3 24  1  0  0  0  0
  3 25  1  0  0  0  0
  4  8  1  0  0  0  0
  4  5  2  0  0  0  0
  5  6  1  0  0  0  0
  5 40  1  0  0  0  0
  6  7  2  0  0  0  0
  6 26  1  0  0  0  0
  7  8  1  0  0  0  0
  7 27  1  0  0  0  0
  8  9  1  0  0  0  0
  9 10  1  0  0  0  0
  9 28  1  0  0  0  0
  9 29  1  0  0  0  0
 10 11  2  0  0  0  0
 10 12  1  0  0  0  0
 12 13  1  0  0  0  0
 12 30  1  0  0  0  0
 13 14  1  0  0  0  0
 13 31  1  0  0  0  0
 13 32  1  0  0  0  0
 14 18  1  0  0  0  0
 14 15  1  0  0  0  0
 14 33  1  0  0  0  0
 15 16  1  0  0  0  0
 15 34  1  0  0  0  0
 15 35  1  0  0  0  0
 16 17  1  0  0  0  0
 16 36  1  0  0  0  0
 16 37  1  0  0  0  0
 17 18  1  0  0  0  0
 17 38  1  0  0  0  0
 17 39  1  0  0  0  0
M  CHG  1   5   1
M  END
> <s_m_source_file>
AV-unprocessed.smi

> <i_m_source_file_index>
3289

> <i_lp_mmshare_version>
43012

> <i_f3d_flags>
0

> <s_epik_input>
W0NIM11bQ0hdKFtDSDNdKWMxbltjSF1bY0hdbjFbQ0gyXUMoPU8pW05IXVtDSDJdW0NAQEhdMltDSDJdW0NIMl1bQ0gyXU8y

> <s_epik_cmdline>
J2VwaWtfcHl0aG9uJywgJy1waCcsICc3LjAnLCAnLXRuJywgJzgnLCAnLW1hJywgJzIwMCcsICctbWV0YWxfYmluZGluZycsICctaW1hZScsICc8aW5maWxlLm1hZT4nLCAnLW9tYWUnLCAnPG91dGZpbGUubWFlPic=

> <r_lp_tautomer_probability>
1

> <r_epik_Ionization_Penalty>
0.274547

> <r_epik_Ionization_Penalty_Charging>
0

> <r_epik_Ionization_Penalty_Neutral>
0.274547

> <r_epik_State_Penalty>
0.266843

> <r_epik_Charging_Adjusted_Penalty>
0.266843

> <i_epik_Tot_Q>
1

> <i_epik_Tot_abs_Q>
1

> <r_epik_Metal_State_Penalty>
0.55046

> <b_epik_Metal_Only>
0

> <s_lp_Force_Field>
OPLS_2005

> <r_lp_Energy>
22.2551

> <b_lp_Chiralities_Consistent>
1

> <s_lp_Variant>
AV-unprocessed.smi:3289-2

> <Gold.Version>
5.8.1

> <Gold.Id.Protein>
6NUR|6NUR_protein|mol2

> <Gold.PLP.Fitness>
47.3929

> <Gold.PLP.PLP>
-37.3510

> <Gold.PLP.part.hbond>
-2.9081

> <Gold.PLP.part.metal>
0.0000

> <Gold.PLP.part.buried>
1.7879

> <Gold.PLP.part.nonpolar>
-37.2920

> <Gold.PLP.part.repulsive>
0.2663

> <Gold.PLP.ligand.clash>
0.0000

> <Gold.PLP.ligand.torsion>
0.9850

> <Gold.PLP.Chemscore.Hbond>
3.3440

> <Gold.PLP.Chemscore.CHOScore>
0.6223

> <Gold.PLP.Chemscore.Metal>
0.0000

> <Gold.Chemscore.Hbonds>
donor molecule, donor type, donor heavy atom, donor atom, acceptor molecule, acceptor atom, score
      L1  H     5    40       P1 10175  1.31
      L1  H    12    30       P1  8028  1.00
      P1  H  7989  7998       L1    11  1.00
      L1  C     7    27       P1  7957  0.62

> <Gold.PLP.Chemscore.Internal.Correction>
0.1131

> <Gold.Rescore>
     Score         DG    S(hbond)    S(metal)    S(lipo)     H(rot)  DE(clash)    DE(int)     intcor
     14.29     -16.75       1.58        0.00      90.35       1.78       1.69       0.77       ----

> <Gold.Chemscore.Fitness>
14.2867

> <Gold.Chemscore.DG>
-16.7476

> <Gold.Chemscore.ZeroCoef>
-5.4800

> <Gold.Chemscore.Hbond>
1.5758

> <Gold.Chemscore.Metal>
0.0000

> <Gold.Chemscore.Lipo>
90.3454

> <Gold.Chemscore.Internal_Hbond>
0.0000

> <Gold.Chemscore.DEClash>
1.6892

> <Gold.Chemscore.DEInternal>
0.7717

> <Gold.Chemscore.Rot>
1.7835

> <Gold.Chemscore.Internal.Correction>
   9.000000E+99

> <Gold.Chemscore.Hbonds>
donor molecule, donor type, donor heavy atom, donor atom, acceptor molecule, acceptor atom, score
      L1  H     5    40       P1 10175  0.66
      L1  H    12    30       P1  8028  0.93
      P1  H  7989  7998       L1    11  0.29

> <Gold.Chemscore.Hbond.Weighted>
-5.2630

> <Gold.Chemscore.Metal.Weighted>
-0.0000

> <Gold.Chemscore.Lipo.Weighted>
-10.5704

> <Gold.Chemscore.Internal_Hbond.Weighted>
0.0000

> <Gold.Chemscore.DEClash.Weighted>
1.6892

> <Gold.Chemscore.DEInternal.Weighted>
0.7717

> <Gold.Chemscore.Rot.Weighted>
4.5659

> <Gold.Chemscore.Internal.Correction.Weighted>
   9.000000E+99

> <Gold.Protein.RotatedTorsions>
[ 6907 6896 6895 6894 ] final  -22.77 input  -60.11 | X-H torsion
[ 7974 7965 7964 7962 ] final    5.43 input  175.53 | X-H torsion
[ 8008 7997 7996 7995 ] final  126.79 input   59.86 | X-H torsion
[ 10167 10162 10161 10158 ] final   63.69 input  -65.29 | X-H torsion
[ 10718 10713 10712 10709 ] final   26.16 input   66.30 | X-H torsion
[ 10763 10752 10751 10750 ] final -167.05 input  -60.55 | X-H torsion
[ 11005 11000 10999 10996 ] final  115.81 input  -57.11 | X-H torsion

> <Gold.Protein.ActiveResidues>
 VAL166  LYS551  ARG553  GLY616  TRP617  ASP618  TYR619  PRO620  LYS621  CYS622 
 ASP623  PHE694  ASN695  SER759  ASP760  ASP761  ALA762  ILE779  LEU786  VAL792 
 PHE793  MET794  SER795  GLU796  ALA797  LYS798  CYS799  TRP800  GLU811  SER814 

> <Gold.Protein.RotatedAtoms>
  151.2138  135.0491  159.8921 H   0  0  0  0  0  0  0  0  0  0  0  0  # atno 6907 bound_to 6896
  152.5422  134.0716  159.8206 H   0  0  0  0  0  0  0  0  0  0  0  0  # atno 6908 bound_to 6896
  151.0873  133.5295  159.2649 H   0  0  0  0  0  0  0  0  0  0  0  0  # atno 6909 bound_to 6896
  146.2440  140.0386  142.8384 H   0  0  0  0  0  0  0  0  0  0  0  0  # atno 7974 bound_to 7965
  156.2873  140.2684  156.2167 H   0  0  0  0  0  0  0  0  0  0  0  0  # atno 8008 bound_to 7997
  155.0209  140.0386  157.2455 H   0  0  0  0  0  0  0  0  0  0  0  0  # atno 8009 bound_to 7997
  154.7436  140.2730  155.6357 H   0  0  0  0  0  0  0  0  0  0  0  0  # atno 8010 bound_to 7997
  140.1303  144.4649  150.6869 H   0  0  0  0  0  0  0  0  0  0  0  0  # atno 10167 bound_to 10162
  157.2031  130.6899  149.6196 H   0  0  0  0  0  0  0  0  0  0  0  0  # atno 10718 bound_to 10713
  154.6771  135.2948  154.9663 H   0  0  0  0  0  0  0  0  0  0  0  0  # atno 10763 bound_to 10752
  154.0670  135.6623  153.4823 H   0  0  0  0  0  0  0  0  0  0  0  0  # atno 10764 bound_to 10752
  153.0523  135.5166  154.7796 H   0  0  0  0  0  0  0  0  0  0  0  0  # atno 10765 bound_to 10752
  139.9021  134.9589  156.7103 H   0  0  0  0  0  0  0  0  0  0  0  0  # atno 11005 bound_to 11000
  145.1090  140.9393  143.4668 LP  0  0  0  0  0  0  0  0  0  0  0  0  # atno 17320 bound_to 7965
  145.0595  139.3116  143.5887 LP  0  0  0  0  0  0  0  0  0  0  0  0  # atno 17321 bound_to 7965
  140.6821  143.2332  151.5357 LP  0  0  0  0  0  0  0  0  0  0  0  0  # atno 17342 bound_to 10162
  139.5523  144.2364  152.1552 LP  0  0  0  0  0  0  0  0  0  0  0  0  # atno 17343 bound_to 10162
  155.9698  130.4576  150.5968 LP  0  0  0  0  0  0  0  0  0  0  0  0  # atno 17370 bound_to 10713
  157.3747  131.0771  151.1528 LP  0  0  0  0  0  0  0  0  0  0  0  0  # atno 17371 bound_to 10713
  140.7081  133.9247  155.8067 LP  0  0  0  0  0  0  0  0  0  0  0  0  # atno 17394 bound_to 11000
  141.0321  134.0741  157.4002 LP  0  0  0  0  0  0  0  0  0  0  0  0  # atno 17395 bound_to 11000

$$$$
