AV-unprocessed.smi:671|AV-procd|sdf|3286|dock7
  -GOLD-   22720 0243D 1   1.00000     0.00000
 Structure written by MMmdl.
 50 51  0  0  0  0  0  0  0  0  2 V2000
  147.9250  141.4921  153.8486 C   0  0  0  0  0  0  0  0  0  0  0  0
  149.1310  141.2752  154.6997 C   0  0  0  0  0  0  0  0  0  0  0  0
  149.7109  142.2394  155.4634 N   0  3  0  0  0  0  0  0  0  0  0  0
  150.7733  141.7412  156.1108 N   0  0  0  0  0  0  0  0  0  0  0  0
  151.5473  142.6153  156.9924 C   0  0  0  0  0  0  0  0  0  0  0  0
  150.9413  140.4256  155.7977 C   0  0  0  0  0  0  0  0  0  0  0  0
  152.0336  139.5614  156.3373 C   0  0  0  0  0  0  0  0  0  0  0  0
  149.9072  140.1270  154.9018 C   0  0  0  0  0  0  0  0  0  0  0  0
  149.6740  138.7878  154.2552 C   0  0  0  0  0  0  0  0  0  0  0  0
  148.5215  137.9913  154.9007 C   0  0  1  0  0  0  0  0  0  0  0  0
  147.3264  138.8913  155.2418 C   0  0  0  0  0  0  0  0  0  0  0  0
  148.0821  136.9176  154.0028 N   0  0  0  0  0  0  0  0  0  0  0  0
  147.0159  136.1038  154.1054 C   0  0  0  0  0  0  0  0  0  0  0  0
  146.2444  136.1748  155.0596 O   0  0  0  0  0  0  0  0  0  0  0  0
  146.8855  135.2121  153.1091 N   0  0  0  0  0  0  0  0  0  0  0  0
  145.8186  134.2184  152.9806 C   0  0  2  0  0  0  0  0  0  0  0  0
  146.4060  132.7951  153.0771 C   0  0  0  0  0  0  0  0  0  0  0  0
  146.0525  132.0827  151.7668 C   0  0  0  0  0  0  0  0  0  0  0  0
  145.7784  133.2030  150.7678 C   0  0  0  0  0  0  0  0  0  0  0  0
  145.1041  134.2867  151.6103 C   0  0  2  0  0  0  0  0  0  0  0  0
  145.0545  135.6602  150.9202 C   0  0  0  0  0  0  0  0  0  0  0  0
  148.1913  141.4278  152.7936 H   0  0  0  0  0  0  0  0  0  0  0  0
  147.4939  142.4757  154.0367 H   0  0  0  0  0  0  0  0  0  0  0  0
  147.1693  140.7370  154.0655 H   0  0  0  0  0  0  0  0  0  0  0  0
  152.5627  142.7025  156.6047 H   0  0  0  0  0  0  0  0  0  0  0  0
  151.5744  142.1788  157.9912 H   0  0  0  0  0  0  0  0  0  0  0  0
  151.0911  143.6050  157.0410 H   0  0  0  0  0  0  0  0  0  0  0  0
  152.1629  138.6711  155.7228 H   0  0  0  0  0  0  0  0  0  0  0  0
  151.7965  139.2504  157.3545 H   0  0  0  0  0  0  0  0  0  0  0  0
  152.9779  140.1062  156.3500 H   0  0  0  0  0  0  0  0  0  0  0  0
  149.4646  138.9252  153.1936 H   0  0  0  0  0  0  0  0  0  0  0  0
  150.5878  138.1935  154.2917 H   0  0  0  0  0  0  0  0  0  0  0  0
  148.8985  137.5869  155.8403 H   0  0  0  0  0  0  0  0  0  0  0  0
  147.6192  139.6915  155.9223 H   0  0  0  0  0  0  0  0  0  0  0  0
  146.5327  138.3219  155.7270 H   0  0  0  0  0  0  0  0  0  0  0  0
  146.9066  139.3524  154.3471 H   0  0  0  0  0  0  0  0  0  0  0  0
  148.7267  136.6963  153.2577 H   0  0  0  0  0  0  0  0  0  0  0  0
  147.5823  135.2193  152.3788 H   0  0  0  0  0  0  0  0  0  0  0  0
  145.0823  134.3566  153.7744 H   0  0  0  0  0  0  0  0  0  0  0  0
  147.4901  132.8231  153.1994 H   0  0  0  0  0  0  0  0  0  0  0  0
  146.0055  132.2540  153.9355 H   0  0  0  0  0  0  0  0  0  0  0  0
  146.8400  131.4067  151.4318 H   0  0  0  0  0  0  0  0  0  0  0  0
  145.1467  131.4908  151.9062 H   0  0  0  0  0  0  0  0  0  0  0  0
  146.7209  133.5736  150.3614 H   0  0  0  0  0  0  0  0  0  0  0  0
  145.1594  132.8743  149.9324 H   0  0  0  0  0  0  0  0  0  0  0  0
  144.0732  133.9680  151.7741 H   0  0  0  0  0  0  0  0  0  0  0  0
  146.0520  136.0050  150.6522 H   0  0  0  0  0  0  0  0  0  0  0  0
  144.5999  136.4112  151.5669 H   0  0  0  0  0  0  0  0  0  0  0  0
  144.4677  135.6134  150.0029 H   0  0  0  0  0  0  0  0  0  0  0  0
  149.4364  143.2075  155.5747 H   0  0  0  0  0  0  0  0  0  0  0  0
  1  2  1  0  0  0  0
  1 22  1  0  0  0  0
  1 23  1  0  0  0  0
  1 24  1  0  0  0  0
  2  8  1  0  0  0  0
  2  3  2  0  0  0  0
  3  4  1  0  0  0  0
  3 50  1  0  0  0  0
  4  5  1  0  0  0  0
  4  6  1  0  0  0  0
  5 25  1  0  0  0  0
  5 26  1  0  0  0  0
  5 27  1  0  0  0  0
  6  7  1  0  0  0  0
  6  8  2  0  0  0  0
  7 28  1  0  0  0  0
  7 29  1  0  0  0  0
  7 30  1  0  0  0  0
  8  9  1  0  0  0  0
  9 10  1  0  0  0  0
  9 31  1  0  0  0  0
  9 32  1  0  0  0  0
 10 11  1  0  0  0  0
 10 12  1  0  0  0  0
 10 33  1  0  0  0  0
 11 34  1  0  0  0  0
 11 35  1  0  0  0  0
 11 36  1  0  0  0  0
 12 13  1  0  0  0  0
 12 37  1  0  0  0  0
 13 14  2  0  0  0  0
 13 15  1  0  0  0  0
 15 16  1  0  0  0  0
 15 38  1  0  0  0  0
 16 20  1  0  0  0  0
 16 17  1  0  0  0  0
 16 39  1  0  0  0  0
 17 18  1  0  0  0  0
 17 40  1  0  0  0  0
 17 41  1  0  0  0  0
 18 19  1  0  0  0  0
 18 42  1  0  0  0  0
 18 43  1  0  0  0  0
 19 20  1  0  0  0  0
 19 44  1  0  0  0  0
 19 45  1  0  0  0  0
 20 21  1  0  0  0  0
 20 46  1  0  0  0  0
 21 47  1  0  0  0  0
 21 48  1  0  0  0  0
 21 49  1  0  0  0  0
M  CHG  1   3   1
M  END
> <s_m_source_file>
AV-unprocessed.smi

> <i_m_source_file_index>
671

> <i_lp_mmshare_version>
43012

> <i_f3d_flags>
0

> <s_epik_input>
W0NIM11jMW5uKFtDSDNdKWMoW0NIM10pYzFbQ0gyXVtDQEhdKFtDSDNdKVtOSF1DKD1PKVtOSF1bQ0BASF0yW0NIMl1bQ0gyXVtDSDJdW0NASF0yW0NIM10=

> <s_epik_cmdline>
J2VwaWtfcHl0aG9uJywgJy1waCcsICc3LjAnLCAnLXRuJywgJzgnLCAnLW1hJywgJzIwMCcsICctbWV0YWxfYmluZGluZycsICctaW1hZScsICc8aW5maWxlLm1hZT4nLCAnLW9tYWUnLCAnPG91dGZpbGUubWFlPic=

> <r_lp_tautomer_probability>
1

> <r_epik_Ionization_Penalty>
2.28705

> <r_epik_Ionization_Penalty_Charging>
2.28698

> <r_epik_Ionization_Penalty_Neutral>
6.23157e-05

> <r_epik_State_Penalty>
2.43671

> <r_epik_Charging_Adjusted_Penalty>
4.72369

> <i_epik_Tot_Q>
1

> <i_epik_Tot_abs_Q>
1

> <r_epik_Metal_State_Penalty>
2.44911

> <b_epik_Metal_Only>
0

> <s_lp_Force_Field>
OPLS_2005

> <r_lp_Energy>
35.2288

> <b_lp_Chiralities_Consistent>
1

> <s_lp_Variant>
AV-unprocessed.smi:671-14

> <Gold.Version>
5.8.1

> <Gold.Id.Protein>
6NUR|6NUR_protein|mol2

> <Gold.PLP.Fitness>
46.6772

> <Gold.PLP.PLP>
-36.2076

> <Gold.PLP.part.hbond>
-2.7781

> <Gold.PLP.part.metal>
0.0000

> <Gold.PLP.part.buried>
-5.4999

> <Gold.PLP.part.nonpolar>
-29.2634

> <Gold.PLP.part.repulsive>
0.2180

> <Gold.PLP.ligand.clash>
0.0000

> <Gold.PLP.ligand.torsion>
0.5247

> <Gold.PLP.Chemscore.Hbond>
3.8320

> <Gold.PLP.Chemscore.CHOScore>
0.0000

> <Gold.PLP.Chemscore.Metal>
0.0000

> <Gold.Chemscore.Hbonds>
donor molecule, donor type, donor heavy atom, donor atom, acceptor molecule, acceptor atom, score
      L1  H     3    50       P1  8028  2.00
      L1  H    12    37       P1  7948  0.88
      L1  H    15    38       P1  7948  0.80

> <Gold.PLP.Chemscore.Internal.Correction>
0.0229

> <Gold.Rescore>
     Score         DG    S(hbond)    S(metal)    S(lipo)     H(rot)  DE(clash)    DE(int)     intcor
     19.35     -20.76       2.86        0.00      82.03       1.51       0.02       1.39       ----

> <Gold.Chemscore.Fitness>
19.3454

> <Gold.Chemscore.DG>
-20.7633

> <Gold.Chemscore.ZeroCoef>
-5.4800

> <Gold.Chemscore.Hbond>
2.8565

> <Gold.Chemscore.Metal>
0.0000

> <Gold.Chemscore.Lipo>
82.0292

> <Gold.Chemscore.Internal_Hbond>
0.0000

> <Gold.Chemscore.DEClash>
0.0250

> <Gold.Chemscore.DEInternal>
1.3930

> <Gold.Chemscore.Rot>
1.5057

> <Gold.Chemscore.Internal.Correction>
   9.000000E+99

> <Gold.Chemscore.Hbonds>
donor molecule, donor type, donor heavy atom, donor atom, acceptor molecule, acceptor atom, score
      L1  H     3    50       P1  8028  0.99
      L1  H    12    37       P1  7948  0.81
      L1  H    15    38       P1  7948  0.79

> <Gold.Chemscore.Hbond.Weighted>
-9.5406

> <Gold.Chemscore.Metal.Weighted>
-0.0000

> <Gold.Chemscore.Lipo.Weighted>
-9.5974

> <Gold.Chemscore.Internal_Hbond.Weighted>
0.0000

> <Gold.Chemscore.DEClash.Weighted>
0.0250

> <Gold.Chemscore.DEInternal.Weighted>
1.3930

> <Gold.Chemscore.Rot.Weighted>
3.8547

> <Gold.Chemscore.Internal.Correction.Weighted>
   9.000000E+99

> <Gold.Protein.RotatedTorsions>
[ 6907 6896 6895 6894 ] final  122.36 input  -60.11 | X-H torsion
[ 7974 7965 7964 7962 ] final  -91.34 input  175.53 | X-H torsion
[ 8008 7997 7996 7995 ] final  162.38 input   59.86 | X-H torsion
[ 10167 10162 10161 10158 ] final  -58.07 input  -65.29 | X-H torsion
[ 10718 10713 10712 10709 ] final  -12.49 input   66.30 | X-H torsion
[ 10763 10752 10751 10750 ] final   -9.26 input  -60.55 | X-H torsion
[ 11005 11000 10999 10996 ] final  103.35 input  -57.11 | X-H torsion

> <Gold.Protein.ActiveResidues>
 VAL166  LYS551  ARG553  GLY616  TRP617  ASP618  TYR619  PRO620  LYS621  CYS622 
 ASP623  PHE694  ASN695  SER759  ASP760  ASP761  ALA762  ILE779  LEU786  VAL792 
 PHE793  MET794  SER795  GLU796  ALA797  LYS798  CYS799  TRP800  GLU811  SER814 

> <Gold.Protein.RotatedAtoms>
  152.4249  133.7178  159.6515 H   0  0  0  0  0  0  0  0  0  0  0  0  # atno 6907 bound_to 6896
  150.8125  133.8385  159.3181 H   0  0  0  0  0  0  0  0  0  0  0  0  # atno 6908 bound_to 6896
  151.6091  135.1043  160.0129 H   0  0  0  0  0  0  0  0  0  0  0  0  # atno 6909 bound_to 6896
  145.4145  140.9547  143.2215 H   0  0  0  0  0  0  0  0  0  0  0  0  # atno 7974 bound_to 7965
  156.2035  140.1752  156.7849 H   0  0  0  0  0  0  0  0  0  0  0  0  # atno 8008 bound_to 7997
  154.5623  140.0697  156.8869 H   0  0  0  0  0  0  0  0  0  0  0  0  # atno 8009 bound_to 7997
  155.2825  140.3350  155.4260 H   0  0  0  0  0  0  0  0  0  0  0  0  # atno 8010 bound_to 7997
  140.6219  143.2423  151.5458 H   0  0  0  0  0  0  0  0  0  0  0  0  # atno 10167 bound_to 10162
  156.6438  130.4935  149.6085 H   0  0  0  0  0  0  0  0  0  0  0  0  # atno 10718 bound_to 10713
  153.4523  135.7015  153.6101 H   0  0  0  0  0  0  0  0  0  0  0  0  # atno 10763 bound_to 10752
  153.4431  135.3775  155.2240 H   0  0  0  0  0  0  0  0  0  0  0  0  # atno 10764 bound_to 10752
  154.8728  135.3978  154.3937 H   0  0  0  0  0  0  0  0  0  0  0  0  # atno 10765 bound_to 10752
  139.8783  134.9260  156.5197 H   0  0  0  0  0  0  0  0  0  0  0  0  # atno 11005 bound_to 11000
  144.8287  139.5666  143.6954 LP  0  0  0  0  0  0  0  0  0  0  0  0  # atno 17320 bound_to 7965
  146.2688  139.6585  142.9310 LP  0  0  0  0  0  0  0  0  0  0  0  0  # atno 17321 bound_to 7965
  139.5446  144.2555  152.1418 LP  0  0  0  0  0  0  0  0  0  0  0  0  # atno 17342 bound_to 10162
  140.1777  144.4875  150.6545 LP  0  0  0  0  0  0  0  0  0  0  0  0  # atno 17343 bound_to 10162
  156.2138  130.6695  151.1297 LP  0  0  0  0  0  0  0  0  0  0  0  0  # atno 17370 bound_to 10713
  157.7162  131.0708  150.6316 LP  0  0  0  0  0  0  0  0  0  0  0  0  # atno 17371 bound_to 10713
  140.8460  133.8169  155.9121 LP  0  0  0  0  0  0  0  0  0  0  0  0  # atno 17394 bound_to 11000
  140.9191  134.2164  157.4938 LP  0  0  0  0  0  0  0  0  0  0  0  0  # atno 17395 bound_to 11000

$$$$
