AV-unprocessed.smi:1970|AV-procd|sdf|7961|dock6
  -GOLD-   2272010133D 1   1.00000     0.00000
 Structure written by MMmdl.
 34 35  0  0  0  0  0  0  0  0  2 V2000
  150.8922  139.6474  157.7176 O   0  0  0  0  0  0  0  0  0  0  0  0
  151.3886  140.5528  157.0460 C   0  0  0  0  0  0  0  0  0  0  0  0
  151.6261  141.9398  157.6569 C   0  0  0  0  0  0  0  0  0  0  0  0
  152.3503  141.8838  158.9295 N   0  0  0  0  0  0  0  0  0  0  0  0
  152.0261  142.8615  159.9625 C   0  0  0  0  0  0  0  0  0  0  0  0
  152.8427  142.3108  161.4822 S   0  0  0  0  0  0  0  0  0  0  0  0
  153.8986  141.1441  160.6064 C   0  0  0  0  0  0  0  0  0  0  0  0
  153.3175  140.9928  159.2111 C   0  0  0  0  0  0  0  0  0  0  0  0
  153.7192  140.1213  158.4404 O   0  0  0  0  0  0  0  0  0  0  0  0
  151.7373  140.4045  155.7591 N   0  0  0  0  0  0  0  0  0  0  0  0
  151.6134  139.1655  155.0006 C   0  0  0  0  0  0  0  0  0  0  0  0
  150.2285  138.5244  155.1933 C   0  0  0  0  0  0  0  0  0  0  0  0
  149.1430  139.2589  154.4314 C   0  0  0  0  0  0  0  0  0  0  0  0
  148.7906  140.5933  154.7293 C   0  0  0  0  0  0  0  0  0  0  0  0
  147.7750  141.2218  153.9791 C   0  0  0  0  0  0  0  0  0  0  0  0
  147.1347  140.5042  152.9473 C   0  0  0  0  0  0  0  0  0  0  0  0
  147.5274  139.1745  152.6914 C   0  0  0  0  0  0  0  0  0  0  0  0
  148.5045  138.6071  153.4326 N   0  3  0  0  0  0  0  0  0  0  0  0
  152.1757  142.5680  156.9532 H   0  0  0  0  0  0  0  0  0  0  0  0
  150.6585  142.4209  157.8048 H   0  0  0  0  0  0  0  0  0  0  0  0
  152.4027  143.8433  159.6744 H   0  0  0  0  0  0  0  0  0  0  0  0
  150.9491  142.9333  160.1186 H   0  0  0  0  0  0  0  0  0  0  0  0
  154.9141  141.5354  160.5424 H   0  0  0  0  0  0  0  0  0  0  0  0
  153.9244  140.1868  161.1274 H   0  0  0  0  0  0  0  0  0  0  0  0
  152.1286  141.2014  155.2776 H   0  0  0  0  0  0  0  0  0  0  0  0
  151.8026  139.3567  153.9428 H   0  0  0  0  0  0  0  0  0  0  0  0
  152.3933  138.4817  155.3368 H   0  0  0  0  0  0  0  0  0  0  0  0
  150.2489  137.4837  154.8665 H   0  0  0  0  0  0  0  0  0  0  0  0
  149.9631  138.5074  156.2513 H   0  0  0  0  0  0  0  0  0  0  0  0
  149.2923  141.1305  155.5214 H   0  0  0  0  0  0  0  0  0  0  0  0
  147.4912  142.2420  154.1925 H   0  0  0  0  0  0  0  0  0  0  0  0
  146.3544  140.9676  152.3611 H   0  0  0  0  0  0  0  0  0  0  0  0
  147.0930  138.5525  151.9225 H   0  0  0  0  0  0  0  0  0  0  0  0
  148.7722  137.6436  153.2299 H   0  0  0  0  0  0  0  0  0  0  0  0
  1  2  2  0  0  0  0
  2  3  1  0  0  0  0
  2 10  1  0  0  0  0
  3  4  1  0  0  0  0
  3 19  1  0  0  0  0
  3 20  1  0  0  0  0
  4  8  1  0  0  0  0
  4  5  1  0  0  0  0
  5  6  1  0  0  0  0
  5 21  1  0  0  0  0
  5 22  1  0  0  0  0
  6  7  1  0  0  0  0
  7  8  1  0  0  0  0
  7 23  1  0  0  0  0
  7 24  1  0  0  0  0
  8  9  2  0  0  0  0
 10 11  1  0  0  0  0
 10 25  1  0  0  0  0
 11 12  1  0  0  0  0
 11 26  1  0  0  0  0
 11 27  1  0  0  0  0
 12 13  1  0  0  0  0
 12 28  1  0  0  0  0
 12 29  1  0  0  0  0
 13 18  1  0  0  0  0
 13 14  2  0  0  0  0
 14 15  1  0  0  0  0
 14 30  1  0  0  0  0
 15 16  2  0  0  0  0
 15 31  1  0  0  0  0
 16 17  1  0  0  0  0
 16 32  1  0  0  0  0
 17 18  2  0  0  0  0
 17 33  1  0  0  0  0
 18 34  1  0  0  0  0
M  CHG  1  18   1
M  END
> <s_m_source_file>
AV-unprocessed.smi

> <i_m_source_file_index>
1970

> <i_lp_mmshare_version>
43012

> <i_f3d_flags>
0

> <s_epik_input>
Tz1DMVtDSDJdU1tDSDJdTjFbQ0gyXUMoPU8pW05IXVtDSDJdW0NIMl1jMltjSF1bY0hdW2NIXVtjSF1uMg==

> <s_epik_cmdline>
J2VwaWtfcHl0aG9uJywgJy1waCcsICc3LjAnLCAnLXRuJywgJzgnLCAnLW1hJywgJzIwMCcsICctbWV0YWxfYmluZGluZycsICctaW1hZScsICc8aW5maWxlLm1hZT4nLCAnLW9tYWUnLCAnPG91dGZpbGUubWFlPic=

> <r_epik_Ionization_Penalty>
1.87519

> <r_epik_Ionization_Penalty_Charging>
1.87519

> <r_epik_Ionization_Penalty_Neutral>
8.746e-08

> <r_epik_State_Penalty>
1.99452

> <r_epik_Charging_Adjusted_Penalty>
3.86972

> <i_epik_Tot_Q>
1

> <i_epik_Tot_abs_Q>
1

> <r_epik_Metal_State_Penalty>
2.01927

> <b_epik_Metal_Only>
0

> <s_epik_Chemistry_Notes>
This compound contains an acetal/aminal-like group ( X-CH(R)-Y where X, Y are N, S, or O) that may be acid/base labile, releasing an aldehyde.

> <s_lp_Force_Field>
OPLS_2005

> <r_lp_Energy>
10.5607

> <b_lp_Chiralities_Consistent>
1

> <s_lp_Variant>
AV-unprocessed.smi:1970-2

> <Gold.Version>
5.8.1

> <Gold.Id.Protein>
6NUR|6NUR_protein|mol2

> <Gold.PLP.Fitness>
44.1484

> <Gold.PLP.PLP>
-36.3078

> <Gold.PLP.part.hbond>
-3.0000

> <Gold.PLP.part.metal>
0.0000

> <Gold.PLP.part.buried>
0.3547

> <Gold.PLP.part.nonpolar>
-33.3894

> <Gold.PLP.part.repulsive>
0.2174

> <Gold.PLP.ligand.clash>
0.0024

> <Gold.PLP.ligand.torsion>
0.5772

> <Gold.PLP.Chemscore.Hbond>
2.9840

> <Gold.PLP.Chemscore.CHOScore>
0.0000

> <Gold.PLP.Chemscore.Metal>
0.0000

> <Gold.Chemscore.Hbonds>
donor molecule, donor type, donor heavy atom, donor atom, acceptor molecule, acceptor atom, score
      L1  H    18    34       P1  7948  1.86
      P1  H  7997  8008       L1     9  0.98

> <Gold.PLP.Chemscore.Internal.Correction>
0.0454

> <Gold.Rescore>
     Score         DG    S(hbond)    S(metal)    S(lipo)     H(rot)  DE(clash)    DE(int)     intcor
     12.35     -16.07       1.96        0.00      79.07       2.03       0.36       3.36       ----

> <Gold.Chemscore.Fitness>
12.3504

> <Gold.Chemscore.DG>
-16.0668

> <Gold.Chemscore.ZeroCoef>
-5.4800

> <Gold.Chemscore.Hbond>
1.9556

> <Gold.Chemscore.Metal>
0.0000

> <Gold.Chemscore.Lipo>
79.0740

> <Gold.Chemscore.Internal_Hbond>
0.0000

> <Gold.Chemscore.DEClash>
0.3586

> <Gold.Chemscore.DEInternal>
3.3577

> <Gold.Chemscore.Rot>
2.0300

> <Gold.Chemscore.Internal.Correction>
   9.000000E+99

> <Gold.Chemscore.Hbonds>
donor molecule, donor type, donor heavy atom, donor atom, acceptor molecule, acceptor atom, score
      L1  H    18    34       P1  7948  0.88
      P1  H  7997  8008       L1     9  0.93

> <Gold.Chemscore.Hbond.Weighted>
-6.5318

> <Gold.Chemscore.Metal.Weighted>
-0.0000

> <Gold.Chemscore.Lipo.Weighted>
-9.2517

> <Gold.Chemscore.Internal_Hbond.Weighted>
0.0000

> <Gold.Chemscore.DEClash.Weighted>
0.3586

> <Gold.Chemscore.DEInternal.Weighted>
3.3577

> <Gold.Chemscore.Rot.Weighted>
5.1967

> <Gold.Chemscore.Internal.Correction.Weighted>
   9.000000E+99

> <Gold.Protein.RotatedTorsions>
[ 6907 6896 6895 6894 ] final   28.97 input  -60.11 | X-H torsion
[ 7974 7965 7964 7962 ] final   46.29 input  175.53 | X-H torsion
[ 8008 7997 7996 7995 ] final  -93.16 input   59.86 | X-H torsion
[ 10167 10162 10161 10158 ] final  -14.87 input  -65.29 | X-H torsion
[ 10718 10713 10712 10709 ] final  -78.95 input   66.30 | X-H torsion
[ 10763 10752 10751 10750 ] final  -12.56 input  -60.55 | X-H torsion
[ 11005 11000 10999 10996 ] final  -96.52 input  -57.11 | X-H torsion

> <Gold.Protein.ActiveResidues>
 VAL166  LYS551  ARG553  GLY616  TRP617  ASP618  TYR619  PRO620  LYS621  CYS622 
 ASP623  PHE694  ASN695  SER759  ASP760  ASP761  ALA762  ILE779  LEU786  VAL792 
 PHE793  MET794  SER795  GLU796  ALA797  LYS798  CYS799  TRP800  GLU811  SER814 

> <Gold.Protein.RotatedAtoms>
  152.0248  134.9802  160.0571 H   0  0  0  0  0  0  0  0  0  0  0  0  # atno 6907 bound_to 6896
  152.1302  133.4399  159.4725 H   0  0  0  0  0  0  0  0  0  0  0  0  # atno 6908 bound_to 6896
  150.6855  134.2348  159.4492 H   0  0  0  0  0  0  0  0  0  0  0  0  # atno 6909 bound_to 6896
  146.0403  139.4872  142.9782 H   0  0  0  0  0  0  0  0  0  0  0  0  # atno 7974 bound_to 7965
  154.7321  140.0501  157.0736 H   0  0  0  0  0  0  0  0  0  0  0  0  # atno 8008 bound_to 7997
  155.0288  140.3155  155.4747 H   0  0  0  0  0  0  0  0  0  0  0  0  # atno 8009 bound_to 7997
  156.2844  140.2154  156.5408 H   0  0  0  0  0  0  0  0  0  0  0  0  # atno 8010 bound_to 7997
  140.7209  143.5277  150.9557 H   0  0  0  0  0  0  0  0  0  0  0  0  # atno 10167 bound_to 10162
  156.0104  130.4532  150.3575 H   0  0  0  0  0  0  0  0  0  0  0  0  # atno 10718 bound_to 10713
  153.5003  135.7017  153.5835 H   0  0  0  0  0  0  0  0  0  0  0  0  # atno 10763 bound_to 10752
  153.3970  135.3881  155.1962 H   0  0  0  0  0  0  0  0  0  0  0  0  # atno 10764 bound_to 10752
  154.8711  135.3872  154.4473 H   0  0  0  0  0  0  0  0  0  0  0  0  # atno 10765 bound_to 10752
  141.1408  133.8104  157.0583 H   0  0  0  0  0  0  0  0  0  0  0  0  # atno 11005 bound_to 11000
  145.6895  141.0168  143.1563 LP  0  0  0  0  0  0  0  0  0  0  0  0  # atno 17320 bound_to 7965
  144.7071  139.8516  143.7426 LP  0  0  0  0  0  0  0  0  0  0  0  0  # atno 17321 bound_to 7965
  139.8996  143.6852  152.3133 LP  0  0  0  0  0  0  0  0  0  0  0  0  # atno 17342 bound_to 10162
  139.7197  144.7605  151.0976 LP  0  0  0  0  0  0  0  0  0  0  0  0  # atno 17343 bound_to 10162
  157.1665  131.0358  151.2816 LP  0  0  0  0  0  0  0  0  0  0  0  0  # atno 17370 bound_to 10713
  157.4266  130.7467  149.6956 LP  0  0  0  0  0  0  0  0  0  0  0  0  # atno 17371 bound_to 10713
  140.0588  134.9766  157.1268 LP  0  0  0  0  0  0  0  0  0  0  0  0  # atno 17394 bound_to 11000
  140.3879  134.2216  155.7167 LP  0  0  0  0  0  0  0  0  0  0  0  0  # atno 17395 bound_to 11000

$$$$
