AV-unprocessed.smi:287|AV-procd|sdf|2188|dock8
  -GOLD-   2262021573D 1   1.00000     0.00000
 Structure written by MMmdl.
 55 58  0  0  0  0  0  0  0  0  1 V2000
  156.3435  131.2278  153.3611 C   0  0  0  0  0  0  0  0  0  0  0  0
  155.1785  130.5478  153.9942 C   0  0  0  0  0  0  0  0  0  0  0  0
  154.1307  130.9805  154.7534 C   0  0  0  0  0  0  0  0  0  0  0  0
  153.3256  129.8418  155.0569 C   0  0  0  0  0  0  0  0  0  0  0  0
  152.0506  129.8339  155.8887 C   0  0  2  0  0  0  0  0  0  0  0  0
  152.3474  130.3825  157.2938 C   0  0  0  0  0  0  0  0  0  0  0  0
  151.5392  128.5303  156.0912 O   0  0  0  0  0  0  0  0  0  0  0  0
  150.9051  130.6399  155.2351 C   0  0  0  0  0  0  0  0  0  0  0  0
  151.0647  132.0811  155.3833 N   0  0  0  0  0  0  0  0  0  0  0  0
  150.0940  132.9314  154.9879 C   0  0  0  0  0  0  0  0  0  0  0  0
  149.9989  134.0797  155.7001 N   0  0  0  0  0  0  0  0  0  0  0  0
  149.0714  134.9898  155.3890 C   0  0  0  0  0  0  0  0  0  0  0  0
  148.1546  134.9491  154.4205 N   0  0  0  0  0  0  0  0  0  0  0  0
  148.2426  133.7936  153.7006 C   0  0  0  0  0  0  0  0  0  0  0  0
  149.1745  132.7384  153.9137 C   0  0  0  0  0  0  0  0  0  0  0  0
  148.9455  131.7339  152.9788 N   0  0  0  0  0  0  0  0  0  0  0  0
  147.9425  132.1715  152.2671 C   0  0  0  0  0  0  0  0  0  0  0  0
  147.4526  133.4039  152.6415 N   0  0  0  0  0  0  0  0  0  0  0  0
  146.3302  134.2046  152.0498 C   0  0  1  0  0  0  0  0  0  0  0  0
  146.0381  133.6889  150.7856 O   0  0  0  0  0  0  0  0  0  0  0  0
  144.8929  132.8479  150.8667 C   0  0  2  0  0  0  0  0  0  0  0  0
  144.2660  132.6114  149.4818 C   0  0  0  0  0  0  0  0  0  0  0  0
  142.9832  132.0398  149.6245 O   0  0  0  0  0  0  0  0  0  0  0  0
  144.0140  133.6004  151.8726 C   0  0  2  0  0  0  0  0  0  0  0  0
  143.3355  134.6748  151.2469 O   0  0  0  0  0  0  0  0  0  0  0  0
  145.0274  134.1217  152.8857 C   0  0  1  0  0  0  0  0  0  0  0  0
  145.0984  133.2314  153.9866 O   0  0  0  0  0  0  0  0  0  0  0  0
  153.9749  128.7863  154.4635 C   0  0  0  0  0  0  0  0  0  0  0  0
  153.7157  127.3176  154.3954 C   0  0  0  0  0  0  0  0  0  0  0  0
  155.0945  129.2063  153.8111 O   0  0  0  0  0  0  0  0  0  0  0  0
  146.7337  135.2142  151.9623 H   0  0  0  0  0  0  0  0  0  0  0  0
  145.1785  131.8936  151.3139 H   0  0  0  0  0  0  0  0  0  0  0  0
  143.2649  132.9478  152.3234 H   0  0  0  0  0  0  0  0  0  0  0  0
  144.7670  135.1131  153.2589 H   0  0  0  0  0  0  0  0  0  0  0  0
  156.2673  132.3101  153.4673 H   0  0  0  0  0  0  0  0  0  0  0  0
  156.3957  130.9960  152.2971 H   0  0  0  0  0  0  0  0  0  0  0  0
  157.2764  130.9069  153.8246 H   0  0  0  0  0  0  0  0  0  0  0  0
  153.9565  132.0031  155.0538 H   0  0  0  0  0  0  0  0  0  0  0  0
  152.7205  131.4061  157.2461 H   0  0  0  0  0  0  0  0  0  0  0  0
  153.1026  129.7818  157.8027 H   0  0  0  0  0  0  0  0  0  0  0  0
  151.4536  130.3888  157.9191 H   0  0  0  0  0  0  0  0  0  0  0  0
  152.1092  128.0757  156.6921 H   0  0  0  0  0  0  0  0  0  0  0  0
  150.8026  130.3776  154.1809 H   0  0  0  0  0  0  0  0  0  0  0  0
  149.9687  130.3665  155.7228 H   0  0  0  0  0  0  0  0  0  0  0  0
  151.9447  132.3859  155.7744 H   0  0  0  0  0  0  0  0  0  0  0  0
  149.0620  135.8762  156.0059 H   0  0  0  0  0  0  0  0  0  0  0  0
  147.5373  131.5994  151.4452 H   0  0  0  0  0  0  0  0  0  0  0  0
  144.1445  133.5605  148.9584 H   0  0  0  0  0  0  0  0  0  0  0  0
  144.8963  131.9743  148.8605 H   0  0  0  0  0  0  0  0  0  0  0  0
  142.3531  132.7369  149.7263 H   0  0  0  0  0  0  0  0  0  0  0  0
  142.6365  134.3207  150.7187 H   0  0  0  0  0  0  0  0  0  0  0  0
  144.3213  132.6929  153.9834 H   0  0  0  0  0  0  0  0  0  0  0  0
  153.4829  126.9195  155.3832 H   0  0  0  0  0  0  0  0  0  0  0  0
  154.5855  126.7808  154.0158 H   0  0  0  0  0  0  0  0  0  0  0  0
  152.8742  127.1048  153.7363 H   0  0  0  0  0  0  0  0  0  0  0  0
  1  2  1  0  0  0  0
  1 35  1  0  0  0  0
  1 36  1  0  0  0  0
  1 37  1  0  0  0  0
  2 30  1  0  0  0  0
  2  3  2  0  0  0  0
  3  4  1  0  0  0  0
  3 38  1  0  0  0  0
  4  5  1  0  0  0  0
  4 28  2  0  0  0  0
  5  6  1  0  0  0  0
  5  7  1  0  0  0  0
  5  8  1  0  0  0  0
  6 39  1  0  0  0  0
  6 40  1  0  0  0  0
  6 41  1  0  0  0  0
  7 42  1  0  0  0  0
  8  9  1  0  0  0  0
  8 43  1  0  0  0  0
  8 44  1  0  0  0  0
  9 10  1  0  0  0  0
  9 45  1  0  0  0  0
 10 15  1  0  0  0  0
 10 11  2  0  0  0  0
 11 12  1  0  0  0  0
 12 13  2  0  0  0  0
 12 46  1  0  0  0  0
 13 14  1  0  0  0  0
 14 18  1  0  0  0  0
 14 15  2  0  0  0  0
 15 16  1  0  0  0  0
 16 17  2  0  0  0  0
 17 18  1  0  0  0  0
 17 47  1  0  0  0  0
 18 19  1  0  0  0  0
 19 31  1  0  0  0  0
 19 26  1  0  0  0  0
 19 20  1  0  0  0  0
 20 21  1  0  0  0  0
 21 32  1  0  0  0  0
 21 22  1  0  0  0  0
 21 24  1  0  0  0  0
 22 23  1  0  0  0  0
 22 48  1  0  0  0  0
 22 49  1  0  0  0  0
 23 50  1  0  0  0  0
 24 33  1  0  0  0  0
 24 25  1  0  0  0  0
 24 26  1  0  0  0  0
 25 51  1  0  0  0  0
 26 34  1  0  0  0  0
 26 27  1  0  0  0  0
 27 52  1  0  0  0  0
 28 29  1  0  0  0  0
 28 30  1  0  0  0  0
 29 53  1  0  0  0  0
 29 54  1  0  0  0  0
 29 55  1  0  0  0  0
M  END
> <s_m_source_file>
AV-unprocessed.smi

> <i_m_source_file_index>
287

> <i_lp_mmshare_version>
43012

> <i_f3d_flags>
0

> <s_epik_input>
W0NIM11jMVtjSF1jKGMobzEpW0NIM10pW0NAQF0oW0NIM10pKFtPSF0pW0NIMl1bTkhdYyhuW2NIXW4yKWMoYzIzKW5bY0hdbjNbQ0BASF00T1tDQEhdKFtDSDJdW09IXSlbQ0BASF0oW09IXSlbQ0BIXTRbT0hd

> <s_epik_cmdline>
J2VwaWtfcHl0aG9uJywgJy1waCcsICc3LjAnLCAnLXRuJywgJzgnLCAnLW1hJywgJzIwMCcsICctbWV0YWxfYmluZGluZycsICctaW1hZScsICc8aW5maWxlLm1hZT4nLCAnLW9tYWUnLCAnPG91dGZpbGUubWFlPic=

> <r_lp_tautomer_probability>
1

> <r_epik_Ionization_Penalty>
0.000992612

> <r_epik_Ionization_Penalty_Charging>
0

> <r_epik_Ionization_Penalty_Neutral>
0.000992612

> <r_epik_State_Penalty>
-0

> <r_epik_Charging_Adjusted_Penalty>
0

> <i_epik_Tot_Q>
0

> <i_epik_Tot_abs_Q>
0

> <r_epik_Metal_State_Penalty>
-0

> <b_epik_Metal_Only>
0

> <s_epik_Chemistry_Notes>
This compound contains an acetal/aminal-like group ( X-CH(R)-Y where X, Y are N, S, or O) that may be acid/base labile, releasing an aldehyde.

> <s_lp_Force_Field>
OPLS_2005

> <r_lp_Energy>
43.0869

> <b_lp_Chiralities_Consistent>
1

> <s_lp_Variant>
AV-unprocessed.smi:287-12

> <Gold.Version>
5.8.1

> <Gold.Id.Protein>
6NUR|6NUR_protein|mol2

> <Gold.PLP.Fitness>
51.3105

> <Gold.PLP.PLP>
-40.6905

> <Gold.PLP.part.hbond>
-4.6112

> <Gold.PLP.part.metal>
0.0000

> <Gold.PLP.part.buried>
-2.9688

> <Gold.PLP.part.nonpolar>
-34.4429

> <Gold.PLP.part.repulsive>
1.7493

> <Gold.PLP.ligand.clash>
0.0000

> <Gold.PLP.ligand.torsion>
1.0065

> <Gold.PLP.Chemscore.Hbond>
3.5275

> <Gold.PLP.Chemscore.CHOScore>
0.6338

> <Gold.PLP.Chemscore.Metal>
0.0000

> <Gold.Chemscore.Hbonds>
donor molecule, donor type, donor heavy atom, donor atom, acceptor molecule, acceptor atom, score
      L1  H    23    50       P1 10186  0.68
      L1  H    25    51       P1 10186  1.00
      L1  H    27    52       P1 10957  0.96
      P1  H 10785 10796       L1    23  0.81
      L1  C    17    47       P1 10747  0.58

> <Gold.PLP.Chemscore.Internal.Correction>
0.1491

> <Gold.Rescore>
     Score         DG    S(hbond)    S(metal)    S(lipo)     H(rot)  DE(clash)    DE(int)     intcor
      5.22      -8.35       2.24        0.00      75.70       5.27       1.25       1.87       ----

> <Gold.Chemscore.Fitness>
5.2233

> <Gold.Chemscore.DG>
-8.3465

> <Gold.Chemscore.ZeroCoef>
-5.4800

> <Gold.Chemscore.Hbond>
2.2437

> <Gold.Chemscore.Metal>
0.0000

> <Gold.Chemscore.Lipo>
75.6974

> <Gold.Chemscore.Internal_Hbond>
0.0000

> <Gold.Chemscore.DEClash>
1.2519

> <Gold.Chemscore.DEInternal>
1.8713

> <Gold.Chemscore.Rot>
5.2672

> <Gold.Chemscore.Internal.Correction>
   9.000000E+99

> <Gold.Chemscore.Hbonds>
donor molecule, donor type, donor heavy atom, donor atom, acceptor molecule, acceptor atom, score
      L1  H    23    50       P1 10186  0.69
      L1  H    25    51       P1 10186  0.37
      L1  H    27    52       P1 10957  0.70
      P1  H 10785 10796       L1    23  0.32

> <Gold.Chemscore.Hbond.Weighted>
-7.4938

> <Gold.Chemscore.Metal.Weighted>
-0.0000

> <Gold.Chemscore.Lipo.Weighted>
-8.8566

> <Gold.Chemscore.Internal_Hbond.Weighted>
0.0000

> <Gold.Chemscore.DEClash.Weighted>
1.2519

> <Gold.Chemscore.DEInternal.Weighted>
1.8713

> <Gold.Chemscore.Rot.Weighted>
13.4839

> <Gold.Chemscore.Internal.Correction.Weighted>
   9.000000E+99

> <Gold.Protein.RotatedTorsions>
[ 6907 6896 6895 6894 ] final  -82.26 input  -60.11 | X-H torsion
[ 7974 7965 7964 7962 ] final  104.97 input  175.53 | X-H torsion
[ 8008 7997 7996 7995 ] final  -21.43 input   59.86 | X-H torsion
[ 10167 10162 10161 10158 ] final  -77.69 input  -65.29 | X-H torsion
[ 10718 10713 10712 10709 ] final  117.88 input   66.30 | X-H torsion
[ 10763 10752 10751 10750 ] final -126.48 input  -60.55 | X-H torsion
[ 11005 11000 10999 10996 ] final -149.34 input  -57.11 | X-H torsion

> <Gold.Protein.ActiveResidues>
 VAL166  LYS551  ARG553  GLY616  TRP617  ASP618  TYR619  PRO620  LYS621  CYS622 
 ASP623  PHE694  ASN695  SER759  ASP760  ASP761  ALA762  ILE779  LEU786  VAL792 
 PHE793  MET794  SER795  GLU796  ALA797  LYS798  CYS799  TRP800  GLU811  SER814 

> <Gold.Protein.RotatedAtoms>
  150.6900  134.3691  159.4984 H   0  0  0  0  0  0  0  0  0  0  0  0  # atno 6907 bound_to 6896
  152.1510  134.8986  160.0557 H   0  0  0  0  0  0  0  0  0  0  0  0  # atno 6908 bound_to 6896
  152.0083  133.3817  159.4246 H   0  0  0  0  0  0  0  0  0  0  0  0  # atno 6909 bound_to 6896
  145.3257  139.2500  143.3688 H   0  0  0  0  0  0  0  0  0  0  0  0  # atno 7974 bound_to 7965
  154.4706  140.2035  156.0004 H   0  0  0  0  0  0  0  0  0  0  0  0  # atno 8008 bound_to 7997
  156.1004  140.3244  155.7905 H   0  0  0  0  0  0  0  0  0  0  0  0  # atno 8009 bound_to 7997
  155.4807  140.0538  157.2958 H   0  0  0  0  0  0  0  0  0  0  0  0  # atno 8010 bound_to 7997
  140.4748  143.2417  151.8150 H   0  0  0  0  0  0  0  0  0  0  0  0  # atno 10167 bound_to 10162
  157.6067  131.1042  150.7678 H   0  0  0  0  0  0  0  0  0  0  0  0  # atno 10718 bound_to 10713
  154.8746  135.3994  154.3438 H   0  0  0  0  0  0  0  0  0  0  0  0  # atno 10763 bound_to 10752
  153.4233  135.7023  153.6285 H   0  0  0  0  0  0  0  0  0  0  0  0  # atno 10764 bound_to 10752
  153.4937  135.3742  155.2475 H   0  0  0  0  0  0  0  0  0  0  0  0  # atno 10765 bound_to 10752
  140.7518  134.3398  157.5124 H   0  0  0  0  0  0  0  0  0  0  0  0  # atno 11005 bound_to 11000
  146.3065  140.3824  142.8685 LP  0  0  0  0  0  0  0  0  0  0  0  0  # atno 17320 bound_to 7965
  144.8903  140.7516  143.5930 LP  0  0  0  0  0  0  0  0  0  0  0  0  # atno 17321 bound_to 7965
  139.4824  144.4847  151.9262 LP  0  0  0  0  0  0  0  0  0  0  0  0  # atno 17342 bound_to 10162
  140.3932  144.2588  150.5898 LP  0  0  0  0  0  0  0  0  0  0  0  0  # atno 17343 bound_to 10162
  156.8064  130.4938  149.5362 LP  0  0  0  0  0  0  0  0  0  0  0  0  # atno 17370 bound_to 10713
  156.1156  130.6072  151.0115 LP  0  0  0  0  0  0  0  0  0  0  0  0  # atno 17371 bound_to 10713
  139.8786  134.9147  156.3112 LP  0  0  0  0  0  0  0  0  0  0  0  0  # atno 17394 bound_to 11000
  140.9744  133.7307  156.0581 LP  0  0  0  0  0  0  0  0  0  0  0  0  # atno 17395 bound_to 11000

$$$$
