AV-unprocessed.smi:1766|AV-procd|sdf|7135|dock8
  -GOLD-   22720 8373D 1   1.00000     0.00000
 Structure written by MMmdl.
 39 41  0  0  0  0  0  0  0  0  1 V2000
  154.0723  138.1773  159.1488 N   0  0  0  0  0  0  0  0  0  0  0  0
  152.8106  137.7690  159.3118 C   0  0  0  0  0  0  0  0  0  0  0  0
  152.5115  136.8523  160.0739 O   0  0  0  0  0  0  0  0  0  0  0  0
  151.7268  138.5027  158.5159 C   0  0  0  0  0  0  0  0  0  0  0  0
  151.7729  139.9637  158.8682 C   0  0  0  0  0  0  0  0  0  0  0  0
  152.6713  140.4474  159.7291 N   0  0  0  0  0  0  0  0  0  0  0  0
  152.3634  141.7928  159.7701 C   0  0  0  0  0  0  0  0  0  0  0  0
  152.9560  142.8491  160.4987 C   0  0  0  0  0  0  0  0  0  0  0  0
  152.4609  144.1642  160.3789 C   0  0  0  0  0  0  0  0  0  0  0  0
  151.3691  144.4415  159.5308 C   0  0  0  0  0  0  0  0  0  0  0  0
  150.7646  143.4034  158.7960 C   0  0  0  0  0  0  0  0  0  0  0  0
  151.2629  142.0926  158.9192 C   0  0  0  0  0  0  0  0  0  0  0  0
  150.9048  140.8735  158.3529 N   0  0  0  0  0  0  0  0  0  0  0  0
  149.8159  140.6645  157.4071 C   0  0  0  0  0  0  0  0  0  0  0  0
  150.1624  141.1524  155.9863 C   0  0  2  0  0  0  0  0  0  0  0  0
  150.2126  142.5658  155.9562 O   0  0  0  0  0  0  0  0  0  0  0  0
  149.1913  140.5933  154.9585 C   0  0  0  0  0  0  0  0  0  0  0  0
  148.4166  141.4692  154.1680 C   0  0  0  0  0  0  0  0  0  0  0  0
  147.5191  140.9561  153.2111 C   0  0  0  0  0  0  0  0  0  0  0  0
  147.3934  139.5645  153.0370 C   0  0  0  0  0  0  0  0  0  0  0  0
  146.5301  139.0720  152.1174 F   0  0  0  0  0  0  0  0  0  0  0  0
  148.1673  138.6858  153.8191 C   0  0  0  0  0  0  0  0  0  0  0  0
  149.0644  139.1983  154.7765 C   0  0  0  0  0  0  0  0  0  0  0  0
  154.8181  137.7139  159.6473 H   0  0  0  0  0  0  0  0  0  0  0  0
  154.2773  138.9409  158.5205 H   0  0  0  0  0  0  0  0  0  0  0  0
  151.8671  138.3559  157.4450 H   0  0  0  0  0  0  0  0  0  0  0  0
  150.7444  138.0976  158.7629 H   0  0  0  0  0  0  0  0  0  0  0  0
  153.7923  142.6469  161.1512 H   0  0  0  0  0  0  0  0  0  0  0  0
  152.9209  144.9638  160.9408 H   0  0  0  0  0  0  0  0  0  0  0  0
  150.9958  145.4515  159.4450 H   0  0  0  0  0  0  0  0  0  0  0  0
  149.9276  143.6116  158.1461 H   0  0  0  0  0  0  0  0  0  0  0  0
  149.5920  139.5973  157.3860 H   0  0  0  0  0  0  0  0  0  0  0  0
  148.9117  141.1499  157.7712 H   0  0  0  0  0  0  0  0  0  0  0  0
  151.1645  140.8033  155.7333 H   0  0  0  0  0  0  0  0  0  0  0  0
  149.4433  142.8834  155.5086 H   0  0  0  0  0  0  0  0  0  0  0  0
  148.5075  142.5385  154.2912 H   0  0  0  0  0  0  0  0  0  0  0  0
  146.9276  141.6304  152.6097 H   0  0  0  0  0  0  0  0  0  0  0  0
  148.0741  137.6184  153.6840 H   0  0  0  0  0  0  0  0  0  0  0  0
  149.6570  138.5171  155.3699 H   0  0  0  0  0  0  0  0  0  0  0  0
  1  2  1  0  0  0  0
  1 24  1  0  0  0  0
  1 25  1  0  0  0  0
  2  3  2  0  0  0  0
  2  4  1  0  0  0  0
  4  5  1  0  0  0  0
  4 26  1  0  0  0  0
  4 27  1  0  0  0  0
  5 13  1  0  0  0  0
  5  6  2  0  0  0  0
  6  7  1  0  0  0  0
  7 12  2  0  0  0  0
  7  8  1  0  0  0  0
  8  9  2  0  0  0  0
  8 28  1  0  0  0  0
  9 10  1  0  0  0  0
  9 29  1  0  0  0  0
 10 11  2  0  0  0  0
 10 30  1  0  0  0  0
 11 12  1  0  0  0  0
 11 31  1  0  0  0  0
 12 13  1  0  0  0  0
 13 14  1  0  0  0  0
 14 15  1  0  0  0  0
 14 32  1  0  0  0  0
 14 33  1  0  0  0  0
 15 16  1  0  0  0  0
 15 17  1  0  0  0  0
 15 34  1  0  0  0  0
 16 35  1  0  0  0  0
 17 23  1  0  0  0  0
 17 18  2  0  0  0  0
 18 19  1  0  0  0  0
 18 36  1  0  0  0  0
 19 20  2  0  0  0  0
 19 37  1  0  0  0  0
 20 21  1  0  0  0  0
 20 22  1  0  0  0  0
 22 23  2  0  0  0  0
 22 38  1  0  0  0  0
 23 39  1  0  0  0  0
M  END
> <s_m_source_file>
AV-unprocessed.smi

> <i_m_source_file_index>
1766

> <i_lp_mmshare_version>
43012

> <i_f3d_flags>
0

> <s_epik_input>
W2NIXTFbY0hdW2NIXVtjSF1jKGMxMiluKGMobjIpW0NIMl1DKD1PKVtOSDJdKVtDSDJdW0NASF0oW09IXSljM1tjSF1bY0hdYyhGKVtjSF1bY0hdMw==

> <s_epik_cmdline>
J2VwaWtfcHl0aG9uJywgJy1waCcsICc3LjAnLCAnLXRuJywgJzgnLCAnLW1hJywgJzIwMCcsICctbWV0YWxfYmluZGluZycsICctaW1hZScsICc8aW5maWxlLm1hZT4nLCAnLW9tYWUnLCAnPG91dGZpbGUubWFlPic=

> <r_epik_Ionization_Penalty>
0.0366901

> <r_epik_Ionization_Penalty_Charging>
0

> <r_epik_Ionization_Penalty_Neutral>
0.0366901

> <r_epik_State_Penalty>
0.0306642

> <r_epik_Charging_Adjusted_Penalty>
0.0306642

> <i_epik_Tot_Q>
0

> <i_epik_Tot_abs_Q>
0

> <r_epik_Metal_State_Penalty>
0.028853

> <b_epik_Metal_Only>
0

> <s_lp_Force_Field>
OPLS_2005

> <r_lp_Energy>
12.4574

> <b_lp_Chiralities_Consistent>
1

> <s_lp_Variant>
AV-unprocessed.smi:1766-1

> <Gold.Version>
5.8.1

> <Gold.Id.Protein>
6NUR|6NUR_protein|mol2

> <Gold.PLP.Fitness>
47.5930

> <Gold.PLP.PLP>
-43.8700

> <Gold.PLP.part.hbond>
-1.9249

> <Gold.PLP.part.metal>
0.0000

> <Gold.PLP.part.buried>
-3.4828

> <Gold.PLP.part.nonpolar>
-38.9630

> <Gold.PLP.part.repulsive>
0.0854

> <Gold.PLP.ligand.clash>
0.0000

> <Gold.PLP.ligand.torsion>
0.3105

> <Gold.PLP.Chemscore.Hbond>
1.4320

> <Gold.PLP.Chemscore.CHOScore>
0.0000

> <Gold.PLP.Chemscore.Metal>
0.0000

> <Gold.Chemscore.Hbonds>
donor molecule, donor type, donor heavy atom, donor atom, acceptor molecule, acceptor atom, score
      L1  H    16    35       P1  8028  0.43
      P1  H  6896  6908       L1     3  1.00

> <Gold.PLP.Chemscore.Internal.Correction>
0.0480

> <Gold.Rescore>
     Score         DG    S(hbond)    S(metal)    S(lipo)     H(rot)  DE(clash)    DE(int)     intcor
     14.43     -16.85       1.76        0.00     112.16       2.99       0.72       1.69       ----

> <Gold.Chemscore.Fitness>
14.4317

> <Gold.Chemscore.DG>
-16.8498

> <Gold.Chemscore.ZeroCoef>
-5.4800

> <Gold.Chemscore.Hbond>
1.7641

> <Gold.Chemscore.Metal>
0.0000

> <Gold.Chemscore.Lipo>
112.1616

> <Gold.Chemscore.Internal_Hbond>
0.0000

> <Gold.Chemscore.DEClash>
0.7247

> <Gold.Chemscore.DEInternal>
1.6934

> <Gold.Chemscore.Rot>
2.9864

> <Gold.Chemscore.Internal.Correction>
   9.000000E+99

> <Gold.Chemscore.Hbonds>
donor molecule, donor type, donor heavy atom, donor atom, acceptor molecule, acceptor atom, score
      L1  H    16    35       P1  8028  0.44
      P1  H  6896  6908       L1     3  1.00

> <Gold.Chemscore.Hbond.Weighted>
-5.8920

> <Gold.Chemscore.Metal.Weighted>
-0.0000

> <Gold.Chemscore.Lipo.Weighted>
-13.1229

> <Gold.Chemscore.Internal_Hbond.Weighted>
0.0000

> <Gold.Chemscore.DEClash.Weighted>
0.7247

> <Gold.Chemscore.DEInternal.Weighted>
1.6934

> <Gold.Chemscore.Rot.Weighted>
7.6451

> <Gold.Chemscore.Internal.Correction.Weighted>
   9.000000E+99

> <Gold.Protein.RotatedTorsions>
[ 6907 6896 6895 6894 ] final  -96.43 input  -60.11 | X-H torsion
[ 7974 7965 7964 7962 ] final  -13.61 input  175.53 | X-H torsion
[ 8008 7997 7996 7995 ] final  -52.34 input   59.86 | X-H torsion
[ 10167 10162 10161 10158 ] final -128.69 input  -65.29 | X-H torsion
[ 10718 10713 10712 10709 ] final  155.73 input   66.30 | X-H torsion
[ 10763 10752 10751 10750 ] final   96.33 input  -60.55 | X-H torsion
[ 11005 11000 10999 10996 ] final  -34.19 input  -57.11 | X-H torsion

> <Gold.Protein.ActiveResidues>
 VAL166  LYS551  ARG553  GLY616  TRP617  ASP618  TYR619  PRO620  LYS621  CYS622 
 ASP623  PHE694  ASN695  SER759  ASP760  ASP761  ALA762  ILE779  LEU786  VAL792 
 PHE793  MET794  SER795  GLU796  ALA797  LYS798  CYS799  TRP800  GLU811  SER814 

> <Gold.Protein.RotatedAtoms>
  150.6988  134.1504  159.4138 H   0  0  0  0  0  0  0  0  0  0  0  0  # atno 6907 bound_to 6896
  151.9487  135.0177  160.0550 H   0  0  0  0  0  0  0  0  0  0  0  0  # atno 6908 bound_to 6896
  152.2030  133.4819  159.5105 H   0  0  0  0  0  0  0  0  0  0  0  0  # atno 6909 bound_to 6896
  146.2107  140.3228  142.8392 H   0  0  0  0  0  0  0  0  0  0  0  0  # atno 7974 bound_to 7965
  154.4104  140.1226  156.4976 H   0  0  0  0  0  0  0  0  0  0  0  0  # atno 8008 bound_to 7997
  155.6928  140.3495  155.4881 H   0  0  0  0  0  0  0  0  0  0  0  0  # atno 8009 bound_to 7997
  155.9454  140.1095  157.1011 H   0  0  0  0  0  0  0  0  0  0  0  0  # atno 8010 bound_to 7997
  139.9476  143.6092  152.2485 H   0  0  0  0  0  0  0  0  0  0  0  0  # atno 10167 bound_to 10162
  157.2144  131.0705  151.1950 H   0  0  0  0  0  0  0  0  0  0  0  0  # atno 10718 bound_to 10713
  153.2637  135.4222  155.0919 H   0  0  0  0  0  0  0  0  0  0  0  0  # atno 10763 bound_to 10752
  154.8430  135.3455  154.6341 H   0  0  0  0  0  0  0  0  0  0  0  0  # atno 10764 bound_to 10752
  153.6761  135.7041  153.5189 H   0  0  0  0  0  0  0  0  0  0  0  0  # atno 10765 bound_to 10752
  140.9696  133.7117  156.1502 H   0  0  0  0  0  0  0  0  0  0  0  0  # atno 11005 bound_to 11000
  144.8908  140.7521  143.5928 LP  0  0  0  0  0  0  0  0  0  0  0  0  # atno 17320 bound_to 7965
  145.3150  139.1806  143.4618 LP  0  0  0  0  0  0  0  0  0  0  0  0  # atno 17321 bound_to 7965
  139.6654  144.7662  151.1883 LP  0  0  0  0  0  0  0  0  0  0  0  0  # atno 17342 bound_to 10162
  140.7592  143.5946  150.8761 LP  0  0  0  0  0  0  0  0  0  0  0  0  # atno 17343 bound_to 10162
  157.3639  130.7146  149.6520 LP  0  0  0  0  0  0  0  0  0  0  0  0  # atno 17370 bound_to 10713
  155.9687  130.4217  150.4484 LP  0  0  0  0  0  0  0  0  0  0  0  0  # atno 17371 bound_to 10713
  140.7348  134.4215  157.5562 LP  0  0  0  0  0  0  0  0  0  0  0  0  # atno 17394 bound_to 11000
  139.8907  134.8797  156.2355 LP  0  0  0  0  0  0  0  0  0  0  0  0  # atno 17395 bound_to 11000

$$$$
