AV-unprocessed.smi:8|AV-procd|sdf|47|dock10
  -GOLD-   2262015163D 1   1.00000     0.00000
 Structure written by MMmdl.
 33 34  0  0  0  0  0  0  0  0  2 V2000
  152.8710  143.3812  159.9649 C   0  0  0  0  0  0  0  0  0  0  0  0
  152.3009  141.9595  160.0669 C   0  0  0  0  0  0  0  0  0  0  0  0
  152.1222  141.3565  158.7396 N   0  0  0  0  0  0  0  0  0  0  0  0
  151.2052  141.9670  157.8689 C   0  0  0  0  0  0  0  0  0  0  0  0
  150.9536  141.4926  156.6316 C   0  0  0  0  0  0  0  0  0  0  0  0
  149.9574  142.1633  155.6950 C   0  0  0  0  0  0  0  0  0  0  0  0
  149.6617  141.3766  154.5025 N   0  0  0  0  0  0  0  0  0  0  0  0
  148.6833  140.3744  154.5893 C   0  0  0  0  0  0  0  0  0  0  0  0
  149.0721  139.0993  154.8305 N   0  0  0  0  0  0  0  0  0  0  0  0
  148.1163  138.1706  154.9022 C   0  0  0  0  0  0  0  0  0  0  0  0
  146.8031  138.3643  154.7656 N   0  0  0  0  0  0  0  0  0  0  0  0
  146.3995  139.6301  154.5270 C   0  0  0  0  0  0  0  0  0  0  0  0
  147.3154  140.6993  154.4279 C   0  0  0  0  0  0  0  0  0  0  0  0
  146.8422  142.1137  154.1478 C   0  0  0  0  0  0  0  0  0  0  0  0
  151.7009  140.3053  156.2022 C   0  0  0  0  0  0  0  0  0  0  0  0
  151.5152  139.8382  155.0786 O   0  0  0  0  0  0  0  0  0  0  0  0
  152.5884  139.7557  157.0815 N   0  5  0  0  0  0  0  0  0  0  0  0
  152.8170  140.2532  158.3350 C   0  0  0  0  0  0  0  0  0  0  0  0
  153.6278  139.7423  159.1081 O   0  0  0  0  0  0  0  0  0  0  0  0
  152.9872  143.8232  160.9545 H   0  0  0  0  0  0  0  0  0  0  0  0
  152.2131  144.0297  159.3857 H   0  0  0  0  0  0  0  0  0  0  0  0
  153.8499  143.3816  159.4846 H   0  0  0  0  0  0  0  0  0  0  0  0
  152.9515  141.3415  160.6878 H   0  0  0  0  0  0  0  0  0  0  0  0
  151.3472  141.9873  160.5961 H   0  0  0  0  0  0  0  0  0  0  0  0
  150.7133  142.8413  158.2698 H   0  0  0  0  0  0  0  0  0  0  0  0
  149.0364  142.3956  156.2310 H   0  0  0  0  0  0  0  0  0  0  0  0
  150.3707  143.1213  155.3787 H   0  0  0  0  0  0  0  0  0  0  0  0
  150.4621  141.1518  153.9287 H   0  0  0  0  0  0  0  0  0  0  0  0
  148.4392  137.1578  155.0926 H   0  0  0  0  0  0  0  0  0  0  0  0
  145.3372  139.7881  154.4125 H   0  0  0  0  0  0  0  0  0  0  0  0
  145.7595  142.1499  154.0240 H   0  0  0  0  0  0  0  0  0  0  0  0
  147.3009  142.4936  153.2341 H   0  0  0  0  0  0  0  0  0  0  0  0
  147.1127  142.7748  154.9715 H   0  0  0  0  0  0  0  0  0  0  0  0
  1  2  1  0  0  0  0
  1 20  1  0  0  0  0
  1 21  1  0  0  0  0
  1 22  1  0  0  0  0
  2  3  1  0  0  0  0
  2 23  1  0  0  0  0
  2 24  1  0  0  0  0
  3 18  1  0  0  0  0
  3  4  1  0  0  0  0
  4  5  2  0  0  0  0
  4 25  1  0  0  0  0
  5  6  1  0  0  0  0
  5 15  1  0  0  0  0
  6  7  1  0  0  0  0
  6 26  1  0  0  0  0
  6 27  1  0  0  0  0
  7  8  1  0  0  0  0
  7 28  1  0  0  0  0
  8 13  1  0  0  0  0
  8  9  2  0  0  0  0
  9 10  1  0  0  0  0
 10 11  2  0  0  0  0
 10 29  1  0  0  0  0
 11 12  1  0  0  0  0
 12 13  2  0  0  0  0
 12 30  1  0  0  0  0
 13 14  1  0  0  0  0
 14 31  1  0  0  0  0
 14 32  1  0  0  0  0
 14 33  1  0  0  0  0
 15 16  2  0  0  0  0
 15 17  1  0  0  0  0
 17 18  1  0  0  0  0
 18 19  2  0  0  0  0
M  CHG  1  17  -1
M  END
> <s_m_source_file>
AV-unprocessed.smi

> <i_m_source_file_index>
8

> <i_lp_mmshare_version>
43012

> <i_f3d_flags>
0

> <s_epik_input>
W0NIM11bQ0gyXW4xW2NIXWMoYyg9TylbbkhdYzE9TylbQ0gyXVtOSF1jMm5bY0hdbltjSF1jMltDSDNd

> <s_epik_cmdline>
J2VwaWtfcHl0aG9uJywgJy1waCcsICc3LjAnLCAnLXRuJywgJzgnLCAnLW1hJywgJzIwMCcsICctbWV0YWxfYmluZGluZycsICctaW1hZScsICc8aW5maWxlLm1hZT4nLCAnLW9tYWUnLCAnPG91dGZpbGUubWFlPic=

> <r_lp_tautomer_probability>
0.999537

> <r_epik_Ionization_Penalty>
4.00162

> <r_epik_Ionization_Penalty_Charging>
4.85554e-07

> <r_epik_Ionization_Penalty_Neutral>
4.00162

> <r_epik_State_Penalty>
4.01059

> <r_epik_Charging_Adjusted_Penalty>
4.01059

> <i_epik_Tot_Q>
-1

> <i_epik_Tot_abs_Q>
1

> <r_epik_Metal_State_Penalty>
0.642438

> <b_epik_Metal_Only>
1

> <s_lp_Force_Field>
OPLS_2005

> <r_lp_Energy>
12.8082

> <b_lp_Chiralities_Consistent>
1

> <s_lp_Variant>
AV-unprocessed.smi:8-3

> <Gold.Version>
5.8.1

> <Gold.Id.Protein>
6NUR|6NUR_protein|mol2

> <Gold.PLP.Fitness>
40.4054

> <Gold.PLP.PLP>
-30.4986

> <Gold.PLP.part.hbond>
-4.2237

> <Gold.PLP.part.metal>
0.0000

> <Gold.PLP.part.buried>
-0.4399

> <Gold.PLP.part.nonpolar>
-24.8604

> <Gold.PLP.part.repulsive>
0.2672

> <Gold.PLP.ligand.clash>
0.9304

> <Gold.PLP.ligand.torsion>
0.5843

> <Gold.PLP.Chemscore.Hbond>
3.0000

> <Gold.PLP.Chemscore.CHOScore>
1.0000

> <Gold.PLP.Chemscore.Metal>
0.0000

> <Gold.Chemscore.Hbonds>
donor molecule, donor type, donor heavy atom, donor atom, acceptor molecule, acceptor atom, score
      P1  H  7989  7998       L1    16  1.00
      P1  H  7997  8009       L1    17  1.60
      L1  C    12    30       P1 10175  0.73

> <Gold.PLP.Chemscore.Internal.Correction>
0.0058

> <Gold.Rescore>
     Score         DG    S(hbond)    S(metal)    S(lipo)     H(rot)  DE(clash)    DE(int)     intcor
      7.35     -11.10       1.22        0.00      58.89       2.09       1.07       2.69       ----

> <Gold.Chemscore.Fitness>
7.3487

> <Gold.Chemscore.DG>
-11.1027

> <Gold.Chemscore.ZeroCoef>
-5.4800

> <Gold.Chemscore.Hbond>
1.2205

> <Gold.Chemscore.Metal>
0.0000

> <Gold.Chemscore.Lipo>
58.8913

> <Gold.Chemscore.Internal_Hbond>
0.0000

> <Gold.Chemscore.DEClash>
1.0660

> <Gold.Chemscore.DEInternal>
2.6880

> <Gold.Chemscore.Rot>
2.0876

> <Gold.Chemscore.Internal.Correction>
   9.000000E+99

> <Gold.Chemscore.Hbonds>
donor molecule, donor type, donor heavy atom, donor atom, acceptor molecule, acceptor atom, score
      P1  H  7989  7998       L1    16  0.98
      P1  H  7997  8009       L1    17  0.07

> <Gold.Chemscore.Hbond.Weighted>
-4.0766

> <Gold.Chemscore.Metal.Weighted>
-0.0000

> <Gold.Chemscore.Lipo.Weighted>
-6.8903

> <Gold.Chemscore.Internal_Hbond.Weighted>
0.0000

> <Gold.Chemscore.DEClash.Weighted>
1.0660

> <Gold.Chemscore.DEInternal.Weighted>
2.6880

> <Gold.Chemscore.Rot.Weighted>
5.3442

> <Gold.Chemscore.Internal.Correction.Weighted>
   9.000000E+99

> <Gold.Protein.RotatedTorsions>
[ 6907 6896 6895 6894 ] final   46.80 input  -60.11 | X-H torsion
[ 7974 7965 7964 7962 ] final  133.09 input  175.53 | X-H torsion
[ 8008 7997 7996 7995 ] final -164.42 input   59.86 | X-H torsion
[ 10167 10162 10161 10158 ] final   -3.94 input  -65.29 | X-H torsion
[ 10718 10713 10712 10709 ] final  109.03 input   66.30 | X-H torsion
[ 10763 10752 10751 10750 ] final   90.33 input  -60.55 | X-H torsion
[ 11005 11000 10999 10996 ] final   80.05 input  -57.11 | X-H torsion

> <Gold.Protein.ActiveResidues>
 VAL166  LYS551  ARG553  GLY616  TRP617  ASP618  TYR619  PRO620  LYS621  CYS622 
 ASP623  PHE694  ASN695  SER759  ASP760  ASP761  ALA762  ILE779  LEU786  VAL792 
 PHE793  MET794  SER795  GLU796  ALA797  LYS798  CYS799  TRP800  GLU811  SER814 

> <Gold.Protein.RotatedAtoms>
  152.2606  134.8037  160.0430 H   0  0  0  0  0  0  0  0  0  0  0  0  # atno 6907 bound_to 6896
  151.8685  133.3466  159.3735 H   0  0  0  0  0  0  0  0  0  0  0  0  # atno 6908 bound_to 6896
  150.7115  134.5063  159.5630 H   0  0  0  0  0  0  0  0  0  0  0  0  # atno 6909 bound_to 6896
  144.9901  139.4415  143.5343 H   0  0  0  0  0  0  0  0  0  0  0  0  # atno 7974 bound_to 7965
  155.8353  140.0940  157.1768 H   0  0  0  0  0  0  0  0  0  0  0  0  # atno 8008 bound_to 7997
  154.3980  140.1411  156.3724 H   0  0  0  0  0  0  0  0  0  0  0  0  # atno 8009 bound_to 7997
  155.8122  140.3449  155.5467 H   0  0  0  0  0  0  0  0  0  0  0  0  # atno 8010 bound_to 7997
  140.6909  143.6482  150.8374 H   0  0  0  0  0  0  0  0  0  0  0  0  # atno 10167 bound_to 10162
  157.6560  131.0905  150.6393 H   0  0  0  0  0  0  0  0  0  0  0  0  # atno 10718 bound_to 10713
  153.1965  135.4438  155.0213 H   0  0  0  0  0  0  0  0  0  0  0  0  # atno 10763 bound_to 10752
  154.8121  135.3299  154.7278 H   0  0  0  0  0  0  0  0  0  0  0  0  # atno 10764 bound_to 10752
  153.7727  135.6983  153.4958 H   0  0  0  0  0  0  0  0  0  0  0  0  # atno 10765 bound_to 10752
  139.9149  134.7890  156.1858 H   0  0  0  0  0  0  0  0  0  0  0  0  # atno 11005 bound_to 11000
  146.3429  139.9227  142.8764 LP  0  0  0  0  0  0  0  0  0  0  0  0  # atno 17320 bound_to 7965
  145.2298  140.9968  143.3997 LP  0  0  0  0  0  0  0  0  0  0  0  0  # atno 17321 bound_to 7965
  140.0194  143.5558  152.2806 LP  0  0  0  0  0  0  0  0  0  0  0  0  # atno 17342 bound_to 10162
  139.6311  144.7644  151.2535 LP  0  0  0  0  0  0  0  0  0  0  0  0  # atno 17343 bound_to 10162
  156.6699  130.4536  149.5660 LP  0  0  0  0  0  0  0  0  0  0  0  0  # atno 17370 bound_to 10713
  156.2005  130.6617  151.1162 LP  0  0  0  0  0  0  0  0  0  0  0  0  # atno 17371 bound_to 10713
  141.0614  133.6840  156.1960 LP  0  0  0  0  0  0  0  0  0  0  0  0  # atno 17394 bound_to 11000
  140.6654  134.4923  157.5585 LP  0  0  0  0  0  0  0  0  0  0  0  0  # atno 17395 bound_to 11000

$$$$
