AV-unprocessed.smi:1436|AV-procd|sdf|5862|dock8
  -GOLD-   22720 5533D 1   1.00000     0.00000
 Structure written by MMmdl.
 44 45  0  0  0  0  0  0  0  0  2 V2000
  147.4530  142.0282  154.1367 C   0  0  0  0  0  0  0  0  0  0  0  0
  148.6358  141.1116  154.2650 C   0  0  0  0  0  0  0  0  0  0  0  0
  149.8190  141.6088  154.5828 N   0  0  0  0  0  0  0  0  0  0  0  0
  150.6918  140.5179  154.6360 O   0  0  0  0  0  0  0  0  0  0  0  0
  149.9902  139.3922  154.3505 C   0  0  0  0  0  0  0  0  0  0  0  0
  150.7449  138.1065  154.3772 C   0  0  0  0  0  0  0  0  0  0  0  0
  148.6797  139.6971  154.1045 C   0  0  0  0  0  0  0  0  0  0  0  0
  147.5416  138.7682  153.7680 C   0  0  0  0  0  0  0  0  0  0  0  0
  147.5689  137.5971  154.7461 C   0  0  0  0  0  0  0  0  0  0  0  0
  147.5069  137.8058  155.9570 O   0  0  0  0  0  0  0  0  0  0  0  0
  147.7254  136.3787  154.2047 N   0  0  0  0  0  0  0  0  0  0  0  0
  147.9881  135.1419  154.9392 C   0  0  1  0  0  0  0  0  0  0  0  0
  146.9269  134.9596  156.0326 C   0  0  0  0  0  0  0  0  0  0  0  0
  148.0250  133.9385  153.9693 C   0  0  0  0  0  0  0  0  0  0  0  0
  147.1696  134.1257  152.7681 N   0  3  0  0  0  0  0  0  0  0  0  0
  147.2633  133.0142  151.7911 C   0  0  0  0  0  0  0  0  0  0  0  0
  146.4100  133.3265  150.5510 C   0  0  0  0  0  0  0  0  0  0  0  0
  145.0611  133.5407  150.9475 O   0  0  0  0  0  0  0  0  0  0  0  0
  144.9344  134.6505  151.8280 C   0  0  0  0  0  0  0  0  0  0  0  0
  145.7531  134.3994  153.1062 C   0  0  0  0  0  0  0  0  0  0  0  0
  146.7107  141.8144  154.9060 H   0  0  0  0  0  0  0  0  0  0  0  0
  146.9698  141.9069  153.1671 H   0  0  0  0  0  0  0  0  0  0  0  0
  147.7391  143.0762  154.2351 H   0  0  0  0  0  0  0  0  0  0  0  0
  150.3925  137.4701  155.1890 H   0  0  0  0  0  0  0  0  0  0  0  0
  151.8116  138.2793  154.5232 H   0  0  0  0  0  0  0  0  0  0  0  0
  150.6171  137.5640  153.4403 H   0  0  0  0  0  0  0  0  0  0  0  0
  146.5776  139.2733  153.8395 H   0  0  0  0  0  0  0  0  0  0  0  0
  147.6151  138.3936  152.7460 H   0  0  0  0  0  0  0  0  0  0  0  0
  147.7422  136.3157  153.1967 H   0  0  0  0  0  0  0  0  0  0  0  0
  148.9525  135.2089  155.4443 H   0  0  0  0  0  0  0  0  0  0  0  0
  147.1116  134.0532  156.6098 H   0  0  0  0  0  0  0  0  0  0  0  0
  145.9246  134.8857  155.6089 H   0  0  0  0  0  0  0  0  0  0  0  0
  146.9330  135.7991  156.7289 H   0  0  0  0  0  0  0  0  0  0  0  0
  149.0490  133.7157  153.6664 H   0  0  0  0  0  0  0  0  0  0  0  0
  147.6699  133.0599  154.5106 H   0  0  0  0  0  0  0  0  0  0  0  0
  148.2973  132.8579  151.4865 H   0  0  0  0  0  0  0  0  0  0  0  0
  146.9240  132.0869  152.2549 H   0  0  0  0  0  0  0  0  0  0  0  0
  146.7931  134.2020  150.0241 H   0  0  0  0  0  0  0  0  0  0  0  0
  146.4447  132.4922  149.8505 H   0  0  0  0  0  0  0  0  0  0  0  0
  145.2622  135.5621  151.3289 H   0  0  0  0  0  0  0  0  0  0  0  0
  143.8817  134.7862  152.0765 H   0  0  0  0  0  0  0  0  0  0  0  0
  145.3384  133.5536  153.6572 H   0  0  0  0  0  0  0  0  0  0  0  0
  145.6882  135.2719  153.7573 H   0  0  0  0  0  0  0  0  0  0  0  0
  147.5122  134.9536  152.3013 H   0  0  0  0  0  0  0  0  0  0  0  0
  1  2  1  0  0  0  0
  1 21  1  0  0  0  0
  1 22  1  0  0  0  0
  1 23  1  0  0  0  0
  2  7  1  0  0  0  0
  2  3  2  0  0  0  0
  3  4  1  0  0  0  0
  4  5  1  0  0  0  0
  5  6  1  0  0  0  0
  5  7  2  0  0  0  0
  6 24  1  0  0  0  0
  6 25  1  0  0  0  0
  6 26  1  0  0  0  0
  7  8  1  0  0  0  0
  8  9  1  0  0  0  0
  8 27  1  0  0  0  0
  8 28  1  0  0  0  0
  9 10  2  0  0  0  0
  9 11  1  0  0  0  0
 11 12  1  0  0  0  0
 11 29  1  0  0  0  0
 12 13  1  0  0  0  0
 12 14  1  0  0  0  0
 12 30  1  0  0  0  0
 13 31  1  0  0  0  0
 13 32  1  0  0  0  0
 13 33  1  0  0  0  0
 14 15  1  0  0  0  0
 14 34  1  0  0  0  0
 14 35  1  0  0  0  0
 15 20  1  0  0  0  0
 15 16  1  0  0  0  0
 15 44  1  0  0  0  0
 16 17  1  0  0  0  0
 16 36  1  0  0  0  0
 16 37  1  0  0  0  0
 17 18  1  0  0  0  0
 17 38  1  0  0  0  0
 17 39  1  0  0  0  0
 18 19  1  0  0  0  0
 19 20  1  0  0  0  0
 19 40  1  0  0  0  0
 19 41  1  0  0  0  0
 20 42  1  0  0  0  0
 20 43  1  0  0  0  0
M  CHG  1  15   1
M  END
> <s_m_source_file>
AV-unprocessed.smi

> <i_m_source_file_index>
1436

> <i_lp_mmshare_version>
43012

> <i_f3d_flags>
0

> <s_epik_input>
W0NIM11jMW5vYyhbQ0gzXSljMVtDSDJdQyg9TylbTkhdW0NASF0oW0NIM10pW0NIMl1OMltDSDJdW0NIMl1PW0NIMl1bQ0gyXTI=

> <s_epik_cmdline>
J2VwaWtfcHl0aG9uJywgJy1waCcsICc3LjAnLCAnLXRuJywgJzgnLCAnLW1hJywgJzIwMCcsICctbWV0YWxfYmluZGluZycsICctaW1hZScsICc8aW5maWxlLm1hZT4nLCAnLW9tYWUnLCAnPG91dGZpbGUubWFlPic=

> <r_epik_Ionization_Penalty>
0.663207

> <r_epik_Ionization_Penalty_Charging>
0.663207

> <r_epik_Ionization_Penalty_Neutral>
1.07515e-07

> <r_epik_State_Penalty>
0.682743

> <r_epik_Charging_Adjusted_Penalty>
1.34595

> <i_epik_Tot_Q>
1

> <i_epik_Tot_abs_Q>
1

> <r_epik_Metal_State_Penalty>
0.682743

> <b_epik_Metal_Only>
0

> <s_lp_Force_Field>
OPLS_2005

> <r_lp_Energy>
13.3676

> <b_lp_Chiralities_Consistent>
1

> <s_lp_Variant>
AV-unprocessed.smi:1436-4

> <Gold.Version>
5.8.1

> <Gold.Id.Protein>
6NUR|6NUR_protein|mol2

> <Gold.PLP.Fitness>
39.8365

> <Gold.PLP.PLP>
-29.4377

> <Gold.PLP.part.hbond>
-4.8099

> <Gold.PLP.part.metal>
0.0000

> <Gold.PLP.part.buried>
-0.4666

> <Gold.PLP.part.nonpolar>
-23.7301

> <Gold.PLP.part.repulsive>
0.4119

> <Gold.PLP.ligand.clash>
0.0000

> <Gold.PLP.ligand.torsion>
0.5808

> <Gold.PLP.Chemscore.Hbond>
3.8407

> <Gold.PLP.Chemscore.CHOScore>
0.0000

> <Gold.PLP.Chemscore.Metal>
0.0000

> <Gold.Chemscore.Hbonds>
donor molecule, donor type, donor heavy atom, donor atom, acceptor molecule, acceptor atom, score
      L1  H    11    29       P1  7948  0.78
      L1  H    15    44       P1  7948  2.00
      P1  H  7989  7998       L1     4  0.91
      P1  H  8011  8017       L1     3  0.02

> <Gold.PLP.Chemscore.Internal.Correction>
0.0382

> <Gold.Rescore>
     Score         DG    S(hbond)    S(metal)    S(lipo)     H(rot)  DE(clash)    DE(int)     intcor
     13.29     -16.00       2.11        0.00      69.06       1.79       0.25       2.46       ----

> <Gold.Chemscore.Fitness>
13.2930

> <Gold.Chemscore.DG>
-16.0031

> <Gold.Chemscore.ZeroCoef>
-5.4800

> <Gold.Chemscore.Hbond>
2.1061

> <Gold.Chemscore.Metal>
0.0000

> <Gold.Chemscore.Lipo>
69.0634

> <Gold.Chemscore.Internal_Hbond>
0.0000

> <Gold.Chemscore.DEClash>
0.2543

> <Gold.Chemscore.DEInternal>
2.4559

> <Gold.Chemscore.Rot>
1.7936

> <Gold.Chemscore.Internal.Correction>
   9.000000E+99

> <Gold.Chemscore.Hbonds>
donor molecule, donor type, donor heavy atom, donor atom, acceptor molecule, acceptor atom, score
      L1  H    11    29       P1  7948  0.78
      L1  H    15    44       P1  7948  0.91
      P1  H  7989  7998       L1     4  0.15

> <Gold.Chemscore.Hbond.Weighted>
-7.0343

> <Gold.Chemscore.Metal.Weighted>
-0.0000

> <Gold.Chemscore.Lipo.Weighted>
-8.0804

> <Gold.Chemscore.Internal_Hbond.Weighted>
0.0000

> <Gold.Chemscore.DEClash.Weighted>
0.2543

> <Gold.Chemscore.DEInternal.Weighted>
2.4559

> <Gold.Chemscore.Rot.Weighted>
4.5916

> <Gold.Chemscore.Internal.Correction.Weighted>
   9.000000E+99

> <Gold.Protein.RotatedTorsions>
[ 6907 6896 6895 6894 ] final  113.33 input  -60.11 | X-H torsion
[ 7974 7965 7964 7962 ] final  121.15 input  175.53 | X-H torsion
[ 8008 7997 7996 7995 ] final  113.05 input   59.86 | X-H torsion
[ 10167 10162 10161 10158 ] final -133.54 input  -65.29 | X-H torsion
[ 10718 10713 10712 10709 ] final  131.39 input   66.30 | X-H torsion
[ 10763 10752 10751 10750 ] final -130.62 input  -60.55 | X-H torsion
[ 11005 11000 10999 10996 ] final  175.44 input  -57.11 | X-H torsion

> <Gold.Protein.ActiveResidues>
 VAL166  LYS551  ARG553  GLY616  TRP617  ASP618  TYR619  PRO620  LYS621  CYS622 
 ASP623  PHE694  ASN695  SER759  ASP760  ASP761  ALA762  ILE779  LEU786  VAL792 
 PHE793  MET794  SER795  GLU796  ALA797  LYS798  CYS799  TRP800  GLU811  SER814 

> <Gold.Protein.RotatedAtoms>
  152.4867  133.8391  159.7142 H   0  0  0  0  0  0  0  0  0  0  0  0  # atno 6907 bound_to 6896
  150.8959  133.7172  159.2898 H   0  0  0  0  0  0  0  0  0  0  0  0  # atno 6908 bound_to 6896
  151.4629  135.1043  159.9782 H   0  0  0  0  0  0  0  0  0  0  0  0  # atno 6909 bound_to 6896
  145.1228  139.3378  143.4705 H   0  0  0  0  0  0  0  0  0  0  0  0  # atno 7974 bound_to 7965
  156.2233  140.2987  156.0005 H   0  0  0  0  0  0  0  0  0  0  0  0  # atno 8008 bound_to 7997
  155.2424  140.0423  157.2993 H   0  0  0  0  0  0  0  0  0  0  0  0  # atno 8009 bound_to 7997
  154.5875  140.2392  155.7975 H   0  0  0  0  0  0  0  0  0  0  0  0  # atno 8010 bound_to 7997
  139.8972  143.6651  152.2601 H   0  0  0  0  0  0  0  0  0  0  0  0  # atno 10167 bound_to 10162
  157.4972  131.1093  150.9476 H   0  0  0  0  0  0  0  0  0  0  0  0  # atno 10718 bound_to 10713
  154.8755  135.3856  154.4113 H   0  0  0  0  0  0  0  0  0  0  0  0  # atno 10763 bound_to 10752
  153.4827  135.7030  153.5934 H   0  0  0  0  0  0  0  0  0  0  0  0  # atno 10764 bound_to 10752
  153.4342  135.3871  155.2157 H   0  0  0  0  0  0  0  0  0  0  0  0  # atno 10765 bound_to 10752
  140.3622  134.7103  157.4338 H   0  0  0  0  0  0  0  0  0  0  0  0  # atno 11005 bound_to 11000
  146.3520  140.1194  142.8601 LP  0  0  0  0  0  0  0  0  0  0  0  0  # atno 17320 bound_to 7965
  145.0722  140.9163  143.4875 LP  0  0  0  0  0  0  0  0  0  0  0  0  # atno 17321 bound_to 7965
  139.7057  144.7628  151.1197 LP  0  0  0  0  0  0  0  0  0  0  0  0  # atno 17342 bound_to 10162
  140.7714  143.5397  150.9326 LP  0  0  0  0  0  0  0  0  0  0  0  0  # atno 17343 bound_to 10162
  157.0159  130.5655  149.5326 LP  0  0  0  0  0  0  0  0  0  0  0  0  # atno 17370 bound_to 10713
  156.0208  130.5302  150.8268 LP  0  0  0  0  0  0  0  0  0  0  0  0  # atno 17371 bound_to 10713
  140.0618  134.5986  155.8741 LP  0  0  0  0  0  0  0  0  0  0  0  0  # atno 17394 bound_to 11000
  141.1980  133.6599  156.5772 LP  0  0  0  0  0  0  0  0  0  0  0  0  # atno 17395 bound_to 11000

$$$$
