AV-unprocessed.smi:174|AV-procd|sdf|1425|dock1
  -GOLD-   2262019193D 1   1.00000     0.00000
 Structure written by MMmdl.
 51 54  0  0  0  0  0  0  0  0  1 V2000
  147.8936  132.3129  152.4197 N   0  0  0  0  0  0  0  0  0  0  0  0
  148.3520  131.8436  153.5852 C   0  0  0  0  0  0  0  0  0  0  0  0
  149.0155  130.8112  153.6441 O   0  0  0  0  0  0  0  0  0  0  0  0
  148.0419  132.6180  154.8784 C   0  0  0  0  0  0  0  0  0  0  0  0
  148.7039  133.9292  154.9986 N   0  0  0  0  0  0  0  0  0  0  0  0
  150.1272  133.9814  154.6468 C   0  0  0  0  0  0  0  0  0  0  0  0
  150.8882  135.0231  155.4727 C   0  0  0  0  0  0  0  0  0  0  0  0
  150.2284  136.3196  155.3808 N   0  0  0  0  0  0  0  0  0  0  0  0
  150.9218  137.4595  155.6581 C   0  0  0  0  0  0  0  0  0  0  0  0
  152.2569  137.3431  155.8901 N   0  0  0  0  0  0  0  0  0  0  0  0
  152.9992  138.4156  156.1760 C   0  0  0  0  0  0  0  0  0  0  0  0
  152.6182  139.6887  156.2791 N   0  0  0  0  0  0  0  0  0  0  0  0
  151.2830  139.8224  156.0405 C   0  0  0  0  0  0  0  0  0  0  0  0
  150.3671  138.7758  155.7251 C   0  0  0  0  0  0  0  0  0  0  0  0
  149.0984  139.3181  155.5379 N   0  0  0  0  0  0  0  0  0  0  0  0
  149.2527  140.5967  155.7453 C   0  0  0  0  0  0  0  0  0  0  0  0
  150.5347  140.9852  156.0535 N   0  0  0  0  0  0  0  0  0  0  0  0
  150.9933  142.3345  156.3315 C   0  0  0  0  0  0  0  0  0  0  0  0
  151.6782  142.4477  157.7069 C   0  0  2  0  0  0  0  0  0  0  0  0
  150.9977  141.6628  158.6682 O   0  0  0  0  0  0  0  0  0  0  0  0
  151.8132  143.9066  158.1885 C   0  0  2  0  0  0  0  0  0  0  0  0
  152.5830  144.1264  159.4934 C   0  0  0  0  0  0  0  0  0  0  0  0
  152.0399  145.4683  159.9315 C   0  0  0  0  0  0  0  0  0  0  0  0
  150.5712  145.3563  159.5292 C   0  0  0  0  0  0  0  0  0  0  0  0
  150.5452  144.5335  158.3655 O   0  0  0  0  0  0  0  0  0  0  0  0
  148.7618  136.3839  155.4896 C   0  0  0  0  0  0  0  0  0  0  0  0
  148.0178  135.0414  155.3590 C   0  0  0  0  0  0  0  0  0  0  0  0
  146.8101  135.0265  155.5973 O   0  0  0  0  0  0  0  0  0  0  0  0
  148.0856  131.8079  151.5667 H   0  0  0  0  0  0  0  0  0  0  0  0
  147.3520  133.1646  152.3965 H   0  0  0  0  0  0  0  0  0  0  0  0
  146.9594  132.7328  154.9588 H   0  0  0  0  0  0  0  0  0  0  0  0
  148.3176  131.9838  155.7215 H   0  0  0  0  0  0  0  0  0  0  0  0
  150.6004  133.0080  154.7787 H   0  0  0  0  0  0  0  0  0  0  0  0
  150.2075  134.2217  153.5858 H   0  0  0  0  0  0  0  0  0  0  0  0
  150.9388  134.7146  156.5181 H   0  0  0  0  0  0  0  0  0  0  0  0
  151.9086  135.0813  155.0922 H   0  0  0  0  0  0  0  0  0  0  0  0
  154.0485  138.2256  156.3468 H   0  0  0  0  0  0  0  0  0  0  0  0
  148.4310  141.2952  155.6812 H   0  0  0  0  0  0  0  0  0  0  0  0
  151.6835  142.6298  155.5402 H   0  0  0  0  0  0  0  0  0  0  0  0
  150.1400  143.0112  156.2703 H   0  0  0  0  0  0  0  0  0  0  0  0
  152.6837  142.0325  157.6266 H   0  0  0  0  0  0  0  0  0  0  0  0
  151.2827  141.9297  159.5287 H   0  0  0  0  0  0  0  0  0  0  0  0
  152.3185  144.4771  157.4073 H   0  0  0  0  0  0  0  0  0  0  0  0
  152.3352  143.3722  160.2408 H   0  0  0  0  0  0  0  0  0  0  0  0
  153.6643  144.1264  159.3537 H   0  0  0  0  0  0  0  0  0  0  0  0
  152.1769  145.6622  160.9957 H   0  0  0  0  0  0  0  0  0  0  0  0
  152.5235  146.2702  159.3718 H   0  0  0  0  0  0  0  0  0  0  0  0
  150.0005  144.8600  160.3152 H   0  0  0  0  0  0  0  0  0  0  0  0
  150.1148  146.3287  159.3415 H   0  0  0  0  0  0  0  0  0  0  0  0
  148.4934  136.8308  156.4484 H   0  0  0  0  0  0  0  0  0  0  0  0
  148.3706  137.0397  154.7105 H   0  0  0  0  0  0  0  0  0  0  0  0
  1  2  1  0  0  0  0
  1 29  1  0  0  0  0
  1 30  1  0  0  0  0
  2  3  2  0  0  0  0
  2  4  1  0  0  0  0
  4  5  1  0  0  0  0
  4 31  1  0  0  0  0
  4 32  1  0  0  0  0
  5 27  1  0  0  0  0
  5  6  1  0  0  0  0
  6  7  1  0  0  0  0
  6 33  1  0  0  0  0
  6 34  1  0  0  0  0
  7  8  1  0  0  0  0
  7 35  1  0  0  0  0
  7 36  1  0  0  0  0
  8  9  1  0  0  0  0
  8 26  1  0  0  0  0
  9 14  1  0  0  0  0
  9 10  2  0  0  0  0
 10 11  1  0  0  0  0
 11 12  2  0  0  0  0
 11 37  1  0  0  0  0
 12 13  1  0  0  0  0
 13 17  1  0  0  0  0
 13 14  2  0  0  0  0
 14 15  1  0  0  0  0
 15 16  2  0  0  0  0
 16 17  1  0  0  0  0
 16 38  1  0  0  0  0
 17 18  1  0  0  0  0
 18 19  1  0  0  0  0
 18 39  1  0  0  0  0
 18 40  1  0  0  0  0
 19 20  1  0  0  0  0
 19 21  1  0  0  0  0
 19 41  1  0  0  0  0
 20 42  1  0  0  0  0
 21 25  1  0  0  0  0
 21 22  1  0  0  0  0
 21 43  1  0  0  0  0
 22 23  1  0  0  0  0
 22 44  1  0  0  0  0
 22 45  1  0  0  0  0
 23 24  1  0  0  0  0
 23 46  1  0  0  0  0
 23 47  1  0  0  0  0
 24 25  1  0  0  0  0
 24 48  1  0  0  0  0
 24 49  1  0  0  0  0
 26 27  1  0  0  0  0
 26 50  1  0  0  0  0
 26 51  1  0  0  0  0
 27 28  2  0  0  0  0
M  END
> <s_m_source_file>
AV-unprocessed.smi

> <i_m_source_file_index>
174

> <i_lp_mmshare_version>
43012

> <i_f3d_flags>
0

> <s_epik_input>
W05IMl1DKD1PKVtDSDJdTjFbQ0gyXVtDSDJdTihbQ0gyXUMxPU8pYyhuW2NIXW4yKWMoYzIzKW5bY0hdbjNbQ0gyXVtDQEhdKFtPSF0pW0NAQEhdNFtDSDJdW0NIMl1bQ0gyXU80

> <s_epik_cmdline>
J2VwaWtfcHl0aG9uJywgJy1waCcsICc3LjAnLCAnLXRuJywgJzgnLCAnLW1hJywgJzIwMCcsICctbWV0YWxfYmluZGluZycsICctaW1hZScsICc8aW5maWxlLm1hZT4nLCAnLW9tYWUnLCAnPG91dGZpbGUubWFlPic=

> <r_lp_tautomer_probability>
1

> <r_epik_Ionization_Penalty>
0.000250477

> <r_epik_Ionization_Penalty_Charging>
0

> <r_epik_Ionization_Penalty_Neutral>
0.000250477

> <r_epik_State_Penalty>
-0

> <r_epik_Charging_Adjusted_Penalty>
0

> <i_epik_Tot_Q>
0

> <i_epik_Tot_abs_Q>
0

> <r_epik_Metal_State_Penalty>
-0

> <b_epik_Metal_Only>
0

> <s_lp_Force_Field>
OPLS_2005

> <r_lp_Energy>
38.8972

> <b_lp_Chiralities_Consistent>
1

> <s_lp_Variant>
AV-unprocessed.smi:174-1

> <Gold.Version>
5.8.1

> <Gold.Id.Protein>
6NUR|6NUR_protein|mol2

> <Gold.PLP.Fitness>
50.1510

> <Gold.PLP.PLP>
-41.8736

> <Gold.PLP.part.hbond>
-3.0000

> <Gold.PLP.part.metal>
0.0000

> <Gold.PLP.part.buried>
-8.8072

> <Gold.PLP.part.nonpolar>
-31.9162

> <Gold.PLP.part.repulsive>
0.4574

> <Gold.PLP.ligand.clash>
0.0000

> <Gold.PLP.ligand.torsion>
0.4684

> <Gold.PLP.Chemscore.Hbond>
2.9420

> <Gold.PLP.Chemscore.CHOScore>
0.0000

> <Gold.PLP.Chemscore.Metal>
0.0000

> <Gold.Chemscore.Hbonds>
donor molecule, donor type, donor heavy atom, donor atom, acceptor molecule, acceptor atom, score
      L1  H     1    29       P1 10747  1.00
      P1  H  7997  8008       L1    12  0.40
      P1  H 10752 10764       L1    10  0.46

> <Gold.PLP.Chemscore.Internal.Correction>
0.3883

> <Gold.Rescore>
     Score         DG    S(hbond)    S(metal)    S(lipo)     H(rot)  DE(clash)    DE(int)     intcor
     11.54     -13.30       1.95        0.00      86.91       3.46       0.14       1.62       ----

> <Gold.Chemscore.Fitness>
11.5443

> <Gold.Chemscore.DG>
-13.2990

> <Gold.Chemscore.ZeroCoef>
-5.4800

> <Gold.Chemscore.Hbond>
1.9480

> <Gold.Chemscore.Metal>
0.0000

> <Gold.Chemscore.Lipo>
86.9064

> <Gold.Chemscore.Internal_Hbond>
0.0000

> <Gold.Chemscore.DEClash>
0.1377

> <Gold.Chemscore.DEInternal>
1.6170

> <Gold.Chemscore.Rot>
3.4591

> <Gold.Chemscore.Internal.Correction>
   9.000000E+99

> <Gold.Chemscore.Hbonds>
donor molecule, donor type, donor heavy atom, donor atom, acceptor molecule, acceptor atom, score
      L1  H     1    29       P1 10747  1.00
      P1  H  7997  8008       L1    12  0.01
      P1  H 10752 10764       L1    10  0.36

> <Gold.Chemscore.Hbond.Weighted>
-6.5063

> <Gold.Chemscore.Metal.Weighted>
-0.0000

> <Gold.Chemscore.Lipo.Weighted>
-10.1681

> <Gold.Chemscore.Internal_Hbond.Weighted>
0.0000

> <Gold.Chemscore.DEClash.Weighted>
0.1377

> <Gold.Chemscore.DEInternal.Weighted>
1.6170

> <Gold.Chemscore.Rot.Weighted>
8.8553

> <Gold.Chemscore.Internal.Correction.Weighted>
   9.000000E+99

> <Gold.Protein.RotatedTorsions>
[ 6907 6896 6895 6894 ] final  144.59 input  -60.11 | X-H torsion
[ 7974 7965 7964 7962 ] final -121.20 input  175.53 | X-H torsion
[ 8008 7997 7996 7995 ] final  -41.59 input   59.86 | X-H torsion
[ 10167 10162 10161 10158 ] final  128.65 input  -65.29 | X-H torsion
[ 10718 10713 10712 10709 ] final   19.88 input   66.30 | X-H torsion
[ 10763 10752 10751 10750 ] final  -39.67 input  -60.55 | X-H torsion
[ 11005 11000 10999 10996 ] final   59.54 input  -57.11 | X-H torsion

> <Gold.Protein.ActiveResidues>
 VAL166  LYS551  ARG553  GLY616  TRP617  ASP618  TYR619  PRO620  LYS621  CYS622 
 ASP623  PHE694  ASN695  SER759  ASP760  ASP761  ALA762  ILE779  LEU786  VAL792 
 PHE793  MET794  SER795  GLU796  ALA797  LYS798  CYS799  TRP800  GLU811  SER814 

> <Gold.Protein.RotatedAtoms>
  152.1917  133.4777  159.5010 H   0  0  0  0  0  0  0  0  0  0  0  0  # atno 6907 bound_to 6896
  150.6952  134.1704  159.4219 H   0  0  0  0  0  0  0  0  0  0  0  0  # atno 6908 bound_to 6896
  151.9619  135.0119  160.0599 H   0  0  0  0  0  0  0  0  0  0  0  0  # atno 6909 bound_to 6896
  145.0430  140.8159  143.4255 H   0  0  0  0  0  0  0  0  0  0  0  0  # atno 7974 bound_to 7965
  154.4003  140.1495  156.3216 H   0  0  0  0  0  0  0  0  0  0  0  0  # atno 8008 bound_to 7997
  155.8524  140.3457  155.5681 H   0  0  0  0  0  0  0  0  0  0  0  0  # atno 8009 bound_to 7997
  155.7969  140.0864  157.1969 H   0  0  0  0  0  0  0  0  0  0  0  0  # atno 8010 bound_to 7997
  139.5516  144.6817  151.4306 H   0  0  0  0  0  0  0  0  0  0  0  0  # atno 10167 bound_to 10162
  157.1167  130.6532  149.5912 H   0  0  0  0  0  0  0  0  0  0  0  0  # atno 10718 bound_to 10713
  153.9332  135.6769  153.4745 H   0  0  0  0  0  0  0  0  0  0  0  0  # atno 10763 bound_to 10752
  153.0969  135.4847  154.8792 H   0  0  0  0  0  0  0  0  0  0  0  0  # atno 10764 bound_to 10752
  154.7417  135.3162  154.8674 H   0  0  0  0  0  0  0  0  0  0  0  0  # atno 10765 bound_to 10752
  140.0296  134.6031  155.9525 H   0  0  0  0  0  0  0  0  0  0  0  0  # atno 11005 bound_to 11000
  145.1623  139.2451  143.5385 LP  0  0  0  0  0  0  0  0  0  0  0  0  # atno 17320 bound_to 7965
  146.3511  140.1354  142.8596 LP  0  0  0  0  0  0  0  0  0  0  0  0  # atno 17321 bound_to 7965
  140.6780  143.8146  150.7084 LP  0  0  0  0  0  0  0  0  0  0  0  0  # atno 17342 bound_to 10162
  140.1590  143.4291  152.2080 LP  0  0  0  0  0  0  0  0  0  0  0  0  # atno 17343 bound_to 10162
  155.9838  130.4859  150.6950 LP  0  0  0  0  0  0  0  0  0  0  0  0  # atno 17370 bound_to 10713
  157.4512  131.0873  151.0843 LP  0  0  0  0  0  0  0  0  0  0  0  0  # atno 17371 bound_to 10713
  141.1823  133.6549  156.5072 LP  0  0  0  0  0  0  0  0  0  0  0  0  # atno 17394 bound_to 11000
  140.4248  134.7155  157.4910 LP  0  0  0  0  0  0  0  0  0  0  0  0  # atno 17395 bound_to 11000

$$$$
