AV-unprocessed.smi:760|AV-procd|sdf|3629|dock3
  -GOLD-   22720 1 23D 1   1.00000     0.00000
 Structure written by MMmdl.
 43 44  0  0  0  0  0  0  0  0  1 V2000
  145.3967  130.5443  151.6261 C   0  0  0  0  0  0  0  0  0  0  0  0
  145.1454  131.6290  150.8749 C   0  0  0  0  0  0  0  0  0  0  0  0
  146.0651  132.0542  149.7442 C   0  0  0  0  0  0  0  0  0  0  0  0
  143.9347  132.5143  151.1319 C   0  0  0  0  0  0  0  0  0  0  0  0
  144.2605  133.8427  151.6568 N   0  0  0  0  0  0  0  0  0  0  0  0
  143.1069  134.5191  152.2586 C   0  0  0  0  0  0  0  0  0  0  0  0
  143.5168  135.8850  152.8374 C   0  0  0  0  0  0  0  0  0  0  0  0
  144.1468  136.7833  151.7637 C   0  0  0  0  0  0  0  0  0  0  0  0
  144.6395  138.0135  152.3756 N   0  0  0  0  0  0  0  0  0  0  0  0
  145.7162  138.1068  153.1686 C   0  0  0  0  0  0  0  0  0  0  0  0
  146.4250  137.1468  153.4720 O   0  0  0  0  0  0  0  0  0  0  0  0
  145.9093  139.3705  153.5805 N   0  0  0  0  0  0  0  0  0  0  0  0
  146.9371  139.8521  154.4302 C   0  0  0  0  0  0  0  0  0  0  0  0
  148.3268  139.7084  154.1806 C   0  0  0  0  0  0  0  0  0  0  0  0
  149.0467  140.2569  155.1475 N   0  0  0  0  0  0  0  0  0  0  0  0
  148.1382  140.7564  156.0205 N   0  0  0  0  0  0  0  0  0  0  0  0
  148.6001  141.4336  157.2132 C   0  0  0  0  0  0  0  0  0  0  0  0
  146.8387  140.5268  155.6142 C   0  0  0  0  0  0  0  0  0  0  0  0
  145.2883  136.0147  151.0780 C   0  0  0  0  0  0  0  0  0  0  0  0
  144.8015  134.6506  150.5610 C   0  0  0  0  0  0  0  0  0  0  0  0
  146.2629  129.9242  151.4471 H   0  0  0  0  0  0  0  0  0  0  0  0
  144.7365  130.2606  152.4326 H   0  0  0  0  0  0  0  0  0  0  0  0
  146.4967  133.0312  149.9630 H   0  0  0  0  0  0  0  0  0  0  0  0
  145.5284  132.1264  148.7992 H   0  0  0  0  0  0  0  0  0  0  0  0
  146.8842  131.3462  149.6128 H   0  0  0  0  0  0  0  0  0  0  0  0
  143.4059  132.6367  150.1854 H   0  0  0  0  0  0  0  0  0  0  0  0
  143.2499  131.9972  151.8060 H   0  0  0  0  0  0  0  0  0  0  0  0
  142.3147  134.6395  151.5181 H   0  0  0  0  0  0  0  0  0  0  0  0
  142.7033  133.9190  153.0730 H   0  0  0  0  0  0  0  0  0  0  0  0
  142.6449  136.3766  153.2706 H   0  0  0  0  0  0  0  0  0  0  0  0
  144.2223  135.7304  153.6555 H   0  0  0  0  0  0  0  0  0  0  0  0
  143.3815  137.0265  151.0237 H   0  0  0  0  0  0  0  0  0  0  0  0
  144.1190  138.8561  152.1808 H   0  0  0  0  0  0  0  0  0  0  0  0
  145.2500  140.0614  153.2536 H   0  0  0  0  0  0  0  0  0  0  0  0
  148.8269  139.2345  153.3488 H   0  0  0  0  0  0  0  0  0  0  0  0
  147.7522  141.8434  157.7629 H   0  0  0  0  0  0  0  0  0  0  0  0
  149.2717  142.2482  156.9398 H   0  0  0  0  0  0  0  0  0  0  0  0
  149.1318  140.7295  157.8539 H   0  0  0  0  0  0  0  0  0  0  0  0
  145.9889  140.8578  156.1926 H   0  0  0  0  0  0  0  0  0  0  0  0
  145.6900  136.5972  150.2483 H   0  0  0  0  0  0  0  0  0  0  0  0
  146.1119  135.8642  151.7778 H   0  0  0  0  0  0  0  0  0  0  0  0
  145.6389  134.1268  150.0980 H   0  0  0  0  0  0  0  0  0  0  0  0
  144.0443  134.7888  149.7875 H   0  0  0  0  0  0  0  0  0  0  0  0
  1  2  2  0  0  0  0
  1 21  1  0  0  0  0
  1 22  1  0  0  0  0
  2  3  1  0  0  0  0
  2  4  1  0  0  0  0
  3 23  1  0  0  0  0
  3 24  1  0  0  0  0
  3 25  1  0  0  0  0
  4  5  1  0  0  0  0
  4 26  1  0  0  0  0
  4 27  1  0  0  0  0
  5 20  1  0  0  0  0
  5  6  1  0  0  0  0
  6  7  1  0  0  0  0
  6 28  1  0  0  0  0
  6 29  1  0  0  0  0
  7  8  1  0  0  0  0
  7 30  1  0  0  0  0
  7 31  1  0  0  0  0
  8  9  1  0  0  0  0
  8 19  1  0  0  0  0
  8 32  1  0  0  0  0
  9 10  1  0  0  0  0
  9 33  1  0  0  0  0
 10 11  2  0  0  0  0
 10 12  1  0  0  0  0
 12 13  1  0  0  0  0
 12 34  1  0  0  0  0
 13 18  2  0  0  0  0
 13 14  1  0  0  0  0
 14 15  2  0  0  0  0
 14 35  1  0  0  0  0
 15 16  1  0  0  0  0
 16 17  1  0  0  0  0
 16 18  1  0  0  0  0
 17 36  1  0  0  0  0
 17 37  1  0  0  0  0
 17 38  1  0  0  0  0
 18 39  1  0  0  0  0
 19 20  1  0  0  0  0
 19 40  1  0  0  0  0
 19 41  1  0  0  0  0
 20 42  1  0  0  0  0
 20 43  1  0  0  0  0
M  END
> <s_m_source_file>
AV-unprocessed.smi

> <i_m_source_file_index>
760

> <i_lp_mmshare_version>
43012

> <i_f3d_flags>
0

> <s_epik_input>
W0NIMl09QyhbQ0gzXSlbQ0gyXU4xW0NIMl1bQ0gyXVtDSF0oW0NIMl1bQ0gyXTEpW05IXUMoPU8pW05IXWMyW2NIXW5uKFtDSDNdKVtjSF0y

> <s_epik_cmdline>
J2VwaWtfcHl0aG9uJywgJy1waCcsICc3LjAnLCAnLXRuJywgJzgnLCAnLW1hJywgJzIwMCcsICctbWV0YWxfYmluZGluZycsICctaW1hZScsICc8aW5maWxlLm1hZT4nLCAnLW9tYWUnLCAnPG91dGZpbGUubWFlPic=

> <r_lp_tautomer_probability>
1

> <r_epik_Ionization_Penalty>
2.03709

> <r_epik_Ionization_Penalty_Charging>
0

> <r_epik_Ionization_Penalty_Neutral>
2.03709

> <r_epik_State_Penalty>
2.16834

> <r_epik_Charging_Adjusted_Penalty>
2.16834

> <i_epik_Tot_Q>
0

> <i_epik_Tot_abs_Q>
0

> <r_epik_Metal_State_Penalty>
2.16831

> <b_epik_Metal_Only>
0

> <s_lp_Force_Field>
OPLS_2005

> <r_lp_Energy>
20.5491

> <b_lp_Chiralities_Consistent>
1

> <s_lp_Variant>
AV-unprocessed.smi:760-3

> <Gold.Version>
5.8.1

> <Gold.Id.Protein>
6NUR|6NUR_protein|mol2

> <Gold.PLP.Fitness>
38.7452

> <Gold.PLP.PLP>
-31.3924

> <Gold.PLP.part.hbond>
-3.0000

> <Gold.PLP.part.metal>
0.0000

> <Gold.PLP.part.buried>
-3.2725

> <Gold.PLP.part.nonpolar>
-25.9924

> <Gold.PLP.part.repulsive>
0.8710

> <Gold.PLP.ligand.clash>
0.0000

> <Gold.PLP.ligand.torsion>
0.8430

> <Gold.PLP.Chemscore.Hbond>
2.0000

> <Gold.PLP.Chemscore.CHOScore>
1.0000

> <Gold.PLP.Chemscore.Metal>
0.0000

> <Gold.Chemscore.Hbonds>
donor molecule, donor type, donor heavy atom, donor atom, acceptor molecule, acceptor atom, score
      L1  H     9    33       P1 10175  1.00
      L1  H    12    34       P1 10175  1.00
      L1  C    14    35       P1  7957  1.00

> <Gold.PLP.Chemscore.Internal.Correction>
0.0388

> <Gold.Rescore>
     Score         DG    S(hbond)    S(metal)    S(lipo)     H(rot)  DE(clash)    DE(int)     intcor
     15.50     -18.03       1.97        0.00      80.66       1.35       0.26       2.27       ----

> <Gold.Chemscore.Fitness>
15.5024

> <Gold.Chemscore.DG>
-18.0331

> <Gold.Chemscore.ZeroCoef>
-5.4800

> <Gold.Chemscore.Hbond>
1.9671

> <Gold.Chemscore.Metal>
0.0000

> <Gold.Chemscore.Lipo>
80.6562

> <Gold.Chemscore.Internal_Hbond>
0.0000

> <Gold.Chemscore.DEClash>
0.2622

> <Gold.Chemscore.DEInternal>
2.2685

> <Gold.Chemscore.Rot>
1.3491

> <Gold.Chemscore.Internal.Correction>
   9.000000E+99

> <Gold.Chemscore.Hbonds>
donor molecule, donor type, donor heavy atom, donor atom, acceptor molecule, acceptor atom, score
      L1  H     9    33       P1 10175  0.98
      L1  H    12    34       P1 10175  0.94

> <Gold.Chemscore.Hbond.Weighted>
-6.5702

> <Gold.Chemscore.Metal.Weighted>
-0.0000

> <Gold.Chemscore.Lipo.Weighted>
-9.4368

> <Gold.Chemscore.Internal_Hbond.Weighted>
0.0000

> <Gold.Chemscore.DEClash.Weighted>
0.2622

> <Gold.Chemscore.DEInternal.Weighted>
2.2685

> <Gold.Chemscore.Rot.Weighted>
3.4538

> <Gold.Chemscore.Internal.Correction.Weighted>
   9.000000E+99

> <Gold.Protein.RotatedTorsions>
[ 6907 6896 6895 6894 ] final  155.64 input  -60.11 | X-H torsion
[ 7974 7965 7964 7962 ] final   -8.02 input  175.53 | X-H torsion
[ 8008 7997 7996 7995 ] final -102.23 input   59.86 | X-H torsion
[ 10167 10162 10161 10158 ] final -100.24 input  -65.29 | X-H torsion
[ 10718 10713 10712 10709 ] final   69.07 input   66.30 | X-H torsion
[ 10763 10752 10751 10750 ] final   44.33 input  -60.55 | X-H torsion
[ 11005 11000 10999 10996 ] final   94.37 input  -57.11 | X-H torsion

> <Gold.Protein.ActiveResidues>
 VAL166  LYS551  ARG553  GLY616  TRP617  ASP618  TYR619  PRO620  LYS621  CYS622 
 ASP623  PHE694  ASN695  SER759  ASP760  ASP761  ALA762  ILE779  LEU786  VAL792 
 PHE793  MET794  SER795  GLU796  ALA797  LYS798  CYS799  TRP800  GLU811  SER814 

> <Gold.Protein.RotatedAtoms>
  152.0413  133.3978  159.4337 H   0  0  0  0  0  0  0  0  0  0  0  0  # atno 6907 bound_to 6896
  150.6875  134.3412  159.4878 H   0  0  0  0  0  0  0  0  0  0  0  0  # atno 6908 bound_to 6896
  152.1210  134.9205  160.0613 H   0  0  0  0  0  0  0  0  0  0  0  0  # atno 6909 bound_to 6896
  146.2291  140.2406  142.8343 H   0  0  0  0  0  0  0  0  0  0  0  0  # atno 7974 bound_to 7965
  154.8538  140.0429  157.1621 H   0  0  0  0  0  0  0  0  0  0  0  0  # atno 8008 bound_to 7997
  154.8914  140.2987  155.5348 H   0  0  0  0  0  0  0  0  0  0  0  0  # atno 8009 bound_to 7997
  156.2997  140.2393  156.3930 H   0  0  0  0  0  0  0  0  0  0  0  0  # atno 8010 bound_to 7997
  140.2540  143.3453  152.0688 H   0  0  0  0  0  0  0  0  0  0  0  0  # atno 10167 bound_to 10162
  157.6325  130.9406  150.0463 H   0  0  0  0  0  0  0  0  0  0  0  0  # atno 10718 bound_to 10713
  152.9843  135.6074  154.3256 H   0  0  0  0  0  0  0  0  0  0  0  0  # atno 10763 bound_to 10752
  154.2963  135.2774  155.2633 H   0  0  0  0  0  0  0  0  0  0  0  0  # atno 10764 bound_to 10752
  154.4906  135.5893  153.6513 H   0  0  0  0  0  0  0  0  0  0  0  0  # atno 10765 bound_to 10752
  139.8799  134.8841  156.3854 H   0  0  0  0  0  0  0  0  0  0  0  0  # atno 11005 bound_to 11000
  144.9487  140.8156  143.5585 LP  0  0  0  0  0  0  0  0  0  0  0  0  # atno 17320 bound_to 7965
  145.2365  139.2091  143.5015 LP  0  0  0  0  0  0  0  0  0  0  0  0  # atno 17321 bound_to 7965
  139.5037  144.6761  151.6124 LP  0  0  0  0  0  0  0  0  0  0  0  0  # atno 17342 bound_to 10162
  140.6018  143.9595  150.6392 LP  0  0  0  0  0  0  0  0  0  0  0  0  # atno 17343 bound_to 10162
  156.1539  130.3643  149.9398 LP  0  0  0  0  0  0  0  0  0  0  0  0  # atno 17370 bound_to 10713
  156.7411  130.9080  151.3632 LP  0  0  0  0  0  0  0  0  0  0  0  0  # atno 17371 bound_to 10713
  140.9370  133.7540  156.0097 LP  0  0  0  0  0  0  0  0  0  0  0  0  # atno 17394 bound_to 11000
  140.8264  134.3229  157.5364 LP  0  0  0  0  0  0  0  0  0  0  0  0  # atno 17395 bound_to 11000

$$$$
