AV-unprocessed.smi:56|AV-procd|sdf|579|dock2
  -GOLD-   2262016483D 1   1.00000     0.00000
 Structure written by MMmdl.
 23 24  0  0  0  0  0  0  0  0  2 V2000
  149.1945  141.4804  153.5344 O   0  0  0  0  0  0  0  0  0  0  0  0
  148.9840  140.4667  154.5030 C   0  0  1  0  0  0  0  0  0  0  0  0
  149.5119  140.9136  155.8353 C   0  0  0  0  0  0  0  0  0  0  0  0
  150.7554  141.3172  156.2402 C   0  0  0  0  0  0  0  0  0  0  0  0
  150.5966  141.6116  157.6252 C   0  0  0  0  0  0  0  0  0  0  0  0
  149.3616  141.4098  158.0533 N   0  0  0  0  0  0  0  0  0  0  0  0
  148.7112  140.9826  156.9554 N   0  0  0  0  0  0  0  0  0  0  0  0
  147.5001  140.0812  154.4771 C   0  0  0  0  0  0  0  0  0  0  0  0
  147.3667  139.1567  153.2590 C   0  0  0  0  0  0  0  0  0  0  0  0
  148.7142  138.6103  152.9969 N   0  3  0  0  0  0  0  0  0  0  0  0
  149.6432  139.1780  153.9928 C   0  0  0  0  0  0  0  0  0  0  0  0
  147.7322  140.7352  156.9850 H   0  0  0  0  0  0  0  0  0  0  0  0
  149.4883  141.0823  152.7298 H   0  0  0  0  0  0  0  0  0  0  0  0
  151.6506  141.3920  155.6410 H   0  0  0  0  0  0  0  0  0  0  0  0
  151.3387  141.9632  158.3269 H   0  0  0  0  0  0  0  0  0  0  0  0
  147.2529  139.5014  155.3676 H   0  0  0  0  0  0  0  0  0  0  0  0
  146.8257  140.9384  154.4498 H   0  0  0  0  0  0  0  0  0  0  0  0
  146.6438  138.3586  153.4302 H   0  0  0  0  0  0  0  0  0  0  0  0
  147.0444  139.7197  152.3826 H   0  0  0  0  0  0  0  0  0  0  0  0
  148.7128  137.6018  153.0549 H   0  0  0  0  0  0  0  0  0  0  0  0
  150.6440  139.3302  153.5865 H   0  0  0  0  0  0  0  0  0  0  0  0
  149.7246  138.4558  154.8066 H   0  0  0  0  0  0  0  0  0  0  0  0
  149.0037  138.8965  152.0725 H   0  0  0  0  0  0  0  0  0  0  0  0
  1  2  1  0  0  0  0
  1 13  1  0  0  0  0
  2 11  1  0  0  0  0
  2  3  1  0  0  0  0
  2  8  1  0  0  0  0
  3  7  1  0  0  0  0
  3  4  2  0  0  0  0
  4  5  1  0  0  0  0
  4 14  1  0  0  0  0
  5  6  2  0  0  0  0
  5 15  1  0  0  0  0
  6  7  1  0  0  0  0
  7 12  1  0  0  0  0
  8  9  1  0  0  0  0
  8 16  1  0  0  0  0
  8 17  1  0  0  0  0
  9 10  1  0  0  0  0
  9 18  1  0  0  0  0
  9 19  1  0  0  0  0
 10 11  1  0  0  0  0
 10 20  1  0  0  0  0
 10 23  1  0  0  0  0
 11 21  1  0  0  0  0
 11 22  1  0  0  0  0
M  CHG  1  10   1
M  END
> <s_m_source_file>
AV-unprocessed.smi

> <i_m_source_file_index>
56

> <i_lp_mmshare_version>
43012

> <i_f3d_flags>
0

> <s_epik_input>
W0NIMl0xW05IXVtDSDJdW0NIMl1bQ0BAXTEoW09IXSljMltjSF1bY0hdbltuSF0y

> <s_epik_cmdline>
J2VwaWtfcHl0aG9uJywgJy1waCcsICc3LjAnLCAnLXRuJywgJzgnLCAnLW1hJywgJzIwMCcsICctbWV0YWxfYmluZGluZycsICctaW1hZScsICc8aW5maWxlLm1hZT4nLCAnLW9tYWUnLCAnPG91dGZpbGUubWFlPic=

> <r_lp_tautomer_probability>
0.5

> <r_epik_Ionization_Penalty>
0.00599842

> <r_epik_Ionization_Penalty_Charging>
0.00599115

> <r_epik_Ionization_Penalty_Neutral>
7.26593e-06

> <r_epik_State_Penalty>
0.41068

> <r_epik_Charging_Adjusted_Penalty>
0.416671

> <i_epik_Tot_Q>
1

> <i_epik_Tot_abs_Q>
1

> <r_epik_Metal_State_Penalty>
0.410678

> <b_epik_Metal_Only>
0

> <s_lp_Force_Field>
OPLS_2005

> <r_lp_Energy>
26.3948

> <b_lp_Chiralities_Consistent>
1

> <s_lp_Variant>
AV-unprocessed.smi:56-3

> <Gold.Version>
5.8.1

> <Gold.Id.Protein>
6NUR|6NUR_protein|mol2

> <Gold.PLP.Fitness>
29.2422

> <Gold.PLP.PLP>
-19.1523

> <Gold.PLP.part.hbond>
-4.7642

> <Gold.PLP.part.metal>
0.0000

> <Gold.PLP.part.buried>
-0.3956

> <Gold.PLP.part.nonpolar>
-13.6932

> <Gold.PLP.part.repulsive>
0.1763

> <Gold.PLP.ligand.clash>
0.0000

> <Gold.PLP.ligand.torsion>
0.0144

> <Gold.PLP.Chemscore.Hbond>
3.3680

> <Gold.PLP.Chemscore.CHOScore>
0.0000

> <Gold.PLP.Chemscore.Metal>
0.0000

> <Gold.Chemscore.Hbonds>
donor molecule, donor type, donor heavy atom, donor atom, acceptor molecule, acceptor atom, score
      L1  H     1    13       P1  7957  1.00
      L1  H    10    20       P1  7948  1.38
      L1  H    10    23       P1  7957  0.98

> <Gold.PLP.Chemscore.Internal.Correction>
0.0147

> <Gold.Rescore>
     Score         DG    S(hbond)    S(metal)    S(lipo)     H(rot)  DE(clash)    DE(int)     intcor
     15.04     -15.11       2.53        0.00      42.84       1.50       0.06       0.01       ----

> <Gold.Chemscore.Fitness>
15.0427

> <Gold.Chemscore.DG>
-15.1143

> <Gold.Chemscore.ZeroCoef>
-5.4800

> <Gold.Chemscore.Hbond>
2.5325

> <Gold.Chemscore.Metal>
0.0000

> <Gold.Chemscore.Lipo>
42.8371

> <Gold.Chemscore.Internal_Hbond>
0.0000

> <Gold.Chemscore.DEClash>
0.0597

> <Gold.Chemscore.DEInternal>
0.0119

> <Gold.Chemscore.Rot>
1.4985

> <Gold.Chemscore.Internal.Correction>
   9.000000E+99

> <Gold.Chemscore.Hbonds>
donor molecule, donor type, donor heavy atom, donor atom, acceptor molecule, acceptor atom, score
      L1  H     1    13       P1  7957  1.00
      L1  H    10    20       P1  7948  0.68
      L1  H    10    23       P1  7957  0.74

> <Gold.Chemscore.Hbond.Weighted>
-8.4586

> <Gold.Chemscore.Metal.Weighted>
-0.0000

> <Gold.Chemscore.Lipo.Weighted>
-5.0119

> <Gold.Chemscore.Internal_Hbond.Weighted>
0.0000

> <Gold.Chemscore.DEClash.Weighted>
0.0597

> <Gold.Chemscore.DEInternal.Weighted>
0.0119

> <Gold.Chemscore.Rot.Weighted>
3.8362

> <Gold.Chemscore.Internal.Correction.Weighted>
   9.000000E+99

> <Gold.Protein.RotatedTorsions>
[ 6907 6896 6895 6894 ] final -155.44 input  -60.11 | X-H torsion
[ 7974 7965 7964 7962 ] final  173.11 input  175.53 | X-H torsion
[ 8008 7997 7996 7995 ] final  116.56 input   59.86 | X-H torsion
[ 10167 10162 10161 10158 ] final -140.71 input  -65.29 | X-H torsion
[ 10718 10713 10712 10709 ] final  -63.23 input   66.30 | X-H torsion
[ 10763 10752 10751 10750 ] final  123.24 input  -60.55 | X-H torsion
[ 11005 11000 10999 10996 ] final  -61.90 input  -57.11 | X-H torsion

> <Gold.Protein.ActiveResidues>
 VAL166  LYS551  ARG553  GLY616  TRP617  ASP618  TYR619  PRO620  LYS621  CYS622 
 ASP623  PHE694  ASN695  SER759  ASP760  ASP761  ALA762  ILE779  LEU786  VAL792 
 PHE793  MET794  SER795  GLU796  ALA797  LYS798  CYS799  TRP800  GLU811  SER814 

> <Gold.Protein.RotatedAtoms>
  151.2725  133.4248  159.2621 H   0  0  0  0  0  0  0  0  0  0  0  0  # atno 6907 bound_to 6896
  151.0432  134.9622  159.8183 H   0  0  0  0  0  0  0  0  0  0  0  0  # atno 6908 bound_to 6896
  152.5369  134.2682  159.9014 H   0  0  0  0  0  0  0  0  0  0  0  0  # atno 6909 bound_to 6896
  144.7251  139.9599  143.6434 H   0  0  0  0  0  0  0  0  0  0  0  0  # atno 7974 bound_to 7965
  156.2446  140.2915  156.0543 H   0  0  0  0  0  0  0  0  0  0  0  0  # atno 8008 bound_to 7997
  155.1847  140.0405  157.2906 H   0  0  0  0  0  0  0  0  0  0  0  0  # atno 8009 bound_to 7997
  154.6236  140.2482  155.7526 H   0  0  0  0  0  0  0  0  0  0  0  0  # atno 8010 bound_to 7997
  139.8255  143.7517  152.2666 H   0  0  0  0  0  0  0  0  0  0  0  0  # atno 10167 bound_to 10162
  156.0804  130.4218  150.1247 H   0  0  0  0  0  0  0  0  0  0  0  0  # atno 10718 bound_to 10713
  153.6425  135.3377  155.3075 H   0  0  0  0  0  0  0  0  0  0  0  0  # atno 10763 bound_to 10752
  154.8556  135.4321  154.1990 H   0  0  0  0  0  0  0  0  0  0  0  0  # atno 10764 bound_to 10752
  153.2912  135.7017  153.7365 H   0  0  0  0  0  0  0  0  0  0  0  0  # atno 10765 bound_to 10752
  141.1341  133.6634  156.5446 H   0  0  0  0  0  0  0  0  0  0  0  0  # atno 11005 bound_to 11000
  146.0646  139.3637  143.0560 LP  0  0  0  0  0  0  0  0  0  0  0  0  # atno 17320 bound_to 7965
  145.8048  140.9754  143.0980 LP  0  0  0  0  0  0  0  0  0  0  0  0  # atno 17321 bound_to 7965
  139.7708  144.7477  151.0227 LP  0  0  0  0  0  0  0  0  0  0  0  0  # atno 17342 bound_to 10162
  140.7810  143.4647  151.0228 LP  0  0  0  0  0  0  0  0  0  0  0  0  # atno 17343 bound_to 10162
  156.9279  130.9704  151.3538 LP  0  0  0  0  0  0  0  0  0  0  0  0  # atno 17370 bound_to 10713
  157.5919  130.8450  149.8671 LP  0  0  0  0  0  0  0  0  0  0  0  0  # atno 17371 bound_to 10713
  140.4112  134.7270  157.4837 LP  0  0  0  0  0  0  0  0  0  0  0  0  # atno 17394 bound_to 11000
  140.0426  134.6246  155.8962 LP  0  0  0  0  0  0  0  0  0  0  0  0  # atno 17395 bound_to 11000

$$$$
