AV-unprocessed.smi:3342|AV-procd|sdf|12889|dock4
  -GOLD-   2272019293D 1   1.00000     0.00000
 Structure written by MMmdl.
 41 42  0  0  0  0  0  0  0  0  1 V2000
  152.6931  140.6839  158.4738 C   0  0  0  0  0  0  0  0  0  0  0  0
  152.9015  141.2289  159.8963 C   0  0  2  0  0  0  0  0  0  0  0  0
  153.6230  142.5940  159.9245 C   0  0  0  0  0  0  0  0  0  0  0  0
  152.8543  143.6490  159.2919 N   0  0  0  0  0  0  0  0  0  0  0  0
  152.4236  143.6938  157.9727 C   0  0  0  0  0  0  0  0  0  0  0  0
  151.7330  144.8754  157.8245 C   0  0  0  0  0  0  0  0  0  0  0  0
  151.7219  145.5670  159.0337 N   0  0  0  0  0  0  0  0  0  0  0  0
  152.4019  144.7777  159.8555 C   0  0  0  0  0  0  0  0  0  0  0  0
  153.6518  140.2491  160.6760 N   0  0  0  0  0  0  0  0  0  0  0  0
  154.7843  139.6375  160.2879 C   0  0  0  0  0  0  0  0  0  0  0  0
  155.3172  139.8746  159.2027 O   0  0  0  0  0  0  0  0  0  0  0  0
  155.2945  138.7631  161.1919 N   0  0  0  0  0  0  0  0  0  0  0  0
  154.5713  138.1585  162.3234 C   0  0  0  0  0  0  0  0  0  0  0  0
  154.2419  136.6963  161.9725 C   0  0  0  0  0  0  0  0  0  0  0  0
  155.5247  135.9023  161.6287 C   0  0  0  0  0  0  0  0  0  0  0  0
  155.1824  134.4877  161.1429 C   0  0  0  0  0  0  0  0  0  0  0  0
  155.5756  133.4686  161.9111 N   0  0  0  0  0  0  0  0  0  0  0  0
  154.5713  134.3143  160.0900 O   0  0  0  0  0  0  0  0  0  0  0  0
  156.3788  136.6577  160.5827 C   0  0  0  0  0  0  0  0  0  0  0  0
  156.6015  138.1230  160.9999 C   0  0  0  0  0  0  0  0  0  0  0  0
  152.0572  141.3427  157.8821 H   0  0  0  0  0  0  0  0  0  0  0  0
  152.2111  139.7061  158.4954 H   0  0  0  0  0  0  0  0  0  0  0  0
  153.6424  140.5761  157.9480 H   0  0  0  0  0  0  0  0  0  0  0  0
  151.9141  141.3472  160.3464 H   0  0  0  0  0  0  0  0  0  0  0  0
  153.8273  142.8981  160.9522 H   0  0  0  0  0  0  0  0  0  0  0  0
  154.5897  142.5213  159.4236 H   0  0  0  0  0  0  0  0  0  0  0  0
  152.6407  142.9043  157.2682 H   0  0  0  0  0  0  0  0  0  0  0  0
  151.2464  145.2775  156.9482 H   0  0  0  0  0  0  0  0  0  0  0  0
  152.5794  145.0294  160.8909 H   0  0  0  0  0  0  0  0  0  0  0  0
  153.2792  140.0108  161.5834 H   0  0  0  0  0  0  0  0  0  0  0  0
  155.2032  138.1934  163.2122 H   0  0  0  0  0  0  0  0  0  0  0  0
  153.6592  138.6867  162.6010 H   0  0  0  0  0  0  0  0  0  0  0  0
  153.7255  136.2255  162.8101 H   0  0  0  0  0  0  0  0  0  0  0  0
  153.5458  136.6795  161.1320 H   0  0  0  0  0  0  0  0  0  0  0  0
  156.1171  135.8205  162.5420 H   0  0  0  0  0  0  0  0  0  0  0  0
  155.3733  132.5193  161.6331 H   0  0  0  0  0  0  0  0  0  0  0  0
  156.0750  133.6524  162.7692 H   0  0  0  0  0  0  0  0  0  0  0  0
  157.3423  136.1621  160.4577 H   0  0  0  0  0  0  0  0  0  0  0  0
  155.8922  136.6356  159.6061 H   0  0  0  0  0  0  0  0  0  0  0  0
  157.2159  138.6337  160.2569 H   0  0  0  0  0  0  0  0  0  0  0  0
  157.1690  138.1676  161.9306 H   0  0  0  0  0  0  0  0  0  0  0  0
  1  2  1  0  0  0  0
  1 21  1  0  0  0  0
  1 22  1  0  0  0  0
  1 23  1  0  0  0  0
  2  3  1  0  0  0  0
  2  9  1  0  0  0  0
  2 24  1  0  0  0  0
  3  4  1  0  0  0  0
  3 25  1  0  0  0  0
  3 26  1  0  0  0  0
  4  8  1  0  0  0  0
  4  5  1  0  0  0  0
  5  6  2  0  0  0  0
  5 27  1  0  0  0  0
  6  7  1  0  0  0  0
  6 28  1  0  0  0  0
  7  8  2  0  0  0  0
  8 29  1  0  0  0  0
  9 10  1  0  0  0  0
  9 30  1  0  0  0  0
 10 11  2  0  0  0  0
 10 12  1  0  0  0  0
 12 20  1  0  0  0  0
 12 13  1  0  0  0  0
 13 14  1  0  0  0  0
 13 31  1  0  0  0  0
 13 32  1  0  0  0  0
 14 15  1  0  0  0  0
 14 33  1  0  0  0  0
 14 34  1  0  0  0  0
 15 16  1  0  0  0  0
 15 19  1  0  0  0  0
 15 35  1  0  0  0  0
 16 17  1  0  0  0  0
 16 18  2  0  0  0  0
 17 36  1  0  0  0  0
 17 37  1  0  0  0  0
 19 20  1  0  0  0  0
 19 38  1  0  0  0  0
 19 39  1  0  0  0  0
 20 40  1  0  0  0  0
 20 41  1  0  0  0  0
M  END
> <s_m_source_file>
AV-unprocessed.smi

> <i_m_source_file_index>
3342

> <i_lp_mmshare_version>
43012

> <i_f3d_flags>
0

> <s_epik_input>
W2NIXTFuW2NIXVtjSF1uMVtDSDJdW0NAQEhdKFtDSDNdKVtOSF1DKD1PKU4yW0NIMl1bQ0gyXVtDSF0oQyg9TylbTkgyXSlbQ0gyXVtDSDJdMg==

> <s_epik_cmdline>
J2VwaWtfcHl0aG9uJywgJy1waCcsICc3LjAnLCAnLXRuJywgJzgnLCAnLW1hJywgJzIwMCcsICctbWV0YWxfYmluZGluZycsICctaW1hZScsICc8aW5maWxlLm1hZT4nLCAnLW9tYWUnLCAnPG91dGZpbGUubWFlPic=

> <r_lp_tautomer_probability>
1

> <r_epik_Ionization_Penalty>
0.624431

> <r_epik_Ionization_Penalty_Charging>
0.624374

> <r_epik_Ionization_Penalty_Neutral>
5.67186e-05

> <r_epik_State_Penalty>
0.640677

> <r_epik_Charging_Adjusted_Penalty>
1.26505

> <i_epik_Tot_Q>
0

> <i_epik_Tot_abs_Q>
0

> <r_epik_Metal_State_Penalty>
0.307574

> <b_epik_Metal_Only>
0

> <s_lp_Force_Field>
OPLS_2005

> <r_lp_Energy>
29.2273

> <b_lp_Chiralities_Consistent>
1

> <s_lp_Variant>
AV-unprocessed.smi:3342-3

> <Gold.Version>
5.8.1

> <Gold.Id.Protein>
6NUR|6NUR_protein|mol2

> <Gold.PLP.Fitness>
44.0983

> <Gold.PLP.PLP>
-35.5747

> <Gold.PLP.part.hbond>
-2.7546

> <Gold.PLP.part.metal>
0.0000

> <Gold.PLP.part.buried>
-4.5586

> <Gold.PLP.part.nonpolar>
-27.6766

> <Gold.PLP.part.repulsive>
0.2274

> <Gold.PLP.ligand.clash>
0.0000

> <Gold.PLP.ligand.torsion>
0.2823

> <Gold.PLP.Chemscore.Hbond>
2.0000

> <Gold.PLP.Chemscore.CHOScore>
1.0000

> <Gold.PLP.Chemscore.Metal>
0.0000

> <Gold.Chemscore.Hbonds>
donor molecule, donor type, donor heavy atom, donor atom, acceptor molecule, acceptor atom, score
      P1  H  6896  6909       L1    18  1.00
      P1  H  7997  8009       L1    11  1.00
      L1  C     6    28       P1  8028  0.60

> <Gold.PLP.Chemscore.Internal.Correction>
0.0883

> <Gold.Rescore>
     Score         DG    S(hbond)    S(metal)    S(lipo)     H(rot)  DE(clash)    DE(int)     intcor
     13.25     -14.54       1.98        0.00      70.78       2.28       0.15       1.14       ----

> <Gold.Chemscore.Fitness>
13.2536

> <Gold.Chemscore.DG>
-14.5415

> <Gold.Chemscore.ZeroCoef>
-5.4800

> <Gold.Chemscore.Hbond>
1.9778

> <Gold.Chemscore.Metal>
0.0000

> <Gold.Chemscore.Lipo>
70.7836

> <Gold.Chemscore.Internal_Hbond>
0.0000

> <Gold.Chemscore.DEClash>
0.1495

> <Gold.Chemscore.DEInternal>
1.1384

> <Gold.Chemscore.Rot>
2.2757

> <Gold.Chemscore.Internal.Correction>
   9.000000E+99

> <Gold.Chemscore.Hbonds>
donor molecule, donor type, donor heavy atom, donor atom, acceptor molecule, acceptor atom, score
      P1  H  6896  6909       L1    18  0.97
      P1  H  7997  8009       L1    11  0.99

> <Gold.Chemscore.Hbond.Weighted>
-6.6057

> <Gold.Chemscore.Metal.Weighted>
-0.0000

> <Gold.Chemscore.Lipo.Weighted>
-8.2817

> <Gold.Chemscore.Internal_Hbond.Weighted>
0.0000

> <Gold.Chemscore.DEClash.Weighted>
0.1495

> <Gold.Chemscore.DEInternal.Weighted>
1.1384

> <Gold.Chemscore.Rot.Weighted>
5.8259

> <Gold.Chemscore.Internal.Correction.Weighted>
   9.000000E+99

> <Gold.Protein.RotatedTorsions>
[ 6907 6896 6895 6894 ] final -160.91 input  -60.11 | X-H torsion
[ 7974 7965 7964 7962 ] final  -29.70 input  175.53 | X-H torsion
[ 8008 7997 7996 7995 ] final  101.99 input   59.86 | X-H torsion
[ 10167 10162 10161 10158 ] final  -78.42 input  -65.29 | X-H torsion
[ 10718 10713 10712 10709 ] final   88.55 input   66.30 | X-H torsion
[ 10763 10752 10751 10750 ] final  130.97 input  -60.55 | X-H torsion
[ 11005 11000 10999 10996 ] final  174.02 input  -57.11 | X-H torsion

> <Gold.Protein.ActiveResidues>
 VAL166  LYS551  ARG553  GLY616  TRP617  ASP618  TYR619  PRO620  LYS621  CYS622 
 ASP623  PHE694  ASN695  SER759  ASP760  ASP761  ALA762  ILE779  LEU786  VAL792 
 PHE793  MET794  SER795  GLU796  ALA797  LYS798  CYS799  TRP800  GLU811  SER814 

> <Gold.Protein.RotatedAtoms>
  151.3565  133.3905  159.2685 H   0  0  0  0  0  0  0  0  0  0  0  0  # atno 6907 bound_to 6896
  150.9759  134.9125  159.7826 H   0  0  0  0  0  0  0  0  0  0  0  0  # atno 6908 bound_to 6896
  152.5201  134.3528  159.9309 H   0  0  0  0  0  0  0  0  0  0  0  0  # atno 6909 bound_to 6896
  146.1197  140.5446  142.8741 H   0  0  0  0  0  0  0  0  0  0  0  0  # atno 7974 bound_to 7965
  156.1351  140.3188  155.8408 H   0  0  0  0  0  0  0  0  0  0  0  0  # atno 8008 bound_to 7997
  155.4260  140.0515  157.3039 H   0  0  0  0  0  0  0  0  0  0  0  0  # atno 8009 bound_to 7997
  154.4930  140.2100  155.9520 H   0  0  0  0  0  0  0  0  0  0  0  0  # atno 8010 bound_to 7997
  140.4684  143.2433  151.8243 H   0  0  0  0  0  0  0  0  0  0  0  0  # atno 10167 bound_to 10162
  157.6950  131.0299  150.3292 H   0  0  0  0  0  0  0  0  0  0  0  0  # atno 10718 bound_to 10713
  153.7667  135.3188  155.3345 H   0  0  0  0  0  0  0  0  0  0  0  0  # atno 10763 bound_to 10752
  154.8211  135.4603  154.0784 H   0  0  0  0  0  0  0  0  0  0  0  0  # atno 10764 bound_to 10752
  153.2031  135.6925  153.8290 H   0  0  0  0  0  0  0  0  0  0  0  0  # atno 10765 bound_to 10752
  140.3468  134.7229  157.4240 H   0  0  0  0  0  0  0  0  0  0  0  0  # atno 11005 bound_to 11000
  144.7586  140.5367  143.6751 LP  0  0  0  0  0  0  0  0  0  0  0  0  # atno 17320 bound_to 7965
  145.5492  139.1476  143.3404 LP  0  0  0  0  0  0  0  0  0  0  0  0  # atno 17321 bound_to 7965
  139.4815  144.4923  151.9169 LP  0  0  0  0  0  0  0  0  0  0  0  0  # atno 17342 bound_to 10162
  140.4008  144.2496  150.5893 LP  0  0  0  0  0  0  0  0  0  0  0  0  # atno 17343 bound_to 10162
  156.3768  130.3873  149.7132 LP  0  0  0  0  0  0  0  0  0  0  0  0  # atno 17370 bound_to 10713
  156.4528  130.7915  151.2936 LP  0  0  0  0  0  0  0  0  0  0  0  0  # atno 17371 bound_to 10713
  140.0736  134.5828  155.8615 LP  0  0  0  0  0  0  0  0  0  0  0  0  # atno 17394 bound_to 11000
  141.2023  133.6624  156.6000 LP  0  0  0  0  0  0  0  0  0  0  0  0  # atno 17395 bound_to 11000

$$$$
