AV-unprocessed.smi:3303|AV-procd|sdf|12682|dock6
  -GOLD-   2272019 13D 1   1.00000     0.00000
 Structure written by MMmdl.
 44 45  0  0  0  0  0  0  0  0  2 V2000
  150.4915  142.1108  156.1532 C   0  0  0  0  0  0  0  0  0  0  0  0
  149.4683  140.9556  156.1638 C   0  0  1  0  0  0  0  0  0  0  0  0
  148.1538  141.3759  156.8477 C   0  0  0  0  0  0  0  0  0  0  0  0
  147.3776  142.3468  156.0302 N   0  3  2  0  0  0  0  0  0  0  0  0
  146.2001  142.8448  156.7819 C   0  0  0  0  0  0  0  0  0  0  0  0
  147.0509  141.8114  154.6733 C   0  0  1  0  0  0  0  0  0  0  0  0
  146.2853  142.8273  153.8034 C   0  0  0  0  0  0  0  0  0  0  0  0
  148.3355  141.3716  153.9396 C   0  0  0  0  0  0  0  0  0  0  0  0
  149.1500  140.3662  154.7683 C   0  0  1  0  0  0  0  0  0  0  0  0
  150.3425  139.9864  154.0180 N   0  0  0  0  0  0  0  0  0  0  0  0
  151.1086  138.9520  154.6984 C   0  0  0  0  0  0  0  0  0  0  0  0
  152.1772  139.6007  155.5884 C   0  0  0  0  0  0  0  0  0  0  0  0
  152.5008  138.7467  156.7997 C   0  0  0  0  0  0  0  0  0  0  0  0
  151.4844  138.3462  157.6929 C   0  0  0  0  0  0  0  0  0  0  0  0
  151.8382  137.5453  158.7961 C   0  0  0  0  0  0  0  0  0  0  0  0
  153.1870  137.1766  158.9622 C   0  0  0  0  0  0  0  0  0  0  0  0
  154.1262  137.6273  158.0135 C   0  0  0  0  0  0  0  0  0  0  0  0
  153.7977  138.3954  156.9522 N   0  0  0  0  0  0  0  0  0  0  0  0
  150.1402  142.9659  155.5762 H   0  0  0  0  0  0  0  0  0  0  0  0
  151.4462  141.7959  155.7314 H   0  0  0  0  0  0  0  0  0  0  0  0
  150.6906  142.4610  157.1662 H   0  0  0  0  0  0  0  0  0  0  0  0
  149.8967  140.1649  156.7801 H   0  0  0  0  0  0  0  0  0  0  0  0
  147.5368  140.4949  157.0331 H   0  0  0  0  0  0  0  0  0  0  0  0
  148.3761  141.8078  157.8247 H   0  0  0  0  0  0  0  0  0  0  0  0
  145.4415  142.0671  156.8803 H   0  0  0  0  0  0  0  0  0  0  0  0
  145.7505  143.7106  156.2970 H   0  0  0  0  0  0  0  0  0  0  0  0
  146.4877  143.1648  157.7839 H   0  0  0  0  0  0  0  0  0  0  0  0
  146.4155  140.9336  154.8039 H   0  0  0  0  0  0  0  0  0  0  0  0
  146.1435  142.4438  152.7923 H   0  0  0  0  0  0  0  0  0  0  0  0
  146.8259  143.7710  153.7240 H   0  0  0  0  0  0  0  0  0  0  0  0
  145.2906  143.0376  154.1957 H   0  0  0  0  0  0  0  0  0  0  0  0
  148.0699  140.9203  152.9823 H   0  0  0  0  0  0  0  0  0  0  0  0
  148.9431  142.2458  153.7014 H   0  0  0  0  0  0  0  0  0  0  0  0
  148.5337  139.4745  154.8955 H   0  0  0  0  0  0  0  0  0  0  0  0
  150.0665  139.6374  153.1108 H   0  0  0  0  0  0  0  0  0  0  0  0
  150.4514  138.3336  155.3096 H   0  0  0  0  0  0  0  0  0  0  0  0
  151.5840  138.3021  153.9627 H   0  0  0  0  0  0  0  0  0  0  0  0
  153.0934  139.7655  155.0192 H   0  0  0  0  0  0  0  0  0  0  0  0
  151.8411  140.5836  155.9223 H   0  0  0  0  0  0  0  0  0  0  0  0
  150.4572  138.6424  157.5373 H   0  0  0  0  0  0  0  0  0  0  0  0
  151.0885  137.2184  159.5012 H   0  0  0  0  0  0  0  0  0  0  0  0
  153.4948  136.5623  159.7953 H   0  0  0  0  0  0  0  0  0  0  0  0
  155.1690  137.3630  158.1090 H   0  0  0  0  0  0  0  0  0  0  0  0
  147.9829  143.1428  155.8883 H   0  0  0  0  0  0  0  0  0  0  0  0
  1  2  1  0  0  0  0
  1 19  1  0  0  0  0
  1 20  1  0  0  0  0
  1 21  1  0  0  0  0
  2  9  1  0  0  0  0
  2  3  1  0  0  0  0
  2 22  1  0  0  0  0
  3  4  1  0  0  0  0
  3 23  1  0  0  0  0
  3 24  1  0  0  0  0
  4  5  1  0  0  0  0
  4  6  1  0  0  0  0
  4 44  1  0  0  0  0
  5 25  1  0  0  0  0
  5 26  1  0  0  0  0
  5 27  1  0  0  0  0
  6  7  1  0  0  0  0
  6  8  1  0  0  0  0
  6 28  1  0  0  0  0
  7 29  1  0  0  0  0
  7 30  1  0  0  0  0
  7 31  1  0  0  0  0
  8  9  1  0  0  0  0
  8 32  1  0  0  0  0
  8 33  1  0  0  0  0
  9 10  1  0  0  0  0
  9 34  1  0  0  0  0
 10 11  1  0  0  0  0
 10 35  1  0  0  0  0
 11 12  1  0  0  0  0
 11 36  1  0  0  0  0
 11 37  1  0  0  0  0
 12 13  1  0  0  0  0
 12 38  1  0  0  0  0
 12 39  1  0  0  0  0
 13 18  1  0  0  0  0
 13 14  2  0  0  0  0
 14 15  1  0  0  0  0
 14 40  1  0  0  0  0
 15 16  2  0  0  0  0
 15 41  1  0  0  0  0
 16 17  1  0  0  0  0
 16 42  1  0  0  0  0
 17 18  2  0  0  0  0
 17 43  1  0  0  0  0
M  CHG  1   4   1
M  END
> <s_m_source_file>
AV-unprocessed.smi

> <i_m_source_file_index>
3303

> <i_lp_mmshare_version>
43012

> <i_f3d_flags>
0

> <s_epik_input>
W0NIM11bQ0BASF0xW0NIMl1OKFtDSDNdKVtDQEBIXShbQ0gzXSlbQ0gyXVtDQEhdMVtOSF1bQ0gyXVtDSDJdYzJbY0hdW2NIXVtjSF1bY0hdbjI=

> <s_epik_cmdline>
J2VwaWtfcHl0aG9uJywgJy1waCcsICc3LjAnLCAnLXRuJywgJzgnLCAnLW1hJywgJzIwMCcsICctbWV0YWxfYmluZGluZycsICctaW1hZScsICc8aW5maWxlLm1hZT4nLCAnLW9tYWUnLCAnPG91dGZpbGUubWFlPic=

> <r_epik_Ionization_Penalty>
2.31085

> <r_epik_Ionization_Penalty_Charging>
0.000313057

> <r_epik_Ionization_Penalty_Neutral>
2.31054

> <r_epik_State_Penalty>
2.4087

> <r_epik_Charging_Adjusted_Penalty>
2.40902

> <i_epik_Tot_Q>
1

> <i_epik_Tot_abs_Q>
1

> <r_epik_Metal_State_Penalty>
2.30979

> <b_epik_Metal_Only>
0

> <s_lp_Force_Field>
OPLS_2005

> <r_lp_Energy>
24.7509

> <b_lp_Chiralities_Consistent>
1

> <s_lp_Variant>
AV-unprocessed.smi:3303-26

> <Gold.Version>
5.8.1

> <Gold.Id.Protein>
6NUR|6NUR_protein|mol2

> <Gold.PLP.Fitness>
45.1274

> <Gold.PLP.PLP>
-32.7254

> <Gold.PLP.part.hbond>
-4.0000

> <Gold.PLP.part.metal>
0.0000

> <Gold.PLP.part.buried>
-3.0338

> <Gold.PLP.part.nonpolar>
-25.1139

> <Gold.PLP.part.repulsive>
0.0284

> <Gold.PLP.ligand.clash>
0.0000

> <Gold.PLP.ligand.torsion>
0.4136

> <Gold.PLP.Chemscore.Hbond>
4.4075

> <Gold.PLP.Chemscore.CHOScore>
0.0000

> <Gold.PLP.Chemscore.Metal>
0.0000

> <Gold.Chemscore.Hbonds>
donor molecule, donor type, donor heavy atom, donor atom, acceptor molecule, acceptor atom, score
      L1  H     4    44       P1  8028  2.00
      L1  H    10    35       P1  7957  0.97
      P1  H  7989  7998       L1    10  0.72
      P1  H  7997  8010       L1    18  0.72

> <Gold.PLP.Chemscore.Internal.Correction>
0.0068

> <Gold.Rescore>
     Score         DG    S(hbond)    S(metal)    S(lipo)     H(rot)  DE(clash)    DE(int)     intcor
     18.17     -19.02       2.10        0.00      84.82       1.33       0.24       0.61       ----

> <Gold.Chemscore.Fitness>
18.1729

> <Gold.Chemscore.DG>
-19.0206

> <Gold.Chemscore.ZeroCoef>
-5.4800

> <Gold.Chemscore.Hbond>
2.1002

> <Gold.Chemscore.Metal>
0.0000

> <Gold.Chemscore.Lipo>
84.8177

> <Gold.Chemscore.Internal_Hbond>
0.0000

> <Gold.Chemscore.DEClash>
0.2362

> <Gold.Chemscore.DEInternal>
0.6115

> <Gold.Chemscore.Rot>
1.3272

> <Gold.Chemscore.Internal.Correction>
   9.000000E+99

> <Gold.Chemscore.Hbonds>
donor molecule, donor type, donor heavy atom, donor atom, acceptor molecule, acceptor atom, score
      L1  H     4    44       P1  8028  0.55
      L1  H    10    35       P1  7957  0.85
      P1  H  7989  7998       L1    10  0.02
      P1  H  7997  8010       L1    18  0.18

> <Gold.Chemscore.Hbond.Weighted>
-7.0146

> <Gold.Chemscore.Metal.Weighted>
-0.0000

> <Gold.Chemscore.Lipo.Weighted>
-9.9237

> <Gold.Chemscore.Internal_Hbond.Weighted>
0.0000

> <Gold.Chemscore.DEClash.Weighted>
0.2362

> <Gold.Chemscore.DEInternal.Weighted>
0.6115

> <Gold.Chemscore.Rot.Weighted>
3.3976

> <Gold.Chemscore.Internal.Correction.Weighted>
   9.000000E+99

> <Gold.Protein.RotatedTorsions>
[ 6907 6896 6895 6894 ] final  -39.76 input  -60.11 | X-H torsion
[ 7974 7965 7964 7962 ] final  -25.72 input  175.53 | X-H torsion
[ 8008 7997 7996 7995 ] final   36.18 input   59.86 | X-H torsion
[ 10167 10162 10161 10158 ] final  105.55 input  -65.29 | X-H torsion
[ 10718 10713 10712 10709 ] final  -14.55 input   66.30 | X-H torsion
[ 10763 10752 10751 10750 ] final -151.81 input  -60.55 | X-H torsion
[ 11005 11000 10999 10996 ] final -120.55 input  -57.11 | X-H torsion

> <Gold.Protein.ActiveResidues>
 VAL166  LYS551  ARG553  GLY616  TRP617  ASP618  TYR619  PRO620  LYS621  CYS622 
 ASP623  PHE694  ASN695  SER759  ASP760  ASP761  ALA762  ILE779  LEU786  VAL792 
 PHE793  MET794  SER795  GLU796  ALA797  LYS798  CYS799  TRP800  GLU811  SER814 

> <Gold.Protein.RotatedAtoms>
  150.9865  134.9209  159.7874 H   0  0  0  0  0  0  0  0  0  0  0  0  # atno 6907 bound_to 6896
  152.5238  134.3339  159.9203 H   0  0  0  0  0  0  0  0  0  0  0  0  # atno 6908 bound_to 6896
  151.3345  133.3946  159.2700 H   0  0  0  0  0  0  0  0  0  0  0  0  # atno 6909 bound_to 6896
  146.1473  140.4923  142.8626 H   0  0  0  0  0  0  0  0  0  0  0  0  # atno 7974 bound_to 7965
  155.1831  140.3301  155.4371 H   0  0  0  0  0  0  0  0  0  0  0  0  # atno 8008 bound_to 7997
  156.2469  140.1923  156.6878 H   0  0  0  0  0  0  0  0  0  0  0  0  # atno 8009 bound_to 7997
  154.6257  140.0589  156.9657 H   0  0  0  0  0  0  0  0  0  0  0  0  # atno 8010 bound_to 7997
  139.7083  144.7082  151.1070 H   0  0  0  0  0  0  0  0  0  0  0  0  # atno 10167 bound_to 10162
  156.6144  130.4858  149.6189 H   0  0  0  0  0  0  0  0  0  0  0  0  # atno 10718 bound_to 10713
  154.8034  135.3251  154.7491 H   0  0  0  0  0  0  0  0  0  0  0  0  # atno 10763 bound_to 10752
  153.8155  135.6892  153.4839 H   0  0  0  0  0  0  0  0  0  0  0  0  # atno 10764 bound_to 10752
  153.1765  135.4603  154.9916 H   0  0  0  0  0  0  0  0  0  0  0  0  # atno 10765 bound_to 10752
  141.0135  134.0230  157.3382 H   0  0  0  0  0  0  0  0  0  0  0  0  # atno 11005 bound_to 11000
  144.7861  140.5940  143.6572 LP  0  0  0  0  0  0  0  0  0  0  0  0  # atno 17320 bound_to 7965
  145.4907  139.1489  143.3711 LP  0  0  0  0  0  0  0  0  0  0  0  0  # atno 17321 bound_to 7965
  140.7727  143.5328  150.9403 LP  0  0  0  0  0  0  0  0  0  0  0  0  # atno 17342 bound_to 10162
  139.9012  143.6833  152.3131 LP  0  0  0  0  0  0  0  0  0  0  0  0  # atno 17343 bound_to 10162
  156.2363  130.6824  151.1512 LP  0  0  0  0  0  0  0  0  0  0  0  0  # atno 17370 bound_to 10713
  157.7245  131.0659  150.5992 LP  0  0  0  0  0  0  0  0  0  0  0  0  # atno 17371 bound_to 10713
  139.9103  135.0189  156.7664 LP  0  0  0  0  0  0  0  0  0  0  0  0  # atno 17394 bound_to 11000
  140.6694  133.9573  155.7848 LP  0  0  0  0  0  0  0  0  0  0  0  0  # atno 17395 bound_to 11000

$$$$
