AV-unprocessed.smi:2902|AV-procd|sdf|11156|dock7
  -GOLD-   2272016 43D 1   1.00000     0.00000
 Structure written by MMmdl.
 47 48  0  0  0  0  0  0  0  0  1 V2000
  147.1083  135.9671  157.4893 C   0  0  0  0  0  0  0  0  0  0  0  0
  148.1298  135.6701  158.5939 C   0  0  0  0  0  0  0  0  0  0  0  0
  148.6461  136.9450  159.2869 C   0  0  1  0  0  0  0  0  0  0  0  0
  148.6773  136.7009  160.6925 O   0  0  0  0  0  0  0  0  0  0  0  0
  147.4776  136.2002  161.2763 C   0  0  0  0  0  0  0  0  0  0  0  0
  147.2903  136.6426  162.7309 C   0  0  0  0  0  0  0  0  0  0  0  0
  146.4088  135.5617  163.3682 C   0  0  0  0  0  0  0  0  0  0  0  0
  146.5349  134.3179  162.4745 C   0  0  0  0  0  0  0  0  0  0  0  0
  147.5512  134.6785  161.3871 C   0  0  0  0  0  0  0  0  0  0  0  0
  150.0429  137.3265  158.7743 C   0  0  0  0  0  0  0  0  0  0  0  0
  150.9974  137.3714  159.5504 O   0  0  0  0  0  0  0  0  0  0  0  0
  150.1407  137.5936  157.4619 N   0  0  0  0  0  0  0  0  0  0  0  0
  151.3709  137.9244  156.7410 C   0  0  2  0  0  0  0  0  0  0  0  0
  151.8842  139.2711  157.2774 C   0  0  0  0  0  0  0  0  0  0  0  0
  151.1111  137.9349  155.2090 C   0  0  1  0  0  0  0  0  0  0  0  0
  150.6345  136.5736  154.6656 C   0  0  0  0  0  0  0  0  0  0  0  0
  150.1661  138.9823  154.8368 N   0  0  0  0  0  0  0  0  0  0  0  0
  148.9836  138.8959  154.2236 C   0  0  0  0  0  0  0  0  0  0  0  0
  148.4114  140.0685  153.9905 N   0  0  0  0  0  0  0  0  0  0  0  0
  149.3620  140.8947  154.5198 C   0  0  0  0  0  0  0  0  0  0  0  0
  150.4344  140.2958  155.0372 N   0  0  0  0  0  0  0  0  0  0  0  0
  146.7704  135.0451  157.0159 H   0  0  0  0  0  0  0  0  0  0  0  0
  147.5394  136.6005  156.7138 H   0  0  0  0  0  0  0  0  0  0  0  0
  146.2307  136.4756  157.8891 H   0  0  0  0  0  0  0  0  0  0  0  0
  147.6796  135.0013  159.3290 H   0  0  0  0  0  0  0  0  0  0  0  0
  148.9670  135.1239  158.1556 H   0  0  0  0  0  0  0  0  0  0  0  0
  147.9480  137.7570  159.0738 H   0  0  0  0  0  0  0  0  0  0  0  0
  146.5969  136.4623  160.6863 H   0  0  0  0  0  0  0  0  0  0  0  0
  148.2584  136.6626  163.2335 H   0  0  0  0  0  0  0  0  0  0  0  0
  146.8537  137.6371  162.8211 H   0  0  0  0  0  0  0  0  0  0  0  0
  146.7197  135.3570  164.3934 H   0  0  0  0  0  0  0  0  0  0  0  0
  145.3693  135.8902  163.4020 H   0  0  0  0  0  0  0  0  0  0  0  0
  146.8447  133.4367  163.0372 H   0  0  0  0  0  0  0  0  0  0  0  0
  145.5691  134.0928  162.0201 H   0  0  0  0  0  0  0  0  0  0  0  0
  147.3503  134.1786  160.4390 H   0  0  0  0  0  0  0  0  0  0  0  0
  148.5494  134.3812  161.7121 H   0  0  0  0  0  0  0  0  0  0  0  0
  149.2963  137.5401  156.9110 H   0  0  0  0  0  0  0  0  0  0  0  0
  152.1382  137.1789  156.9574 H   0  0  0  0  0  0  0  0  0  0  0  0
  152.8608  139.5232  156.8653 H   0  0  0  0  0  0  0  0  0  0  0  0
  151.9962  139.2423  158.3618 H   0  0  0  0  0  0  0  0  0  0  0  0
  151.1976  140.0833  157.0367 H   0  0  0  0  0  0  0  0  0  0  0  0
  152.0514  138.1705  154.7081 H   0  0  0  0  0  0  0  0  0  0  0  0
  151.4042  135.8092  154.7664 H   0  0  0  0  0  0  0  0  0  0  0  0
  150.3908  136.6407  153.6048 H   0  0  0  0  0  0  0  0  0  0  0  0
  149.7448  136.2222  155.1891 H   0  0  0  0  0  0  0  0  0  0  0  0
  148.5386  137.9566  153.9298 H   0  0  0  0  0  0  0  0  0  0  0  0
  149.2614  141.9701  154.5218 H   0  0  0  0  0  0  0  0  0  0  0  0
  1  2  1  0  0  0  0
  1 22  1  0  0  0  0
  1 23  1  0  0  0  0
  1 24  1  0  0  0  0
  2  3  1  0  0  0  0
  2 25  1  0  0  0  0
  2 26  1  0  0  0  0
  3  4  1  0  0  0  0
  3 10  1  0  0  0  0
  3 27  1  0  0  0  0
  4  5  1  0  0  0  0
  5  9  1  0  0  0  0
  5  6  1  0  0  0  0
  5 28  1  0  0  0  0
  6  7  1  0  0  0  0
  6 29  1  0  0  0  0
  6 30  1  0  0  0  0
  7  8  1  0  0  0  0
  7 31  1  0  0  0  0
  7 32  1  0  0  0  0
  8  9  1  0  0  0  0
  8 33  1  0  0  0  0
  8 34  1  0  0  0  0
  9 35  1  0  0  0  0
  9 36  1  0  0  0  0
 10 11  2  0  0  0  0
 10 12  1  0  0  0  0
 12 13  1  0  0  0  0
 12 37  1  0  0  0  0
 13 14  1  0  0  0  0
 13 15  1  0  0  0  0
 13 38  1  0  0  0  0
 14 39  1  0  0  0  0
 14 40  1  0  0  0  0
 14 41  1  0  0  0  0
 15 16  1  0  0  0  0
 15 17  1  0  0  0  0
 15 42  1  0  0  0  0
 16 43  1  0  0  0  0
 16 44  1  0  0  0  0
 16 45  1  0  0  0  0
 17 21  1  0  0  0  0
 17 18  1  0  0  0  0
 18 19  2  0  0  0  0
 18 46  1  0  0  0  0
 19 20  1  0  0  0  0
 20 21  2  0  0  0  0
 20 47  1  0  0  0  0
M  END
> <s_m_source_file>
AV-unprocessed.smi

> <i_m_source_file_index>
2902

> <i_lp_mmshare_version>
43012

> <i_f3d_flags>
0

> <s_epik_input>
W0NIMl0xW0NIMl1bQ0gyXVtDSDJdW0NIXTFPW0NAQEhdKFtDSDJdW0NIM10pQyg9TylbTkhdW0NASF0oW0NIM10pW0NASF0oW0NIM10pbjJbY0hdbltjSF1uMg==

> <s_epik_cmdline>
J2VwaWtfcHl0aG9uJywgJy1waCcsICc3LjAnLCAnLXRuJywgJzgnLCAnLW1hJywgJzIwMCcsICctbWV0YWxfYmluZGluZycsICctaW1hZScsICc8aW5maWxlLm1hZT4nLCAnLW9tYWUnLCAnPG91dGZpbGUubWFlPic=

> <r_lp_tautomer_probability>
1

> <r_epik_Ionization_Penalty>
6.95617e-05

> <r_epik_Ionization_Penalty_Charging>
0

> <r_epik_Ionization_Penalty_Neutral>
6.95617e-05

> <r_epik_State_Penalty>
-0

> <r_epik_Charging_Adjusted_Penalty>
0

> <i_epik_Tot_Q>
0

> <i_epik_Tot_abs_Q>
0

> <r_epik_Metal_State_Penalty>
-0

> <b_epik_Metal_Only>
0

> <s_lp_Force_Field>
OPLS_2005

> <r_lp_Energy>
29.6491

> <b_lp_Chiralities_Consistent>
1

> <s_lp_Variant>
AV-unprocessed.smi:2902-6

> <Gold.Version>
5.8.1

> <Gold.Id.Protein>
6NUR|6NUR_protein|mol2

> <Gold.PLP.Fitness>
38.9178

> <Gold.PLP.PLP>
-31.9949

> <Gold.PLP.part.hbond>
-2.1998

> <Gold.PLP.part.metal>
0.0000

> <Gold.PLP.part.buried>
-4.9577

> <Gold.PLP.part.nonpolar>
-28.1634

> <Gold.PLP.part.repulsive>
1.0969

> <Gold.PLP.ligand.clash>
0.0000

> <Gold.PLP.ligand.torsion>
1.1913

> <Gold.PLP.Chemscore.Hbond>
2.0299

> <Gold.PLP.Chemscore.CHOScore>
0.9978

> <Gold.PLP.Chemscore.Metal>
0.0000

> <Gold.Chemscore.Hbonds>
donor molecule, donor type, donor heavy atom, donor atom, acceptor molecule, acceptor atom, score
      P1  H  6896  6907       L1    11  0.39
      P1  H  6931  6943       L1     4  0.96
      P1  H  7989  7998       L1    21  0.65
      L1  C    18    46       P1  7948  0.55

> <Gold.PLP.Chemscore.Internal.Correction>
0.2223

> <Gold.Rescore>
     Score         DG    S(hbond)    S(metal)    S(lipo)     H(rot)  DE(clash)    DE(int)     intcor
      8.05      -9.75       0.96        0.00      67.98       2.69       0.01       1.68       ----

> <Gold.Chemscore.Fitness>
8.0542

> <Gold.Chemscore.DG>
-9.7515

> <Gold.Chemscore.ZeroCoef>
-5.4800

> <Gold.Chemscore.Hbond>
0.9621

> <Gold.Chemscore.Metal>
0.0000

> <Gold.Chemscore.Lipo>
67.9783

> <Gold.Chemscore.Internal_Hbond>
0.0000

> <Gold.Chemscore.DEClash>
0.0128

> <Gold.Chemscore.DEInternal>
1.6846

> <Gold.Chemscore.Rot>
2.6935

> <Gold.Chemscore.Internal.Correction>
   9.000000E+99

> <Gold.Chemscore.Hbonds>
donor molecule, donor type, donor heavy atom, donor atom, acceptor molecule, acceptor atom, score
      P1  H  6896  6907       L1    11  0.14
      P1  H  6931  6943       L1     4  0.26
      P1  H  7989  7998       L1    21  0.03

> <Gold.Chemscore.Hbond.Weighted>
-3.2134

> <Gold.Chemscore.Metal.Weighted>
-0.0000

> <Gold.Chemscore.Lipo.Weighted>
-7.9535

> <Gold.Chemscore.Internal_Hbond.Weighted>
0.0000

> <Gold.Chemscore.DEClash.Weighted>
0.0128

> <Gold.Chemscore.DEInternal.Weighted>
1.6846

> <Gold.Chemscore.Rot.Weighted>
6.8954

> <Gold.Chemscore.Internal.Correction.Weighted>
   9.000000E+99

> <Gold.Protein.RotatedTorsions>
[ 6907 6896 6895 6894 ] final  -11.00 input  -60.11 | X-H torsion
[ 7974 7965 7964 7962 ] final   38.75 input  175.53 | X-H torsion
[ 8008 7997 7996 7995 ] final -155.62 input   59.86 | X-H torsion
[ 10167 10162 10161 10158 ] final  -27.49 input  -65.29 | X-H torsion
[ 10718 10713 10712 10709 ] final -117.88 input   66.30 | X-H torsion
[ 10763 10752 10751 10750 ] final  145.68 input  -60.55 | X-H torsion
[ 11005 11000 10999 10996 ] final   87.96 input  -57.11 | X-H torsion

> <Gold.Protein.ActiveResidues>
 VAL166  LYS551  ARG553  GLY616  TRP617  ASP618  TYR619  PRO620  LYS621  CYS622 
 ASP623  PHE694  ASN695  SER759  ASP760  ASP761  ALA762  ILE779  LEU786  VAL792 
 PHE793  MET794  SER795  GLU796  ALA797  LYS798  CYS799  TRP800  GLU811  SER814 

> <Gold.Protein.RotatedAtoms>
  151.3931  135.0959  159.9532 H   0  0  0  0  0  0  0  0  0  0  0  0  # atno 6907 bound_to 6896
  152.5073  133.8960  159.7428 H   0  0  0  0  0  0  0  0  0  0  0  0  # atno 6908 bound_to 6896
  150.9418  133.6592  159.2818 H   0  0  0  0  0  0  0  0  0  0  0  0  # atno 6909 bound_to 6896
  146.1038  139.5734  142.9397 H   0  0  0  0  0  0  0  0  0  0  0  0  # atno 7974 bound_to 7965
  155.7046  140.0771  157.2396 H   0  0  0  0  0  0  0  0  0  0  0  0  # atno 8008 bound_to 7997
  154.4067  140.1641  156.2282 H   0  0  0  0  0  0  0  0  0  0  0  0  # atno 8009 bound_to 7997
  155.9337  140.3389  155.6273 H   0  0  0  0  0  0  0  0  0  0  0  0  # atno 8010 bound_to 7997
  140.7277  143.4089  151.1139 H   0  0  0  0  0  0  0  0  0  0  0  0  # atno 10167 bound_to 10162
  156.1066  130.6215  150.9221 H   0  0  0  0  0  0  0  0  0  0  0  0  # atno 10718 bound_to 10713
  154.0093  135.2916  155.3394 H   0  0  0  0  0  0  0  0  0  0  0  0  # atno 10763 bound_to 10752
  154.7112  135.5148  153.8673 H   0  0  0  0  0  0  0  0  0  0  0  0  # atno 10764 bound_to 10752
  153.0730  135.6654  154.0327 H   0  0  0  0  0  0  0  0  0  0  0  0  # atno 10765 bound_to 10752
  139.8907  134.8457  156.2934 H   0  0  0  0  0  0  0  0  0  0  0  0  # atno 11005 bound_to 11000
  145.5802  141.0383  143.2126 LP  0  0  0  0  0  0  0  0  0  0  0  0  # atno 17320 bound_to 7965
  144.7454  139.7335  143.7294 LP  0  0  0  0  0  0  0  0  0  0  0  0  # atno 17321 bound_to 7965
  139.7719  143.8482  152.3122 LP  0  0  0  0  0  0  0  0  0  0  0  0  # atno 17342 bound_to 10162
  139.8403  144.7213  150.9339 LP  0  0  0  0  0  0  0  0  0  0  0  0  # atno 17343 bound_to 10162
  157.6243  131.0927  150.8563 LP  0  0  0  0  0  0  0  0  0  0  0  0  # atno 17370 bound_to 10713
  156.8681  130.5136  149.5298 LP  0  0  0  0  0  0  0  0  0  0  0  0  # atno 17371 bound_to 10713
  140.9961  133.7179  156.0888 LP  0  0  0  0  0  0  0  0  0  0  0  0  # atno 17394 bound_to 11000
  140.7560  134.3992  157.5533 LP  0  0  0  0  0  0  0  0  0  0  0  0  # atno 17395 bound_to 11000

$$$$
