AV-unprocessed.smi:255|AV-procd|sdf|1950|dock3
  -GOLD-   2262021 83D 1   1.00000     0.00000
 Structure written by MMmdl.
 44 47  0  0  0  0  0  0  0  0  1 V2000
  141.2677  134.2124  153.7666 O   0  0  0  0  0  0  0  0  0  0  0  0
  141.9721  135.3048  153.2170 C   0  0  0  0  0  0  0  0  0  0  0  0
  143.3751  134.8595  152.7653 C   0  0  1  0  0  0  0  0  0  0  0  0
  143.3828  133.9596  151.5289 C   0  0  0  0  0  0  0  0  0  0  0  0
  144.8287  134.0774  151.0494 C   0  0  2  0  0  0  0  0  0  0  0  0
  145.5830  133.1803  151.6858 F   0  0  0  0  0  0  0  0  0  0  0  0
  145.2570  135.4883  151.4782 C   0  0  0  0  0  0  0  0  0  0  0  0
  144.2201  135.9832  152.3791 N   0  0  0  0  0  0  0  0  0  0  0  0
  144.6652  136.7666  153.3857 C   0  0  0  0  0  0  0  0  0  0  0  0
  144.2493  136.5481  154.6608 N   0  0  0  0  0  0  0  0  0  0  0  0
  144.6988  137.3275  155.6493 C   0  0  0  0  0  0  0  0  0  0  0  0
  145.5454  138.3579  155.5816 N   0  0  0  0  0  0  0  0  0  0  0  0
  145.9540  138.5835  154.2993 C   0  0  0  0  0  0  0  0  0  0  0  0
  145.5694  137.8343  153.1531 C   0  0  0  0  0  0  0  0  0  0  0  0
  146.1941  138.3364  152.0199 N   0  0  0  0  0  0  0  0  0  0  0  0
  146.9144  139.3260  152.4722 C   0  0  0  0  0  0  0  0  0  0  0  0
  146.8138  139.5610  153.8264 N   0  0  0  0  0  0  0  0  0  0  0  0
  147.5097  140.5893  154.5874 C   0  0  0  0  0  0  0  0  0  0  0  0
  149.0574  140.4840  154.5789 C   0  0  1  0  0  0  0  0  0  0  0  0
  149.4911  141.0399  153.3507 O   0  0  0  0  0  0  0  0  0  0  0  0
  149.7707  141.2302  155.7071 C   0  0  0  0  0  0  0  0  0  0  0  0
  151.0367  140.4098  155.9122 C   0  0  0  0  0  0  0  0  0  0  0  0
  150.5644  139.0824  155.7670 O   0  0  0  0  0  0  0  0  0  0  0  0
  149.6358  139.0555  154.6887 C   0  0  0  0  0  0  0  0  0  0  0  0
  143.8570  134.3237  153.5853 H   0  0  0  0  0  0  0  0  0  0  0  0
  144.9421  133.9009  149.9795 H   0  0  0  0  0  0  0  0  0  0  0  0
  141.8649  133.4862  153.8587 H   0  0  0  0  0  0  0  0  0  0  0  0
  141.4060  135.7211  152.3831 H   0  0  0  0  0  0  0  0  0  0  0  0
  142.0400  136.0812  153.9798 H   0  0  0  0  0  0  0  0  0  0  0  0
  143.0844  132.9328  151.7423 H   0  0  0  0  0  0  0  0  0  0  0  0
  142.7091  134.3573  150.7682 H   0  0  0  0  0  0  0  0  0  0  0  0
  146.2503  135.4838  151.9304 H   0  0  0  0  0  0  0  0  0  0  0  0
  145.2961  136.1493  150.6120 H   0  0  0  0  0  0  0  0  0  0  0  0
  144.3268  137.0922  156.6355 H   0  0  0  0  0  0  0  0  0  0  0  0
  147.5426  139.9183  151.8226 H   0  0  0  0  0  0  0  0  0  0  0  0
  147.2035  141.5607  154.1961 H   0  0  0  0  0  0  0  0  0  0  0  0
  147.1419  140.5496  155.6136 H   0  0  0  0  0  0  0  0  0  0  0  0
  149.3635  140.3977  152.6694 H   0  0  0  0  0  0  0  0  0  0  0  0
  149.9710  142.2789  155.4834 H   0  0  0  0  0  0  0  0  0  0  0  0
  149.1975  141.1971  156.6311 H   0  0  0  0  0  0  0  0  0  0  0  0
  151.7784  140.6269  155.1419 H   0  0  0  0  0  0  0  0  0  0  0  0
  151.4918  140.5709  156.8895 H   0  0  0  0  0  0  0  0  0  0  0  0
  148.8833  138.2963  154.8874 H   0  0  0  0  0  0  0  0  0  0  0  0
  150.1554  138.7556  153.7770 H   0  0  0  0  0  0  0  0  0  0  0  0
  1  2  1  0  0  0  0
  1 27  1  0  0  0  0
  2  3  1  0  0  0  0
  2 28  1  0  0  0  0
  2 29  1  0  0  0  0
  3 25  1  0  0  0  0
  3  8  1  0  0  0  0
  3  4  1  0  0  0  0
  4  5  1  0  0  0  0
  4 30  1  0  0  0  0
  4 31  1  0  0  0  0
  5 26  1  0  0  0  0
  5  6  1  0  0  0  0
  5  7  1  0  0  0  0
  7  8  1  0  0  0  0
  7 32  1  0  0  0  0
  7 33  1  0  0  0  0
  8  9  1  0  0  0  0
  9 14  1  0  0  0  0
  9 10  2  0  0  0  0
 10 11  1  0  0  0  0
 11 12  2  0  0  0  0
 11 34  1  0  0  0  0
 12 13  1  0  0  0  0
 13 17  1  0  0  0  0
 13 14  2  0  0  0  0
 14 15  1  0  0  0  0
 15 16  2  0  0  0  0
 16 17  1  0  0  0  0
 16 35  1  0  0  0  0
 17 18  1  0  0  0  0
 18 19  1  0  0  0  0
 18 36  1  0  0  0  0
 18 37  1  0  0  0  0
 19 24  1  0  0  0  0
 19 20  1  0  0  0  0
 19 21  1  0  0  0  0
 20 38  1  0  0  0  0
 21 22  1  0  0  0  0
 21 39  1  0  0  0  0
 21 40  1  0  0  0  0
 22 23  1  0  0  0  0
 22 41  1  0  0  0  0
 22 42  1  0  0  0  0
 23 24  1  0  0  0  0
 24 43  1  0  0  0  0
 24 44  1  0  0  0  0
M  END
> <s_m_source_file>
AV-unprocessed.smi

> <i_m_source_file_index>
255

> <i_lp_mmshare_version>
43012

> <i_f3d_flags>
0

> <s_epik_input>
W09IXVtDSDJdW0NAQEhdMVtDSDJdW0NASF0oRilbQ0gyXU4xYyhuW2NIXW4yKWMoYzIzKW5bY0hdbjNbQ0gyXVtDQEBdNChbT0hdKVtDSDJdW0NIMl1PW0NIMl00

> <s_epik_cmdline>
J2VwaWtfcHl0aG9uJywgJy1waCcsICc3LjAnLCAnLXRuJywgJzgnLCAnLW1hJywgJzIwMCcsICctbWV0YWxfYmluZGluZycsICctaW1hZScsICc8aW5maWxlLm1hZT4nLCAnLW9tYWUnLCAnPG91dGZpbGUubWFlPic=

> <r_lp_tautomer_probability>
1

> <r_epik_Ionization_Penalty>
0.0058098

> <r_epik_Ionization_Penalty_Charging>
0

> <r_epik_Ionization_Penalty_Neutral>
0.0058098

> <r_epik_State_Penalty>
0.00411166

> <r_epik_Charging_Adjusted_Penalty>
0.00411166

> <i_epik_Tot_Q>
0

> <i_epik_Tot_abs_Q>
0

> <r_epik_Metal_State_Penalty>
-0

> <b_epik_Metal_Only>
0

> <s_lp_Force_Field>
OPLS_2005

> <r_lp_Energy>
51.0345

> <b_lp_Chiralities_Consistent>
1

> <s_lp_Variant>
AV-unprocessed.smi:255-2

> <Gold.Version>
5.8.1

> <Gold.Id.Protein>
6NUR|6NUR_protein|mol2

> <Gold.PLP.Fitness>
52.0883

> <Gold.PLP.PLP>
-38.1052

> <Gold.PLP.part.hbond>
-4.9133

> <Gold.PLP.part.metal>
0.0000

> <Gold.PLP.part.buried>
-6.2656

> <Gold.PLP.part.nonpolar>
-28.4092

> <Gold.PLP.part.repulsive>
0.5173

> <Gold.PLP.ligand.clash>
0.0000

> <Gold.PLP.ligand.torsion>
0.4893

> <Gold.PLP.Chemscore.Hbond>
3.9543

> <Gold.PLP.Chemscore.CHOScore>
1.0000

> <Gold.PLP.Chemscore.Metal>
0.0000

> <Gold.Chemscore.Hbonds>
donor molecule, donor type, donor heavy atom, donor atom, acceptor molecule, acceptor atom, score
      L1  H     1    27       P1 10957  0.86
      L1  H    20    38       P1  7957  0.90
      P1  H  7989  7998       L1    20  0.13
      P1  H  8011  8017       L1    20  0.90
      P1  H 11000 11005       L1     1  0.68
      L1  C    16    35       P1  7957  1.00

> <Gold.PLP.Chemscore.Internal.Correction>
0.0988

> <Gold.Rescore>
     Score         DG    S(hbond)    S(metal)    S(lipo)     H(rot)  DE(clash)    DE(int)     intcor
     12.76     -15.00       3.27        0.00      60.68       3.33       0.03       2.22       ----

> <Gold.Chemscore.Fitness>
12.7550

> <Gold.Chemscore.DG>
-14.9981

> <Gold.Chemscore.ZeroCoef>
-5.4800

> <Gold.Chemscore.Hbond>
3.2743

> <Gold.Chemscore.Metal>
0.0000

> <Gold.Chemscore.Lipo>
60.6824

> <Gold.Chemscore.Internal_Hbond>
0.0000

> <Gold.Chemscore.DEClash>
0.0253

> <Gold.Chemscore.DEInternal>
2.2177

> <Gold.Chemscore.Rot>
3.3273

> <Gold.Chemscore.Internal.Correction>
   9.000000E+99

> <Gold.Chemscore.Hbonds>
donor molecule, donor type, donor heavy atom, donor atom, acceptor molecule, acceptor atom, score
      L1  H     1    27       P1 10957  0.82
      L1  H    20    38       P1  7957  0.85
      P1  H  7989  7998       L1    20  0.01
      P1  H  8011  8017       L1    20  0.18
      P1  H 11000 11005       L1     1  0.10

> <Gold.Chemscore.Hbond.Weighted>
-10.9362

> <Gold.Chemscore.Metal.Weighted>
-0.0000

> <Gold.Chemscore.Lipo.Weighted>
-7.0998

> <Gold.Chemscore.Internal_Hbond.Weighted>
0.0000

> <Gold.Chemscore.DEClash.Weighted>
0.0253

> <Gold.Chemscore.DEInternal.Weighted>
2.2177

> <Gold.Chemscore.Rot.Weighted>
8.5179

> <Gold.Chemscore.Internal.Correction.Weighted>
   9.000000E+99

> <Gold.Protein.RotatedTorsions>
[ 6907 6896 6895 6894 ] final -157.09 input  -60.11 | X-H torsion
[ 7974 7965 7964 7962 ] final   46.36 input  175.53 | X-H torsion
[ 8008 7997 7996 7995 ] final -150.17 input   59.86 | X-H torsion
[ 10167 10162 10161 10158 ] final   17.88 input  -65.29 | X-H torsion
[ 10718 10713 10712 10709 ] final  178.00 input   66.30 | X-H torsion
[ 10763 10752 10751 10750 ] final  -61.56 input  -60.55 | X-H torsion
[ 11005 11000 10999 10996 ] final   15.65 input  -57.11 | X-H torsion

> <Gold.Protein.ActiveResidues>
 VAL166  LYS551  ARG553  GLY616  TRP617  ASP618  TYR619  PRO620  LYS621  CYS622 
 ASP623  PHE694  ASN695  SER759  ASP760  ASP761  ALA762  ILE779  LEU786  VAL792 
 PHE793  MET794  SER795  GLU796  ALA797  LYS798  CYS799  TRP800  GLU811  SER814 

> <Gold.Protein.RotatedAtoms>
  151.2975  133.4137  159.2637 H   0  0  0  0  0  0  0  0  0  0  0  0  # atno 6907 bound_to 6896
  151.0224  134.9479  159.8077 H   0  0  0  0  0  0  0  0  0  0  0  0  # atno 6908 bound_to 6896
  152.5327  134.2938  159.9105 H   0  0  0  0  0  0  0  0  0  0  0  0  # atno 6909 bound_to 6896
  146.0397  139.4864  142.9786 H   0  0  0  0  0  0  0  0  0  0  0  0  # atno 7974 bound_to 7965
  155.6193  140.0680  157.2683 H   0  0  0  0  0  0  0  0  0  0  0  0  # atno 8008 bound_to 7997
  154.4233  140.1787  156.1404 H   0  0  0  0  0  0  0  0  0  0  0  0  # atno 8009 bound_to 7997
  156.0022  140.3335  155.6860 H   0  0  0  0  0  0  0  0  0  0  0  0  # atno 8010 bound_to 7997
  140.5694  143.9190  150.6701 H   0  0  0  0  0  0  0  0  0  0  0  0  # atno 10167 bound_to 10162
  156.8970  130.9866  151.3041 H   0  0  0  0  0  0  0  0  0  0  0  0  # atno 10718 bound_to 10713
  154.2865  135.6262  153.5368 H   0  0  0  0  0  0  0  0  0  0  0  0  # atno 10763 bound_to 10752
  152.9858  135.5645  154.5437 H   0  0  0  0  0  0  0  0  0  0  0  0  # atno 10764 bound_to 10752
  154.5039  135.2873  155.1374 H   0  0  0  0  0  0  0  0  0  0  0  0  # atno 10765 bound_to 10752
  140.4560  134.1176  155.7709 H   0  0  0  0  0  0  0  0  0  0  0  0  # atno 11005 bound_to 11000
  145.6905  141.0165  143.1558 LP  0  0  0  0  0  0  0  0  0  0  0  0  # atno 17320 bound_to 7965
  144.7068  139.8527  143.7427 LP  0  0  0  0  0  0  0  0  0  0  0  0  # atno 17321 bound_to 7965
  140.2661  143.3489  152.1280 LP  0  0  0  0  0  0  0  0  0  0  0  0  # atno 17342 bound_to 10162
  139.5109  144.6893  151.5804 LP  0  0  0  0  0  0  0  0  0  0  0  0  # atno 17343 bound_to 10162
  157.6049  130.8540  149.8860 LP  0  0  0  0  0  0  0  0  0  0  0  0  # atno 17370 bound_to 10713
  156.0601  130.3701  150.1002 LP  0  0  0  0  0  0  0  0  0  0  0  0  # atno 17371 bound_to 10713
  141.1643  133.8733  157.1760 LP  0  0  0  0  0  0  0  0  0  0  0  0  # atno 17394 bound_to 11000
  139.9976  135.0040  157.0118 LP  0  0  0  0  0  0  0  0  0  0  0  0  # atno 17395 bound_to 11000

$$$$
