AV-unprocessed.smi:1471|AV-procd|sdf|5962|dock3
  -GOLD-   22720 6 53D 1   1.00000     0.00000
 Structure written by MMmdl.
 42 43  0  0  0  0  0  0  0  0  1 V2000
  146.0295  137.0032  154.5572 C   0  0  0  0  0  0  0  0  0  0  0  0
  147.5153  136.8181  154.7053 C   0  0  0  0  0  0  0  0  0  0  0  0
  148.2482  137.8737  154.5702 N   0  0  0  0  0  0  0  0  0  0  0  0
  149.6221  137.8258  154.7197 N   0  0  0  0  0  0  0  0  0  0  0  0
  150.2907  139.1313  154.5745 C   0  0  0  0  0  0  0  0  0  0  0  0
  149.3150  140.3319  154.5337 C   0  0  2  0  0  0  0  0  0  0  0  0
  149.4858  141.0529  153.3313 O   0  0  0  0  0  0  0  0  0  0  0  0
  149.4211  141.3068  155.7204 C   0  0  0  0  0  0  0  0  0  0  0  0
  150.7822  141.5716  156.0303 O   0  0  0  0  0  0  0  0  0  0  0  0
  150.9674  142.7110  156.8588 C   0  0  0  0  0  0  0  0  0  0  0  0
  151.7284  142.3941  158.1365 C   0  0  0  0  0  0  0  0  0  0  0  0
  152.0028  141.0541  158.4850 C   0  0  0  0  0  0  0  0  0  0  0  0
  152.7146  140.7577  159.6635 C   0  0  0  0  0  0  0  0  0  0  0  0
  153.1437  141.7992  160.5076 C   0  0  0  0  0  0  0  0  0  0  0  0
  152.8623  143.1367  160.1706 C   0  0  0  0  0  0  0  0  0  0  0  0
  152.1630  143.4359  158.9850 C   0  0  0  0  0  0  0  0  0  0  0  0
  151.9164  144.7286  158.6639 F   0  0  0  0  0  0  0  0  0  0  0  0
  150.3315  136.6843  154.9598 C   0  0  0  0  0  0  0  0  0  0  0  0
  151.5588  136.6669  155.0599 O   0  0  0  0  0  0  0  0  0  0  0  0
  149.4960  135.4885  155.0906 C   0  0  0  0  0  0  0  0  0  0  0  0
  150.2006  134.2734  155.3452 C   0  0  0  0  0  0  0  0  0  0  0  0
  150.7523  133.2780  155.5578 N   0  0  0  0  0  0  0  0  0  0  0  0
  148.1449  135.5331  154.9848 C   0  0  0  0  0  0  0  0  0  0  0  0
  147.2329  134.3232  155.1325 C   0  0  0  0  0  0  0  0  0  0  0  0
  145.6543  136.4464  153.6985 H   0  0  0  0  0  0  0  0  0  0  0  0
  145.7626  138.0515  154.4134 H   0  0  0  0  0  0  0  0  0  0  0  0
  145.5051  136.6514  155.4456 H   0  0  0  0  0  0  0  0  0  0  0  0
  151.0080  139.3073  155.3773 H   0  0  0  0  0  0  0  0  0  0  0  0
  150.8824  139.1118  153.6582 H   0  0  0  0  0  0  0  0  0  0  0  0
  148.2929  139.9526  154.5070 H   0  0  0  0  0  0  0  0  0  0  0  0
  149.3328  140.4647  152.6075 H   0  0  0  0  0  0  0  0  0  0  0  0
  148.8879  142.2355  155.5098 H   0  0  0  0  0  0  0  0  0  0  0  0
  148.9303  140.8561  156.5824 H   0  0  0  0  0  0  0  0  0  0  0  0
  151.5357  143.4476  156.2906 H   0  0  0  0  0  0  0  0  0  0  0  0
  150.0121  143.1856  157.0897 H   0  0  0  0  0  0  0  0  0  0  0  0
  151.6738  140.2492  157.8444 H   0  0  0  0  0  0  0  0  0  0  0  0
  152.9289  139.7312  159.9219 H   0  0  0  0  0  0  0  0  0  0  0  0
  153.6883  141.5731  161.4125 H   0  0  0  0  0  0  0  0  0  0  0  0
  153.1930  143.9362  160.8171 H   0  0  0  0  0  0  0  0  0  0  0  0
  147.7912  133.4033  155.3033 H   0  0  0  0  0  0  0  0  0  0  0  0
  146.6344  134.1806  154.2322 H   0  0  0  0  0  0  0  0  0  0  0  0
  146.5577  134.4574  155.9783 H   0  0  0  0  0  0  0  0  0  0  0  0
  1  2  1  0  0  0  0
  1 25  1  0  0  0  0
  1 26  1  0  0  0  0
  1 27  1  0  0  0  0
  2 23  1  0  0  0  0
  2  3  2  0  0  0  0
  3  4  1  0  0  0  0
  4  5  1  0  0  0  0
  4 18  1  0  0  0  0
  5  6  1  0  0  0  0
  5 28  1  0  0  0  0
  5 29  1  0  0  0  0
  6  7  1  0  0  0  0
  6  8  1  0  0  0  0
  6 30  1  0  0  0  0
  7 31  1  0  0  0  0
  8  9  1  0  0  0  0
  8 32  1  0  0  0  0
  8 33  1  0  0  0  0
  9 10  1  0  0  0  0
 10 11  1  0  0  0  0
 10 34  1  0  0  0  0
 10 35  1  0  0  0  0
 11 16  1  0  0  0  0
 11 12  2  0  0  0  0
 12 13  1  0  0  0  0
 12 36  1  0  0  0  0
 13 14  2  0  0  0  0
 13 37  1  0  0  0  0
 14 15  1  0  0  0  0
 14 38  1  0  0  0  0
 15 16  2  0  0  0  0
 15 39  1  0  0  0  0
 16 17  1  0  0  0  0
 18 19  2  0  0  0  0
 18 20  1  0  0  0  0
 20 21  1  0  0  0  0
 20 23  2  0  0  0  0
 21 22  3  0  0  0  0
 23 24  1  0  0  0  0
 24 40  1  0  0  0  0
 24 41  1  0  0  0  0
 24 42  1  0  0  0  0
M  END
> <s_m_source_file>
AV-unprocessed.smi

> <i_m_source_file_index>
1471

> <i_lp_mmshare_version>
43012

> <i_f3d_flags>
0

> <s_epik_input>
TiNDYyhjMVtDSDNdKWMoPU8pbihuYzFbQ0gzXSlbQ0gyXVtDQEhdKFtPSF0pW0NIMl1PW0NIMl1jMltjSF1bY0hdW2NIXVtjSF1jMkY=

> <s_epik_cmdline>
J2VwaWtfcHl0aG9uJywgJy1waCcsICc3LjAnLCAnLXRuJywgJzgnLCAnLW1hJywgJzIwMCcsICctbWV0YWxfYmluZGluZycsICctaW1hZScsICc8aW5maWxlLm1hZT4nLCAnLW9tYWUnLCAnPG91dGZpbGUubWFlPic=

> <r_lp_tautomer_probability>
1

> <r_epik_Ionization_Penalty>
6.13319e-08

> <r_epik_Ionization_Penalty_Charging>
2.19172e-10

> <r_epik_Ionization_Penalty_Neutral>
6.11128e-08

> <r_epik_State_Penalty>
-0

> <r_epik_Charging_Adjusted_Penalty>
2.19172e-10

> <i_epik_Tot_Q>
0

> <i_epik_Tot_abs_Q>
0

> <r_epik_Metal_State_Penalty>
-0

> <b_epik_Metal_Only>
0

> <s_lp_Force_Field>
OPLS_2005

> <r_lp_Energy>
27.5477

> <b_lp_Chiralities_Consistent>
1

> <s_lp_Variant>
AV-unprocessed.smi:1471-1

> <Gold.Version>
5.8.1

> <Gold.Id.Protein>
6NUR|6NUR_protein|mol2

> <Gold.PLP.Fitness>
50.5330

> <Gold.PLP.PLP>
-44.9438

> <Gold.PLP.part.hbond>
-3.5457

> <Gold.PLP.part.metal>
0.0000

> <Gold.PLP.part.buried>
-5.5404

> <Gold.PLP.part.nonpolar>
-36.3905

> <Gold.PLP.part.repulsive>
0.3291

> <Gold.PLP.ligand.clash>
0.0000

> <Gold.PLP.ligand.torsion>
1.5110

> <Gold.PLP.Chemscore.Hbond>
2.8036

> <Gold.PLP.Chemscore.CHOScore>
0.0000

> <Gold.PLP.Chemscore.Metal>
0.0000

> <Gold.Chemscore.Hbonds>
donor molecule, donor type, donor heavy atom, donor atom, acceptor molecule, acceptor atom, score
      L1  H     7    31       P1  7957  0.99
      P1  H  7989  7998       L1     7  0.08
      P1  H  8011  8017       L1     7  0.70
      P1  H 10752 10765       L1    19  1.00

> <Gold.PLP.Chemscore.Internal.Correction>
0.2005

> <Gold.Rescore>
     Score         DG    S(hbond)    S(metal)    S(lipo)     H(rot)  DE(clash)    DE(int)     intcor
     15.67     -17.06       1.96        0.00     100.81       2.65       0.02       1.37       ----

> <Gold.Chemscore.Fitness>
15.6721

> <Gold.Chemscore.DG>
-17.0567

> <Gold.Chemscore.ZeroCoef>
-5.4800

> <Gold.Chemscore.Hbond>
1.9636

> <Gold.Chemscore.Metal>
0.0000

> <Gold.Chemscore.Lipo>
100.8079

> <Gold.Chemscore.Internal_Hbond>
0.0000

> <Gold.Chemscore.DEClash>
0.0190

> <Gold.Chemscore.DEInternal>
1.3656

> <Gold.Chemscore.Rot>
2.6470

> <Gold.Chemscore.Internal.Correction>
   9.000000E+99

> <Gold.Chemscore.Hbonds>
donor molecule, donor type, donor heavy atom, donor atom, acceptor molecule, acceptor atom, score
      L1  H     7    31       P1  7957  0.87
      P1  H  8011  8017       L1     7  0.07
      P1  H 10752 10765       L1    19  1.00

> <Gold.Chemscore.Hbond.Weighted>
-6.5584

> <Gold.Chemscore.Metal.Weighted>
-0.0000

> <Gold.Chemscore.Lipo.Weighted>
-11.7945

> <Gold.Chemscore.Internal_Hbond.Weighted>
0.0000

> <Gold.Chemscore.DEClash.Weighted>
0.0190

> <Gold.Chemscore.DEInternal.Weighted>
1.3656

> <Gold.Chemscore.Rot.Weighted>
6.7762

> <Gold.Chemscore.Internal.Correction.Weighted>
   9.000000E+99

> <Gold.Protein.RotatedTorsions>
[ 6907 6896 6895 6894 ] final   37.22 input  -60.11 | X-H torsion
[ 7974 7965 7964 7962 ] final  131.00 input  175.53 | X-H torsion
[ 8008 7997 7996 7995 ] final  -23.82 input   59.86 | X-H torsion
[ 10167 10162 10161 10158 ] final  115.32 input  -65.29 | X-H torsion
[ 10718 10713 10712 10709 ] final   87.53 input   66.30 | X-H torsion
[ 10763 10752 10751 10750 ] final  169.04 input  -60.55 | X-H torsion
[ 11005 11000 10999 10996 ] final    9.43 input  -57.11 | X-H torsion

> <Gold.Protein.ActiveResidues>
 VAL166  LYS551  ARG553  GLY616  TRP617  ASP618  TYR619  PRO620  LYS621  CYS622 
 ASP623  PHE694  ASN695  SER759  ASP760  ASP761  ALA762  ILE779  LEU786  VAL792 
 PHE793  MET794  SER795  GLU796  ALA797  LYS798  CYS799  TRP800  GLU811  SER814 

> <Gold.Protein.RotatedAtoms>
  152.1402  134.9068  160.0553 H   0  0  0  0  0  0  0  0  0  0  0  0  # atno 6907 bound_to 6896
  152.0139  133.3867  159.4239 H   0  0  0  0  0  0  0  0  0  0  0  0  # atno 6908 bound_to 6896
  150.6864  134.3622  159.4999 H   0  0  0  0  0  0  0  0  0  0  0  0  # atno 6909 bound_to 6896
  145.0120  139.4212  143.5240 H   0  0  0  0  0  0  0  0  0  0  0  0  # atno 7974 bound_to 7965
  154.4563  140.1970  156.0369 H   0  0  0  0  0  0  0  0  0  0  0  0  # atno 8008 bound_to 7997
  156.0753  140.3279  155.7598 H   0  0  0  0  0  0  0  0  0  0  0  0  # atno 8009 bound_to 7997
  155.5198  140.0569  157.2899 H   0  0  0  0  0  0  0  0  0  0  0  0  # atno 8010 bound_to 7997
  139.6325  144.7116  151.2402 H   0  0  0  0  0  0  0  0  0  0  0  0  # atno 10167 bound_to 10162
  157.6941  131.0259  150.3138 H   0  0  0  0  0  0  0  0  0  0  0  0  # atno 10718 bound_to 10713
  154.3773  135.2753  155.2232 H   0  0  0  0  0  0  0  0  0  0  0  0  # atno 10763 bound_to 10752
  154.4353  135.5967  153.6098 H   0  0  0  0  0  0  0  0  0  0  0  0  # atno 10764 bound_to 10752
  152.9836  135.6005  154.4011 H   0  0  0  0  0  0  0  0  0  0  0  0  # atno 10765 bound_to 10752
  140.5258  134.0514  155.7858 H   0  0  0  0  0  0  0  0  0  0  0  0  # atno 11005 bound_to 11000
  146.3471  139.9569  142.8722 LP  0  0  0  0  0  0  0  0  0  0  0  0  # atno 17320 bound_to 7965
  145.2011  140.9854  143.4155 LP  0  0  0  0  0  0  0  0  0  0  0  0  # atno 17321 bound_to 7965
  140.7447  143.6454  150.8297 LP  0  0  0  0  0  0  0  0  0  0  0  0  # atno 17342 bound_to 10162
  140.0081  143.5672  152.2850 LP  0  0  0  0  0  0  0  0  0  0  0  0  # atno 17343 bound_to 10162
  156.3635  130.3851  149.7232 LP  0  0  0  0  0  0  0  0  0  0  0  0  # atno 17370 bound_to 10713
  156.4670  130.7979  151.2997 LP  0  0  0  0  0  0  0  0  0  0  0  0  # atno 17371 bound_to 10713
  141.1309  133.9304  157.2537 LP  0  0  0  0  0  0  0  0  0  0  0  0  # atno 17394 bound_to 11000
  139.9581  135.0161  156.9184 LP  0  0  0  0  0  0  0  0  0  0  0  0  # atno 17395 bound_to 11000

$$$$
