AV-unprocessed.smi:3190|AV-procd|sdf|12195|dock3
  -GOLD-   2272018 33D 1   1.00000     0.00000
 Structure written by MMmdl.
 34 35  0  0  0  0  0  0  0  0  1 V2000
  150.8381  139.3648  156.5418 O   0  0  0  0  0  0  0  0  0  0  0  0
  150.8614  140.5832  156.3687 C   0  0  0  0  0  0  0  0  0  0  0  0
  151.8949  141.4267  157.1149 C   0  0  0  0  0  0  0  0  0  0  0  0
  151.2519  142.5675  157.6693 O   0  0  0  0  0  0  0  0  0  0  0  0
  151.9971  143.2338  158.6793 C   0  0  0  0  0  0  0  0  0  0  0  0
  152.3058  142.1984  159.7749 C   0  0  0  0  0  0  0  0  0  0  0  0
  153.0453  142.8377  160.9608 C   0  0  0  0  0  0  0  0  0  0  0  0
  152.2486  144.0175  161.5392 C   0  0  0  0  0  0  0  0  0  0  0  0
  151.9300  145.0575  160.4533 C   0  0  0  0  0  0  0  0  0  0  0  0
  151.1972  144.4178  159.2623 C   0  0  0  0  0  0  0  0  0  0  0  0
  150.0166  141.2590  155.5674 N   0  0  0  0  0  0  0  0  0  0  0  0
  148.9790  140.7424  154.7488 C   0  0  0  0  0  0  0  0  0  0  0  0
  147.9804  141.6691  154.3667 C   0  0  0  0  0  0  0  0  0  0  0  0
  146.9305  141.3296  153.5863 N   0  0  0  0  0  0  0  0  0  0  0  0
  146.8725  140.0441  153.1784 C   0  0  0  0  0  0  0  0  0  0  0  0
  147.8577  139.1072  153.5495 C   0  0  0  0  0  0  0  0  0  0  0  0
  148.9046  139.4531  154.3299 N   0  0  0  0  0  0  0  0  0  0  0  0
  152.3424  140.8199  157.9033 H   0  0  0  0  0  0  0  0  0  0  0  0
  152.6884  141.7200  156.4269 H   0  0  0  0  0  0  0  0  0  0  0  0
  152.9435  143.5918  158.2696 H   0  0  0  0  0  0  0  0  0  0  0  0
  151.3766  141.7479  160.1269 H   0  0  0  0  0  0  0  0  0  0  0  0
  152.9043  141.3866  159.3602 H   0  0  0  0  0  0  0  0  0  0  0  0
  153.2201  142.0909  161.7359 H   0  0  0  0  0  0  0  0  0  0  0  0
  154.0279  143.1827  160.6359 H   0  0  0  0  0  0  0  0  0  0  0  0
  151.3194  143.6509  161.9777 H   0  0  0  0  0  0  0  0  0  0  0  0
  152.8100  144.4846  162.3489 H   0  0  0  0  0  0  0  0  0  0  0  0
  151.3238  145.8601  160.8747 H   0  0  0  0  0  0  0  0  0  0  0  0
  152.8556  145.5189  160.1068 H   0  0  0  0  0  0  0  0  0  0  0  0
  151.0219  145.1770  158.5005 H   0  0  0  0  0  0  0  0  0  0  0  0
  150.2144  144.0715  159.5846 H   0  0  0  0  0  0  0  0  0  0  0  0
  150.1471  142.2595  155.5284 H   0  0  0  0  0  0  0  0  0  0  0  0
  148.0231  142.6992  154.6899 H   0  0  0  0  0  0  0  0  0  0  0  0
  146.0380  139.7616  152.5537 H   0  0  0  0  0  0  0  0  0  0  0  0
  147.8063  138.0800  153.2202 H   0  0  0  0  0  0  0  0  0  0  0  0
  1  2  2  0  0  0  0
  2  3  1  0  0  0  0
  2 11  1  0  0  0  0
  3  4  1  0  0  0  0
  3 18  1  0  0  0  0
  3 19  1  0  0  0  0
  4  5  1  0  0  0  0
  5 10  1  0  0  0  0
  5  6  1  0  0  0  0
  5 20  1  0  0  0  0
  6  7  1  0  0  0  0
  6 21  1  0  0  0  0
  6 22  1  0  0  0  0
  7  8  1  0  0  0  0
  7 23  1  0  0  0  0
  7 24  1  0  0  0  0
  8  9  1  0  0  0  0
  8 25  1  0  0  0  0
  8 26  1  0  0  0  0
  9 10  1  0  0  0  0
  9 27  1  0  0  0  0
  9 28  1  0  0  0  0
 10 29  1  0  0  0  0
 10 30  1  0  0  0  0
 11 12  1  0  0  0  0
 11 31  1  0  0  0  0
 12 17  1  0  0  0  0
 12 13  2  0  0  0  0
 13 14  1  0  0  0  0
 13 32  1  0  0  0  0
 14 15  2  0  0  0  0
 15 16  1  0  0  0  0
 15 33  1  0  0  0  0
 16 17  2  0  0  0  0
 16 34  1  0  0  0  0
M  END
> <s_m_source_file>
AV-unprocessed.smi

> <i_m_source_file_index>
3190

> <i_lp_mmshare_version>
43012

> <i_f3d_flags>
0

> <s_epik_input>
bjFbY0hdW2NIXW5bY0hdYzFbTkhdQyg9TylbQ0gyXU9bQ0hdMltDSDJdW0NIMl1bQ0gyXVtDSDJdW0NIMl0y

> <s_epik_cmdline>
J2VwaWtfcHl0aG9uJywgJy1waCcsICc3LjAnLCAnLXRuJywgJzgnLCAnLW1hJywgJzIwMCcsICctbWV0YWxfYmluZGluZycsICctaW1hZScsICc8aW5maWxlLm1hZT4nLCAnLW9tYWUnLCAnPG91dGZpbGUubWFlPic=

> <r_lp_tautomer_probability>
1

> <r_epik_Ionization_Penalty>
2.91572e-06

> <r_epik_Ionization_Penalty_Charging>
0

> <r_epik_Ionization_Penalty_Neutral>
2.91572e-06

> <r_epik_State_Penalty>
-0

> <r_epik_Charging_Adjusted_Penalty>
0

> <i_epik_Tot_Q>
0

> <i_epik_Tot_abs_Q>
0

> <r_epik_Metal_State_Penalty>
-0

> <b_epik_Metal_Only>
0

> <s_lp_Force_Field>
OPLS_2005

> <r_lp_Energy>
19.8826

> <b_lp_Chiralities_Consistent>
1

> <s_lp_Variant>
AV-unprocessed.smi:3190-1

> <Gold.Version>
5.8.1

> <Gold.Id.Protein>
6NUR|6NUR_protein|mol2

> <Gold.PLP.Fitness>
43.0536

> <Gold.PLP.PLP>
-34.7173

> <Gold.PLP.part.hbond>
0.0000

> <Gold.PLP.part.metal>
0.0000

> <Gold.PLP.part.buried>
-4.8006

> <Gold.PLP.part.nonpolar>
-30.1359

> <Gold.PLP.part.repulsive>
0.5378

> <Gold.PLP.ligand.clash>
0.0000

> <Gold.PLP.ligand.torsion>
0.3326

> <Gold.PLP.Chemscore.Hbond>
0.0000

> <Gold.PLP.Chemscore.CHOScore>
2.9972

> <Gold.PLP.Chemscore.Metal>
0.0000

> <Gold.Chemscore.Hbonds>
donor molecule, donor type, donor heavy atom, donor atom, acceptor molecule, acceptor atom, score
      L1  C    13    32       P1  8028  1.00
      L1  C    15    33       P1 10175  1.00
      L1  C    16    34       P1  7948  0.94

> <Gold.PLP.Chemscore.Internal.Correction>
0.0098

> <Gold.Rescore>
     Score         DG    S(hbond)    S(metal)    S(lipo)     H(rot)  DE(clash)    DE(int)     intcor
     11.04     -12.65       0.00        0.00      94.48       1.52       0.02       1.59       ----

> <Gold.Chemscore.Fitness>
11.0374

> <Gold.Chemscore.DG>
-12.6523

> <Gold.Chemscore.ZeroCoef>
-5.4800

> <Gold.Chemscore.Hbond>
0.0000

> <Gold.Chemscore.Metal>
0.0000

> <Gold.Chemscore.Lipo>
94.4847

> <Gold.Chemscore.Internal_Hbond>
0.0000

> <Gold.Chemscore.DEClash>
0.0222

> <Gold.Chemscore.DEInternal>
1.5927

> <Gold.Chemscore.Rot>
1.5166

> <Gold.Chemscore.Internal.Correction>
   9.000000E+99

> <Gold.Chemscore.Hbond.Weighted>
-0.0000

> <Gold.Chemscore.Metal.Weighted>
-0.0000

> <Gold.Chemscore.Lipo.Weighted>
-11.0547

> <Gold.Chemscore.Internal_Hbond.Weighted>
0.0000

> <Gold.Chemscore.DEClash.Weighted>
0.0222

> <Gold.Chemscore.DEInternal.Weighted>
1.5927

> <Gold.Chemscore.Rot.Weighted>
3.8824

> <Gold.Chemscore.Internal.Correction.Weighted>
   9.000000E+99

> <Gold.Protein.RotatedTorsions>
[ 6907 6896 6895 6894 ] final -161.27 input  -60.11 | X-H torsion
[ 7974 7965 7964 7962 ] final   11.48 input  175.53 | X-H torsion
[ 8008 7997 7996 7995 ] final  -98.93 input   59.86 | X-H torsion
[ 10167 10162 10161 10158 ] final   57.85 input  -65.29 | X-H torsion
[ 10718 10713 10712 10709 ] final   87.62 input   66.30 | X-H torsion
[ 10763 10752 10751 10750 ] final   70.20 input  -60.55 | X-H torsion
[ 11005 11000 10999 10996 ] final  -88.56 input  -57.11 | X-H torsion

> <Gold.Protein.ActiveResidues>
 VAL166  LYS551  ARG553  GLY616  TRP617  ASP618  TYR619  PRO620  LYS621  CYS622 
 ASP623  PHE694  ASN695  SER759  ASP760  ASP761  ALA762  ILE779  LEU786  VAL792 
 PHE793  MET794  SER795  GLU796  ALA797  LYS798  CYS799  TRP800  GLU811  SER814 

> <Gold.Protein.RotatedAtoms>
  151.3620  133.3886  159.2690 H   0  0  0  0  0  0  0  0  0  0  0  0  # atno 6907 bound_to 6896
  150.9718  134.9090  159.7803 H   0  0  0  0  0  0  0  0  0  0  0  0  # atno 6908 bound_to 6896
  152.5187  134.3582  159.9327 H   0  0  0  0  0  0  0  0  0  0  0  0  # atno 6909 bound_to 6896
  146.2370  139.9479  142.8474 H   0  0  0  0  0  0  0  0  0  0  0  0  # atno 7974 bound_to 7965
  154.8080  140.0451  157.1321 H   0  0  0  0  0  0  0  0  0  0  0  0  # atno 8008 bound_to 7997
  154.9402  140.3051  155.5104 H   0  0  0  0  0  0  0  0  0  0  0  0  # atno 8009 bound_to 7997
  156.2969  140.2307  156.4470 H   0  0  0  0  0  0  0  0  0  0  0  0  # atno 8010 bound_to 7997
  140.1935  144.4061  150.6560 H   0  0  0  0  0  0  0  0  0  0  0  0  # atno 10167 bound_to 10162
  157.6942  131.0263  150.3151 H   0  0  0  0  0  0  0  0  0  0  0  0  # atno 10718 bound_to 10713
  153.0329  135.5182  154.7405 H   0  0  0  0  0  0  0  0  0  0  0  0  # atno 10763 bound_to 10752
  154.6406  135.2912  155.0110 H   0  0  0  0  0  0  0  0  0  0  0  0  # atno 10764 bound_to 10752
  154.1029  135.6633  153.4924 H   0  0  0  0  0  0  0  0  0  0  0  0  # atno 10765 bound_to 10752
  141.1599  133.7577  156.9469 H   0  0  0  0  0  0  0  0  0  0  0  0  # atno 11005 bound_to 11000
  145.1889  140.9802  143.4222 LP  0  0  0  0  0  0  0  0  0  0  0  0  # atno 17320 bound_to 7965
  144.9875  139.3722  143.6231 LP  0  0  0  0  0  0  0  0  0  0  0  0  # atno 17321 bound_to 7965
  140.6439  143.2209  151.6228 LP  0  0  0  0  0  0  0  0  0  0  0  0  # atno 17342 bound_to 10162
  139.5246  144.3099  152.1002 LP  0  0  0  0  0  0  0  0  0  0  0  0  # atno 17343 bound_to 10162
  156.3647  130.3853  149.7223 LP  0  0  0  0  0  0  0  0  0  0  0  0  # atno 17370 bound_to 10713
  156.4658  130.7973  151.2992 LP  0  0  0  0  0  0  0  0  0  0  0  0  # atno 17371 bound_to 10713
  140.1283  134.9372  157.2302 LP  0  0  0  0  0  0  0  0  0  0  0  0  # atno 17394 bound_to 11000
  140.2984  134.3159  155.7296 LP  0  0  0  0  0  0  0  0  0  0  0  0  # atno 17395 bound_to 11000

$$$$
