AV-unprocessed.smi:2032|AV-procd|sdf|8254|dock5
  -GOLD-   2272010523D 1   1.00000     0.00000
 Structure written by MMmdl.
 42 43  0  0  0  0  0  0  0  0  3 V2000
  147.1577  130.0559  152.8935 C   0  0  0  0  0  0  0  0  0  0  0  0
  146.5715  131.4323  152.5610 C   0  0  1  0  0  0  0  0  0  0  0  0
  147.6497  132.5380  152.5729 C   0  0  0  0  0  0  0  0  0  0  0  0
  147.0750  133.8546  152.1819 N   0  3  2  0  0  0  0  0  0  0  0  0
  146.2159  134.5193  153.2219 C   0  0  1  0  0  0  0  0  0  0  0  0
  147.0117  134.8187  154.5159 C   0  0  0  0  0  0  0  0  0  0  0  0
  145.5614  135.8258  152.6906 C   0  0  0  0  0  0  0  0  0  0  0  0
  146.5183  136.9170  152.5292 N   0  0  0  0  0  0  0  0  0  0  0  0
  146.4320  138.1219  153.1111 C   0  0  0  0  0  0  0  0  0  0  0  0
  145.4700  138.3857  153.8368 O   0  0  0  0  0  0  0  0  0  0  0  0
  147.4680  138.9404  152.8233 N   0  5  0  0  0  0  0  0  0  0  0  0
  147.6453  140.0705  153.5268 C   0  0  0  0  0  0  0  0  0  0  0  0
  146.6941  141.0009  153.6655 N   0  0  0  0  0  0  0  0  0  0  0  0
  147.0962  142.0953  154.4336 C   0  0  0  0  0  0  0  0  0  0  0  0
  148.3866  141.9995  154.8830 C   0  0  0  0  0  0  0  0  0  0  0  0
  149.1400  140.5234  154.3512 S   0  0  0  0  0  0  0  0  0  0  0  0
  146.4534  133.6947  150.8383 C   0  0  0  0  0  0  0  0  0  0  0  0
  145.3851  132.5803  150.8441 C   0  0  1  0  0  0  0  0  0  0  0  0
  144.7826  132.3571  149.4525 C   0  0  0  0  0  0  0  0  0  0  0  0
  145.9949  131.3614  151.2599 O   0  0  0  0  0  0  0  0  0  0  0  0
  147.5990  130.0480  153.8904 H   0  0  0  0  0  0  0  0  0  0  0  0
  147.9337  129.7730  152.1815 H   0  0  0  0  0  0  0  0  0  0  0  0
  146.3854  129.2868  152.8669 H   0  0  0  0  0  0  0  0  0  0  0  0
  145.7904  131.6543  153.2894 H   0  0  0  0  0  0  0  0  0  0  0  0
  148.1694  132.5764  153.5279 H   0  0  0  0  0  0  0  0  0  0  0  0
  148.4251  132.2830  151.8490 H   0  0  0  0  0  0  0  0  0  0  0  0
  145.4153  133.8327  153.4930 H   0  0  0  0  0  0  0  0  0  0  0  0
  146.4240  135.3852  155.2378 H   0  0  0  0  0  0  0  0  0  0  0  0
  147.9110  135.3971  154.3029 H   0  0  0  0  0  0  0  0  0  0  0  0
  147.3043  133.9104  155.0408 H   0  0  0  0  0  0  0  0  0  0  0  0
  145.0904  135.6412  151.7248 H   0  0  0  0  0  0  0  0  0  0  0  0
  144.7801  136.1984  153.3503 H   0  0  0  0  0  0  0  0  0  0  0  0
  147.3185  136.7433  151.9383 H   0  0  0  0  0  0  0  0  0  0  0  0
  146.3981  142.9002  154.6088 H   0  0  0  0  0  0  0  0  0  0  0  0
  148.9378  142.7025  155.4890 H   0  0  0  0  0  0  0  0  0  0  0  0
  146.0526  134.6251  150.4446 H   0  0  0  0  0  0  0  0  0  0  0  0
  147.2425  133.4209  150.1362 H   0  0  0  0  0  0  0  0  0  0  0  0
  144.5737  132.8318  151.5282 H   0  0  0  0  0  0  0  0  0  0  0  0
  144.2939  133.2606  149.0874 H   0  0  0  0  0  0  0  0  0  0  0  0
  144.0366  131.5624  149.4736 H   0  0  0  0  0  0  0  0  0  0  0  0
  145.5493  132.0755  148.7298 H   0  0  0  0  0  0  0  0  0  0  0  0
  147.8603  134.4771  152.0558 H   0  0  0  0  0  0  0  0  0  0  0  0
  1  2  1  0  0  0  0
  1 21  1  0  0  0  0
  1 22  1  0  0  0  0
  1 23  1  0  0  0  0
  2 20  1  0  0  0  0
  2  3  1  0  0  0  0
  2 24  1  0  0  0  0
  3  4  1  0  0  0  0
  3 25  1  0  0  0  0
  3 26  1  0  0  0  0
  4  5  1  0  0  0  0
  4 17  1  0  0  0  0
  4 42  1  0  0  0  0
  5  6  1  0  0  0  0
  5  7  1  0  0  0  0
  5 27  1  0  0  0  0
  6 28  1  0  0  0  0
  6 29  1  0  0  0  0
  6 30  1  0  0  0  0
  7  8  1  0  0  0  0
  7 31  1  0  0  0  0
  7 32  1  0  0  0  0
  8  9  1  0  0  0  0
  8 33  1  0  0  0  0
  9 10  2  0  0  0  0
  9 11  1  0  0  0  0
 11 12  1  0  0  0  0
 12 16  1  0  0  0  0
 12 13  2  0  0  0  0
 13 14  1  0  0  0  0
 14 15  2  0  0  0  0
 14 34  1  0  0  0  0
 15 16  1  0  0  0  0
 15 35  1  0  0  0  0
 17 18  1  0  0  0  0
 17 36  1  0  0  0  0
 17 37  1  0  0  0  0
 18 19  1  0  0  0  0
 18 20  1  0  0  0  0
 18 38  1  0  0  0  0
 19 39  1  0  0  0  0
 19 40  1  0  0  0  0
 19 41  1  0  0  0  0
M  CHG  1   4   1
M  CHG  1  11  -1
M  END
> <s_m_source_file>
AV-unprocessed.smi

> <i_m_source_file_index>
2032

> <i_lp_mmshare_version>
43012

> <i_f3d_flags>
0

> <s_epik_input>
W0NIM11bQ0BASF0xW0NIMl1OKFtDSDJdW0NASF0oTzEpW0NIM10pW0NASF0oW0NIM10pW0NIMl1bTkhdQyg9TylbTkhdYzJuW2NIXVtjSF1zMg==

> <s_epik_cmdline>
J2VwaWtfcHl0aG9uJywgJy1waCcsICc3LjAnLCAnLXRuJywgJzgnLCAnLW1hJywgJzIwMCcsICctbWV0YWxfYmluZGluZycsICctaW1hZScsICc8aW5maWxlLm1hZT4nLCAnLW9tYWUnLCAnPG91dGZpbGUubWFlPic=

> <r_lp_tautomer_probability>
0.999

> <r_epik_Ionization_Penalty>
6.71699

> <r_epik_Ionization_Penalty_Charging>
5.88592

> <r_epik_Ionization_Penalty_Neutral>
0.831074

> <r_epik_State_Penalty>
6.08365

> <r_epik_Charging_Adjusted_Penalty>
11.9696

> <i_epik_Tot_Q>
0

> <i_epik_Tot_abs_Q>
2

> <r_epik_Metal_State_Penalty>
2.0947

> <b_epik_Metal_Only>
1

> <s_lp_Force_Field>
OPLS_2005

> <r_lp_Energy>
10.9106

> <b_lp_Chiralities_Consistent>
1

> <s_lp_Variant>
AV-unprocessed.smi:2032-24

> <Gold.Version>
5.8.1

> <Gold.Id.Protein>
6NUR|6NUR_protein|mol2

> <Gold.PLP.Fitness>
39.0937

> <Gold.PLP.PLP>
-28.2841

> <Gold.PLP.part.hbond>
-2.0000

> <Gold.PLP.part.metal>
0.0000

> <Gold.PLP.part.buried>
-1.6585

> <Gold.PLP.part.nonpolar>
-26.3498

> <Gold.PLP.part.repulsive>
2.7476

> <Gold.PLP.ligand.clash>
0.0000

> <Gold.PLP.ligand.torsion>
0.6404

> <Gold.PLP.Chemscore.Hbond>
2.9920

> <Gold.PLP.Chemscore.CHOScore>
1.0000

> <Gold.PLP.Chemscore.Metal>
0.0000

> <Gold.Chemscore.Hbonds>
donor molecule, donor type, donor heavy atom, donor atom, acceptor molecule, acceptor atom, score
      L1  H     4    42       P1  7948  2.00
      L1  H     8    33       P1  7948  0.96
      L1  C    15    35       P1  8028  0.97

> <Gold.PLP.Chemscore.Internal.Correction>
0.1143

> <Gold.Rescore>
     Score         DG    S(hbond)    S(metal)    S(lipo)     H(rot)  DE(clash)    DE(int)     intcor
     12.00     -14.01       1.37        0.00      68.46       1.58       0.11       1.90       ----

> <Gold.Chemscore.Fitness>
11.9965

> <Gold.Chemscore.DG>
-14.0089

> <Gold.Chemscore.ZeroCoef>
-5.4800

> <Gold.Chemscore.Hbond>
1.3659

> <Gold.Chemscore.Metal>
0.0000

> <Gold.Chemscore.Lipo>
68.4568

> <Gold.Chemscore.Internal_Hbond>
0.0000

> <Gold.Chemscore.DEClash>
0.1140

> <Gold.Chemscore.DEInternal>
1.8984

> <Gold.Chemscore.Rot>
1.5791

> <Gold.Chemscore.Internal.Correction>
   9.000000E+99

> <Gold.Chemscore.Hbonds>
donor molecule, donor type, donor heavy atom, donor atom, acceptor molecule, acceptor atom, score
      L1  H     4    42       P1  7948  0.24
      L1  H     8    33       P1  7948  0.92

> <Gold.Chemscore.Hbond.Weighted>
-4.5620

> <Gold.Chemscore.Metal.Weighted>
-0.0000

> <Gold.Chemscore.Lipo.Weighted>
-8.0094

> <Gold.Chemscore.Internal_Hbond.Weighted>
0.0000

> <Gold.Chemscore.DEClash.Weighted>
0.1140

> <Gold.Chemscore.DEInternal.Weighted>
1.8984

> <Gold.Chemscore.Rot.Weighted>
4.0425

> <Gold.Chemscore.Internal.Correction.Weighted>
   9.000000E+99

> <Gold.Protein.RotatedTorsions>
[ 6907 6896 6895 6894 ] final   79.59 input  -60.11 | X-H torsion
[ 7974 7965 7964 7962 ] final   37.90 input  175.53 | X-H torsion
[ 8008 7997 7996 7995 ] final -167.97 input   59.86 | X-H torsion
[ 10167 10162 10161 10158 ] final  126.89 input  -65.29 | X-H torsion
[ 10718 10713 10712 10709 ] final  -86.18 input   66.30 | X-H torsion
[ 10763 10752 10751 10750 ] final   77.65 input  -60.55 | X-H torsion
[ 11005 11000 10999 10996 ] final   77.95 input  -57.11 | X-H torsion

> <Gold.Protein.ActiveResidues>
 VAL166  LYS551  ARG553  GLY616  TRP617  ASP618  TYR619  PRO620  LYS621  CYS622 
 ASP623  PHE694  ASN695  SER759  ASP760  ASP761  ALA762  ILE779  LEU786  VAL792 
 PHE793  MET794  SER795  GLU796  ALA797  LYS798  CYS799  TRP800  GLU811  SER814 

> <Gold.Protein.RotatedAtoms>
  152.5204  134.3487  159.9243 H   0  0  0  0  0  0  0  0  0  0  0  0  # atno 6907 bound_to 6896
  151.3438  133.3945  159.2681 H   0  0  0  0  0  0  0  0  0  0  0  0  # atno 6908 bound_to 6896
  150.9782  134.9160  159.7886 H   0  0  0  0  0  0  0  0  0  0  0  0  # atno 6909 bound_to 6896
  146.1103  139.5838  142.9357 H   0  0  0  0  0  0  0  0  0  0  0  0  # atno 7974 bound_to 7965
  155.8850  140.1015  157.1458 H   0  0  0  0  0  0  0  0  0  0  0  0  # atno 8008 bound_to 7997
  154.4009  140.1321  156.4308 H   0  0  0  0  0  0  0  0  0  0  0  0  # atno 8009 bound_to 7997
  155.7599  140.3463  155.5195 H   0  0  0  0  0  0  0  0  0  0  0  0  # atno 8010 bound_to 7997
  139.5607  144.6880  151.4051 H   0  0  0  0  0  0  0  0  0  0  0  0  # atno 10167 bound_to 10162
  155.9991  130.4756  150.4675 H   0  0  0  0  0  0  0  0  0  0  0  0  # atno 10718 bound_to 10713
  153.0814  135.4906  154.8511 H   0  0  0  0  0  0  0  0  0  0  0  0  # atno 10763 bound_to 10752
  154.7156  135.3029  154.9131 H   0  0  0  0  0  0  0  0  0  0  0  0  # atno 10764 bound_to 10752
  153.9811  135.6789  153.4803 H   0  0  0  0  0  0  0  0  0  0  0  0  # atno 10765 bound_to 10752
  139.9233  134.7724  156.1588 H   0  0  0  0  0  0  0  0  0  0  0  0  # atno 11005 bound_to 11000
  145.5678  141.0397  143.2191 LP  0  0  0  0  0  0  0  0  0  0  0  0  # atno 17320 bound_to 7965
  144.7505  139.7205  143.7275 LP  0  0  0  0  0  0  0  0  0  0  0  0  # atno 17321 bound_to 7965
  140.6886  143.7914  150.7223 LP  0  0  0  0  0  0  0  0  0  0  0  0  # atno 17342 bound_to 10162
  140.1389  143.4458  152.2206 LP  0  0  0  0  0  0  0  0  0  0  0  0  # atno 17343 bound_to 10162
  157.2693  131.0583  151.2270 LP  0  0  0  0  0  0  0  0  0  0  0  0  # atno 17370 bound_to 10713
  157.3356  130.7007  149.6350 LP  0  0  0  0  0  0  0  0  0  0  0  0  # atno 17371 bound_to 10713
  141.0771  133.6771  156.2258 LP  0  0  0  0  0  0  0  0  0  0  0  0  # atno 17394 bound_to 11000
  140.6411  134.5165  157.5569 LP  0  0  0  0  0  0  0  0  0  0  0  0  # atno 17395 bound_to 11000

$$$$
