AV-unprocessed.smi:3142|AV-procd|sdf|11972|dock1
  -GOLD-   2272017373D 1   1.00000     0.00000
 Structure written by MMmdl.
 37 39  0  0  0  0  0  0  0  0  2 V2000
  151.8283  139.1804  156.3178 C   0  0  0  0  0  0  0  0  0  0  0  0
  151.1517  140.5124  155.9402 C   0  0  2  0  0  0  0  0  0  0  0  0
  150.7789  141.3520  157.1710 C   0  0  0  0  0  0  0  0  0  0  0  0
  149.5980  141.5898  157.4265 O   0  0  0  0  0  0  0  0  0  0  0  0
  151.8016  141.8082  157.9114 N   0  0  0  0  0  0  0  0  0  0  0  0
  151.6865  142.6529  159.0952 C   0  0  0  0  0  0  0  0  0  0  0  0
  151.5325  144.1149  158.7187 C   0  0  0  0  0  0  0  0  0  0  0  0
  151.7687  145.2179  159.7228 C   0  0  0  0  0  0  0  0  0  0  0  0
  150.3689  144.9310  159.2277 C   0  0  0  0  0  0  0  0  0  0  0  0
  152.8505  142.4745  160.0559 C   0  0  0  0  0  0  0  0  0  0  0  0
  152.9844  141.2387  160.9138 C   0  0  0  0  0  0  0  0  0  0  0  0
  152.6544  142.5691  161.5510 C   0  0  0  0  0  0  0  0  0  0  0  0
  149.9720  140.3074  155.0830 N   0  0  0  0  0  0  0  0  0  0  0  0
  149.1449  141.2782  154.5762 C   0  0  0  0  0  0  0  0  0  0  0  0
  148.1725  140.6318  153.8576 C   0  0  0  0  0  0  0  0  0  0  0  0
  148.4397  139.2933  153.9599 N   0  3  0  0  0  0  0  0  0  0  0  0
  149.5303  139.0970  154.7073 C   0  0  0  0  0  0  0  0  0  0  0  0
  152.7271  139.3526  156.9109 H   0  0  0  0  0  0  0  0  0  0  0  0
  152.1283  138.6304  155.4253 H   0  0  0  0  0  0  0  0  0  0  0  0
  151.1702  138.5329  156.8986 H   0  0  0  0  0  0  0  0  0  0  0  0
  151.8698  141.0848  155.3502 H   0  0  0  0  0  0  0  0  0  0  0  0
  152.7379  141.5593  157.6269 H   0  0  0  0  0  0  0  0  0  0  0  0
  150.7764  142.3694  159.6283 H   0  0  0  0  0  0  0  0  0  0  0  0
  151.8498  144.3343  157.7007 H   0  0  0  0  0  0  0  0  0  0  0  0
  152.0027  144.9356  160.7470 H   0  0  0  0  0  0  0  0  0  0  0  0
  152.2527  146.1250  159.3672 H   0  0  0  0  0  0  0  0  0  0  0  0
  149.9202  145.6473  158.5426 H   0  0  0  0  0  0  0  0  0  0  0  0
  149.6794  144.4539  159.9212 H   0  0  0  0  0  0  0  0  0  0  0  0
  153.7851  142.8888  159.6814 H   0  0  0  0  0  0  0  0  0  0  0  0
  152.1902  140.4964  160.8674 H   0  0  0  0  0  0  0  0  0  0  0  0
  153.9856  140.8412  161.0664 H   0  0  0  0  0  0  0  0  0  0  0  0
  153.4352  143.0574  162.1305 H   0  0  0  0  0  0  0  0  0  0  0  0
  151.6421  142.7023  161.9271 H   0  0  0  0  0  0  0  0  0  0  0  0
  149.3044  142.3310  154.7594 H   0  0  0  0  0  0  0  0  0  0  0  0
  147.3304  141.0139  153.2988 H   0  0  0  0  0  0  0  0  0  0  0  0
  149.9658  138.1467  154.9616 H   0  0  0  0  0  0  0  0  0  0  0  0
  147.8907  138.5560  153.5362 H   0  0  0  0  0  0  0  0  0  0  0  0
  1  2  1  0  0  0  0
  1 18  1  0  0  0  0
  1 19  1  0  0  0  0
  1 20  1  0  0  0  0
  2  3  1  0  0  0  0
  2 13  1  0  0  0  0
  2 21  1  0  0  0  0
  3  4  2  0  0  0  0
  3  5  1  0  0  0  0
  5  6  1  0  0  0  0
  5 22  1  0  0  0  0
  6  7  1  0  0  0  0
  6 10  1  0  0  0  0
  6 23  1  0  0  0  0
  7  9  1  0  0  0  0
  7  8  1  0  0  0  0
  7 24  1  0  0  0  0
  8  9  1  0  0  0  0
  8 25  1  0  0  0  0
  8 26  1  0  0  0  0
  9 27  1  0  0  0  0
  9 28  1  0  0  0  0
 10 12  1  0  0  0  0
 10 11  1  0  0  0  0
 10 29  1  0  0  0  0
 11 12  1  0  0  0  0
 11 30  1  0  0  0  0
 11 31  1  0  0  0  0
 12 32  1  0  0  0  0
 12 33  1  0  0  0  0
 13 17  1  0  0  0  0
 13 14  1  0  0  0  0
 14 15  2  0  0  0  0
 14 34  1  0  0  0  0
 15 16  1  0  0  0  0
 15 35  1  0  0  0  0
 16 17  2  0  0  0  0
 16 37  1  0  0  0  0
 17 36  1  0  0  0  0
M  CHG  1  16   1
M  END
> <s_m_source_file>
AV-unprocessed.smi

> <i_m_source_file_index>
3142

> <i_lp_mmshare_version>
43012

> <i_f3d_flags>
0

> <s_epik_input>
W2NIXTFuW2NIXVtjSF1uMVtDQEhdKFtDSDNdKUMoPU8pW05IXVtDSF0oW0NIXTJbQ0gyXVtDSDJdMilbQ0hdM1tDSDJdW0NIMl0z

> <s_epik_cmdline>
J2VwaWtfcHl0aG9uJywgJy1waCcsICc3LjAnLCAnLXRuJywgJzgnLCAnLW1hJywgJzIwMCcsICctbWV0YWxfYmluZGluZycsICctaW1hZScsICc8aW5maWxlLm1hZT4nLCAnLW9tYWUnLCAnPG91dGZpbGUubWFlPic=

> <r_lp_tautomer_probability>
1

> <r_epik_Ionization_Penalty>
0.513834

> <r_epik_Ionization_Penalty_Charging>
0

> <r_epik_Ionization_Penalty_Neutral>
0.513834

> <r_epik_State_Penalty>
0.521297

> <r_epik_Charging_Adjusted_Penalty>
0.521297

> <i_epik_Tot_Q>
1

> <i_epik_Tot_abs_Q>
1

> <r_epik_Metal_State_Penalty>
0.730424

> <b_epik_Metal_Only>
0

> <s_lp_Force_Field>
OPLS_2005

> <r_lp_Energy>
30.7563

> <b_lp_Chiralities_Consistent>
1

> <s_lp_Variant>
AV-unprocessed.smi:3142-3

> <Gold.Version>
5.8.1

> <Gold.Id.Protein>
6NUR|6NUR_protein|mol2

> <Gold.PLP.Fitness>
46.2803

> <Gold.PLP.PLP>
-44.8783

> <Gold.PLP.part.hbond>
-1.0000

> <Gold.PLP.part.metal>
0.0000

> <Gold.PLP.part.buried>
-0.9809

> <Gold.PLP.part.nonpolar>
-41.5489

> <Gold.PLP.part.repulsive>
0.2387

> <Gold.PLP.ligand.clash>
0.0000

> <Gold.PLP.ligand.torsion>
1.9514

> <Gold.PLP.Chemscore.Hbond>
0.0000

> <Gold.PLP.Chemscore.CHOScore>
1.0000

> <Gold.PLP.Chemscore.Metal>
0.0000

> <Gold.Chemscore.Hbonds>
donor molecule, donor type, donor heavy atom, donor atom, acceptor molecule, acceptor atom, score
      L1  C    14    34       P1  8028  0.89

> <Gold.PLP.Chemscore.Internal.Correction>
2.3049

> <Gold.Rescore>
     Score         DG    S(hbond)    S(metal)    S(lipo)     H(rot)  DE(clash)    DE(int)     intcor
     11.22     -13.13       0.00        0.00     107.46       1.92       0.06       1.86       ----

> <Gold.Chemscore.Fitness>
11.2155

> <Gold.Chemscore.DG>
-13.1289

> <Gold.Chemscore.ZeroCoef>
-5.4800

> <Gold.Chemscore.Hbond>
0.0000

> <Gold.Chemscore.Metal>
0.0000

> <Gold.Chemscore.Lipo>
107.4554

> <Gold.Chemscore.Internal_Hbond>
0.0000

> <Gold.Chemscore.DEClash>
0.0584

> <Gold.Chemscore.DEInternal>
1.8550

> <Gold.Chemscore.Rot>
1.9232

> <Gold.Chemscore.Internal.Correction>
   9.000000E+99

> <Gold.Chemscore.Hbond.Weighted>
-0.0000

> <Gold.Chemscore.Metal.Weighted>
-0.0000

> <Gold.Chemscore.Lipo.Weighted>
-12.5723

> <Gold.Chemscore.Internal_Hbond.Weighted>
0.0000

> <Gold.Chemscore.DEClash.Weighted>
0.0584

> <Gold.Chemscore.DEInternal.Weighted>
1.8550

> <Gold.Chemscore.Rot.Weighted>
4.9233

> <Gold.Chemscore.Internal.Correction.Weighted>
   9.000000E+99

> <Gold.Protein.RotatedTorsions>
[ 6907 6896 6895 6894 ] final   64.14 input  -60.11 | X-H torsion
[ 7974 7965 7964 7962 ] final -178.37 input  175.53 | X-H torsion
[ 8008 7997 7996 7995 ] final  -27.42 input   59.86 | X-H torsion
[ 10167 10162 10161 10158 ] final  147.89 input  -65.29 | X-H torsion
[ 10718 10713 10712 10709 ] final  151.13 input   66.30 | X-H torsion
[ 10763 10752 10751 10750 ] final -125.00 input  -60.55 | X-H torsion
[ 11005 11000 10999 10996 ] final  121.96 input  -57.11 | X-H torsion

> <Gold.Protein.ActiveResidues>
 VAL166  LYS551  ARG553  GLY616  TRP617  ASP618  TYR619  PRO620  LYS621  CYS622 
 ASP623  PHE694  ASN695  SER759  ASP760  ASP761  ALA762  ILE779  LEU786  VAL792 
 PHE793  MET794  SER795  GLU796  ALA797  LYS798  CYS799  TRP800  GLU811  SER814 

> <Gold.Protein.RotatedAtoms>
  152.4308  134.5780  159.9939 H   0  0  0  0  0  0  0  0  0  0  0  0  # atno 6907 bound_to 6896
  151.5904  133.3361  159.3034 H   0  0  0  0  0  0  0  0  0  0  0  0  # atno 6908 bound_to 6896
  150.8201  134.7440  159.6829 H   0  0  0  0  0  0  0  0  0  0  0  0  # atno 6909 bound_to 6896
  144.7131  140.0878  143.6422 H   0  0  0  0  0  0  0  0  0  0  0  0  # atno 7974 bound_to 7965
  154.4378  140.1873  156.0929 H   0  0  0  0  0  0  0  0  0  0  0  0  # atno 8008 bound_to 7997
  156.0352  140.3326  155.7157 H   0  0  0  0  0  0  0  0  0  0  0  0  # atno 8009 bound_to 7997
  155.5781  140.0619  157.2781 H   0  0  0  0  0  0  0  0  0  0  0  0  # atno 8010 bound_to 7997
  139.4883  144.5721  151.7034 H   0  0  0  0  0  0  0  0  0  0  0  0  # atno 10167 bound_to 10162
  157.2746  131.0823  151.1575 H   0  0  0  0  0  0  0  0  0  0  0  0  # atno 10718 bound_to 10713
  154.8730  135.4044  154.3197 H   0  0  0  0  0  0  0  0  0  0  0  0  # atno 10763 bound_to 10752
  153.4028  135.7018  153.6420 H   0  0  0  0  0  0  0  0  0  0  0  0  # atno 10764 bound_to 10752
  153.5155  135.3698  155.2578 H   0  0  0  0  0  0  0  0  0  0  0  0  # atno 10765 bound_to 10752
  139.9248  134.9640  156.8038 H   0  0  0  0  0  0  0  0  0  0  0  0  # atno 11005 bound_to 11000
  145.9646  139.2825  143.1135 LP  0  0  0  0  0  0  0  0  0  0  0  0  # atno 17320 bound_to 7965
  145.9183  140.9133  143.0418 LP  0  0  0  0  0  0  0  0  0  0  0  0  # atno 17321 bound_to 7965
  140.5311  144.0729  150.6054 LP  0  0  0  0  0  0  0  0  0  0  0  0  # atno 17342 bound_to 10162
  140.3720  143.2849  152.0268 LP  0  0  0  0  0  0  0  0  0  0  0  0  # atno 17343 bound_to 10162
  157.3033  130.6853  149.6176 LP  0  0  0  0  0  0  0  0  0  0  0  0  # atno 17370 bound_to 10713
  155.9663  130.4385  150.5221 LP  0  0  0  0  0  0  0  0  0  0  0  0  # atno 17371 bound_to 10713
  140.6368  133.9855  155.7688 LP  0  0  0  0  0  0  0  0  0  0  0  0  # atno 17394 bound_to 11000
  141.0797  134.0081  157.3404 LP  0  0  0  0  0  0  0  0  0  0  0  0  # atno 17395 bound_to 11000

$$$$
