AV-unprocessed.smi:1930|AV-procd|sdf|7809|dock5
  -GOLD-   22720 9553D 1   1.00000     0.00000
 Structure written by MMmdl.
 41 42  0  0  0  0  0  0  0  0  1 V2000
  150.6467  140.9610  157.9987 C   0  0  0  0  0  0  0  0  0  0  0  0
  151.4458  139.8466  156.7729 S   0  0  0  0  0  0  0  0  0  0  0  0
  151.4384  140.5193  155.4648 O   0  0  0  0  0  0  0  0  0  0  0  0
  152.7165  139.3716  157.3415 O   0  0  0  0  0  0  0  0  0  0  0  0
  150.3618  138.4896  156.6816 N   0  0  0  0  0  0  0  0  0  0  0  0
  150.6833  137.2543  157.4328 C   0  0  0  0  0  0  0  0  0  0  0  0
  151.1973  136.1408  156.4997 C   0  0  0  0  0  0  0  0  0  0  0  0
  150.2131  135.9293  155.4300 N   0  0  0  0  0  0  0  0  0  0  0  0
  149.3369  134.8991  155.3266 C   0  0  0  0  0  0  0  0  0  0  0  0
  149.1013  134.1185  156.2497 O   0  0  0  0  0  0  0  0  0  0  0  0
  148.7156  134.8072  154.1399 N   0  0  0  0  0  0  0  0  0  0  0  0
  147.7390  133.7845  153.7940 C   0  0  0  0  0  0  0  0  0  0  0  0
  147.9529  133.3023  152.3534 C   0  0  0  0  0  0  0  0  0  0  0  0
  146.6754  133.3501  151.5386 C   0  0  0  0  0  0  0  0  0  0  0  0
  145.8934  134.5224  151.4895 C   0  0  0  0  0  0  0  0  0  0  0  0
  144.7157  134.5204  150.7176 C   0  0  0  0  0  0  0  0  0  0  0  0
  144.3698  133.3430  150.0252 C   0  0  0  0  0  0  0  0  0  0  0  0
  145.1115  132.2151  150.0636 N   0  0  0  0  0  0  0  0  0  0  0  0
  146.2395  132.2254  150.8062 C   0  0  0  0  0  0  0  0  0  0  0  0
  150.1152  137.1302  154.5979 C   0  0  0  0  0  0  0  0  0  0  0  0
  149.5599  138.2860  155.4532 C   0  0  0  0  0  0  0  0  0  0  0  0
  151.2620  141.8513  158.1259 H   0  0  0  0  0  0  0  0  0  0  0  0
  150.5566  140.4515  158.9568 H   0  0  0  0  0  0  0  0  0  0  0  0
  149.6619  141.2579  157.6412 H   0  0  0  0  0  0  0  0  0  0  0  0
  151.4156  137.4618  158.2126 H   0  0  0  0  0  0  0  0  0  0  0  0
  149.7797  136.9164  157.9413 H   0  0  0  0  0  0  0  0  0  0  0  0
  152.1516  136.4262  156.0571 H   0  0  0  0  0  0  0  0  0  0  0  0
  151.4129  135.2455  157.0824 H   0  0  0  0  0  0  0  0  0  0  0  0
  148.9432  135.4859  153.4282 H   0  0  0  0  0  0  0  0  0  0  0  0
  147.8337  132.9472  154.4875 H   0  0  0  0  0  0  0  0  0  0  0  0
  146.7321  134.1894  153.9100 H   0  0  0  0  0  0  0  0  0  0  0  0
  148.7117  133.9135  151.8623 H   0  0  0  0  0  0  0  0  0  0  0  0
  148.3330  132.2795  152.3526 H   0  0  0  0  0  0  0  0  0  0  0  0
  146.1900  135.4080  152.0321 H   0  0  0  0  0  0  0  0  0  0  0  0
  144.0925  135.4003  150.6573 H   0  0  0  0  0  0  0  0  0  0  0  0
  143.4733  133.3064  149.4242 H   0  0  0  0  0  0  0  0  0  0  0  0
  146.8108  131.3088  150.8149 H   0  0  0  0  0  0  0  0  0  0  0  0
  151.1003  137.3817  154.2048 H   0  0  0  0  0  0  0  0  0  0  0  0
  149.4831  136.9812  153.7214 H   0  0  0  0  0  0  0  0  0  0  0  0
  148.5333  138.0626  155.7464 H   0  0  0  0  0  0  0  0  0  0  0  0
  149.5193  139.2038  154.8673 H   0  0  0  0  0  0  0  0  0  0  0  0
  1  2  1  0  0  0  0
  1 22  1  0  0  0  0
  1 23  1  0  0  0  0
  1 24  1  0  0  0  0
  2  3  2  0  0  0  0
  2  4  2  0  0  0  0
  2  5  1  0  0  0  0
  5 21  1  0  0  0  0
  5  6  1  0  0  0  0
  6  7  1  0  0  0  0
  6 25  1  0  0  0  0
  6 26  1  0  0  0  0
  7  8  1  0  0  0  0
  7 27  1  0  0  0  0
  7 28  1  0  0  0  0
  8  9  1  0  0  0  0
  8 20  1  0  0  0  0
  9 10  2  0  0  0  0
  9 11  1  0  0  0  0
 11 12  1  0  0  0  0
 11 29  1  0  0  0  0
 12 13  1  0  0  0  0
 12 30  1  0  0  0  0
 12 31  1  0  0  0  0
 13 14  1  0  0  0  0
 13 32  1  0  0  0  0
 13 33  1  0  0  0  0
 14 19  1  0  0  0  0
 14 15  2  0  0  0  0
 15 16  1  0  0  0  0
 15 34  1  0  0  0  0
 16 17  2  0  0  0  0
 16 35  1  0  0  0  0
 17 18  1  0  0  0  0
 17 36  1  0  0  0  0
 18 19  2  0  0  0  0
 19 37  1  0  0  0  0
 20 21  1  0  0  0  0
 20 38  1  0  0  0  0
 20 39  1  0  0  0  0
 21 40  1  0  0  0  0
 21 41  1  0  0  0  0
M  END
> <s_m_source_file>
AV-unprocessed.smi

> <i_m_source_file_index>
1930

> <i_lp_mmshare_version>
43012

> <i_f3d_flags>
0

> <s_epik_input>
W0NIM11TKD1PKSg9TylOMVtDSDJdW0NIMl1OKFtDSDJdW0NIMl0xKUMoPU8pW05IXVtDSDJdW0NIMl1jMltjSF1bY0hdW2NIXW5bY0hdMg==

> <s_epik_cmdline>
J2VwaWtfcHl0aG9uJywgJy1waCcsICc3LjAnLCAnLXRuJywgJzgnLCAnLW1hJywgJzIwMCcsICctbWV0YWxfYmluZGluZycsICctaW1hZScsICc8aW5maWxlLm1hZT4nLCAnLW9tYWUnLCAnPG91dGZpbGUubWFlPic=

> <r_epik_Ionization_Penalty>
0.0143741

> <r_epik_Ionization_Penalty_Charging>
0

> <r_epik_Ionization_Penalty_Neutral>
0.0143741

> <r_epik_State_Penalty>
0.0112033

> <r_epik_Charging_Adjusted_Penalty>
0.0112033

> <i_epik_Tot_Q>
0

> <i_epik_Tot_abs_Q>
0

> <r_epik_Metal_State_Penalty>
0.0109376

> <b_epik_Metal_Only>
0

> <s_lp_Force_Field>
OPLS_2005

> <r_lp_Energy>
24.8651

> <b_lp_Chiralities_Consistent>
1

> <s_lp_Variant>
AV-unprocessed.smi:1930-1

> <Gold.Version>
5.8.1

> <Gold.Id.Protein>
6NUR|6NUR_protein|mol2

> <Gold.PLP.Fitness>
42.2072

> <Gold.PLP.PLP>
-29.1735

> <Gold.PLP.part.hbond>
-3.0000

> <Gold.PLP.part.metal>
0.0000

> <Gold.PLP.part.buried>
-2.8108

> <Gold.PLP.part.nonpolar>
-23.2611

> <Gold.PLP.part.repulsive>
0.1615

> <Gold.PLP.ligand.clash>
0.0000

> <Gold.PLP.ligand.torsion>
1.7642

> <Gold.PLP.Chemscore.Hbond>
2.8160

> <Gold.PLP.Chemscore.CHOScore>
2.0000

> <Gold.PLP.Chemscore.Metal>
0.0000

> <Gold.Chemscore.Hbonds>
donor molecule, donor type, donor heavy atom, donor atom, acceptor molecule, acceptor atom, score
      L1  H    11    29       P1  7948  1.00
      P1  H  7989  7998       L1     3  0.83
      P1  H  7997  8010       L1     4  1.00
      L1  C    17    36       P1 10186  0.56
      L1  C    19    37       P1 10747  1.00

> <Gold.PLP.Chemscore.Internal.Correction>
2.1142

> <Gold.Rescore>
     Score         DG    S(hbond)    S(metal)    S(lipo)     H(rot)  DE(clash)    DE(int)     intcor
     16.19     -18.15       2.59        0.00      64.97       1.40       0.08       1.88       ----

> <Gold.Chemscore.Fitness>
16.1928

> <Gold.Chemscore.DG>
-18.1528

> <Gold.Chemscore.ZeroCoef>
-5.4800

> <Gold.Chemscore.Hbond>
2.5941

> <Gold.Chemscore.Metal>
0.0000

> <Gold.Chemscore.Lipo>
64.9742

> <Gold.Chemscore.Internal_Hbond>
0.0000

> <Gold.Chemscore.DEClash>
0.0819

> <Gold.Chemscore.DEInternal>
1.8781

> <Gold.Chemscore.Rot>
1.4037

> <Gold.Chemscore.Internal.Correction>
   9.000000E+99

> <Gold.Chemscore.Hbonds>
donor molecule, donor type, donor heavy atom, donor atom, acceptor molecule, acceptor atom, score
      L1  H    11    29       P1  7948  0.74
      P1  H  7989  7998       L1     3  0.80
      P1  H  7997  8010       L1     4  0.96

> <Gold.Chemscore.Hbond.Weighted>
-8.6644

> <Gold.Chemscore.Metal.Weighted>
-0.0000

> <Gold.Chemscore.Lipo.Weighted>
-7.6020

> <Gold.Chemscore.Internal_Hbond.Weighted>
0.0000

> <Gold.Chemscore.DEClash.Weighted>
0.0819

> <Gold.Chemscore.DEInternal.Weighted>
1.8781

> <Gold.Chemscore.Rot.Weighted>
3.5935

> <Gold.Chemscore.Internal.Correction.Weighted>
   9.000000E+99

> <Gold.Protein.RotatedTorsions>
[ 6907 6896 6895 6894 ] final  166.41 input  -60.11 | X-H torsion
[ 7974 7965 7964 7962 ] final  -25.35 input  175.53 | X-H torsion
[ 8008 7997 7996 7995 ] final   37.49 input   59.86 | X-H torsion
[ 10167 10162 10161 10158 ] final  -96.19 input  -65.29 | X-H torsion
[ 10718 10713 10712 10709 ] final  168.86 input   66.30 | X-H torsion
[ 10763 10752 10751 10750 ] final  131.24 input  -60.55 | X-H torsion
[ 11005 11000 10999 10996 ] final -141.52 input  -57.11 | X-H torsion

> <Gold.Protein.ActiveResidues>
 VAL166  LYS551  ARG553  GLY616  TRP617  ASP618  TYR619  PRO620  LYS621  CYS622 
 ASP623  PHE694  ASN695  SER759  ASP760  ASP761  ALA762  ILE779  LEU786  VAL792 
 PHE793  MET794  SER795  GLU796  ALA797  LYS798  CYS799  TRP800  GLU811  SER814 

> <Gold.Protein.RotatedAtoms>
  151.8793  133.3492  159.3760 H   0  0  0  0  0  0  0  0  0  0  0  0  # atno 6907 bound_to 6896
  150.7132  134.5035  159.5582 H   0  0  0  0  0  0  0  0  0  0  0  0  # atno 6908 bound_to 6896
  152.2583  134.8061  160.0486 H   0  0  0  0  0  0  0  0  0  0  0  0  # atno 6909 bound_to 6896
  146.1496  140.4874  142.8617 H   0  0  0  0  0  0  0  0  0  0  0  0  # atno 7974 bound_to 7965
  155.2046  140.3318  155.4338 H   0  0  0  0  0  0  0  0  0  0  0  0  # atno 8008 bound_to 7997
  156.2394  140.1887  156.7081 H   0  0  0  0  0  0  0  0  0  0  0  0  # atno 8009 bound_to 7997
  154.6118  140.0608  156.9489 H   0  0  0  0  0  0  0  0  0  0  0  0  # atno 8010 bound_to 7997
  140.2964  143.3189  152.0294 H   0  0  0  0  0  0  0  0  0  0  0  0  # atno 10167 bound_to 10162
  157.0311  131.0259  151.2744 H   0  0  0  0  0  0  0  0  0  0  0  0  # atno 10718 bound_to 10713
  153.7712  135.3182  155.3352 H   0  0  0  0  0  0  0  0  0  0  0  0  # atno 10763 bound_to 10752
  154.8195  135.4613  154.0742 H   0  0  0  0  0  0  0  0  0  0  0  0  # atno 10764 bound_to 10752
  153.2002  135.6921  153.8325 H   0  0  0  0  0  0  0  0  0  0  0  0  # atno 10765 bound_to 10752
  140.8316  134.2510  157.4854 H   0  0  0  0  0  0  0  0  0  0  0  0  # atno 11005 bound_to 11000
  144.7888  140.5991  143.6555 LP  0  0  0  0  0  0  0  0  0  0  0  0  # atno 17320 bound_to 7965
  145.4854  139.1492  143.3739 LP  0  0  0  0  0  0  0  0  0  0  0  0  # atno 17321 bound_to 7965
  139.4925  144.6488  151.6721 LP  0  0  0  0  0  0  0  0  0  0  0  0  # atno 17342 bound_to 10162
  140.5689  144.0143  150.6206 LP  0  0  0  0  0  0  0  0  0  0  0  0  # atno 17343 bound_to 10162
  157.5177  130.7978  149.7774 LP  0  0  0  0  0  0  0  0  0  0  0  0  # atno 17370 bound_to 10713
  156.0069  130.3851  150.2399 LP  0  0  0  0  0  0  0  0  0  0  0  0  # atno 17371 bound_to 10713
  139.8705  134.9589  156.4315 LP  0  0  0  0  0  0  0  0  0  0  0  0  # atno 17394 bound_to 11000
  140.8992  133.7792  155.9660 LP  0  0  0  0  0  0  0  0  0  0  0  0  # atno 17395 bound_to 11000

$$$$
