AV-unprocessed.smi:3348|AV-procd|sdf|12929|dock6
  -GOLD-   2272019353D 1   1.00000     0.00000
 Structure written by MMmdl.
 46 47  0  0  0  0  0  0  0  0  1 V2000
  146.9515  141.8173  153.9131 C   0  0  0  0  0  0  0  0  0  0  0  0
  148.0757  140.9102  153.3941 C   0  0  2  0  0  0  0  0  0  0  0  0
  147.7907  139.4407  153.7898 C   0  0  0  0  0  0  0  0  0  0  0  0
  146.7436  138.8040  153.0118 N   0  0  0  0  0  0  0  0  0  0  0  0
  146.6478  138.6870  151.6402 C   0  0  0  0  0  0  0  0  0  0  0  0
  145.4933  138.0096  151.3705 C   0  0  0  0  0  0  0  0  0  0  0  0
  144.9481  137.7452  152.6582 C   0  0  0  0  0  0  0  0  0  0  0  0
  145.7000  138.2189  153.6390 N   0  0  0  0  0  0  0  0  0  0  0  0
  149.3554  141.3832  153.9309 N   0  0  0  0  0  0  0  0  0  0  0  0
  149.3684  141.6508  155.3692 C   0  0  0  0  0  0  0  0  0  0  0  0
  150.7896  141.9358  155.8604 C   0  0  0  0  0  0  0  0  0  0  0  0
  150.8756  141.4978  157.2083 O   0  0  0  0  0  0  0  0  0  0  0  0
  151.9195  142.0936  157.9669 C   0  0  1  0  0  0  0  0  0  0  0  0
  151.5550  143.5574  158.2941 C   0  0  0  0  0  0  0  0  0  0  0  0
  152.5831  144.1987  159.2379 C   0  0  0  0  0  0  0  0  0  0  0  0
  152.7406  143.3744  160.5231 C   0  0  0  0  0  0  0  0  0  0  0  0
  153.1150  141.9197  160.2019 C   0  0  0  0  0  0  0  0  0  0  0  0
  152.0897  141.2602  159.2578 C   0  0  2  0  0  0  0  0  0  0  0  0
  152.4911  139.8079  158.9498 C   0  0  0  0  0  0  0  0  0  0  0  0
  145.9863  141.5198  153.5022 H   0  0  0  0  0  0  0  0  0  0  0  0
  147.1208  142.8561  153.6281 H   0  0  0  0  0  0  0  0  0  0  0  0
  146.8765  141.7775  155.0006 H   0  0  0  0  0  0  0  0  0  0  0  0
  148.0802  140.9960  152.3065 H   0  0  0  0  0  0  0  0  0  0  0  0
  148.6995  138.8434  153.7008 H   0  0  0  0  0  0  0  0  0  0  0  0
  147.4959  139.3903  154.8389 H   0  0  0  0  0  0  0  0  0  0  0  0
  147.3958  139.0986  150.9785 H   0  0  0  0  0  0  0  0  0  0  0  0
  145.0985  137.7447  150.4009 H   0  0  0  0  0  0  0  0  0  0  0  0
  144.0343  137.2260  152.9075 H   0  0  0  0  0  0  0  0  0  0  0  0
  150.0868  140.7148  153.7106 H   0  0  0  0  0  0  0  0  0  0  0  0
  148.7236  142.4840  155.6384 H   0  0  0  0  0  0  0  0  0  0  0  0
  148.9736  140.7811  155.8951 H   0  0  0  0  0  0  0  0  0  0  0  0
  151.4989  141.3722  155.2526 H   0  0  0  0  0  0  0  0  0  0  0  0
  151.0347  142.9931  155.7570 H   0  0  0  0  0  0  0  0  0  0  0  0
  152.8569  142.0636  157.4078 H   0  0  0  0  0  0  0  0  0  0  0  0
  151.4894  144.1500  157.3823 H   0  0  0  0  0  0  0  0  0  0  0  0
  150.5674  143.5927  158.7562 H   0  0  0  0  0  0  0  0  0  0  0  0
  153.5461  144.2764  158.7316 H   0  0  0  0  0  0  0  0  0  0  0  0
  152.2789  145.2167  159.4832 H   0  0  0  0  0  0  0  0  0  0  0  0
  153.5026  143.8229  161.1613 H   0  0  0  0  0  0  0  0  0  0  0  0
  151.8091  143.3965  161.0903 H   0  0  0  0  0  0  0  0  0  0  0  0
  154.1058  141.8933  159.7456 H   0  0  0  0  0  0  0  0  0  0  0  0
  153.1878  141.3504  161.1292 H   0  0  0  0  0  0  0  0  0  0  0  0
  151.1284  141.2348  159.7738 H   0  0  0  0  0  0  0  0  0  0  0  0
  153.4391  139.7642  158.4127 H   0  0  0  0  0  0  0  0  0  0  0  0
  151.7399  139.3087  158.3374 H   0  0  0  0  0  0  0  0  0  0  0  0
  152.6008  139.2279  159.8664 H   0  0  0  0  0  0  0  0  0  0  0  0
  1  2  1  0  0  0  0
  1 20  1  0  0  0  0
  1 21  1  0  0  0  0
  1 22  1  0  0  0  0
  2  3  1  0  0  0  0
  2  9  1  0  0  0  0
  2 23  1  0  0  0  0
  3  4  1  0  0  0  0
  3 24  1  0  0  0  0
  3 25  1  0  0  0  0
  4  8  1  0  0  0  0
  4  5  1  0  0  0  0
  5  6  2  0  0  0  0
  5 26  1  0  0  0  0
  6  7  1  0  0  0  0
  6 27  1  0  0  0  0
  7  8  2  0  0  0  0
  7 28  1  0  0  0  0
  9 10  1  0  0  0  0
  9 29  1  0  0  0  0
 10 11  1  0  0  0  0
 10 30  1  0  0  0  0
 10 31  1  0  0  0  0
 11 12  1  0  0  0  0
 11 32  1  0  0  0  0
 11 33  1  0  0  0  0
 12 13  1  0  0  0  0
 13 18  1  0  0  0  0
 13 14  1  0  0  0  0
 13 34  1  0  0  0  0
 14 15  1  0  0  0  0
 14 35  1  0  0  0  0
 14 36  1  0  0  0  0
 15 16  1  0  0  0  0
 15 37  1  0  0  0  0
 15 38  1  0  0  0  0
 16 17  1  0  0  0  0
 16 39  1  0  0  0  0
 16 40  1  0  0  0  0
 17 18  1  0  0  0  0
 17 41  1  0  0  0  0
 17 42  1  0  0  0  0
 18 19  1  0  0  0  0
 18 43  1  0  0  0  0
 19 44  1  0  0  0  0
 19 45  1  0  0  0  0
 19 46  1  0  0  0  0
M  END
> <s_m_source_file>
AV-unprocessed.smi

> <i_m_source_file_index>
3348

> <i_lp_mmshare_version>
43012

> <i_f3d_flags>
0

> <s_epik_input>
bjFbY0hdW2NIXVtjSF1uMVtDSDJdW0NAQEhdKFtDSDNdKVtOSF1bQ0gyXVtDSDJdT1tDQEBIXTJbQ0gyXVtDSDJdW0NIMl1bQ0gyXVtDQEhdMltDSDNd

> <s_epik_cmdline>
J2VwaWtfcHl0aG9uJywgJy1waCcsICc3LjAnLCAnLXRuJywgJzgnLCAnLW1hJywgJzIwMCcsICctbWV0YWxfYmluZGluZycsICctaW1hZScsICc8aW5maWxlLm1hZT4nLCAnLW9tYWUnLCAnPG91dGZpbGUubWFlPic=

> <r_lp_tautomer_probability>
1

> <r_epik_Ionization_Penalty>
2.46945

> <r_epik_Ionization_Penalty_Charging>
0

> <r_epik_Ionization_Penalty_Neutral>
2.46945

> <r_epik_State_Penalty>
2.6322

> <r_epik_Charging_Adjusted_Penalty>
2.6322

> <i_epik_Tot_Q>
0

> <i_epik_Tot_abs_Q>
0

> <r_epik_Metal_State_Penalty>
2.63217

> <b_epik_Metal_Only>
0

> <s_lp_Force_Field>
OPLS_2005

> <r_lp_Energy>
18.1963

> <b_lp_Chiralities_Consistent>
1

> <s_lp_Variant>
AV-unprocessed.smi:3348-15

> <Gold.Version>
5.8.1

> <Gold.Id.Protein>
6NUR|6NUR_protein|mol2

> <Gold.PLP.Fitness>
43.0866

> <Gold.PLP.PLP>
-40.1297

> <Gold.PLP.part.hbond>
-2.8206

> <Gold.PLP.part.metal>
0.0000

> <Gold.PLP.part.buried>
4.7304

> <Gold.PLP.part.nonpolar>
-41.9268

> <Gold.PLP.part.repulsive>
0.2150

> <Gold.PLP.ligand.clash>
0.0000

> <Gold.PLP.ligand.torsion>
0.6351

> <Gold.PLP.Chemscore.Hbond>
0.3763

> <Gold.PLP.Chemscore.CHOScore>
1.0000

> <Gold.PLP.Chemscore.Metal>
0.0000

> <Gold.Chemscore.Hbonds>
donor molecule, donor type, donor heavy atom, donor atom, acceptor molecule, acceptor atom, score
      P1  H  8011  8017       L1     9  0.29
      L1  C     5    26       P1  7957  1.00

> <Gold.PLP.Chemscore.Internal.Correction>
0.0982

> <Gold.Rescore>
     Score         DG    S(hbond)    S(metal)    S(lipo)     H(rot)  DE(clash)    DE(int)     intcor
     14.07     -16.67       0.00        0.00     133.34       1.72       1.96       0.64       ----

> <Gold.Chemscore.Fitness>
14.0747

> <Gold.Chemscore.DG>
-16.6687

> <Gold.Chemscore.ZeroCoef>
-5.4800

> <Gold.Chemscore.Hbond>
0.0000

> <Gold.Chemscore.Metal>
0.0000

> <Gold.Chemscore.Lipo>
133.3447

> <Gold.Chemscore.Internal_Hbond>
0.0000

> <Gold.Chemscore.DEClash>
1.9565

> <Gold.Chemscore.DEInternal>
0.6376

> <Gold.Chemscore.Rot>
1.7237

> <Gold.Chemscore.Internal.Correction>
   9.000000E+99

> <Gold.Chemscore.Hbond.Weighted>
-0.0000

> <Gold.Chemscore.Metal.Weighted>
-0.0000

> <Gold.Chemscore.Lipo.Weighted>
-15.6013

> <Gold.Chemscore.Internal_Hbond.Weighted>
0.0000

> <Gold.Chemscore.DEClash.Weighted>
1.9565

> <Gold.Chemscore.DEInternal.Weighted>
0.6376

> <Gold.Chemscore.Rot.Weighted>
4.4126

> <Gold.Chemscore.Internal.Correction.Weighted>
   9.000000E+99

> <Gold.Protein.RotatedTorsions>
[ 6907 6896 6895 6894 ] final  129.63 input  -60.11 | X-H torsion
[ 7974 7965 7964 7962 ] final  -29.39 input  175.53 | X-H torsion
[ 8008 7997 7996 7995 ] final  119.61 input   59.86 | X-H torsion
[ 10167 10162 10161 10158 ] final  111.48 input  -65.29 | X-H torsion
[ 10718 10713 10712 10709 ] final -144.31 input   66.30 | X-H torsion
[ 10763 10752 10751 10750 ] final  -19.11 input  -60.55 | X-H torsion
[ 11005 11000 10999 10996 ] final  152.26 input  -57.11 | X-H torsion

> <Gold.Protein.ActiveResidues>
 VAL166  LYS551  ARG553  GLY616  TRP617  ASP618  TYR619  PRO620  LYS621  CYS622 
 ASP623  PHE694  ASN695  SER759  ASP760  ASP761  ALA762  ILE779  LEU786  VAL792 
 PHE793  MET794  SER795  GLU796  ALA797  LYS798  CYS799  TRP800  GLU811  SER814 

> <Gold.Protein.RotatedAtoms>
  152.3605  133.6291  159.6011 H   0  0  0  0  0  0  0  0  0  0  0  0  # atno 6907 bound_to 6896
  150.7598  133.9430  159.3471 H   0  0  0  0  0  0  0  0  0  0  0  0  # atno 6908 bound_to 6896
  151.7269  135.0884  160.0344 H   0  0  0  0  0  0  0  0  0  0  0  0  # atno 6909 bound_to 6896
  146.1220  140.5406  142.8731 H   0  0  0  0  0  0  0  0  0  0  0  0  # atno 7974 bound_to 7965
  156.2604  140.2849  156.1018 H   0  0  0  0  0  0  0  0  0  0  0  0  # atno 8008 bound_to 7997
  155.1351  140.0394  157.2802 H   0  0  0  0  0  0  0  0  0  0  0  0  # atno 8009 bound_to 7997
  154.6571  140.2558  155.7156 H   0  0  0  0  0  0  0  0  0  0  0  0  # atno 8010 bound_to 7997
  139.6608  144.7128  151.1868 H   0  0  0  0  0  0  0  0  0  0  0  0  # atno 10167 bound_to 10162
  156.3686  130.7776  151.1953 H   0  0  0  0  0  0  0  0  0  0  0  0  # atno 10718 bound_to 10713
  153.5997  135.7000  153.5389 H   0  0  0  0  0  0  0  0  0  0  0  0  # atno 10763 bound_to 10752
  153.3108  135.4102  155.1333 H   0  0  0  0  0  0  0  0  0  0  0  0  # atno 10764 bound_to 10752
  154.8585  135.3671  154.5532 H   0  0  0  0  0  0  0  0  0  0  0  0  # atno 10765 bound_to 10752
  140.1292  134.8813  157.2180 H   0  0  0  0  0  0  0  0  0  0  0  0  # atno 11005 bound_to 11000
  144.7606  140.5413  143.6738 LP  0  0  0  0  0  0  0  0  0  0  0  0  # atno 17320 bound_to 7965
  145.5446  139.1476  143.3428 LP  0  0  0  0  0  0  0  0  0  0  0  0  # atno 17321 bound_to 7965
  140.7579  143.5997  150.8712 LP  0  0  0  0  0  0  0  0  0  0  0  0  # atno 17342 bound_to 10162
  139.9654  143.6116  152.2990 LP  0  0  0  0  0  0  0  0  0  0  0  0  # atno 17343 bound_to 10162
  157.7481  131.0379  150.4477 LP  0  0  0  0  0  0  0  0  0  0  0  0  # atno 17370 bound_to 10713
  156.4700  130.4050  149.6524 LP  0  0  0  0  0  0  0  0  0  0  0  0  # atno 17371 bound_to 10713
  140.2864  134.3291  155.7328 LP  0  0  0  0  0  0  0  0  0  0  0  0  # atno 17394 bound_to 11000
  141.2167  133.7508  156.9439 LP  0  0  0  0  0  0  0  0  0  0  0  0  # atno 17395 bound_to 11000

$$$$
