AV-unprocessed.smi:948|AV-procd|sdf|4241|dock6
  -GOLD-   22720 2153D 1   1.00000     0.00000
 Structure written by MMmdl.
 19 19  0  0  0  0  0  0  0  0  3 V2000
  145.4538  138.5827  151.8016 N   0  3  0  0  0  0  0  0  0  0  0  0
  146.8883  138.9178  151.7764 C   0  0  0  0  0  0  0  0  0  0  0  0
  147.4528  139.0810  153.1957 C   0  0  0  0  0  0  0  0  0  0  0  0
  147.3462  140.4917  153.6765 C   0  0  0  0  0  0  0  0  0  0  0  0
  148.2747  141.3334  154.2388 C   0  0  0  0  0  0  0  0  0  0  0  0
  147.6382  142.5189  154.4916 N   0  0  0  0  0  0  0  0  0  0  0  0
  146.3608  142.4431  154.1098 C   0  0  0  0  0  0  0  0  0  0  0  0
  146.1809  141.2146  153.6142 N   0  3  0  0  0  0  0  0  0  0  0  0
  148.0685  143.3352  154.9089 H   0  0  0  0  0  0  0  0  0  0  0  0
  145.1409  138.3695  150.8648 H   0  0  0  0  0  0  0  0  0  0  0  0
  144.9262  139.3664  152.1592 H   0  0  0  0  0  0  0  0  0  0  0  0
  147.4207  138.1278  151.2455 H   0  0  0  0  0  0  0  0  0  0  0  0
  147.0216  139.8369  151.2046 H   0  0  0  0  0  0  0  0  0  0  0  0
  146.9228  138.4299  153.8925 H   0  0  0  0  0  0  0  0  0  0  0  0
  148.5014  138.7815  153.2210 H   0  0  0  0  0  0  0  0  0  0  0  0
  149.3182  141.1796  154.4746 H   0  0  0  0  0  0  0  0  0  0  0  0
  145.6205  143.2194  154.1880 H   0  0  0  0  0  0  0  0  0  0  0  0
  145.3028  137.7785  152.3940 H   0  0  0  0  0  0  0  0  0  0  0  0
  145.3013  140.8695  153.2503 H   0  0  0  0  0  0  0  0  0  0  0  0
  1  2  1  0  0  0  0
  1 10  1  0  0  0  0
  1 11  1  0  0  0  0
  1 18  1  0  0  0  0
  2  3  1  0  0  0  0
  2 12  1  0  0  0  0
  2 13  1  0  0  0  0
  3  4  1  0  0  0  0
  3 14  1  0  0  0  0
  3 15  1  0  0  0  0
  4  8  1  0  0  0  0
  4  5  2  0  0  0  0
  5  6  1  0  0  0  0
  5 16  1  0  0  0  0
  6  9  1  0  0  0  0
  6  7  1  0  0  0  0
  7  8  2  0  0  0  0
  7 17  1  0  0  0  0
  8 19  1  0  0  0  0
M  CHG  1   1   1
M  CHG  1   8   1
M  END
> <s_m_source_file>
AV-unprocessed.smi

> <i_m_source_file_index>
948

> <i_lp_mmshare_version>
43012

> <i_f3d_flags>
0

> <s_epik_input>
W05IMl1bQ0gyXVtDSDJdYzFbY0hdW25IXVtjSF1uMQ==

> <s_epik_cmdline>
J2VwaWtfcHl0aG9uJywgJy1waCcsICc3LjAnLCAnLXRuJywgJzgnLCAnLW1hJywgJzIwMCcsICctbWV0YWxfYmluZGluZycsICctaW1hZScsICc8aW5maWxlLm1hZT4nLCAnLW9tYWUnLCAnPG91dGZpbGUubWFlPic=

> <r_lp_tautomer_probability>
1

> <r_epik_Ionization_Penalty>
2.37896

> <r_epik_Ionization_Penalty_Charging>
0.0086666

> <r_epik_Ionization_Penalty_Neutral>
2.3703

> <r_epik_State_Penalty>
1.3316

> <r_epik_Charging_Adjusted_Penalty>
1.34027

> <i_epik_Tot_Q>
2

> <i_epik_Tot_abs_Q>
2

> <r_epik_Metal_State_Penalty>
5.35027

> <b_epik_Metal_Only>
0

> <s_lp_Force_Field>
OPLS_2005

> <r_lp_Energy>
12.2927

> <b_lp_Chiralities_Consistent>
1

> <s_lp_Variant>
AV-unprocessed.smi:948-3

> <Gold.Version>
5.8.1

> <Gold.Id.Protein>
6NUR|6NUR_protein|mol2

> <Gold.PLP.Fitness>
40.7016

> <Gold.PLP.PLP>
-20.2652

> <Gold.PLP.part.hbond>
-4.0000

> <Gold.PLP.part.metal>
0.0000

> <Gold.PLP.part.buried>
-1.0332

> <Gold.PLP.part.nonpolar>
-15.5251

> <Gold.PLP.part.repulsive>
0.2486

> <Gold.PLP.ligand.clash>
0.0000

> <Gold.PLP.ligand.torsion>
0.2818

> <Gold.PLP.Chemscore.Hbond>
7.0000

> <Gold.PLP.Chemscore.CHOScore>
0.0000

> <Gold.PLP.Chemscore.Metal>
0.0000

> <Gold.Chemscore.Hbonds>
donor molecule, donor type, donor heavy atom, donor atom, acceptor molecule, acceptor atom, score
      L1  H     1    10       P1 10171  0.85
      L1  H     1    11       P1 10175  2.00
      L1  H     6     9       P1  8028  2.00
      L1  H     8    19       P1 10175  2.00

> <Gold.PLP.Chemscore.Internal.Correction>
0.0001

> <Gold.Rescore>
     Score         DG    S(hbond)    S(metal)    S(lipo)     H(rot)  DE(clash)    DE(int)     intcor
     17.76     -18.08       3.83        0.00      31.84       1.53       0.00       0.32       ----

> <Gold.Chemscore.Fitness>
17.7591

> <Gold.Chemscore.DG>
-18.0813

> <Gold.Chemscore.ZeroCoef>
-5.4800

> <Gold.Chemscore.Hbond>
3.8338

> <Gold.Chemscore.Metal>
0.0000

> <Gold.Chemscore.Lipo>
31.8356

> <Gold.Chemscore.Internal_Hbond>
0.0000

> <Gold.Chemscore.DEClash>
0.0004

> <Gold.Chemscore.DEInternal>
0.3218

> <Gold.Chemscore.Rot>
1.5345

> <Gold.Chemscore.Internal.Correction>
   9.000000E+99

> <Gold.Chemscore.Hbonds>
donor molecule, donor type, donor heavy atom, donor atom, acceptor molecule, acceptor atom, score
      L1  H     1    10       P1 10171  0.85
      L1  H     1    11       P1 10175  1.00
      L1  H     6     9       P1  8028  0.88
      L1  H     8    19       P1 10175  0.65

> <Gold.Chemscore.Hbond.Weighted>
-12.8049

> <Gold.Chemscore.Metal.Weighted>
-0.0000

> <Gold.Chemscore.Lipo.Weighted>
-3.7248

> <Gold.Chemscore.Internal_Hbond.Weighted>
0.0000

> <Gold.Chemscore.DEClash.Weighted>
0.0004

> <Gold.Chemscore.DEInternal.Weighted>
0.3218

> <Gold.Chemscore.Rot.Weighted>
3.9284

> <Gold.Chemscore.Internal.Correction.Weighted>
   9.000000E+99

> <Gold.Protein.RotatedTorsions>
[ 6907 6896 6895 6894 ] final  -50.27 input  -60.11 | X-H torsion
[ 7974 7965 7964 7962 ] final  -71.34 input  175.53 | X-H torsion
[ 8008 7997 7996 7995 ] final   76.40 input   59.86 | X-H torsion
[ 10167 10162 10161 10158 ] final -175.57 input  -65.29 | X-H torsion
[ 10718 10713 10712 10709 ] final  109.23 input   66.30 | X-H torsion
[ 10763 10752 10751 10750 ] final -155.64 input  -60.55 | X-H torsion
[ 11005 11000 10999 10996 ] final  158.87 input  -57.11 | X-H torsion

> <Gold.Protein.ActiveResidues>
 VAL166  LYS551  ARG553  GLY616  TRP617  ASP618  TYR619  PRO620  LYS621  CYS622 
 ASP623  PHE694  ASN695  SER759  ASP760  ASP761  ALA762  ILE779  LEU786  VAL792 
 PHE793  MET794  SER795  GLU796  ALA797  LYS798  CYS799  TRP800  GLU811  SER814 

> <Gold.Protein.RotatedAtoms>
  150.8723  134.8099  159.7163 H   0  0  0  0  0  0  0  0  0  0  0  0  # atno 6907 bound_to 6896
  152.4723  134.4927  159.9710 H   0  0  0  0  0  0  0  0  0  0  0  0  # atno 6908 bound_to 6896
  151.5014  133.3465  159.2905 H   0  0  0  0  0  0  0  0  0  0  0  0  # atno 6909 bound_to 6896
  145.6793  140.9193  143.0841 H   0  0  0  0  0  0  0  0  0  0  0  0  # atno 7974 bound_to 7965
  155.8267  140.3468  155.5547 H   0  0  0  0  0  0  0  0  0  0  0  0  # atno 8008 bound_to 7997
  155.8285  140.0923  157.1827 H   0  0  0  0  0  0  0  0  0  0  0  0  # atno 8009 bound_to 7997
  154.4004  140.1416  156.3572 H   0  0  0  0  0  0  0  0  0  0  0  0  # atno 8010 bound_to 7997
  139.5574  144.1955  152.1182 H   0  0  0  0  0  0  0  0  0  0  0  0  # atno 10167 bound_to 10162
  157.6551  131.0909  150.6423 H   0  0  0  0  0  0  0  0  0  0  0  0  # atno 10718 bound_to 10713
  154.7772  135.3163  154.8067 H   0  0  0  0  0  0  0  0  0  0  0  0  # atno 10763 bound_to 10752
  153.8788  135.6837  153.4773 H   0  0  0  0  0  0  0  0  0  0  0  0  # atno 10764 bound_to 10752
  153.1398  135.4744  154.9415 H   0  0  0  0  0  0  0  0  0  0  0  0  # atno 10765 bound_to 10752
  140.1906  134.8410  157.2908 H   0  0  0  0  0  0  0  0  0  0  0  0  # atno 11005 bound_to 11000
  144.7031  139.8676  143.7438 LP  0  0  0  0  0  0  0  0  0  0  0  0  # atno 17320 bound_to 7965
  146.0978  139.3971  143.0366 LP  0  0  0  0  0  0  0  0  0  0  0  0  # atno 17321 bound_to 7965
  140.1461  144.5157  150.6715 LP  0  0  0  0  0  0  0  0  0  0  0  0  # atno 17342 bound_to 10162
  140.6849  143.2345  151.5287 LP  0  0  0  0  0  0  0  0  0  0  0  0  # atno 17343 bound_to 10162
  156.6731  130.4545  149.5651 LP  0  0  0  0  0  0  0  0  0  0  0  0  # atno 17370 bound_to 10713
  156.1983  130.6604  151.1139 LP  0  0  0  0  0  0  0  0  0  0  0  0  # atno 17371 bound_to 10713
  140.2163  134.4077  155.7587 LP  0  0  0  0  0  0  0  0  0  0  0  0  # atno 17394 bound_to 11000
  141.2226  133.7143  156.8419 LP  0  0  0  0  0  0  0  0  0  0  0  0  # atno 17395 bound_to 11000

$$$$
