AV-unprocessed.smi:1151|AV-procd|sdf|4895|dock1
  -GOLD-   22720 3473D 1   1.00000     0.00000
 Structure written by MMmdl.
 35 36  0  0  0  0  0  0  0  0  1 V2000
  153.1071  142.9010  161.7538 C   0  0  0  0  0  0  0  0  0  0  0  0
  152.2403  143.0827  160.5553 C   0  0  0  0  0  0  0  0  0  0  0  0
  151.8262  142.0736  159.7848 N   0  0  0  0  0  0  0  0  0  0  0  0
  151.0269  142.5026  158.7209 C   0  0  0  0  0  0  0  0  0  0  0  0
  150.4563  141.5023  157.7574 C   0  0  0  0  0  0  0  0  0  0  0  0
  150.6373  141.8987  156.2776 C   0  0  0  0  0  0  0  0  0  0  0  0
  149.3892  141.8703  155.5202 N   0  0  0  0  0  0  0  0  0  0  0  0
  149.1270  141.0527  154.4891 C   0  0  0  0  0  0  0  0  0  0  0  0
  149.9249  140.2041  154.0900 O   0  0  0  0  0  0  0  0  0  0  0  0
  147.7668  141.2490  153.7924 C   0  0  2  0  0  0  0  0  0  0  0  0
  146.8466  142.2323  154.5406 C   0  0  0  0  0  0  0  0  0  0  0  0
  146.2824  141.6672  155.8590 C   0  0  0  0  0  0  0  0  0  0  0  0
  145.8494  140.1957  155.7736 C   0  0  0  0  0  0  0  0  0  0  0  0
  145.1456  139.7222  156.6626 O   0  0  0  0  0  0  0  0  0  0  0  0
  146.2856  139.4423  154.7490 N   0  0  0  0  0  0  0  0  0  0  0  0
  147.0200  139.9150  153.5746 C   0  0  0  0  0  0  0  0  0  0  0  0
  150.8445  143.8631  158.6949 C   0  0  0  0  0  0  0  0  0  0  0  0
  151.6643  144.6540  160.0119 S   0  0  0  0  0  0  0  0  0  0  0  0
  153.0172  141.8854  162.1403 H   0  0  0  0  0  0  0  0  0  0  0  0
  152.8142  143.5991  162.5382 H   0  0  0  0  0  0  0  0  0  0  0  0
  154.1486  143.0857  161.4906 H   0  0  0  0  0  0  0  0  0  0  0  0
  150.9203  140.5299  157.9256 H   0  0  0  0  0  0  0  0  0  0  0  0
  149.3951  141.3533  157.9589 H   0  0  0  0  0  0  0  0  0  0  0  0
  151.1034  142.8820  156.1998 H   0  0  0  0  0  0  0  0  0  0  0  0
  151.3194  141.1960  155.7986 H   0  0  0  0  0  0  0  0  0  0  0  0
  148.6834  142.5431  155.7829 H   0  0  0  0  0  0  0  0  0  0  0  0
  147.9715  141.6715  152.8070 H   0  0  0  0  0  0  0  0  0  0  0  0
  147.3760  143.1647  154.7400 H   0  0  0  0  0  0  0  0  0  0  0  0
  146.0143  142.5000  153.8881 H   0  0  0  0  0  0  0  0  0  0  0  0
  147.0352  141.7436  156.6438 H   0  0  0  0  0  0  0  0  0  0  0  0
  145.4379  142.2731  156.1887 H   0  0  0  0  0  0  0  0  0  0  0  0
  146.0204  138.4679  154.7486 H   0  0  0  0  0  0  0  0  0  0  0  0
  146.3012  140.0316  152.7628 H   0  0  0  0  0  0  0  0  0  0  0  0
  147.7106  139.1331  153.2555 H   0  0  0  0  0  0  0  0  0  0  0  0
  150.2723  144.4434  157.9860 H   0  0  0  0  0  0  0  0  0  0  0  0
  1  2  1  0  0  0  0
  1 19  1  0  0  0  0
  1 20  1  0  0  0  0
  1 21  1  0  0  0  0
  2 18  1  0  0  0  0
  2  3  2  0  0  0  0
  3  4  1  0  0  0  0
  4  5  1  0  0  0  0
  4 17  2  0  0  0  0
  5  6  1  0  0  0  0
  5 22  1  0  0  0  0
  5 23  1  0  0  0  0
  6  7  1  0  0  0  0
  6 24  1  0  0  0  0
  6 25  1  0  0  0  0
  7  8  1  0  0  0  0
  7 26  1  0  0  0  0
  8  9  2  0  0  0  0
  8 10  1  0  0  0  0
 10 16  1  0  0  0  0
 10 11  1  0  0  0  0
 10 27  1  0  0  0  0
 11 12  1  0  0  0  0
 11 28  1  0  0  0  0
 11 29  1  0  0  0  0
 12 13  1  0  0  0  0
 12 30  1  0  0  0  0
 12 31  1  0  0  0  0
 13 14  2  0  0  0  0
 13 15  1  0  0  0  0
 15 16  1  0  0  0  0
 15 32  1  0  0  0  0
 16 33  1  0  0  0  0
 16 34  1  0  0  0  0
 17 18  1  0  0  0  0
 17 35  1  0  0  0  0
M  END
> <s_m_source_file>
AV-unprocessed.smi

> <i_m_source_file_index>
1151

> <i_lp_mmshare_version>
43012

> <i_f3d_flags>
0

> <s_epik_input>
W0NIM11jMW5jKFtjSF1zMSlbQ0gyXVtDSDJdW05IXUMoPU8pW0NAQEhdMltDSDJdW0NIMl1DKD1PKVtOSF1bQ0gyXTI=

> <s_epik_cmdline>
J2VwaWtfcHl0aG9uJywgJy1waCcsICc3LjAnLCAnLXRuJywgJzgnLCAnLW1hJywgJzIwMCcsICctbWV0YWxfYmluZGluZycsICctaW1hZScsICc8aW5maWxlLm1hZT4nLCAnLW9tYWUnLCAnPG91dGZpbGUubWFlPic=

> <r_epik_Ionization_Penalty>
0.00105008

> <r_epik_Ionization_Penalty_Charging>
0

> <r_epik_Ionization_Penalty_Neutral>
0.00105008

> <r_epik_State_Penalty>
0.000686749

> <r_epik_Charging_Adjusted_Penalty>
0.000686749

> <i_epik_Tot_Q>
0

> <i_epik_Tot_abs_Q>
0

> <r_epik_Metal_State_Penalty>
-0

> <b_epik_Metal_Only>
0

> <s_lp_Force_Field>
OPLS_2005

> <r_lp_Energy>
5.23985

> <b_lp_Chiralities_Consistent>
1

> <s_lp_Variant>
AV-unprocessed.smi:1151-1

> <Gold.Version>
5.8.1

> <Gold.Id.Protein>
6NUR|6NUR_protein|mol2

> <Gold.PLP.Fitness>
45.7965

> <Gold.PLP.PLP>
-38.9432

> <Gold.PLP.part.hbond>
-2.4825

> <Gold.PLP.part.metal>
0.0000

> <Gold.PLP.part.buried>
-4.4201

> <Gold.PLP.part.nonpolar>
-30.8204

> <Gold.PLP.part.repulsive>
1.0610

> <Gold.PLP.ligand.clash>
0.0457

> <Gold.PLP.ligand.torsion>
0.6989

> <Gold.PLP.Chemscore.Hbond>
1.7120

> <Gold.PLP.Chemscore.CHOScore>
1.0413

> <Gold.PLP.Chemscore.Metal>
0.0000

> <Gold.Chemscore.Hbonds>
donor molecule, donor type, donor heavy atom, donor atom, acceptor molecule, acceptor atom, score
      L1  H     7    26       P1  8028  0.33
      P1  H  7989  7998       L1     9  0.85
      L1  C    17    35       P1  8028  0.57
      L1  C    17    35       P1  8029  0.06

> <Gold.PLP.Chemscore.Internal.Correction>
0.0368

> <Gold.Rescore>
     Score         DG    S(hbond)    S(metal)    S(lipo)     H(rot)  DE(clash)    DE(int)     intcor
     16.33     -17.26       1.54        0.00      93.95       1.70       0.38       0.56       ----

> <Gold.Chemscore.Fitness>
16.3257

> <Gold.Chemscore.DG>
-17.2584

> <Gold.Chemscore.ZeroCoef>
-5.4800

> <Gold.Chemscore.Hbond>
1.5369

> <Gold.Chemscore.Metal>
0.0000

> <Gold.Chemscore.Lipo>
93.9455

> <Gold.Chemscore.Internal_Hbond>
0.0000

> <Gold.Chemscore.DEClash>
0.3768

> <Gold.Chemscore.DEInternal>
0.5559

> <Gold.Chemscore.Rot>
1.6978

> <Gold.Chemscore.Internal.Correction>
   9.000000E+99

> <Gold.Chemscore.Hbonds>
donor molecule, donor type, donor heavy atom, donor atom, acceptor molecule, acceptor atom, score
      L1  H     7    26       P1  8028  0.33
      P1  H  7989  7998       L1     9  0.77

> <Gold.Chemscore.Hbond.Weighted>
-5.1331

> <Gold.Chemscore.Metal.Weighted>
-0.0000

> <Gold.Chemscore.Lipo.Weighted>
-10.9916

> <Gold.Chemscore.Internal_Hbond.Weighted>
0.0000

> <Gold.Chemscore.DEClash.Weighted>
0.3768

> <Gold.Chemscore.DEInternal.Weighted>
0.5559

> <Gold.Chemscore.Rot.Weighted>
4.3463

> <Gold.Chemscore.Internal.Correction.Weighted>
   9.000000E+99

> <Gold.Protein.RotatedTorsions>
[ 6907 6896 6895 6894 ] final  174.35 input  -60.11 | X-H torsion
[ 7974 7965 7964 7962 ] final  146.39 input  175.53 | X-H torsion
[ 8008 7997 7996 7995 ] final   82.55 input   59.86 | X-H torsion
[ 10167 10162 10161 10158 ] final  177.22 input  -65.29 | X-H torsion
[ 10718 10713 10712 10709 ] final -114.82 input   66.30 | X-H torsion
[ 10763 10752 10751 10750 ] final -113.76 input  -60.55 | X-H torsion
[ 11005 11000 10999 10996 ] final  -57.14 input  -57.11 | X-H torsion

> <Gold.Protein.ActiveResidues>
 VAL166  LYS551  ARG553  GLY616  TRP617  ASP618  TYR619  PRO620  LYS621  CYS622 
 ASP623  PHE694  ASN695  SER759  ASP760  ASP761  ALA762  ILE779  LEU786  VAL792 
 PHE793  MET794  SER795  GLU796  ALA797  LYS798  CYS799  TRP800  GLU811  SER814 

> <Gold.Protein.RotatedAtoms>
  151.7537  133.3329  159.3398 H   0  0  0  0  0  0  0  0  0  0  0  0  # atno 6907 bound_to 6896
  150.7525  134.6169  159.6125 H   0  0  0  0  0  0  0  0  0  0  0  0  # atno 6908 bound_to 6896
  152.3451  134.7084  160.0304 H   0  0  0  0  0  0  0  0  0  0  0  0  # atno 6909 bound_to 6896
  144.8675  139.5900  143.5902 H   0  0  0  0  0  0  0  0  0  0  0  0  # atno 7974 bound_to 7965
  155.9121  140.3427  155.6106 H   0  0  0  0  0  0  0  0  0  0  0  0  # atno 8008 bound_to 7997
  155.7375  140.0803  157.2279 H   0  0  0  0  0  0  0  0  0  0  0  0  # atno 8009 bound_to 7997
  154.4057  140.1577  156.2566 H   0  0  0  0  0  0  0  0  0  0  0  0  # atno 8010 bound_to 7997
  139.5245  144.2823  152.0536 H   0  0  0  0  0  0  0  0  0  0  0  0  # atno 10167 bound_to 10162
  156.0855  130.6047  150.8825 H   0  0  0  0  0  0  0  0  0  0  0  0  # atno 10718 bound_to 10713
  154.8410  135.4442  154.1400 H   0  0  0  0  0  0  0  0  0  0  0  0  # atno 10763 bound_to 10752
  153.2588  135.6934  153.7607 H   0  0  0  0  0  0  0  0  0  0  0  0  # atno 10764 bound_to 10752
  153.6891  135.3390  155.3173 H   0  0  0  0  0  0  0  0  0  0  0  0  # atno 10765 bound_to 10752
  141.1152  133.6610  156.4725 H   0  0  0  0  0  0  0  0  0  0  0  0  # atno 11005 bound_to 11000
  146.2906  139.7128  142.9164 LP  0  0  0  0  0  0  0  0  0  0  0  0  # atno 17320 bound_to 7965
  145.4194  141.0405  143.2972 LP  0  0  0  0  0  0  0  0  0  0  0  0  # atno 17321 bound_to 7965
  140.2278  144.4400  150.6313 LP  0  0  0  0  0  0  0  0  0  0  0  0  # atno 17342 bound_to 10162
  140.6376  143.2197  151.6361 LP  0  0  0  0  0  0  0  0  0  0  0  0  # atno 17343 bound_to 10162
  157.5987  131.0942  150.8997 LP  0  0  0  0  0  0  0  0  0  0  0  0  # atno 17370 bound_to 10713
  156.9158  130.5297  149.5279 LP  0  0  0  0  0  0  0  0  0  0  0  0  # atno 17371 bound_to 10713
  140.4666  134.6792  157.5110 LP  0  0  0  0  0  0  0  0  0  0  0  0  # atno 17394 bound_to 11000
  140.0069  134.6750  155.9441 LP  0  0  0  0  0  0  0  0  0  0  0  0  # atno 17395 bound_to 11000

$$$$
