AV-unprocessed.smi:3330|AV-procd|sdf|12814|dock8
  -GOLD-   2272019183D 1   1.00000     0.00000
 Structure written by MMmdl.
 37 38  0  0  0  0  0  0  0  0  2 V2000
  150.3078  142.4104  156.4229 C   0  0  0  0  0  0  0  0  0  0  0  0
  150.6758  142.4539  157.9175 C   0  0  1  0  0  0  0  0  0  0  0  0
  151.7782  141.5185  158.1108 N   0  0  0  0  0  0  0  0  0  0  0  0
  151.3328  140.1413  157.9694 C   0  0  0  0  0  0  0  0  0  0  0  0
  152.4838  139.2822  157.4268 C   0  0  0  0  0  0  0  0  0  0  0  0
  152.0135  138.3822  156.3704 N   0  0  0  0  0  0  0  0  0  0  0  0
  151.5893  138.7890  155.1701 C   0  0  0  0  0  0  0  0  0  0  0  0
  151.5076  139.9422  154.7466 O   0  0  0  0  0  0  0  0  0  0  0  0
  151.2202  137.5572  154.3769 C   0  0  0  0  0  0  0  0  0  0  0  0
  151.5191  136.4904  155.3055 N   0  5  0  0  0  0  0  0  0  0  0  0
  151.9835  137.0383  156.4529 C   0  0  0  0  0  0  0  0  0  0  0  0
  152.3476  136.4341  157.4612 O   0  0  0  0  0  0  0  0  0  0  0  0
  151.0961  143.8642  158.4116 C   0  0  2  0  0  0  0  0  0  0  0  0
  152.0941  144.5621  157.4692 C   0  0  0  0  0  0  0  0  0  0  0  0
  151.6513  143.8156  159.7584 N   0  0  0  0  0  0  0  0  0  0  0  0
  152.0076  144.8653  160.5815 C   0  0  0  0  0  0  0  0  0  0  0  0
  152.4793  144.3306  161.7458 C   0  0  0  0  0  0  0  0  0  0  0  0
  152.3730  142.9272  161.5393 C   0  0  0  0  0  0  0  0  0  0  0  0
  151.8768  142.6223  160.3514 N   0  0  0  0  0  0  0  0  0  0  0  0
  149.4297  143.0187  156.2063 H   0  0  0  0  0  0  0  0  0  0  0  0
  150.0751  141.3935  156.1047 H   0  0  0  0  0  0  0  0  0  0  0  0
  151.1260  142.7754  155.8008 H   0  0  0  0  0  0  0  0  0  0  0  0
  149.7990  142.1278  158.4800 H   0  0  0  0  0  0  0  0  0  0  0  0
  152.5012  141.7011  157.4296 H   0  0  0  0  0  0  0  0  0  0  0  0
  151.0005  139.7554  158.9337 H   0  0  0  0  0  0  0  0  0  0  0  0
  150.4803  140.1028  157.2897 H   0  0  0  0  0  0  0  0  0  0  0  0
  153.2831  139.9193  157.0443 H   0  0  0  0  0  0  0  0  0  0  0  0
  152.9298  138.7014  158.2363 H   0  0  0  0  0  0  0  0  0  0  0  0
  150.1679  137.6000  154.0940 H   0  0  0  0  0  0  0  0  0  0  0  0
  151.8138  137.5121  153.4632 H   0  0  0  0  0  0  0  0  0  0  0  0
  150.1993  144.4859  158.4539 H   0  0  0  0  0  0  0  0  0  0  0  0
  151.6555  144.7426  156.4878 H   0  0  0  0  0  0  0  0  0  0  0  0
  152.9946  143.9641  157.3263 H   0  0  0  0  0  0  0  0  0  0  0  0
  152.3973  145.5308  157.8678 H   0  0  0  0  0  0  0  0  0  0  0  0
  151.8973  145.8941  160.2719 H   0  0  0  0  0  0  0  0  0  0  0  0
  152.8451  144.8612  162.6122 H   0  0  0  0  0  0  0  0  0  0  0  0
  152.6390  142.1260  162.2129 H   0  0  0  0  0  0  0  0  0  0  0  0
  1  2  1  0  0  0  0
  1 20  1  0  0  0  0
  1 21  1  0  0  0  0
  1 22  1  0  0  0  0
  2  3  1  0  0  0  0
  2 13  1  0  0  0  0
  2 23  1  0  0  0  0
  3  4  1  0  0  0  0
  3 24  1  0  0  0  0
  4  5  1  0  0  0  0
  4 25  1  0  0  0  0
  4 26  1  0  0  0  0
  5  6  1  0  0  0  0
  5 27  1  0  0  0  0
  5 28  1  0  0  0  0
  6 11  1  0  0  0  0
  6  7  1  0  0  0  0
  7  8  2  0  0  0  0
  7  9  1  0  0  0  0
  9 10  1  0  0  0  0
  9 29  1  0  0  0  0
  9 30  1  0  0  0  0
 10 11  1  0  0  0  0
 11 12  2  0  0  0  0
 13 14  1  0  0  0  0
 13 15  1  0  0  0  0
 13 31  1  0  0  0  0
 14 32  1  0  0  0  0
 14 33  1  0  0  0  0
 14 34  1  0  0  0  0
 15 19  1  0  0  0  0
 15 16  1  0  0  0  0
 16 17  2  0  0  0  0
 16 35  1  0  0  0  0
 17 18  1  0  0  0  0
 17 36  1  0  0  0  0
 18 19  2  0  0  0  0
 18 37  1  0  0  0  0
M  CHG  1  10  -1
M  END
> <s_m_source_file>
AV-unprocessed.smi

> <i_m_source_file_index>
3330

> <i_lp_mmshare_version>
43012

> <i_f3d_flags>
0

> <s_epik_input>
bjFbY0hdW2NIXVtjSF1uMVtDQEBIXShbQ0gzXSlbQ0BIXShbQ0gzXSlbTkhdW0NIMl1bQ0gyXU4yQyg9TylbQ0gyXVtOSF1DMj1P

> <s_epik_cmdline>
J2VwaWtfcHl0aG9uJywgJy1waCcsICc3LjAnLCAnLXRuJywgJzgnLCAnLW1hJywgJzIwMCcsICctbWV0YWxfYmluZGluZycsICctaW1hZScsICc8aW5maWxlLm1hZT4nLCAnLW9tYWUnLCAnPG91dGZpbGUubWFlPic=

> <r_lp_tautomer_probability>
1

> <r_epik_Ionization_Penalty>
8.77477

> <r_epik_Ionization_Penalty_Charging>
6.28461

> <r_epik_Ionization_Penalty_Neutral>
2.49016

> <r_epik_State_Penalty>
8.73376

> <r_epik_Charging_Adjusted_Penalty>
15.0184

> <i_epik_Tot_Q>
-1

> <i_epik_Tot_abs_Q>
1

> <r_epik_Metal_State_Penalty>
4.73175

> <b_epik_Metal_Only>
1

> <s_lp_Force_Field>
OPLS_2005

> <r_lp_Energy>
21.213

> <b_lp_Chiralities_Consistent>
1

> <s_lp_Variant>
AV-unprocessed.smi:3330-14

> <Gold.Version>
5.8.1

> <Gold.Id.Protein>
6NUR|6NUR_protein|mol2

> <Gold.PLP.Fitness>
46.7259

> <Gold.PLP.PLP>
-39.2591

> <Gold.PLP.part.hbond>
-2.8301

> <Gold.PLP.part.metal>
0.0000

> <Gold.PLP.part.buried>
-4.9626

> <Gold.PLP.part.nonpolar>
-31.1243

> <Gold.PLP.part.repulsive>
0.1863

> <Gold.PLP.ligand.clash>
0.0153

> <Gold.PLP.ligand.torsion>
0.8099

> <Gold.PLP.Chemscore.Hbond>
3.0000

> <Gold.PLP.Chemscore.CHOScore>
0.0000

> <Gold.PLP.Chemscore.Metal>
0.0000

> <Gold.Chemscore.Hbonds>
donor molecule, donor type, donor heavy atom, donor atom, acceptor molecule, acceptor atom, score
      P1  H  7989  7998       L1     8  1.00
      P1  H 10752 10764       L1    10  2.00

> <Gold.PLP.Chemscore.Internal.Correction>
0.1019

> <Gold.Rescore>
     Score         DG    S(hbond)    S(metal)    S(lipo)     H(rot)  DE(clash)    DE(int)     intcor
      9.81     -14.13       1.20        0.00      94.82       2.52       1.46       2.86       ----

> <Gold.Chemscore.Fitness>
9.8081

> <Gold.Chemscore.DG>
-14.1289

> <Gold.Chemscore.ZeroCoef>
-5.4800

> <Gold.Chemscore.Hbond>
1.1964

> <Gold.Chemscore.Metal>
0.0000

> <Gold.Chemscore.Lipo>
94.8211

> <Gold.Chemscore.Internal_Hbond>
0.0000

> <Gold.Chemscore.DEClash>
1.4603

> <Gold.Chemscore.DEInternal>
2.8605

> <Gold.Chemscore.Rot>
2.5160

> <Gold.Chemscore.Internal.Correction>
   9.000000E+99

> <Gold.Chemscore.Hbonds>
donor molecule, donor type, donor heavy atom, donor atom, acceptor molecule, acceptor atom, score
      P1  H  7989  7998       L1     8  0.95
      P1  H 10752 10764       L1    10  0.24

> <Gold.Chemscore.Hbond.Weighted>
-3.9958

> <Gold.Chemscore.Metal.Weighted>
-0.0000

> <Gold.Chemscore.Lipo.Weighted>
-11.0941

> <Gold.Chemscore.Internal_Hbond.Weighted>
0.0000

> <Gold.Chemscore.DEClash.Weighted>
1.4603

> <Gold.Chemscore.DEInternal.Weighted>
2.8605

> <Gold.Chemscore.Rot.Weighted>
6.4410

> <Gold.Chemscore.Internal.Correction.Weighted>
   9.000000E+99

> <Gold.Protein.RotatedTorsions>
[ 6907 6896 6895 6894 ] final  159.43 input  -60.11 | X-H torsion
[ 7974 7965 7964 7962 ] final -155.50 input  175.53 | X-H torsion
[ 8008 7997 7996 7995 ] final   83.35 input   59.86 | X-H torsion
[ 10167 10162 10161 10158 ] final  171.01 input  -65.29 | X-H torsion
[ 10718 10713 10712 10709 ] final  121.34 input   66.30 | X-H torsion
[ 10763 10752 10751 10750 ] final  -48.51 input  -60.55 | X-H torsion
[ 11005 11000 10999 10996 ] final   89.61 input  -57.11 | X-H torsion

> <Gold.Protein.ActiveResidues>
 VAL166  LYS551  ARG553  GLY616  TRP617  ASP618  TYR619  PRO620  LYS621  CYS622 
 ASP623  PHE694  ASN695  SER759  ASP760  ASP761  ALA762  ILE779  LEU786  VAL792 
 PHE793  MET794  SER795  GLU796  ALA797  LYS798  CYS799  TRP800  GLU811  SER814 

> <Gold.Protein.RotatedAtoms>
  151.9857  133.3773  159.4124 H   0  0  0  0  0  0  0  0  0  0  0  0  # atno 6907 bound_to 6896
  150.6928  134.3990  159.5120 H   0  0  0  0  0  0  0  0  0  0  0  0  # atno 6908 bound_to 6896
  152.1716  134.8829  160.0584 H   0  0  0  0  0  0  0  0  0  0  0  0  # atno 6909 bound_to 6896
  144.7637  140.4240  143.5958 H   0  0  0  0  0  0  0  0  0  0  0  0  # atno 7974 bound_to 7965
  155.9227  140.3420  155.6186 H   0  0  0  0  0  0  0  0  0  0  0  0  # atno 8008 bound_to 7997
  155.7253  140.0788  157.2331 H   0  0  0  0  0  0  0  0  0  0  0  0  # atno 8009 bound_to 7997
  154.4072  140.1598  156.2436 H   0  0  0  0  0  0  0  0  0  0  0  0  # atno 8010 bound_to 7997
  139.5034  144.3533  151.9900 H   0  0  0  0  0  0  0  0  0  0  0  0  # atno 10167 bound_to 10162
  157.5825  131.1073  150.8159 H   0  0  0  0  0  0  0  0  0  0  0  0  # atno 10718 bound_to 10713
  154.0789  135.6594  153.4835 H   0  0  0  0  0  0  0  0  0  0  0  0  # atno 10763 bound_to 10752
  153.0363  135.5175  154.7493 H   0  0  0  0  0  0  0  0  0  0  0  0  # atno 10764 bound_to 10752
  154.6582  135.3011  154.9869 H   0  0  0  0  0  0  0  0  0  0  0  0  # atno 10765 bound_to 10752
  139.8872  134.8562  156.3166 H   0  0  0  0  0  0  0  0  0  0  0  0  # atno 11005 bound_to 11000
  145.6538  139.1569  143.2847 LP  0  0  0  0  0  0  0  0  0  0  0  0  # atno 17320 bound_to 7965
  146.1725  140.6624  142.9227 LP  0  0  0  0  0  0  0  0  0  0  0  0  # atno 17321 bound_to 7965
  140.2970  144.3690  150.6071 LP  0  0  0  0  0  0  0  0  0  0  0  0  # atno 17342 bound_to 10162
  140.5903  143.2168  151.7266 LP  0  0  0  0  0  0  0  0  0  0  0  0  # atno 17343 bound_to 10162
  156.8602  130.5110  149.5304 LP  0  0  0  0  0  0  0  0  0  0  0  0  # atno 17370 bound_to 10713
  156.0872  130.5867  150.9668 LP  0  0  0  0  0  0  0  0  0  0  0  0  # atno 17371 bound_to 10713
  140.9814  133.7265  156.0678 LP  0  0  0  0  0  0  0  0  0  0  0  0  # atno 17394 bound_to 11000
  140.7744  134.3796  157.5501 LP  0  0  0  0  0  0  0  0  0  0  0  0  # atno 17395 bound_to 11000

$$$$
