AV-unprocessed.smi:2509|AV-procd|sdf|9868|dock3
  -GOLD-   2272013503D 1   1.00000     0.00000
 Structure written by MMmdl.
 45 46  0  0  0  0  0  0  0  0  1 V2000
  151.6801  140.7647  157.5804 C   0  0  0  0  0  0  0  0  0  0  0  0
  150.4398  141.4925  157.0097 C   0  0  0  0  0  0  0  0  0  0  0  0
  149.4867  141.8660  158.1600 C   0  0  0  0  0  0  0  0  0  0  0  0
  150.9712  142.7813  156.3391 C   0  0  0  0  0  0  0  0  0  0  0  0
  149.6963  140.6069  155.9945 C   0  0  0  0  0  0  0  0  0  0  0  0
  150.3895  140.1904  154.9266 N   0  0  0  0  0  0  0  0  0  0  0  0
  149.7905  139.3135  154.0942 C   0  0  0  0  0  0  0  0  0  0  0  0
  148.4934  138.8199  154.3369 C   0  0  0  0  0  0  0  0  0  0  0  0
  147.9311  137.8864  153.4256 N   0  0  0  0  0  0  0  0  0  0  0  0
  146.6337  137.6330  153.1854 C   0  0  0  0  0  0  0  0  0  0  0  0
  145.6859  138.2021  153.7258 O   0  0  0  0  0  0  0  0  0  0  0  0
  146.4924  136.6825  152.2504 N   0  0  0  0  0  0  0  0  0  0  0  0
  145.2202  136.1851  151.7350 C   0  0  0  0  0  0  0  0  0  0  0  0
  145.1645  134.6424  151.7362 C   0  0  2  0  0  0  0  0  0  0  0  0
  146.3827  133.9322  151.1283 C   0  0  0  0  0  0  0  0  0  0  0  0
  145.8940  132.5327  150.7261 C   0  0  0  0  0  0  0  0  0  0  0  0
  144.3609  132.5568  150.8328 C   0  0  0  0  0  0  0  0  0  0  0  0
  143.9707  134.0303  150.9887 C   0  0  2  0  0  0  0  0  0  0  0  0
  143.8170  134.6040  149.7039 O   0  0  0  0  0  0  0  0  0  0  0  0
  147.8710  139.2839  155.5203 C   0  0  0  0  0  0  0  0  0  0  0  0
  148.4829  140.1604  156.3448 N   0  0  0  0  0  0  0  0  0  0  0  0
  152.2353  141.4052  158.2666 H   0  0  0  0  0  0  0  0  0  0  0  0
  152.3651  140.4644  156.7865 H   0  0  0  0  0  0  0  0  0  0  0  0
  151.4079  139.8685  158.1392 H   0  0  0  0  0  0  0  0  0  0  0  0
  149.1200  140.9773  158.6753 H   0  0  0  0  0  0  0  0  0  0  0  0
  148.6183  142.4140  157.7928 H   0  0  0  0  0  0  0  0  0  0  0  0
  149.9832  142.4941  158.9002 H   0  0  0  0  0  0  0  0  0  0  0  0
  151.5410  143.3888  157.0431 H   0  0  0  0  0  0  0  0  0  0  0  0
  150.1631  143.4106  155.9641 H   0  0  0  0  0  0  0  0  0  0  0  0
  151.6279  142.5513  155.4991 H   0  0  0  0  0  0  0  0  0  0  0  0
  150.3565  139.0013  153.2286 H   0  0  0  0  0  0  0  0  0  0  0  0
  148.5956  137.3857  152.8538 H   0  0  0  0  0  0  0  0  0  0  0  0
  147.3291  136.2749  151.8592 H   0  0  0  0  0  0  0  0  0  0  0  0
  144.4284  136.5765  152.3742 H   0  0  0  0  0  0  0  0  0  0  0  0
  145.0289  136.5840  150.7375 H   0  0  0  0  0  0  0  0  0  0  0  0
  145.0869  134.3148  152.7747 H   0  0  0  0  0  0  0  0  0  0  0  0
  146.7199  134.4659  150.2387 H   0  0  0  0  0  0  0  0  0  0  0  0
  147.2234  133.8908  151.8216 H   0  0  0  0  0  0  0  0  0  0  0  0
  146.2124  132.2989  149.7096 H   0  0  0  0  0  0  0  0  0  0  0  0
  146.3098  131.7663  151.3812 H   0  0  0  0  0  0  0  0  0  0  0  0
  143.8717  132.0724  149.9865 H   0  0  0  0  0  0  0  0  0  0  0  0
  144.0606  132.0128  151.7293 H   0  0  0  0  0  0  0  0  0  0  0  0
  143.0376  134.1471  151.5409 H   0  0  0  0  0  0  0  0  0  0  0  0
  142.9497  134.4014  149.3874 H   0  0  0  0  0  0  0  0  0  0  0  0
  146.8976  138.9479  155.8413 H   0  0  0  0  0  0  0  0  0  0  0  0
  1  2  1  0  0  0  0
  1 22  1  0  0  0  0
  1 23  1  0  0  0  0
  1 24  1  0  0  0  0
  2  3  1  0  0  0  0
  2  4  1  0  0  0  0
  2  5  1  0  0  0  0
  3 25  1  0  0  0  0
  3 26  1  0  0  0  0
  3 27  1  0  0  0  0
  4 28  1  0  0  0  0
  4 29  1  0  0  0  0
  4 30  1  0  0  0  0
  5 21  1  0  0  0  0
  5  6  2  0  0  0  0
  6  7  1  0  0  0  0
  7  8  2  0  0  0  0
  7 31  1  0  0  0  0
  8  9  1  0  0  0  0
  8 20  1  0  0  0  0
  9 10  1  0  0  0  0
  9 32  1  0  0  0  0
 10 11  2  0  0  0  0
 10 12  1  0  0  0  0
 12 13  1  0  0  0  0
 12 33  1  0  0  0  0
 13 14  1  0  0  0  0
 13 34  1  0  0  0  0
 13 35  1  0  0  0  0
 14 18  1  0  0  0  0
 14 15  1  0  0  0  0
 14 36  1  0  0  0  0
 15 16  1  0  0  0  0
 15 37  1  0  0  0  0
 15 38  1  0  0  0  0
 16 17  1  0  0  0  0
 16 39  1  0  0  0  0
 16 40  1  0  0  0  0
 17 18  1  0  0  0  0
 17 41  1  0  0  0  0
 17 42  1  0  0  0  0
 18 19  1  0  0  0  0
 18 43  1  0  0  0  0
 19 44  1  0  0  0  0
 20 21  2  0  0  0  0
 20 45  1  0  0  0  0
M  END
> <s_m_source_file>
AV-unprocessed.smi

> <i_m_source_file_index>
2509

> <i_lp_mmshare_version>
43012

> <i_f3d_flags>
0

> <s_epik_input>
W0NIM11DKFtDSDNdKShbQ0gzXSljMW5bY0hdYyhbY0hdbjEpW05IXUMoPU8pW05IXVtDSDJdW0NAQEhdMltDSDJdW0NIMl1bQ0gyXVtDQEhdMltPSF0=

> <s_epik_cmdline>
J2VwaWtfcHl0aG9uJywgJy1waCcsICc3LjAnLCAnLXRuJywgJzgnLCAnLW1hJywgJzIwMCcsICctbWV0YWxfYmluZGluZycsICctaW1hZScsICc8aW5maWxlLm1hZT4nLCAnLW9tYWUnLCAnPG91dGZpbGUubWFlPic=

> <r_lp_tautomer_probability>
1

> <r_epik_Ionization_Penalty>
2.77586e-05

> <r_epik_Ionization_Penalty_Charging>
0

> <r_epik_Ionization_Penalty_Neutral>
2.77586e-05

> <r_epik_State_Penalty>
-0

> <r_epik_Charging_Adjusted_Penalty>
0

> <i_epik_Tot_Q>
0

> <i_epik_Tot_abs_Q>
0

> <r_epik_Metal_State_Penalty>
-0

> <b_epik_Metal_Only>
0

> <s_lp_Force_Field>
OPLS_2005

> <r_lp_Energy>
21.5241

> <b_lp_Chiralities_Consistent>
1

> <s_lp_Variant>
AV-unprocessed.smi:2509-3

> <Gold.Version>
5.8.1

> <Gold.Id.Protein>
6NUR|6NUR_protein|mol2

> <Gold.PLP.Fitness>
41.9961

> <Gold.PLP.PLP>
-29.7928

> <Gold.PLP.part.hbond>
-4.5201

> <Gold.PLP.part.metal>
0.0000

> <Gold.PLP.part.buried>
-2.8300

> <Gold.PLP.part.nonpolar>
-23.3669

> <Gold.PLP.part.repulsive>
0.3114

> <Gold.PLP.ligand.clash>
0.0000

> <Gold.PLP.ligand.torsion>
0.3787

> <Gold.PLP.Chemscore.Hbond>
3.5708

> <Gold.PLP.Chemscore.CHOScore>
0.6992

> <Gold.PLP.Chemscore.Metal>
0.0000

> <Gold.Chemscore.Hbonds>
donor molecule, donor type, donor heavy atom, donor atom, acceptor molecule, acceptor atom, score
      L1  H     9    32       P1  7948  1.00
      L1  H    12    33       P1  7948  0.98
      L1  H    19    44       P1 10186  1.00
      P1  H  7989  7998       L1     6  0.65
      L1  C     7    31       P1  7957  0.69

> <Gold.PLP.Chemscore.Internal.Correction>
0.1509

> <Gold.Rescore>
     Score         DG    S(hbond)    S(metal)    S(lipo)     H(rot)  DE(clash)    DE(int)     intcor
     17.32     -18.91       2.91        0.00      73.51       1.91       0.20       1.39       ----

> <Gold.Chemscore.Fitness>
17.3198

> <Gold.Chemscore.DG>
-18.9065

> <Gold.Chemscore.ZeroCoef>
-5.4800

> <Gold.Chemscore.Hbond>
2.9099

> <Gold.Chemscore.Metal>
0.0000

> <Gold.Chemscore.Lipo>
73.5143

> <Gold.Chemscore.Internal_Hbond>
0.0000

> <Gold.Chemscore.DEClash>
0.1982

> <Gold.Chemscore.DEInternal>
1.3885

> <Gold.Chemscore.Rot>
1.9116

> <Gold.Chemscore.Internal.Correction>
   9.000000E+99

> <Gold.Chemscore.Hbonds>
donor molecule, donor type, donor heavy atom, donor atom, acceptor molecule, acceptor atom, score
      L1  H     9    32       P1  7948  0.92
      L1  H    12    33       P1  7948  0.92
      L1  H    19    44       P1 10186  0.95
      P1  H  7989  7998       L1     6  0.05

> <Gold.Chemscore.Hbond.Weighted>
-9.7189

> <Gold.Chemscore.Metal.Weighted>
-0.0000

> <Gold.Chemscore.Lipo.Weighted>
-8.6012

> <Gold.Chemscore.Internal_Hbond.Weighted>
0.0000

> <Gold.Chemscore.DEClash.Weighted>
0.1982

> <Gold.Chemscore.DEInternal.Weighted>
1.3885

> <Gold.Chemscore.Rot.Weighted>
4.8936

> <Gold.Chemscore.Internal.Correction.Weighted>
   9.000000E+99

> <Gold.Protein.RotatedTorsions>
[ 6907 6896 6895 6894 ] final  -75.24 input  -60.11 | X-H torsion
[ 7974 7965 7964 7962 ] final  118.93 input  175.53 | X-H torsion
[ 8008 7997 7996 7995 ] final  118.84 input   59.86 | X-H torsion
[ 10167 10162 10161 10158 ] final  -80.81 input  -65.29 | X-H torsion
[ 10718 10713 10712 10709 ] final   -4.37 input   66.30 | X-H torsion
[ 10763 10752 10751 10750 ] final   20.19 input  -60.55 | X-H torsion
[ 11005 11000 10999 10996 ] final   28.78 input  -57.11 | X-H torsion

> <Gold.Protein.ActiveResidues>
 VAL166  LYS551  ARG553  GLY616  TRP617  ASP618  TYR619  PRO620  LYS621  CYS622 
 ASP623  PHE694  ASN695  SER759  ASP760  ASP761  ALA762  ILE779  LEU786  VAL792 
 PHE793  MET794  SER795  GLU796  ALA797  LYS798  CYS799  TRP800  GLU811  SER814 

> <Gold.Protein.RotatedAtoms>
  150.7065  134.4750  159.5442 H   0  0  0  0  0  0  0  0  0  0  0  0  # atno 6907 bound_to 6896
  152.2398  134.8237  160.0471 H   0  0  0  0  0  0  0  0  0  0  0  0  # atno 6908 bound_to 6896
  151.9022  133.3506  159.3871 H   0  0  0  0  0  0  0  0  0  0  0  0  # atno 6909 bound_to 6896
  145.1493  139.3220  143.4575 H   0  0  0  0  0  0  0  0  0  0  0  0  # atno 7974 bound_to 7965
  156.2566  140.2866  156.0897 H   0  0  0  0  0  0  0  0  0  0  0  0  # atno 8008 bound_to 7997
  155.1476  140.0397  157.2831 H   0  0  0  0  0  0  0  0  0  0  0  0  # atno 8009 bound_to 7997
  154.6484  140.2539  155.7248 H   0  0  0  0  0  0  0  0  0  0  0  0  # atno 8010 bound_to 7997
  140.4469  143.2496  151.8545 H   0  0  0  0  0  0  0  0  0  0  0  0  # atno 10167 bound_to 10162
  156.7623  130.5273  149.5783 H   0  0  0  0  0  0  0  0  0  0  0  0  # atno 10718 bound_to 10713
  153.1098  135.6694  153.9520 H   0  0  0  0  0  0  0  0  0  0  0  0  # atno 10763 bound_to 10752
  153.9066  135.3030  155.3450 H   0  0  0  0  0  0  0  0  0  0  0  0  # atno 10764 bound_to 10752
  154.7518  135.5031  153.9381 H   0  0  0  0  0  0  0  0  0  0  0  0  # atno 10765 bound_to 10752
  140.3119  134.2640  155.7732 H   0  0  0  0  0  0  0  0  0  0  0  0  # atno 11005 bound_to 11000
  146.3496  140.1560  142.8591 LP  0  0  0  0  0  0  0  0  0  0  0  0  # atno 17320 bound_to 7965
  145.0448  140.8973  143.5030 LP  0  0  0  0  0  0  0  0  0  0  0  0  # atno 17321 bound_to 7965
  139.4793  144.5165  151.8861 LP  0  0  0  0  0  0  0  0  0  0  0  0  # atno 17342 bound_to 10162
  140.4253  144.2189  150.5887 LP  0  0  0  0  0  0  0  0  0  0  0  0  # atno 17343 bound_to 10162
  156.1331  130.6192  151.0362 LP  0  0  0  0  0  0  0  0  0  0  0  0  # atno 17370 bound_to 10713
  157.6729  131.0857  150.7568 LP  0  0  0  0  0  0  0  0  0  0  0  0  # atno 17371 bound_to 10713
  141.2106  133.7714  156.9920 LP  0  0  0  0  0  0  0  0  0  0  0  0  # atno 17394 bound_to 11000
  140.1017  134.9531  157.1933 LP  0  0  0  0  0  0  0  0  0  0  0  0  # atno 17395 bound_to 11000

$$$$
