AV-unprocessed.smi:625|AV-procd|sdf|3106|dock6
  -GOLD-   22720 0 33D 1   1.00000     0.00000
 Structure written by MMmdl.
 49 51  0  0  0  0  0  0  0  0  1 V2000
  149.9420  138.7023  154.0709 C   0  0  0  0  0  0  0  0  0  0  0  0
  150.0295  137.2680  154.3007 N   0  0  0  0  0  0  0  0  0  0  0  0
  150.6159  136.7017  155.3697 C   0  0  0  0  0  0  0  0  0  0  0  0
  151.1346  137.3817  156.2562 O   0  0  0  0  0  0  0  0  0  0  0  0
  150.5792  135.2362  155.3721 C   0  0  0  0  0  0  0  0  0  0  0  0
  151.2847  134.5129  156.4126 C   0  0  0  0  0  0  0  0  0  0  0  0
  151.2879  133.1658  156.4362 C   0  0  0  0  0  0  0  0  0  0  0  0
  150.5842  132.3766  155.4220 C   0  0  0  0  0  0  0  0  0  0  0  0
  150.6009  131.1455  155.4250 O   0  0  0  0  0  0  0  0  0  0  0  0
  149.9179  133.0946  154.4670 N   0  0  0  0  0  0  0  0  0  0  0  0
  149.1863  132.4122  153.3830 C   0  0  0  0  0  0  0  0  0  0  0  0
  147.6729  132.6886  153.3590 C   0  0  0  0  0  0  0  0  0  0  0  0
  146.9002  131.8352  153.7928 O   0  0  0  0  0  0  0  0  0  0  0  0
  147.2559  133.8606  152.8508 N   0  0  0  0  0  0  0  0  0  0  0  0
  145.8696  134.2777  152.6683 C   0  0  1  0  0  0  0  0  0  0  0  0
  145.7812  135.8096  152.7855 C   0  0  0  0  0  0  0  0  0  0  0  0
  145.3561  133.7617  151.3020 C   0  0  2  0  0  0  0  0  0  0  0  0
  143.8131  133.6855  151.2068 C   0  0  0  0  0  0  0  0  0  0  0  0
  143.5564  132.2335  150.7657 C   0  0  1  0  0  0  0  0  0  0  0  0
  144.0326  132.0417  149.3141 C   0  0  0  0  0  0  0  0  0  0  0  0
  145.5659  132.0624  149.4560 C   0  0  0  0  0  0  0  0  0  0  0  0
  145.7634  132.3026  150.9649 C   0  0  2  0  0  0  0  0  0  0  0  0
  144.6208  131.4822  151.5539 C   0  0  0  0  0  0  0  0  0  0  0  0
  149.9232  134.5037  154.4451 C   0  0  0  0  0  0  0  0  0  0  0  0
  149.4352  138.8971  153.1258 H   0  0  0  0  0  0  0  0  0  0  0  0
  150.9359  139.1496  154.0232 H   0  0  0  0  0  0  0  0  0  0  0  0
  149.3778  139.1893  154.8675 H   0  0  0  0  0  0  0  0  0  0  0  0
  149.6202  136.6631  153.6032 H   0  0  0  0  0  0  0  0  0  0  0  0
  151.8192  135.0480  157.1845 H   0  0  0  0  0  0  0  0  0  0  0  0
  151.8227  132.6528  157.2220 H   0  0  0  0  0  0  0  0  0  0  0  0
  149.6038  132.6862  152.4124 H   0  0  0  0  0  0  0  0  0  0  0  0
  149.3299  131.3331  153.4533 H   0  0  0  0  0  0  0  0  0  0  0  0
  147.9623  134.5042  152.5247 H   0  0  0  0  0  0  0  0  0  0  0  0
  145.2608  133.8339  153.4578 H   0  0  0  0  0  0  0  0  0  0  0  0
  144.7543  136.1609  152.6872 H   0  0  0  0  0  0  0  0  0  0  0  0
  146.3746  136.3011  152.0137 H   0  0  0  0  0  0  0  0  0  0  0  0
  146.1470  136.1522  153.7540 H   0  0  0  0  0  0  0  0  0  0  0  0
  145.7393  134.4278  150.5267 H   0  0  0  0  0  0  0  0  0  0  0  0
  143.3431  133.8635  152.1749 H   0  0  0  0  0  0  0  0  0  0  0  0
  143.4046  134.4124  150.5039 H   0  0  0  0  0  0  0  0  0  0  0  0
  142.5330  131.8991  150.9388 H   0  0  0  0  0  0  0  0  0  0  0  0
  143.6976  131.0826  148.9168 H   0  0  0  0  0  0  0  0  0  0  0  0
  143.6649  132.8266  148.6522 H   0  0  0  0  0  0  0  0  0  0  0  0
  145.9904  131.1022  149.1602 H   0  0  0  0  0  0  0  0  0  0  0  0
  146.0333  132.8345  148.8437 H   0  0  0  0  0  0  0  0  0  0  0  0
  146.7557  132.0105  151.3088 H   0  0  0  0  0  0  0  0  0  0  0  0
  144.5179  131.5890  152.6349 H   0  0  0  0  0  0  0  0  0  0  0  0
  144.6759  130.4210  151.3044 H   0  0  0  0  0  0  0  0  0  0  0  0
  149.3695  134.9262  153.6189 H   0  0  0  0  0  0  0  0  0  0  0  0
  1  2  1  0  0  0  0
  1 25  1  0  0  0  0
  1 26  1  0  0  0  0
  1 27  1  0  0  0  0
  2  3  1  0  0  0  0
  2 28  1  0  0  0  0
  3  4  2  0  0  0  0
  3  5  1  0  0  0  0
  5 24  2  0  0  0  0
  5  6  1  0  0  0  0
  6  7  2  0  0  0  0
  6 29  1  0  0  0  0
  7  8  1  0  0  0  0
  7 30  1  0  0  0  0
  8  9  2  0  0  0  0
  8 10  1  0  0  0  0
 10 11  1  0  0  0  0
 10 24  1  0  0  0  0
 11 12  1  0  0  0  0
 11 31  1  0  0  0  0
 11 32  1  0  0  0  0
 12 13  2  0  0  0  0
 12 14  1  0  0  0  0
 14 15  1  0  0  0  0
 14 33  1  0  0  0  0
 15 16  1  0  0  0  0
 15 17  1  0  0  0  0
 15 34  1  0  0  0  0
 16 35  1  0  0  0  0
 16 36  1  0  0  0  0
 16 37  1  0  0  0  0
 17 22  1  0  0  0  0
 17 18  1  0  0  0  0
 17 38  1  0  0  0  0
 18 19  1  0  0  0  0
 18 39  1  0  0  0  0
 18 40  1  0  0  0  0
 19 23  1  0  0  0  0
 19 20  1  0  0  0  0
 19 41  1  0  0  0  0
 20 21  1  0  0  0  0
 20 42  1  0  0  0  0
 20 43  1  0  0  0  0
 21 22  1  0  0  0  0
 21 44  1  0  0  0  0
 21 45  1  0  0  0  0
 22 23  1  0  0  0  0
 22 46  1  0  0  0  0
 23 47  1  0  0  0  0
 23 48  1  0  0  0  0
 24 49  1  0  0  0  0
M  END
> <s_m_source_file>
AV-unprocessed.smi

> <i_m_source_file_index>
625

> <i_lp_mmshare_version>
43012

> <i_f3d_flags>
0

> <s_epik_input>
W0NIM11bTkhdQyg9TyljMVtjSF1bY0hdYyg9TyluKFtjSF0xKVtDSDJdQyg9TylbTkhdW0NASF0oW0NIM10pW0NASF0oW0NIMl1bQ0BIXTIzKVtDQEhdKFtDSDJdMylbQ0gyXVtDSDJdMg==

> <s_epik_cmdline>
J2VwaWtfcHl0aG9uJywgJy1waCcsICc3LjAnLCAnLXRuJywgJzgnLCAnLW1hJywgJzIwMCcsICctbWV0YWxfYmluZGluZycsICctaW1hZScsICc8aW5maWxlLm1hZT4nLCAnLW9tYWUnLCAnPG91dGZpbGUubWFlPic=

> <r_lp_tautomer_probability>
1

> <r_epik_Ionization_Penalty>
3.7129e-07

> <r_epik_Ionization_Penalty_Charging>
5.04114e-08

> <r_epik_Ionization_Penalty_Neutral>
3.20879e-07

> <r_epik_State_Penalty>
-0

> <r_epik_Charging_Adjusted_Penalty>
5.04114e-08

> <i_epik_Tot_Q>
0

> <i_epik_Tot_abs_Q>
0

> <r_epik_Metal_State_Penalty>
-0

> <b_epik_Metal_Only>
0

> <s_lp_Force_Field>
OPLS_2005

> <r_lp_Energy>
63.073

> <b_lp_Chiralities_Consistent>
1

> <s_lp_Variant>
AV-unprocessed.smi:625-6

> <Gold.Version>
5.8.1

> <Gold.Id.Protein>
6NUR|6NUR_protein|mol2

> <Gold.PLP.Fitness>
50.7514

> <Gold.PLP.PLP>
-44.2787

> <Gold.PLP.part.hbond>
-2.0198

> <Gold.PLP.part.metal>
0.0000

> <Gold.PLP.part.buried>
-4.1045

> <Gold.PLP.part.nonpolar>
-38.3798

> <Gold.PLP.part.repulsive>
0.1481

> <Gold.PLP.ligand.clash>
0.0000

> <Gold.PLP.ligand.torsion>
0.9529

> <Gold.PLP.Chemscore.Hbond>
2.0000

> <Gold.PLP.Chemscore.CHOScore>
0.7827

> <Gold.PLP.Chemscore.Metal>
0.0000

> <Gold.Chemscore.Hbonds>
donor molecule, donor type, donor heavy atom, donor atom, acceptor molecule, acceptor atom, score
      L1  H     2    28       P1  7948  1.00
      L1  H    14    33       P1  7948  0.94
      L1  C    24    49       P1  7948  0.73

> <Gold.PLP.Chemscore.Internal.Correction>
0.0305

> <Gold.Rescore>
     Score         DG    S(hbond)    S(metal)    S(lipo)     H(rot)  DE(clash)    DE(int)     intcor
     17.30     -18.34       1.67        0.00      98.90       1.67       0.18       0.87       ----

> <Gold.Chemscore.Fitness>
17.2979

> <Gold.Chemscore.DG>
-18.3432

> <Gold.Chemscore.ZeroCoef>
-5.4800

> <Gold.Chemscore.Hbond>
1.6676

> <Gold.Chemscore.Metal>
0.0000

> <Gold.Chemscore.Lipo>
98.8954

> <Gold.Chemscore.Internal_Hbond>
0.0000

> <Gold.Chemscore.DEClash>
0.1791

> <Gold.Chemscore.DEInternal>
0.8662

> <Gold.Chemscore.Rot>
1.6709

> <Gold.Chemscore.Internal.Correction>
   9.000000E+99

> <Gold.Chemscore.Hbonds>
donor molecule, donor type, donor heavy atom, donor atom, acceptor molecule, acceptor atom, score
      L1  H     2    28       P1  7948  0.64
      L1  H    14    33       P1  7948  0.45

> <Gold.Chemscore.Hbond.Weighted>
-5.5698

> <Gold.Chemscore.Metal.Weighted>
-0.0000

> <Gold.Chemscore.Lipo.Weighted>
-11.5708

> <Gold.Chemscore.Internal_Hbond.Weighted>
0.0000

> <Gold.Chemscore.DEClash.Weighted>
0.1791

> <Gold.Chemscore.DEInternal.Weighted>
0.8662

> <Gold.Chemscore.Rot.Weighted>
4.2774

> <Gold.Chemscore.Internal.Correction.Weighted>
   9.000000E+99

> <Gold.Protein.RotatedTorsions>
[ 6907 6896 6895 6894 ] final   28.32 input  -60.11 | X-H torsion
[ 7974 7965 7964 7962 ] final -143.71 input  175.53 | X-H torsion
[ 8008 7997 7996 7995 ] final  -98.54 input   59.86 | X-H torsion
[ 10167 10162 10161 10158 ] final  115.84 input  -65.29 | X-H torsion
[ 10718 10713 10712 10709 ] final -177.26 input   66.30 | X-H torsion
[ 10763 10752 10751 10750 ] final -124.33 input  -60.55 | X-H torsion
[ 11005 11000 10999 10996 ] final -108.00 input  -57.11 | X-H torsion

> <Gold.Protein.ActiveResidues>
 VAL166  LYS551  ARG553  GLY616  TRP617  ASP618  TYR619  PRO620  LYS621  CYS622 
 ASP623  PHE694  ASN695  SER759  ASP760  ASP761  ALA762  ILE779  LEU786  VAL792 
 PHE793  MET794  SER795  GLU796  ALA797  LYS798  CYS799  TRP800  GLU811  SER814 

> <Gold.Protein.RotatedAtoms>
  152.0152  134.9854  160.0568 H   0  0  0  0  0  0  0  0  0  0  0  0  # atno 6907 bound_to 6896
  152.1390  133.4448  159.4766 H   0  0  0  0  0  0  0  0  0  0  0  0  # atno 6908 bound_to 6896
  150.6863  134.2246  159.4453 H   0  0  0  0  0  0  0  0  0  0  0  0  # atno 6909 bound_to 6896
  144.8350  140.5801  143.5490 H   0  0  0  0  0  0  0  0  0  0  0  0  # atno 7974 bound_to 7965
  154.8026  140.0454  157.1284 H   0  0  0  0  0  0  0  0  0  0  0  0  # atno 8008 bound_to 7997
  154.9461  140.3059  155.5077 H   0  0  0  0  0  0  0  0  0  0  0  0  # atno 8009 bound_to 7997
  156.2963  140.2296  156.4535 H   0  0  0  0  0  0  0  0  0  0  0  0  # atno 8010 bound_to 7997
  139.6289  144.7112  151.2475 H   0  0  0  0  0  0  0  0  0  0  0  0  # atno 10167 bound_to 10162
  156.8268  130.9639  151.3109 H   0  0  0  0  0  0  0  0  0  0  0  0  # atno 10718 bound_to 10713
  154.8721  135.4067  154.3088 H   0  0  0  0  0  0  0  0  0  0  0  0  # atno 10763 bound_to 10752
  153.3935  135.7015  153.6483 H   0  0  0  0  0  0  0  0  0  0  0  0  # atno 10764 bound_to 10752
  153.5255  135.3678  155.2623 H   0  0  0  0  0  0  0  0  0  0  0  0  # atno 10765 bound_to 10752
  141.0924  133.9031  157.2043 H   0  0  0  0  0  0  0  0  0  0  0  0  # atno 11005 bound_to 11000
  145.4815  139.1495  143.3759 LP  0  0  0  0  0  0  0  0  0  0  0  0  # atno 17320 bound_to 7965
  146.2649  140.4951  142.8838 LP  0  0  0  0  0  0  0  0  0  0  0  0  # atno 17321 bound_to 7965
  140.7427  143.6517  150.8242 LP  0  0  0  0  0  0  0  0  0  0  0  0  # atno 17342 bound_to 10162
  140.0139  143.5613  152.2828 LP  0  0  0  0  0  0  0  0  0  0  0  0  # atno 17343 bound_to 10162
  157.6428  130.8819  149.9480 LP  0  0  0  0  0  0  0  0  0  0  0  0  # atno 17370 bound_to 10713
  156.0957  130.3659  150.0311 LP  0  0  0  0  0  0  0  0  0  0  0  0  # atno 17371 bound_to 10713
  139.9753  135.0116  156.9616 LP  0  0  0  0  0  0  0  0  0  0  0  0  # atno 17394 bound_to 11000
  140.5220  134.0898  155.7294 LP  0  0  0  0  0  0  0  0  0  0  0  0  # atno 17395 bound_to 11000

$$$$
