AV-unprocessed.smi:2439|AV-procd|sdf|9609|dock5
  -GOLD-   2272013243D 1   1.00000     0.00000
 Structure written by MMmdl.
 41 43  0  0  0  0  0  0  0  0  2 V2000
  151.2294  137.9203  155.2434 N   0  0  0  0  0  0  0  0  0  0  0  0
  150.7526  138.9272  155.5555 C   0  0  0  0  0  0  0  0  0  0  0  0
  150.1507  140.1950  155.9502 C   0  0  0  0  0  0  0  0  0  0  0  0
  150.6285  140.8488  157.1053 C   0  0  0  0  0  0  0  0  0  0  0  0
  150.0477  142.0707  157.4911 C   0  0  0  0  0  0  0  0  0  0  0  0
  149.0076  142.5931  156.7015 C   0  0  0  0  0  0  0  0  0  0  0  0
  148.5408  141.9786  155.5943 N   0  0  0  0  0  0  0  0  0  0  0  0
  149.0947  140.8001  155.2169 C   0  0  0  0  0  0  0  0  0  0  0  0
  148.5850  140.1840  154.0602 N   0  0  0  0  0  0  0  0  0  0  0  0
  148.1073  138.8090  154.0885 C   0  0  0  0  0  0  0  0  0  0  0  0
  146.5675  138.7445  154.1053 C   0  0  2  0  0  0  0  0  0  0  0  0
  146.0273  137.3159  154.3045 C   0  0  0  0  0  0  0  0  0  0  0  0
  146.2417  136.4848  153.0964 N   0  3  1  0  0  0  0  0  0  0  0  0
  145.7648  135.0907  153.2839 C   0  0  0  0  0  0  0  0  0  0  0  0
  146.0760  134.2261  152.0523 C   0  0  0  0  0  0  0  0  0  0  0  0
  145.4728  134.8460  150.7859 C   0  0  0  0  0  0  0  0  0  0  0  0
  145.9617  136.2915  150.6269 C   0  0  0  0  0  0  0  0  0  0  0  0
  145.6623  137.1294  151.8867 C   0  0  2  0  0  0  0  0  0  0  0  0
  146.2083  138.5625  151.7390 C   0  0  0  0  0  0  0  0  0  0  0  0
  145.9825  139.3081  152.9308 O   0  0  0  0  0  0  0  0  0  0  0  0
  151.4292  140.4232  157.6932 H   0  0  0  0  0  0  0  0  0  0  0  0
  150.3915  142.5942  158.3711 H   0  0  0  0  0  0  0  0  0  0  0  0
  148.5367  143.5284  156.9656 H   0  0  0  0  0  0  0  0  0  0  0  0
  148.6616  140.6545  153.1693 H   0  0  0  0  0  0  0  0  0  0  0  0
  148.5131  138.2553  153.2420 H   0  0  0  0  0  0  0  0  0  0  0  0
  148.4988  138.3314  154.9875 H   0  0  0  0  0  0  0  0  0  0  0  0
  146.2230  139.3472  154.9466 H   0  0  0  0  0  0  0  0  0  0  0  0
  146.5071  136.8504  155.1665 H   0  0  0  0  0  0  0  0  0  0  0  0
  144.9589  137.3576  154.5230 H   0  0  0  0  0  0  0  0  0  0  0  0
  146.2422  134.6569  154.1634 H   0  0  0  0  0  0  0  0  0  0  0  0
  144.6905  135.0943  153.4756 H   0  0  0  0  0  0  0  0  0  0  0  0
  147.1560  134.1267  151.9355 H   0  0  0  0  0  0  0  0  0  0  0  0
  145.6856  133.2181  152.1959 H   0  0  0  0  0  0  0  0  0  0  0  0
  145.7467  134.2567  149.9103 H   0  0  0  0  0  0  0  0  0  0  0  0
  144.3839  134.8284  150.8478 H   0  0  0  0  0  0  0  0  0  0  0  0
  147.0349  136.2897  150.4299 H   0  0  0  0  0  0  0  0  0  0  0  0
  145.4893  136.7448  149.7546 H   0  0  0  0  0  0  0  0  0  0  0  0
  144.5804  137.1857  152.0203 H   0  0  0  0  0  0  0  0  0  0  0  0
  147.2685  138.5581  151.4850 H   0  0  0  0  0  0  0  0  0  0  0  0
  145.7011  139.0704  150.9184 H   0  0  0  0  0  0  0  0  0  0  0  0
  147.2398  136.4339  152.9498 H   0  0  0  0  0  0  0  0  0  0  0  0
  1  2  3  0  0  0  0
  2  3  1  0  0  0  0
  3  8  1  0  0  0  0
  3  4  2  0  0  0  0
  4  5  1  0  0  0  0
  4 21  1  0  0  0  0
  5  6  2  0  0  0  0
  5 22  1  0  0  0  0
  6  7  1  0  0  0  0
  6 23  1  0  0  0  0
  7  8  2  0  0  0  0
  8  9  1  0  0  0  0
  9 10  1  0  0  0  0
  9 24  1  0  0  0  0
 10 11  1  0  0  0  0
 10 25  1  0  0  0  0
 10 26  1  0  0  0  0
 11 20  1  0  0  0  0
 11 12  1  0  0  0  0
 11 27  1  0  0  0  0
 12 13  1  0  0  0  0
 12 28  1  0  0  0  0
 12 29  1  0  0  0  0
 13 18  1  0  0  0  0
 13 14  1  0  0  0  0
 13 41  1  0  0  0  0
 14 15  1  0  0  0  0
 14 30  1  0  0  0  0
 14 31  1  0  0  0  0
 15 16  1  0  0  0  0
 15 32  1  0  0  0  0
 15 33  1  0  0  0  0
 16 17  1  0  0  0  0
 16 34  1  0  0  0  0
 16 35  1  0  0  0  0
 17 18  1  0  0  0  0
 17 36  1  0  0  0  0
 17 37  1  0  0  0  0
 18 19  1  0  0  0  0
 18 38  1  0  0  0  0
 19 20  1  0  0  0  0
 19 39  1  0  0  0  0
 19 40  1  0  0  0  0
M  CHG  1  13   1
M  END
> <s_m_source_file>
AV-unprocessed.smi

> <i_m_source_file_index>
2439

> <i_lp_mmshare_version>
43012

> <i_f3d_flags>
0

> <s_epik_input>
TiNDYzFbY0hdW2NIXVtjSF1uYzFbTkhdW0NIMl1bQ0BIXShbQ0gyXTIpT1tDSDJdW0NAQEhdKE4yMylbQ0gyXVtDSDJdW0NIMl1bQ0gyXTM=

> <s_epik_cmdline>
J2VwaWtfcHl0aG9uJywgJy1waCcsICc3LjAnLCAnLXRuJywgJzgnLCAnLW1hJywgJzIwMCcsICctbWV0YWxfYmluZGluZycsICctaW1hZScsICc8aW5maWxlLm1hZT4nLCAnLW9tYWUnLCAnPG91dGZpbGUubWFlPic=

> <r_epik_Ionization_Penalty>
0.0803594

> <r_epik_Ionization_Penalty_Charging>
0.0803403

> <r_epik_Ionization_Penalty_Neutral>
1.90988e-05

> <r_epik_State_Penalty>
0.0711481

> <r_epik_Charging_Adjusted_Penalty>
0.151488

> <i_epik_Tot_Q>
1

> <i_epik_Tot_abs_Q>
1

> <r_epik_Metal_State_Penalty>
0.0711482

> <b_epik_Metal_Only>
0

> <s_lp_Force_Field>
OPLS_2005

> <r_lp_Energy>
31.556

> <b_lp_Chiralities_Consistent>
1

> <s_lp_Variant>
AV-unprocessed.smi:2439-7

> <Gold.Version>
5.8.1

> <Gold.Id.Protein>
6NUR|6NUR_protein|mol2

> <Gold.PLP.Fitness>
45.7718

> <Gold.PLP.PLP>
-32.5414

> <Gold.PLP.part.hbond>
-3.0000

> <Gold.PLP.part.metal>
0.0000

> <Gold.PLP.part.buried>
-0.2228

> <Gold.PLP.part.nonpolar>
-30.5042

> <Gold.PLP.part.repulsive>
0.6592

> <Gold.PLP.ligand.clash>
0.0000

> <Gold.PLP.ligand.torsion>
0.6204

> <Gold.PLP.Chemscore.Hbond>
3.8240

> <Gold.PLP.Chemscore.CHOScore>
0.9967

> <Gold.PLP.Chemscore.Metal>
0.0000

> <Gold.Chemscore.Hbonds>
donor molecule, donor type, donor heavy atom, donor atom, acceptor molecule, acceptor atom, score
      L1  H     9    24       P1  7957  0.21
      L1  H    13    41       P1  7948  1.98
      L1  C     6    23       P1  8028  0.20

> <Gold.PLP.Chemscore.Internal.Correction>
0.0090

> <Gold.Rescore>
     Score         DG    S(hbond)    S(metal)    S(lipo)     H(rot)  DE(clash)    DE(int)     intcor
     15.98     -18.75       2.54        0.00      68.67       1.27       2.08       0.70       ----

> <Gold.Chemscore.Fitness>
15.9827

> <Gold.Chemscore.DG>
-18.7545

> <Gold.Chemscore.ZeroCoef>
-5.4800

> <Gold.Chemscore.Hbond>
2.5392

> <Gold.Chemscore.Metal>
0.0000

> <Gold.Chemscore.Lipo>
68.6686

> <Gold.Chemscore.Internal_Hbond>
0.0000

> <Gold.Chemscore.DEClash>
2.0757

> <Gold.Chemscore.DEInternal>
0.6961

> <Gold.Chemscore.Rot>
1.2659

> <Gold.Chemscore.Internal.Correction>
   9.000000E+99

> <Gold.Chemscore.Hbonds>
donor molecule, donor type, donor heavy atom, donor atom, acceptor molecule, acceptor atom, score
      L1  H     9    24       P1  7957  0.22
      L1  H    13    41       P1  7948  0.91

> <Gold.Chemscore.Hbond.Weighted>
-8.4810

> <Gold.Chemscore.Metal.Weighted>
-0.0000

> <Gold.Chemscore.Lipo.Weighted>
-8.0342

> <Gold.Chemscore.Internal_Hbond.Weighted>
0.0000

> <Gold.Chemscore.DEClash.Weighted>
2.0757

> <Gold.Chemscore.DEInternal.Weighted>
0.6961

> <Gold.Chemscore.Rot.Weighted>
3.2408

> <Gold.Chemscore.Internal.Correction.Weighted>
   9.000000E+99

> <Gold.Protein.RotatedTorsions>
[ 6907 6896 6895 6894 ] final  -36.18 input  -60.11 | X-H torsion
[ 7974 7965 7964 7962 ] final -166.77 input  175.53 | X-H torsion
[ 8008 7997 7996 7995 ] final  -73.64 input   59.86 | X-H torsion
[ 10167 10162 10161 10158 ] final -157.67 input  -65.29 | X-H torsion
[ 10718 10713 10712 10709 ] final  101.90 input   66.30 | X-H torsion
[ 10763 10752 10751 10750 ] final  -79.43 input  -60.55 | X-H torsion
[ 11005 11000 10999 10996 ] final  147.10 input  -57.11 | X-H torsion

> <Gold.Protein.ActiveResidues>
 VAL166  LYS551  ARG553  GLY616  TRP617  ASP618  TYR619  PRO620  LYS621  CYS622 
 ASP623  PHE694  ASN695  SER759  ASP760  ASP761  ALA762  ILE779  LEU786  VAL792 
 PHE793  MET794  SER795  GLU796  ALA797  LYS798  CYS799  TRP800  GLU811  SER814 

> <Gold.Protein.RotatedAtoms>
  151.0304  134.9535  159.8107 H   0  0  0  0  0  0  0  0  0  0  0  0  # atno 6907 bound_to 6896
  152.5344  134.2788  159.9009 H   0  0  0  0  0  0  0  0  0  0  0  0  # atno 6908 bound_to 6896
  151.2797  133.4173  159.2660 H   0  0  0  0  0  0  0  0  0  0  0  0  # atno 6909 bound_to 6896
  144.7238  140.2617  143.6264 H   0  0  0  0  0  0  0  0  0  0  0  0  # atno 7974 bound_to 7965
  154.5264  140.0775  156.8266 H   0  0  0  0  0  0  0  0  0  0  0  0  # atno 8008 bound_to 7997
  155.3467  140.3410  155.4221 H   0  0  0  0  0  0  0  0  0  0  0  0  # atno 8009 bound_to 7997
  156.1736  140.1628  156.8390 H   0  0  0  0  0  0  0  0  0  0  0  0  # atno 8010 bound_to 7997
  139.6752  143.9675  152.2306 H   0  0  0  0  0  0  0  0  0  0  0  0  # atno 10167 bound_to 10162
  157.6817  131.0738  150.5322 H   0  0  0  0  0  0  0  0  0  0  0  0  # atno 10718 bound_to 10713
  154.5386  135.5696  153.6820 H   0  0  0  0  0  0  0  0  0  0  0  0  # atno 10763 bound_to 10752
  152.9957  135.6222  154.2533 H   0  0  0  0  0  0  0  0  0  0  0  0  # atno 10764 bound_to 10752
  154.2463  135.2860  155.2814 H   0  0  0  0  0  0  0  0  0  0  0  0  # atno 10765 bound_to 10752
  140.0848  134.9076  157.1557 H   0  0  0  0  0  0  0  0  0  0  0  0  # atno 11005 bound_to 11000
  145.8129  139.2011  143.1982 LP  0  0  0  0  0  0  0  0  0  0  0  0  # atno 17320 bound_to 7965
  146.0580  140.8000  142.9749 LP  0  0  0  0  0  0  0  0  0  0  0  0  # atno 17321 bound_to 7965
  139.9450  144.6657  150.8228 LP  0  0  0  0  0  0  0  0  0  0  0  0  # atno 17342 bound_to 10162
  140.7633  143.3219  151.2603 LP  0  0  0  0  0  0  0  0  0  0  0  0  # atno 17343 bound_to 10162
  156.5631  130.4260  149.6053 LP  0  0  0  0  0  0  0  0  0  0  0  0  # atno 17370 bound_to 10713
  156.2804  130.7067  151.1890 LP  0  0  0  0  0  0  0  0  0  0  0  0  # atno 17371 bound_to 10713
  140.3436  134.2676  155.7208 LP  0  0  0  0  0  0  0  0  0  0  0  0  # atno 17394 bound_to 11000
  141.2059  133.7848  157.0209 LP  0  0  0  0  0  0  0  0  0  0  0  0  # atno 17395 bound_to 11000

$$$$
