AV-unprocessed.smi:3119|AV-procd|sdf|11890|dock3
  -GOLD-   2272017273D 1   1.00000     0.00000
 Structure written by MMmdl.
 31 32  0  0  0  0  0  0  0  0  1 V2000
  150.6320  140.5731  154.9963 O   0  0  0  0  0  0  0  0  0  0  0  0
  149.6873  141.1735  155.5104 C   0  0  0  0  0  0  0  0  0  0  0  0
  149.8387  142.0815  156.4862 N   0  0  0  0  0  0  0  0  0  0  0  0
  151.1164  142.4814  157.0652 C   0  0  0  0  0  0  0  0  0  0  0  0
  150.9252  143.3876  158.2930 C   0  0  0  0  0  0  0  0  0  0  0  0
  151.8207  142.9843  159.4492 C   0  0  0  0  0  0  0  0  0  0  0  0
  152.8124  141.9939  159.2830 C   0  0  0  0  0  0  0  0  0  0  0  0
  153.6122  141.6533  160.3911 C   0  0  0  0  0  0  0  0  0  0  0  0
  153.3906  142.3116  161.6161 C   0  0  0  0  0  0  0  0  0  0  0  0
  152.3738  143.2852  161.6791 C   0  0  0  0  0  0  0  0  0  0  0  0
  151.6007  143.6184  160.6232 N   0  0  0  0  0  0  0  0  0  0  0  0
  148.2468  140.9108  155.0515 C   0  0  0  0  0  0  0  0  0  0  0  0
  148.1201  139.8960  153.9019 C   0  0  0  0  0  0  0  0  0  0  0  0
  147.1102  140.8361  153.2368 C   0  0  0  0  0  0  0  0  0  0  0  0
  147.6723  141.9723  154.0962 C   0  0  0  0  0  0  0  0  0  0  0  0
  149.0101  142.5282  156.8521 H   0  0  0  0  0  0  0  0  0  0  0  0
  151.6995  141.5969  157.3275 H   0  0  0  0  0  0  0  0  0  0  0  0
  151.6844  143.0106  156.2997 H   0  0  0  0  0  0  0  0  0  0  0  0
  151.1290  144.4252  158.0252 H   0  0  0  0  0  0  0  0  0  0  0  0
  149.8876  143.3570  158.6286 H   0  0  0  0  0  0  0  0  0  0  0  0
  152.9576  141.5047  158.3309 H   0  0  0  0  0  0  0  0  0  0  0  0
  154.3813  140.9001  160.3031 H   0  0  0  0  0  0  0  0  0  0  0  0
  153.9851  142.0767  162.4866 H   0  0  0  0  0  0  0  0  0  0  0  0
  152.1757  143.8100  162.6022 H   0  0  0  0  0  0  0  0  0  0  0  0
  147.5614  140.6875  155.8713 H   0  0  0  0  0  0  0  0  0  0  0  0
  149.0294  139.7692  153.3116 H   0  0  0  0  0  0  0  0  0  0  0  0
  147.7015  138.9332  154.1965 H   0  0  0  0  0  0  0  0  0  0  0  0
  147.2488  140.9669  152.1633 H   0  0  0  0  0  0  0  0  0  0  0  0
  146.0769  140.5905  153.4860 H   0  0  0  0  0  0  0  0  0  0  0  0
  146.9081  142.6102  154.5405 H   0  0  0  0  0  0  0  0  0  0  0  0
  148.4256  142.5625  153.5713 H   0  0  0  0  0  0  0  0  0  0  0  0
  1  2  2  0  0  0  0
  2  3  1  0  0  0  0
  2 12  1  0  0  0  0
  3  4  1  0  0  0  0
  3 16  1  0  0  0  0
  4  5  1  0  0  0  0
  4 17  1  0  0  0  0
  4 18  1  0  0  0  0
  5  6  1  0  0  0  0
  5 19  1  0  0  0  0
  5 20  1  0  0  0  0
  6 11  1  0  0  0  0
  6  7  2  0  0  0  0
  7  8  1  0  0  0  0
  7 21  1  0  0  0  0
  8  9  2  0  0  0  0
  8 22  1  0  0  0  0
  9 10  1  0  0  0  0
  9 23  1  0  0  0  0
 10 11  2  0  0  0  0
 10 24  1  0  0  0  0
 12 15  1  0  0  0  0
 12 13  1  0  0  0  0
 12 25  1  0  0  0  0
 13 14  1  0  0  0  0
 13 26  1  0  0  0  0
 13 27  1  0  0  0  0
 14 15  1  0  0  0  0
 14 28  1  0  0  0  0
 14 29  1  0  0  0  0
 15 30  1  0  0  0  0
 15 31  1  0  0  0  0
M  END
> <s_m_source_file>
AV-unprocessed.smi

> <i_m_source_file_index>
3119

> <i_lp_mmshare_version>
43012

> <i_f3d_flags>
0

> <s_epik_input>
W0NIMl0xW0NIMl1bQ0gyXVtDSF0xQyg9TylbTkhdW0NIMl1bQ0gyXWMyW2NIXVtjSF1bY0hdW2NIXW4y

> <s_epik_cmdline>
J2VwaWtfcHl0aG9uJywgJy1waCcsICc3LjAnLCAnLXRuJywgJzgnLCAnLW1hJywgJzIwMCcsICctbWV0YWxfYmluZGluZycsICctaW1hZScsICc8aW5maWxlLm1hZT4nLCAnLW9tYWUnLCAnPG91dGZpbGUubWFlPic=

> <r_epik_Ionization_Penalty>
0.0277532

> <r_epik_Ionization_Penalty_Charging>
0

> <r_epik_Ionization_Penalty_Neutral>
0.0277532

> <r_epik_State_Penalty>
0.022734

> <r_epik_Charging_Adjusted_Penalty>
0.022734

> <i_epik_Tot_Q>
0

> <i_epik_Tot_abs_Q>
0

> <r_epik_Metal_State_Penalty>
0.0217133

> <b_epik_Metal_Only>
0

> <s_lp_Force_Field>
OPLS_2005

> <r_lp_Energy>
9.15138

> <b_lp_Chiralities_Consistent>
1

> <s_lp_Variant>
AV-unprocessed.smi:3119-1

> <Gold.Version>
5.8.1

> <Gold.Id.Protein>
6NUR|6NUR_protein|mol2

> <Gold.PLP.Fitness>
40.0034

> <Gold.PLP.PLP>
-38.0213

> <Gold.PLP.part.hbond>
-2.0000

> <Gold.PLP.part.metal>
0.0000

> <Gold.PLP.part.buried>
-4.7652

> <Gold.PLP.part.nonpolar>
-31.5728

> <Gold.PLP.part.repulsive>
0.2291

> <Gold.PLP.ligand.clash>
0.0000

> <Gold.PLP.ligand.torsion>
0.6773

> <Gold.PLP.Chemscore.Hbond>
0.9760

> <Gold.PLP.Chemscore.CHOScore>
0.0000

> <Gold.PLP.Chemscore.Metal>
0.0000

> <Gold.Chemscore.Hbonds>
donor molecule, donor type, donor heavy atom, donor atom, acceptor molecule, acceptor atom, score
      P1  H  7989  7998       L1     1  0.98

> <Gold.PLP.Chemscore.Internal.Correction>
0.4086

> <Gold.Rescore>
     Score         DG    S(hbond)    S(metal)    S(lipo)     H(rot)  DE(clash)    DE(int)     intcor
     17.15     -18.02       1.14        0.00     106.04       1.44       0.18       0.69       ----

> <Gold.Chemscore.Fitness>
17.1477

> <Gold.Chemscore.DG>
-18.0158

> <Gold.Chemscore.ZeroCoef>
-5.4800

> <Gold.Chemscore.Hbond>
1.1409

> <Gold.Chemscore.Metal>
0.0000

> <Gold.Chemscore.Lipo>
106.0437

> <Gold.Chemscore.Internal_Hbond>
0.0000

> <Gold.Chemscore.DEClash>
0.1829

> <Gold.Chemscore.DEInternal>
0.6853

> <Gold.Chemscore.Rot>
1.4383

> <Gold.Chemscore.Internal.Correction>
   9.000000E+99

> <Gold.Chemscore.Hbonds>
donor molecule, donor type, donor heavy atom, donor atom, acceptor molecule, acceptor atom, score
      P1  H  7989  7998       L1     1  0.93

> <Gold.Chemscore.Hbond.Weighted>
-3.8108

> <Gold.Chemscore.Metal.Weighted>
-0.0000

> <Gold.Chemscore.Lipo.Weighted>
-12.4071

> <Gold.Chemscore.Internal_Hbond.Weighted>
0.0000

> <Gold.Chemscore.DEClash.Weighted>
0.1829

> <Gold.Chemscore.DEInternal.Weighted>
0.6853

> <Gold.Chemscore.Rot.Weighted>
3.6820

> <Gold.Chemscore.Internal.Correction.Weighted>
   9.000000E+99

> <Gold.Protein.RotatedTorsions>
[ 6907 6896 6895 6894 ] final   52.75 input  -60.11 | X-H torsion
[ 7974 7965 7964 7962 ] final   65.53 input  175.53 | X-H torsion
[ 8008 7997 7996 7995 ] final  159.08 input   59.86 | X-H torsion
[ 10167 10162 10161 10158 ] final  -57.66 input  -65.29 | X-H torsion
[ 10718 10713 10712 10709 ] final  153.20 input   66.30 | X-H torsion
[ 10763 10752 10751 10750 ] final  135.03 input  -60.55 | X-H torsion
[ 11005 11000 10999 10996 ] final   96.33 input  -57.11 | X-H torsion

> <Gold.Protein.ActiveResidues>
 VAL166  LYS551  ARG553  GLY616  TRP617  ASP618  TYR619  PRO620  LYS621  CYS622 
 ASP623  PHE694  ASN695  SER759  ASP760  ASP761  ALA762  ILE779  LEU786  VAL792 
 PHE793  MET794  SER795  GLU796  ALA797  LYS798  CYS799  TRP800  GLU811  SER814 

> <Gold.Protein.RotatedAtoms>
  152.3265  134.7314  160.0300 H   0  0  0  0  0  0  0  0  0  0  0  0  # atno 6907 bound_to 6896
  151.7744  133.3338  159.3462 H   0  0  0  0  0  0  0  0  0  0  0  0  # atno 6908 bound_to 6896
  150.7399  134.5920  159.6037 H   0  0  0  0  0  0  0  0  0  0  0  0  # atno 6909 bound_to 6896
  145.8373  139.3174  143.0952 H   0  0  0  0  0  0  0  0  0  0  0  0  # atno 7974 bound_to 7965
  156.2262  140.1841  156.7357 H   0  0  0  0  0  0  0  0  0  0  0  0  # atno 8008 bound_to 7997
  154.5945  140.0645  156.9313 H   0  0  0  0  0  0  0  0  0  0  0  0  # atno 8009 bound_to 7997
  155.2279  140.3312  155.4309 H   0  0  0  0  0  0  0  0  0  0  0  0  # atno 8010 bound_to 7997
  140.6244  143.2432  151.5399 H   0  0  0  0  0  0  0  0  0  0  0  0  # atno 10167 bound_to 10162
  157.2479  131.0773  151.1749 H   0  0  0  0  0  0  0  0  0  0  0  0  # atno 10718 bound_to 10713
  153.8333  135.3101  155.3420 H   0  0  0  0  0  0  0  0  0  0  0  0  # atno 10763 bound_to 10752
  154.7964  135.4753  154.0173 H   0  0  0  0  0  0  0  0  0  0  0  0  # atno 10764 bound_to 10752
  153.1620  135.6862  153.8820 H   0  0  0  0  0  0  0  0  0  0  0  0  # atno 10765 bound_to 10752
  139.8782  134.8945  156.4142 H   0  0  0  0  0  0  0  0  0  0  0  0  # atno 11005 bound_to 11000
  145.9504  140.8913  143.0262 LP  0  0  0  0  0  0  0  0  0  0  0  0  # atno 17320 bound_to 7965
  144.6735  140.1672  143.7417 LP  0  0  0  0  0  0  0  0  0  0  0  0  # atno 17321 bound_to 7965
  139.5467  144.2502  152.1455 LP  0  0  0  0  0  0  0  0  0  0  0  0  # atno 17342 bound_to 10162
  140.1730  144.4917  150.6569 LP  0  0  0  0  0  0  0  0  0  0  0  0  # atno 17343 bound_to 10162
  157.3309  130.6984  149.6324 LP  0  0  0  0  0  0  0  0  0  0  0  0  # atno 17370 bound_to 10713
  155.9667  130.4308  150.4891 LP  0  0  0  0  0  0  0  0  0  0  0  0  # atno 17371 bound_to 10713
  140.9179  133.7665  155.9870 LP  0  0  0  0  0  0  0  0  0  0  0  0  # atno 17394 bound_to 11000
  140.8473  134.2996  157.5290 LP  0  0  0  0  0  0  0  0  0  0  0  0  # atno 17395 bound_to 11000

$$$$
