AV-unprocessed.smi:364|AV-procd|sdf|2426|dock1
  -GOLD-   2262022363D 1   1.00000     0.00000
 Structure written by MMmdl.
 37 38  0  0  0  0  0  0  0  0  1 V2000
  145.5174  143.6189  154.3092 C   0  0  0  0  0  0  0  0  0  0  0  0
  146.1769  142.3771  154.9255 C   0  0  2  0  0  0  0  0  0  0  0  0
  146.2688  142.4962  156.4595 C   0  0  0  0  0  0  0  0  0  0  0  0
  146.9601  141.2718  157.0879 C   0  0  0  0  0  0  0  0  0  0  0  0
  148.3509  141.0155  156.4776 C   0  0  2  0  0  0  0  0  0  0  0  0
  149.2527  142.1049  156.8351 N   0  0  0  0  0  0  0  0  0  0  0  0
  150.4745  142.0072  157.3821 C   0  0  0  0  0  0  0  0  0  0  0  0
  150.9984  140.9330  157.6729 O   0  0  0  0  0  0  0  0  0  0  0  0
  151.2436  143.3161  157.6360 C   0  0  0  0  0  0  0  0  0  0  0  0
  151.6921  143.4982  159.0297 N   0  0  0  0  0  0  0  0  0  0  0  0
  152.5564  142.5250  159.5588 C   0  0  0  0  0  0  0  0  0  0  0  0
  153.0415  142.6377  160.8033 C   0  0  0  0  0  0  0  0  0  0  0  0
  152.6193  143.8213  161.5631 C   0  0  0  0  0  0  0  0  0  0  0  0
  151.8318  144.7106  161.0842 N   0  0  0  0  0  0  0  0  0  0  0  0
  151.3249  144.5907  159.7763 C   0  0  0  0  0  0  0  0  0  0  0  0
  150.5794  145.4491  159.3044 O   0  0  0  0  0  0  0  0  0  0  0  0
  148.2523  140.8925  154.9449 C   0  0  0  0  0  0  0  0  0  0  0  0
  147.5668  142.1178  154.3111 C   0  0  0  0  0  0  0  0  0  0  0  0
  146.1048  144.5168  154.5046 H   0  0  0  0  0  0  0  0  0  0  0  0
  144.5197  143.7784  154.7190 H   0  0  0  0  0  0  0  0  0  0  0  0
  145.4170  143.5155  153.2284 H   0  0  0  0  0  0  0  0  0  0  0  0
  145.5444  141.5186  154.6944 H   0  0  0  0  0  0  0  0  0  0  0  0
  146.8115  143.4036  156.7285 H   0  0  0  0  0  0  0  0  0  0  0  0
  145.2698  142.6038  156.8834 H   0  0  0  0  0  0  0  0  0  0  0  0
  147.0419  141.4045  158.1674 H   0  0  0  0  0  0  0  0  0  0  0  0
  146.3345  140.3910  156.9376 H   0  0  0  0  0  0  0  0  0  0  0  0
  148.7326  140.0764  156.8811 H   0  0  0  0  0  0  0  0  0  0  0  0
  148.9179  143.0363  156.6355 H   0  0  0  0  0  0  0  0  0  0  0  0
  152.0928  143.3572  156.9517 H   0  0  0  0  0  0  0  0  0  0  0  0
  150.6032  144.1489  157.3419 H   0  0  0  0  0  0  0  0  0  0  0  0
  152.7985  141.7069  158.8957 H   0  0  0  0  0  0  0  0  0  0  0  0
  153.7119  141.9297  161.2677 H   0  0  0  0  0  0  0  0  0  0  0  0
  153.0253  143.8960  162.5750 H   0  0  0  0  0  0  0  0  0  0  0  0
  149.2449  140.7561  154.5136 H   0  0  0  0  0  0  0  0  0  0  0  0
  147.6855  139.9953  154.6928 H   0  0  0  0  0  0  0  0  0  0  0  0
  147.4742  141.9650  153.2354 H   0  0  0  0  0  0  0  0  0  0  0  0
  148.1974  142.9988  154.4395 H   0  0  0  0  0  0  0  0  0  0  0  0
  1  2  1  0  0  0  0
  1 19  1  0  0  0  0
  1 20  1  0  0  0  0
  1 21  1  0  0  0  0
  2 18  1  0  0  0  0
  2  3  1  0  0  0  0
  2 22  1  0  0  0  0
  3  4  1  0  0  0  0
  3 23  1  0  0  0  0
  3 24  1  0  0  0  0
  4  5  1  0  0  0  0
  4 25  1  0  0  0  0
  4 26  1  0  0  0  0
  5  6  1  0  0  0  0
  5 17  1  0  0  0  0
  5 27  1  0  0  0  0
  6  7  1  0  0  0  0
  6 28  1  0  0  0  0
  7  8  2  0  0  0  0
  7  9  1  0  0  0  0
  9 10  1  0  0  0  0
  9 29  1  0  0  0  0
  9 30  1  0  0  0  0
 10 15  1  0  0  0  0
 10 11  1  0  0  0  0
 11 12  2  0  0  0  0
 11 31  1  0  0  0  0
 12 13  1  0  0  0  0
 12 32  1  0  0  0  0
 13 14  2  0  0  0  0
 13 33  1  0  0  0  0
 14 15  1  0  0  0  0
 15 16  2  0  0  0  0
 17 18  1  0  0  0  0
 17 34  1  0  0  0  0
 17 35  1  0  0  0  0
 18 36  1  0  0  0  0
 18 37  1  0  0  0  0
M  END
> <s_m_source_file>
AV-unprocessed.smi

> <i_m_source_file_index>
364

> <i_lp_mmshare_version>
43012

> <i_f3d_flags>
0

> <s_epik_input>
W0NIM11bQ0BASF0xW0NIMl1bQ0gyXVtDQEhdKFtDSDJdW0NIMl0xKVtOSF1DKD1PKVtDSDJdbjJbY0hdW2NIXVtjSF1uYzI9Tw==

> <s_epik_cmdline>
J2VwaWtfcHl0aG9uJywgJy1waCcsICc3LjAnLCAnLXRuJywgJzgnLCAnLW1hJywgJzIwMCcsICctbWV0YWxfYmluZGluZycsICctaW1hZScsICc8aW5maWxlLm1hZT4nLCAnLW9tYWUnLCAnPG91dGZpbGUubWFlPic=

> <r_lp_tautomer_probability>
1

> <r_epik_Ionization_Penalty>
7.65306e-06

> <r_epik_Ionization_Penalty_Charging>
1.81354e-08

> <r_epik_Ionization_Penalty_Neutral>
7.63492e-06

> <r_epik_State_Penalty>
-0

> <r_epik_Charging_Adjusted_Penalty>
1.81354e-08

> <i_epik_Tot_Q>
0

> <i_epik_Tot_abs_Q>
0

> <r_epik_Metal_State_Penalty>
-0

> <b_epik_Metal_Only>
0

> <s_lp_Force_Field>
OPLS_2005

> <r_lp_Energy>
9.99244

> <b_lp_Chiralities_Consistent>
1

> <s_lp_Variant>
AV-unprocessed.smi:364-2

> <Gold.Version>
5.8.1

> <Gold.Id.Protein>
6NUR|6NUR_protein|mol2

> <Gold.PLP.Fitness>
43.0383

> <Gold.PLP.PLP>
-40.2538

> <Gold.PLP.part.hbond>
-1.3384

> <Gold.PLP.part.metal>
0.0000

> <Gold.PLP.part.buried>
-5.8228

> <Gold.PLP.part.nonpolar>
-33.3368

> <Gold.PLP.part.repulsive>
0.4201

> <Gold.PLP.ligand.clash>
0.0000

> <Gold.PLP.ligand.torsion>
0.1119

> <Gold.PLP.Chemscore.Hbond>
1.0000

> <Gold.PLP.Chemscore.CHOScore>
0.0000

> <Gold.PLP.Chemscore.Metal>
0.0000

> <Gold.Chemscore.Hbonds>
donor molecule, donor type, donor heavy atom, donor atom, acceptor molecule, acceptor atom, score
      L1  H     6    28       P1  8028  1.00

> <Gold.PLP.Chemscore.Internal.Correction>
0.0082

> <Gold.Rescore>
     Score         DG    S(hbond)    S(metal)    S(lipo)     H(rot)  DE(clash)    DE(int)     intcor
     12.81     -14.12       1.00        0.00      78.07       1.50       0.13       1.18       ----

> <Gold.Chemscore.Fitness>
12.8087

> <Gold.Chemscore.DG>
-14.1196

> <Gold.Chemscore.ZeroCoef>
-5.4800

> <Gold.Chemscore.Hbond>
0.9999

> <Gold.Chemscore.Metal>
0.0000

> <Gold.Chemscore.Lipo>
78.0681

> <Gold.Chemscore.Internal_Hbond>
0.0000

> <Gold.Chemscore.DEClash>
0.1282

> <Gold.Chemscore.DEInternal>
1.1828

> <Gold.Chemscore.Rot>
1.4977

> <Gold.Chemscore.Internal.Correction>
   9.000000E+99

> <Gold.Chemscore.Hbonds>
donor molecule, donor type, donor heavy atom, donor atom, acceptor molecule, acceptor atom, score
      L1  H     6    28       P1  8028  0.93

> <Gold.Chemscore.Hbond.Weighted>
-3.3398

> <Gold.Chemscore.Metal.Weighted>
-0.0000

> <Gold.Chemscore.Lipo.Weighted>
-9.1340

> <Gold.Chemscore.Internal_Hbond.Weighted>
0.0000

> <Gold.Chemscore.DEClash.Weighted>
0.1282

> <Gold.Chemscore.DEInternal.Weighted>
1.1828

> <Gold.Chemscore.Rot.Weighted>
3.8341

> <Gold.Chemscore.Internal.Correction.Weighted>
   9.000000E+99

> <Gold.Protein.RotatedTorsions>
[ 6907 6896 6895 6894 ] final -124.40 input  -60.11 | X-H torsion
[ 7974 7965 7964 7962 ] final -178.88 input  175.53 | X-H torsion
[ 8008 7997 7996 7995 ] final   77.26 input   59.86 | X-H torsion
[ 10167 10162 10161 10158 ] final  103.57 input  -65.29 | X-H torsion
[ 10718 10713 10712 10709 ] final   39.40 input   66.30 | X-H torsion
[ 10763 10752 10751 10750 ] final   12.40 input  -60.55 | X-H torsion
[ 11005 11000 10999 10996 ] final  -70.32 input  -57.11 | X-H torsion

> <Gold.Protein.ActiveResidues>
 VAL166  LYS551  ARG553  GLY616  TRP617  ASP618  TYR619  PRO620  LYS621  CYS622 
 ASP623  PHE694  ASN695  SER759  ASP760  ASP761  ALA762  ILE779  LEU786  VAL792 
 PHE793  MET794  SER795  GLU796  ALA797  LYS798  CYS799  TRP800  GLU811  SER814 

> <Gold.Protein.RotatedAtoms>
  150.8765  133.7432  159.2944 H   0  0  0  0  0  0  0  0  0  0  0  0  # atno 6907 bound_to 6896
  151.5027  135.1061  159.9843 H   0  0  0  0  0  0  0  0  0  0  0  0  # atno 6908 bound_to 6896
  152.4731  133.8029  159.7018 H   0  0  0  0  0  0  0  0  0  0  0  0  # atno 6909 bound_to 6896
  144.7133  140.0802  143.6426 H   0  0  0  0  0  0  0  0  0  0  0  0  # atno 7974 bound_to 7965
  155.8391  140.3463  155.5620 H   0  0  0  0  0  0  0  0  0  0  0  0  # atno 8008 bound_to 7997
  155.8160  140.0906  157.1896 H   0  0  0  0  0  0  0  0  0  0  0  0  # atno 8009 bound_to 7997
  154.4005  140.1439  156.3431 H   0  0  0  0  0  0  0  0  0  0  0  0  # atno 8010 bound_to 7997
  139.7252  144.7049  151.0809 H   0  0  0  0  0  0  0  0  0  0  0  0  # atno 10167 bound_to 10162
  157.3701  130.7696  149.7112 H   0  0  0  0  0  0  0  0  0  0  0  0  # atno 10718 bound_to 10713
  153.1827  135.6830  153.8457 H   0  0  0  0  0  0  0  0  0  0  0  0  # atno 10763 bound_to 10752
  153.7783  135.3186  155.3363 H   0  0  0  0  0  0  0  0  0  0  0  0  # atno 10764 bound_to 10752
  154.8069  135.4742  154.0512 H   0  0  0  0  0  0  0  0  0  0  0  0  # atno 10765 bound_to 10752
  141.1572  133.6787  156.6735 H   0  0  0  0  0  0  0  0  0  0  0  0  # atno 11005 bound_to 11000
  145.9709  139.2869  143.1099 LP  0  0  0  0  0  0  0  0  0  0  0  0  # atno 17320 bound_to 7965
  145.9118  140.9175  143.0450 LP  0  0  0  0  0  0  0  0  0  0  0  0  # atno 17321 bound_to 7965
  140.7761  143.5114  150.9647 LP  0  0  0  0  0  0  0  0  0  0  0  0  # atno 17342 bound_to 10162
  139.8802  143.7082  152.3158 LP  0  0  0  0  0  0  0  0  0  0  0  0  # atno 17343 bound_to 10162
  155.9754  130.4090  150.3853 LP  0  0  0  0  0  0  0  0  0  0  0  0  # atno 17370 bound_to 10713
  157.1943  131.0423  151.2684 LP  0  0  0  0  0  0  0  0  0  0  0  0  # atno 17371 bound_to 10713
  140.3157  134.8050  157.4212 LP  0  0  0  0  0  0  0  0  0  0  0  0  # atno 17394 bound_to 11000
  140.1140  134.5307  155.8241 LP  0  0  0  0  0  0  0  0  0  0  0  0  # atno 17395 bound_to 11000

$$$$
