AV-unprocessed.smi:2474|AV-procd|sdf|9752|dock10
  -GOLD-   2272013393D 1   1.00000     0.00000
 Structure written by MMmdl.
 40 41  0  0  0  0  0  0  0  0  1 V2000
  144.6982  144.9204  153.1893 C   0  0  0  0  0  0  0  0  0  0  0  0
  145.3959  143.7898  153.8659 C   0  0  0  0  0  0  0  0  0  0  0  0
  145.2707  143.3856  155.1720 C   0  0  0  0  0  0  0  0  0  0  0  0
  146.0614  142.2823  155.4998 N   0  0  0  0  0  0  0  0  0  0  0  0
  146.7894  141.8500  154.4662 C   0  0  0  0  0  0  0  0  0  0  0  0
  147.7102  140.6690  154.5300 C   0  0  1  0  0  0  0  0  0  0  0  0
  147.2942  139.5558  153.5580 C   0  0  0  0  0  0  0  0  0  0  0  0
  149.2026  141.0516  154.4050 C   0  0  0  0  0  0  0  0  0  0  0  0
  149.5915  142.1429  155.2947 N   0  0  0  0  0  0  0  0  0  0  0  0
  150.5525  142.0731  156.2254 C   0  0  0  0  0  0  0  0  0  0  0  0
  151.2552  141.0810  156.4186 O   0  0  0  0  0  0  0  0  0  0  0  0
  150.6385  143.2068  156.9347 N   0  0  0  0  0  0  0  0  0  0  0  0
  151.5446  143.4313  158.0570 C   0  0  2  0  0  0  0  0  0  0  0  0
  151.6373  142.1587  158.9248 C   0  0  0  0  0  0  0  0  0  0  0  0
  152.6184  142.3140  160.0981 C   0  0  0  0  0  0  0  0  0  0  0  0
  152.2126  143.4423  161.0568 C   0  0  0  0  0  0  0  0  0  0  0  0
  152.2029  145.0480  160.2146 S   0  0  0  0  0  0  0  0  0  0  0  0
  151.0546  144.6418  158.8702 C   0  0  0  0  0  0  0  0  0  0  0  0
  146.5301  142.7883  152.9991 S   0  0  0  0  0  0  0  0  0  0  0  0
  144.0357  145.4432  153.8794 H   0  0  0  0  0  0  0  0  0  0  0  0
  144.0976  144.5594  152.3541 H   0  0  0  0  0  0  0  0  0  0  0  0
  145.4180  145.6418  152.8023 H   0  0  0  0  0  0  0  0  0  0  0  0
  144.6422  143.8225  155.9338 H   0  0  0  0  0  0  0  0  0  0  0  0
  147.5825  140.2480  155.5280 H   0  0  0  0  0  0  0  0  0  0  0  0
  146.2706  139.2318  153.7475 H   0  0  0  0  0  0  0  0  0  0  0  0
  147.9409  138.6839  153.6597 H   0  0  0  0  0  0  0  0  0  0  0  0
  147.3511  139.8920  152.5222 H   0  0  0  0  0  0  0  0  0  0  0  0
  149.8382  140.1823  154.5801 H   0  0  0  0  0  0  0  0  0  0  0  0
  149.4081  141.3826  153.3866 H   0  0  0  0  0  0  0  0  0  0  0  0
  149.0673  143.0020  155.2147 H   0  0  0  0  0  0  0  0  0  0  0  0
  150.0149  143.9640  156.6969 H   0  0  0  0  0  0  0  0  0  0  0  0
  152.5366  143.6667  157.6660 H   0  0  0  0  0  0  0  0  0  0  0  0
  150.6494  141.8963  159.3060 H   0  0  0  0  0  0  0  0  0  0  0  0
  151.9584  141.3170  158.3097 H   0  0  0  0  0  0  0  0  0  0  0  0
  152.6682  141.3752  160.6505 H   0  0  0  0  0  0  0  0  0  0  0  0
  153.6236  142.4979  159.7168 H   0  0  0  0  0  0  0  0  0  0  0  0
  151.2220  143.2521  161.4717 H   0  0  0  0  0  0  0  0  0  0  0  0
  152.9067  143.4922  161.8958 H   0  0  0  0  0  0  0  0  0  0  0  0
  150.9587  145.5179  158.2281 H   0  0  0  0  0  0  0  0  0  0  0  0
  150.0692  144.4466  159.2949 H   0  0  0  0  0  0  0  0  0  0  0  0
  1  2  1  0  0  0  0
  1 20  1  0  0  0  0
  1 21  1  0  0  0  0
  1 22  1  0  0  0  0
  2 19  1  0  0  0  0
  2  3  2  0  0  0  0
  3  4  1  0  0  0  0
  3 23  1  0  0  0  0
  4  5  2  0  0  0  0
  5  6  1  0  0  0  0
  5 19  1  0  0  0  0
  6  7  1  0  0  0  0
  6  8  1  0  0  0  0
  6 24  1  0  0  0  0
  7 25  1  0  0  0  0
  7 26  1  0  0  0  0
  7 27  1  0  0  0  0
  8  9  1  0  0  0  0
  8 28  1  0  0  0  0
  8 29  1  0  0  0  0
  9 10  1  0  0  0  0
  9 30  1  0  0  0  0
 10 11  2  0  0  0  0
 10 12  1  0  0  0  0
 12 13  1  0  0  0  0
 12 31  1  0  0  0  0
 13 18  1  0  0  0  0
 13 14  1  0  0  0  0
 13 32  1  0  0  0  0
 14 15  1  0  0  0  0
 14 33  1  0  0  0  0
 14 34  1  0  0  0  0
 15 16  1  0  0  0  0
 15 35  1  0  0  0  0
 15 36  1  0  0  0  0
 16 17  1  0  0  0  0
 16 37  1  0  0  0  0
 16 38  1  0  0  0  0
 17 18  1  0  0  0  0
 18 39  1  0  0  0  0
 18 40  1  0  0  0  0
M  END
> <s_m_source_file>
AV-unprocessed.smi

> <i_m_source_file_index>
2474

> <i_lp_mmshare_version>
43012

> <i_f3d_flags>
0

> <s_epik_input>
W0NIM11jMVtjSF1uYyhzMSlbQ0BIXShbQ0gzXSlbQ0gyXVtOSF1DKD1PKVtOSF1bQ0BASF0yW0NIMl1bQ0gyXVtDSDJdU1tDSDJdMg==

> <s_epik_cmdline>
J2VwaWtfcHl0aG9uJywgJy1waCcsICc3LjAnLCAnLXRuJywgJzgnLCAnLW1hJywgJzIwMCcsICctbWV0YWxfYmluZGluZycsICctaW1hZScsICc8aW5maWxlLm1hZT4nLCAnLW9tYWUnLCAnPG91dGZpbGUubWFlPic=

> <r_epik_Ionization_Penalty>
0.000644338

> <r_epik_Ionization_Penalty_Charging>
0

> <r_epik_Ionization_Penalty_Neutral>
0.000644338

> <r_epik_State_Penalty>
0.000374131

> <r_epik_Charging_Adjusted_Penalty>
0.000374131

> <i_epik_Tot_Q>
0

> <i_epik_Tot_abs_Q>
0

> <r_epik_Metal_State_Penalty>
-0

> <b_epik_Metal_Only>
0

> <s_lp_Force_Field>
OPLS_2005

> <r_lp_Energy>
-6.48006

> <b_lp_Chiralities_Consistent>
1

> <s_lp_Variant>
AV-unprocessed.smi:2474-2

> <Gold.Version>
5.8.1

> <Gold.Id.Protein>
6NUR|6NUR_protein|mol2

> <Gold.PLP.Fitness>
49.3770

> <Gold.PLP.PLP>
-44.0137

> <Gold.PLP.part.hbond>
-2.0000

> <Gold.PLP.part.metal>
0.0000

> <Gold.PLP.part.buried>
-6.8942

> <Gold.PLP.part.nonpolar>
-34.6999

> <Gold.PLP.part.repulsive>
0.4090

> <Gold.PLP.ligand.clash>
0.0000

> <Gold.PLP.ligand.torsion>
0.3691

> <Gold.PLP.Chemscore.Hbond>
1.9920

> <Gold.PLP.Chemscore.CHOScore>
0.0000

> <Gold.PLP.Chemscore.Metal>
0.0000

> <Gold.Chemscore.Hbonds>
donor molecule, donor type, donor heavy atom, donor atom, acceptor molecule, acceptor atom, score
      L1  H     9    30       P1  8028  0.99
      L1  H    12    31       P1  8028  1.00

> <Gold.PLP.Chemscore.Internal.Correction>
0.1255

> <Gold.Rescore>
     Score         DG    S(hbond)    S(metal)    S(lipo)     H(rot)  DE(clash)    DE(int)     intcor
     19.39     -21.45       1.91        0.00     113.84       1.46       0.16       1.90       ----

> <Gold.Chemscore.Fitness>
19.3869

> <Gold.Chemscore.DG>
-21.4475

> <Gold.Chemscore.ZeroCoef>
-5.4800

> <Gold.Chemscore.Hbond>
1.9131

> <Gold.Chemscore.Metal>
0.0000

> <Gold.Chemscore.Lipo>
113.8410

> <Gold.Chemscore.Internal_Hbond>
0.0000

> <Gold.Chemscore.DEClash>
0.1646

> <Gold.Chemscore.DEInternal>
1.8960

> <Gold.Chemscore.Rot>
1.4616

> <Gold.Chemscore.Internal.Correction>
   9.000000E+99

> <Gold.Chemscore.Hbonds>
donor molecule, donor type, donor heavy atom, donor atom, acceptor molecule, acceptor atom, score
      L1  H     9    30       P1  8028  0.93
      L1  H    12    31       P1  8028  0.96

> <Gold.Chemscore.Hbond.Weighted>
-6.3897

> <Gold.Chemscore.Metal.Weighted>
-0.0000

> <Gold.Chemscore.Lipo.Weighted>
-13.3194

> <Gold.Chemscore.Internal_Hbond.Weighted>
0.0000

> <Gold.Chemscore.DEClash.Weighted>
0.1646

> <Gold.Chemscore.DEInternal.Weighted>
1.8960

> <Gold.Chemscore.Rot.Weighted>
3.7416

> <Gold.Chemscore.Internal.Correction.Weighted>
   9.000000E+99

> <Gold.Protein.RotatedTorsions>
[ 6907 6896 6895 6894 ] final   20.74 input  -60.11 | X-H torsion
[ 7974 7965 7964 7962 ] final -144.04 input  175.53 | X-H torsion
[ 8008 7997 7996 7995 ] final  -61.89 input   59.86 | X-H torsion
[ 10167 10162 10161 10158 ] final  -12.36 input  -65.29 | X-H torsion
[ 10718 10713 10712 10709 ] final -166.93 input   66.30 | X-H torsion
[ 10763 10752 10751 10750 ] final   38.15 input  -60.55 | X-H torsion
[ 11005 11000 10999 10996 ] final  -15.58 input  -57.11 | X-H torsion

> <Gold.Protein.ActiveResidues>
 VAL166  LYS551  ARG553  GLY616  TRP617  ASP618  TYR619  PRO620  LYS621  CYS622 
 ASP623  PHE694  ASN695  SER759  ASP760  ASP761  ALA762  ILE779  LEU786  VAL792 
 PHE793  MET794  SER795  GLU796  ALA797  LYS798  CYS799  TRP800  GLU811  SER814 

> <Gold.Protein.RotatedAtoms>
  151.9010  135.0378  160.0506 H   0  0  0  0  0  0  0  0  0  0  0  0  # atno 6907 bound_to 6896
  152.2358  133.5091  159.5250 H   0  0  0  0  0  0  0  0  0  0  0  0  # atno 6908 bound_to 6896
  150.7039  134.1071  159.4029 H   0  0  0  0  0  0  0  0  0  0  0  0  # atno 6909 bound_to 6896
  144.8326  140.5760  143.5505 H   0  0  0  0  0  0  0  0  0  0  0  0  # atno 7974 bound_to 7965
  154.4471  140.1008  156.6502 H   0  0  0  0  0  0  0  0  0  0  0  0  # atno 8008 bound_to 7997
  155.5406  140.3483  155.4427 H   0  0  0  0  0  0  0  0  0  0  0  0  # atno 8009 bound_to 7997
  156.0600  140.1324  156.9941 H   0  0  0  0  0  0  0  0  0  0  0  0  # atno 8010 bound_to 7997
  140.7159  143.5541  150.9268 H   0  0  0  0  0  0  0  0  0  0  0  0  # atno 10167 bound_to 10162
  156.6750  130.9099  151.3049 H   0  0  0  0  0  0  0  0  0  0  0  0  # atno 10718 bound_to 10713
  153.0011  135.6257  154.2259 H   0  0  0  0  0  0  0  0  0  0  0  0  # atno 10763 bound_to 10752
  154.2002  135.2804  155.2995 H   0  0  0  0  0  0  0  0  0  0  0  0  # atno 10764 bound_to 10752
  154.5690  135.5682  153.7136 H   0  0  0  0  0  0  0  0  0  0  0  0  # atno 10765 bound_to 10752
  140.7981  133.8235  155.9443 H   0  0  0  0  0  0  0  0  0  0  0  0  # atno 11005 bound_to 11000
  145.4863  139.1492  143.3734 LP  0  0  0  0  0  0  0  0  0  0  0  0  # atno 17320 bound_to 7965
  146.2628  140.5000  142.8846 LP  0  0  0  0  0  0  0  0  0  0  0  0  # atno 17321 bound_to 7965
  139.9266  143.6543  152.3085 LP  0  0  0  0  0  0  0  0  0  0  0  0  # atno 17342 bound_to 10162
  139.6979  144.7639  151.1325 LP  0  0  0  0  0  0  0  0  0  0  0  0  # atno 17343 bound_to 10162
  157.7064  130.9390  150.0944 LP  0  0  0  0  0  0  0  0  0  0  0  0  # atno 17370 bound_to 10713
  156.1910  130.3654  149.8910 LP  0  0  0  0  0  0  0  0  0  0  0  0  # atno 17371 bound_to 10713
  140.9322  134.2007  157.4856 LP  0  0  0  0  0  0  0  0  0  0  0  0  # atno 17394 bound_to 11000
  139.8724  134.9837  156.5211 LP  0  0  0  0  0  0  0  0  0  0  0  0  # atno 17395 bound_to 11000

$$$$
