AV-unprocessed.smi:1|AV-procd|sdf|13|dock1
  -GOLD-   2262015103D 1   1.00000     0.00000
 Structure written by MMmdl.
 57 62  0  0  0  0  0  0  0  0  1 V2000
  152.9467  142.4589  162.6133 O   0  0  0  0  0  0  0  0  0  0  0  0
  152.8712  142.2137  161.4062 C   0  0  0  0  0  0  0  0  0  0  0  0
  153.1710  141.0345  160.7366 N   0  0  0  0  0  0  0  0  0  0  0  0
  154.1064  140.2515  161.1823 C   0  0  0  0  0  0  0  0  0  0  0  0
  154.9578  140.3314  162.2913 N   0  0  0  0  0  0  0  0  0  0  0  0
  155.9391  139.3930  162.6442 C   0  0  0  0  0  0  0  0  0  0  0  0
  156.1993  138.2996  161.9788 N   0  0  0  0  0  0  0  0  0  0  0  0
  155.3794  138.1658  160.8672 C   0  0  0  0  0  0  0  0  0  0  0  0
  154.3866  139.0135  160.4225 C   0  0  0  0  0  0  0  0  0  0  0  0
  153.7922  138.5180  159.2676 N   0  0  0  0  0  0  0  0  0  0  0  0
  154.4565  137.3842  159.0631 C   0  0  0  0  0  0  0  0  0  0  0  0
  155.4189  137.1046  159.9621 N   0  0  0  0  0  0  0  0  0  0  0  0
  156.2932  135.8892  159.9540 C   0  0  2  0  0  0  0  0  0  0  0  0
  156.9866  135.8285  158.7424 O   0  0  0  0  0  0  0  0  0  0  0  0
  156.6284  134.6580  158.0121 C   0  0  1  0  0  0  0  0  0  0  0  0
  157.8052  134.1525  157.1696 C   0  0  0  0  0  0  0  0  0  0  0  0
  157.9104  134.9483  156.0010 O   0  0  0  0  0  0  0  0  0  0  0  0
  159.0571  134.9626  155.2952 C   0  0  0  0  0  0  0  0  0  0  0  0
  160.1659  134.7512  155.7907 O   0  0  0  0  0  0  0  0  0  0  0  0
  158.8443  135.2635  153.8500 C   0  0  0  0  0  0  0  0  0  0  0  0
  157.5301  135.4801  153.3734 C   0  0  0  0  0  0  0  0  0  0  0  0
  157.2975  135.7617  152.0130 C   0  0  0  0  0  0  0  0  0  0  0  0
  158.3764  135.8302  151.1126 C   0  0  0  0  0  0  0  0  0  0  0  0
  159.6884  135.6168  151.5741 C   0  0  0  0  0  0  0  0  0  0  0  0
  159.9232  135.3353  152.9342 C   0  0  0  0  0  0  0  0  0  0  0  0
  156.1490  133.6793  159.0826 C   0  0  1  0  0  0  0  0  0  0  0  0
  157.2397  133.0306  159.7163 O   0  0  0  0  0  0  0  0  0  0  0  0
  156.9502  132.9984  161.3612 S   0  0  0  0  0  0  0  0  0  0  0  0
  156.4775  131.6531  161.7214 O   0  0  0  0  0  0  0  0  0  0  0  0
  158.0804  133.6504  162.0402 O   0  0  0  0  0  0  0  0  0  0  0  0
  155.6423  134.0392  161.3978 O   0  0  0  0  0  0  0  0  0  0  0  0
  155.4755  134.5976  160.1062 C   0  0  1  0  0  0  0  0  0  0  0  0
  152.3702  143.2937  160.5038 C   0  0  0  0  0  0  0  0  0  0  0  0
  151.7724  144.4501  161.0481 C   0  0  0  0  0  0  0  0  0  0  0  0
  151.2941  145.4653  160.1965 C   0  0  0  0  0  0  0  0  0  0  0  0
  151.4100  145.3264  158.7997 C   0  0  0  0  0  0  0  0  0  0  0  0
  152.0034  144.1716  158.2539 C   0  0  0  0  0  0  0  0  0  0  0  0
  152.4824  143.1558  159.1041 C   0  0  0  0  0  0  0  0  0  0  0  0
  156.4930  139.6486  163.5483 H   0  0  0  0  0  0  0  0  0  0  0  0
  154.2355  136.7351  158.2285 H   0  0  0  0  0  0  0  0  0  0  0  0
  157.0056  136.0474  160.7649 H   0  0  0  0  0  0  0  0  0  0  0  0
  155.7890  134.8920  157.3583 H   0  0  0  0  0  0  0  0  0  0  0  0
  158.7327  134.1877  157.7427 H   0  0  0  0  0  0  0  0  0  0  0  0
  157.6339  133.1150  156.8793 H   0  0  0  0  0  0  0  0  0  0  0  0
  156.6859  135.4313  154.0459 H   0  0  0  0  0  0  0  0  0  0  0  0
  156.2896  135.9244  151.6607 H   0  0  0  0  0  0  0  0  0  0  0  0
  158.1979  136.0454  150.0694 H   0  0  0  0  0  0  0  0  0  0  0  0
  160.5174  135.6682  150.8838 H   0  0  0  0  0  0  0  0  0  0  0  0
  160.9424  135.1755  153.2544 H   0  0  0  0  0  0  0  0  0  0  0  0
  155.4678  132.9260  158.6852 H   0  0  0  0  0  0  0  0  0  0  0  0
  154.4251  134.7625  159.8650 H   0  0  0  0  0  0  0  0  0  0  0  0
  151.6775  144.5624  162.1185 H   0  0  0  0  0  0  0  0  0  0  0  0
  150.8363  146.3493  160.6150 H   0  0  0  0  0  0  0  0  0  0  0  0
  151.0419  146.1042  158.1472 H   0  0  0  0  0  0  0  0  0  0  0  0
  152.0897  144.0640  157.1827 H   0  0  0  0  0  0  0  0  0  0  0  0
  152.9338  142.2714  158.6781 H   0  0  0  0  0  0  0  0  0  0  0  0
  154.8549  141.1389  162.8895 H   0  0  0  0  0  0  0  0  0  0  0  0
  1  2  2  0  0  0  0
  2  3  1  0  0  0  0
  2 33  1  0  0  0  0
  3  4  2  0  0  0  0
  4  9  1  0  0  0  0
  4  5  1  0  0  0  0
  5  6  1  0  0  0  0
  5 57  1  0  0  0  0
  6  7  2  0  0  0  0
  6 39  1  0  0  0  0
  7  8  1  0  0  0  0
  8 12  1  0  0  0  0
  8  9  2  0  0  0  0
  9 10  1  0  0  0  0
 10 11  2  0  0  0  0
 11 12  1  0  0  0  0
 11 40  1  0  0  0  0
 12 13  1  0  0  0  0
 13 32  1  0  0  0  0
 13 14  1  0  0  0  0
 13 41  1  0  0  0  0
 14 15  1  0  0  0  0
 15 16  1  0  0  0  0
 15 26  1  0  0  0  0
 15 42  1  0  0  0  0
 16 17  1  0  0  0  0
 16 43  1  0  0  0  0
 16 44  1  0  0  0  0
 17 18  1  0  0  0  0
 18 19  2  0  0  0  0
 18 20  1  0  0  0  0
 20 25  1  0  0  0  0
 20 21  2  0  0  0  0
 21 22  1  0  0  0  0
 21 45  1  0  0  0  0
 22 23  2  0  0  0  0
 22 46  1  0  0  0  0
 23 24  1  0  0  0  0
 23 47  1  0  0  0  0
 24 25  2  0  0  0  0
 24 48  1  0  0  0  0
 25 49  1  0  0  0  0
 26 32  1  0  0  0  0
 26 27  1  0  0  0  0
 26 50  1  0  0  0  0
 27 28  1  0  0  0  0
 28 29  2  0  0  0  0
 28 30  2  0  0  0  0
 28 31  1  0  0  0  0
 31 32  1  0  0  0  0
 32 51  1  0  0  0  0
 33 38  1  0  0  0  0
 33 34  2  0  0  0  0
 34 35  1  0  0  0  0
 34 52  1  0  0  0  0
 35 36  2  0  0  0  0
 35 53  1  0  0  0  0
 36 37  1  0  0  0  0
 36 54  1  0  0  0  0
 37 38  2  0  0  0  0
 37 55  1  0  0  0  0
 38 56  1  0  0  0  0
M  END
> <s_m_source_file>
AV-unprocessed.smi

> <i_m_source_file_index>
1

> <i_lp_mmshare_version>
43012

> <i_f3d_flags>
0

> <s_epik_input>
W2NIXTFbY0hdW2NIXVtjSF1bY0hdYzFDKD1PKVtOSF1jKG5bY0hdbjIpYyhjMjMpbltjSF1uM1tDQEBIXShbQ0BIXShbQ0BIXTQ1KU9TKE81KSg9Tyk9TylPW0NASF00W0NIMl1PQyg9TyljNltjSF1bY0hdW2NIXVtjSF1bY0hdNg==

> <s_epik_cmdline>
J2VwaWtfcHl0aG9uJywgJy1waCcsICc3LjAnLCAnLXRuJywgJzgnLCAnLW1hJywgJzIwMCcsICctbWV0YWxfYmluZGluZycsICctaW1hZScsICc8aW5maWxlLm1hZT4nLCAnLW9tYWUnLCAnPG91dGZpbGUubWFlPic=

> <r_epik_Ionization_Penalty>
0.122545

> <r_epik_Ionization_Penalty_Charging>
0.122545

> <r_epik_Ionization_Penalty_Neutral>
7.8935e-16

> <r_epik_State_Penalty>
2.69178

> <r_epik_Charging_Adjusted_Penalty>
2.81433

> <i_epik_Tot_Q>
0

> <i_epik_Tot_abs_Q>
0

> <r_epik_Metal_State_Penalty>
3.02665

> <b_epik_Metal_Only>
0

> <s_epik_Chemistry_Notes>
This compound has an ester and may undergo hydrolysis at high or low pH. This compound contains an acetal/aminal-like group ( X-CH(R)-Y where X, Y are N, S, or O) that may be acid/base labile, releasing an aldehyde.

> <s_lp_Force_Field>
OPLS_2005

> <r_lp_Energy>
62.4827

> <b_lp_Chiralities_Consistent>
1

> <s_lp_Variant>
AV-unprocessed.smi:1-13

> <Gold.Version>
5.8.1

> <Gold.Id.Protein>
6NUR|6NUR_protein|mol2

> <Gold.PLP.Fitness>
52.4182

> <Gold.PLP.PLP>
-53.8368

> <Gold.PLP.part.hbond>
-1.0000

> <Gold.PLP.part.metal>
0.0000

> <Gold.PLP.part.buried>
-7.7021

> <Gold.PLP.part.nonpolar>
-44.5221

> <Gold.PLP.part.repulsive>
0.2017

> <Gold.PLP.ligand.clash>
0.0000

> <Gold.PLP.ligand.torsion>
0.8764

> <Gold.PLP.Chemscore.Hbond>
0.0000

> <Gold.PLP.Chemscore.CHOScore>
0.0000

> <Gold.PLP.Chemscore.Metal>
0.0000

> <Gold.PLP.Chemscore.Internal.Correction>
0.3343

> <Gold.Rescore>
     Score         DG    S(hbond)    S(metal)    S(lipo)     H(rot)  DE(clash)    DE(int)     intcor
     16.62     -17.58       0.00        0.00     150.12       2.13       0.11       0.85       ----

> <Gold.Chemscore.Fitness>
16.6221

> <Gold.Chemscore.DG>
-17.5823

> <Gold.Chemscore.ZeroCoef>
-5.4800

> <Gold.Chemscore.Hbond>
0.0000

> <Gold.Chemscore.Metal>
0.0000

> <Gold.Chemscore.Lipo>
150.1165

> <Gold.Chemscore.Internal_Hbond>
0.0000

> <Gold.Chemscore.DEClash>
0.1054

> <Gold.Chemscore.DEInternal>
0.8548

> <Gold.Chemscore.Rot>
2.1333

> <Gold.Chemscore.Internal.Correction>
   9.000000E+99

> <Gold.Chemscore.Hbond.Weighted>
-0.0000

> <Gold.Chemscore.Metal.Weighted>
-0.0000

> <Gold.Chemscore.Lipo.Weighted>
-17.5636

> <Gold.Chemscore.Internal_Hbond.Weighted>
0.0000

> <Gold.Chemscore.DEClash.Weighted>
0.1054

> <Gold.Chemscore.DEInternal.Weighted>
0.8548

> <Gold.Chemscore.Rot.Weighted>
5.4614

> <Gold.Chemscore.Internal.Correction.Weighted>
   9.000000E+99

> <Gold.Protein.RotatedTorsions>
[ 6907 6896 6895 6894 ] final   91.60 input  -60.11 | X-H torsion
[ 7974 7965 7964 7962 ] final -158.45 input  175.53 | X-H torsion
[ 8008 7997 7996 7995 ] final -138.11 input   59.86 | X-H torsion
[ 10167 10162 10161 10158 ] final  101.16 input  -65.29 | X-H torsion
[ 10718 10713 10712 10709 ] final  119.09 input   66.30 | X-H torsion
[ 10763 10752 10751 10750 ] final   63.59 input  -60.55 | X-H torsion
[ 11005 11000 10999 10996 ] final -121.50 input  -57.11 | X-H torsion

> <Gold.Protein.ActiveResidues>
 VAL166  LYS551  ARG553  GLY616  TRP617  ASP618  TYR619  PRO620  LYS621  CYS622 
 ASP623  PHE694  ASN695  SER759  ASP760  ASP761  ALA762  ILE779  LEU786  VAL792 
 PHE793  MET794  SER795  GLU796  ALA797  LYS798  CYS799  TRP800  GLU811  SER814 

> <Gold.Protein.RotatedAtoms>
  152.5450  134.1631  159.8565 H   0  0  0  0  0  0  0  0  0  0  0  0  # atno 6907 bound_to 6896
  151.1648  133.4815  159.2601 H   0  0  0  0  0  0  0  0  0  0  0  0  # atno 6908 bound_to 6896
  151.1336  135.0154  159.8648 H   0  0  0  0  0  0  0  0  0  0  0  0  # atno 6909 bound_to 6896
  144.7505  140.3826  143.6051 H   0  0  0  0  0  0  0  0  0  0  0  0  # atno 7974 bound_to 7965
  155.4229  140.0520  157.3024 H   0  0  0  0  0  0  0  0  0  0  0  0  # atno 8008 bound_to 7997
  154.4894  140.2114  155.9540 H   0  0  0  0  0  0  0  0  0  0  0  0  # atno 8009 bound_to 7997
  156.1321  140.3170  155.8370 H   0  0  0  0  0  0  0  0  0  0  0  0  # atno 8010 bound_to 7997
  139.7462  144.6997  151.0500 H   0  0  0  0  0  0  0  0  0  0  0  0  # atno 10167 bound_to 10162
  157.5985  131.1054  150.7848 H   0  0  0  0  0  0  0  0  0  0  0  0  # atno 10718 bound_to 10713
  153.0023  135.5424  154.6375 H   0  0  0  0  0  0  0  0  0  0  0  0  # atno 10763 bound_to 10752
  154.5638  135.2836  155.0895 H   0  0  0  0  0  0  0  0  0  0  0  0  # atno 10764 bound_to 10752
  154.2088  135.6471  153.5161 H   0  0  0  0  0  0  0  0  0  0  0  0  # atno 10765 bound_to 10752
  141.0065  134.0326  157.3470 H   0  0  0  0  0  0  0  0  0  0  0  0  # atno 11005 bound_to 11000
  145.6961  139.1650  143.2619 LP  0  0  0  0  0  0  0  0  0  0  0  0  # atno 17320 bound_to 7965
  146.1449  140.7007  142.9349 LP  0  0  0  0  0  0  0  0  0  0  0  0  # atno 17321 bound_to 7965
  140.7792  143.4864  150.9951 LP  0  0  0  0  0  0  0  0  0  0  0  0  # atno 17342 bound_to 10162
  139.8552  143.7387  152.3176 LP  0  0  0  0  0  0  0  0  0  0  0  0  # atno 17343 bound_to 10162
  156.8253  130.4997  149.5338 LP  0  0  0  0  0  0  0  0  0  0  0  0  # atno 17370 bound_to 10713
  156.1053  130.6000  150.9960 LP  0  0  0  0  0  0  0  0  0  0  0  0  # atno 17371 bound_to 10713
  139.9066  135.0181  156.7513 LP  0  0  0  0  0  0  0  0  0  0  0  0  # atno 17394 bound_to 11000
  140.6803  133.9480  155.7907 LP  0  0  0  0  0  0  0  0  0  0  0  0  # atno 17395 bound_to 11000

$$$$
