AV-unprocessed.smi:193|AV-procd|sdf|1516|dock10
  -GOLD-   2262019353D 1   1.00000     0.00000
 Structure written by MMmdl.
 61 65  0  0  0  0  0  0  0  0  1 V2000
  151.9307  139.6018  154.5826 C   0  0  0  0  0  0  0  0  0  0  0  0
  151.2258  140.1858  155.8155 C   0  0  2  0  0  0  0  0  0  0  0  0
  150.1702  141.2298  155.3940 C   0  0  0  0  0  0  0  0  0  0  0  0
  149.1099  141.3540  156.3973 N   0  0  0  0  0  0  0  0  0  0  0  0
  148.0979  140.4384  156.3901 C   0  0  0  0  0  0  0  0  0  0  0  0
  147.4011  140.2652  157.5449 N   0  0  0  0  0  0  0  0  0  0  0  0
  146.4013  139.3840  157.6198 C   0  0  0  0  0  0  0  0  0  0  0  0
  145.9320  138.5760  156.6705 N   0  0  0  0  0  0  0  0  0  0  0  0
  146.6180  138.7359  155.5040 C   0  0  0  0  0  0  0  0  0  0  0  0
  147.7009  139.6361  155.2736 C   0  0  0  0  0  0  0  0  0  0  0  0
  148.1160  139.5185  153.9500 N   0  0  0  0  0  0  0  0  0  0  0  0
  147.3375  138.6071  153.4375 C   0  0  0  0  0  0  0  0  0  0  0  0
  146.4159  138.0726  154.3059 N   0  0  0  0  0  0  0  0  0  0  0  0
  145.4292  137.0458  154.0056 C   0  0  0  0  0  0  0  0  0  0  0  0
  144.2849  137.5150  153.0645 C   0  0  0  0  0  0  0  0  0  0  0  0
  143.6784  138.6479  153.6577 O   0  0  0  0  0  0  0  0  0  0  0  0
  144.8260  137.9482  151.6878 C   0  0  0  0  0  0  0  0  0  0  0  0
  145.2296  136.7343  150.8303 C   0  0  0  0  0  0  0  0  0  0  0  0
  144.1285  135.8416  150.6953 O   0  0  0  0  0  0  0  0  0  0  0  0
  143.6737  135.3173  151.9384 C   0  0  0  0  0  0  0  0  0  0  0  0
  143.1784  136.4630  152.8379 C   0  0  0  0  0  0  0  0  0  0  0  0
  149.4483  142.0834  157.6130 C   0  0  0  0  0  0  0  0  0  0  0  0
  150.5673  141.4021  158.4210 C   0  0  0  0  0  0  0  0  0  0  0  0
  151.8470  141.7140  157.7922 N   0  0  0  0  0  0  0  0  0  0  0  0
  152.8835  141.8596  158.8055 C   0  0  2  0  0  0  0  0  0  0  0  0
  152.4811  142.4427  160.1419 C   0  0  0  0  0  0  0  0  0  0  0  0
  153.3349  143.2553  159.1980 C   0  0  2  0  0  0  0  0  0  0  0  0
  152.7769  144.5132  158.5599 C   0  0  0  0  0  0  0  0  0  0  0  0
  152.2837  140.6998  156.8270 C   0  0  0  0  0  0  0  0  0  0  0  0
  152.4714  140.3729  154.0326 H   0  0  0  0  0  0  0  0  0  0  0  0
  151.2140  139.1460  153.8988 H   0  0  0  0  0  0  0  0  0  0  0  0
  152.6464  138.8303  154.8682 H   0  0  0  0  0  0  0  0  0  0  0  0
  150.6989  139.3527  156.2836 H   0  0  0  0  0  0  0  0  0  0  0  0
  150.6445  142.2011  155.2472 H   0  0  0  0  0  0  0  0  0  0  0  0
  149.7504  140.9716  154.4220 H   0  0  0  0  0  0  0  0  0  0  0  0
  145.9080  139.3154  158.5782 H   0  0  0  0  0  0  0  0  0  0  0  0
  147.4196  138.2936  152.4071 H   0  0  0  0  0  0  0  0  0  0  0  0
  145.9500  136.1945  153.5651 H   0  0  0  0  0  0  0  0  0  0  0  0
  145.0291  136.6879  154.9537 H   0  0  0  0  0  0  0  0  0  0  0  0
  143.7126  139.3648  153.0432 H   0  0  0  0  0  0  0  0  0  0  0  0
  144.0576  138.5054  151.1493 H   0  0  0  0  0  0  0  0  0  0  0  0
  145.6715  138.6276  151.8026 H   0  0  0  0  0  0  0  0  0  0  0  0
  145.5316  137.0665  149.8371 H   0  0  0  0  0  0  0  0  0  0  0  0
  146.0859  136.2112  151.2572 H   0  0  0  0  0  0  0  0  0  0  0  0
  142.8597  134.6188  151.7442 H   0  0  0  0  0  0  0  0  0  0  0  0
  144.4685  134.7474  152.4209 H   0  0  0  0  0  0  0  0  0  0  0  0
  142.7972  136.0723  153.7809 H   0  0  0  0  0  0  0  0  0  0  0  0
  142.3247  136.9326  152.3468 H   0  0  0  0  0  0  0  0  0  0  0  0
  149.7516  143.0949  157.3395 H   0  0  0  0  0  0  0  0  0  0  0  0
  148.5598  142.2181  158.2284 H   0  0  0  0  0  0  0  0  0  0  0  0
  150.5444  141.8320  159.4231 H   0  0  0  0  0  0  0  0  0  0  0  0
  150.4198  140.3283  158.5422 H   0  0  0  0  0  0  0  0  0  0  0  0
  153.6549  141.0932  158.8598 H   0  0  0  0  0  0  0  0  0  0  0  0
  151.4430  142.7435  160.2726 H   0  0  0  0  0  0  0  0  0  0  0  0
  152.9620  142.0389  161.0305 H   0  0  0  0  0  0  0  0  0  0  0  0
  154.3858  143.3441  159.4668 H   0  0  0  0  0  0  0  0  0  0  0  0
  151.7137  144.4072  158.3422 H   0  0  0  0  0  0  0  0  0  0  0  0
  153.3040  144.7270  157.6303 H   0  0  0  0  0  0  0  0  0  0  0  0
  152.9062  145.3602  159.2334 H   0  0  0  0  0  0  0  0  0  0  0  0
  152.6832  139.8373  157.3630 H   0  0  0  0  0  0  0  0  0  0  0  0
  153.1240  141.1273  156.2791 H   0  0  0  0  0  0  0  0  0  0  0  0
  1  2  1  0  0  0  0
  1 30  1  0  0  0  0
  1 31  1  0  0  0  0
  1 32  1  0  0  0  0
  2 29  1  0  0  0  0
  2  3  1  0  0  0  0
  2 33  1  0  0  0  0
  3  4  1  0  0  0  0
  3 34  1  0  0  0  0
  3 35  1  0  0  0  0
  4  5  1  0  0  0  0
  4 22  1  0  0  0  0
  5 10  1  0  0  0  0
  5  6  2  0  0  0  0
  6  7  1  0  0  0  0
  7  8  2  0  0  0  0
  7 36  1  0  0  0  0
  8  9  1  0  0  0  0
  9 13  1  0  0  0  0
  9 10  2  0  0  0  0
 10 11  1  0  0  0  0
 11 12  2  0  0  0  0
 12 13  1  0  0  0  0
 12 37  1  0  0  0  0
 13 14  1  0  0  0  0
 14 15  1  0  0  0  0
 14 38  1  0  0  0  0
 14 39  1  0  0  0  0
 15 21  1  0  0  0  0
 15 16  1  0  0  0  0
 15 17  1  0  0  0  0
 16 40  1  0  0  0  0
 17 18  1  0  0  0  0
 17 41  1  0  0  0  0
 17 42  1  0  0  0  0
 18 19  1  0  0  0  0
 18 43  1  0  0  0  0
 18 44  1  0  0  0  0
 19 20  1  0  0  0  0
 20 21  1  0  0  0  0
 20 45  1  0  0  0  0
 20 46  1  0  0  0  0
 21 47  1  0  0  0  0
 21 48  1  0  0  0  0
 22 23  1  0  0  0  0
 22 49  1  0  0  0  0
 22 50  1  0  0  0  0
 23 24  1  0  0  0  0
 23 51  1  0  0  0  0
 23 52  1  0  0  0  0
 24 25  1  0  0  0  0
 24 29  1  0  0  0  0
 25 27  1  0  0  0  0
 25 26  1  0  0  0  0
 25 53  1  0  0  0  0
 26 27  1  0  0  0  0
 26 54  1  0  0  0  0
 26 55  1  0  0  0  0
 27 28  1  0  0  0  0
 27 56  1  0  0  0  0
 28 57  1  0  0  0  0
 28 58  1  0  0  0  0
 28 59  1  0  0  0  0
 29 60  1  0  0  0  0
 29 61  1  0  0  0  0
M  END
> <s_m_source_file>
AV-unprocessed.smi

> <i_m_source_file_index>
193

> <i_lp_mmshare_version>
43012

> <i_f3d_flags>
0

> <s_epik_input>
W0NIM11bQ0BASF0xW0NIMl1bQ0BIXTFOKFtDSDJdMilbQ0gyXVtDSDJdTihbQ0gyXVtDQEhdMltDSDNdKWMobltjSF1uMyljKGMzNCluW2NIXW40W0NIMl1DNShbT0hdKVtDSDJdW0NIMl1PW0NIMl1bQ0gyXTU=

> <s_epik_cmdline>
J2VwaWtfcHl0aG9uJywgJy1waCcsICc3LjAnLCAnLXRuJywgJzgnLCAnLW1hJywgJzIwMCcsICctbWV0YWxfYmluZGluZycsICctaW1hZScsICc8aW5maWxlLm1hZT4nLCAnLW9tYWUnLCAnPG91dGZpbGUubWFlPic=

> <r_lp_tautomer_probability>
1

> <r_epik_Ionization_Penalty>
1.45227

> <r_epik_Ionization_Penalty_Charging>
0

> <r_epik_Ionization_Penalty_Neutral>
1.45227

> <r_epik_State_Penalty>
2.02377

> <r_epik_Charging_Adjusted_Penalty>
2.02377

> <i_epik_Tot_Q>
0

> <i_epik_Tot_abs_Q>
0

> <r_epik_Metal_State_Penalty>
2.01937

> <b_epik_Metal_Only>
0

> <s_lp_Force_Field>
OPLS_2005

> <r_lp_Energy>
54.596

> <b_lp_Chiralities_Consistent>
1

> <s_lp_Variant>
AV-unprocessed.smi:193-21

> <Gold.Version>
5.8.1

> <Gold.Id.Protein>
6NUR|6NUR_protein|mol2

> <Gold.PLP.Fitness>
43.1817

> <Gold.PLP.PLP>
-38.1728

> <Gold.PLP.part.hbond>
-0.7575

> <Gold.PLP.part.metal>
0.0000

> <Gold.PLP.part.buried>
-2.0487

> <Gold.PLP.part.nonpolar>
-34.6380

> <Gold.PLP.part.repulsive>
0.3143

> <Gold.PLP.ligand.clash>
0.0000

> <Gold.PLP.ligand.torsion>
1.1143

> <Gold.PLP.Chemscore.Hbond>
0.9760

> <Gold.PLP.Chemscore.CHOScore>
1.0000

> <Gold.PLP.Chemscore.Metal>
0.0000

> <Gold.Chemscore.Hbonds>
donor molecule, donor type, donor heavy atom, donor atom, acceptor molecule, acceptor atom, score
      L1  H    16    40       P1 10175  0.23
      L1  C    12    37       P1  7948  0.63

> <Gold.PLP.Chemscore.Internal.Correction>
1.3094

> <Gold.Rescore>
     Score         DG    S(hbond)    S(metal)    S(lipo)     H(rot)  DE(clash)    DE(int)     intcor
     14.04     -16.02       0.91        0.00     105.85       1.91       0.11       1.88       ----

> <Gold.Chemscore.Fitness>
14.0364

> <Gold.Chemscore.DG>
-16.0205

> <Gold.Chemscore.ZeroCoef>
-5.4800

> <Gold.Chemscore.Hbond>
0.9093

> <Gold.Chemscore.Metal>
0.0000

> <Gold.Chemscore.Lipo>
105.8546

> <Gold.Chemscore.Internal_Hbond>
0.0000

> <Gold.Chemscore.DEClash>
0.1091

> <Gold.Chemscore.DEInternal>
1.8751

> <Gold.Chemscore.Rot>
1.9068

> <Gold.Chemscore.Internal.Correction>
   9.000000E+99

> <Gold.Chemscore.Hbonds>
donor molecule, donor type, donor heavy atom, donor atom, acceptor molecule, acceptor atom, score
      L1  H    16    40       P1 10175  0.23

> <Gold.Chemscore.Hbond.Weighted>
-3.0369

> <Gold.Chemscore.Metal.Weighted>
-0.0000

> <Gold.Chemscore.Lipo.Weighted>
-12.3850

> <Gold.Chemscore.Internal_Hbond.Weighted>
0.0000

> <Gold.Chemscore.DEClash.Weighted>
0.1091

> <Gold.Chemscore.DEInternal.Weighted>
1.8751

> <Gold.Chemscore.Rot.Weighted>
4.8814

> <Gold.Chemscore.Internal.Correction.Weighted>
   9.000000E+99

> <Gold.Protein.RotatedTorsions>
[ 6907 6896 6895 6894 ] final   47.85 input  -60.11 | X-H torsion
[ 7974 7965 7964 7962 ] final   84.71 input  175.53 | X-H torsion
[ 8008 7997 7996 7995 ] final -152.93 input   59.86 | X-H torsion
[ 10167 10162 10161 10158 ] final -106.85 input  -65.29 | X-H torsion
[ 10718 10713 10712 10709 ] final  145.06 input   66.30 | X-H torsion
[ 10763 10752 10751 10750 ] final   24.26 input  -60.55 | X-H torsion
[ 11005 11000 10999 10996 ] final   68.35 input  -57.11 | X-H torsion

> <Gold.Protein.ActiveResidues>
 VAL166  LYS551  ARG553  GLY616  TRP617  ASP618  TYR619  PRO620  LYS621  CYS622 
 ASP623  PHE694  ASN695  SER759  ASP760  ASP761  ALA762  ILE779  LEU786  VAL792 
 PHE793  MET794  SER795  GLU796  ALA797  LYS798  CYS799  TRP800  GLU811  SER814 

> <Gold.Protein.RotatedAtoms>
  152.2727  134.7915  160.0410 H   0  0  0  0  0  0  0  0  0  0  0  0  # atno 6907 bound_to 6896
  151.8521  133.3436  159.3685 H   0  0  0  0  0  0  0  0  0  0  0  0  # atno 6908 bound_to 6896
  150.7158  134.5216  159.5701 H   0  0  0  0  0  0  0  0  0  0  0  0  # atno 6909 bound_to 6896
  145.5952  139.2344  143.2277 H   0  0  0  0  0  0  0  0  0  0  0  0  # atno 7974 bound_to 7965
  155.6628  140.0724  157.2548 H   0  0  0  0  0  0  0  0  0  0  0  0  # atno 8008 bound_to 7997
  154.4139  140.1713  156.1846 H   0  0  0  0  0  0  0  0  0  0  0  0  # atno 8009 bound_to 7997
  155.9682  140.3364  155.6555 H   0  0  0  0  0  0  0  0  0  0  0  0  # atno 8010 bound_to 7997
  140.1833  143.3949  152.1264 H   0  0  0  0  0  0  0  0  0  0  0  0  # atno 10167 bound_to 10162
  157.3497  131.0949  151.1010 H   0  0  0  0  0  0  0  0  0  0  0  0  # atno 10718 bound_to 10713
  153.0777  135.6609  154.0112 H   0  0  0  0  0  0  0  0  0  0  0  0  # atno 10763 bound_to 10752
  153.9741  135.2961  155.3426 H   0  0  0  0  0  0  0  0  0  0  0  0  # atno 10764 bound_to 10752
  154.7169  135.5181  153.8822 H   0  0  0  0  0  0  0  0  0  0  0  0  # atno 10765 bound_to 10752
  139.9716  134.6890  156.0435 H   0  0  0  0  0  0  0  0  0  0  0  0  # atno 11005 bound_to 11000
  146.1617  140.6778  142.9274 LP  0  0  0  0  0  0  0  0  0  0  0  0  # atno 17320 bound_to 7965
  144.7334  140.4738  143.6921 LP  0  0  0  0  0  0  0  0  0  0  0  0  # atno 17321 bound_to 7965
  139.5287  144.7133  151.5135 LP  0  0  0  0  0  0  0  0  0  0  0  0  # atno 17342 bound_to 10162
  140.6505  143.8706  150.6781 LP  0  0  0  0  0  0  0  0  0  0  0  0  # atno 17343 bound_to 10162
  157.2191  130.6473  149.5804 LP  0  0  0  0  0  0  0  0  0  0  0  0  # atno 17370 bound_to 10713
  155.9720  130.4635  150.6184 LP  0  0  0  0  0  0  0  0  0  0  0  0  # atno 17371 bound_to 10713
  141.1396  133.6567  156.3690 LP  0  0  0  0  0  0  0  0  0  0  0  0  # atno 17394 bound_to 11000
  140.5281  134.6239  157.5341 LP  0  0  0  0  0  0  0  0  0  0  0  0  # atno 17395 bound_to 11000

$$$$
