AV-unprocessed.smi:1406|AV-procd|sdf|5710|dock5
  -GOLD-   22720 5343D 1   1.00000     0.00000
 Structure written by MMmdl.
 41 43  0  0  0  0  0  0  0  0  2 V2000
  149.4258  141.1289  155.1360 C   0  0  0  0  0  0  0  0  0  0  0  0
  150.8995  140.9269  155.5432 C   0  0  1  0  0  0  0  0  0  0  0  0
  151.1538  141.1880  157.0383 C   0  0  0  0  0  0  0  0  0  0  0  0
  151.6750  140.3304  157.7522 O   0  0  0  0  0  0  0  0  0  0  0  0
  150.7785  142.3897  157.5036 N   0  0  0  0  0  0  0  0  0  0  0  0
  150.9948  142.8589  158.8670 C   0  0  2  0  0  0  0  0  0  0  0  0
  150.3013  144.1907  159.1904 C   0  0  0  0  0  0  0  0  0  0  0  0
  151.2890  144.9532  160.0967 C   0  0  0  0  0  0  0  0  0  0  0  0
  152.4465  144.0554  160.3195 N   0  3  1  0  0  0  0  0  0  0  0  0
  152.3596  143.3431  161.6244 C   0  0  0  0  0  0  0  0  0  0  0  0
  153.4205  142.2424  161.7538 C   0  0  0  0  0  0  0  0  0  0  0  0
  153.2773  141.2336  160.6114 C   0  0  0  0  0  0  0  0  0  0  0  0
  153.4190  141.9587  159.2689 C   0  0  0  0  0  0  0  0  0  0  0  0
  152.4700  143.1702  159.1300 C   0  0  1  0  0  0  0  0  0  0  0  0
  151.3871  139.6050  155.1656 N   0  0  0  0  0  0  0  0  0  0  0  0
  152.5439  139.0025  155.4499 C   0  0  0  0  0  0  0  0  0  0  0  0
  152.6360  137.7658  154.9823 N   0  0  0  0  0  0  0  0  0  0  0  0
  151.4159  137.6588  154.3774 C   0  0  0  0  0  0  0  0  0  0  0  0
  150.6246  138.7276  154.4665 N   0  0  0  0  0  0  0  0  0  0  0  0
  149.0925  142.1450  155.3508 H   0  0  0  0  0  0  0  0  0  0  0  0
  148.7597  140.4434  155.6617 H   0  0  0  0  0  0  0  0  0  0  0  0
  149.2921  140.9629  154.0666 H   0  0  0  0  0  0  0  0  0  0  0  0
  151.4926  141.6575  154.9911 H   0  0  0  0  0  0  0  0  0  0  0  0
  150.3526  143.0372  156.8563 H   0  0  0  0  0  0  0  0  0  0  0  0
  150.6562  142.0977  159.5724 H   0  0  0  0  0  0  0  0  0  0  0  0
  150.1064  144.7694  158.2863 H   0  0  0  0  0  0  0  0  0  0  0  0
  149.3438  144.0224  159.6844 H   0  0  0  0  0  0  0  0  0  0  0  0
  151.6424  145.8469  159.5812 H   0  0  0  0  0  0  0  0  0  0  0  0
  150.8286  145.2813  161.0299 H   0  0  0  0  0  0  0  0  0  0  0  0
  152.4773  144.0670  162.4316 H   0  0  0  0  0  0  0  0  0  0  0  0
  151.3678  142.9037  161.7438 H   0  0  0  0  0  0  0  0  0  0  0  0
  154.4187  142.6818  161.7429 H   0  0  0  0  0  0  0  0  0  0  0  0
  153.3142  141.7348  162.7130 H   0  0  0  0  0  0  0  0  0  0  0  0
  154.0361  140.4555  160.6986 H   0  0  0  0  0  0  0  0  0  0  0  0
  152.3101  140.7331  160.6711 H   0  0  0  0  0  0  0  0  0  0  0  0
  154.4473  142.3101  159.1735 H   0  0  0  0  0  0  0  0  0  0  0  0
  153.2645  141.2601  158.4456 H   0  0  0  0  0  0  0  0  0  0  0  0
  152.8351  143.7775  158.2988 H   0  0  0  0  0  0  0  0  0  0  0  0
  153.3320  139.4749  156.0176 H   0  0  0  0  0  0  0  0  0  0  0  0
  151.0982  136.7637  153.8626 H   0  0  0  0  0  0  0  0  0  0  0  0
  153.2964  144.6011  160.3338 H   0  0  0  0  0  0  0  0  0  0  0  0
  1  2  1  0  0  0  0
  1 20  1  0  0  0  0
  1 21  1  0  0  0  0
  1 22  1  0  0  0  0
  2  3  1  0  0  0  0
  2 15  1  0  0  0  0
  2 23  1  0  0  0  0
  3  4  2  0  0  0  0
  3  5  1  0  0  0  0
  5  6  1  0  0  0  0
  5 24  1  0  0  0  0
  6 14  1  0  0  0  0
  6  7  1  0  0  0  0
  6 25  1  0  0  0  0
  7  8  1  0  0  0  0
  7 26  1  0  0  0  0
  7 27  1  0  0  0  0
  8  9  1  0  0  0  0
  8 28  1  0  0  0  0
  8 29  1  0  0  0  0
  9 14  1  0  0  0  0
  9 10  1  0  0  0  0
  9 41  1  0  0  0  0
 10 11  1  0  0  0  0
 10 30  1  0  0  0  0
 10 31  1  0  0  0  0
 11 12  1  0  0  0  0
 11 32  1  0  0  0  0
 11 33  1  0  0  0  0
 12 13  1  0  0  0  0
 12 34  1  0  0  0  0
 12 35  1  0  0  0  0
 13 14  1  0  0  0  0
 13 36  1  0  0  0  0
 13 37  1  0  0  0  0
 14 38  1  0  0  0  0
 15 19  1  0  0  0  0
 15 16  1  0  0  0  0
 16 17  2  0  0  0  0
 16 39  1  0  0  0  0
 17 18  1  0  0  0  0
 18 19  2  0  0  0  0
 18 40  1  0  0  0  0
M  CHG  1   9   1
M  END
> <s_m_source_file>
AV-unprocessed.smi

> <i_m_source_file_index>
1406

> <i_lp_mmshare_version>
43012

> <i_f3d_flags>
0

> <s_epik_input>
bjFbY0hdbltjSF1uMVtDQEhdKFtDSDNdKUMoPU8pW05IXVtDQEhdKFtDSDJdW0NIMl0yKVtDQEBIXShOMjMpW0NIMl1bQ0gyXVtDSDJdW0NIMl0z

> <s_epik_cmdline>
J2VwaWtfcHl0aG9uJywgJy1waCcsICc3LjAnLCAnLXRuJywgJzgnLCAnLW1hJywgJzIwMCcsICctbWV0YWxfYmluZGluZycsICctaW1hZScsICc8aW5maWxlLm1hZT4nLCAnLW9tYWUnLCAnPG91dGZpbGUubWFlPic=

> <r_lp_tautomer_probability>
1

> <r_epik_Ionization_Penalty>
0.00197066

> <r_epik_Ionization_Penalty_Charging>
0.00196223

> <r_epik_Ionization_Penalty_Neutral>
8.43107e-06

> <r_epik_State_Penalty>
0.00133866

> <r_epik_Charging_Adjusted_Penalty>
0.00330089

> <i_epik_Tot_Q>
1

> <i_epik_Tot_abs_Q>
1

> <r_epik_Metal_State_Penalty>
-0

> <b_epik_Metal_Only>
0

> <s_lp_Force_Field>
OPLS_2005

> <r_lp_Energy>
42.7017

> <b_lp_Chiralities_Consistent>
1

> <s_lp_Variant>
AV-unprocessed.smi:1406-2

> <Gold.Version>
5.8.1

> <Gold.Id.Protein>
6NUR|6NUR_protein|mol2

> <Gold.PLP.Fitness>
48.3050

> <Gold.PLP.PLP>
-44.9791

> <Gold.PLP.part.hbond>
-1.0000

> <Gold.PLP.part.metal>
0.0000

> <Gold.PLP.part.buried>
-4.9773

> <Gold.PLP.part.nonpolar>
-38.4503

> <Gold.PLP.part.repulsive>
0.2670

> <Gold.PLP.ligand.clash>
0.0000

> <Gold.PLP.ligand.torsion>
0.2861

> <Gold.PLP.Chemscore.Hbond>
0.2188

> <Gold.PLP.Chemscore.CHOScore>
1.0456

> <Gold.PLP.Chemscore.Metal>
0.0000

> <Gold.Chemscore.Hbonds>
donor molecule, donor type, donor heavy atom, donor atom, acceptor molecule, acceptor atom, score
      P1  H 10752 10764       L1    17  0.14
      L1  C    18    40       P1  7949  1.00

> <Gold.PLP.Chemscore.Internal.Correction>
0.1048

> <Gold.Rescore>
     Score         DG    S(hbond)    S(metal)    S(lipo)     H(rot)  DE(clash)    DE(int)     intcor
     11.72     -14.79       0.80        0.00      97.89       1.89       0.34       2.73       ----

> <Gold.Chemscore.Fitness>
11.7168

> <Gold.Chemscore.DG>
-14.7913

> <Gold.Chemscore.ZeroCoef>
-5.4800

> <Gold.Chemscore.Hbond>
0.8046

> <Gold.Chemscore.Metal>
0.0000

> <Gold.Chemscore.Lipo>
97.8936

> <Gold.Chemscore.Internal_Hbond>
0.0000

> <Gold.Chemscore.DEClash>
0.3401

> <Gold.Chemscore.DEInternal>
2.7345

> <Gold.Chemscore.Rot>
1.8865

> <Gold.Chemscore.Internal.Correction>
   9.000000E+99

> <Gold.Chemscore.Hbonds>
donor molecule, donor type, donor heavy atom, donor atom, acceptor molecule, acceptor atom, score
      L1  H     5    24       P1  8028  0.01
      P1  H 10752 10764       L1    17  0.01

> <Gold.Chemscore.Hbond.Weighted>
-2.6873

> <Gold.Chemscore.Metal.Weighted>
-0.0000

> <Gold.Chemscore.Lipo.Weighted>
-11.4535

> <Gold.Chemscore.Internal_Hbond.Weighted>
0.0000

> <Gold.Chemscore.DEClash.Weighted>
0.3401

> <Gold.Chemscore.DEInternal.Weighted>
2.7345

> <Gold.Chemscore.Rot.Weighted>
4.8295

> <Gold.Chemscore.Internal.Correction.Weighted>
   9.000000E+99

> <Gold.Protein.RotatedTorsions>
[ 6907 6896 6895 6894 ] final  -17.45 input  -60.11 | X-H torsion
[ 7974 7965 7964 7962 ] final  -32.62 input  175.53 | X-H torsion
[ 8008 7997 7996 7995 ] final  154.27 input   59.86 | X-H torsion
[ 10167 10162 10161 10158 ] final  -83.29 input  -65.29 | X-H torsion
[ 10718 10713 10712 10709 ] final  143.79 input   66.30 | X-H torsion
[ 10763 10752 10751 10750 ] final  -53.04 input  -60.55 | X-H torsion
[ 11005 11000 10999 10996 ] final  -51.60 input  -57.11 | X-H torsion

> <Gold.Protein.ActiveResidues>
 VAL166  LYS551  ARG553  GLY616  TRP617  ASP618  TYR619  PRO620  LYS621  CYS622 
 ASP623  PHE694  ASN695  SER759  ASP760  ASP761  ALA762  ILE779  LEU786  VAL792 
 PHE793  MET794  SER795  GLU796  ALA797  LYS798  CYS799  TRP800  GLU811  SER814 

> <Gold.Protein.RotatedAtoms>
  151.2931  135.0747  159.9211 H   0  0  0  0  0  0  0  0  0  0  0  0  # atno 6907 bound_to 6896
  152.5312  133.9911  159.7861 H   0  0  0  0  0  0  0  0  0  0  0  0  # atno 6908 bound_to 6896
  151.0184  133.5848  159.2704 H   0  0  0  0  0  0  0  0  0  0  0  0  # atno 6909 bound_to 6896
  146.0976  140.5815  142.8836 H   0  0  0  0  0  0  0  0  0  0  0  0  # atno 7974 bound_to 7965
  156.2540  140.1971  156.6619 H   0  0  0  0  0  0  0  0  0  0  0  0  # atno 8008 bound_to 7997
  154.6458  140.0578  156.9923 H   0  0  0  0  0  0  0  0  0  0  0  0  # atno 8009 bound_to 7997
  155.1494  140.3250  155.4437 H   0  0  0  0  0  0  0  0  0  0  0  0  # atno 8010 bound_to 7997
  140.4240  143.2573  151.8851 H   0  0  0  0  0  0  0  0  0  0  0  0  # atno 10167 bound_to 10162
  157.3648  131.0970  151.0883 H   0  0  0  0  0  0  0  0  0  0  0  0  # atno 10718 bound_to 10713
  154.1524  135.6488  153.4966 H   0  0  0  0  0  0  0  0  0  0  0  0  # atno 10763 bound_to 10752
  153.0134  135.5341  154.6794 H   0  0  0  0  0  0  0  0  0  0  0  0  # atno 10764 bound_to 10752
  154.6086  135.2951  155.0429 H   0  0  0  0  0  0  0  0  0  0  0  0  # atno 10765 bound_to 10752
  141.0880  133.6638  156.3902 H   0  0  0  0  0  0  0  0  0  0  0  0  # atno 11005 bound_to 11000
  144.7407  140.4934  143.6871 LP  0  0  0  0  0  0  0  0  0  0  0  0  # atno 17320 bound_to 7965
  145.5918  139.1496  143.3178 LP  0  0  0  0  0  0  0  0  0  0  0  0  # atno 17321 bound_to 7965
  139.4783  144.5406  151.8533 LP  0  0  0  0  0  0  0  0  0  0  0  0  # atno 17342 bound_to 10162
  140.4502  144.1866  150.5897 LP  0  0  0  0  0  0  0  0  0  0  0  0  # atno 17343 bound_to 10162
  157.2009  130.6394  149.5738 LP  0  0  0  0  0  0  0  0  0  0  0  0  # atno 17370 bound_to 10713
  155.9744  130.4691  150.6384 LP  0  0  0  0  0  0  0  0  0  0  0  0  # atno 17371 bound_to 10713
  140.5319  134.6205  157.5352 LP  0  0  0  0  0  0  0  0  0  0  0  0  # atno 17394 bound_to 11000
  139.9701  134.7307  156.0059 LP  0  0  0  0  0  0  0  0  0  0  0  0  # atno 17395 bound_to 11000

$$$$
