AV-unprocessed.smi:3046|AV-procd|sdf|11616|dock7
  -GOLD-   2272017 03D 1   1.00000     0.00000
 Structure written by MMmdl.
 38 38  0  0  0  0  0  0  0  0  2 V2000
  148.7759  133.1778  153.1792 C   0  0  0  0  0  0  0  0  0  0  0  0
  149.1889  133.5874  154.3878 C   0  0  0  0  0  0  0  0  0  0  0  0
  148.5695  134.7305  155.1622 C   0  0  0  0  0  0  0  0  0  0  0  0
  148.9560  136.0085  154.5832 N   0  0  0  0  0  0  0  0  0  0  0  0
  148.8296  137.1888  155.2061 C   0  0  0  0  0  0  0  0  0  0  0  0
  148.3623  137.3073  156.3393 O   0  0  0  0  0  0  0  0  0  0  0  0
  149.2860  138.4292  154.4266 C   0  0  1  0  0  0  0  0  0  0  0  0
  150.8117  138.4035  154.2498 C   0  0  0  0  0  0  0  0  0  0  0  0
  148.6302  138.5165  153.1002 N   0  3  0  0  0  0  0  0  0  0  0  0
  147.2238  138.9841  153.1036 C   0  0  1  0  0  0  0  0  0  0  0  0
  147.1809  140.4871  153.4229 C   0  0  0  0  0  0  0  0  0  0  0  0
  146.5449  138.6464  151.7591 C   0  0  0  0  0  0  0  0  0  0  0  0
  145.7541  137.4309  151.8186 N   0  0  0  0  0  0  0  0  0  0  0  0
  145.9773  136.2257  151.1861 C   0  0  0  0  0  0  0  0  0  0  0  0
  144.9687  135.3821  151.5544 C   0  0  0  0  0  0  0  0  0  0  0  0
  144.1706  136.1702  152.4301 C   0  0  0  0  0  0  0  0  0  0  0  0
  144.6443  137.3957  152.5873 N   0  0  0  0  0  0  0  0  0  0  0  0
  147.9525  133.6605  152.6732 H   0  0  0  0  0  0  0  0  0  0  0  0
  149.2584  132.3509  152.6791 H   0  0  0  0  0  0  0  0  0  0  0  0
  150.0136  133.0762  154.8631 H   0  0  0  0  0  0  0  0  0  0  0  0
  147.4822  134.6385  155.1676 H   0  0  0  0  0  0  0  0  0  0  0  0
  148.9097  134.6765  156.1974 H   0  0  0  0  0  0  0  0  0  0  0  0
  149.3405  135.9922  153.6494 H   0  0  0  0  0  0  0  0  0  0  0  0
  149.0338  139.3275  154.9933 H   0  0  0  0  0  0  0  0  0  0  0  0
  151.3216  138.3738  155.2137 H   0  0  0  0  0  0  0  0  0  0  0  0
  151.1599  139.2941  153.7253 H   0  0  0  0  0  0  0  0  0  0  0  0
  151.1360  137.5343  153.6757 H   0  0  0  0  0  0  0  0  0  0  0  0
  149.1610  139.1743  152.5475 H   0  0  0  0  0  0  0  0  0  0  0  0
  146.6809  138.4708  153.8991 H   0  0  0  0  0  0  0  0  0  0  0  0
  146.1559  140.8485  153.5100 H   0  0  0  0  0  0  0  0  0  0  0  0
  147.6754  141.0723  152.6469 H   0  0  0  0  0  0  0  0  0  0  0  0
  147.6792  140.7000  154.3692 H   0  0  0  0  0  0  0  0  0  0  0  0
  145.8974  139.4660  151.4449 H   0  0  0  0  0  0  0  0  0  0  0  0
  147.2889  138.5208  150.9721 H   0  0  0  0  0  0  0  0  0  0  0  0
  146.8232  136.0700  150.5328 H   0  0  0  0  0  0  0  0  0  0  0  0
  144.8241  134.3569  151.2473 H   0  0  0  0  0  0  0  0  0  0  0  0
  143.2680  135.8902  152.9530 H   0  0  0  0  0  0  0  0  0  0  0  0
  148.6792  137.6122  152.6525 H   0  0  0  0  0  0  0  0  0  0  0  0
  1  2  2  0  0  0  0
  1 18  1  0  0  0  0
  1 19  1  0  0  0  0
  2  3  1  0  0  0  0
  2 20  1  0  0  0  0
  3  4  1  0  0  0  0
  3 21  1  0  0  0  0
  3 22  1  0  0  0  0
  4  5  1  0  0  0  0
  4 23  1  0  0  0  0
  5  6  2  0  0  0  0
  5  7  1  0  0  0  0
  7  8  1  0  0  0  0
  7  9  1  0  0  0  0
  7 24  1  0  0  0  0
  8 25  1  0  0  0  0
  8 26  1  0  0  0  0
  8 27  1  0  0  0  0
  9 10  1  0  0  0  0
  9 28  1  0  0  0  0
  9 38  1  0  0  0  0
 10 11  1  0  0  0  0
 10 12  1  0  0  0  0
 10 29  1  0  0  0  0
 11 30  1  0  0  0  0
 11 31  1  0  0  0  0
 11 32  1  0  0  0  0
 12 13  1  0  0  0  0
 12 33  1  0  0  0  0
 12 34  1  0  0  0  0
 13 17  1  0  0  0  0
 13 14  1  0  0  0  0
 14 15  2  0  0  0  0
 14 35  1  0  0  0  0
 15 16  1  0  0  0  0
 15 36  1  0  0  0  0
 16 17  2  0  0  0  0
 16 37  1  0  0  0  0
M  CHG  1   9   1
M  END
> <s_m_source_file>
AV-unprocessed.smi

> <i_m_source_file_index>
3046

> <i_lp_mmshare_version>
43012

> <i_f3d_flags>
0

> <s_epik_input>
W0NIMl09W0NIXVtDSDJdW05IXUMoPU8pW0NASF0oW0NIM10pW05IXVtDQEhdKFtDSDNdKVtDSDJdbjFbY0hdW2NIXVtjSF1uMQ==

> <s_epik_cmdline>
J2VwaWtfcHl0aG9uJywgJy1waCcsICc3LjAnLCAnLXRuJywgJzgnLCAnLW1hJywgJzIwMCcsICctbWV0YWxfYmluZGluZycsICctaW1hZScsICc8aW5maWxlLm1hZT4nLCAnLW9tYWUnLCAnPG91dGZpbGUubWFlPic=

> <r_lp_tautomer_probability>
1

> <r_epik_Ionization_Penalty>
0.132961

> <r_epik_Ionization_Penalty_Charging>
0.132956

> <r_epik_Ionization_Penalty_Neutral>
5.00268e-06

> <r_epik_State_Penalty>
0.122332

> <r_epik_Charging_Adjusted_Penalty>
0.255288

> <i_epik_Tot_Q>
1

> <i_epik_Tot_abs_Q>
1

> <r_epik_Metal_State_Penalty>
0.122338

> <b_epik_Metal_Only>
0

> <s_lp_Force_Field>
OPLS_2005

> <r_lp_Energy>
6.90886

> <b_lp_Chiralities_Consistent>
1

> <s_lp_Variant>
AV-unprocessed.smi:3046-4

> <Gold.Version>
5.8.1

> <Gold.Id.Protein>
6NUR|6NUR_protein|mol2

> <Gold.PLP.Fitness>
43.4107

> <Gold.PLP.PLP>
-31.7559

> <Gold.PLP.part.hbond>
-3.0000

> <Gold.PLP.part.metal>
0.0000

> <Gold.PLP.part.buried>
-0.8785

> <Gold.PLP.part.nonpolar>
-29.4260

> <Gold.PLP.part.repulsive>
0.7651

> <Gold.PLP.ligand.clash>
0.0000

> <Gold.PLP.ligand.torsion>
1.1278

> <Gold.PLP.Chemscore.Hbond>
3.9760

> <Gold.PLP.Chemscore.CHOScore>
0.6349

> <Gold.PLP.Chemscore.Metal>
0.0000

> <Gold.Chemscore.Hbonds>
donor molecule, donor type, donor heavy atom, donor atom, acceptor molecule, acceptor atom, score
      L1  H     4    23       P1  7948  0.93
      L1  H     9    28       P1  7957  1.00
      L1  H     9    38       P1  7948  2.00
      L1  C    14    35       P1  7948  0.62

> <Gold.PLP.Chemscore.Internal.Correction>
0.0775

> <Gold.Rescore>
     Score         DG    S(hbond)    S(metal)    S(lipo)     H(rot)  DE(clash)    DE(int)     intcor
     16.28     -17.38       2.92        0.00      67.93       2.26       0.09       1.00       ----

> <Gold.Chemscore.Fitness>
16.2828

> <Gold.Chemscore.DG>
-17.3768

> <Gold.Chemscore.ZeroCoef>
-5.4800

> <Gold.Chemscore.Hbond>
2.9166

> <Gold.Chemscore.Metal>
0.0000

> <Gold.Chemscore.Lipo>
67.9280

> <Gold.Chemscore.Internal_Hbond>
0.0000

> <Gold.Chemscore.DEClash>
0.0947

> <Gold.Chemscore.DEInternal>
0.9993

> <Gold.Chemscore.Rot>
2.2626

> <Gold.Chemscore.Internal.Correction>
   9.000000E+99

> <Gold.Chemscore.Hbonds>
donor molecule, donor type, donor heavy atom, donor atom, acceptor molecule, acceptor atom, score
      L1  H     4    23       P1  7948  0.63
      L1  H     9    28       P1  7957  0.98
      L1  H     9    38       P1  7948  0.98

> <Gold.Chemscore.Hbond.Weighted>
-9.7414

> <Gold.Chemscore.Metal.Weighted>
-0.0000

> <Gold.Chemscore.Lipo.Weighted>
-7.9476

> <Gold.Chemscore.Internal_Hbond.Weighted>
0.0000

> <Gold.Chemscore.DEClash.Weighted>
0.0947

> <Gold.Chemscore.DEInternal.Weighted>
0.9993

> <Gold.Chemscore.Rot.Weighted>
5.7922

> <Gold.Chemscore.Internal.Correction.Weighted>
   9.000000E+99

> <Gold.Protein.RotatedTorsions>
[ 6907 6896 6895 6894 ] final  -22.39 input  -60.11 | X-H torsion
[ 7974 7965 7964 7962 ] final   67.23 input  175.53 | X-H torsion
[ 8008 7997 7996 7995 ] final    6.25 input   59.86 | X-H torsion
[ 10167 10162 10161 10158 ] final -153.54 input  -65.29 | X-H torsion
[ 10718 10713 10712 10709 ] final  -39.50 input   66.30 | X-H torsion
[ 10763 10752 10751 10750 ] final  -18.18 input  -60.55 | X-H torsion
[ 11005 11000 10999 10996 ] final  -53.84 input  -57.11 | X-H torsion

> <Gold.Protein.ActiveResidues>
 VAL166  LYS551  ARG553  GLY616  TRP617  ASP618  TYR619  PRO620  LYS621  CYS622 
 ASP623  PHE694  ASN695  SER759  ASP760  ASP761  ALA762  ILE779  LEU786  VAL792 
 PHE793  MET794  SER795  GLU796  ALA797  LYS798  CYS799  TRP800  GLU811  SER814 

> <Gold.Protein.RotatedAtoms>
  151.2193  135.0512  159.8942 H   0  0  0  0  0  0  0  0  0  0  0  0  # atno 6907 bound_to 6896
  152.5417  134.0658  159.8182 H   0  0  0  0  0  0  0  0  0  0  0  0  # atno 6908 bound_to 6896
  151.0822  133.5333  159.2651 H   0  0  0  0  0  0  0  0  0  0  0  0  # atno 6909 bound_to 6896
  145.8172  139.3064  143.1064 H   0  0  0  0  0  0  0  0  0  0  0  0  # atno 7974 bound_to 7965
  154.7387  140.2744  155.6392 H   0  0  0  0  0  0  0  0  0  0  0  0  # atno 8008 bound_to 7997
  156.2868  140.2701  156.2034 H   0  0  0  0  0  0  0  0  0  0  0  0  # atno 8009 bound_to 7997
  155.0287  140.0371  157.2455 H   0  0  0  0  0  0  0  0  0  0  0  0  # atno 8010 bound_to 7997
  139.7088  143.9142  152.2459 H   0  0  0  0  0  0  0  0  0  0  0  0  # atno 10167 bound_to 10162
  156.2917  130.4229  149.8231 H   0  0  0  0  0  0  0  0  0  0  0  0  # atno 10718 bound_to 10713
  153.5853  135.7004  153.5446 H   0  0  0  0  0  0  0  0  0  0  0  0  # atno 10763 bound_to 10752
  153.3225  135.4070  155.1429 H   0  0  0  0  0  0  0  0  0  0  0  0  # atno 10764 bound_to 10752
  154.8610  135.3699  154.5382 H   0  0  0  0  0  0  0  0  0  0  0  0  # atno 10765 bound_to 10752
  141.0996  133.6620  156.4232 H   0  0  0  0  0  0  0  0  0  0  0  0  # atno 11005 bound_to 11000
  145.9714  140.8757  143.0160 LP  0  0  0  0  0  0  0  0  0  0  0  0  # atno 17320 bound_to 7965
  144.6751  140.1951  143.7393 LP  0  0  0  0  0  0  0  0  0  0  0  0  # atno 17321 bound_to 7965
  139.9005  144.6914  150.8670 LP  0  0  0  0  0  0  0  0  0  0  0  0  # atno 17342 bound_to 10162
  140.7728  143.3517  151.2001 LP  0  0  0  0  0  0  0  0  0  0  0  0  # atno 17343 bound_to 10162
  156.5642  130.8396  151.3337 LP  0  0  0  0  0  0  0  0  0  0  0  0  # atno 17370 bound_to 10713
  157.7344  130.9746  150.2028 LP  0  0  0  0  0  0  0  0  0  0  0  0  # atno 17371 bound_to 10713
  140.5054  134.6445  157.5264 LP  0  0  0  0  0  0  0  0  0  0  0  0  # atno 17394 bound_to 11000
  139.9843  134.7086  155.9802 LP  0  0  0  0  0  0  0  0  0  0  0  0  # atno 17395 bound_to 11000

$$$$
