AV-unprocessed.smi:3269|AV-procd|sdf|12511|dock8
  -GOLD-   2272018423D 1   1.00000     0.00000
 Structure written by MMmdl.
 39 40  0  0  0  0  0  0  0  0  1 V2000
  152.4386  138.7879  155.2962 C   0  0  0  0  0  0  0  0  0  0  0  0
  151.1863  139.5922  155.4985 C   0  0  0  0  0  0  0  0  0  0  0  0
  150.6120  140.1736  154.4586 N   0  0  0  0  0  0  0  0  0  0  0  0
  149.5280  140.7935  154.9662 N   0  0  0  0  0  0  0  0  0  0  0  0
  148.6504  141.5325  154.0796 C   0  0  0  0  0  0  0  0  0  0  0  0
  149.4203  140.6084  156.3307 C   0  0  0  0  0  0  0  0  0  0  0  0
  148.2962  141.1917  157.1251 C   0  0  0  0  0  0  0  0  0  0  0  0
  150.4813  139.8309  156.7146 C   0  0  0  0  0  0  0  0  0  0  0  0
  150.8334  139.3212  158.0895 C   0  0  0  0  0  0  0  0  0  0  0  0
  152.1447  139.9626  158.5411 C   0  0  0  0  0  0  0  0  0  0  0  0
  153.2015  139.6640  157.9847 O   0  0  0  0  0  0  0  0  0  0  0  0
  152.0650  140.8153  159.5735 N   0  0  0  0  0  0  0  0  0  0  0  0
  153.2038  141.4133  160.2576 C   0  0  0  0  0  0  0  0  0  0  0  0
  153.1026  142.9472  160.2448 C   0  0  1  0  0  0  0  0  0  0  0  0
  153.0524  143.5595  158.8470 C   0  0  0  0  0  0  0  0  0  0  0  0
  152.3127  144.8727  159.0591 C   0  0  0  0  0  0  0  0  0  0  0  0
  151.7065  144.7419  160.4598 C   0  0  0  0  0  0  0  0  0  0  0  0
  151.8714  143.3750  160.8057 O   0  0  0  0  0  0  0  0  0  0  0  0
  152.3439  137.8007  155.7488 H   0  0  0  0  0  0  0  0  0  0  0  0
  153.2959  139.2818  155.7535 H   0  0  0  0  0  0  0  0  0  0  0  0
  152.6627  138.6453  154.2384 H   0  0  0  0  0  0  0  0  0  0  0  0
  148.6071  142.5761  154.3921 H   0  0  0  0  0  0  0  0  0  0  0  0
  147.6479  141.1059  154.1183 H   0  0  0  0  0  0  0  0  0  0  0  0
  149.0133  141.4875  153.0517 H   0  0  0  0  0  0  0  0  0  0  0  0
  148.4556  141.0589  158.1948 H   0  0  0  0  0  0  0  0  0  0  0  0
  147.3523  140.7123  156.8657 H   0  0  0  0  0  0  0  0  0  0  0  0
  148.1978  142.2605  156.9353 H   0  0  0  0  0  0  0  0  0  0  0  0
  150.0575  139.5625  158.8167 H   0  0  0  0  0  0  0  0  0  0  0  0
  150.9283  138.2346  158.1011 H   0  0  0  0  0  0  0  0  0  0  0  0
  151.1529  141.0010  159.9645 H   0  0  0  0  0  0  0  0  0  0  0  0
  153.2642  141.0434  161.2825 H   0  0  0  0  0  0  0  0  0  0  0  0
  154.1163  141.0909  159.7554 H   0  0  0  0  0  0  0  0  0  0  0  0
  153.9243  143.3923  160.8100 H   0  0  0  0  0  0  0  0  0  0  0  0
  154.0439  143.6954  158.4137 H   0  0  0  0  0  0  0  0  0  0  0  0
  152.4764  142.9216  158.1749 H   0  0  0  0  0  0  0  0  0  0  0  0
  152.9879  145.7277  159.0101 H   0  0  0  0  0  0  0  0  0  0  0  0
  151.5424  145.0090  158.2994 H   0  0  0  0  0  0  0  0  0  0  0  0
  152.2531  145.3594  161.1744 H   0  0  0  0  0  0  0  0  0  0  0  0
  150.6564  145.0327  160.4924 H   0  0  0  0  0  0  0  0  0  0  0  0
  1  2  1  0  0  0  0
  1 19  1  0  0  0  0
  1 20  1  0  0  0  0
  1 21  1  0  0  0  0
  2  8  1  0  0  0  0
  2  3  2  0  0  0  0
  3  4  1  0  0  0  0
  4  5  1  0  0  0  0
  4  6  1  0  0  0  0
  5 22  1  0  0  0  0
  5 23  1  0  0  0  0
  5 24  1  0  0  0  0
  6  7  1  0  0  0  0
  6  8  2  0  0  0  0
  7 25  1  0  0  0  0
  7 26  1  0  0  0  0
  7 27  1  0  0  0  0
  8  9  1  0  0  0  0
  9 10  1  0  0  0  0
  9 28  1  0  0  0  0
  9 29  1  0  0  0  0
 10 11  2  0  0  0  0
 10 12  1  0  0  0  0
 12 13  1  0  0  0  0
 12 30  1  0  0  0  0
 13 14  1  0  0  0  0
 13 31  1  0  0  0  0
 13 32  1  0  0  0  0
 14 18  1  0  0  0  0
 14 15  1  0  0  0  0
 14 33  1  0  0  0  0
 15 16  1  0  0  0  0
 15 34  1  0  0  0  0
 15 35  1  0  0  0  0
 16 17  1  0  0  0  0
 16 36  1  0  0  0  0
 16 37  1  0  0  0  0
 17 18  1  0  0  0  0
 17 38  1  0  0  0  0
 17 39  1  0  0  0  0
M  END
> <s_m_source_file>
AV-unprocessed.smi

> <i_m_source_file_index>
3269

> <i_lp_mmshare_version>
43012

> <i_f3d_flags>
0

> <s_epik_input>
W0NIM11jMW5uKFtDSDNdKWMoW0NIM10pYzFbQ0gyXUMoPU8pW05IXVtDSDJdW0NAQEhdMltDSDJdW0NIMl1bQ0gyXU8y

> <s_epik_cmdline>
J2VwaWtfcHl0aG9uJywgJy1waCcsICc3LjAnLCAnLXRuJywgJzgnLCAnLW1hJywgJzIwMCcsICctbWV0YWxfYmluZGluZycsICctaW1hZScsICc8aW5maWxlLm1hZT4nLCAnLW9tYWUnLCAnPG91dGZpbGUubWFlPic=

> <r_lp_tautomer_probability>
1

> <r_epik_Ionization_Penalty>
0.00306713

> <r_epik_Ionization_Penalty_Charging>
0

> <r_epik_Ionization_Penalty_Neutral>
0.00306713

> <r_epik_State_Penalty>
0.00215672

> <r_epik_Charging_Adjusted_Penalty>
0.00215672

> <i_epik_Tot_Q>
0

> <i_epik_Tot_abs_Q>
0

> <r_epik_Metal_State_Penalty>
-0

> <b_epik_Metal_Only>
0

> <s_lp_Force_Field>
OPLS_2005

> <r_lp_Energy>
10.8306

> <b_lp_Chiralities_Consistent>
1

> <s_lp_Variant>
AV-unprocessed.smi:3269-2

> <Gold.Version>
5.8.1

> <Gold.Id.Protein>
6NUR|6NUR_protein|mol2

> <Gold.PLP.Fitness>
47.4718

> <Gold.PLP.PLP>
-41.6832

> <Gold.PLP.part.hbond>
-2.0232

> <Gold.PLP.part.metal>
0.0000

> <Gold.PLP.part.buried>
-4.6032

> <Gold.PLP.part.nonpolar>
-35.5966

> <Gold.PLP.part.repulsive>
0.3567

> <Gold.PLP.ligand.clash>
0.0000

> <Gold.PLP.ligand.torsion>
0.1126

> <Gold.PLP.Chemscore.Hbond>
2.0000

> <Gold.PLP.Chemscore.CHOScore>
0.0000

> <Gold.PLP.Chemscore.Metal>
0.0000

> <Gold.Chemscore.Hbonds>
donor molecule, donor type, donor heavy atom, donor atom, acceptor molecule, acceptor atom, score
      P1  H  7989  7998       L1     3  1.00
      P1  H  7997  8009       L1    11  1.00

> <Gold.PLP.Chemscore.Internal.Correction>
0.0139

> <Gold.Rescore>
     Score         DG    S(hbond)    S(metal)    S(lipo)     H(rot)  DE(clash)    DE(int)     intcor
     19.07     -19.32       1.82        0.00      99.05       1.50       0.03       0.22       ----

> <Gold.Chemscore.Fitness>
19.0712

> <Gold.Chemscore.DG>
-19.3174

> <Gold.Chemscore.ZeroCoef>
-5.4800

> <Gold.Chemscore.Hbond>
1.8222

> <Gold.Chemscore.Metal>
0.0000

> <Gold.Chemscore.Lipo>
99.0464

> <Gold.Chemscore.Internal_Hbond>
0.0000

> <Gold.Chemscore.DEClash>
0.0278

> <Gold.Chemscore.DEInternal>
0.2184

> <Gold.Chemscore.Rot>
1.4989

> <Gold.Chemscore.Internal.Correction>
   9.000000E+99

> <Gold.Chemscore.Hbonds>
donor molecule, donor type, donor heavy atom, donor atom, acceptor molecule, acceptor atom, score
      P1  H  7989  7998       L1     3  0.84
      P1  H  7997  8009       L1    11  1.00

> <Gold.Chemscore.Hbond.Weighted>
-6.0861

> <Gold.Chemscore.Metal.Weighted>
-0.0000

> <Gold.Chemscore.Lipo.Weighted>
-11.5884

> <Gold.Chemscore.Internal_Hbond.Weighted>
0.0000

> <Gold.Chemscore.DEClash.Weighted>
0.0278

> <Gold.Chemscore.DEInternal.Weighted>
0.2184

> <Gold.Chemscore.Rot.Weighted>
3.8371

> <Gold.Chemscore.Internal.Correction.Weighted>
   9.000000E+99

> <Gold.Protein.RotatedTorsions>
[ 6907 6896 6895 6894 ] final    7.54 input  -60.11 | X-H torsion
[ 7974 7965 7964 7962 ] final -102.16 input  175.53 | X-H torsion
[ 8008 7997 7996 7995 ] final  166.02 input   59.86 | X-H torsion
[ 10167 10162 10161 10158 ] final -127.03 input  -65.29 | X-H torsion
[ 10718 10713 10712 10709 ] final  -83.49 input   66.30 | X-H torsion
[ 10763 10752 10751 10750 ] final   39.56 input  -60.55 | X-H torsion
[ 11005 11000 10999 10996 ] final   30.33 input  -57.11 | X-H torsion

> <Gold.Protein.ActiveResidues>
 VAL166  LYS551  ARG553  GLY616  TRP617  ASP618  TYR619  PRO620  LYS621  CYS622 
 ASP623  PHE694  ASN695  SER759  ASP760  ASP761  ALA762  ILE779  LEU786  VAL792 
 PHE793  MET794  SER795  GLU796  ALA797  LYS798  CYS799  TRP800  GLU811  SER814 

> <Gold.Protein.RotatedAtoms>
  151.6915  135.0945  160.0234 H   0  0  0  0  0  0  0  0  0  0  0  0  # atno 6907 bound_to 6896
  152.3776  133.6498  159.6144 H   0  0  0  0  0  0  0  0  0  0  0  0  # atno 6908 bound_to 6896
  150.7721  133.9084  159.3403 H   0  0  0  0  0  0  0  0  0  0  0  0  # atno 6909 bound_to 6896
  145.2723  140.9302  143.2979 H   0  0  0  0  0  0  0  0  0  0  0  0  # atno 7974 bound_to 7965
  156.1753  140.1654  156.8374 H   0  0  0  0  0  0  0  0  0  0  0  0  # atno 8008 bound_to 7997
  154.5300  140.0759  156.8361 H   0  0  0  0  0  0  0  0  0  0  0  0  # atno 8009 bound_to 7997
  155.3427  140.3385  155.4241 H   0  0  0  0  0  0  0  0  0  0  0  0  # atno 8010 bound_to 7997
  139.9652  143.5906  152.2431 H   0  0  0  0  0  0  0  0  0  0  0  0  # atno 10167 bound_to 10162
  156.0018  130.4667  150.4266 H   0  0  0  0  0  0  0  0  0  0  0  0  # atno 10718 bound_to 10713
  152.9963  135.6217  154.2485 H   0  0  0  0  0  0  0  0  0  0  0  0  # atno 10763 bound_to 10752
  154.2224  135.2795  155.2921 H   0  0  0  0  0  0  0  0  0  0  0  0  # atno 10764 bound_to 10752
  154.5517  135.5731  153.6987 H   0  0  0  0  0  0  0  0  0  0  0  0  # atno 10765 bound_to 10752
  140.2955  134.2816  155.7766 H   0  0  0  0  0  0  0  0  0  0  0  0  # atno 11005 bound_to 11000
  144.9324  139.4283  143.6488 LP  0  0  0  0  0  0  0  0  0  0  0  0  # atno 17320 bound_to 7965
  146.3242  139.8242  142.8921 LP  0  0  0  0  0  0  0  0  0  0  0  0  # atno 17321 bound_to 7965
  139.6523  144.7661  151.2124 LP  0  0  0  0  0  0  0  0  0  0  0  0  # atno 17342 bound_to 10162
  140.7540  143.6141  150.8577 LP  0  0  0  0  0  0  0  0  0  0  0  0  # atno 17343 bound_to 10162
  157.2318  131.0506  151.2488 LP  0  0  0  0  0  0  0  0  0  0  0  0  # atno 17370 bound_to 10713
  157.3704  130.7178  149.6561 LP  0  0  0  0  0  0  0  0  0  0  0  0  # atno 17371 bound_to 10713
  141.2138  133.7612  156.9688 LP  0  0  0  0  0  0  0  0  0  0  0  0  # atno 17394 bound_to 11000
  140.1157  134.9449  157.2130 LP  0  0  0  0  0  0  0  0  0  0  0  0  # atno 17395 bound_to 11000

$$$$
