AV-unprocessed.smi:2839|AV-procd|sdf|10930|dock8
  -GOLD-   2272015373D 1   1.00000     0.00000
 Structure written by MMmdl.
 32 33  0  0  0  0  0  0  0  0  1 V2000
  146.9230  142.2796  154.4035 C   0  0  0  0  0  0  0  0  0  0  0  0
  148.0955  141.5873  154.9225 N   0  0  0  0  0  0  0  0  0  0  0  0
  149.1793  141.2460  154.1466 C   0  0  0  0  0  0  0  0  0  0  0  0
  150.0819  140.6287  154.8292 N   0  0  0  0  0  0  0  0  0  0  0  0
  149.5421  140.5835  156.0762 N   0  0  0  0  0  0  0  0  0  0  0  0
  150.2970  139.9575  157.1632 C   0  0  0  0  0  0  0  0  0  0  0  0
  151.5052  140.7864  157.6200 C   0  0  0  0  0  0  0  0  0  0  0  0
  152.6373  140.3008  157.6379 O   0  0  0  0  0  0  0  0  0  0  0  0
  151.2405  142.0444  158.0035 N   0  0  0  0  0  0  0  0  0  0  0  0
  152.2341  143.0061  158.4738 C   0  0  0  0  0  0  0  0  0  0  0  0
  152.1590  143.1678  160.0045 C   0  0  0  0  0  0  0  0  0  0  0  0
  152.1267  144.6737  160.2718 C   0  0  0  0  0  0  0  0  0  0  0  0
  151.4580  145.2630  159.0341 C   0  0  0  0  0  0  0  0  0  0  0  0
  151.9865  144.4083  157.8821 C   0  0  0  0  0  0  0  0  0  0  0  0
  148.3308  141.1525  156.1555 C   0  0  0  0  0  0  0  0  0  0  0  0
  147.6025  141.2490  157.1430 O   0  0  0  0  0  0  0  0  0  0  0  0
  147.1453  142.8132  153.4782 H   0  0  0  0  0  0  0  0  0  0  0  0
  146.5547  143.0080  155.1271 H   0  0  0  0  0  0  0  0  0  0  0  0
  146.1235  141.5659  154.2024 H   0  0  0  0  0  0  0  0  0  0  0  0
  149.1901  141.5053  153.0866 H   0  0  0  0  0  0  0  0  0  0  0  0
  149.6288  139.7953  158.0106 H   0  0  0  0  0  0  0  0  0  0  0  0
  150.6489  138.9721  156.8540 H   0  0  0  0  0  0  0  0  0  0  0  0
  150.2829  142.3617  157.9618 H   0  0  0  0  0  0  0  0  0  0  0  0
  153.2329  142.6650  158.1946 H   0  0  0  0  0  0  0  0  0  0  0  0
  151.2442  142.7195  160.3955 H   0  0  0  0  0  0  0  0  0  0  0  0
  152.9945  142.6833  160.5106 H   0  0  0  0  0  0  0  0  0  0  0  0
  151.6020  144.9261  161.1936 H   0  0  0  0  0  0  0  0  0  0  0  0
  153.1454  145.0550  160.3532 H   0  0  0  0  0  0  0  0  0  0  0  0
  150.3758  145.1480  159.1108 H   0  0  0  0  0  0  0  0  0  0  0  0
  151.6737  146.3237  158.9035 H   0  0  0  0  0  0  0  0  0  0  0  0
  152.9339  144.8216  157.5341 H   0  0  0  0  0  0  0  0  0  0  0  0
  151.3065  144.4087  157.0289 H   0  0  0  0  0  0  0  0  0  0  0  0
  1  2  1  0  0  0  0
  1 17  1  0  0  0  0
  1 18  1  0  0  0  0
  1 19  1  0  0  0  0
  2 15  1  0  0  0  0
  2  3  1  0  0  0  0
  3  4  2  0  0  0  0
  3 20  1  0  0  0  0
  4  5  1  0  0  0  0
  5  6  1  0  0  0  0
  5 15  1  0  0  0  0
  6  7  1  0  0  0  0
  6 21  1  0  0  0  0
  6 22  1  0  0  0  0
  7  8  2  0  0  0  0
  7  9  1  0  0  0  0
  9 10  1  0  0  0  0
  9 23  1  0  0  0  0
 10 14  1  0  0  0  0
 10 11  1  0  0  0  0
 10 24  1  0  0  0  0
 11 12  1  0  0  0  0
 11 25  1  0  0  0  0
 11 26  1  0  0  0  0
 12 13  1  0  0  0  0
 12 27  1  0  0  0  0
 12 28  1  0  0  0  0
 13 14  1  0  0  0  0
 13 29  1  0  0  0  0
 13 30  1  0  0  0  0
 14 31  1  0  0  0  0
 14 32  1  0  0  0  0
 15 16  2  0  0  0  0
M  END
> <s_m_source_file>
AV-unprocessed.smi

> <i_m_source_file_index>
2839

> <i_lp_mmshare_version>
43012

> <i_f3d_flags>
0

> <s_epik_input>
W0NIM11uMVtjSF1ubihjMT1PKVtDSDJdQyg9TylbTkhdW0NIXTJbQ0gyXVtDSDJdW0NIMl1bQ0gyXTI=

> <s_epik_cmdline>
J2VwaWtfcHl0aG9uJywgJy1waCcsICc3LjAnLCAnLXRuJywgJzgnLCAnLW1hJywgJzIwMCcsICctbWV0YWxfYmluZGluZycsICctaW1hZScsICc8aW5maWxlLm1hZT4nLCAnLW9tYWUnLCAnPG91dGZpbGUubWFlPic=

> <r_lp_tautomer_probability>
1

> <r_epik_Ionization_Penalty>
1.58668e-07

> <r_epik_Ionization_Penalty_Charging>
8.23952e-09

> <r_epik_Ionization_Penalty_Neutral>
1.50429e-07

> <r_epik_State_Penalty>
-0

> <r_epik_Charging_Adjusted_Penalty>
8.23952e-09

> <i_epik_Tot_Q>
0

> <i_epik_Tot_abs_Q>
0

> <r_epik_Metal_State_Penalty>
-0

> <b_epik_Metal_Only>
0

> <s_lp_Force_Field>
OPLS_2005

> <r_lp_Energy>
35.3478

> <b_lp_Chiralities_Consistent>
1

> <s_lp_Variant>
AV-unprocessed.smi:2839-1

> <Gold.Version>
5.8.1

> <Gold.Id.Protein>
6NUR|6NUR_protein|mol2

> <Gold.PLP.Fitness>
41.8677

> <Gold.PLP.PLP>
-34.5202

> <Gold.PLP.part.hbond>
-2.0000

> <Gold.PLP.part.metal>
0.0000

> <Gold.PLP.part.buried>
-1.3694

> <Gold.PLP.part.nonpolar>
-30.3744

> <Gold.PLP.part.repulsive>
0.2197

> <Gold.PLP.ligand.clash>
0.0000

> <Gold.PLP.ligand.torsion>
0.3692

> <Gold.PLP.Chemscore.Hbond>
1.7080

> <Gold.PLP.Chemscore.CHOScore>
0.9860

> <Gold.PLP.Chemscore.Metal>
0.0000

> <Gold.Chemscore.Hbonds>
donor molecule, donor type, donor heavy atom, donor atom, acceptor molecule, acceptor atom, score
      P1  H  7989  7998       L1     4  0.70
      P1  H  7997  8008       L1     8  0.96
      L1  C     3    20       P1  7957  0.99

> <Gold.PLP.Chemscore.Internal.Correction>
0.0038

> <Gold.Rescore>
     Score         DG    S(hbond)    S(metal)    S(lipo)     H(rot)  DE(clash)    DE(int)     intcor
     13.56     -13.82       1.29        0.00      72.14       1.72       0.01       0.25       ----

> <Gold.Chemscore.Fitness>
13.5617

> <Gold.Chemscore.DG>
-13.8204

> <Gold.Chemscore.ZeroCoef>
-5.4800

> <Gold.Chemscore.Hbond>
1.2884

> <Gold.Chemscore.Metal>
0.0000

> <Gold.Chemscore.Lipo>
72.1407

> <Gold.Chemscore.Internal_Hbond>
0.0000

> <Gold.Chemscore.DEClash>
0.0128

> <Gold.Chemscore.DEInternal>
0.2459

> <Gold.Chemscore.Rot>
1.7201

> <Gold.Chemscore.Internal.Correction>
   9.000000E+99

> <Gold.Chemscore.Hbonds>
donor molecule, donor type, donor heavy atom, donor atom, acceptor molecule, acceptor atom, score
      P1  H  7989  7998       L1     4  0.11
      P1  H  7997  8008       L1     8  0.89

> <Gold.Chemscore.Hbond.Weighted>
-4.3033

> <Gold.Chemscore.Metal.Weighted>
-0.0000

> <Gold.Chemscore.Lipo.Weighted>
-8.4405

> <Gold.Chemscore.Internal_Hbond.Weighted>
0.0000

> <Gold.Chemscore.DEClash.Weighted>
0.0128

> <Gold.Chemscore.DEInternal.Weighted>
0.2459

> <Gold.Chemscore.Rot.Weighted>
4.4033

> <Gold.Chemscore.Internal.Correction.Weighted>
   9.000000E+99

> <Gold.Protein.RotatedTorsions>
[ 6907 6896 6895 6894 ] final -102.77 input  -60.11 | X-H torsion
[ 7974 7965 7964 7962 ] final   30.25 input  175.53 | X-H torsion
[ 8008 7997 7996 7995 ] final  -68.22 input   59.86 | X-H torsion
[ 10167 10162 10161 10158 ] final  106.64 input  -65.29 | X-H torsion
[ 10718 10713 10712 10709 ] final   29.31 input   66.30 | X-H torsion
[ 10763 10752 10751 10750 ] final -165.33 input  -60.55 | X-H torsion
[ 11005 11000 10999 10996 ] final -139.73 input  -57.11 | X-H torsion

> <Gold.Protein.ActiveResidues>
 VAL166  LYS551  ARG553  GLY616  TRP617  ASP618  TYR619  PRO620  LYS621  CYS622 
 ASP623  PHE694  ASN695  SER759  ASP760  ASP761  ALA762  ILE779  LEU786  VAL792 
 PHE793  MET794  SER795  GLU796  ALA797  LYS798  CYS799  TRP800  GLU811  SER814 

> <Gold.Protein.RotatedAtoms>
  150.7210  134.0531  159.3804 H   0  0  0  0  0  0  0  0  0  0  0  0  # atno 6907 bound_to 6896
  151.8508  135.0556  160.0468 H   0  0  0  0  0  0  0  0  0  0  0  0  # atno 6908 bound_to 6896
  152.2792  133.5418  159.5523 H   0  0  0  0  0  0  0  0  0  0  0  0  # atno 6909 bound_to 6896
  146.1623  139.6814  142.9025 H   0  0  0  0  0  0  0  0  0  0  0  0  # atno 7974 bound_to 7965
  154.4853  140.0877  156.7471 H   0  0  0  0  0  0  0  0  0  0  0  0  # atno 8008 bound_to 7997
  155.4367  140.3452  155.4267 H   0  0  0  0  0  0  0  0  0  0  0  0  # atno 8009 bound_to 7997
  156.1251  140.1485  156.9135 H   0  0  0  0  0  0  0  0  0  0  0  0  # atno 8010 bound_to 7997
  139.6992  144.7097  151.1214 H   0  0  0  0  0  0  0  0  0  0  0  0  # atno 10167 bound_to 10162
  157.2449  130.7087  149.6376 H   0  0  0  0  0  0  0  0  0  0  0  0  # atno 10718 bound_to 10713
  154.6942  135.2976  154.9436 H   0  0  0  0  0  0  0  0  0  0  0  0  # atno 10763 bound_to 10752
  154.0389  135.6660  153.4792 H   0  0  0  0  0  0  0  0  0  0  0  0  # atno 10764 bound_to 10752
  153.0634  135.5102  154.8051 H   0  0  0  0  0  0  0  0  0  0  0  0  # atno 10765 bound_to 10752
  140.8491  134.2308  157.4770 H   0  0  0  0  0  0  0  0  0  0  0  0  # atno 11005 bound_to 11000
  145.4556  141.0430  143.2780 LP  0  0  0  0  0  0  0  0  0  0  0  0  # atno 17320 bound_to 7965
  144.8044  139.6079  143.7057 LP  0  0  0  0  0  0  0  0  0  0  0  0  # atno 17321 bound_to 7965
  140.7705  143.5447  150.9272 LP  0  0  0  0  0  0  0  0  0  0  0  0  # atno 17342 bound_to 10162
  139.9128  143.6699  152.3112 LP  0  0  0  0  0  0  0  0  0  0  0  0  # atno 17343 bound_to 10162
  155.9668  130.4446  150.5468 LP  0  0  0  0  0  0  0  0  0  0  0  0  # atno 17370 bound_to 10713
  157.3340  131.0704  151.1839 LP  0  0  0  0  0  0  0  0  0  0  0  0  # atno 17371 bound_to 10713
  139.8704  134.9674  156.4596 LP  0  0  0  0  0  0  0  0  0  0  0  0  # atno 17394 bound_to 11000
  140.8810  133.7918  155.9467 LP  0  0  0  0  0  0  0  0  0  0  0  0  # atno 17395 bound_to 11000

$$$$
