AV-unprocessed.smi:2023|AV-procd|sdf|8189|dock2
  -GOLD-   2272010443D 1   1.00000     0.00000
 Structure written by MMmdl.
 35 36  0  0  0  0  0  0  0  0  1 V2000
  150.7083  140.0522  154.7335 O   0  0  0  0  0  0  0  0  0  0  0  0
  151.6753  139.3746  155.6103 S   0  0  0  0  0  0  0  0  0  0  0  0
  153.1079  139.3479  155.2786 O   0  0  0  0  0  0  0  0  0  0  0  0
  151.5140  139.9961  157.2120 N   0  0  0  0  0  0  0  0  0  0  0  0
  150.6112  141.1234  157.4532 C   0  0  0  0  0  0  0  0  0  0  0  0
  151.2607  142.4510  157.0274 C   0  0  0  0  0  0  0  0  0  0  0  0
  151.5852  143.3610  158.1982 C   0  0  0  0  0  0  0  0  0  0  0  0
  152.2035  142.8548  159.3601 C   0  0  0  0  0  0  0  0  0  0  0  0
  152.4609  143.7330  160.4299 C   0  0  0  0  0  0  0  0  0  0  0  0
  152.0920  145.0857  160.2894 C   0  0  0  0  0  0  0  0  0  0  0  0
  151.5057  145.5835  159.1794 N   0  0  0  0  0  0  0  0  0  0  0  0
  151.2593  144.7333  158.1596 C   0  0  0  0  0  0  0  0  0  0  0  0
  151.1297  137.7535  155.8755 N   0  0  0  0  0  0  0  0  0  0  0  0
  151.0092  136.8981  154.6831 C   0  0  0  0  0  0  0  0  0  0  0  0
  150.7241  135.4378  155.0700 C   0  0  0  0  0  0  0  0  0  0  0  0
  149.5839  135.3691  155.9118 O   0  0  0  0  0  0  0  0  0  0  0  0
  149.7971  136.0682  157.1278 C   0  0  0  0  0  0  0  0  0  0  0  0
  150.0373  137.5602  156.8468 C   0  0  0  0  0  0  0  0  0  0  0  0
  152.4145  140.1029  157.6784 H   0  0  0  0  0  0  0  0  0  0  0  0
  149.6928  140.9596  156.8894 H   0  0  0  0  0  0  0  0  0  0  0  0
  150.3324  141.1549  158.5073 H   0  0  0  0  0  0  0  0  0  0  0  0
  152.1709  142.2539  156.4595 H   0  0  0  0  0  0  0  0  0  0  0  0
  150.5911  142.9832  156.3508 H   0  0  0  0  0  0  0  0  0  0  0  0
  152.4679  141.8104  159.4356 H   0  0  0  0  0  0  0  0  0  0  0  0
  152.9275  143.3787  161.3370 H   0  0  0  0  0  0  0  0  0  0  0  0
  152.2741  145.7872  161.0900 H   0  0  0  0  0  0  0  0  0  0  0  0
  150.7804  145.1592  157.2902 H   0  0  0  0  0  0  0  0  0  0  0  0
  150.2057  137.2828  154.0540 H   0  0  0  0  0  0  0  0  0  0  0  0
  151.9272  136.9512  154.0976 H   0  0  0  0  0  0  0  0  0  0  0  0
  150.5370  134.8443  154.1749 H   0  0  0  0  0  0  0  0  0  0  0  0
  151.5871  134.9935  155.5686 H   0  0  0  0  0  0  0  0  0  0  0  0
  148.9198  135.9454  157.7631 H   0  0  0  0  0  0  0  0  0  0  0  0
  150.6409  135.6354  157.6676 H   0  0  0  0  0  0  0  0  0  0  0  0
  150.2703  138.0726  157.7793 H   0  0  0  0  0  0  0  0  0  0  0  0
  149.1289  138.0165  156.4513 H   0  0  0  0  0  0  0  0  0  0  0  0
  1  2  2  0  0  0  0
  2  3  2  0  0  0  0
  2  4  1  0  0  0  0
  2 13  1  0  0  0  0
  4  5  1  0  0  0  0
  4 19  1  0  0  0  0
  5  6  1  0  0  0  0
  5 20  1  0  0  0  0
  5 21  1  0  0  0  0
  6  7  1  0  0  0  0
  6 22  1  0  0  0  0
  6 23  1  0  0  0  0
  7 12  1  0  0  0  0
  7  8  2  0  0  0  0
  8  9  1  0  0  0  0
  8 24  1  0  0  0  0
  9 10  2  0  0  0  0
  9 25  1  0  0  0  0
 10 11  1  0  0  0  0
 10 26  1  0  0  0  0
 11 12  2  0  0  0  0
 12 27  1  0  0  0  0
 13 18  1  0  0  0  0
 13 14  1  0  0  0  0
 14 15  1  0  0  0  0
 14 28  1  0  0  0  0
 14 29  1  0  0  0  0
 15 16  1  0  0  0  0
 15 30  1  0  0  0  0
 15 31  1  0  0  0  0
 16 17  1  0  0  0  0
 17 18  1  0  0  0  0
 17 32  1  0  0  0  0
 17 33  1  0  0  0  0
 18 34  1  0  0  0  0
 18 35  1  0  0  0  0
M  END
> <s_m_source_file>
AV-unprocessed.smi

> <i_m_source_file_index>
2023

> <i_lp_mmshare_version>
43012

> <i_f3d_flags>
0

> <s_epik_input>
W0NIMl0xW0NIMl1PW0NIMl1bQ0gyXU4xUyg9TykoPU8pW05IXVtDSDJdW0NIMl1jMltjSF1bY0hdW2NIXW5bY0hdMg==

> <s_epik_cmdline>
J2VwaWtfcHl0aG9uJywgJy1waCcsICc3LjAnLCAnLXRuJywgJzgnLCAnLW1hJywgJzIwMCcsICctbWV0YWxfYmluZGluZycsICctaW1hZScsICc8aW5maWxlLm1hZT4nLCAnLW9tYWUnLCAnPG91dGZpbGUubWFlPic=

> <r_epik_Ionization_Penalty>
0.0861056

> <r_epik_Ionization_Penalty_Charging>
0

> <r_epik_Ionization_Penalty_Neutral>
0.0861056

> <r_epik_State_Penalty>
0.0574425

> <r_epik_Charging_Adjusted_Penalty>
0.0574425

> <i_epik_Tot_Q>
0

> <i_epik_Tot_abs_Q>
0

> <r_epik_Metal_State_Penalty>
0.317425

> <b_epik_Metal_Only>
0

> <s_lp_Force_Field>
OPLS_2005

> <r_lp_Energy>
8.68862

> <b_lp_Chiralities_Consistent>
1

> <s_lp_Variant>
AV-unprocessed.smi:2023-1

> <Gold.Version>
5.8.1

> <Gold.Id.Protein>
6NUR|6NUR_protein|mol2

> <Gold.PLP.Fitness>
41.0830

> <Gold.PLP.PLP>
-33.7284

> <Gold.PLP.part.hbond>
-3.0000

> <Gold.PLP.part.metal>
0.0000

> <Gold.PLP.part.buried>
-6.3008

> <Gold.PLP.part.nonpolar>
-24.2124

> <Gold.PLP.part.repulsive>
0.2800

> <Gold.PLP.ligand.clash>
0.0000

> <Gold.PLP.ligand.torsion>
1.2180

> <Gold.PLP.Chemscore.Hbond>
2.0000

> <Gold.PLP.Chemscore.CHOScore>
1.0000

> <Gold.PLP.Chemscore.Metal>
0.0000

> <Gold.Chemscore.Hbonds>
donor molecule, donor type, donor heavy atom, donor atom, acceptor molecule, acceptor atom, score
      P1  H  7989  7998       L1     1  1.00
      P1  H  7997  8009       L1     3  1.00
      L1  C    12    27       P1  8028  1.00

> <Gold.PLP.Chemscore.Internal.Correction>
0.7905

> <Gold.Rescore>
     Score         DG    S(hbond)    S(metal)    S(lipo)     H(rot)  DE(clash)    DE(int)     intcor
     16.49     -17.63       1.94        0.00      88.54       1.84       0.02       1.12       ----

> <Gold.Chemscore.Fitness>
16.4861

> <Gold.Chemscore.DG>
-17.6276

> <Gold.Chemscore.ZeroCoef>
-5.4800

> <Gold.Chemscore.Hbond>
1.9445

> <Gold.Chemscore.Metal>
0.0000

> <Gold.Chemscore.Lipo>
88.5353

> <Gold.Chemscore.Internal_Hbond>
0.0000

> <Gold.Chemscore.DEClash>
0.0176

> <Gold.Chemscore.DEInternal>
1.1239

> <Gold.Chemscore.Rot>
1.8382

> <Gold.Chemscore.Internal.Correction>
   9.000000E+99

> <Gold.Chemscore.Hbonds>
donor molecule, donor type, donor heavy atom, donor atom, acceptor molecule, acceptor atom, score
      P1  H  7989  7998       L1     1  0.60
      P1  H  7997  8009       L1     3  0.98

> <Gold.Chemscore.Hbond.Weighted>
-6.4947

> <Gold.Chemscore.Metal.Weighted>
-0.0000

> <Gold.Chemscore.Lipo.Weighted>
-10.3586

> <Gold.Chemscore.Internal_Hbond.Weighted>
0.0000

> <Gold.Chemscore.DEClash.Weighted>
0.0176

> <Gold.Chemscore.DEInternal.Weighted>
1.1239

> <Gold.Chemscore.Rot.Weighted>
4.7057

> <Gold.Chemscore.Internal.Correction.Weighted>
   9.000000E+99

> <Gold.Protein.RotatedTorsions>
[ 6907 6896 6895 6894 ] final   -0.02 input  -60.11 | X-H torsion
[ 7974 7965 7964 7962 ] final   36.25 input  175.53 | X-H torsion
[ 8008 7997 7996 7995 ] final -124.04 input   59.86 | X-H torsion
[ 10167 10162 10161 10158 ] final  -46.80 input  -65.29 | X-H torsion
[ 10718 10713 10712 10709 ] final  150.17 input   66.30 | X-H torsion
[ 10763 10752 10751 10750 ] final -136.83 input  -60.55 | X-H torsion
[ 11005 11000 10999 10996 ] final   65.68 input  -57.11 | X-H torsion

> <Gold.Protein.ActiveResidues>
 VAL166  LYS551  ARG553  GLY616  TRP617  ASP618  TYR619  PRO620  LYS621  CYS622 
 ASP623  PHE694  ASN695  SER759  ASP760  ASP761  ALA762  ILE779  LEU786  VAL792 
 PHE793  MET794  SER795  GLU796  ALA797  LYS798  CYS799  TRP800  GLU811  SER814 

> <Gold.Protein.RotatedAtoms>
  151.5690  135.1063  159.9990 H   0  0  0  0  0  0  0  0  0  0  0  0  # atno 6907 bound_to 6896
  152.4410  133.7444  159.6669 H   0  0  0  0  0  0  0  0  0  0  0  0  # atno 6908 bound_to 6896
  150.8315  133.8014  159.3120 H   0  0  0  0  0  0  0  0  0  0  0  0  # atno 6909 bound_to 6896
  146.1224  139.6040  142.9281 H   0  0  0  0  0  0  0  0  0  0  0  0  # atno 7974 bound_to 7965
  155.1903  140.0413  157.2899 H   0  0  0  0  0  0  0  0  0  0  0  0  # atno 8008 bound_to 7997
  154.6143  140.2484  155.7601 H   0  0  0  0  0  0  0  0  0  0  0  0  # atno 8009 bound_to 7997
  156.2397  140.2908  156.0420 H   0  0  0  0  0  0  0  0  0  0  0  0  # atno 8010 bound_to 7997
  140.6802  143.2814  151.3834 H   0  0  0  0  0  0  0  0  0  0  0  0  # atno 10167 bound_to 10162
  157.2869  131.0846  151.1490 H   0  0  0  0  0  0  0  0  0  0  0  0  # atno 10718 bound_to 10713
  154.8675  135.3660  154.5124 H   0  0  0  0  0  0  0  0  0  0  0  0  # atno 10763 bound_to 10752
  153.5759  135.7019  153.5489 H   0  0  0  0  0  0  0  0  0  0  0  0  # atno 10764 bound_to 10752
  153.3500  135.4074  155.1602 H   0  0  0  0  0  0  0  0  0  0  0  0  # atno 10765 bound_to 10752
  139.9879  134.6638  156.0142 H   0  0  0  0  0  0  0  0  0  0  0  0  # atno 11005 bound_to 11000
  145.5437  141.0419  143.2316 LP  0  0  0  0  0  0  0  0  0  0  0  0  # atno 17320 bound_to 7965
  144.7610  139.6957  143.7234 LP  0  0  0  0  0  0  0  0  0  0  0  0  # atno 17321 bound_to 7965
  139.6120  144.1079  152.2308 LP  0  0  0  0  0  0  0  0  0  0  0  0  # atno 17342 bound_to 10162
  140.0496  144.5943  150.7346 LP  0  0  0  0  0  0  0  0  0  0  0  0  # atno 17343 bound_to 10162
  157.2902  130.6792  149.6110 LP  0  0  0  0  0  0  0  0  0  0  0  0  # atno 17370 bound_to 10713
  155.9666  130.4423  150.5375 LP  0  0  0  0  0  0  0  0  0  0  0  0  # atno 17371 bound_to 10713
  141.1541  133.6545  156.4105 LP  0  0  0  0  0  0  0  0  0  0  0  0  # atno 17394 bound_to 11000
  140.4965  134.6526  157.5232 LP  0  0  0  0  0  0  0  0  0  0  0  0  # atno 17395 bound_to 11000

$$$$
