AV-unprocessed.smi:1662|AV-procd|sdf|6659|dock3
  -GOLD-   22720 7373D 1   1.00000     0.00000
 Structure written by MMmdl.
 47 48  0  0  0  0  0  0  0  0  1 V2000
  151.1862  134.8455  156.0039 C   0  0  0  0  0  0  0  0  0  0  0  0
  150.5652  136.2012  156.2067 C   0  0  0  0  0  0  0  0  0  0  0  0
  151.3524  137.2213  156.1043 N   0  0  0  0  0  0  0  0  0  0  0  0
  150.8861  138.5101  156.2783 N   0  0  0  0  0  0  0  0  0  0  0  0
  151.9203  139.5463  156.1404 C   0  0  0  0  0  0  0  0  0  0  0  0
  152.3377  140.1726  157.4789 C   0  0  0  0  0  0  0  0  0  0  0  0
  152.9603  139.5173  158.3160 O   0  0  0  0  0  0  0  0  0  0  0  0
  151.9971  141.4583  157.6555 N   0  0  0  0  0  0  0  0  0  0  0  0
  152.2943  142.2614  158.8405 C   0  0  2  0  0  0  0  0  0  0  0  0
  151.6116  141.6272  160.0684 C   0  0  0  0  0  0  0  0  0  0  0  0
  151.8522  142.4580  161.3319 C   0  0  0  0  0  0  0  0  0  0  0  0
  151.3646  143.8964  161.1307 C   0  0  0  0  0  0  0  0  0  0  0  0
  152.0475  144.5706  159.9240 C   0  0  2  0  0  0  0  0  0  0  0  0
  151.5433  146.0200  159.7937 C   0  0  0  0  0  0  0  0  0  0  0  0
  151.8492  143.7345  158.6271 C   0  0  1  0  0  0  0  0  0  0  0  0
  152.5770  144.3635  157.4184 C   0  0  0  0  0  0  0  0  0  0  0  0
  149.5918  138.8363  156.5616 C   0  0  0  0  0  0  0  0  0  0  0  0
  149.2190  140.0014  156.7079 O   0  0  0  0  0  0  0  0  0  0  0  0
  148.7054  137.6757  156.6733 C   0  0  0  0  0  0  0  0  0  0  0  0
  147.3415  137.9720  156.9724 C   0  0  0  0  0  0  0  0  0  0  0  0
  146.2417  138.2234  157.2328 N   0  0  0  0  0  0  0  0  0  0  0  0
  149.1513  136.4057  156.5045 C   0  0  0  0  0  0  0  0  0  0  0  0
  148.2710  135.1681  156.6112 C   0  0  0  0  0  0  0  0  0  0  0  0
  150.7911  134.3704  155.1060 H   0  0  0  0  0  0  0  0  0  0  0  0
  150.9784  134.1926  156.8518 H   0  0  0  0  0  0  0  0  0  0  0  0
  152.2700  134.9064  155.8960 H   0  0  0  0  0  0  0  0  0  0  0  0
  152.8132  139.1291  155.6711 H   0  0  0  0  0  0  0  0  0  0  0  0
  151.5733  140.3294  155.4632 H   0  0  0  0  0  0  0  0  0  0  0  0
  151.4912  141.9184  156.9125 H   0  0  0  0  0  0  0  0  0  0  0  0
  153.3735  142.2598  159.0070 H   0  0  0  0  0  0  0  0  0  0  0  0
  150.5387  141.5381  159.8914 H   0  0  0  0  0  0  0  0  0  0  0  0
  151.9831  140.6139  160.2260 H   0  0  0  0  0  0  0  0  0  0  0  0
  151.3364  142.0049  162.1788 H   0  0  0  0  0  0  0  0  0  0  0  0
  152.9147  142.4580  161.5782 H   0  0  0  0  0  0  0  0  0  0  0  0
  150.2826  143.8974  160.9910 H   0  0  0  0  0  0  0  0  0  0  0  0
  151.5574  144.4699  162.0381 H   0  0  0  0  0  0  0  0  0  0  0  0
  153.1170  144.6151  160.1355 H   0  0  0  0  0  0  0  0  0  0  0  0
  150.4953  146.0498  159.4948 H   0  0  0  0  0  0  0  0  0  0  0  0
  152.1186  146.5885  159.0640 H   0  0  0  0  0  0  0  0  0  0  0  0
  151.6310  146.5505  160.7421 H   0  0  0  0  0  0  0  0  0  0  0  0
  150.7819  143.7278  158.3982 H   0  0  0  0  0  0  0  0  0  0  0  0
  153.6476  144.4516  157.6053 H   0  0  0  0  0  0  0  0  0  0  0  0
  152.1949  145.3568  157.1867 H   0  0  0  0  0  0  0  0  0  0  0  0
  152.4494  143.7721  156.5119 H   0  0  0  0  0  0  0  0  0  0  0  0
  147.2174  135.4206  156.7253 H   0  0  0  0  0  0  0  0  0  0  0  0
  148.5623  134.5684  157.4737 H   0  0  0  0  0  0  0  0  0  0  0  0
  148.3607  134.5512  155.7166 H   0  0  0  0  0  0  0  0  0  0  0  0
  1  2  1  0  0  0  0
  1 24  1  0  0  0  0
  1 25  1  0  0  0  0
  1 26  1  0  0  0  0
  2 22  1  0  0  0  0
  2  3  2  0  0  0  0
  3  4  1  0  0  0  0
  4  5  1  0  0  0  0
  4 17  1  0  0  0  0
  5  6  1  0  0  0  0
  5 27  1  0  0  0  0
  5 28  1  0  0  0  0
  6  7  2  0  0  0  0
  6  8  1  0  0  0  0
  8  9  1  0  0  0  0
  8 29  1  0  0  0  0
  9 15  1  0  0  0  0
  9 10  1  0  0  0  0
  9 30  1  0  0  0  0
 10 11  1  0  0  0  0
 10 31  1  0  0  0  0
 10 32  1  0  0  0  0
 11 12  1  0  0  0  0
 11 33  1  0  0  0  0
 11 34  1  0  0  0  0
 12 13  1  0  0  0  0
 12 35  1  0  0  0  0
 12 36  1  0  0  0  0
 13 14  1  0  0  0  0
 13 15  1  0  0  0  0
 13 37  1  0  0  0  0
 14 38  1  0  0  0  0
 14 39  1  0  0  0  0
 14 40  1  0  0  0  0
 15 16  1  0  0  0  0
 15 41  1  0  0  0  0
 16 42  1  0  0  0  0
 16 43  1  0  0  0  0
 16 44  1  0  0  0  0
 17 18  2  0  0  0  0
 17 19  1  0  0  0  0
 19 20  1  0  0  0  0
 19 22  2  0  0  0  0
 20 21  3  0  0  0  0
 22 23  1  0  0  0  0
 23 45  1  0  0  0  0
 23 46  1  0  0  0  0
 23 47  1  0  0  0  0
M  END
> <s_m_source_file>
AV-unprocessed.smi

> <i_m_source_file_index>
1662

> <i_lp_mmshare_version>
43012

> <i_f3d_flags>
0

> <s_epik_input>
TiNDYyhjMVtDSDNdKWMoPU8pbihuYzFbQ0gzXSlbQ0gyXUMoPU8pW05IXVtDQEBIXTJbQ0gyXVtDSDJdW0NIMl1bQ0BASF0oW0NIM10pW0NASF0yW0NIM10=

> <s_epik_cmdline>
J2VwaWtfcHl0aG9uJywgJy1waCcsICc3LjAnLCAnLXRuJywgJzgnLCAnLW1hJywgJzIwMCcsICctbWV0YWxfYmluZGluZycsICctaW1hZScsICc8aW5maWxlLm1hZT4nLCAnLW9tYWUnLCAnPG91dGZpbGUubWFlPic=

> <r_lp_tautomer_probability>
1

> <r_epik_Ionization_Penalty>
1.90709e-08

> <r_epik_Ionization_Penalty_Charging>
2.37982e-11

> <r_epik_Ionization_Penalty_Neutral>
1.90471e-08

> <r_epik_State_Penalty>
-0

> <r_epik_Charging_Adjusted_Penalty>
2.37982e-11

> <i_epik_Tot_Q>
0

> <i_epik_Tot_abs_Q>
0

> <r_epik_Metal_State_Penalty>
-0

> <b_epik_Metal_Only>
0

> <s_lp_Force_Field>
OPLS_2005

> <r_lp_Energy>
27.4579

> <b_lp_Chiralities_Consistent>
1

> <s_lp_Variant>
AV-unprocessed.smi:1662-3

> <Gold.Version>
5.8.1

> <Gold.Id.Protein>
6NUR|6NUR_protein|mol2

> <Gold.PLP.Fitness>
45.2282

> <Gold.PLP.PLP>
-39.6915

> <Gold.PLP.part.hbond>
-2.0355

> <Gold.PLP.part.metal>
0.0000

> <Gold.PLP.part.buried>
-5.0785

> <Gold.PLP.part.nonpolar>
-31.5582

> <Gold.PLP.part.repulsive>
0.0723

> <Gold.PLP.ligand.clash>
0.0000

> <Gold.PLP.ligand.torsion>
0.2375

> <Gold.PLP.Chemscore.Hbond>
2.0000

> <Gold.PLP.Chemscore.CHOScore>
0.0000

> <Gold.PLP.Chemscore.Metal>
0.0000

> <Gold.PLP.Chemscore.Internal.Correction>
0.0117

> <Gold.Rescore>
     Score         DG    S(hbond)    S(metal)    S(lipo)     H(rot)  DE(clash)    DE(int)     intcor
     19.38     -20.14       1.61        0.00     111.02       1.45       0.03       0.73       ----

> <Gold.Chemscore.Fitness>
19.3829

> <Gold.Chemscore.DG>
-20.1355

> <Gold.Chemscore.ZeroCoef>
-5.4800

> <Gold.Chemscore.Hbond>
1.6104

> <Gold.Chemscore.Metal>
0.0000

> <Gold.Chemscore.Lipo>
111.0241

> <Gold.Chemscore.Internal_Hbond>
0.0000

> <Gold.Chemscore.DEClash>
0.0255

> <Gold.Chemscore.DEInternal>
0.7271

> <Gold.Chemscore.Rot>
1.4504

> <Gold.Chemscore.Internal.Correction>
   9.000000E+99

> <Gold.Chemscore.Hbond.Weighted>
-5.3786

> <Gold.Chemscore.Metal.Weighted>
-0.0000

> <Gold.Chemscore.Lipo.Weighted>
-12.9898

> <Gold.Chemscore.Internal_Hbond.Weighted>
0.0000

> <Gold.Chemscore.DEClash.Weighted>
0.0255

> <Gold.Chemscore.DEInternal.Weighted>
0.7271

> <Gold.Chemscore.Rot.Weighted>
3.7129

> <Gold.Chemscore.Internal.Correction.Weighted>
   9.000000E+99

> <Gold.Protein.RotatedTorsions>
[ 6907 6896 6895 6894 ] final  110.29 input  -60.11 | X-H torsion
[ 7974 7965 7964 7962 ] final   52.65 input  175.53 | X-H torsion
[ 8008 7997 7996 7995 ] final  177.25 input   59.86 | X-H torsion
[ 10167 10162 10161 10158 ] final -129.19 input  -65.29 | X-H torsion
[ 10718 10713 10712 10709 ] final  170.65 input   66.30 | X-H torsion
[ 10763 10752 10751 10750 ] final  -10.63 input  -60.55 | X-H torsion
[ 11005 11000 10999 10996 ] final   72.38 input  -57.11 | X-H torsion

> <Gold.Protein.ActiveResidues>
 VAL166  LYS551  ARG553  GLY616  TRP617  ASP618  TYR619  PRO620  LYS621  CYS622 
 ASP623  PHE694  ASN695  SER759  ASP760  ASP761  ALA762  ILE779  LEU786  VAL792 
 PHE793  MET794  SER795  GLU796  ALA797  LYS798  CYS799  TRP800  GLU811  SER814 

> <Gold.Protein.RotatedAtoms>
  152.5026  133.8821  159.7351 H   0  0  0  0  0  0  0  0  0  0  0  0  # atno 6907 bound_to 6896
  150.9281  133.6791  159.2823 H   0  0  0  0  0  0  0  0  0  0  0  0  # atno 6908 bound_to 6896
  151.4145  135.0994  159.9647 H   0  0  0  0  0  0  0  0  0  0  0  0  # atno 6909 bound_to 6896
  145.9792  139.4225  143.0142 H   0  0  0  0  0  0  0  0  0  0  0  0  # atno 7974 bound_to 7965
  156.0677  140.1363  156.9866 H   0  0  0  0  0  0  0  0  0  0  0  0  # atno 8008 bound_to 7997
  154.4515  140.0978  156.6684 H   0  0  0  0  0  0  0  0  0  0  0  0  # atno 8009 bound_to 7997
  155.5277  140.3458  155.4422 H   0  0  0  0  0  0  0  0  0  0  0  0  # atno 8010 bound_to 7997
  139.9424  143.6149  152.2500 H   0  0  0  0  0  0  0  0  0  0  0  0  # atno 10167 bound_to 10162
  157.0051  131.0187  151.2819 H   0  0  0  0  0  0  0  0  0  0  0  0  # atno 10718 bound_to 10713
  153.4721  135.7017  153.5987 H   0  0  0  0  0  0  0  0  0  0  0  0  # atno 10763 bound_to 10752
  153.4237  135.3819  155.2127 H   0  0  0  0  0  0  0  0  0  0  0  0  # atno 10764 bound_to 10752
  154.8725  135.3934  154.4160 H   0  0  0  0  0  0  0  0  0  0  0  0  # atno 10765 bound_to 10752
  139.9494  134.7255  156.0900 H   0  0  0  0  0  0  0  0  0  0  0  0  # atno 11005 bound_to 11000
  145.7794  140.9863  143.1107 LP  0  0  0  0  0  0  0  0  0  0  0  0  # atno 17320 bound_to 7965
  144.6857  139.9546  143.7479 LP  0  0  0  0  0  0  0  0  0  0  0  0  # atno 17321 bound_to 7965
  139.6694  144.7661  151.1811 LP  0  0  0  0  0  0  0  0  0  0  0  0  # atno 17342 bound_to 10162
  140.7607  143.5888  150.8818 LP  0  0  0  0  0  0  0  0  0  0  0  0  # atno 17343 bound_to 10162
  157.5362  130.8090  149.7974 LP  0  0  0  0  0  0  0  0  0  0  0  0  # atno 17370 bound_to 10713
  156.0157  130.3815  150.2120 LP  0  0  0  0  0  0  0  0  0  0  0  0  # atno 17371 bound_to 10713
  141.1153  133.6630  156.3078 LP  0  0  0  0  0  0  0  0  0  0  0  0  # atno 17394 bound_to 11000
  140.5756  134.5796  157.5468 LP  0  0  0  0  0  0  0  0  0  0  0  0  # atno 17395 bound_to 11000

$$$$
