AV-unprocessed.smi:543|AV-procd|sdf|2876|dock1
  -GOLD-   2262023363D 1   1.00000     0.00000
 Structure written by MMmdl.
 45 47  0  0  0  0  0  0  0  0  2 V2000
  149.2826  129.2219  150.0876 C   0  0  0  0  0  0  0  0  0  0  0  0
  149.3795  129.2188  151.5003 O   0  0  0  0  0  0  0  0  0  0  0  0
  149.7205  130.4917  152.0269 C   0  0  0  0  0  0  0  0  0  0  0  0
  148.6185  130.9627  152.9865 C   0  0  0  0  0  0  0  0  0  0  0  0
  148.7070  132.3992  153.2489 N   0  0  0  0  0  0  0  0  0  0  0  0
  147.8689  133.3964  152.8449 C   0  0  0  0  0  0  0  0  0  0  0  0
  146.7537  133.1613  152.0307 N   0  0  0  0  0  0  0  0  0  0  0  0
  146.3425  131.8611  151.5153 C   0  0  0  0  0  0  0  0  0  0  0  0
  145.9441  134.2165  151.4218 C   0  0  0  0  0  0  0  0  0  0  0  0
  144.6229  134.5027  152.1167 C   0  0  0  0  0  0  0  0  0  0  0  0
  143.6659  133.4762  152.2630 C   0  0  0  0  0  0  0  0  0  0  0  0
  142.4459  133.7332  152.9183 C   0  0  0  0  0  0  0  0  0  0  0  0
  142.1760  135.0183  153.4264 C   0  0  0  0  0  0  0  0  0  0  0  0
  143.1269  136.0467  153.2796 C   0  0  0  0  0  0  0  0  0  0  0  0
  144.3480  135.7898  152.6263 C   0  0  0  0  0  0  0  0  0  0  0  0
  148.1799  134.6019  153.3269 N   0  0  0  0  0  0  0  0  0  0  0  0
  149.3175  134.3628  154.0783 C   0  0  0  0  0  0  0  0  0  0  0  0
  149.6523  133.0458  154.0541 C   0  0  0  0  0  0  0  0  0  0  0  0
  150.8003  132.4781  154.7973 C   0  0  0  0  0  0  0  0  0  0  0  0
  151.0513  131.2753  154.7587 O   0  0  0  0  0  0  0  0  0  0  0  0
  151.4907  133.4355  155.4941 N   0  5  0  0  0  0  0  0  0  0  0  0
  151.1874  134.7793  155.5423 C   0  0  0  0  0  0  0  0  0  0  0  0
  151.8587  135.5741  156.2017 O   0  0  0  0  0  0  0  0  0  0  0  0
  150.1109  135.2594  154.8440 N   0  0  0  0  0  0  0  0  0  0  0  0
  149.7577  136.6816  154.8821 C   0  0  0  0  0  0  0  0  0  0  0  0
  149.0164  128.2246  149.7376 H   0  0  0  0  0  0  0  0  0  0  0  0
  150.2331  129.4973  149.6286 H   0  0  0  0  0  0  0  0  0  0  0  0
  148.5135  129.9158  149.7458 H   0  0  0  0  0  0  0  0  0  0  0  0
  150.6750  130.4356  152.5526 H   0  0  0  0  0  0  0  0  0  0  0  0
  149.8381  131.2108  151.2152 H   0  0  0  0  0  0  0  0  0  0  0  0
  147.6336  130.7300  152.5850 H   0  0  0  0  0  0  0  0  0  0  0  0
  148.6779  130.3977  153.9107 H   0  0  0  0  0  0  0  0  0  0  0  0
  147.1091  131.1099  151.7077 H   0  0  0  0  0  0  0  0  0  0  0  0
  146.1846  131.8916  150.4369 H   0  0  0  0  0  0  0  0  0  0  0  0
  145.4140  131.5391  151.9878 H   0  0  0  0  0  0  0  0  0  0  0  0
  146.5014  135.1518  151.3487 H   0  0  0  0  0  0  0  0  0  0  0  0
  145.7424  133.9172  150.3927 H   0  0  0  0  0  0  0  0  0  0  0  0
  143.8677  132.4865  151.8808 H   0  0  0  0  0  0  0  0  0  0  0  0
  141.7178  132.9437  153.0325 H   0  0  0  0  0  0  0  0  0  0  0  0
  141.2407  135.2149  153.9293 H   0  0  0  0  0  0  0  0  0  0  0  0
  142.9204  137.0325  153.6698 H   0  0  0  0  0  0  0  0  0  0  0  0
  145.0736  136.5825  152.5218 H   0  0  0  0  0  0  0  0  0  0  0  0
  149.4729  136.9744  155.8934 H   0  0  0  0  0  0  0  0  0  0  0  0
  148.9242  136.9262  154.2237 H   0  0  0  0  0  0  0  0  0  0  0  0
  150.6038  137.2973  154.5735 H   0  0  0  0  0  0  0  0  0  0  0  0
  1  2  1  0  0  0  0
  1 26  1  0  0  0  0
  1 27  1  0  0  0  0
  1 28  1  0  0  0  0
  2  3  1  0  0  0  0
  3  4  1  0  0  0  0
  3 29  1  0  0  0  0
  3 30  1  0  0  0  0
  4  5  1  0  0  0  0
  4 31  1  0  0  0  0
  4 32  1  0  0  0  0
  5 18  1  0  0  0  0
  5  6  1  0  0  0  0
  6  7  1  0  0  0  0
  6 16  2  0  0  0  0
  7  8  1  0  0  0  0
  7  9  1  0  0  0  0
  8 33  1  0  0  0  0
  8 34  1  0  0  0  0
  8 35  1  0  0  0  0
  9 10  1  0  0  0  0
  9 36  1  0  0  0  0
  9 37  1  0  0  0  0
 10 15  1  0  0  0  0
 10 11  2  0  0  0  0
 11 12  1  0  0  0  0
 11 38  1  0  0  0  0
 12 13  2  0  0  0  0
 12 39  1  0  0  0  0
 13 14  1  0  0  0  0
 13 40  1  0  0  0  0
 14 15  2  0  0  0  0
 14 41  1  0  0  0  0
 15 42  1  0  0  0  0
 16 17  1  0  0  0  0
 17 24  1  0  0  0  0
 17 18  2  0  0  0  0
 18 19  1  0  0  0  0
 19 20  2  0  0  0  0
 19 21  1  0  0  0  0
 21 22  1  0  0  0  0
 22 23  2  0  0  0  0
 22 24  1  0  0  0  0
 24 25  1  0  0  0  0
 25 43  1  0  0  0  0
 25 44  1  0  0  0  0
 25 45  1  0  0  0  0
M  CHG  1  21  -1
M  END
> <s_m_source_file>
AV-unprocessed.smi

> <i_m_source_file_index>
543

> <i_lp_mmshare_version>
43012

> <i_f3d_flags>
0

> <s_epik_input>
W0NIM11uMWMoPU8pW25IXWMoPU8pYyhjMTIpbihbQ0gyXVtDSDJdT1tDSDNdKWMobjIpTihbQ0gzXSlbQ0gyXWMzW2NIXVtjSF1bY0hdW2NIXVtjSF0z

> <s_epik_cmdline>
J2VwaWtfcHl0aG9uJywgJy1waCcsICc3LjAnLCAnLXRuJywgJzgnLCAnLW1hJywgJzIwMCcsICctbWV0YWxfYmluZGluZycsICctaW1hZScsICc8aW5maWxlLm1hZT4nLCAnLW9tYWUnLCAnPG91dGZpbGUubWFlPic=

> <r_lp_tautomer_probability>
1

> <r_epik_Ionization_Penalty>
6.27073

> <r_epik_Ionization_Penalty_Charging>
0.0750099

> <r_epik_Ionization_Penalty_Neutral>
6.19572

> <r_epik_State_Penalty>
6.19553

> <r_epik_Charging_Adjusted_Penalty>
6.27054

> <i_epik_Tot_Q>
-1

> <i_epik_Tot_abs_Q>
1

> <r_epik_Metal_State_Penalty>
2.13591

> <b_epik_Metal_Only>
1

> <s_lp_Force_Field>
OPLS_2005

> <r_lp_Energy>
36.8514

> <b_lp_Chiralities_Consistent>
1

> <s_lp_Variant>
AV-unprocessed.smi:543-2

> <Gold.Version>
5.8.1

> <Gold.Id.Protein>
6NUR|6NUR_protein|mol2

> <Gold.PLP.Fitness>
42.3150

> <Gold.PLP.PLP>
-42.3037

> <Gold.PLP.part.hbond>
-1.3376

> <Gold.PLP.part.metal>
0.0000

> <Gold.PLP.part.buried>
-6.1414

> <Gold.PLP.part.nonpolar>
-35.7877

> <Gold.PLP.part.repulsive>
1.5500

> <Gold.PLP.ligand.clash>
4.7127

> <Gold.PLP.ligand.torsion>
0.9012

> <Gold.PLP.Chemscore.Hbond>
0.5577

> <Gold.PLP.Chemscore.CHOScore>
0.0000

> <Gold.PLP.Chemscore.Metal>
0.0000

> <Gold.Chemscore.Hbonds>
donor molecule, donor type, donor heavy atom, donor atom, acceptor molecule, acceptor atom, score
      P1  H 10752 10764       L1    23  0.75

> <Gold.PLP.Chemscore.Internal.Correction>
4.8533

> <Gold.Rescore>
     Score         DG    S(hbond)    S(metal)    S(lipo)     H(rot)  DE(clash)    DE(int)     intcor
      8.62     -11.43       0.65        0.00      72.02       1.82       0.65       2.17       ----

> <Gold.Chemscore.Fitness>
8.6168

> <Gold.Chemscore.DG>
-11.4315

> <Gold.Chemscore.ZeroCoef>
-5.4800

> <Gold.Chemscore.Hbond>
0.6547

> <Gold.Chemscore.Metal>
0.0000

> <Gold.Chemscore.Lipo>
72.0165

> <Gold.Chemscore.Internal_Hbond>
0.0000

> <Gold.Chemscore.DEClash>
0.6475

> <Gold.Chemscore.DEInternal>
2.1672

> <Gold.Chemscore.Rot>
1.8207

> <Gold.Chemscore.Internal.Correction>
   9.000000E+99

> <Gold.Chemscore.Hbonds>
donor molecule, donor type, donor heavy atom, donor atom, acceptor molecule, acceptor atom, score
      P1  H 10752 10764       L1    23  0.09

> <Gold.Chemscore.Hbond.Weighted>
-2.1865

> <Gold.Chemscore.Metal.Weighted>
-0.0000

> <Gold.Chemscore.Lipo.Weighted>
-8.4259

> <Gold.Chemscore.Internal_Hbond.Weighted>
0.0000

> <Gold.Chemscore.DEClash.Weighted>
0.6475

> <Gold.Chemscore.DEInternal.Weighted>
2.1672

> <Gold.Chemscore.Rot.Weighted>
4.6610

> <Gold.Chemscore.Internal.Correction.Weighted>
   9.000000E+99

> <Gold.Protein.RotatedTorsions>
[ 6907 6896 6895 6894 ] final   50.33 input  -60.11 | X-H torsion
[ 7974 7965 7964 7962 ] final  141.37 input  175.53 | X-H torsion
[ 8008 7997 7996 7995 ] final   32.65 input   59.86 | X-H torsion
[ 10167 10162 10161 10158 ] final   56.38 input  -65.29 | X-H torsion
[ 10718 10713 10712 10709 ] final  -34.29 input   66.30 | X-H torsion
[ 10763 10752 10751 10750 ] final  -13.64 input  -60.55 | X-H torsion
[ 11005 11000 10999 10996 ] final    5.11 input  -57.11 | X-H torsion

> <Gold.Protein.ActiveResidues>
 VAL166  LYS551  ARG553  GLY616  TRP617  ASP618  TYR619  PRO620  LYS621  CYS622 
 ASP623  PHE694  ASN695  SER759  ASP760  ASP761  ALA762  ILE779  LEU786  VAL792 
 PHE793  MET794  SER795  GLU796  ALA797  LYS798  CYS799  TRP800  GLU811  SER814 

> <Gold.Protein.RotatedAtoms>
  152.3006  134.7615  160.0358 H   0  0  0  0  0  0  0  0  0  0  0  0  # atno 6907 bound_to 6896
  151.8129  133.3379  159.3569 H   0  0  0  0  0  0  0  0  0  0  0  0  # atno 6908 bound_to 6896
  150.7272  134.5576  159.5870 H   0  0  0  0  0  0  0  0  0  0  0  0  # atno 6909 bound_to 6896
  144.9103  139.5302  143.5712 H   0  0  0  0  0  0  0  0  0  0  0  0  # atno 7974 bound_to 7965
  155.1259  140.3252  155.4486 H   0  0  0  0  0  0  0  0  0  0  0  0  # atno 8008 bound_to 7997
  156.2649  140.2019  156.6328 H   0  0  0  0  0  0  0  0  0  0  0  0  # atno 8009 bound_to 7997
  154.6649  140.0543  157.0089 H   0  0  0  0  0  0  0  0  0  0  0  0  # atno 8010 bound_to 7997
  140.2094  144.3905  150.6495 H   0  0  0  0  0  0  0  0  0  0  0  0  # atno 10167 bound_to 10162
  156.3524  130.4310  149.7693 H   0  0  0  0  0  0  0  0  0  0  0  0  # atno 10718 bound_to 10713
  153.5164  135.7016  153.5754 H   0  0  0  0  0  0  0  0  0  0  0  0  # atno 10763 bound_to 10752
  153.3822  135.3917  155.1865 H   0  0  0  0  0  0  0  0  0  0  0  0  # atno 10764 bound_to 10752
  154.8698  135.3838  154.4649 H   0  0  0  0  0  0  0  0  0  0  0  0  # atno 10765 bound_to 10752
  140.5744  134.0072  155.8021 H   0  0  0  0  0  0  0  0  0  0  0  0  # atno 11005 bound_to 11000
  146.3155  139.7903  142.8987 LP  0  0  0  0  0  0  0  0  0  0  0  0  # atno 17320 bound_to 7965
  145.3466  141.0299  143.3362 LP  0  0  0  0  0  0  0  0  0  0  0  0  # atno 17321 bound_to 7965
  140.6334  143.2191  151.6446 LP  0  0  0  0  0  0  0  0  0  0  0  0  # atno 17342 bound_to 10162
  139.5186  144.3280  152.0852 LP  0  0  0  0  0  0  0  0  0  0  0  0  # atno 17343 bound_to 10162
  156.4888  130.8075  151.3086 LP  0  0  0  0  0  0  0  0  0  0  0  0  # atno 17370 bound_to 10713
  157.7463  130.9982  150.2843 LP  0  0  0  0  0  0  0  0  0  0  0  0  # atno 17371 bound_to 10713
  141.1036  133.9729  157.3036 LP  0  0  0  0  0  0  0  0  0  0  0  0  # atno 17394 bound_to 11000
  139.9347  135.0197  156.8515 LP  0  0  0  0  0  0  0  0  0  0  0  0  # atno 17395 bound_to 11000

$$$$
