AV-unprocessed.smi:1240|AV-procd|sdf|5196|dock2
  -GOLD-   22720 4283D 1   1.00000     0.00000
 Structure written by MMmdl.
 47 49  0  0  0  0  0  0  0  0  1 V2000
  144.3935  136.5660  151.8939 O   0  0  0  0  0  0  0  0  0  0  0  0
  145.6036  136.3463  151.8489 C   0  0  0  0  0  0  0  0  0  0  0  0
  146.5306  137.2191  152.2685 N   0  0  0  0  0  0  0  0  0  0  0  0
  146.2637  138.5400  152.8318 C   0  0  0  0  0  0  0  0  0  0  0  0
  147.1229  138.8060  154.0969 C   0  0  1  0  0  0  0  0  0  0  0  0
  148.2722  139.8288  153.8308 C   0  0  2  0  0  0  0  0  0  0  0  0
  149.4719  139.7817  154.7822 C   0  0  0  0  0  0  0  0  0  0  0  0
  149.6531  141.2347  155.2187 C   0  0  0  0  0  0  0  0  0  0  0  0
  149.0906  141.9859  154.1559 O   0  0  0  0  0  0  0  0  0  0  0  0
  147.9010  141.3202  153.7637 C   0  0  0  0  0  0  0  0  0  0  0  0
  146.3511  139.0315  155.3368 N   0  0  0  0  0  0  0  0  0  0  0  0
  145.5343  140.2431  155.2983 C   0  0  0  0  0  0  0  0  0  0  0  0
  144.6363  140.3660  156.5399 C   0  0  0  0  0  0  0  0  0  0  0  0
  145.4467  140.3429  157.7099 O   0  0  0  0  0  0  0  0  0  0  0  0
  146.2189  139.1518  157.8165 C   0  0  0  0  0  0  0  0  0  0  0  0
  147.1203  138.9932  156.5791 C   0  0  0  0  0  0  0  0  0  0  0  0
  146.1770  135.2315  151.3630 N   0  0  0  0  0  0  0  0  0  0  0  0
  145.5606  134.0671  150.8284 C   0  0  0  0  0  0  0  0  0  0  0  0
  146.3946  132.9758  150.5080 C   0  0  0  0  0  0  0  0  0  0  0  0
  145.8110  131.8021  149.9908 C   0  0  0  0  0  0  0  0  0  0  0  0
  144.4841  131.6601  149.7903 N   0  0  0  0  0  0  0  0  0  0  0  0
  143.6854  132.7004  150.1087 C   0  0  0  0  0  0  0  0  0  0  0  0
  144.1661  133.9176  150.6317 C   0  0  0  0  0  0  0  0  0  0  0  0
  147.5009  136.9524  152.1880 H   0  0  0  0  0  0  0  0  0  0  0  0
  146.4286  139.3249  152.0928 H   0  0  0  0  0  0  0  0  0  0  0  0
  145.2009  138.5638  153.0670 H   0  0  0  0  0  0  0  0  0  0  0  0
  147.6601  137.8723  154.2712 H   0  0  0  0  0  0  0  0  0  0  0  0
  148.6744  139.5898  152.8449 H   0  0  0  0  0  0  0  0  0  0  0  0
  149.3498  139.1228  155.6411 H   0  0  0  0  0  0  0  0  0  0  0  0
  150.3560  139.4409  154.2419 H   0  0  0  0  0  0  0  0  0  0  0  0
  149.0980  141.4355  156.1363 H   0  0  0  0  0  0  0  0  0  0  0  0
  150.6978  141.4959  155.3876 H   0  0  0  0  0  0  0  0  0  0  0  0
  147.6017  141.6291  152.7622 H   0  0  0  0  0  0  0  0  0  0  0  0
  147.0948  141.5923  154.4417 H   0  0  0  0  0  0  0  0  0  0  0  0
  146.1690  141.1272  155.2456 H   0  0  0  0  0  0  0  0  0  0  0  0
  144.9125  140.2461  154.4026 H   0  0  0  0  0  0  0  0  0  0  0  0
  144.0760  141.3008  156.5121 H   0  0  0  0  0  0  0  0  0  0  0  0
  143.9074  139.5549  156.5745 H   0  0  0  0  0  0  0  0  0  0  0  0
  146.8240  139.1987  158.7219 H   0  0  0  0  0  0  0  0  0  0  0  0
  145.5558  138.2915  157.9199 H   0  0  0  0  0  0  0  0  0  0  0  0
  147.6399  138.0437  156.6744 H   0  0  0  0  0  0  0  0  0  0  0  0
  147.8758  139.7795  156.5797 H   0  0  0  0  0  0  0  0  0  0  0  0
  147.1858  135.2347  151.3300 H   0  0  0  0  0  0  0  0  0  0  0  0
  147.4641  133.0334  150.6498 H   0  0  0  0  0  0  0  0  0  0  0  0
  146.4277  130.9538  149.7331 H   0  0  0  0  0  0  0  0  0  0  0  0
  142.6272  132.5567  149.9474 H   0  0  0  0  0  0  0  0  0  0  0  0
  143.4599  134.6950  150.8776 H   0  0  0  0  0  0  0  0  0  0  0  0
  1  2  2  0  0  0  0
  2  3  1  0  0  0  0
  2 17  1  0  0  0  0
  3  4  1  0  0  0  0
  3 24  1  0  0  0  0
  4  5  1  0  0  0  0
  4 25  1  0  0  0  0
  4 26  1  0  0  0  0
  5  6  1  0  0  0  0
  5 11  1  0  0  0  0
  5 27  1  0  0  0  0
  6 10  1  0  0  0  0
  6  7  1  0  0  0  0
  6 28  1  0  0  0  0
  7  8  1  0  0  0  0
  7 29  1  0  0  0  0
  7 30  1  0  0  0  0
  8  9  1  0  0  0  0
  8 31  1  0  0  0  0
  8 32  1  0  0  0  0
  9 10  1  0  0  0  0
 10 33  1  0  0  0  0
 10 34  1  0  0  0  0
 11 16  1  0  0  0  0
 11 12  1  0  0  0  0
 12 13  1  0  0  0  0
 12 35  1  0  0  0  0
 12 36  1  0  0  0  0
 13 14  1  0  0  0  0
 13 37  1  0  0  0  0
 13 38  1  0  0  0  0
 14 15  1  0  0  0  0
 15 16  1  0  0  0  0
 15 39  1  0  0  0  0
 15 40  1  0  0  0  0
 16 41  1  0  0  0  0
 16 42  1  0  0  0  0
 17 18  1  0  0  0  0
 17 43  1  0  0  0  0
 18 23  1  0  0  0  0
 18 19  2  0  0  0  0
 19 20  1  0  0  0  0
 19 44  1  0  0  0  0
 20 21  2  0  0  0  0
 20 45  1  0  0  0  0
 21 22  1  0  0  0  0
 22 23  2  0  0  0  0
 22 46  1  0  0  0  0
 23 47  1  0  0  0  0
M  END
> <s_m_source_file>
AV-unprocessed.smi

> <i_m_source_file_index>
1240

> <i_lp_mmshare_version>
43012

> <i_f3d_flags>
0

> <s_epik_input>
W2NIXTFbY0hdbltjSF1bY0hdYzFbTkhdQyg9TylbTkhdW0NIMl1bQ0BIXShbQ0BASF0yW0NIMl1bQ0gyXU9bQ0gyXTIpTjNbQ0gyXVtDSDJdT1tDSDJdW0NIMl0z

> <s_epik_cmdline>
J2VwaWtfcHl0aG9uJywgJy1waCcsICc3LjAnLCAnLXRuJywgJzgnLCAnLW1hJywgJzIwMCcsICctbWV0YWxfYmluZGluZycsICctaW1hZScsICc8aW5maWxlLm1hZT4nLCAnLW9tYWUnLCAnPG91dGZpbGUubWFlPic=

> <r_epik_Ionization_Penalty>
0.238664

> <r_epik_Ionization_Penalty_Charging>
0

> <r_epik_Ionization_Penalty_Neutral>
0.238664

> <r_epik_State_Penalty>
0.217087

> <r_epik_Charging_Adjusted_Penalty>
0.217087

> <i_epik_Tot_Q>
0

> <i_epik_Tot_abs_Q>
0

> <r_epik_Metal_State_Penalty>
0.199194

> <b_epik_Metal_Only>
0

> <s_lp_Force_Field>
OPLS_2005

> <r_lp_Energy>
59.2824

> <b_lp_Chiralities_Consistent>
1

> <s_lp_Variant>
AV-unprocessed.smi:1240-2

> <Gold.Version>
5.8.1

> <Gold.Id.Protein>
6NUR|6NUR_protein|mol2

> <Gold.PLP.Fitness>
44.5656

> <Gold.PLP.PLP>
-33.0223

> <Gold.PLP.part.hbond>
-4.2701

> <Gold.PLP.part.metal>
0.0000

> <Gold.PLP.part.buried>
-3.5366

> <Gold.PLP.part.nonpolar>
-28.2848

> <Gold.PLP.part.repulsive>
1.8899

> <Gold.PLP.ligand.clash>
0.0000

> <Gold.PLP.ligand.torsion>
1.0799

> <Gold.PLP.Chemscore.Hbond>
2.5857

> <Gold.PLP.Chemscore.CHOScore>
1.8337

> <Gold.PLP.Chemscore.Metal>
0.0000

> <Gold.Chemscore.Hbonds>
donor molecule, donor type, donor heavy atom, donor atom, acceptor molecule, acceptor atom, score
      L1  H     3    24       P1  7948  1.00
      L1  H    17    43       P1  7948  0.92
      P1  H  8011  8017       L1     9  0.38
      P1  H 10785 10796       L1    21  0.25
      L1  C    20    45       P1 10747  0.75
      L1  C    22    46       P1 10186  0.89
      L1  C    22    46       P1 10952  0.15

> <Gold.PLP.Chemscore.Internal.Correction>
0.4448

> <Gold.Rescore>
     Score         DG    S(hbond)    S(metal)    S(lipo)     H(rot)  DE(clash)    DE(int)     intcor
     13.63     -17.81       1.99        0.00      84.81       1.65       0.88       3.29       ----

> <Gold.Chemscore.Fitness>
13.6313

> <Gold.Chemscore.DG>
-17.8080

> <Gold.Chemscore.ZeroCoef>
-5.4800

> <Gold.Chemscore.Hbond>
1.9856

> <Gold.Chemscore.Metal>
0.0000

> <Gold.Chemscore.Lipo>
84.8051

> <Gold.Chemscore.Internal_Hbond>
0.0000

> <Gold.Chemscore.DEClash>
0.8846

> <Gold.Chemscore.DEInternal>
3.2920

> <Gold.Chemscore.Rot>
1.6508

> <Gold.Chemscore.Internal.Correction>
   9.000000E+99

> <Gold.Chemscore.Hbonds>
donor molecule, donor type, donor heavy atom, donor atom, acceptor molecule, acceptor atom, score
      L1  H     3    24       P1  7948  1.00
      L1  H    17    43       P1  7948  0.69
      P1  H  8011  8017       L1     9  0.08
      P1  H 10785 10796       L1    21  0.16

> <Gold.Chemscore.Hbond.Weighted>
-6.6319

> <Gold.Chemscore.Metal.Weighted>
-0.0000

> <Gold.Chemscore.Lipo.Weighted>
-9.9222

> <Gold.Chemscore.Internal_Hbond.Weighted>
0.0000

> <Gold.Chemscore.DEClash.Weighted>
0.8846

> <Gold.Chemscore.DEInternal.Weighted>
3.2920

> <Gold.Chemscore.Rot.Weighted>
4.2262

> <Gold.Chemscore.Internal.Correction.Weighted>
   9.000000E+99

> <Gold.Protein.RotatedTorsions>
[ 6907 6896 6895 6894 ] final   43.17 input  -60.11 | X-H torsion
[ 7974 7965 7964 7962 ] final  -97.10 input  175.53 | X-H torsion
[ 8008 7997 7996 7995 ] final  -76.64 input   59.86 | X-H torsion
[ 10167 10162 10161 10158 ] final   26.19 input  -65.29 | X-H torsion
[ 10718 10713 10712 10709 ] final -159.19 input   66.30 | X-H torsion
[ 10763 10752 10751 10750 ] final   72.29 input  -60.55 | X-H torsion
[ 11005 11000 10999 10996 ] final  -62.59 input  -57.11 | X-H torsion

> <Gold.Protein.ActiveResidues>
 VAL166  LYS551  ARG553  GLY616  TRP617  ASP618  TYR619  PRO620  LYS621  CYS622 
 ASP623  PHE694  ASN695  SER759  ASP760  ASP761  ALA762  ILE779  LEU786  VAL792 
 PHE793  MET794  SER795  GLU796  ALA797  LYS798  CYS799  TRP800  GLU811  SER814 

> <Gold.Protein.RotatedAtoms>
  152.2170  134.8448  160.0490 H   0  0  0  0  0  0  0  0  0  0  0  0  # atno 6907 bound_to 6896
  151.9246  133.3589  159.3917 H   0  0  0  0  0  0  0  0  0  0  0  0  # atno 6908 bound_to 6896
  150.6990  134.4525  159.5387 H   0  0  0  0  0  0  0  0  0  0  0  0  # atno 6909 bound_to 6896
  145.3381  140.9454  143.2623 H   0  0  0  0  0  0  0  0  0  0  0  0  # atno 7974 bound_to 7965
  154.5523  140.0724  156.8688 H   0  0  0  0  0  0  0  0  0  0  0  0  # atno 8008 bound_to 7997
  155.2968  140.3381  155.4231 H   0  0  0  0  0  0  0  0  0  0  0  0  # atno 8009 bound_to 7997
  156.1972  140.1708  156.7959 H   0  0  0  0  0  0  0  0  0  0  0  0  # atno 8010 bound_to 7997
  140.5043  144.0263  150.6346 H   0  0  0  0  0  0  0  0  0  0  0  0  # atno 10167 bound_to 10162
  156.5647  130.8662  151.2820 H   0  0  0  0  0  0  0  0  0  0  0  0  # atno 10718 bound_to 10713
  153.0450  135.5105  154.7721 H   0  0  0  0  0  0  0  0  0  0  0  0  # atno 10763 bound_to 10752
  154.6628  135.2941  154.9846 H   0  0  0  0  0  0  0  0  0  0  0  0  # atno 10764 bound_to 10752
  154.0691  135.6680  153.4874 H   0  0  0  0  0  0  0  0  0  0  0  0  # atno 10765 bound_to 10752
  141.1365  133.6642  156.5551 H   0  0  0  0  0  0  0  0  0  0  0  0  # atno 11005 bound_to 11000
  144.8811  139.4902  143.6722 LP  0  0  0  0  0  0  0  0  0  0  0  0  # atno 17320 bound_to 7965
  146.3018  139.7452  142.9085 LP  0  0  0  0  0  0  0  0  0  0  0  0  # atno 17321 bound_to 7965
  140.3568  143.2931  152.0427 LP  0  0  0  0  0  0  0  0  0  0  0  0  # atno 17342 bound_to 10162
  139.4880  144.6333  151.7027 LP  0  0  0  0  0  0  0  0  0  0  0  0  # atno 17343 bound_to 10162
  157.7361  130.9773  150.2118 LP  0  0  0  0  0  0  0  0  0  0  0  0  # atno 17370 bound_to 10713
  156.2768  130.3728  149.7976 LP  0  0  0  0  0  0  0  0  0  0  0  0  # atno 17371 bound_to 10713
  140.4032  134.7338  157.4792 LP  0  0  0  0  0  0  0  0  0  0  0  0  # atno 17394 bound_to 11000
  140.0481  134.6171  155.8896 LP  0  0  0  0  0  0  0  0  0  0  0  0  # atno 17395 bound_to 11000

$$$$
