AV-unprocessed.smi:2699|AV-procd|sdf|10424|dock1
  -GOLD-   2272014463D 1   1.00000     0.00000
 Structure written by MMmdl.
 43 45  0  0  0  0  0  0  0  0  1 V2000
  151.8092  144.3196  160.3113 C   0  0  0  0  0  0  0  0  0  0  0  0
  152.5362  142.9806  160.2899 C   0  0  0  0  0  0  0  0  0  0  0  0
  153.2991  142.5886  161.3267 C   0  0  0  0  0  0  0  0  0  0  0  0
  153.9473  141.3008  161.2930 C   0  0  0  0  0  0  0  0  0  0  0  0
  154.7153  140.9083  162.3167 O   0  0  0  0  0  0  0  0  0  0  0  0
  153.7695  140.4939  160.2310 C   0  0  0  0  0  0  0  0  0  0  0  0
  152.9393  140.8866  159.0901 C   0  0  0  0  0  0  0  0  0  0  0  0
  152.7733  140.1328  158.1299 O   0  0  0  0  0  0  0  0  0  0  0  0
  152.3682  142.1331  159.1549 N   0  0  0  0  0  0  0  0  0  0  0  0
  151.5570  142.5947  158.0038 C   0  0  0  0  0  0  0  0  0  0  0  0
  150.2806  141.7603  157.7734 C   0  0  0  0  0  0  0  0  0  0  0  0
  150.1100  140.7003  158.3737 O   0  0  0  0  0  0  0  0  0  0  0  0
  149.3582  142.2169  156.9124 N   0  0  0  0  0  0  0  0  0  0  0  0
  148.0960  141.5691  156.5683 C   0  0  0  0  0  0  0  0  0  0  0  0
  148.1475  140.9006  155.1811 C   0  0  0  0  0  0  0  0  0  0  0  0
  149.2589  139.8465  155.2188 C   0  0  0  0  0  0  0  0  0  0  0  0
  149.3243  138.7304  154.2068 C   0  0  0  0  0  0  0  0  0  0  0  0
  149.0684  138.4167  155.6690 C   0  0  0  0  0  0  0  0  0  0  0  0
  146.7928  140.4149  154.6197 C   0  0  0  0  0  0  0  0  0  0  0  0
  146.6188  141.7611  153.9190 C   0  0  0  0  0  0  0  0  0  0  0  0
  148.1370  141.9092  154.0053 C   0  0  0  0  0  0  0  0  0  0  0  0
  151.8048  144.7384  161.3179 H   0  0  0  0  0  0  0  0  0  0  0  0
  150.7671  144.2241  160.0072 H   0  0  0  0  0  0  0  0  0  0  0  0
  152.3077  145.0365  159.6586 H   0  0  0  0  0  0  0  0  0  0  0  0
  153.4174  143.2278  162.1899 H   0  0  0  0  0  0  0  0  0  0  0  0
  155.3691  140.3191  161.9723 H   0  0  0  0  0  0  0  0  0  0  0  0
  154.2531  139.5276  160.2113 H   0  0  0  0  0  0  0  0  0  0  0  0
  151.2902  143.6458  158.0996 H   0  0  0  0  0  0  0  0  0  0  0  0
  152.1542  142.5699  157.0910 H   0  0  0  0  0  0  0  0  0  0  0  0
  149.5501  143.0949  156.4520 H   0  0  0  0  0  0  0  0  0  0  0  0
  147.8627  140.8342  157.3400 H   0  0  0  0  0  0  0  0  0  0  0  0
  147.2935  142.3075  156.5966 H   0  0  0  0  0  0  0  0  0  0  0  0
  150.2199  140.2598  155.5196 H   0  0  0  0  0  0  0  0  0  0  0  0
  148.4905  138.6197  153.5166 H   0  0  0  0  0  0  0  0  0  0  0  0
  150.3020  138.4812  153.7999 H   0  0  0  0  0  0  0  0  0  0  0  0
  149.8814  137.9602  156.2297 H   0  0  0  0  0  0  0  0  0  0  0  0
  148.0754  138.0741  155.9470 H   0  0  0  0  0  0  0  0  0  0  0  0
  146.8976  139.5904  153.9123 H   0  0  0  0  0  0  0  0  0  0  0  0
  146.0310  140.1948  155.3682 H   0  0  0  0  0  0  0  0  0  0  0  0
  146.2220  141.7006  152.9054 H   0  0  0  0  0  0  0  0  0  0  0  0
  146.0802  142.4917  154.5243 H   0  0  0  0  0  0  0  0  0  0  0  0
  148.4745  142.9136  154.2628 H   0  0  0  0  0  0  0  0  0  0  0  0
  148.6254  141.5617  153.0960 H   0  0  0  0  0  0  0  0  0  0  0  0
  1  2  1  0  0  0  0
  1 22  1  0  0  0  0
  1 23  1  0  0  0  0
  1 24  1  0  0  0  0
  2  9  1  0  0  0  0
  2  3  2  0  0  0  0
  3  4  1  0  0  0  0
  3 25  1  0  0  0  0
  4  5  1  0  0  0  0
  4  6  2  0  0  0  0
  5 26  1  0  0  0  0
  6  7  1  0  0  0  0
  6 27  1  0  0  0  0
  7  8  2  0  0  0  0
  7  9  1  0  0  0  0
  9 10  1  0  0  0  0
 10 11  1  0  0  0  0
 10 28  1  0  0  0  0
 10 29  1  0  0  0  0
 11 12  2  0  0  0  0
 11 13  1  0  0  0  0
 13 14  1  0  0  0  0
 13 30  1  0  0  0  0
 14 15  1  0  0  0  0
 14 31  1  0  0  0  0
 14 32  1  0  0  0  0
 15 21  1  0  0  0  0
 15 16  1  0  0  0  0
 15 19  1  0  0  0  0
 16 18  1  0  0  0  0
 16 17  1  0  0  0  0
 16 33  1  0  0  0  0
 17 18  1  0  0  0  0
 17 34  1  0  0  0  0
 17 35  1  0  0  0  0
 18 36  1  0  0  0  0
 18 37  1  0  0  0  0
 19 20  1  0  0  0  0
 19 38  1  0  0  0  0
 19 39  1  0  0  0  0
 20 21  1  0  0  0  0
 20 40  1  0  0  0  0
 20 41  1  0  0  0  0
 21 42  1  0  0  0  0
 21 43  1  0  0  0  0
M  END
> <s_m_source_file>
AV-unprocessed.smi

> <i_m_source_file_index>
2699

> <i_lp_mmshare_version>
43012

> <i_f3d_flags>
0

> <s_epik_input>
W0NIM11jMVtjSF1jKFtPSF0pW2NIXWMoPU8pbjFbQ0gyXUMoPU8pW05IXVtDSDJdQzIoW0NIXTNbQ0gyXVtDSDJdMylbQ0gyXVtDSDJdW0NIMl0y

> <s_epik_cmdline>
J2VwaWtfcHl0aG9uJywgJy1waCcsICc3LjAnLCAnLXRuJywgJzgnLCAnLW1hJywgJzIwMCcsICctbWV0YWxfYmluZGluZycsICctaW1hZScsICc8aW5maWxlLm1hZT4nLCAnLW9tYWUnLCAnPG91dGZpbGUubWFlPic=

> <r_lp_tautomer_probability>
0.999984

> <r_epik_Ionization_Penalty>
0.783068

> <r_epik_Ionization_Penalty_Charging>
1.5268e-07

> <r_epik_Ionization_Penalty_Neutral>
0.783068

> <r_epik_State_Penalty>
0.823318

> <r_epik_Charging_Adjusted_Penalty>
0.823318

> <i_epik_Tot_Q>
0

> <i_epik_Tot_abs_Q>
0

> <r_epik_Metal_State_Penalty>
0.823318

> <b_epik_Metal_Only>
0

> <s_lp_Force_Field>
OPLS_2005

> <r_lp_Energy>
38.185

> <b_lp_Chiralities_Consistent>
1

> <s_lp_Variant>
AV-unprocessed.smi:2699-2

> <Gold.Version>
5.8.1

> <Gold.Id.Protein>
6NUR|6NUR_protein|mol2

> <Gold.PLP.Fitness>
47.0136

> <Gold.PLP.PLP>
-41.5293

> <Gold.PLP.part.hbond>
-3.0000

> <Gold.PLP.part.metal>
0.0000

> <Gold.PLP.part.buried>
-4.0899

> <Gold.PLP.part.nonpolar>
-34.0434

> <Gold.PLP.part.repulsive>
0.0056

> <Gold.PLP.ligand.clash>
0.0000

> <Gold.PLP.ligand.torsion>
1.0807

> <Gold.PLP.Chemscore.Hbond>
1.9600

> <Gold.PLP.Chemscore.CHOScore>
0.0000

> <Gold.PLP.Chemscore.Metal>
0.0000

> <Gold.Chemscore.Hbonds>
donor molecule, donor type, donor heavy atom, donor atom, acceptor molecule, acceptor atom, score
      L1  H    13    30       P1  8028  0.98
      P1  H  7997  8010       L1     8  0.80

> <Gold.PLP.Chemscore.Internal.Correction>
1.7657

> <Gold.Rescore>
     Score         DG    S(hbond)    S(metal)    S(lipo)     H(rot)  DE(clash)    DE(int)     intcor
     14.86     -17.38       1.81        0.00     100.27       2.30       1.04       1.48       ----

> <Gold.Chemscore.Fitness>
14.8621

> <Gold.Chemscore.DG>
-17.3787

> <Gold.Chemscore.ZeroCoef>
-5.4800

> <Gold.Chemscore.Hbond>
1.8098

> <Gold.Chemscore.Metal>
0.0000

> <Gold.Chemscore.Lipo>
100.2744

> <Gold.Chemscore.Internal_Hbond>
0.0000

> <Gold.Chemscore.DEClash>
1.0410

> <Gold.Chemscore.DEInternal>
1.4755

> <Gold.Chemscore.Rot>
2.2962

> <Gold.Chemscore.Internal.Correction>
   9.000000E+99

> <Gold.Chemscore.Hbonds>
donor molecule, donor type, donor heavy atom, donor atom, acceptor molecule, acceptor atom, score
      L1  H    13    30       P1  8028  0.93
      P1  H  7997  8010       L1     8  0.56

> <Gold.Chemscore.Hbond.Weighted>
-6.0449

> <Gold.Chemscore.Metal.Weighted>
-0.0000

> <Gold.Chemscore.Lipo.Weighted>
-11.7321

> <Gold.Chemscore.Internal_Hbond.Weighted>
0.0000

> <Gold.Chemscore.DEClash.Weighted>
1.0410

> <Gold.Chemscore.DEInternal.Weighted>
1.4755

> <Gold.Chemscore.Rot.Weighted>
5.8783

> <Gold.Chemscore.Internal.Correction.Weighted>
   9.000000E+99

> <Gold.Protein.RotatedTorsions>
[ 6907 6896 6895 6894 ] final  169.58 input  -60.11 | X-H torsion
[ 7974 7965 7964 7962 ] final  -41.02 input  175.53 | X-H torsion
[ 8008 7997 7996 7995 ] final   38.87 input   59.86 | X-H torsion
[ 10167 10162 10161 10158 ] final   88.87 input  -65.29 | X-H torsion
[ 10718 10713 10712 10709 ] final   49.51 input   66.30 | X-H torsion
[ 10763 10752 10751 10750 ] final   96.29 input  -60.55 | X-H torsion
[ 11005 11000 10999 10996 ] final -119.08 input  -57.11 | X-H torsion

> <Gold.Protein.ActiveResidues>
 VAL166  LYS551  ARG553  GLY616  TRP617  ASP618  TYR619  PRO620  LYS621  CYS622 
 ASP623  PHE694  ASN695  SER759  ASP760  ASP761  ALA762  ILE779  LEU786  VAL792 
 PHE793  MET794  SER795  GLU796  ALA797  LYS798  CYS799  TRP800  GLU811  SER814 

> <Gold.Protein.RotatedAtoms>
  151.8296  133.3406  159.3608 H   0  0  0  0  0  0  0  0  0  0  0  0  # atno 6907 bound_to 6896
  150.7268  134.5496  159.5797 H   0  0  0  0  0  0  0  0  0  0  0  0  # atno 6908 bound_to 6896
  152.2946  134.7683  160.0422 H   0  0  0  0  0  0  0  0  0  0  0  0  # atno 6909 bound_to 6896
  146.0250  140.6803  142.9160 H   0  0  0  0  0  0  0  0  0  0  0  0  # atno 7974 bound_to 7965
  155.2272  140.3335  155.4308 H   0  0  0  0  0  0  0  0  0  0  0  0  # atno 8008 bound_to 7997
  156.2309  140.1850  156.7290 H   0  0  0  0  0  0  0  0  0  0  0  0  # atno 8009 bound_to 7997
  154.5977  140.0628  156.9311 H   0  0  0  0  0  0  0  0  0  0  0  0  # atno 8010 bound_to 7997
  139.8629  144.6534  150.9037 H   0  0  0  0  0  0  0  0  0  0  0  0  # atno 10167 bound_to 10162
  157.4794  130.8305  149.8076 H   0  0  0  0  0  0  0  0  0  0  0  0  # atno 10718 bound_to 10713
  153.2632  135.4224  155.0915 H   0  0  0  0  0  0  0  0  0  0  0  0  # atno 10763 bound_to 10752
  154.8428  135.3454  154.6348 H   0  0  0  0  0  0  0  0  0  0  0  0  # atno 10764 bound_to 10752
  153.6768  135.7041  153.5187 H   0  0  0  0  0  0  0  0  0  0  0  0  # atno 10765 bound_to 10752
  141.0240  134.0081  157.3241 H   0  0  0  0  0  0  0  0  0  0  0  0  # atno 11005 bound_to 11000
  144.7005  140.3633  143.7159 LP  0  0  0  0  0  0  0  0  0  0  0  0  # atno 17320 bound_to 7965
  145.7133  139.1690  143.2526 LP  0  0  0  0  0  0  0  0  0  0  0  0  # atno 17321 bound_to 7965
  140.7772  143.3728  151.1617 LP  0  0  0  0  0  0  0  0  0  0  0  0  # atno 17342 bound_to 10162
  139.7356  143.9004  152.3034 LP  0  0  0  0  0  0  0  0  0  0  0  0  # atno 17343 bound_to 10162
  156.0114  130.3832  150.2254 LP  0  0  0  0  0  0  0  0  0  0  0  0  # atno 17370 bound_to 10713
  157.0439  131.0043  151.3275 LP  0  0  0  0  0  0  0  0  0  0  0  0  # atno 17371 bound_to 10713
  139.9164  135.0197  156.7898 LP  0  0  0  0  0  0  0  0  0  0  0  0  # atno 17394 bound_to 11000
  140.6523  133.9720  155.7761 LP  0  0  0  0  0  0  0  0  0  0  0  0  # atno 17395 bound_to 11000

$$$$
