AV-unprocessed.smi:3220|AV-procd|sdf|12297|dock5
  -GOLD-   2272018143D 1   1.00000     0.00000
 Structure written by MMmdl.
 33 34  0  0  0  0  0  0  0  0  1 V2000
  149.9510  140.1356  158.2154 C   0  0  0  0  0  0  0  0  0  0  0  0
  150.5579  141.4126  157.6160 C   0  0  2  0  0  0  0  0  0  0  0  0
  151.1218  141.1658  156.2029 C   0  0  0  0  0  0  0  0  0  0  0  0
  150.0859  140.8263  155.2425 N   0  0  0  0  0  0  0  0  0  0  0  0
  149.0558  141.6171  154.7783 C   0  0  0  0  0  0  0  0  0  0  0  0
  148.3308  140.8656  153.8988 C   0  0  0  0  0  0  0  0  0  0  0  0
  149.0077  139.6141  153.8864 C   0  0  0  0  0  0  0  0  0  0  0  0
  150.0598  139.5948  154.6886 N   0  0  0  0  0  0  0  0  0  0  0  0
  151.6144  141.9165  158.4905 N   0  0  0  0  0  0  0  0  0  0  0  0
  152.7552  141.2770  158.7944 C   0  0  0  0  0  0  0  0  0  0  0  0
  153.0708  140.1951  158.2987 O   0  0  0  0  0  0  0  0  0  0  0  0
  153.6936  141.9700  159.7993 C   0  0  2  0  0  0  0  0  0  0  0  0
  153.8990  141.1749  161.1062 C   0  0  0  0  0  0  0  0  0  0  0  0
  153.3705  142.0926  162.1967 C   0  0  0  0  0  0  0  0  0  0  0  0
  152.4416  143.0264  161.4361 C   0  0  0  0  0  0  0  0  0  0  0  0
  153.1368  143.2197  160.2141 O   0  0  0  0  0  0  0  0  0  0  0  0
  149.1498  139.7496  157.5849 H   0  0  0  0  0  0  0  0  0  0  0  0
  149.5282  140.3264  159.2023 H   0  0  0  0  0  0  0  0  0  0  0  0
  150.7005  139.3504  158.3196 H   0  0  0  0  0  0  0  0  0  0  0  0
  149.7633  142.1569  157.5359 H   0  0  0  0  0  0  0  0  0  0  0  0
  151.6542  142.0480  155.8440 H   0  0  0  0  0  0  0  0  0  0  0  0
  151.8466  140.3506  156.2225 H   0  0  0  0  0  0  0  0  0  0  0  0
  148.9221  142.6350  155.1142 H   0  0  0  0  0  0  0  0  0  0  0  0
  147.4508  141.1639  153.3487 H   0  0  0  0  0  0  0  0  0  0  0  0
  148.7679  138.7250  153.3222 H   0  0  0  0  0  0  0  0  0  0  0  0
  151.4489  142.8076  158.9362 H   0  0  0  0  0  0  0  0  0  0  0  0
  154.6469  142.1584  159.3047 H   0  0  0  0  0  0  0  0  0  0  0  0
  153.3417  140.2371  161.1136 H   0  0  0  0  0  0  0  0  0  0  0  0
  154.9483  140.9287  161.2707 H   0  0  0  0  0  0  0  0  0  0  0  0
  152.8677  141.5559  163.0018 H   0  0  0  0  0  0  0  0  0  0  0  0
  154.1922  142.6639  162.6305 H   0  0  0  0  0  0  0  0  0  0  0  0
  151.4779  142.5514  161.2470 H   0  0  0  0  0  0  0  0  0  0  0  0
  152.2683  143.9687  161.9560 H   0  0  0  0  0  0  0  0  0  0  0  0
  1  2  1  0  0  0  0
  1 17  1  0  0  0  0
  1 18  1  0  0  0  0
  1 19  1  0  0  0  0
  2  3  1  0  0  0  0
  2  9  1  0  0  0  0
  2 20  1  0  0  0  0
  3  4  1  0  0  0  0
  3 21  1  0  0  0  0
  3 22  1  0  0  0  0
  4  8  1  0  0  0  0
  4  5  1  0  0  0  0
  5  6  2  0  0  0  0
  5 23  1  0  0  0  0
  6  7  1  0  0  0  0
  6 24  1  0  0  0  0
  7  8  2  0  0  0  0
  7 25  1  0  0  0  0
  9 10  1  0  0  0  0
  9 26  1  0  0  0  0
 10 11  2  0  0  0  0
 10 12  1  0  0  0  0
 12 16  1  0  0  0  0
 12 13  1  0  0  0  0
 12 27  1  0  0  0  0
 13 14  1  0  0  0  0
 13 28  1  0  0  0  0
 13 29  1  0  0  0  0
 14 15  1  0  0  0  0
 14 30  1  0  0  0  0
 14 31  1  0  0  0  0
 15 16  1  0  0  0  0
 15 32  1  0  0  0  0
 15 33  1  0  0  0  0
M  END
> <s_m_source_file>
AV-unprocessed.smi

> <i_m_source_file_index>
3220

> <i_lp_mmshare_version>
43012

> <i_f3d_flags>
0

> <s_epik_input>
bjFbY0hdW2NIXVtjSF1uMVtDSDJdW0NAQEhdKFtDSDNdKVtOSF1DKD1PKVtDQEBIXTJbQ0gyXVtDSDJdW0NIMl1PMg==

> <s_epik_cmdline>
J2VwaWtfcHl0aG9uJywgJy1waCcsICc3LjAnLCAnLXRuJywgJzgnLCAnLW1hJywgJzIwMCcsICctbWV0YWxfYmluZGluZycsICctaW1hZScsICc8aW5maWxlLm1hZT4nLCAnLW9tYWUnLCAnPG91dGZpbGUubWFlPic=

> <r_lp_tautomer_probability>
1

> <r_epik_Ionization_Penalty>
0.00033363

> <r_epik_Ionization_Penalty_Charging>
0

> <r_epik_Ionization_Penalty_Neutral>
0.00033363

> <r_epik_State_Penalty>
-0

> <r_epik_Charging_Adjusted_Penalty>
0

> <i_epik_Tot_Q>
0

> <i_epik_Tot_abs_Q>
0

> <r_epik_Metal_State_Penalty>
-0

> <b_epik_Metal_Only>
0

> <s_lp_Force_Field>
OPLS_2005

> <r_lp_Energy>
17.2779

> <b_lp_Chiralities_Consistent>
1

> <s_lp_Variant>
AV-unprocessed.smi:3220-1

> <Gold.Version>
5.8.1

> <Gold.Id.Protein>
6NUR|6NUR_protein|mol2

> <Gold.PLP.Fitness>
42.6790

> <Gold.PLP.PLP>
-34.0937

> <Gold.PLP.part.hbond>
-1.0000

> <Gold.PLP.part.metal>
0.0000

> <Gold.PLP.part.buried>
-1.3641

> <Gold.PLP.part.nonpolar>
-31.1035

> <Gold.PLP.part.repulsive>
0.1857

> <Gold.PLP.ligand.clash>
0.0000

> <Gold.PLP.ligand.torsion>
0.0766

> <Gold.PLP.Chemscore.Hbond>
0.9920

> <Gold.PLP.Chemscore.CHOScore>
1.9138

> <Gold.PLP.Chemscore.Metal>
0.0000

> <Gold.Chemscore.Hbonds>
donor molecule, donor type, donor heavy atom, donor atom, acceptor molecule, acceptor atom, score
      P1  H  7997  8008       L1    11  0.98
      L1  C     5    23       P1  8028  1.00
      L1  C     7    25       P1  7948  0.15
      L1  C     7    25       P1  7957  0.11

> <Gold.PLP.Chemscore.Internal.Correction>
0.0212

> <Gold.Rescore>
     Score         DG    S(hbond)    S(metal)    S(lipo)     H(rot)  DE(clash)    DE(int)     intcor
     12.23     -13.61       0.86        0.00      80.38       1.62       0.24       1.14       ----

> <Gold.Chemscore.Fitness>
12.2284

> <Gold.Chemscore.DG>
-13.6129

> <Gold.Chemscore.ZeroCoef>
-5.4800

> <Gold.Chemscore.Hbond>
0.8622

> <Gold.Chemscore.Metal>
0.0000

> <Gold.Chemscore.Lipo>
80.3845

> <Gold.Chemscore.Internal_Hbond>
0.0000

> <Gold.Chemscore.DEClash>
0.2418

> <Gold.Chemscore.DEInternal>
1.1427

> <Gold.Chemscore.Rot>
1.6219

> <Gold.Chemscore.Internal.Correction>
   9.000000E+99

> <Gold.Chemscore.Hbonds>
donor molecule, donor type, donor heavy atom, donor atom, acceptor molecule, acceptor atom, score
      P1  H  7997  8008       L1    11  0.89

> <Gold.Chemscore.Hbond.Weighted>
-2.8799

> <Gold.Chemscore.Metal.Weighted>
-0.0000

> <Gold.Chemscore.Lipo.Weighted>
-9.4050

> <Gold.Chemscore.Internal_Hbond.Weighted>
0.0000

> <Gold.Chemscore.DEClash.Weighted>
0.2418

> <Gold.Chemscore.DEInternal.Weighted>
1.1427

> <Gold.Chemscore.Rot.Weighted>
4.1520

> <Gold.Chemscore.Internal.Correction.Weighted>
   9.000000E+99

> <Gold.Protein.RotatedTorsions>
[ 6907 6896 6895 6894 ] final  115.75 input  -60.11 | X-H torsion
[ 7974 7965 7964 7962 ] final -139.71 input  175.53 | X-H torsion
[ 8008 7997 7996 7995 ] final  -85.05 input   59.86 | X-H torsion
[ 10167 10162 10161 10158 ] final -112.48 input  -65.29 | X-H torsion
[ 10718 10713 10712 10709 ] final -145.43 input   66.30 | X-H torsion
[ 10763 10752 10751 10750 ] final -143.62 input  -60.55 | X-H torsion
[ 11005 11000 10999 10996 ] final   32.40 input  -57.11 | X-H torsion

> <Gold.Protein.ActiveResidues>
 VAL166  LYS551  ARG553  GLY616  TRP617  ASP618  TYR619  PRO620  LYS621  CYS622 
 ASP623  PHE694  ASN695  SER759  ASP760  ASP761  ALA762  ILE779  LEU786  VAL792 
 PHE793  MET794  SER795  GLU796  ALA797  LYS798  CYS799  TRP800  GLU811  SER814 

> <Gold.Protein.RotatedAtoms>
  152.4722  133.8055  159.6975 H   0  0  0  0  0  0  0  0  0  0  0  0  # atno 6907 bound_to 6896
  150.8717  133.7486  159.2965 H   0  0  0  0  0  0  0  0  0  0  0  0  # atno 6908 bound_to 6896
  151.5019  135.1065  159.9883 H   0  0  0  0  0  0  0  0  0  0  0  0  # atno 6909 bound_to 6896
  144.8655  140.6286  143.5301 H   0  0  0  0  0  0  0  0  0  0  0  0  # atno 7974 bound_to 7965
  154.6364  140.0597  156.9794 H   0  0  0  0  0  0  0  0  0  0  0  0  # atno 8008 bound_to 7997
  155.1584  140.3280  155.4398 H   0  0  0  0  0  0  0  0  0  0  0  0  # atno 8009 bound_to 7997
  156.2509  140.1935  156.6693 H   0  0  0  0  0  0  0  0  0  0  0  0  # atno 8010 bound_to 7997
  140.1223  143.4432  152.1683 H   0  0  0  0  0  0  0  0  0  0  0  0  # atno 10167 bound_to 10162
  156.3824  130.7843  151.2037 H   0  0  0  0  0  0  0  0  0  0  0  0  # atno 10718 bound_to 10713
  154.8462  135.3463  154.6217 H   0  0  0  0  0  0  0  0  0  0  0  0  # atno 10763 bound_to 10752
  153.6826  135.6979  153.5118 H   0  0  0  0  0  0  0  0  0  0  0  0  # atno 10764 bound_to 10752
  153.2656  135.4309  155.0894 H   0  0  0  0  0  0  0  0  0  0  0  0  # atno 10765 bound_to 10752
  140.2739  134.3051  155.7820 H   0  0  0  0  0  0  0  0  0  0  0  0  # atno 11005 bound_to 11000
  145.4230  139.1561  143.4064 LP  0  0  0  0  0  0  0  0  0  0  0  0  # atno 17320 bound_to 7965
  146.2892  140.4341  142.8746 LP  0  0  0  0  0  0  0  0  0  0  0  0  # atno 17321 bound_to 7965
  139.5562  144.7374  151.4287 LP  0  0  0  0  0  0  0  0  0  0  0  0  # atno 17342 bound_to 10162
  140.6865  143.7962  150.7193 LP  0  0  0  0  0  0  0  0  0  0  0  0  # atno 17343 bound_to 10162
  157.7493  131.0340  150.4298 LP  0  0  0  0  0  0  0  0  0  0  0  0  # atno 17370 bound_to 10713
  156.4544  130.4018  149.6615 LP  0  0  0  0  0  0  0  0  0  0  0  0  # atno 17371 bound_to 10713
  141.2173  133.7483  156.9376 LP  0  0  0  0  0  0  0  0  0  0  0  0  # atno 17394 bound_to 11000
  140.1347  134.9333  157.2386 LP  0  0  0  0  0  0  0  0  0  0  0  0  # atno 17395 bound_to 11000

$$$$
