AV-unprocessed.smi:1893|AV-procd|sdf|7671|dock10
  -GOLD-   22720 9413D 1   1.00000     0.00000
 Structure written by MMmdl.
 43 44  0  0  0  0  0  0  0  0  2 V2000
  147.0434  129.7753  153.2829 C   0  0  0  0  0  0  0  0  0  0  0  0
  146.5057  131.1389  152.7978 C   0  0  2  0  0  0  0  0  0  0  0  0
  145.4604  130.8810  151.6890 C   0  0  0  0  0  0  0  0  0  0  0  0
  144.8691  132.1800  151.1378 C   0  0  0  0  0  0  0  0  0  0  0  0
  146.0020  133.0773  150.6423 C   0  0  0  0  0  0  0  0  0  0  0  0
  147.0148  133.3321  151.7667 C   0  0  0  0  0  0  0  0  0  0  0  0
  147.5831  132.0646  152.3118 N   0  3  1  0  0  0  0  0  0  0  0  0
  148.6547  132.3342  153.3136 C   0  0  0  0  0  0  0  0  0  0  0  0
  148.3373  133.5334  154.2320 C   0  0  0  0  0  0  0  0  0  0  0  0
  149.5529  134.2443  154.6097 N   0  0  0  0  0  0  0  0  0  0  0  0
  149.5943  135.5066  155.0657 C   0  0  0  0  0  0  0  0  0  0  0  0
  148.5826  136.1866  155.2427 O   0  0  0  0  0  0  0  0  0  0  0  0
  150.9911  136.0831  155.3489 C   0  0  2  0  0  0  0  0  0  0  0  0
  151.5689  135.6209  156.7021 C   0  0  0  0  0  0  0  0  0  0  0  0
  150.9678  137.5363  155.2340 N   0  0  0  0  0  0  0  0  0  0  0  0
  150.5226  138.3124  154.2434 C   0  0  0  0  0  0  0  0  0  0  0  0
  150.6124  139.6108  154.4942 N   0  0  0  0  0  0  0  0  0  0  0  0
  151.1565  139.5644  155.7463 C   0  0  0  0  0  0  0  0  0  0  0  0
  151.3786  138.3469  156.2415 N   0  0  0  0  0  0  0  0  0  0  0  0
  146.2266  129.0717  153.4472 H   0  0  0  0  0  0  0  0  0  0  0  0
  147.5689  129.8458  154.2344 H   0  0  0  0  0  0  0  0  0  0  0  0
  147.7164  129.3281  152.5507 H   0  0  0  0  0  0  0  0  0  0  0  0
  146.0010  131.6221  153.6362 H   0  0  0  0  0  0  0  0  0  0  0  0
  145.9196  130.3195  150.8739 H   0  0  0  0  0  0  0  0  0  0  0  0
  144.6531  130.2563  152.0734 H   0  0  0  0  0  0  0  0  0  0  0  0
  144.1733  131.9650  150.3262 H   0  0  0  0  0  0  0  0  0  0  0  0
  144.2991  132.6908  151.9150 H   0  0  0  0  0  0  0  0  0  0  0  0
  146.5022  132.6112  149.7921 H   0  0  0  0  0  0  0  0  0  0  0  0
  145.5965  134.0240  150.2838 H   0  0  0  0  0  0  0  0  0  0  0  0
  147.8016  133.9682  151.3656 H   0  0  0  0  0  0  0  0  0  0  0  0
  146.5402  133.8933  152.5733 H   0  0  0  0  0  0  0  0  0  0  0  0
  148.8410  131.4358  153.9039 H   0  0  0  0  0  0  0  0  0  0  0  0
  149.5922  132.5671  152.8163 H   0  0  0  0  0  0  0  0  0  0  0  0
  147.6398  134.2168  153.7443 H   0  0  0  0  0  0  0  0  0  0  0  0
  147.8634  133.2114  155.1578 H   0  0  0  0  0  0  0  0  0  0  0  0
  150.4268  133.7508  154.4965 H   0  0  0  0  0  0  0  0  0  0  0  0
  151.6574  135.7095  154.5693 H   0  0  0  0  0  0  0  0  0  0  0  0
  151.6270  134.5332  156.7544 H   0  0  0  0  0  0  0  0  0  0  0  0
  150.9640  135.9605  157.5439 H   0  0  0  0  0  0  0  0  0  0  0  0
  152.5782  136.0078  156.8453 H   0  0  0  0  0  0  0  0  0  0  0  0
  150.1189  137.9196  153.3217 H   0  0  0  0  0  0  0  0  0  0  0  0
  151.3887  140.4543  156.3128 H   0  0  0  0  0  0  0  0  0  0  0  0
  148.0291  131.5886  151.5406 H   0  0  0  0  0  0  0  0  0  0  0  0
  1  2  1  0  0  0  0
  1 20  1  0  0  0  0
  1 21  1  0  0  0  0
  1 22  1  0  0  0  0
  2  7  1  0  0  0  0
  2  3  1  0  0  0  0
  2 23  1  0  0  0  0
  3  4  1  0  0  0  0
  3 24  1  0  0  0  0
  3 25  1  0  0  0  0
  4  5  1  0  0  0  0
  4 26  1  0  0  0  0
  4 27  1  0  0  0  0
  5  6  1  0  0  0  0
  5 28  1  0  0  0  0
  5 29  1  0  0  0  0
  6  7  1  0  0  0  0
  6 30  1  0  0  0  0
  6 31  1  0  0  0  0
  7  8  1  0  0  0  0
  7 43  1  0  0  0  0
  8  9  1  0  0  0  0
  8 32  1  0  0  0  0
  8 33  1  0  0  0  0
  9 10  1  0  0  0  0
  9 34  1  0  0  0  0
  9 35  1  0  0  0  0
 10 11  1  0  0  0  0
 10 36  1  0  0  0  0
 11 12  2  0  0  0  0
 11 13  1  0  0  0  0
 13 14  1  0  0  0  0
 13 15  1  0  0  0  0
 13 37  1  0  0  0  0
 14 38  1  0  0  0  0
 14 39  1  0  0  0  0
 14 40  1  0  0  0  0
 15 19  1  0  0  0  0
 15 16  1  0  0  0  0
 16 17  2  0  0  0  0
 16 41  1  0  0  0  0
 17 18  1  0  0  0  0
 18 19  2  0  0  0  0
 18 42  1  0  0  0  0
M  CHG  1   7   1
M  END
> <s_m_source_file>
AV-unprocessed.smi

> <i_m_source_file_index>
1893

> <i_lp_mmshare_version>
43012

> <i_f3d_flags>
0

> <s_epik_input>
W0NIM11bQ0BASF0xW0NIMl1bQ0gyXVtDSDJdW0NIMl1OMVtDSDJdW0NIMl1bTkhdQyg9TylbQ0BIXShbQ0gzXSluMltjSF1uW2NIXW4y

> <s_epik_cmdline>
J2VwaWtfcHl0aG9uJywgJy1waCcsICc3LjAnLCAnLXRuJywgJzgnLCAnLW1hJywgJzIwMCcsICctbWV0YWxfYmluZGluZycsICctaW1hZScsICc8aW5maWxlLm1hZT4nLCAnLW9tYWUnLCAnPG91dGZpbGUubWFlPic=

> <r_lp_tautomer_probability>
1

> <r_epik_Ionization_Penalty>
0.00266409

> <r_epik_Ionization_Penalty_Charging>
0.00265606

> <r_epik_Ionization_Penalty_Neutral>
8.02794e-06

> <r_epik_State_Penalty>
0.00184955

> <r_epik_Charging_Adjusted_Penalty>
0.00450561

> <i_epik_Tot_Q>
1

> <i_epik_Tot_abs_Q>
1

> <r_epik_Metal_State_Penalty>
-0

> <b_epik_Metal_Only>
0

> <s_lp_Force_Field>
OPLS_2005

> <r_lp_Energy>
24.7489

> <b_lp_Chiralities_Consistent>
1

> <s_lp_Variant>
AV-unprocessed.smi:1893-1

> <Gold.Version>
5.8.1

> <Gold.Id.Protein>
6NUR|6NUR_protein|mol2

> <Gold.PLP.Fitness>
39.8435

> <Gold.PLP.PLP>
-33.0779

> <Gold.PLP.part.hbond>
-2.0393

> <Gold.PLP.part.metal>
0.0000

> <Gold.PLP.part.buried>
-4.8834

> <Gold.PLP.part.nonpolar>
-26.4887

> <Gold.PLP.part.repulsive>
0.2776

> <Gold.PLP.ligand.clash>
0.0000

> <Gold.PLP.ligand.torsion>
1.3039

> <Gold.PLP.Chemscore.Hbond>
2.0000

> <Gold.PLP.Chemscore.CHOScore>
1.0812

> <Gold.PLP.Chemscore.Metal>
0.0000

> <Gold.Chemscore.Hbonds>
donor molecule, donor type, donor heavy atom, donor atom, acceptor molecule, acceptor atom, score
      L1  H     7    43       P1 10747  1.00
      P1  H  7989  7998       L1    17  1.00
      L1  C    16    41       P1  7948  1.00
      L1  C    16    41       P1  7949  0.04

> <Gold.PLP.Chemscore.Internal.Correction>
0.1297

> <Gold.Rescore>
     Score         DG    S(hbond)    S(metal)    S(lipo)     H(rot)  DE(clash)    DE(int)     intcor
     11.86     -13.26       1.92        0.00      67.09       2.54       0.03       1.38       ----

> <Gold.Chemscore.Fitness>
11.8577

> <Gold.Chemscore.DG>
-13.2611

> <Gold.Chemscore.ZeroCoef>
-5.4800

> <Gold.Chemscore.Hbond>
1.9245

> <Gold.Chemscore.Metal>
0.0000

> <Gold.Chemscore.Lipo>
67.0928

> <Gold.Chemscore.Internal_Hbond>
0.0000

> <Gold.Chemscore.DEClash>
0.0263

> <Gold.Chemscore.DEInternal>
1.3771

> <Gold.Chemscore.Rot>
2.5377

> <Gold.Chemscore.Internal.Correction>
   9.000000E+99

> <Gold.Chemscore.Hbonds>
donor molecule, donor type, donor heavy atom, donor atom, acceptor molecule, acceptor atom, score
      L1  H     7    43       P1 10747  1.00
      P1  H  7989  7998       L1    17  0.60

> <Gold.Chemscore.Hbond.Weighted>
-6.4278

> <Gold.Chemscore.Metal.Weighted>
-0.0000

> <Gold.Chemscore.Lipo.Weighted>
-7.8499

> <Gold.Chemscore.Internal_Hbond.Weighted>
0.0000

> <Gold.Chemscore.DEClash.Weighted>
0.0263

> <Gold.Chemscore.DEInternal.Weighted>
1.3771

> <Gold.Chemscore.Rot.Weighted>
6.4966

> <Gold.Chemscore.Internal.Correction.Weighted>
   9.000000E+99

> <Gold.Protein.RotatedTorsions>
[ 6907 6896 6895 6894 ] final -110.23 input  -60.11 | X-H torsion
[ 7974 7965 7964 7962 ] final  -90.10 input  175.53 | X-H torsion
[ 8008 7997 7996 7995 ] final  -40.06 input   59.86 | X-H torsion
[ 10167 10162 10161 10158 ] final  -74.79 input  -65.29 | X-H torsion
[ 10718 10713 10712 10709 ] final  166.19 input   66.30 | X-H torsion
[ 10763 10752 10751 10750 ] final   71.78 input  -60.55 | X-H torsion
[ 11005 11000 10999 10996 ] final  -71.88 input  -57.11 | X-H torsion

> <Gold.Protein.ActiveResidues>
 VAL166  LYS551  ARG553  GLY616  TRP617  ASP618  TYR619  PRO620  LYS621  CYS622 
 ASP623  PHE694  ASN695  SER759  ASP760  ASP761  ALA762  ILE779  LEU786  VAL792 
 PHE793  MET794  SER795  GLU796  ALA797  LYS798  CYS799  TRP800  GLU811  SER814 

> <Gold.Protein.RotatedAtoms>
  150.7612  133.9412  159.3456 H   0  0  0  0  0  0  0  0  0  0  0  0  # atno 6907 bound_to 6896
  151.7320  135.0871  160.0311 H   0  0  0  0  0  0  0  0  0  0  0  0  # atno 6908 bound_to 6896
  152.3583  133.6228  159.6032 H   0  0  0  0  0  0  0  0  0  0  0  0  # atno 6909 bound_to 6896
  145.4310  140.9556  143.2128 H   0  0  0  0  0  0  0  0  0  0  0  0  # atno 7974 bound_to 7965
  154.4016  140.1535  156.2965 H   0  0  0  0  0  0  0  0  0  0  0  0  # atno 8008 bound_to 7997
  155.8739  140.3447  155.5818 H   0  0  0  0  0  0  0  0  0  0  0  0  # atno 8009 bound_to 7997
  155.7744  140.0835  157.2082 H   0  0  0  0  0  0  0  0  0  0  0  0  # atno 8010 bound_to 7997
  140.4997  143.2363  151.7772 H   0  0  0  0  0  0  0  0  0  0  0  0  # atno 10167 bound_to 10162
  157.0693  131.0362  151.2617 H   0  0  0  0  0  0  0  0  0  0  0  0  # atno 10718 bound_to 10713
  153.0419  135.5124  154.7644 H   0  0  0  0  0  0  0  0  0  0  0  0  # atno 10763 bound_to 10752
  154.6575  135.2934  154.9911 H   0  0  0  0  0  0  0  0  0  0  0  0  # atno 10764 bound_to 10752
  154.0774  135.6669  153.4885 H   0  0  0  0  0  0  0  0  0  0  0  0  # atno 10765 bound_to 10752
  141.1599  133.6830  156.6973 H   0  0  0  0  0  0  0  0  0  0  0  0  # atno 11005 bound_to 11000
  144.8183  139.5838  143.6998 LP  0  0  0  0  0  0  0  0  0  0  0  0  # atno 17320 bound_to 7965
  146.2607  139.6403  142.9364 LP  0  0  0  0  0  0  0  0  0  0  0  0  # atno 17321 bound_to 7965
  139.4869  144.4539  151.9622 LP  0  0  0  0  0  0  0  0  0  0  0  0  # atno 17342 bound_to 10162
  140.3627  144.2953  150.5931 LP  0  0  0  0  0  0  0  0  0  0  0  0  # atno 17343 bound_to 10162
  157.4891  130.7811  149.7489 LP  0  0  0  0  0  0  0  0  0  0  0  0  # atno 17370 bound_to 10713
  155.9955  130.3911  150.2816 LP  0  0  0  0  0  0  0  0  0  0  0  0  # atno 17371 bound_to 10713
  140.2985  134.8183  157.4078 LP  0  0  0  0  0  0  0  0  0  0  0  0  # atno 17394 bound_to 11000
  140.1283  134.5129  155.8126 LP  0  0  0  0  0  0  0  0  0  0  0  0  # atno 17395 bound_to 11000

$$$$
