AV-unprocessed.smi:1330|AV-procd|sdf|5485|dock7
  -GOLD-   22720 5 63D 1   1.00000     0.00000
 Structure written by MMmdl.
 42 43  0  0  0  0  0  0  0  0  1 V2000
  148.2716  132.9162  153.2145 C   0  0  0  0  0  0  0  0  0  0  0  0
  149.2990  133.3409  154.2290 C   0  0  0  0  0  0  0  0  0  0  0  0
  149.3802  134.6067  154.4785 N   0  0  0  0  0  0  0  0  0  0  0  0
  150.2883  135.1017  155.3927 N   0  0  0  0  0  0  0  0  0  0  0  0
  150.2387  136.5594  155.5518 C   0  0  0  0  0  0  0  0  0  0  0  0
  150.6606  137.2955  154.2604 C   0  0  2  0  0  0  0  0  0  0  0  0
  152.0131  136.9910  153.9857 O   0  0  0  0  0  0  0  0  0  0  0  0
  150.5541  138.8210  154.4010 C   0  0  0  0  0  0  0  0  0  0  0  0
  151.1241  139.2006  155.6423 O   0  0  0  0  0  0  0  0  0  0  0  0
  151.6142  140.5312  155.6473 C   0  0  0  0  0  0  0  0  0  0  0  0
  152.1830  140.9253  156.9979 C   0  0  0  0  0  0  0  0  0  0  0  0
  152.9357  140.0028  157.7572 C   0  0  0  0  0  0  0  0  0  0  0  0
  153.4445  140.3710  159.0179 C   0  0  0  0  0  0  0  0  0  0  0  0
  153.1982  141.6601  159.5287 C   0  0  0  0  0  0  0  0  0  0  0  0
  153.8203  142.1100  161.0738 Cl  0  0  0  0  0  0  0  0  0  0  0  0
  152.4406  142.5805  158.7785 C   0  0  0  0  0  0  0  0  0  0  0  0
  151.9319  142.2126  157.5175 C   0  0  0  0  0  0  0  0  0  0  0  0
  151.1616  134.3404  156.1126 C   0  0  0  0  0  0  0  0  0  0  0  0
  151.9457  134.8250  156.9302 O   0  0  0  0  0  0  0  0  0  0  0  0
  151.0671  132.9080  155.8223 C   0  0  0  0  0  0  0  0  0  0  0  0
  151.9669  132.0740  156.5519 C   0  0  0  0  0  0  0  0  0  0  0  0
  152.6853  131.4000  157.1598 N   0  0  0  0  0  0  0  0  0  0  0  0
  150.1826  132.4090  154.9227 C   0  0  0  0  0  0  0  0  0  0  0  0
  150.0424  130.9304  154.5876 C   0  0  0  0  0  0  0  0  0  0  0  0
  147.5776  132.1938  153.6445 H   0  0  0  0  0  0  0  0  0  0  0  0
  148.7501  132.4536  152.3512 H   0  0  0  0  0  0  0  0  0  0  0  0
  147.6835  133.7611  152.8524 H   0  0  0  0  0  0  0  0  0  0  0  0
  149.2202  136.8401  155.8268 H   0  0  0  0  0  0  0  0  0  0  0  0
  150.8485  136.8843  156.3973 H   0  0  0  0  0  0  0  0  0  0  0  0
  150.0558  136.9797  153.4093 H   0  0  0  0  0  0  0  0  0  0  0  0
  152.0966  136.8089  153.0620 H   0  0  0  0  0  0  0  0  0  0  0  0
  151.0620  139.3207  153.5742 H   0  0  0  0  0  0  0  0  0  0  0  0
  149.5069  139.1280  154.3791 H   0  0  0  0  0  0  0  0  0  0  0  0
  152.3886  140.6370  154.8857 H   0  0  0  0  0  0  0  0  0  0  0  0
  150.8113  141.2258  155.3966 H   0  0  0  0  0  0  0  0  0  0  0  0
  153.1268  139.0095  157.3780 H   0  0  0  0  0  0  0  0  0  0  0  0
  154.0219  139.6619  159.5926 H   0  0  0  0  0  0  0  0  0  0  0  0
  152.2472  143.5686  159.1696 H   0  0  0  0  0  0  0  0  0  0  0  0
  151.3481  142.9227  156.9502 H   0  0  0  0  0  0  0  0  0  0  0  0
  150.7836  130.3190  155.1012 H   0  0  0  0  0  0  0  0  0  0  0  0
  150.1696  130.7640  153.5176 H   0  0  0  0  0  0  0  0  0  0  0  0
  149.0566  130.5661  154.8777 H   0  0  0  0  0  0  0  0  0  0  0  0
  1  2  1  0  0  0  0
  1 25  1  0  0  0  0
  1 26  1  0  0  0  0
  1 27  1  0  0  0  0
  2 23  1  0  0  0  0
  2  3  2  0  0  0  0
  3  4  1  0  0  0  0
  4  5  1  0  0  0  0
  4 18  1  0  0  0  0
  5  6  1  0  0  0  0
  5 28  1  0  0  0  0
  5 29  1  0  0  0  0
  6  7  1  0  0  0  0
  6  8  1  0  0  0  0
  6 30  1  0  0  0  0
  7 31  1  0  0  0  0
  8  9  1  0  0  0  0
  8 32  1  0  0  0  0
  8 33  1  0  0  0  0
  9 10  1  0  0  0  0
 10 11  1  0  0  0  0
 10 34  1  0  0  0  0
 10 35  1  0  0  0  0
 11 17  1  0  0  0  0
 11 12  2  0  0  0  0
 12 13  1  0  0  0  0
 12 36  1  0  0  0  0
 13 14  2  0  0  0  0
 13 37  1  0  0  0  0
 14 15  1  0  0  0  0
 14 16  1  0  0  0  0
 16 17  2  0  0  0  0
 16 38  1  0  0  0  0
 17 39  1  0  0  0  0
 18 19  2  0  0  0  0
 18 20  1  0  0  0  0
 20 21  1  0  0  0  0
 20 23  2  0  0  0  0
 21 22  3  0  0  0  0
 23 24  1  0  0  0  0
 24 40  1  0  0  0  0
 24 41  1  0  0  0  0
 24 42  1  0  0  0  0
M  END
> <s_m_source_file>
AV-unprocessed.smi

> <i_m_source_file_index>
1330

> <i_lp_mmshare_version>
43012

> <i_f3d_flags>
0

> <s_epik_input>
TiNDYyhjMVtDSDNdKWMoPU8pbihuYzFbQ0gzXSlbQ0gyXVtDQEhdKFtPSF0pW0NIMl1PW0NIMl1jMltjSF1bY0hdYyhDbClbY0hdW2NIXTI=

> <s_epik_cmdline>
J2VwaWtfcHl0aG9uJywgJy1waCcsICc3LjAnLCAnLXRuJywgJzgnLCAnLW1hJywgJzIwMCcsICctbWV0YWxfYmluZGluZycsICctaW1hZScsICc8aW5maWxlLm1hZT4nLCAnLW9tYWUnLCAnPG91dGZpbGUubWFlPic=

> <r_lp_tautomer_probability>
1

> <r_epik_Ionization_Penalty>
6.27695e-08

> <r_epik_Ionization_Penalty_Charging>
2.19172e-10

> <r_epik_Ionization_Penalty_Neutral>
6.25504e-08

> <r_epik_State_Penalty>
-0

> <r_epik_Charging_Adjusted_Penalty>
2.19172e-10

> <i_epik_Tot_Q>
0

> <i_epik_Tot_abs_Q>
0

> <r_epik_Metal_State_Penalty>
-0

> <b_epik_Metal_Only>
0

> <s_lp_Force_Field>
OPLS_2005

> <r_lp_Energy>
28.5495

> <b_lp_Chiralities_Consistent>
1

> <s_lp_Variant>
AV-unprocessed.smi:1330-1

> <Gold.Version>
5.8.1

> <Gold.Id.Protein>
6NUR|6NUR_protein|mol2

> <Gold.PLP.Fitness>
48.2992

> <Gold.PLP.PLP>
-45.6587

> <Gold.PLP.part.hbond>
-3.0000

> <Gold.PLP.part.metal>
0.0000

> <Gold.PLP.part.buried>
-4.7369

> <Gold.PLP.part.nonpolar>
-37.9002

> <Gold.PLP.part.repulsive>
0.4870

> <Gold.PLP.ligand.clash>
0.0000

> <Gold.PLP.ligand.torsion>
0.5613

> <Gold.PLP.Chemscore.Hbond>
1.2260

> <Gold.PLP.Chemscore.CHOScore>
0.0000

> <Gold.PLP.Chemscore.Metal>
0.0000

> <Gold.Chemscore.Hbonds>
donor molecule, donor type, donor heavy atom, donor atom, acceptor molecule, acceptor atom, score
      L1  H     7    31       P1  7949  0.90
      P1  H 10752 10763       L1     7  0.40

> <Gold.PLP.Chemscore.Internal.Correction>
0.0852

> <Gold.Rescore>
     Score         DG    S(hbond)    S(metal)    S(lipo)     H(rot)  DE(clash)    DE(int)     intcor
     13.71     -14.42       0.66        0.00     111.90       2.48       0.17       0.54       ----

> <Gold.Chemscore.Fitness>
13.7135

> <Gold.Chemscore.DG>
-14.4199

> <Gold.Chemscore.ZeroCoef>
-5.4800

> <Gold.Chemscore.Hbond>
0.6557

> <Gold.Chemscore.Metal>
0.0000

> <Gold.Chemscore.Lipo>
111.9037

> <Gold.Chemscore.Internal_Hbond>
0.0000

> <Gold.Chemscore.DEClash>
0.1651

> <Gold.Chemscore.DEInternal>
0.5412

> <Gold.Chemscore.Rot>
2.4777

> <Gold.Chemscore.Internal.Correction>
   9.000000E+99

> <Gold.Chemscore.Hbonds>
donor molecule, donor type, donor heavy atom, donor atom, acceptor molecule, acceptor atom, score
      L1  H     7    31       P1  7949  0.84
      P1  H 10752 10763       L1     7  0.01

> <Gold.Chemscore.Hbond.Weighted>
-2.1900

> <Gold.Chemscore.Metal.Weighted>
-0.0000

> <Gold.Chemscore.Lipo.Weighted>
-13.0927

> <Gold.Chemscore.Internal_Hbond.Weighted>
0.0000

> <Gold.Chemscore.DEClash.Weighted>
0.1651

> <Gold.Chemscore.DEInternal.Weighted>
0.5412

> <Gold.Chemscore.Rot.Weighted>
6.3428

> <Gold.Chemscore.Internal.Correction.Weighted>
   9.000000E+99

> <Gold.Protein.RotatedTorsions>
[ 6907 6896 6895 6894 ] final -103.95 input  -60.11 | X-H torsion
[ 7974 7965 7964 7962 ] final  103.50 input  175.53 | X-H torsion
[ 8008 7997 7996 7995 ] final  129.82 input   59.86 | X-H torsion
[ 10167 10162 10161 10158 ] final  -80.06 input  -65.29 | X-H torsion
[ 10718 10713 10712 10709 ] final  172.04 input   66.30 | X-H torsion
[ 10763 10752 10751 10750 ] final   41.08 input  -60.55 | X-H torsion
[ 11005 11000 10999 10996 ] final  155.25 input  -57.11 | X-H torsion

> <Gold.Protein.ActiveResidues>
 VAL166  LYS551  ARG553  GLY616  TRP617  ASP618  TYR619  PRO620  LYS621  CYS622 
 ASP623  PHE694  ASN695  SER759  ASP760  ASP761  ALA762  ILE779  LEU786  VAL792 
 PHE793  MET794  SER795  GLU796  ALA797  LYS798  CYS799  TRP800  GLU811  SER814 

> <Gold.Protein.RotatedAtoms>
  150.7264  134.0352  159.3746 H   0  0  0  0  0  0  0  0  0  0  0  0  # atno 6907 bound_to 6896
  151.8323  135.0615  160.0447 H   0  0  0  0  0  0  0  0  0  0  0  0  # atno 6908 bound_to 6896
  152.2924  133.5538  159.5602 H   0  0  0  0  0  0  0  0  0  0  0  0  # atno 6909 bound_to 6896
  145.3451  139.2453  143.3588 H   0  0  0  0  0  0  0  0  0  0  0  0  # atno 7974 bound_to 7965
  156.2943  140.2611  156.2662 H   0  0  0  0  0  0  0  0  0  0  0  0  # atno 8008 bound_to 7997
  154.9740  140.0390  157.2266 H   0  0  0  0  0  0  0  0  0  0  0  0  # atno 8009 bound_to 7997
  154.7832  140.2799  155.6052 H   0  0  0  0  0  0  0  0  0  0  0  0  # atno 8010 bound_to 7997
  140.4537  143.2475  151.8451 H   0  0  0  0  0  0  0  0  0  0  0  0  # atno 10167 bound_to 10162
  156.9847  131.0129  151.2872 H   0  0  0  0  0  0  0  0  0  0  0  0  # atno 10718 bound_to 10713
  152.9918  135.6172  154.2730 H   0  0  0  0  0  0  0  0  0  0  0  0  # atno 10763 bound_to 10752
  154.2462  135.2787  155.2836 H   0  0  0  0  0  0  0  0  0  0  0  0  # atno 10764 bound_to 10752
  154.5327  135.5783  153.6830 H   0  0  0  0  0  0  0  0  0  0  0  0  # atno 10765 bound_to 10752
  140.1564  134.8639  157.2520 H   0  0  0  0  0  0  0  0  0  0  0  0  # atno 11005 bound_to 11000
  146.2991  140.4056  142.8710 LP  0  0  0  0  0  0  0  0  0  0  0  0  # atno 17320 bound_to 7965
  144.8760  140.7337  143.6016 LP  0  0  0  0  0  0  0  0  0  0  0  0  # atno 17321 bound_to 7965
  139.4799  144.5090  151.8959 LP  0  0  0  0  0  0  0  0  0  0  0  0  # atno 17342 bound_to 10162
  140.4176  144.2286  150.5887 LP  0  0  0  0  0  0  0  0  0  0  0  0  # atno 17343 bound_to 10162
  157.5501  130.8177  149.8134 LP  0  0  0  0  0  0  0  0  0  0  0  0  # atno 17370 bound_to 10713
  156.0230  130.3789  150.1904 LP  0  0  0  0  0  0  0  0  0  0  0  0  # atno 17371 bound_to 10713
  140.2542  134.3647  155.7430 LP  0  0  0  0  0  0  0  0  0  0  0  0  # atno 17394 bound_to 11000
  141.2205  133.7333  156.8982 LP  0  0  0  0  0  0  0  0  0  0  0  0  # atno 17395 bound_to 11000

$$$$
