AV-unprocessed.smi:2230|AV-procd|sdf|9036|dock5
  -GOLD-   2272012243D 1   1.00000     0.00000
 Structure written by MMmdl.
 29 30  0  0  0  0  0  0  0  0  2 V2000
  151.8366  138.0167  153.7666 O   0  0  0  0  0  0  0  0  0  0  0  0
  152.6108  138.6947  154.4788 C   0  0  0  0  0  0  0  0  0  0  0  0
  153.4193  139.5452  154.0453 O   0  5  0  0  0  0  0  0  0  0  0  0
  152.5480  138.4983  156.0015 C   0  0  1  0  0  0  0  0  0  0  0  0
  152.5297  139.8510  156.7524 C   0  0  0  0  0  0  0  0  0  0  0  0
  152.3815  139.6291  158.1861 N   0  0  0  0  0  0  0  0  0  0  0  0
  152.4880  140.7964  158.9579 C   0  0  0  0  0  0  0  0  0  0  0  0
  151.6685  141.8282  158.6384 N   0  0  0  0  0  0  0  0  0  0  0  0
  151.7447  142.9627  159.3633 C   0  0  0  0  0  0  0  0  0  0  0  0
  152.6338  143.1291  160.4403 C   0  0  0  0  0  0  0  0  0  0  0  0
  153.4843  142.0593  160.7746 C   0  0  0  0  0  0  0  0  0  0  0  0
  153.4198  140.8619  160.0265 C   0  0  0  0  0  0  0  0  0  0  0  0
  154.3277  139.6830  160.3685 C   0  0  0  0  0  0  0  0  0  0  0  0
  154.9093  139.8405  161.5581 F   0  0  0  0  0  0  0  0  0  0  0  0
  153.6177  138.5550  160.4039 F   0  0  0  0  0  0  0  0  0  0  0  0
  155.2889  139.5632  159.4526 F   0  0  0  0  0  0  0  0  0  0  0  0
  151.2232  138.8097  158.5135 C   0  0  0  0  0  0  0  0  0  0  0  0
  151.2907  137.4834  157.7407 C   0  0  0  0  0  0  0  0  0  0  0  0
  151.3780  137.7532  156.3455 O   0  0  0  0  0  0  0  0  0  0  0  0
  153.4307  137.9262  156.2933 H   0  0  0  0  0  0  0  0  0  0  0  0
  153.4537  140.4016  156.5697 H   0  0  0  0  0  0  0  0  0  0  0  0
  151.7074  140.4702  156.3902 H   0  0  0  0  0  0  0  0  0  0  0  0
  151.0756  143.7605  159.0774 H   0  0  0  0  0  0  0  0  0  0  0  0
  152.6627  144.0546  160.9963 H   0  0  0  0  0  0  0  0  0  0  0  0
  154.1733  142.1679  161.5988 H   0  0  0  0  0  0  0  0  0  0  0  0
  151.1956  138.6187  159.5869 H   0  0  0  0  0  0  0  0  0  0  0  0
  150.3078  139.3434  158.2541 H   0  0  0  0  0  0  0  0  0  0  0  0
  152.1461  136.8869  158.0622 H   0  0  0  0  0  0  0  0  0  0  0  0
  150.3968  136.8900  157.9323 H   0  0  0  0  0  0  0  0  0  0  0  0
  1  2  2  0  0  0  0
  2  3  1  0  0  0  0
  2  4  1  0  0  0  0
  4 19  1  0  0  0  0
  4  5  1  0  0  0  0
  4 20  1  0  0  0  0
  5  6  1  0  0  0  0
  5 21  1  0  0  0  0
  5 22  1  0  0  0  0
  6  7  1  0  0  0  0
  6 17  1  0  0  0  0
  7 12  1  0  0  0  0
  7  8  2  0  0  0  0
  8  9  1  0  0  0  0
  9 10  2  0  0  0  0
  9 23  1  0  0  0  0
 10 11  1  0  0  0  0
 10 24  1  0  0  0  0
 11 12  2  0  0  0  0
 11 25  1  0  0  0  0
 12 13  1  0  0  0  0
 13 14  1  0  0  0  0
 13 15  1  0  0  0  0
 13 16  1  0  0  0  0
 17 18  1  0  0  0  0
 17 26  1  0  0  0  0
 17 27  1  0  0  0  0
 18 19  1  0  0  0  0
 18 28  1  0  0  0  0
 18 29  1  0  0  0  0
M  CHG  1   3  -1
M  END
> <s_m_source_file>
AV-unprocessed.smi

> <i_m_source_file_index>
2230

> <i_lp_mmshare_version>
43012

> <i_f3d_flags>
0

> <s_epik_input>
Tz1DKFtPSF0pW0NAQEhdMVtDSDJdTihbQ0gyXVtDSDJdTzEpYzJuW2NIXVtjSF1bY0hdYzJDKEYpKEYpRg==

> <s_epik_cmdline>
J2VwaWtfcHl0aG9uJywgJy1waCcsICc3LjAnLCAnLXRuJywgJzgnLCAnLW1hJywgJzIwMCcsICctbWV0YWxfYmluZGluZycsICctaW1hZScsICc8aW5maWxlLm1hZT4nLCAnLW9tYWUnLCAnPG91dGZpbGUubWFlPic=

> <r_lp_tautomer_probability>
1

> <r_epik_Ionization_Penalty>
0.000150991

> <r_epik_Ionization_Penalty_Charging>
0.000148814

> <r_epik_Ionization_Penalty_Neutral>
2.17728e-06

> <r_epik_State_Penalty>
-0

> <r_epik_Charging_Adjusted_Penalty>
0.000148814

> <i_epik_Tot_Q>
-1

> <i_epik_Tot_abs_Q>
1

> <r_epik_Metal_State_Penalty>
-0

> <b_epik_Metal_Only>
0

> <s_lp_Force_Field>
OPLS_2005

> <r_lp_Energy>
24.6169

> <b_lp_Chiralities_Consistent>
1

> <s_lp_Variant>
AV-unprocessed.smi:2230-2

> <Gold.Version>
5.8.1

> <Gold.Id.Protein>
6NUR|6NUR_protein|mol2

> <Gold.PLP.Fitness>
40.2484

> <Gold.PLP.PLP>
-30.3394

> <Gold.PLP.part.hbond>
-2.1053

> <Gold.PLP.part.metal>
0.0000

> <Gold.PLP.part.buried>
-2.1998

> <Gold.PLP.part.nonpolar>
-27.1543

> <Gold.PLP.part.repulsive>
0.1513

> <Gold.PLP.ligand.clash>
0.0000

> <Gold.PLP.ligand.torsion>
1.0494

> <Gold.PLP.Chemscore.Hbond>
3.7920

> <Gold.PLP.Chemscore.CHOScore>
0.0000

> <Gold.PLP.Chemscore.Metal>
0.0000

> <Gold.Chemscore.Hbonds>
donor molecule, donor type, donor heavy atom, donor atom, acceptor molecule, acceptor atom, score
      P1  H  7989  7998       L1     3  0.02
      P1  H  7997  8008       L1     3  1.27

> <Gold.PLP.Chemscore.Internal.Correction>
0.6317

> <Gold.Rescore>
     Score         DG    S(hbond)    S(metal)    S(lipo)     H(rot)  DE(clash)    DE(int)     intcor
     11.05     -13.99       1.33        0.00      67.32       1.49       0.17       2.78       ----

> <Gold.Chemscore.Fitness>
11.0456

> <Gold.Chemscore.DG>
-13.9925

> <Gold.Chemscore.ZeroCoef>
-5.4800

> <Gold.Chemscore.Hbond>
1.3338

> <Gold.Chemscore.Metal>
0.0000

> <Gold.Chemscore.Lipo>
67.3180

> <Gold.Chemscore.Internal_Hbond>
0.0000

> <Gold.Chemscore.DEClash>
0.1701

> <Gold.Chemscore.DEInternal>
2.7768

> <Gold.Chemscore.Rot>
1.4916

> <Gold.Chemscore.Internal.Correction>
   9.000000E+99

> <Gold.Chemscore.Hbonds>
donor molecule, donor type, donor heavy atom, donor atom, acceptor molecule, acceptor atom, score
      P1  H  7997  8008       L1     3  0.29

> <Gold.Chemscore.Hbond.Weighted>
-4.4548

> <Gold.Chemscore.Metal.Weighted>
-0.0000

> <Gold.Chemscore.Lipo.Weighted>
-7.8762

> <Gold.Chemscore.Internal_Hbond.Weighted>
0.0000

> <Gold.Chemscore.DEClash.Weighted>
0.1701

> <Gold.Chemscore.DEInternal.Weighted>
2.7768

> <Gold.Chemscore.Rot.Weighted>
3.8185

> <Gold.Chemscore.Internal.Correction.Weighted>
   9.000000E+99

> <Gold.Protein.RotatedTorsions>
[ 6907 6896 6895 6894 ] final -179.05 input  -60.11 | X-H torsion
[ 7974 7965 7964 7962 ] final -112.84 input  175.53 | X-H torsion
[ 8008 7997 7996 7995 ] final  -12.30 input   59.86 | X-H torsion
[ 10167 10162 10161 10158 ] final   48.08 input  -65.29 | X-H torsion
[ 10718 10713 10712 10709 ] final  116.22 input   66.30 | X-H torsion
[ 10763 10752 10751 10750 ] final  173.44 input  -60.55 | X-H torsion
[ 11005 11000 10999 10996 ] final   68.76 input  -57.11 | X-H torsion

> <Gold.Protein.ActiveResidues>
 VAL166  LYS551  ARG553  GLY616  TRP617  ASP618  TYR619  PRO620  LYS621  CYS622 
 ASP623  PHE694  ASN695  SER759  ASP760  ASP761  ALA762  ILE779  LEU786  VAL792 
 PHE793  MET794  SER795  GLU796  ALA797  LYS798  CYS799  TRP800  GLU811  SER814 

> <Gold.Protein.RotatedAtoms>
  151.6472  133.3323  159.3143 H   0  0  0  0  0  0  0  0  0  0  0  0  # atno 6907 bound_to 6896
  150.7978  134.7055  159.6583 H   0  0  0  0  0  0  0  0  0  0  0  0  # atno 6908 bound_to 6896
  152.4067  134.6198  160.0099 H   0  0  0  0  0  0  0  0  0  0  0  0  # atno 6909 bound_to 6896
  145.1391  140.8768  143.3712 H   0  0  0  0  0  0  0  0  0  0  0  0  # atno 7974 bound_to 7965
  154.5389  140.2280  155.8674 H   0  0  0  0  0  0  0  0  0  0  0  0  # atno 8008 bound_to 7997
  156.1839  140.3093  155.9164 H   0  0  0  0  0  0  0  0  0  0  0  0  # atno 8009 bound_to 7997
  155.3297  140.0445  157.3033 H   0  0  0  0  0  0  0  0  0  0  0  0  # atno 8010 bound_to 7997
  140.2969  144.2980  150.6227 H   0  0  0  0  0  0  0  0  0  0  0  0  # atno 10167 bound_to 10162
  157.6174  131.1022  150.7442 H   0  0  0  0  0  0  0  0  0  0  0  0  # atno 10718 bound_to 10713
  154.4401  135.2762  155.1854 H   0  0  0  0  0  0  0  0  0  0  0  0  # atno 10763 bound_to 10752
  154.3724  135.6106  153.5750 H   0  0  0  0  0  0  0  0  0  0  0  0  # atno 10764 bound_to 10752
  152.9840  135.5860  154.4726 H   0  0  0  0  0  0  0  0  0  0  0  0  # atno 10765 bound_to 10752
  139.9693  134.6928  156.0480 H   0  0  0  0  0  0  0  0  0  0  0  0  # atno 11005 bound_to 11000
  145.0552  139.3150  143.5908 LP  0  0  0  0  0  0  0  0  0  0  0  0  # atno 17320 bound_to 7965
  146.3507  139.9974  142.8679 LP  0  0  0  0  0  0  0  0  0  0  0  0  # atno 17321 bound_to 7965
  140.5684  143.2183  151.7642 LP  0  0  0  0  0  0  0  0  0  0  0  0  # atno 17342 bound_to 10162
  139.4924  144.4251  151.9934 LP  0  0  0  0  0  0  0  0  0  0  0  0  # atno 17343 bound_to 10162
  156.7806  130.4858  149.5402 LP  0  0  0  0  0  0  0  0  0  0  0  0  # atno 17370 bound_to 10713
  156.1302  130.6173  151.0322 LP  0  0  0  0  0  0  0  0  0  0  0  0  # atno 17371 bound_to 10713
  141.1372  133.6572  156.3628 LP  0  0  0  0  0  0  0  0  0  0  0  0  # atno 17394 bound_to 11000
  140.5328  134.6195  157.5355 LP  0  0  0  0  0  0  0  0  0  0  0  0  # atno 17395 bound_to 11000

$$$$
