AV-unprocessed.smi:3308|AV-procd|sdf|12714|dock4
  -GOLD-   2272019 53D 1   1.00000     0.00000
 Structure written by MMmdl.
 40 41  0  0  0  0  0  0  0  0  1 V2000
  153.0376  138.4126  155.0811 C   0  0  0  0  0  0  0  0  0  0  0  0
  151.8267  139.3699  155.1360 C   0  0  2  0  0  0  0  0  0  0  0  0
  151.4548  139.5827  156.5321 N   0  0  0  0  0  0  0  0  0  0  0  0
  151.3437  141.0024  156.8909 C   0  0  0  0  0  0  0  0  0  0  0  0
  151.8532  141.2588  158.3131 C   0  0  0  0  0  0  0  0  0  0  0  0
  152.1615  140.2944  159.0135 O   0  0  0  0  0  0  0  0  0  0  0  0
  151.9503  142.5313  158.7541 N   0  0  0  0  0  0  0  0  0  0  0  0
  152.4214  142.8844  160.0921 C   0  0  0  0  0  0  0  0  0  0  0  0
  152.1409  144.3789  160.2502 C   0  0  0  0  0  0  0  0  0  0  0  0
  152.1328  144.9083  158.8230 C   0  0  0  0  0  0  0  0  0  0  0  0
  151.6145  143.7345  157.9918 C   0  0  0  0  0  0  0  0  0  0  0  0
  150.5830  138.8250  154.3833 C   0  0  1  0  0  0  0  0  0  0  0  0
  150.1126  137.4610  154.9239 C   0  0  0  0  0  0  0  0  0  0  0  0
  149.4734  139.7703  154.4121 N   0  0  0  0  0  0  0  0  0  0  0  0
  148.1372  139.5251  154.6599 C   0  0  0  0  0  0  0  0  0  0  0  0
  147.4813  140.7202  154.5850 C   0  0  0  0  0  0  0  0  0  0  0  0
  148.5126  141.6527  154.2830 C   0  0  0  0  0  0  0  0  0  0  0  0
  149.7019  141.0823  154.1805 N   0  0  0  0  0  0  0  0  0  0  0  0
  153.3797  138.2554  154.0584 H   0  0  0  0  0  0  0  0  0  0  0  0
  152.7877  137.4362  155.4980 H   0  0  0  0  0  0  0  0  0  0  0  0
  153.8927  138.7989  155.6344 H   0  0  0  0  0  0  0  0  0  0  0  0
  152.1080  140.3214  154.6811 H   0  0  0  0  0  0  0  0  0  0  0  0
  152.1020  139.0902  157.1308 H   0  0  0  0  0  0  0  0  0  0  0  0
  151.8849  141.6280  156.1823 H   0  0  0  0  0  0  0  0  0  0  0  0
  150.2976  141.3088  156.8395 H   0  0  0  0  0  0  0  0  0  0  0  0
  151.9239  142.3036  160.8705 H   0  0  0  0  0  0  0  0  0  0  0  0
  153.4927  142.6868  160.1541 H   0  0  0  0  0  0  0  0  0  0  0  0
  151.1560  144.5206  160.6973 H   0  0  0  0  0  0  0  0  0  0  0  0
  152.8713  144.8814  160.8850 H   0  0  0  0  0  0  0  0  0  0  0  0
  151.5279  145.8083  158.7081 H   0  0  0  0  0  0  0  0  0  0  0  0
  153.1521  145.1500  158.5184 H   0  0  0  0  0  0  0  0  0  0  0  0
  152.0578  143.7366  156.9954 H   0  0  0  0  0  0  0  0  0  0  0  0
  150.5307  143.7960  157.8831 H   0  0  0  0  0  0  0  0  0  0  0  0
  150.8580  138.6836  153.3357 H   0  0  0  0  0  0  0  0  0  0  0  0
  150.8858  136.6998  154.8184 H   0  0  0  0  0  0  0  0  0  0  0  0
  149.2356  137.1071  154.3810 H   0  0  0  0  0  0  0  0  0  0  0  0
  149.8490  137.5189  155.9804 H   0  0  0  0  0  0  0  0  0  0  0  0
  147.7692  138.5311  154.8677 H   0  0  0  0  0  0  0  0  0  0  0  0
  146.4258  140.9011  154.7246 H   0  0  0  0  0  0  0  0  0  0  0  0
  148.4332  142.7198  154.1362 H   0  0  0  0  0  0  0  0  0  0  0  0
  1  2  1  0  0  0  0
  1 19  1  0  0  0  0
  1 20  1  0  0  0  0
  1 21  1  0  0  0  0
  2  3  1  0  0  0  0
  2 12  1  0  0  0  0
  2 22  1  0  0  0  0
  3  4  1  0  0  0  0
  3 23  1  0  0  0  0
  4  5  1  0  0  0  0
  4 24  1  0  0  0  0
  4 25  1  0  0  0  0
  5  6  2  0  0  0  0
  5  7  1  0  0  0  0
  7 11  1  0  0  0  0
  7  8  1  0  0  0  0
  8  9  1  0  0  0  0
  8 26  1  0  0  0  0
  8 27  1  0  0  0  0
  9 10  1  0  0  0  0
  9 28  1  0  0  0  0
  9 29  1  0  0  0  0
 10 11  1  0  0  0  0
 10 30  1  0  0  0  0
 10 31  1  0  0  0  0
 11 32  1  0  0  0  0
 11 33  1  0  0  0  0
 12 13  1  0  0  0  0
 12 14  1  0  0  0  0
 12 34  1  0  0  0  0
 13 35  1  0  0  0  0
 13 36  1  0  0  0  0
 13 37  1  0  0  0  0
 14 18  1  0  0  0  0
 14 15  1  0  0  0  0
 15 16  2  0  0  0  0
 15 38  1  0  0  0  0
 16 17  1  0  0  0  0
 16 39  1  0  0  0  0
 17 18  2  0  0  0  0
 17 40  1  0  0  0  0
M  END
> <s_m_source_file>
AV-unprocessed.smi

> <i_m_source_file_index>
3308

> <i_lp_mmshare_version>
43012

> <i_f3d_flags>
0

> <s_epik_input>
bjFbY0hdW2NIXVtjSF1uMVtDQEBIXShbQ0gzXSlbQ0BIXShbQ0gzXSlbTkhdW0NIMl1DKD1PKU4yW0NIMl1bQ0gyXVtDSDJdW0NIMl0y

> <s_epik_cmdline>
J2VwaWtfcHl0aG9uJywgJy1waCcsICc3LjAnLCAnLXRuJywgJzgnLCAnLW1hJywgJzIwMCcsICctbWV0YWxfYmluZGluZycsICctaW1hZScsICc8aW5maWxlLm1hZT4nLCAnLW9tYWUnLCAnPG91dGZpbGUubWFlPic=

> <r_lp_tautomer_probability>
1

> <r_epik_Ionization_Penalty>
0.918676

> <r_epik_Ionization_Penalty_Charging>
0

> <r_epik_Ionization_Penalty_Neutral>
0.918676

> <r_epik_State_Penalty>
0.958258

> <r_epik_Charging_Adjusted_Penalty>
0.958258

> <i_epik_Tot_Q>
0

> <i_epik_Tot_abs_Q>
0

> <r_epik_Metal_State_Penalty>
0.956879

> <b_epik_Metal_Only>
0

> <s_lp_Force_Field>
OPLS_2005

> <r_lp_Energy>
36.0541

> <b_lp_Chiralities_Consistent>
1

> <s_lp_Variant>
AV-unprocessed.smi:3308-7

> <Gold.Version>
5.8.1

> <Gold.Id.Protein>
6NUR|6NUR_protein|mol2

> <Gold.PLP.Fitness>
44.7001

> <Gold.PLP.PLP>
-42.8821

> <Gold.PLP.part.hbond>
-1.7651

> <Gold.PLP.part.metal>
0.0000

> <Gold.PLP.part.buried>
-3.4718

> <Gold.PLP.part.nonpolar>
-38.6841

> <Gold.PLP.part.repulsive>
0.1711

> <Gold.PLP.ligand.clash>
0.0000

> <Gold.PLP.ligand.torsion>
1.2988

> <Gold.PLP.Chemscore.Hbond>
0.4495

> <Gold.PLP.Chemscore.CHOScore>
1.0000

> <Gold.PLP.Chemscore.Metal>
0.0000

> <Gold.Chemscore.Hbonds>
donor molecule, donor type, donor heavy atom, donor atom, acceptor molecule, acceptor atom, score
      P1  H  7989  7998       L1    18  0.41
      P1  H  8011  8017       L1    18  0.03
      L1  C    17    40       P1  8028  1.00

> <Gold.PLP.Chemscore.Internal.Correction>
0.0673

> <Gold.Rescore>
     Score         DG    S(hbond)    S(metal)    S(lipo)     H(rot)  DE(clash)    DE(int)     intcor
     13.48     -14.79       0.53        0.00     102.22       1.72       0.10       1.21       ----

> <Gold.Chemscore.Fitness>
13.4821

> <Gold.Chemscore.DG>
-14.7909

> <Gold.Chemscore.ZeroCoef>
-5.4800

> <Gold.Chemscore.Hbond>
0.5253

> <Gold.Chemscore.Metal>
0.0000

> <Gold.Chemscore.Lipo>
102.2166

> <Gold.Chemscore.Internal_Hbond>
0.0000

> <Gold.Chemscore.DEClash>
0.0991

> <Gold.Chemscore.DEInternal>
1.2097

> <Gold.Chemscore.Rot>
1.7200

> <Gold.Chemscore.Internal.Correction>
   9.000000E+99

> <Gold.Chemscore.Hbonds>
donor molecule, donor type, donor heavy atom, donor atom, acceptor molecule, acceptor atom, score
      P1  H  7989  7998       L1    18  0.08

> <Gold.Chemscore.Hbond.Weighted>
-1.7546

> <Gold.Chemscore.Metal.Weighted>
-0.0000

> <Gold.Chemscore.Lipo.Weighted>
-11.9593

> <Gold.Chemscore.Internal_Hbond.Weighted>
0.0000

> <Gold.Chemscore.DEClash.Weighted>
0.0991

> <Gold.Chemscore.DEInternal.Weighted>
1.2097

> <Gold.Chemscore.Rot.Weighted>
4.4031

> <Gold.Chemscore.Internal.Correction.Weighted>
   9.000000E+99

> <Gold.Protein.RotatedTorsions>
[ 6907 6896 6895 6894 ] final  178.79 input  -60.11 | X-H torsion
[ 7974 7965 7964 7962 ] final   35.61 input  175.53 | X-H torsion
[ 8008 7997 7996 7995 ] final  -72.63 input   59.86 | X-H torsion
[ 10167 10162 10161 10158 ] final -179.65 input  -65.29 | X-H torsion
[ 10718 10713 10712 10709 ] final  -17.87 input   66.30 | X-H torsion
[ 10763 10752 10751 10750 ] final   73.69 input  -60.55 | X-H torsion
[ 11005 11000 10999 10996 ] final   76.07 input  -57.11 | X-H torsion

> <Gold.Protein.ActiveResidues>
 VAL166  LYS551  ARG553  GLY616  TRP617  ASP618  TYR619  PRO620  LYS621  CYS622 
 ASP623  PHE694  ASN695  SER759  ASP760  ASP761  ALA762  ILE779  LEU786  VAL792 
 PHE793  MET794  SER795  GLU796  ALA797  LYS798  CYS799  TRP800  GLU811  SER814 

> <Gold.Protein.RotatedAtoms>
  151.6822  133.3312  159.3221 H   0  0  0  0  0  0  0  0  0  0  0  0  # atno 6907 bound_to 6896
  150.7817  134.6771  159.6433 H   0  0  0  0  0  0  0  0  0  0  0  0  # atno 6908 bound_to 6896
  152.3877  134.6495  160.0171 H   0  0  0  0  0  0  0  0  0  0  0  0  # atno 6909 bound_to 6896
  146.1271  139.6121  142.9251 H   0  0  0  0  0  0  0  0  0  0  0  0  # atno 7974 bound_to 7965
  154.5182  140.0793  156.8121 H   0  0  0  0  0  0  0  0  0  0  0  0  # atno 8008 bound_to 7997
  155.3634  140.3419  155.4223 H   0  0  0  0  0  0  0  0  0  0  0  0  # atno 8009 bound_to 7997
  156.1651  140.1601  156.8532 H   0  0  0  0  0  0  0  0  0  0  0  0  # atno 8010 bound_to 7997
  139.5376  144.2452  152.0829 H   0  0  0  0  0  0  0  0  0  0  0  0  # atno 10167 bound_to 10162
  156.5674  130.4741  149.6378 H   0  0  0  0  0  0  0  0  0  0  0  0  # atno 10718 bound_to 10713
  153.0537  135.5053  154.7931 H   0  0  0  0  0  0  0  0  0  0  0  0  # atno 10763 bound_to 10752
  154.6773  135.2962  154.9664 H   0  0  0  0  0  0  0  0  0  0  0  0  # atno 10764 bound_to 10752
  154.0462  135.6710  153.4848 H   0  0  0  0  0  0  0  0  0  0  0  0  # atno 10765 bound_to 10752
  139.9315  134.7570  156.1350 H   0  0  0  0  0  0  0  0  0  0  0  0  # atno 11005 bound_to 11000
  145.5342  141.0425  143.2366 LP  0  0  0  0  0  0  0  0  0  0  0  0  # atno 17320 bound_to 7965
  144.7653  139.6860  143.7217 LP  0  0  0  0  0  0  0  0  0  0  0  0  # atno 17321 bound_to 7965
  140.1925  144.4738  150.6472 LP  0  0  0  0  0  0  0  0  0  0  0  0  # atno 17342 bound_to 10162
  140.6591  143.2246  151.5898 LP  0  0  0  0  0  0  0  0  0  0  0  0  # atno 17343 bound_to 10162
  156.2744  130.7035  151.1842 LP  0  0  0  0  0  0  0  0  0  0  0  0  # atno 17370 bound_to 10713
  157.7355  131.0571  150.5464 LP  0  0  0  0  0  0  0  0  0  0  0  0  # atno 17371 bound_to 10713
  141.0906  133.6716  156.2531 LP  0  0  0  0  0  0  0  0  0  0  0  0  # atno 17394 bound_to 11000
  140.6190  134.5381  157.5545 LP  0  0  0  0  0  0  0  0  0  0  0  0  # atno 17395 bound_to 11000

$$$$
