AV-unprocessed.smi:753|AV-procd|sdf|3605|dock4
  -GOLD-   22720 1 03D 1   1.00000     0.00000
 Structure written by MMmdl.
 44 46  0  0  0  0  0  0  0  0  2 V2000
  143.8895  132.8023  149.0748 C   0  0  0  0  0  0  0  0  0  0  0  0
  144.9563  132.5961  150.1291 C   0  0  0  0  0  0  0  0  0  0  0  0
  144.9392  131.4949  151.0116 C   0  0  0  0  0  0  0  0  0  0  0  0
  145.9616  131.3682  151.9744 C   0  0  0  0  0  0  0  0  0  0  0  0
  146.9814  132.3437  152.0347 C   0  0  0  0  0  0  0  0  0  0  0  0
  148.0782  132.2589  153.0819 C   0  0  0  0  0  0  0  0  0  0  0  0
  147.9286  133.2890  154.2185 C   0  0  0  0  0  0  0  0  0  0  0  0
  148.7565  134.4751  154.0128 N   0  0  0  0  0  0  0  0  0  0  0  0
  149.6942  134.9339  154.8606 C   0  0  0  0  0  0  0  0  0  0  0  0
  149.9751  134.3853  155.9246 O   0  0  0  0  0  0  0  0  0  0  0  0
  150.3266  136.0464  154.4487 N   0  0  0  0  0  0  0  0  0  0  0  0
  151.3874  136.7849  155.1389 C   0  0  2  0  0  0  0  0  0  0  0  0
  150.9276  137.2394  156.5422 C   0  0  0  0  0  0  0  0  0  0  0  0
  151.0969  138.7689  156.4874 C   0  0  2  0  0  0  0  0  0  0  0  0
  150.0170  139.3758  155.5716 C   0  0  0  0  0  0  0  0  0  0  0  0
  150.4985  138.9750  154.1645 C   0  0  0  0  0  0  0  0  0  0  0  0
  151.7572  138.1328  154.4662 C   0  0  1  0  0  0  0  0  0  0  0  0
  152.3516  138.9100  155.6359 C   0  0  0  0  0  0  0  0  0  0  0  0
  146.9518  133.4178  151.1200 C   0  0  0  0  0  0  0  0  0  0  0  0
  145.9533  133.5052  150.2145 N   0  3  0  0  0  0  0  0  0  0  0  0
  142.9897  132.2347  149.3144 H   0  0  0  0  0  0  0  0  0  0  0  0
  144.2529  132.4741  148.1009 H   0  0  0  0  0  0  0  0  0  0  0  0
  143.6153  133.8554  149.0035 H   0  0  0  0  0  0  0  0  0  0  0  0
  144.1508  130.7585  150.9572 H   0  0  0  0  0  0  0  0  0  0  0  0
  145.9538  130.5369  152.6644 H   0  0  0  0  0  0  0  0  0  0  0  0
  148.0997  131.2519  153.5010 H   0  0  0  0  0  0  0  0  0  0  0  0
  149.0395  132.4003  152.5868 H   0  0  0  0  0  0  0  0  0  0  0  0
  146.8893  133.6128  154.2784 H   0  0  0  0  0  0  0  0  0  0  0  0
  148.1561  132.8266  155.1806 H   0  0  0  0  0  0  0  0  0  0  0  0
  148.5980  134.9961  153.1625 H   0  0  0  0  0  0  0  0  0  0  0  0
  150.0599  136.4075  153.5442 H   0  0  0  0  0  0  0  0  0  0  0  0
  152.2740  136.1567  155.2428 H   0  0  0  0  0  0  0  0  0  0  0  0
  149.9018  136.9519  156.7774 H   0  0  0  0  0  0  0  0  0  0  0  0
  151.5719  136.8093  157.3101 H   0  0  0  0  0  0  0  0  0  0  0  0
  151.1509  139.2371  157.4706 H   0  0  0  0  0  0  0  0  0  0  0  0
  149.0224  138.9887  155.7959 H   0  0  0  0  0  0  0  0  0  0  0  0
  149.9837  140.4616  155.6704 H   0  0  0  0  0  0  0  0  0  0  0  0
  149.7382  138.4403  153.5952 H   0  0  0  0  0  0  0  0  0  0  0  0
  150.7649  139.8632  153.5902 H   0  0  0  0  0  0  0  0  0  0  0  0
  152.4222  138.0261  153.6086 H   0  0  0  0  0  0  0  0  0  0  0  0
  152.5952  139.9455  155.3916 H   0  0  0  0  0  0  0  0  0  0  0  0
  153.2286  138.4302  156.0740 H   0  0  0  0  0  0  0  0  0  0  0  0
  147.6822  134.2132  151.0964 H   0  0  0  0  0  0  0  0  0  0  0  0
  145.9491  134.2960  149.5700 H   0  0  0  0  0  0  0  0  0  0  0  0
  1  2  1  0  0  0  0
  1 21  1  0  0  0  0
  1 22  1  0  0  0  0
  1 23  1  0  0  0  0
  2 20  1  0  0  0  0
  2  3  2  0  0  0  0
  3  4  1  0  0  0  0
  3 24  1  0  0  0  0
  4  5  2  0  0  0  0
  4 25  1  0  0  0  0
  5  6  1  0  0  0  0
  5 19  1  0  0  0  0
  6  7  1  0  0  0  0
  6 26  1  0  0  0  0
  6 27  1  0  0  0  0
  7  8  1  0  0  0  0
  7 28  1  0  0  0  0
  7 29  1  0  0  0  0
  8  9  1  0  0  0  0
  8 30  1  0  0  0  0
  9 10  2  0  0  0  0
  9 11  1  0  0  0  0
 11 12  1  0  0  0  0
 11 31  1  0  0  0  0
 12 17  1  0  0  0  0
 12 13  1  0  0  0  0
 12 32  1  0  0  0  0
 13 14  1  0  0  0  0
 13 33  1  0  0  0  0
 13 34  1  0  0  0  0
 14 18  1  0  0  0  0
 14 15  1  0  0  0  0
 14 35  1  0  0  0  0
 15 16  1  0  0  0  0
 15 36  1  0  0  0  0
 15 37  1  0  0  0  0
 16 17  1  0  0  0  0
 16 38  1  0  0  0  0
 16 39  1  0  0  0  0
 17 18  1  0  0  0  0
 17 40  1  0  0  0  0
 18 41  1  0  0  0  0
 18 42  1  0  0  0  0
 19 20  2  0  0  0  0
 19 43  1  0  0  0  0
 20 44  1  0  0  0  0
M  CHG  1  20   1
M  END
> <s_m_source_file>
AV-unprocessed.smi

> <i_m_source_file_index>
753

> <i_lp_mmshare_version>
43012

> <i_f3d_flags>
0

> <s_epik_input>
W0NIM11jMVtjSF1bY0hdYyhbY0hdbjEpW0NIMl1bQ0gyXVtOSF1DKD1PKVtOSF1bQ0BIXShbQ0gyXVtDQEBIXTIzKVtDQEBIXShbQ0gyXTMpW0NIMl1bQ0gyXTI=

> <s_epik_cmdline>
J2VwaWtfcHl0aG9uJywgJy1waCcsICc3LjAnLCAnLXRuJywgJzgnLCAnLW1hJywgJzIwMCcsICctbWV0YWxfYmluZGluZycsICctaW1hZScsICc8aW5maWxlLm1hZT4nLCAnLW9tYWUnLCAnPG91dGZpbGUubWFlPic=

> <r_epik_Ionization_Penalty>
1.41708

> <r_epik_Ionization_Penalty_Charging>
1.41702

> <r_epik_Ionization_Penalty_Neutral>
5.73163e-05

> <r_epik_State_Penalty>
1.50048

> <r_epik_Charging_Adjusted_Penalty>
2.9175

> <i_epik_Tot_Q>
1

> <i_epik_Tot_abs_Q>
1

> <r_epik_Metal_State_Penalty>
1.55295

> <b_epik_Metal_Only>
0

> <s_lp_Force_Field>
OPLS_2005

> <r_lp_Energy>
59.6045

> <b_lp_Chiralities_Consistent>
1

> <s_lp_Variant>
AV-unprocessed.smi:753-7

> <Gold.Version>
5.8.1

> <Gold.Id.Protein>
6NUR|6NUR_protein|mol2

> <Gold.PLP.Fitness>
44.8663

> <Gold.PLP.PLP>
-37.0678

> <Gold.PLP.part.hbond>
-3.5015

> <Gold.PLP.part.metal>
0.0000

> <Gold.PLP.part.buried>
-3.4875

> <Gold.PLP.part.nonpolar>
-30.3634

> <Gold.PLP.part.repulsive>
0.1941

> <Gold.PLP.ligand.clash>
0.0000

> <Gold.PLP.ligand.torsion>
0.4523

> <Gold.PLP.Chemscore.Hbond>
2.8920

> <Gold.PLP.Chemscore.CHOScore>
0.0000

> <Gold.PLP.Chemscore.Metal>
0.0000

> <Gold.Chemscore.Hbonds>
donor molecule, donor type, donor heavy atom, donor atom, acceptor molecule, acceptor atom, score
      L1  H     8    30       P1  7948  1.00
      L1  H    11    31       P1  7948  0.69
      L1  H    20    44       P1  7921  0.86

> <Gold.PLP.Chemscore.Internal.Correction>
0.0271

> <Gold.Rescore>
     Score         DG    S(hbond)    S(metal)    S(lipo)     H(rot)  DE(clash)    DE(int)     intcor
     20.85     -21.73       2.24        0.00     107.73       1.50       0.46       0.43       ----

> <Gold.Chemscore.Fitness>
20.8516

> <Gold.Chemscore.DG>
-21.7320

> <Gold.Chemscore.ZeroCoef>
-5.4800

> <Gold.Chemscore.Hbond>
2.2438

> <Gold.Chemscore.Metal>
0.0000

> <Gold.Chemscore.Lipo>
107.7319

> <Gold.Chemscore.Internal_Hbond>
0.0000

> <Gold.Chemscore.DEClash>
0.4551

> <Gold.Chemscore.DEInternal>
0.4253

> <Gold.Chemscore.Rot>
1.5027

> <Gold.Chemscore.Internal.Correction>
   9.000000E+99

> <Gold.Chemscore.Hbonds>
donor molecule, donor type, donor heavy atom, donor atom, acceptor molecule, acceptor atom, score
      L1  H     8    30       P1  7948  0.64
      L1  H    11    31       P1  7948  0.07
      L1  H    20    44       P1  7921  0.37

> <Gold.Chemscore.Hbond.Weighted>
-7.4942

> <Gold.Chemscore.Metal.Weighted>
-0.0000

> <Gold.Chemscore.Lipo.Weighted>
-12.6046

> <Gold.Chemscore.Internal_Hbond.Weighted>
0.0000

> <Gold.Chemscore.DEClash.Weighted>
0.4551

> <Gold.Chemscore.DEInternal.Weighted>
0.4253

> <Gold.Chemscore.Rot.Weighted>
3.8468

> <Gold.Chemscore.Internal.Correction.Weighted>
   9.000000E+99

> <Gold.Protein.RotatedTorsions>
[ 6907 6896 6895 6894 ] final -171.37 input  -60.11 | X-H torsion
[ 7974 7965 7964 7962 ] final -147.26 input  175.53 | X-H torsion
[ 8008 7997 7996 7995 ] final  138.66 input   59.86 | X-H torsion
[ 10167 10162 10161 10158 ] final    4.04 input  -65.29 | X-H torsion
[ 10718 10713 10712 10709 ] final -161.83 input   66.30 | X-H torsion
[ 10763 10752 10751 10750 ] final -151.19 input  -60.55 | X-H torsion
[ 11005 11000 10999 10996 ] final  -52.30 input  -57.11 | X-H torsion

> <Gold.Protein.ActiveResidues>
 VAL166  LYS551  ARG553  GLY616  TRP617  ASP618  TYR619  PRO620  LYS621  CYS622 
 ASP623  PHE694  ASN695  SER759  ASP760  ASP761  ALA762  ILE779  LEU786  VAL792 
 PHE793  MET794  SER795  GLU796  ALA797  LYS798  CYS799  TRP800  GLU811  SER814 

> <Gold.Protein.RotatedAtoms>
  151.5227  133.3463  159.2903 H   0  0  0  0  0  0  0  0  0  0  0  0  # atno 6907 bound_to 6896
  150.8642  134.8004  159.7117 H   0  0  0  0  0  0  0  0  0  0  0  0  # atno 6908 bound_to 6896
  152.4652  134.5101  159.9803 H   0  0  0  0  0  0  0  0  0  0  0  0  # atno 6909 bound_to 6896
  144.8105  140.5350  143.5645 H   0  0  0  0  0  0  0  0  0  0  0  0  # atno 7974 bound_to 7965
  156.2996  140.2388  156.4110 H   0  0  0  0  0  0  0  0  0  0  0  0  # atno 8008 bound_to 7997
  154.8441  140.0427  157.1581 H   0  0  0  0  0  0  0  0  0  0  0  0  # atno 8009 bound_to 7997
  154.9070  140.2985  155.5290 H   0  0  0  0  0  0  0  0  0  0  0  0  # atno 8010 bound_to 7997
  140.6555  143.7437  150.7647 H   0  0  0  0  0  0  0  0  0  0  0  0  # atno 10167 bound_to 10162
  156.6018  130.8814  151.2915 H   0  0  0  0  0  0  0  0  0  0  0  0  # atno 10718 bound_to 10713
  154.8073  135.3266  154.7398 H   0  0  0  0  0  0  0  0  0  0  0  0  # atno 10763 bound_to 10752
  153.8054  135.6900  153.4853 H   0  0  0  0  0  0  0  0  0  0  0  0  # atno 10764 bound_to 10752
  153.1826  135.4581  154.9993 H   0  0  0  0  0  0  0  0  0  0  0  0  # atno 10765 bound_to 10752
  141.0917  133.6631  156.4004 H   0  0  0  0  0  0  0  0  0  0  0  0  # atno 11005 bound_to 11000
  145.5335  139.1475  143.3486 LP  0  0  0  0  0  0  0  0  0  0  0  0  # atno 17320 bound_to 7965
  146.2403  140.5475  142.8937 LP  0  0  0  0  0  0  0  0  0  0  0  0  # atno 17321 bound_to 7965
  140.1096  143.4711  152.2378 LP  0  0  0  0  0  0  0  0  0  0  0  0  # atno 17342 bound_to 10162
  139.5777  144.7495  151.3721 LP  0  0  0  0  0  0  0  0  0  0  0  0  # atno 17343 bound_to 10162
  157.7277  130.9647  150.1712 LP  0  0  0  0  0  0  0  0  0  0  0  0  # atno 17370 bound_to 10713
  156.2463  130.3696  149.8282 LP  0  0  0  0  0  0  0  0  0  0  0  0  # atno 17371 bound_to 10713
  140.5236  134.6280  157.5326 LP  0  0  0  0  0  0  0  0  0  0  0  0  # atno 17394 bound_to 11000
  139.9744  134.7239  155.9978 LP  0  0  0  0  0  0  0  0  0  0  0  0  # atno 17395 bound_to 11000

$$$$
