AV-unprocessed.smi:3330|AV-procd|sdf|12815|dock5
  -GOLD-   2272019183D 1   1.00000     0.00000
 Structure written by MMmdl.
 37 38  0  0  0  0  0  0  0  0  2 V2000
  145.3611  135.8489  154.8257 C   0  0  0  0  0  0  0  0  0  0  0  0
  146.7589  135.5493  154.2535 C   0  0  2  0  0  0  0  0  0  0  0  0
  147.1973  136.7540  153.5573 N   0  0  0  0  0  0  0  0  0  0  0  0
  147.6531  137.7714  154.4913 C   0  0  0  0  0  0  0  0  0  0  0  0
  148.8715  137.2514  155.2675 C   0  0  0  0  0  0  0  0  0  0  0  0
  150.0600  138.0555  154.9711 N   0  0  0  0  0  0  0  0  0  0  0  0
  151.2811  137.5473  154.7788 C   0  0  0  0  0  0  0  0  0  0  0  0
  151.6198  136.3636  154.7974 O   0  0  0  0  0  0  0  0  0  0  0  0
  152.2228  138.7042  154.5384 C   0  0  0  0  0  0  0  0  0  0  0  0
  151.3421  139.8457  154.6420 N   0  5  0  0  0  0  0  0  0  0  0  0
  150.0904  139.4001  154.9011 C   0  0  0  0  0  0  0  0  0  0  0  0
  149.0840  140.0891  155.0657 O   0  0  0  0  0  0  0  0  0  0  0  0
  146.7820  134.3425  153.2767 C   0  0  1  0  0  0  0  0  0  0  0  0
  146.5184  132.9943  153.9723 C   0  0  0  0  0  0  0  0  0  0  0  0
  145.8334  134.5192  152.1844 N   0  0  0  0  0  0  0  0  0  0  0  0
  145.8232  135.4867  151.1992 C   0  0  0  0  0  0  0  0  0  0  0  0
  144.7409  135.2473  150.4020 C   0  0  0  0  0  0  0  0  0  0  0  0
  144.1392  134.0985  150.9868 C   0  0  0  0  0  0  0  0  0  0  0  0
  144.7929  133.6667  152.0528 N   0  0  0  0  0  0  0  0  0  0  0  0
  144.9911  135.0277  155.4394 H   0  0  0  0  0  0  0  0  0  0  0  0
  144.6351  136.0225  154.0306 H   0  0  0  0  0  0  0  0  0  0  0  0
  145.3787  136.7363  155.4596 H   0  0  0  0  0  0  0  0  0  0  0  0
  147.4181  135.3392  155.0976 H   0  0  0  0  0  0  0  0  0  0  0  0
  147.9398  136.5223  152.9128 H   0  0  0  0  0  0  0  0  0  0  0  0
  147.9107  138.6794  153.9447 H   0  0  0  0  0  0  0  0  0  0  0  0
  146.8521  138.0250  155.1863 H   0  0  0  0  0  0  0  0  0  0  0  0
  148.6696  137.2723  156.3400 H   0  0  0  0  0  0  0  0  0  0  0  0
  149.0562  136.2041  155.0217 H   0  0  0  0  0  0  0  0  0  0  0  0
  153.0134  138.7003  155.2894 H   0  0  0  0  0  0  0  0  0  0  0  0
  152.6887  138.6067  153.5575 H   0  0  0  0  0  0  0  0  0  0  0  0
  147.7785  134.2894  152.8329 H   0  0  0  0  0  0  0  0  0  0  0  0
  147.2955  132.7615  154.7004 H   0  0  0  0  0  0  0  0  0  0  0  0
  146.5026  132.1782  153.2494 H   0  0  0  0  0  0  0  0  0  0  0  0
  145.5616  132.9945  154.4953 H   0  0  0  0  0  0  0  0  0  0  0  0
  146.5804  136.2553  151.1479 H   0  0  0  0  0  0  0  0  0  0  0  0
  144.4262  135.8070  149.5339 H   0  0  0  0  0  0  0  0  0  0  0  0
  143.2522  133.5693  150.6711 H   0  0  0  0  0  0  0  0  0  0  0  0
  1  2  1  0  0  0  0
  1 20  1  0  0  0  0
  1 21  1  0  0  0  0
  1 22  1  0  0  0  0
  2  3  1  0  0  0  0
  2 13  1  0  0  0  0
  2 23  1  0  0  0  0
  3  4  1  0  0  0  0
  3 24  1  0  0  0  0
  4  5  1  0  0  0  0
  4 25  1  0  0  0  0
  4 26  1  0  0  0  0
  5  6  1  0  0  0  0
  5 27  1  0  0  0  0
  5 28  1  0  0  0  0
  6 11  1  0  0  0  0
  6  7  1  0  0  0  0
  7  8  2  0  0  0  0
  7  9  1  0  0  0  0
  9 10  1  0  0  0  0
  9 29  1  0  0  0  0
  9 30  1  0  0  0  0
 10 11  1  0  0  0  0
 11 12  2  0  0  0  0
 13 14  1  0  0  0  0
 13 15  1  0  0  0  0
 13 31  1  0  0  0  0
 14 32  1  0  0  0  0
 14 33  1  0  0  0  0
 14 34  1  0  0  0  0
 15 19  1  0  0  0  0
 15 16  1  0  0  0  0
 16 17  2  0  0  0  0
 16 35  1  0  0  0  0
 17 18  1  0  0  0  0
 17 36  1  0  0  0  0
 18 19  2  0  0  0  0
 18 37  1  0  0  0  0
M  CHG  1  10  -1
M  END
> <s_m_source_file>
AV-unprocessed.smi

> <i_m_source_file_index>
3330

> <i_lp_mmshare_version>
43012

> <i_f3d_flags>
0

> <s_epik_input>
bjFbY0hdW2NIXVtjSF1uMVtDQEBIXShbQ0gzXSlbQ0BIXShbQ0gzXSlbTkhdW0NIMl1bQ0gyXU4yQyg9TylbQ0gyXVtOSF1DMj1P

> <s_epik_cmdline>
J2VwaWtfcHl0aG9uJywgJy1waCcsICc3LjAnLCAnLXRuJywgJzgnLCAnLW1hJywgJzIwMCcsICctbWV0YWxfYmluZGluZycsICctaW1hZScsICc8aW5maWxlLm1hZT4nLCAnLW9tYWUnLCAnPG91dGZpbGUubWFlPic=

> <r_lp_tautomer_probability>
1

> <r_epik_Ionization_Penalty>
8.77477

> <r_epik_Ionization_Penalty_Charging>
6.28461

> <r_epik_Ionization_Penalty_Neutral>
2.49016

> <r_epik_State_Penalty>
8.73376

> <r_epik_Charging_Adjusted_Penalty>
15.0184

> <i_epik_Tot_Q>
-1

> <i_epik_Tot_abs_Q>
1

> <r_epik_Metal_State_Penalty>
4.73175

> <b_epik_Metal_Only>
1

> <s_lp_Force_Field>
OPLS_2005

> <r_lp_Energy>
21.2445

> <b_lp_Chiralities_Consistent>
1

> <s_lp_Variant>
AV-unprocessed.smi:3330-15

> <Gold.Version>
5.8.1

> <Gold.Id.Protein>
6NUR|6NUR_protein|mol2

> <Gold.PLP.Fitness>
39.5823

> <Gold.PLP.PLP>
-26.2803

> <Gold.PLP.part.hbond>
-2.9873

> <Gold.PLP.part.metal>
0.0000

> <Gold.PLP.part.buried>
-5.3883

> <Gold.PLP.part.nonpolar>
-19.5888

> <Gold.PLP.part.repulsive>
0.3696

> <Gold.PLP.ligand.clash>
0.0000

> <Gold.PLP.ligand.torsion>
0.9224

> <Gold.PLP.Chemscore.Hbond>
3.0000

> <Gold.PLP.Chemscore.CHOScore>
2.0000

> <Gold.PLP.Chemscore.Metal>
0.0000

> <Gold.Chemscore.Hbonds>
donor molecule, donor type, donor heavy atom, donor atom, acceptor molecule, acceptor atom, score
      L1  H     3    24       P1  7948  0.89
      P1  H  7989  7998       L1    10  1.00
      P1  H 10752 10765       L1     8  1.00
      L1  C    16    35       P1  7948  1.00
      L1  C    18    37       P1 10186  0.71

> <Gold.PLP.Chemscore.Internal.Correction>
0.1468

> <Gold.Rescore>
     Score         DG    S(hbond)    S(metal)    S(lipo)     H(rot)  DE(clash)    DE(int)     intcor
     10.34     -12.93       2.89        0.00      36.21       2.52       0.06       2.52       ----

> <Gold.Chemscore.Fitness>
10.3440

> <Gold.Chemscore.DG>
-12.9254

> <Gold.Chemscore.ZeroCoef>
-5.4800

> <Gold.Chemscore.Hbond>
2.8891

> <Gold.Chemscore.Metal>
0.0000

> <Gold.Chemscore.Lipo>
36.2114

> <Gold.Chemscore.Internal_Hbond>
0.0000

> <Gold.Chemscore.DEClash>
0.0641

> <Gold.Chemscore.DEInternal>
2.5173

> <Gold.Chemscore.Rot>
2.5160

> <Gold.Chemscore.Internal.Correction>
   9.000000E+99

> <Gold.Chemscore.Hbonds>
donor molecule, donor type, donor heavy atom, donor atom, acceptor molecule, acceptor atom, score
      L1  H     3    24       P1  7948  0.87
      P1  H  7989  7998       L1    10  0.71
      P1  H 10752 10765       L1     8  0.96

> <Gold.Chemscore.Hbond.Weighted>
-9.6498

> <Gold.Chemscore.Metal.Weighted>
-0.0000

> <Gold.Chemscore.Lipo.Weighted>
-4.2367

> <Gold.Chemscore.Internal_Hbond.Weighted>
0.0000

> <Gold.Chemscore.DEClash.Weighted>
0.0641

> <Gold.Chemscore.DEInternal.Weighted>
2.5173

> <Gold.Chemscore.Rot.Weighted>
6.4410

> <Gold.Chemscore.Internal.Correction.Weighted>
   9.000000E+99

> <Gold.Protein.RotatedTorsions>
[ 6907 6896 6895 6894 ] final -161.30 input  -60.11 | X-H torsion
[ 7974 7965 7964 7962 ] final -150.48 input  175.53 | X-H torsion
[ 8008 7997 7996 7995 ] final  -51.92 input   59.86 | X-H torsion
[ 10167 10162 10161 10158 ] final -128.92 input  -65.29 | X-H torsion
[ 10718 10713 10712 10709 ] final  -64.05 input   66.30 | X-H torsion
[ 10763 10752 10751 10750 ] final -167.99 input  -60.55 | X-H torsion
[ 11005 11000 10999 10996 ] final   79.69 input  -57.11 | X-H torsion

> <Gold.Protein.ActiveResidues>
 VAL166  LYS551  ARG553  GLY616  TRP617  ASP618  TYR619  PRO620  LYS621  CYS622 
 ASP623  PHE694  ASN695  SER759  ASP760  ASP761  ALA762  ILE779  LEU786  VAL792 
 PHE793  MET794  SER795  GLU796  ALA797  LYS798  CYS799  TRP800  GLU811  SER814 

> <Gold.Protein.RotatedAtoms>
  151.3625  133.3884  159.2690 H   0  0  0  0  0  0  0  0  0  0  0  0  # atno 6907 bound_to 6896
  150.9714  134.9087  159.7801 H   0  0  0  0  0  0  0  0  0  0  0  0  # atno 6908 bound_to 6896
  152.5186  134.3587  159.9329 H   0  0  0  0  0  0  0  0  0  0  0  0  # atno 6909 bound_to 6896
  144.7905  140.4926  143.5776 H   0  0  0  0  0  0  0  0  0  0  0  0  # atno 7974 bound_to 7965
  154.4094  140.1236  156.4908 H   0  0  0  0  0  0  0  0  0  0  0  0  # atno 8008 bound_to 7997
  155.6992  140.3495  155.4906 H   0  0  0  0  0  0  0  0  0  0  0  0  # atno 8009 bound_to 7997
  155.9400  140.1085  157.1053 H   0  0  0  0  0  0  0  0  0  0  0  0  # atno 8010 bound_to 7997
  139.9452  143.6117  152.2492 H   0  0  0  0  0  0  0  0  0  0  0  0  # atno 10167 bound_to 10162
  156.0753  130.4228  150.1365 H   0  0  0  0  0  0  0  0  0  0  0  0  # atno 10718 bound_to 10713
  154.6675  135.2934  154.9786 H   0  0  0  0  0  0  0  0  0  0  0  0  # atno 10763 bound_to 10752
  154.0824  135.6602  153.4844 H   0  0  0  0  0  0  0  0  0  0  0  0  # atno 10764 bound_to 10752
  153.0466  135.5200  154.7655 H   0  0  0  0  0  0  0  0  0  0  0  0  # atno 10765 bound_to 10752
  139.9163  134.7862  156.1811 H   0  0  0  0  0  0  0  0  0  0  0  0  # atno 11005 bound_to 11000
  145.5807  139.1489  143.3237 LP  0  0  0  0  0  0  0  0  0  0  0  0  # atno 17320 bound_to 7965
  146.2155  140.5937  142.9040 LP  0  0  0  0  0  0  0  0  0  0  0  0  # atno 17321 bound_to 7965
  139.6672  144.7662  151.1851 LP  0  0  0  0  0  0  0  0  0  0  0  0  # atno 17342 bound_to 10162
  140.7599  143.5920  150.8787 LP  0  0  0  0  0  0  0  0  0  0  0  0  # atno 17343 bound_to 10162
  156.9408  130.9743  151.3516 LP  0  0  0  0  0  0  0  0  0  0  0  0  # atno 17370 bound_to 10713
  157.5845  130.8399  149.8569 LP  0  0  0  0  0  0  0  0  0  0  0  0  # atno 17371 bound_to 10713
  141.0641  133.6827  156.2011 LP  0  0  0  0  0  0  0  0  0  0  0  0  # atno 17394 bound_to 11000
  140.6613  134.4965  157.5583 LP  0  0  0  0  0  0  0  0  0  0  0  0  # atno 17395 bound_to 11000

$$$$
