AV-unprocessed.smi:1536|AV-procd|sdf|6187|dock2
  -GOLD-   22720 6353D 1   1.00000     0.00000
 Structure written by MMmdl.
 48 49  0  0  0  0  0  0  0  0  2 V2000
  151.8828  145.3488  160.0825 C   0  0  0  0  0  0  0  0  0  0  0  0
  151.8548  144.1930  159.0729 C   0  0  2  0  0  0  0  0  0  0  0  0
  150.4146  143.7858  158.7141 C   0  0  0  0  0  0  0  0  0  0  0  0
  150.3947  142.6106  157.7228 C   0  0  0  0  0  0  0  0  0  0  0  0
  151.1549  141.4536  158.2669 N   0  3  1  0  0  0  0  0  0  0  0  0
  150.9499  140.1591  157.5418 C   0  0  1  0  0  0  0  0  0  0  0  0
  149.5404  139.5360  157.7535 C   0  0  0  0  0  0  0  0  0  0  0  0
  149.5967  138.2023  158.3427 N   0  0  0  0  0  0  0  0  0  0  0  0
  148.5694  137.5497  158.9105 C   0  0  0  0  0  0  0  0  0  0  0  0
  147.4289  138.0063  158.9708 O   0  0  0  0  0  0  0  0  0  0  0  0
  148.8780  136.1893  159.5426 C   0  0  0  0  0  0  0  0  0  0  0  0
  148.2551  136.0384  160.8454 N   0  0  0  0  0  0  0  0  0  0  0  0
  148.0785  134.9623  161.6149 C   0  0  0  0  0  0  0  0  0  0  0  0
  147.4687  135.2689  162.7498 N   0  0  0  0  0  0  0  0  0  0  0  0
  147.2677  136.6351  162.6410 N   0  0  0  0  0  0  0  0  0  0  0  0
  147.7313  137.0973  161.5125 N   0  0  0  0  0  0  0  0  0  0  0  0
  151.3159  140.3326  156.0388 C   0  0  0  0  0  0  0  0  0  0  0  0
  150.1601  140.9107  155.2008 C   0  0  0  0  0  0  0  0  0  0  0  0
  151.7748  139.0049  155.4024 C   0  0  0  0  0  0  0  0  0  0  0  0
  152.5647  141.8040  158.5882 C   0  0  0  0  0  0  0  0  0  0  0  0
  152.6178  142.9630  159.5962 C   0  0  0  0  0  0  0  0  0  0  0  0
  151.4064  145.0674  161.0221 H   0  0  0  0  0  0  0  0  0  0  0  0
  151.3602  146.2231  159.6934 H   0  0  0  0  0  0  0  0  0  0  0  0
  152.9067  145.6500  160.3062 H   0  0  0  0  0  0  0  0  0  0  0  0
  152.3475  144.5365  158.1618 H   0  0  0  0  0  0  0  0  0  0  0  0
  149.8723  143.5071  159.6189 H   0  0  0  0  0  0  0  0  0  0  0  0
  149.8823  144.6352  158.2843 H   0  0  0  0  0  0  0  0  0  0  0  0
  149.3599  142.3224  157.5346 H   0  0  0  0  0  0  0  0  0  0  0  0
  150.8126  142.9340  156.7705 H   0  0  0  0  0  0  0  0  0  0  0  0
  151.6719  139.4466  157.9441 H   0  0  0  0  0  0  0  0  0  0  0  0
  148.9194  140.2083  158.3475 H   0  0  0  0  0  0  0  0  0  0  0  0
  149.0301  139.4187  156.7983 H   0  0  0  0  0  0  0  0  0  0  0  0
  150.4944  137.7394  158.3303 H   0  0  0  0  0  0  0  0  0  0  0  0
  148.5311  135.3938  158.8814 H   0  0  0  0  0  0  0  0  0  0  0  0
  149.9557  136.0657  159.6569 H   0  0  0  0  0  0  0  0  0  0  0  0
  148.3973  133.9654  161.3481 H   0  0  0  0  0  0  0  0  0  0  0  0
  152.1460  141.0352  155.9602 H   0  0  0  0  0  0  0  0  0  0  0  0
  149.2547  140.3117  155.3053 H   0  0  0  0  0  0  0  0  0  0  0  0
  150.4182  140.9357  154.1415 H   0  0  0  0  0  0  0  0  0  0  0  0
  149.9233  141.9358  155.4844 H   0  0  0  0  0  0  0  0  0  0  0  0
  150.9984  138.2425  155.4734 H   0  0  0  0  0  0  0  0  0  0  0  0
  152.6735  138.6108  155.8770 H   0  0  0  0  0  0  0  0  0  0  0  0
  152.0115  139.1371  154.3461 H   0  0  0  0  0  0  0  0  0  0  0  0
  153.0817  140.9405  159.0061 H   0  0  0  0  0  0  0  0  0  0  0  0
  153.1013  142.0880  157.6835 H   0  0  0  0  0  0  0  0  0  0  0  0
  153.6571  143.2252  159.7978 H   0  0  0  0  0  0  0  0  0  0  0  0
  152.1916  142.6382  160.5467 H   0  0  0  0  0  0  0  0  0  0  0  0
  150.7221  141.2878  159.1644 H   0  0  0  0  0  0  0  0  0  0  0  0
  1  2  1  0  0  0  0
  1 22  1  0  0  0  0
  1 23  1  0  0  0  0
  1 24  1  0  0  0  0
  2 21  1  0  0  0  0
  2  3  1  0  0  0  0
  2 25  1  0  0  0  0
  3  4  1  0  0  0  0
  3 26  1  0  0  0  0
  3 27  1  0  0  0  0
  4  5  1  0  0  0  0
  4 28  1  0  0  0  0
  4 29  1  0  0  0  0
  5  6  1  0  0  0  0
  5 20  1  0  0  0  0
  5 48  1  0  0  0  0
  6  7  1  0  0  0  0
  6 17  1  0  0  0  0
  6 30  1  0  0  0  0
  7  8  1  0  0  0  0
  7 31  1  0  0  0  0
  7 32  1  0  0  0  0
  8  9  1  0  0  0  0
  8 33  1  0  0  0  0
  9 10  2  0  0  0  0
  9 11  1  0  0  0  0
 11 12  1  0  0  0  0
 11 34  1  0  0  0  0
 11 35  1  0  0  0  0
 12 16  1  0  0  0  0
 12 13  1  0  0  0  0
 13 14  2  0  0  0  0
 13 36  1  0  0  0  0
 14 15  1  0  0  0  0
 15 16  2  0  0  0  0
 17 18  1  0  0  0  0
 17 19  1  0  0  0  0
 17 37  1  0  0  0  0
 18 38  1  0  0  0  0
 18 39  1  0  0  0  0
 18 40  1  0  0  0  0
 19 41  1  0  0  0  0
 19 42  1  0  0  0  0
 19 43  1  0  0  0  0
 20 21  1  0  0  0  0
 20 44  1  0  0  0  0
 20 45  1  0  0  0  0
 21 46  1  0  0  0  0
 21 47  1  0  0  0  0
M  CHG  1   5   1
M  END
> <s_m_source_file>
AV-unprocessed.smi

> <i_m_source_file_index>
1536

> <i_lp_mmshare_version>
43012

> <i_f3d_flags>
0

> <s_epik_input>
W0NIM11bQ0hdMVtDSDJdW0NIMl1OKFtDSDJdW0NIMl0xKVtDQEBIXShbQ0hdKFtDSDNdKVtDSDNdKVtDSDJdW05IXUMoPU8pW0NIMl1uMltjSF1ubm4y

> <s_epik_cmdline>
J2VwaWtfcHl0aG9uJywgJy1waCcsICc3LjAnLCAnLXRuJywgJzgnLCAnLW1hJywgJzIwMCcsICctbWV0YWxfYmluZGluZycsICctaW1hZScsICc8aW5maWxlLm1hZT4nLCAnLW9tYWUnLCAnPG91dGZpbGUubWFlPic=

> <r_lp_tautomer_probability>
1

> <r_epik_Ionization_Penalty>
0.00109671

> <r_epik_Ionization_Penalty_Charging>
0.00109273

> <r_epik_Ionization_Penalty_Neutral>
3.97951e-06

> <r_epik_State_Penalty>
0.000716588

> <r_epik_Charging_Adjusted_Penalty>
0.00180932

> <i_epik_Tot_Q>
1

> <i_epik_Tot_abs_Q>
1

> <r_epik_Metal_State_Penalty>
-0

> <b_epik_Metal_Only>
0

> <s_lp_Force_Field>
OPLS_2005

> <r_lp_Energy>
35.3262

> <b_lp_Chiralities_Consistent>
1

> <s_lp_Variant>
AV-unprocessed.smi:1536-2

> <Gold.Version>
5.8.1

> <Gold.Id.Protein>
6NUR|6NUR_protein|mol2

> <Gold.PLP.Fitness>
43.5015

> <Gold.PLP.PLP>
-41.1589

> <Gold.PLP.part.hbond>
-3.0000

> <Gold.PLP.part.metal>
0.0000

> <Gold.PLP.part.buried>
-5.6315

> <Gold.PLP.part.nonpolar>
-32.4585

> <Gold.PLP.part.repulsive>
0.2426

> <Gold.PLP.ligand.clash>
0.0000

> <Gold.PLP.ligand.torsion>
1.8805

> <Gold.PLP.Chemscore.Hbond>
1.8400

> <Gold.PLP.Chemscore.CHOScore>
0.0000

> <Gold.PLP.Chemscore.Metal>
0.0000

> <Gold.Chemscore.Hbonds>
donor molecule, donor type, donor heavy atom, donor atom, acceptor molecule, acceptor atom, score
      P1  H  6931  6943       L1    16  1.00
      P1  H  6934  6947       L1    16  0.67

> <Gold.PLP.Chemscore.Internal.Correction>
0.5836

> <Gold.Rescore>
     Score         DG    S(hbond)    S(metal)    S(lipo)     H(rot)  DE(clash)    DE(int)     intcor
      8.15     -12.60       1.09        0.00      90.33       2.77       0.05       4.40       ----

> <Gold.Chemscore.Fitness>
8.1493

> <Gold.Chemscore.DG>
-12.6045

> <Gold.Chemscore.ZeroCoef>
-5.4800

> <Gold.Chemscore.Hbond>
1.0925

> <Gold.Chemscore.Metal>
0.0000

> <Gold.Chemscore.Lipo>
90.3335

> <Gold.Chemscore.Internal_Hbond>
0.0000

> <Gold.Chemscore.DEClash>
0.0504

> <Gold.Chemscore.DEInternal>
4.4048

> <Gold.Chemscore.Rot>
2.7709

> <Gold.Chemscore.Internal.Correction>
   9.000000E+99

> <Gold.Chemscore.Hbonds>
donor molecule, donor type, donor heavy atom, donor atom, acceptor molecule, acceptor atom, score
      P1  H  6931  6943       L1    16  0.44
      P1  H  6934  6947       L1    16  0.64

> <Gold.Chemscore.Hbond.Weighted>
-3.6490

> <Gold.Chemscore.Metal.Weighted>
-0.0000

> <Gold.Chemscore.Lipo.Weighted>
-10.5690

> <Gold.Chemscore.Internal_Hbond.Weighted>
0.0000

> <Gold.Chemscore.DEClash.Weighted>
0.0504

> <Gold.Chemscore.DEInternal.Weighted>
4.4048

> <Gold.Chemscore.Rot.Weighted>
7.0935

> <Gold.Chemscore.Internal.Correction.Weighted>
   9.000000E+99

> <Gold.Protein.RotatedTorsions>
[ 6907 6896 6895 6894 ] final   63.82 input  -60.11 | X-H torsion
[ 7974 7965 7964 7962 ] final  -15.11 input  175.53 | X-H torsion
[ 8008 7997 7996 7995 ] final -146.11 input   59.86 | X-H torsion
[ 10167 10162 10161 10158 ] final  162.46 input  -65.29 | X-H torsion
[ 10718 10713 10712 10709 ] final  -13.20 input   66.30 | X-H torsion
[ 10763 10752 10751 10750 ] final  161.19 input  -60.55 | X-H torsion
[ 11005 11000 10999 10996 ] final  -44.90 input  -57.11 | X-H torsion

> <Gold.Protein.ActiveResidues>
 VAL166  LYS551  ARG553  GLY616  TRP617  ASP618  TYR619  PRO620  LYS621  CYS622 
 ASP623  PHE694  ASN695  SER759  ASP760  ASP761  ALA762  ILE779  LEU786  VAL792 
 PHE793  MET794  SER795  GLU796  ALA797  LYS798  CYS799  TRP800  GLU811  SER814 

> <Gold.Protein.RotatedAtoms>
  152.4283  134.5826  159.9951 H   0  0  0  0  0  0  0  0  0  0  0  0  # atno 6907 bound_to 6896
  151.5956  133.3356  159.3044 H   0  0  0  0  0  0  0  0  0  0  0  0  # atno 6908 bound_to 6896
  150.8174  134.7400  159.6807 H   0  0  0  0  0  0  0  0  0  0  0  0  # atno 6909 bound_to 6896
  146.2046  140.3445  142.8411 H   0  0  0  0  0  0  0  0  0  0  0  0  # atno 7974 bound_to 7965
  155.5541  140.0619  157.2843 H   0  0  0  0  0  0  0  0  0  0  0  0  # atno 8008 bound_to 7997
  154.4411  140.1897  156.0761 H   0  0  0  0  0  0  0  0  0  0  0  0  # atno 8009 bound_to 7997
  156.0495  140.3286  155.7338 H   0  0  0  0  0  0  0  0  0  0  0  0  # atno 8010 bound_to 7997
  139.4861  144.4435  151.8921 H   0  0  0  0  0  0  0  0  0  0  0  0  # atno 10167 bound_to 10162
  156.6337  130.4908  149.6120 H   0  0  0  0  0  0  0  0  0  0  0  0  # atno 10718 bound_to 10713
  154.2590  135.2769  155.2786 H   0  0  0  0  0  0  0  0  0  0  0  0  # atno 10763 bound_to 10752
  154.5400  135.5705  153.6834 H   0  0  0  0  0  0  0  0  0  0  0  0  # atno 10764 bound_to 10752
  152.9966  135.6248  154.2740 H   0  0  0  0  0  0  0  0  0  0  0  0  # atno 10765 bound_to 10752
  141.0480  133.6753  156.2937 H   0  0  0  0  0  0  0  0  0  0  0  0  # atno 11005 bound_to 11000
  144.8762  140.7339  143.6015 LP  0  0  0  0  0  0  0  0  0  0  0  0  # atno 17320 bound_to 7965
  145.3365  139.1744  143.4509 LP  0  0  0  0  0  0  0  0  0  0  0  0  # atno 17321 bound_to 7965
  140.3888  144.2642  150.5901 LP  0  0  0  0  0  0  0  0  0  0  0  0  # atno 17342 bound_to 10162
  140.5165  143.2277  151.8455 LP  0  0  0  0  0  0  0  0  0  0  0  0  # atno 17343 bound_to 10162
  156.2214  130.6739  151.1372 LP  0  0  0  0  0  0  0  0  0  0  0  0  # atno 17370 bound_to 10713
  157.7192  131.0692  150.6204 LP  0  0  0  0  0  0  0  0  0  0  0  0  # atno 17371 bound_to 10713
  140.6109  134.5459  157.5533 LP  0  0  0  0  0  0  0  0  0  0  0  0  # atno 17394 bound_to 11000
  139.9327  134.7932  156.0885 LP  0  0  0  0  0  0  0  0  0  0  0  0  # atno 17395 bound_to 11000

$$$$
