AV-unprocessed.smi:20|AV-procd|sdf|115|dock4
  -GOLD-   2262015283D 1   1.00000     0.00000
 Structure written by MMmdl.
 57 61  0  0  0  0  0  0  0  0  1 V2000
  152.1752  145.5698  158.2044 O   0  0  0  0  0  0  0  0  0  0  0  0
  152.2797  144.7713  159.1325 C   0  0  0  0  0  0  0  0  0  0  0  0
  153.2218  143.5794  159.1193 C   0  0  0  0  0  0  0  0  0  0  0  0
  152.7140  142.7106  160.2941 C   0  0  2  0  0  0  0  0  0  0  0  0
  153.8532  142.0078  161.0676 C   0  0  0  0  0  0  0  0  0  0  0  0
  154.5049  140.9003  160.2240 C   0  0  0  0  0  0  0  0  0  0  0  0
  153.4545  139.8936  159.7332 C   0  0  0  0  0  0  0  0  0  0  0  0
  152.3679  140.5800  159.0406 N   0  0  0  0  0  0  0  0  0  0  0  0
  151.5765  139.8734  158.1943 C   0  0  0  0  0  0  0  0  0  0  0  0
  151.5435  138.5251  158.3571 N   0  0  0  0  0  0  0  0  0  0  0  0
  150.7845  137.7642  157.5641 C   0  0  0  0  0  0  0  0  0  0  0  0
  149.9969  138.1385  156.5555 N   0  0  0  0  0  0  0  0  0  0  0  0
  150.0303  139.4897  156.3777 C   0  0  0  0  0  0  0  0  0  0  0  0
  150.7789  140.4265  157.1478 C   0  0  0  0  0  0  0  0  0  0  0  0
  150.5542  141.7109  156.6621 N   0  0  0  0  0  0  0  0  0  0  0  0
  149.7230  141.5437  155.6708 C   0  0  0  0  0  0  0  0  0  0  0  0
  149.3744  140.2375  155.4153 N   0  0  0  0  0  0  0  0  0  0  0  0
  148.4753  139.7675  154.3762 C   0  0  0  0  0  0  0  0  0  0  0  0
  147.7411  140.8876  153.5860 C   0  0  1  0  0  0  0  0  0  0  0  0
  146.7920  140.2356  152.5510 C   0  0  0  0  0  0  0  0  0  0  0  0
  147.3925  139.1157  151.9332 O   0  0  0  0  0  0  0  0  0  0  0  0
  146.9812  141.8923  154.5047 C   0  0  2  0  0  0  0  0  0  0  0  0
  145.8453  141.2916  155.3207 C   0  0  0  0  0  0  0  0  0  0  0  0
  145.0405  142.5211  155.7132 C   0  0  0  0  0  0  0  0  0  0  0  0
  145.0807  143.3458  154.5607 O   0  0  0  0  0  0  0  0  0  0  0  0
  146.2294  143.0246  153.7816 C   0  0  0  0  0  0  0  0  0  0  0  0
  151.7039  141.6456  159.7937 C   0  0  0  0  0  0  0  0  0  0  0  0
  151.9758  143.7388  161.1825 C   0  0  0  0  0  0  0  0  0  0  0  0
  151.6061  144.8121  160.2798 N   0  0  0  0  0  0  0  0  0  0  0  0
  153.2009  143.0624  158.1593 H   0  0  0  0  0  0  0  0  0  0  0  0
  154.2370  143.9393  159.2904 H   0  0  0  0  0  0  0  0  0  0  0  0
  154.6081  142.7309  161.3785 H   0  0  0  0  0  0  0  0  0  0  0  0
  153.4544  141.5697  161.9837 H   0  0  0  0  0  0  0  0  0  0  0  0
  155.0162  141.3416  159.3675 H   0  0  0  0  0  0  0  0  0  0  0  0
  155.2684  140.3853  160.8074 H   0  0  0  0  0  0  0  0  0  0  0  0
  153.9295  139.1711  159.0685 H   0  0  0  0  0  0  0  0  0  0  0  0
  153.0476  139.3418  160.5814 H   0  0  0  0  0  0  0  0  0  0  0  0
  150.8142  136.7036  157.7657 H   0  0  0  0  0  0  0  0  0  0  0  0
  149.3532  142.3727  155.0855 H   0  0  0  0  0  0  0  0  0  0  0  0
  149.0716  139.1520  153.7021 H   0  0  0  0  0  0  0  0  0  0  0  0
  147.7442  139.0975  154.8305 H   0  0  0  0  0  0  0  0  0  0  0  0
  148.4815  141.4559  153.0215 H   0  0  0  0  0  0  0  0  0  0  0  0
  145.8562  139.9309  153.0208 H   0  0  0  0  0  0  0  0  0  0  0  0
  146.5380  140.9273  151.7493 H   0  0  0  0  0  0  0  0  0  0  0  0
  148.0873  139.4193  151.3690 H   0  0  0  0  0  0  0  0  0  0  0  0
  147.6892  142.3388  155.2049 H   0  0  0  0  0  0  0  0  0  0  0  0
  145.2366  140.6294  154.7031 H   0  0  0  0  0  0  0  0  0  0  0  0
  146.1879  140.7329  156.1920 H   0  0  0  0  0  0  0  0  0  0  0  0
  144.0168  142.2831  156.0025 H   0  0  0  0  0  0  0  0  0  0  0  0
  145.5193  143.0441  156.5422 H   0  0  0  0  0  0  0  0  0  0  0  0
  146.8473  143.9126  153.6563 H   0  0  0  0  0  0  0  0  0  0  0  0
  145.8862  142.7085  152.7959 H   0  0  0  0  0  0  0  0  0  0  0  0
  151.1999  141.1847  160.6445 H   0  0  0  0  0  0  0  0  0  0  0  0
  150.9238  142.1262  159.2021 H   0  0  0  0  0  0  0  0  0  0  0  0
  151.1003  143.3203  161.6803 H   0  0  0  0  0  0  0  0  0  0  0  0
  152.6319  144.1490  161.9516 H   0  0  0  0  0  0  0  0  0  0  0  0
  150.9219  145.5166  160.5153 H   0  0  0  0  0  0  0  0  0  0  0  0
  1  2  2  0  0  0  0
  2 29  1  0  0  0  0
  2  3  1  0  0  0  0
  3  4  1  0  0  0  0
  3 30  1  0  0  0  0
  3 31  1  0  0  0  0
  4 27  1  0  0  0  0
  4  5  1  0  0  0  0
  4 28  1  0  0  0  0
  5  6  1  0  0  0  0
  5 32  1  0  0  0  0
  5 33  1  0  0  0  0
  6  7  1  0  0  0  0
  6 34  1  0  0  0  0
  6 35  1  0  0  0  0
  7  8  1  0  0  0  0
  7 36  1  0  0  0  0
  7 37  1  0  0  0  0
  8  9  1  0  0  0  0
  8 27  1  0  0  0  0
  9 14  1  0  0  0  0
  9 10  2  0  0  0  0
 10 11  1  0  0  0  0
 11 12  2  0  0  0  0
 11 38  1  0  0  0  0
 12 13  1  0  0  0  0
 13 17  1  0  0  0  0
 13 14  2  0  0  0  0
 14 15  1  0  0  0  0
 15 16  2  0  0  0  0
 16 17  1  0  0  0  0
 16 39  1  0  0  0  0
 17 18  1  0  0  0  0
 18 19  1  0  0  0  0
 18 40  1  0  0  0  0
 18 41  1  0  0  0  0
 19 20  1  0  0  0  0
 19 22  1  0  0  0  0
 19 42  1  0  0  0  0
 20 21  1  0  0  0  0
 20 43  1  0  0  0  0
 20 44  1  0  0  0  0
 21 45  1  0  0  0  0
 22 26  1  0  0  0  0
 22 23  1  0  0  0  0
 22 46  1  0  0  0  0
 23 24  1  0  0  0  0
 23 47  1  0  0  0  0
 23 48  1  0  0  0  0
 24 25  1  0  0  0  0
 24 49  1  0  0  0  0
 24 50  1  0  0  0  0
 25 26  1  0  0  0  0
 26 51  1  0  0  0  0
 26 52  1  0  0  0  0
 27 53  1  0  0  0  0
 27 54  1  0  0  0  0
 28 29  1  0  0  0  0
 28 55  1  0  0  0  0
 28 56  1  0  0  0  0
 29 57  1  0  0  0  0
M  END
> <s_m_source_file>
AV-unprocessed.smi

> <i_m_source_file_index>
20

> <i_lp_mmshare_version>
43012

> <i_f3d_flags>
0

> <s_epik_input>
W0NIMl0xW05IXUMoPU8pW0NIMl1bQ0BAXTEyW0NIMl1bQ0gyXVtDSDJdTihbQ0gyXTIpYyhuW2NIXW4zKWMoYzM0KW5bY0hdbjRbQ0gyXVtDQEhdKFtDSDJdW09IXSlbQ0BASF01W0NIMl1bQ0gyXU9bQ0gyXTU=

> <s_epik_cmdline>
J2VwaWtfcHl0aG9uJywgJy1waCcsICc3LjAnLCAnLXRuJywgJzgnLCAnLW1hJywgJzIwMCcsICctbWV0YWxfYmluZGluZycsICctaW1hZScsICc8aW5maWxlLm1hZT4nLCAnLW9tYWUnLCAnPG91dGZpbGUubWFlPic=

> <r_lp_tautomer_probability>
1

> <r_epik_Ionization_Penalty>
0.0019697

> <r_epik_Ionization_Penalty_Charging>
0

> <r_epik_Ionization_Penalty_Neutral>
0.0019697

> <r_epik_State_Penalty>
0.00113613

> <r_epik_Charging_Adjusted_Penalty>
0.00113613

> <i_epik_Tot_Q>
0

> <i_epik_Tot_abs_Q>
0

> <r_epik_Metal_State_Penalty>
-0

> <b_epik_Metal_Only>
0

> <s_lp_Force_Field>
OPLS_2005

> <r_lp_Energy>
60.5509

> <b_lp_Chiralities_Consistent>
1

> <s_lp_Variant>
AV-unprocessed.smi:20-3

> <Gold.Version>
5.8.1

> <Gold.Id.Protein>
6NUR|6NUR_protein|mol2

> <Gold.PLP.Fitness>
55.3639

> <Gold.PLP.PLP>
-50.6982

> <Gold.PLP.part.hbond>
-1.8088

> <Gold.PLP.part.metal>
0.0000

> <Gold.PLP.part.buried>
-2.8060

> <Gold.PLP.part.nonpolar>
-47.8827

> <Gold.PLP.part.repulsive>
0.4880

> <Gold.PLP.ligand.clash>
0.0063

> <Gold.PLP.ligand.torsion>
0.8199

> <Gold.PLP.Chemscore.Hbond>
1.0000

> <Gold.PLP.Chemscore.CHOScore>
1.0000

> <Gold.PLP.Chemscore.Metal>
0.0000

> <Gold.Chemscore.Hbonds>
donor molecule, donor type, donor heavy atom, donor atom, acceptor molecule, acceptor atom, score
      L1  H    21    45       P1  7957  1.00
      L1  C    16    39       P1  8028  1.00

> <Gold.PLP.Chemscore.Internal.Correction>
0.3119

> <Gold.Rescore>
     Score         DG    S(hbond)    S(metal)    S(lipo)     H(rot)  DE(clash)    DE(int)     intcor
     13.43     -15.83       0.99        0.00     113.49       2.43       0.47       1.93       ----

> <Gold.Chemscore.Fitness>
13.4257

> <Gold.Chemscore.DG>
-15.8260

> <Gold.Chemscore.ZeroCoef>
-5.4800

> <Gold.Chemscore.Hbond>
0.9854

> <Gold.Chemscore.Metal>
0.0000

> <Gold.Chemscore.Lipo>
113.4861

> <Gold.Chemscore.Internal_Hbond>
0.0000

> <Gold.Chemscore.DEClash>
0.4682

> <Gold.Chemscore.DEInternal>
1.9321

> <Gold.Chemscore.Rot>
2.4309

> <Gold.Chemscore.Internal.Correction>
   9.000000E+99

> <Gold.Chemscore.Hbonds>
donor molecule, donor type, donor heavy atom, donor atom, acceptor molecule, acceptor atom, score
      L1  H    21    45       P1  7957  0.89

> <Gold.Chemscore.Hbond.Weighted>
-3.2913

> <Gold.Chemscore.Metal.Weighted>
-0.0000

> <Gold.Chemscore.Lipo.Weighted>
-13.2779

> <Gold.Chemscore.Internal_Hbond.Weighted>
0.0000

> <Gold.Chemscore.DEClash.Weighted>
0.4682

> <Gold.Chemscore.DEInternal.Weighted>
1.9321

> <Gold.Chemscore.Rot.Weighted>
6.2231

> <Gold.Chemscore.Internal.Correction.Weighted>
   9.000000E+99

> <Gold.Protein.RotatedTorsions>
[ 6907 6896 6895 6894 ] final -136.99 input  -60.11 | X-H torsion
[ 7974 7965 7964 7962 ] final   63.09 input  175.53 | X-H torsion
[ 8008 7997 7996 7995 ] final   14.55 input   59.86 | X-H torsion
[ 10167 10162 10161 10158 ] final   22.61 input  -65.29 | X-H torsion
[ 10718 10713 10712 10709 ] final   84.68 input   66.30 | X-H torsion
[ 10763 10752 10751 10750 ] final -132.13 input  -60.55 | X-H torsion
[ 11005 11000 10999 10996 ] final  -93.60 input  -57.11 | X-H torsion

> <Gold.Protein.ActiveResidues>
 VAL166  LYS551  ARG553  GLY616  TRP617  ASP618  TYR619  PRO620  LYS621  CYS622 
 ASP623  PHE694  ASN695  SER759  ASP760  ASP761  ALA762  ILE779  LEU786  VAL792 
 PHE793  MET794  SER795  GLU796  ALA797  LYS798  CYS799  TRP800  GLU811  SER814 

> <Gold.Protein.RotatedAtoms>
  151.0170  133.5912  159.2675 H   0  0  0  0  0  0  0  0  0  0  0  0  # atno 6907 bound_to 6896
  151.3043  135.0776  159.9259 H   0  0  0  0  0  0  0  0  0  0  0  0  # atno 6908 bound_to 6896
  152.5314  133.9846  159.7876 H   0  0  0  0  0  0  0  0  0  0  0  0  # atno 6909 bound_to 6896
  145.8659  139.3345  143.0791 H   0  0  0  0  0  0  0  0  0  0  0  0  # atno 7974 bound_to 7965
  154.8501  140.2928  155.5604 H   0  0  0  0  0  0  0  0  0  0  0  0  # atno 8008 bound_to 7997
  156.3016  140.2497  156.3390 H   0  0  0  0  0  0  0  0  0  0  0  0  # atno 8009 bound_to 7997
  154.9030  140.0391  157.1893 H   0  0  0  0  0  0  0  0  0  0  0  0  # atno 8010 bound_to 7997
  140.5335  143.9801  150.6478 H   0  0  0  0  0  0  0  0  0  0  0  0  # atno 10167 bound_to 10162
  157.6902  131.0143  150.2709 H   0  0  0  0  0  0  0  0  0  0  0  0  # atno 10718 bound_to 10713
  154.8745  135.3807  154.4360 H   0  0  0  0  0  0  0  0  0  0  0  0  # atno 10763 bound_to 10752
  153.5049  135.7030  153.5817 H   0  0  0  0  0  0  0  0  0  0  0  0  # atno 10764 bound_to 10752
  153.4132  135.3919  155.2030 H   0  0  0  0  0  0  0  0  0  0  0  0  # atno 10765 bound_to 10752
  141.1493  133.7898  157.0182 H   0  0  0  0  0  0  0  0  0  0  0  0  # atno 11005 bound_to 11000
  145.9194  140.9126  143.0413 LP  0  0  0  0  0  0  0  0  0  0  0  0  # atno 17320 bound_to 7965
  144.6726  140.1268  143.7446 LP  0  0  0  0  0  0  0  0  0  0  0  0  # atno 17321 bound_to 7965
  140.3182  143.3154  152.0811 LP  0  0  0  0  0  0  0  0  0  0  0  0  # atno 17342 bound_to 10162
  139.4962  144.6591  151.6505 LP  0  0  0  0  0  0  0  0  0  0  0  0  # atno 17343 bound_to 10162
  156.3272  130.3795  149.7523 LP  0  0  0  0  0  0  0  0  0  0  0  0  # atno 17370 bound_to 10713
  156.5074  130.8156  151.3156 LP  0  0  0  0  0  0  0  0  0  0  0  0  # atno 17371 bound_to 10713
  140.0833  134.9635  157.1660 LP  0  0  0  0  0  0  0  0  0  0  0  0  # atno 17394 bound_to 11000
  140.3546  134.2561  155.7194 LP  0  0  0  0  0  0  0  0  0  0  0  0  # atno 17395 bound_to 11000

$$$$
