AV-unprocessed.smi:564|AV-procd|sdf|2949|dock4
  -GOLD-   2262023453D 1   1.00000     0.00000
 Structure written by MMmdl.
 50 51  0  0  0  0  0  0  0  0  2 V2000
  152.7146  138.4965  154.9495 C   0  0  0  0  0  0  0  0  0  0  0  0
  152.0089  139.4654  155.8549 C   0  0  0  0  0  0  0  0  0  0  0  0
  152.5171  139.7025  157.0524 N   0  0  0  0  0  0  0  0  0  0  0  0
  151.6829  140.6019  157.6106 N   0  0  0  0  0  0  0  0  0  0  0  0
  151.9588  141.0893  158.9481 C   0  0  0  0  0  0  0  0  0  0  0  0
  150.6462  140.9374  156.7617 C   0  0  0  0  0  0  0  0  0  0  0  0
  149.5891  141.9241  157.1400 C   0  0  0  0  0  0  0  0  0  0  0  0
  150.8193  140.2152  155.6110 C   0  0  0  0  0  0  0  0  0  0  0  0
  149.9608  140.2138  154.3680 C   0  0  0  0  0  0  0  0  0  0  0  0
  148.5795  139.6003  154.6313 C   0  0  0  0  0  0  0  0  0  0  0  0
  148.2078  139.3231  155.7729 O   0  0  0  0  0  0  0  0  0  0  0  0
  147.8182  139.3883  153.5472 N   0  0  0  0  0  0  0  0  0  0  0  0
  146.4786  138.8129  153.5688 C   0  0  0  0  0  0  0  0  0  0  0  0
  146.4705  137.4332  154.2570 C   0  0  0  0  0  0  0  0  0  0  0  0
  146.1711  136.3076  153.3304 N   0  3  2  0  0  0  0  0  0  0  0  0
  145.0410  136.6289  152.4166 C   0  0  0  0  0  0  0  0  0  0  0  0
  144.8763  135.5595  151.3251 C   0  0  0  0  0  0  0  0  0  0  0  0
  144.7004  134.1677  151.9409 C   0  0  0  0  0  0  0  0  0  0  0  0
  145.8701  133.8669  152.8877 C   0  0  0  0  0  0  0  0  0  0  0  0
  146.0440  134.9579  153.9663 C   0  0  2  0  0  0  0  0  0  0  0  0
  144.9474  134.8848  155.0507 C   0  0  0  0  0  0  0  0  0  0  0  0
  152.1685  138.3419  154.0196 H   0  0  0  0  0  0  0  0  0  0  0  0
  152.8300  137.5244  155.4293 H   0  0  0  0  0  0  0  0  0  0  0  0
  153.7088  138.8598  154.6893 H   0  0  0  0  0  0  0  0  0  0  0  0
  151.0363  141.1240  159.5279 H   0  0  0  0  0  0  0  0  0  0  0  0
  152.3825  142.0921  158.8903 H   0  0  0  0  0  0  0  0  0  0  0  0
  152.6665  140.4332  159.4568 H   0  0  0  0  0  0  0  0  0  0  0  0
  149.0425  142.2706  156.2630 H   0  0  0  0  0  0  0  0  0  0  0  0
  150.0240  142.7986  157.6240 H   0  0  0  0  0  0  0  0  0  0  0  0
  148.8723  141.4763  157.8284 H   0  0  0  0  0  0  0  0  0  0  0  0
  149.8215  141.2238  153.9828 H   0  0  0  0  0  0  0  0  0  0  0  0
  150.4422  139.6539  153.5655 H   0  0  0  0  0  0  0  0  0  0  0  0
  148.1925  139.6480  152.6457 H   0  0  0  0  0  0  0  0  0  0  0  0
  145.7842  139.4948  154.0630 H   0  0  0  0  0  0  0  0  0  0  0  0
  146.1553  138.7311  152.5317 H   0  0  0  0  0  0  0  0  0  0  0  0
  147.4132  137.2569  154.7755 H   0  0  0  0  0  0  0  0  0  0  0  0
  145.7023  137.4417  155.0313 H   0  0  0  0  0  0  0  0  0  0  0  0
  144.1175  136.7354  152.9867 H   0  0  0  0  0  0  0  0  0  0  0  0
  145.2207  137.5921  151.9373 H   0  0  0  0  0  0  0  0  0  0  0  0
  144.0192  135.7992  150.6948 H   0  0  0  0  0  0  0  0  0  0  0  0
  145.7505  135.5637  150.6727 H   0  0  0  0  0  0  0  0  0  0  0  0
  143.7547  134.1166  152.4813 H   0  0  0  0  0  0  0  0  0  0  0  0
  144.6490  133.4132  151.1553 H   0  0  0  0  0  0  0  0  0  0  0  0
  145.7315  132.8908  153.3540 H   0  0  0  0  0  0  0  0  0  0  0  0
  146.7880  133.7928  152.3028 H   0  0  0  0  0  0  0  0  0  0  0  0
  146.9899  134.7323  154.4576 H   0  0  0  0  0  0  0  0  0  0  0  0
  144.8822  133.8778  155.4637 H   0  0  0  0  0  0  0  0  0  0  0  0
  143.9616  135.1386  154.6623 H   0  0  0  0  0  0  0  0  0  0  0  0
  145.1587  135.5514  155.8863 H   0  0  0  0  0  0  0  0  0  0  0  0
  146.9802  136.2410  152.7290 H   0  0  0  0  0  0  0  0  0  0  0  0
  1  2  1  0  0  0  0
  1 22  1  0  0  0  0
  1 23  1  0  0  0  0
  1 24  1  0  0  0  0
  2  8  1  0  0  0  0
  2  3  2  0  0  0  0
  3  4  1  0  0  0  0
  4  5  1  0  0  0  0
  4  6  1  0  0  0  0
  5 25  1  0  0  0  0
  5 26  1  0  0  0  0
  5 27  1  0  0  0  0
  6  7  1  0  0  0  0
  6  8  2  0  0  0  0
  7 28  1  0  0  0  0
  7 29  1  0  0  0  0
  7 30  1  0  0  0  0
  8  9  1  0  0  0  0
  9 10  1  0  0  0  0
  9 31  1  0  0  0  0
  9 32  1  0  0  0  0
 10 11  2  0  0  0  0
 10 12  1  0  0  0  0
 12 13  1  0  0  0  0
 12 33  1  0  0  0  0
 13 14  1  0  0  0  0
 13 34  1  0  0  0  0
 13 35  1  0  0  0  0
 14 15  1  0  0  0  0
 14 36  1  0  0  0  0
 14 37  1  0  0  0  0
 15 20  1  0  0  0  0
 15 16  1  0  0  0  0
 15 50  1  0  0  0  0
 16 17  1  0  0  0  0
 16 38  1  0  0  0  0
 16 39  1  0  0  0  0
 17 18  1  0  0  0  0
 17 40  1  0  0  0  0
 17 41  1  0  0  0  0
 18 19  1  0  0  0  0
 18 42  1  0  0  0  0
 18 43  1  0  0  0  0
 19 20  1  0  0  0  0
 19 44  1  0  0  0  0
 19 45  1  0  0  0  0
 20 21  1  0  0  0  0
 20 46  1  0  0  0  0
 21 47  1  0  0  0  0
 21 48  1  0  0  0  0
 21 49  1  0  0  0  0
M  CHG  1  15   1
M  END
> <s_m_source_file>
AV-unprocessed.smi

> <i_m_source_file_index>
564

> <i_lp_mmshare_version>
43012

> <i_f3d_flags>
0

> <s_epik_input>
W0NIM11jMW5uKFtDSDNdKWMoW0NIM10pYzFbQ0gyXUMoPU8pW05IXVtDSDJdW0NIMl1OMltDSDJdW0NIMl1bQ0gyXVtDSDJdW0NASF0yW0NIM10=

> <s_epik_cmdline>
J2VwaWtfcHl0aG9uJywgJy1waCcsICc3LjAnLCAnLXRuJywgJzgnLCAnLW1hJywgJzIwMCcsICctbWV0YWxfYmluZGluZycsICctaW1hZScsICc8aW5maWxlLm1hZT4nLCAnLW9tYWUnLCAnPG91dGZpbGUubWFlPic=

> <r_lp_tautomer_probability>
1

> <r_epik_Ionization_Penalty>
0.00456826

> <r_epik_Ionization_Penalty_Charging>
0.00240401

> <r_epik_Ionization_Penalty_Neutral>
0.00216425

> <r_epik_State_Penalty>
-0

> <r_epik_Charging_Adjusted_Penalty>
0.00240401

> <i_epik_Tot_Q>
1

> <i_epik_Tot_abs_Q>
1

> <r_epik_Metal_State_Penalty>
-0

> <b_epik_Metal_Only>
0

> <s_lp_Force_Field>
OPLS_2005

> <r_lp_Energy>
15.7718

> <b_lp_Chiralities_Consistent>
1

> <s_lp_Variant>
AV-unprocessed.smi:564-3

> <Gold.Version>
5.8.1

> <Gold.Id.Protein>
6NUR|6NUR_protein|mol2

> <Gold.PLP.Fitness>
45.7501

> <Gold.PLP.PLP>
-34.7782

> <Gold.PLP.part.hbond>
-3.0000

> <Gold.PLP.part.metal>
0.0000

> <Gold.PLP.part.buried>
-0.5650

> <Gold.PLP.part.nonpolar>
-30.7653

> <Gold.PLP.part.repulsive>
0.0771

> <Gold.PLP.ligand.clash>
0.0000

> <Gold.PLP.ligand.torsion>
0.5634

> <Gold.PLP.Chemscore.Hbond>
4.0000

> <Gold.PLP.Chemscore.CHOScore>
0.0000

> <Gold.PLP.Chemscore.Metal>
0.0000

> <Gold.Chemscore.Hbonds>
donor molecule, donor type, donor heavy atom, donor atom, acceptor molecule, acceptor atom, score
      L1  H    12    33       P1  7957  0.88
      L1  H    15    50       P1  7948  1.43
      P1  H  7997  8010       L1     3  1.00

> <Gold.PLP.Chemscore.Internal.Correction>
0.0987

> <Gold.Rescore>
     Score         DG    S(hbond)    S(metal)    S(lipo)     H(rot)  DE(clash)    DE(int)     intcor
     18.18     -20.82       2.84        0.00      85.39       1.61       2.04       0.60       ----

> <Gold.Chemscore.Fitness>
18.1808

> <Gold.Chemscore.DG>
-20.8213

> <Gold.Chemscore.ZeroCoef>
-5.4800

> <Gold.Chemscore.Hbond>
2.8393

> <Gold.Chemscore.Metal>
0.0000

> <Gold.Chemscore.Lipo>
85.3891

> <Gold.Chemscore.Internal_Hbond>
0.0000

> <Gold.Chemscore.DEClash>
2.0440

> <Gold.Chemscore.DEInternal>
0.5964

> <Gold.Chemscore.Rot>
1.6142

> <Gold.Chemscore.Internal.Correction>
   9.000000E+99

> <Gold.Chemscore.Hbonds>
donor molecule, donor type, donor heavy atom, donor atom, acceptor molecule, acceptor atom, score
      L1  H    12    33       P1  7957  0.85
      L1  H    15    50       P1  7948  0.71
      P1  H  7997  8010       L1     3  0.44

> <Gold.Chemscore.Hbond.Weighted>
-9.4832

> <Gold.Chemscore.Metal.Weighted>
-0.0000

> <Gold.Chemscore.Lipo.Weighted>
-9.9905

> <Gold.Chemscore.Internal_Hbond.Weighted>
0.0000

> <Gold.Chemscore.DEClash.Weighted>
2.0440

> <Gold.Chemscore.DEInternal.Weighted>
0.5964

> <Gold.Chemscore.Rot.Weighted>
4.1324

> <Gold.Chemscore.Internal.Correction.Weighted>
   9.000000E+99

> <Gold.Protein.RotatedTorsions>
[ 6907 6896 6895 6894 ] final  -13.44 input  -60.11 | X-H torsion
[ 7974 7965 7964 7962 ] final  -71.72 input  175.53 | X-H torsion
[ 8008 7997 7996 7995 ] final   56.36 input   59.86 | X-H torsion
[ 10167 10162 10161 10158 ] final    8.29 input  -65.29 | X-H torsion
[ 10718 10713 10712 10709 ] final   -0.88 input   66.30 | X-H torsion
[ 10763 10752 10751 10750 ] final  -35.98 input  -60.55 | X-H torsion
[ 11005 11000 10999 10996 ] final -167.47 input  -57.11 | X-H torsion

> <Gold.Protein.ActiveResidues>
 VAL166  LYS551  ARG553  GLY616  TRP617  ASP618  TYR619  PRO620  LYS621  CYS622 
 ASP623  PHE694  ASN695  SER759  ASP760  ASP761  ALA762  ILE779  LEU786  VAL792 
 PHE793  MET794  SER795  GLU796  ALA797  LYS798  CYS799  TRP800  GLU811  SER814 

> <Gold.Protein.RotatedAtoms>
  151.3549  135.0892  159.9414 H   0  0  0  0  0  0  0  0  0  0  0  0  # atno 6907 bound_to 6896
  152.5177  133.9316  159.7593 H   0  0  0  0  0  0  0  0  0  0  0  0  # atno 6908 bound_to 6896
  150.9698  133.6301  159.2769 H   0  0  0  0  0  0  0  0  0  0  0  0  # atno 6909 bound_to 6896
  145.6744  140.9210  143.0865 H   0  0  0  0  0  0  0  0  0  0  0  0  # atno 7974 bound_to 7965
  155.5161  140.3478  155.4398 H   0  0  0  0  0  0  0  0  0  0  0  0  # atno 8008 bound_to 7997
  156.0816  140.1388  156.9732 H   0  0  0  0  0  0  0  0  0  0  0  0  # atno 8009 bound_to 7997
  154.4583  140.0945  156.6797 H   0  0  0  0  0  0  0  0  0  0  0  0  # atno 8010 bound_to 7997
  140.6323  143.7966  150.7312 H   0  0  0  0  0  0  0  0  0  0  0  0  # atno 10167 bound_to 10162
  156.8139  130.5434  149.5705 H   0  0  0  0  0  0  0  0  0  0  0  0  # atno 10718 bound_to 10713
  153.8723  135.6830  153.4773 H   0  0  0  0  0  0  0  0  0  0  0  0  # atno 10763 bound_to 10752
  153.1280  135.4710  154.9302 H   0  0  0  0  0  0  0  0  0  0  0  0  # atno 10764 bound_to 10752
  154.7708  135.3238  154.8143 H   0  0  0  0  0  0  0  0  0  0  0  0  # atno 10765 bound_to 10752
  140.5529  134.5410  157.5126 H   0  0  0  0  0  0  0  0  0  0  0  0  # atno 11005 bound_to 11000
  144.7046  139.8615  143.7434 LP  0  0  0  0  0  0  0  0  0  0  0  0  # atno 17320 bound_to 7965
  146.1018  139.4014  143.0342 LP  0  0  0  0  0  0  0  0  0  0  0  0  # atno 17321 bound_to 7965
  140.1580  143.4300  152.2086 LP  0  0  0  0  0  0  0  0  0  0  0  0  # atno 17342 bound_to 10162
  139.5536  144.7356  151.4361 LP  0  0  0  0  0  0  0  0  0  0  0  0  # atno 17343 bound_to 10162
  156.1028  130.5982  150.9922 LP  0  0  0  0  0  0  0  0  0  0  0  0  # atno 17370 bound_to 10713
  157.6491  131.0899  150.8089 LP  0  0  0  0  0  0  0  0  0  0  0  0  # atno 17371 bound_to 10713
  139.9446  134.7725  156.0593 LP  0  0  0  0  0  0  0  0  0  0  0  0  # atno 17394 bound_to 11000
  141.1161  133.6627  156.3097 LP  0  0  0  0  0  0  0  0  0  0  0  0  # atno 17395 bound_to 11000

$$$$
