AV-unprocessed.smi:2335|AV-procd|sdf|9326|dock5
  -GOLD-   2272012543D 1   1.00000     0.00000
 Structure written by MMmdl.
 41 42  0  0  0  0  0  0  0  0  2 V2000
  143.9768  135.2195  162.5302 C   0  0  0  0  0  0  0  0  0  0  0  0
  145.3483  134.5430  162.6294 C   0  0  0  0  0  0  0  0  0  0  0  0
  146.3717  135.1927  161.7592 C   0  0  0  0  0  0  0  0  0  0  0  0
  146.6625  136.4944  161.8298 N   0  0  0  0  0  0  0  0  0  0  0  0
  147.6693  136.8538  160.9456 N   0  0  0  0  0  0  0  0  0  0  0  0
  148.1277  135.8216  160.2234 C   0  0  0  0  0  0  0  0  0  0  0  0
  149.1080  135.9546  159.3151 N   0  5  0  0  0  0  0  0  0  0  0  0
  149.1419  137.0414  158.5114 C   0  0  0  0  0  0  0  0  0  0  0  0
  148.1683  137.6751  158.0983 O   0  0  0  0  0  0  0  0  0  0  0  0
  150.3814  137.4112  158.1609 N   0  0  0  0  0  0  0  0  0  0  0  0
  150.7329  138.5263  157.2833 C   0  0  1  0  0  0  0  0  0  0  0  0
  150.3082  139.8535  157.8799 C   0  0  0  0  0  0  0  0  0  0  0  0
  151.2382  140.8587  157.1911 C   0  0  0  0  0  0  0  0  0  0  0  0
  150.6418  141.3869  155.8751 C   0  0  0  0  0  0  0  0  0  0  0  0
  151.6336  142.0170  158.1198 C   0  0  0  0  0  0  0  0  0  0  0  0
  152.4138  140.1216  156.8600 O   0  0  0  0  0  0  0  0  0  0  0  0
  152.2535  138.7214  157.0898 C   0  0  0  0  0  0  0  0  0  0  0  0
  153.1014  138.3834  158.3337 C   0  0  0  0  0  0  0  0  0  0  0  0
  152.7871  137.9817  155.8526 C   0  0  0  0  0  0  0  0  0  0  0  0
  147.3434  134.2902  160.6088 S   0  0  0  0  0  0  0  0  0  0  0  0
  143.2523  134.7263  163.1782 H   0  0  0  0  0  0  0  0  0  0  0  0
  143.5929  135.1828  161.5103 H   0  0  0  0  0  0  0  0  0  0  0  0
  144.0334  136.2667  162.8289 H   0  0  0  0  0  0  0  0  0  0  0  0
  145.7009  134.5685  163.6608 H   0  0  0  0  0  0  0  0  0  0  0  0
  145.2666  133.4908  162.3535 H   0  0  0  0  0  0  0  0  0  0  0  0
  151.1457  136.8615  158.5248 H   0  0  0  0  0  0  0  0  0  0  0  0
  150.2391  138.4177  156.3157 H   0  0  0  0  0  0  0  0  0  0  0  0
  149.2507  140.0692  157.7244 H   0  0  0  0  0  0  0  0  0  0  0  0
  150.4854  139.8505  158.9568 H   0  0  0  0  0  0  0  0  0  0  0  0
  149.7210  141.9428  156.0542 H   0  0  0  0  0  0  0  0  0  0  0  0
  150.4097  140.5745  155.1861 H   0  0  0  0  0  0  0  0  0  0  0  0
  151.3388  142.0552  155.3684 H   0  0  0  0  0  0  0  0  0  0  0  0
  150.7607  142.5978  158.4184 H   0  0  0  0  0  0  0  0  0  0  0  0
  152.3327  142.6944  157.6284 H   0  0  0  0  0  0  0  0  0  0  0  0
  152.1164  141.6499  159.0262 H   0  0  0  0  0  0  0  0  0  0  0  0
  153.0780  137.3163  158.5574 H   0  0  0  0  0  0  0  0  0  0  0  0
  152.7501  138.9169  159.2171 H   0  0  0  0  0  0  0  0  0  0  0  0
  154.1450  138.6593  158.1804 H   0  0  0  0  0  0  0  0  0  0  0  0
  152.7114  136.9010  155.9734 H   0  0  0  0  0  0  0  0  0  0  0  0
  153.8359  138.2200  155.6738 H   0  0  0  0  0  0  0  0  0  0  0  0
  152.2308  138.2569  154.9563 H   0  0  0  0  0  0  0  0  0  0  0  0
  1  2  1  0  0  0  0
  1 21  1  0  0  0  0
  1 22  1  0  0  0  0
  1 23  1  0  0  0  0
  2  3  1  0  0  0  0
  2 24  1  0  0  0  0
  2 25  1  0  0  0  0
  3 20  1  0  0  0  0
  3  4  2  0  0  0  0
  4  5  1  0  0  0  0
  5  6  2  0  0  0  0
  6  7  1  0  0  0  0
  6 20  1  0  0  0  0
  7  8  1  0  0  0  0
  8  9  2  0  0  0  0
  8 10  1  0  0  0  0
 10 11  1  0  0  0  0
 10 26  1  0  0  0  0
 11 17  1  0  0  0  0
 11 12  1  0  0  0  0
 11 27  1  0  0  0  0
 12 13  1  0  0  0  0
 12 28  1  0  0  0  0
 12 29  1  0  0  0  0
 13 14  1  0  0  0  0
 13 15  1  0  0  0  0
 13 16  1  0  0  0  0
 14 30  1  0  0  0  0
 14 31  1  0  0  0  0
 14 32  1  0  0  0  0
 15 33  1  0  0  0  0
 15 34  1  0  0  0  0
 15 35  1  0  0  0  0
 16 17  1  0  0  0  0
 17 18  1  0  0  0  0
 17 19  1  0  0  0  0
 18 36  1  0  0  0  0
 18 37  1  0  0  0  0
 18 38  1  0  0  0  0
 19 39  1  0  0  0  0
 19 40  1  0  0  0  0
 19 41  1  0  0  0  0
M  CHG  1   7  -1
M  END
> <s_m_source_file>
AV-unprocessed.smi

> <i_m_source_file_index>
2335

> <i_lp_mmshare_version>
43012

> <i_f3d_flags>
0

> <s_epik_input>
W0NIM11bQ0gyXWMxbm5jKHMxKVtOSF1DKD1PKVtOSF1bQ0BASF0oQyhPMikoW0NIM10pW0NIM10pW0NIMl1DMihbQ0gzXSlbQ0gzXQ==

> <s_epik_cmdline>
J2VwaWtfcHl0aG9uJywgJy1waCcsICc3LjAnLCAnLXRuJywgJzgnLCAnLW1hJywgJzIwMCcsICctbWV0YWxfYmluZGluZycsICctaW1hZScsICc8aW5maWxlLm1hZT4nLCAnLW9tYWUnLCAnPG91dGZpbGUubWFlPic=

> <r_lp_tautomer_probability>
1

> <r_epik_Ionization_Penalty>
4.33319

> <r_epik_Ionization_Penalty_Charging>
4.17028

> <r_epik_Ionization_Penalty_Neutral>
0.162913

> <r_epik_State_Penalty>
4.16976

> <r_epik_Charging_Adjusted_Penalty>
8.34004

> <i_epik_Tot_Q>
-1

> <i_epik_Tot_abs_Q>
1

> <r_epik_Metal_State_Penalty>
0.677358

> <b_epik_Metal_Only>
1

> <s_lp_Force_Field>
OPLS_2005

> <r_lp_Energy>
10.6877

> <b_lp_Chiralities_Consistent>
1

> <s_lp_Variant>
AV-unprocessed.smi:2335-4

> <Gold.Version>
5.8.1

> <Gold.Id.Protein>
6NUR|6NUR_protein|mol2

> <Gold.PLP.Fitness>
42.5696

> <Gold.PLP.PLP>
-29.8258

> <Gold.PLP.part.hbond>
-4.0000

> <Gold.PLP.part.metal>
0.0000

> <Gold.PLP.part.buried>
-4.2905

> <Gold.PLP.part.nonpolar>
-20.9022

> <Gold.PLP.part.repulsive>
0.1223

> <Gold.PLP.ligand.clash>
0.0000

> <Gold.PLP.ligand.torsion>
0.5485

> <Gold.PLP.Chemscore.Hbond>
4.6059

> <Gold.PLP.Chemscore.CHOScore>
0.0000

> <Gold.PLP.Chemscore.Metal>
0.0000

> <Gold.Chemscore.Hbonds>
donor molecule, donor type, donor heavy atom, donor atom, acceptor molecule, acceptor atom, score
      P1  H  6896  6909       L1     7  1.85
      P1  H  6931  6943       L1     5  0.63
      P1  H  6934  6947       L1     5  0.40
      P1  H  7997  8008       L1    16  0.95

> <Gold.PLP.Chemscore.Internal.Correction>
0.0229

> <Gold.Rescore>
     Score         DG    S(hbond)    S(metal)    S(lipo)     H(rot)  DE(clash)    DE(int)     intcor
     18.78     -19.49       2.63        0.00      70.90       1.19       0.02       0.70       ----

> <Gold.Chemscore.Fitness>
18.7773

> <Gold.Chemscore.DG>
-19.4921

> <Gold.Chemscore.ZeroCoef>
-5.4800

> <Gold.Chemscore.Hbond>
2.6270

> <Gold.Chemscore.Metal>
0.0000

> <Gold.Chemscore.Lipo>
70.8988

> <Gold.Chemscore.Internal_Hbond>
0.0000

> <Gold.Chemscore.DEClash>
0.0178

> <Gold.Chemscore.DEInternal>
0.6971

> <Gold.Chemscore.Rot>
1.1942

> <Gold.Chemscore.Internal.Correction>
   9.000000E+99

> <Gold.Chemscore.Hbonds>
donor molecule, donor type, donor heavy atom, donor atom, acceptor molecule, acceptor atom, score
      P1  H  6896  6909       L1     7  0.78
      P1  H  6931  6943       L1     5  0.45
      P1  H  6934  6947       L1     5  0.06
      P1  H  7997  8008       L1    16  0.21

> <Gold.Chemscore.Hbond.Weighted>
-8.7742

> <Gold.Chemscore.Metal.Weighted>
-0.0000

> <Gold.Chemscore.Lipo.Weighted>
-8.2952

> <Gold.Chemscore.Internal_Hbond.Weighted>
0.0000

> <Gold.Chemscore.DEClash.Weighted>
0.0178

> <Gold.Chemscore.DEInternal.Weighted>
0.6971

> <Gold.Chemscore.Rot.Weighted>
3.0573

> <Gold.Chemscore.Internal.Correction.Weighted>
   9.000000E+99

> <Gold.Protein.RotatedTorsions>
[ 6907 6896 6895 6894 ] final   62.42 input  -60.11 | X-H torsion
[ 7974 7965 7964 7962 ] final  -46.96 input  175.53 | X-H torsion
[ 8008 7997 7996 7995 ] final  -47.48 input   59.86 | X-H torsion
[ 10167 10162 10161 10158 ] final -154.49 input  -65.29 | X-H torsion
[ 10718 10713 10712 10709 ] final  -27.90 input   66.30 | X-H torsion
[ 10763 10752 10751 10750 ] final  -48.71 input  -60.55 | X-H torsion
[ 11005 11000 10999 10996 ] final  128.27 input  -57.11 | X-H torsion

> <Gold.Protein.ActiveResidues>
 VAL166  LYS551  ARG553  GLY616  TRP617  ASP618  TYR619  PRO620  LYS621  CYS622 
 ASP623  PHE694  ASN695  SER759  ASP760  ASP761  ALA762  ILE779  LEU786  VAL792 
 PHE793  MET794  SER795  GLU796  ALA797  LYS798  CYS799  TRP800  GLU811  SER814 

> <Gold.Protein.RotatedAtoms>
  152.4171  134.6023  160.0003 H   0  0  0  0  0  0  0  0  0  0  0  0  # atno 6907 bound_to 6896
  151.6183  133.3335  159.3090 H   0  0  0  0  0  0  0  0  0  0  0  0  # atno 6908 bound_to 6896
  150.8059  134.7223  159.6710 H   0  0  0  0  0  0  0  0  0  0  0  0  # atno 6909 bound_to 6896
  145.9665  140.7426  142.9431 H   0  0  0  0  0  0  0  0  0  0  0  0  # atno 7974 bound_to 7965
  154.4017  140.1345  156.4182 H   0  0  0  0  0  0  0  0  0  0  0  0  # atno 8008 bound_to 7997
  155.7668  140.3485  155.5206 H   0  0  0  0  0  0  0  0  0  0  0  0  # atno 8009 bound_to 7997
  155.8805  140.0986  157.1478 H   0  0  0  0  0  0  0  0  0  0  0  0  # atno 8010 bound_to 7997
  139.7009  143.9264  152.2428 H   0  0  0  0  0  0  0  0  0  0  0  0  # atno 10167 bound_to 10162
  156.4322  130.4447  149.7109 H   0  0  0  0  0  0  0  0  0  0  0  0  # atno 10718 bound_to 10713
  154.0822  135.6589  153.4839 H   0  0  0  0  0  0  0  0  0  0  0  0  # atno 10763 bound_to 10752
  153.0351  135.5182  154.7462 H   0  0  0  0  0  0  0  0  0  0  0  0  # atno 10764 bound_to 10752
  154.6561  135.3008  154.9894 H   0  0  0  0  0  0  0  0  0  0  0  0  # atno 10765 bound_to 10752
  139.9552  134.9614  156.8978 H   0  0  0  0  0  0  0  0  0  0  0  0  # atno 11005 bound_to 11000
  144.6827  140.2678  143.7310 LP  0  0  0  0  0  0  0  0  0  0  0  0  # atno 17320 bound_to 7965
  145.7966  139.1948  143.2072 LP  0  0  0  0  0  0  0  0  0  0  0  0  # atno 17321 bound_to 7965
  139.9107  144.6858  150.8566 LP  0  0  0  0  0  0  0  0  0  0  0  0  # atno 17342 bound_to 10162
  140.7709  143.3446  151.2138 LP  0  0  0  0  0  0  0  0  0  0  0  0  # atno 17343 bound_to 10162
  156.4008  130.7673  151.2681 LP  0  0  0  0  0  0  0  0  0  0  0  0  # atno 17370 bound_to 10713
  157.7508  131.0240  150.3859 LP  0  0  0  0  0  0  0  0  0  0  0  0  # atno 17371 bound_to 10713
  140.5626  134.0520  155.7404 LP  0  0  0  0  0  0  0  0  0  0  0  0  # atno 17394 bound_to 11000
  141.1222  133.9442  157.2707 LP  0  0  0  0  0  0  0  0  0  0  0  0  # atno 17395 bound_to 11000

$$$$
