AV-unprocessed.smi:222|AV-procd|sdf|1702|dock5
  -GOLD-   2262020163D 1   1.00000     0.00000
 Structure written by MMmdl.
 59 61  0  0  0  0  0  0  0  0  1 V2000
  147.4259  136.1177  162.1885 C   0  0  0  0  0  0  0  0  0  0  0  0
  147.4449  137.1949  161.2657 O   0  0  0  0  0  0  0  0  0  0  0  0
  147.0567  136.8466  159.9429 C   0  0  0  0  0  0  0  0  0  0  0  0
  147.7717  135.5842  159.4184 C   0  0  0  0  0  0  0  0  0  0  0  0
  147.8326  135.5277  157.9526 N   0  0  0  0  0  0  0  0  0  0  0  0
  149.0191  136.0875  157.2844 C   0  0  0  0  0  0  0  0  0  0  0  0
  149.9640  136.8851  158.2104 C   0  0  0  0  0  0  0  0  0  0  0  0
  150.4624  136.3297  159.1916 O   0  0  0  0  0  0  0  0  0  0  0  0
  150.2235  138.1787  157.9119 N   0  0  0  0  0  0  0  0  0  0  0  0
  149.6709  138.8574  156.7369 C   0  0  0  0  0  0  0  0  0  0  0  0
  151.0950  138.9818  158.7728 C   0  0  0  0  0  0  0  0  0  0  0  0
  146.7478  135.1069  157.2317 C   0  0  0  0  0  0  0  0  0  0  0  0
  145.5587  134.9605  157.8771 N   0  0  0  0  0  0  0  0  0  0  0  0
  144.4602  134.5785  157.2224 C   0  0  0  0  0  0  0  0  0  0  0  0
  144.3213  134.2879  155.9298 N   0  0  0  0  0  0  0  0  0  0  0  0
  145.5046  134.4181  155.2667 C   0  0  0  0  0  0  0  0  0  0  0  0
  146.7527  134.8183  155.8301 C   0  0  0  0  0  0  0  0  0  0  0  0
  147.7206  134.8294  154.8301 N   0  0  0  0  0  0  0  0  0  0  0  0
  147.0846  134.4755  153.7490 C   0  0  0  0  0  0  0  0  0  0  0  0
  145.7505  134.1917  153.9226 N   0  0  0  0  0  0  0  0  0  0  0  0
  144.8061  133.7805  152.8928 C   0  0  0  0  0  0  0  0  0  0  0  0
  145.1572  134.2461  151.4439 C   0  0  0  0  0  0  0  0  0  0  0  0
  145.4793  135.7659  151.4782 C   0  0  0  0  0  0  0  0  0  0  0  0
  145.6254  136.3402  150.1940 O   0  0  0  0  0  0  0  0  0  0  0  0
  146.3899  133.4487  150.9440 C   0  0  0  0  0  0  0  0  0  0  0  0
  146.0614  131.9738  150.6405 C   0  0  0  0  0  0  0  0  0  0  0  0
  144.9881  131.8906  149.7105 O   0  0  0  0  0  0  0  0  0  0  0  0
  143.7842  132.4739  150.1937 C   0  0  0  0  0  0  0  0  0  0  0  0
  143.9986  133.9764  150.4488 C   0  0  0  0  0  0  0  0  0  0  0  0
  147.6842  136.4894  163.1800 H   0  0  0  0  0  0  0  0  0  0  0  0
  148.1488  135.3448  161.9295 H   0  0  0  0  0  0  0  0  0  0  0  0
  146.4353  135.6658  162.2492 H   0  0  0  0  0  0  0  0  0  0  0  0
  145.9750  136.7132  159.8993 H   0  0  0  0  0  0  0  0  0  0  0  0
  147.2812  137.6923  159.2928 H   0  0  0  0  0  0  0  0  0  0  0  0
  148.7808  135.5160  159.8231 H   0  0  0  0  0  0  0  0  0  0  0  0
  147.2734  134.6968  159.8105 H   0  0  0  0  0  0  0  0  0  0  0  0
  149.6044  135.2720  156.8588 H   0  0  0  0  0  0  0  0  0  0  0  0
  148.7018  136.6828  156.4301 H   0  0  0  0  0  0  0  0  0  0  0  0
  149.8148  138.2650  155.8324 H   0  0  0  0  0  0  0  0  0  0  0  0
  150.1429  139.8229  156.5539 H   0  0  0  0  0  0  0  0  0  0  0  0
  148.6026  139.0333  156.8678 H   0  0  0  0  0  0  0  0  0  0  0  0
  150.8030  138.8895  159.8202 H   0  0  0  0  0  0  0  0  0  0  0  0
  151.0640  140.0439  158.5292 H   0  0  0  0  0  0  0  0  0  0  0  0
  152.1290  138.6480  158.6783 H   0  0  0  0  0  0  0  0  0  0  0  0
  143.5648  134.4959  157.8201 H   0  0  0  0  0  0  0  0  0  0  0  0
  147.5777  134.4051  152.7907 H   0  0  0  0  0  0  0  0  0  0  0  0
  144.7343  132.6924  152.9216 H   0  0  0  0  0  0  0  0  0  0  0  0
  143.8248  134.1386  153.1991 H   0  0  0  0  0  0  0  0  0  0  0  0
  144.6896  136.3176  151.9881 H   0  0  0  0  0  0  0  0  0  0  0  0
  146.4006  135.9455  152.0332 H   0  0  0  0  0  0  0  0  0  0  0  0
  145.0498  137.0871  150.1319 H   0  0  0  0  0  0  0  0  0  0  0  0
  146.7768  133.8890  150.0247 H   0  0  0  0  0  0  0  0  0  0  0  0
  147.2025  133.5084  151.6688 H   0  0  0  0  0  0  0  0  0  0  0  0
  146.9331  131.4853  150.2048 H   0  0  0  0  0  0  0  0  0  0  0  0
  145.8186  131.4175  151.5459 H   0  0  0  0  0  0  0  0  0  0  0  0
  143.0062  132.3338  149.4432 H   0  0  0  0  0  0  0  0  0  0  0  0
  143.4470  131.9557  151.0916 H   0  0  0  0  0  0  0  0  0  0  0  0
  143.0723  134.4409  150.7844 H   0  0  0  0  0  0  0  0  0  0  0  0
  144.2219  134.4401  149.4875 H   0  0  0  0  0  0  0  0  0  0  0  0
  1  2  1  0  0  0  0
  1 30  1  0  0  0  0
  1 31  1  0  0  0  0
  1 32  1  0  0  0  0
  2  3  1  0  0  0  0
  3  4  1  0  0  0  0
  3 33  1  0  0  0  0
  3 34  1  0  0  0  0
  4  5  1  0  0  0  0
  4 35  1  0  0  0  0
  4 36  1  0  0  0  0
  5  6  1  0  0  0  0
  5 12  1  0  0  0  0
  6  7  1  0  0  0  0
  6 37  1  0  0  0  0
  6 38  1  0  0  0  0
  7  8  2  0  0  0  0
  7  9  1  0  0  0  0
  9 10  1  0  0  0  0
  9 11  1  0  0  0  0
 10 39  1  0  0  0  0
 10 40  1  0  0  0  0
 10 41  1  0  0  0  0
 11 42  1  0  0  0  0
 11 43  1  0  0  0  0
 11 44  1  0  0  0  0
 12 17  1  0  0  0  0
 12 13  2  0  0  0  0
 13 14  1  0  0  0  0
 14 15  2  0  0  0  0
 14 45  1  0  0  0  0
 15 16  1  0  0  0  0
 16 20  1  0  0  0  0
 16 17  2  0  0  0  0
 17 18  1  0  0  0  0
 18 19  2  0  0  0  0
 19 20  1  0  0  0  0
 19 46  1  0  0  0  0
 20 21  1  0  0  0  0
 21 22  1  0  0  0  0
 21 47  1  0  0  0  0
 21 48  1  0  0  0  0
 22 29  1  0  0  0  0
 22 23  1  0  0  0  0
 22 25  1  0  0  0  0
 23 24  1  0  0  0  0
 23 49  1  0  0  0  0
 23 50  1  0  0  0  0
 24 51  1  0  0  0  0
 25 26  1  0  0  0  0
 25 52  1  0  0  0  0
 25 53  1  0  0  0  0
 26 27  1  0  0  0  0
 26 54  1  0  0  0  0
 26 55  1  0  0  0  0
 27 28  1  0  0  0  0
 28 29  1  0  0  0  0
 28 56  1  0  0  0  0
 28 57  1  0  0  0  0
 29 58  1  0  0  0  0
 29 59  1  0  0  0  0
M  END
> <s_m_source_file>
AV-unprocessed.smi

> <i_m_source_file_index>
222

> <i_lp_mmshare_version>
43012

> <i_f3d_flags>
0

> <s_epik_input>
W0NIM11PW0NIMl1bQ0gyXU4oW0NIMl1DKD1PKU4oW0NIM10pW0NIM10pYyhuW2NIXW4xKWMoYzEyKW5bY0hdbjJbQ0gyXUMzKFtDSDJdW09IXSlbQ0gyXVtDSDJdT1tDSDJdW0NIMl0z

> <s_epik_cmdline>
J2VwaWtfcHl0aG9uJywgJy1waCcsICc3LjAnLCAnLXRuJywgJzgnLCAnLW1hJywgJzIwMCcsICctbWV0YWxfYmluZGluZycsICctaW1hZScsICc8aW5maWxlLm1hZT4nLCAnLW9tYWUnLCAnPG91dGZpbGUubWFlPic=

> <r_lp_tautomer_probability>
1

> <r_epik_Ionization_Penalty>
0.000796957

> <r_epik_Ionization_Penalty_Charging>
0

> <r_epik_Ionization_Penalty_Neutral>
0.000796957

> <r_epik_State_Penalty>
0.000428513

> <r_epik_Charging_Adjusted_Penalty>
0.000428513

> <i_epik_Tot_Q>
0

> <i_epik_Tot_abs_Q>
0

> <r_epik_Metal_State_Penalty>
-0

> <b_epik_Metal_Only>
0

> <s_lp_Force_Field>
OPLS_2005

> <r_lp_Energy>
34.6666

> <b_lp_Chiralities_Consistent>
1

> <s_lp_Variant>
AV-unprocessed.smi:222-1

> <Gold.Version>
5.8.1

> <Gold.Id.Protein>
6NUR|6NUR_protein|mol2

> <Gold.PLP.Fitness>
44.5745

> <Gold.PLP.PLP>
-33.3349

> <Gold.PLP.part.hbond>
-5.1538

> <Gold.PLP.part.metal>
0.0000

> <Gold.PLP.part.buried>
-4.7866

> <Gold.PLP.part.nonpolar>
-23.7737

> <Gold.PLP.part.repulsive>
0.3267

> <Gold.PLP.ligand.clash>
0.0000

> <Gold.PLP.ligand.torsion>
1.2680

> <Gold.PLP.Chemscore.Hbond>
3.5144

> <Gold.PLP.Chemscore.CHOScore>
0.8966

> <Gold.PLP.Chemscore.Metal>
0.0000

> <Gold.Chemscore.Hbonds>
donor molecule, donor type, donor heavy atom, donor atom, acceptor molecule, acceptor atom, score
      L1  H    24    51       P1 10171  1.00
      P1  H  6896  6907       L1     8  1.00
      P1  H  6931  6943       L1     2  0.90
      P1  H  6934  6947       L1     2  0.58
      L1  C    19    46       P1  7948  0.88

> <Gold.PLP.Chemscore.Internal.Correction>
0.5425

> <Gold.Rescore>
     Score         DG    S(hbond)    S(metal)    S(lipo)     H(rot)  DE(clash)    DE(int)     intcor
     10.19     -14.37       2.81        0.00      72.03       3.49       0.03       4.15       ----

> <Gold.Chemscore.Fitness>
10.1892

> <Gold.Chemscore.DG>
-14.3688

> <Gold.Chemscore.ZeroCoef>
-5.4800

> <Gold.Chemscore.Hbond>
2.8131

> <Gold.Chemscore.Metal>
0.0000

> <Gold.Chemscore.Lipo>
72.0314

> <Gold.Chemscore.Internal_Hbond>
0.0000

> <Gold.Chemscore.DEClash>
0.0280

> <Gold.Chemscore.DEInternal>
4.1516

> <Gold.Chemscore.Rot>
3.4901

> <Gold.Chemscore.Internal.Correction>
   9.000000E+99

> <Gold.Chemscore.Hbonds>
donor molecule, donor type, donor heavy atom, donor atom, acceptor molecule, acceptor atom, score
      L1  H    24    51       P1 10171  1.00
      P1  H  6896  6907       L1     8  0.95
      P1  H  6931  6943       L1     2  0.29
      P1  H  6934  6947       L1     2  0.04

> <Gold.Chemscore.Hbond.Weighted>
-9.3958

> <Gold.Chemscore.Metal.Weighted>
-0.0000

> <Gold.Chemscore.Lipo.Weighted>
-8.4277

> <Gold.Chemscore.Internal_Hbond.Weighted>
0.0000

> <Gold.Chemscore.DEClash.Weighted>
0.0280

> <Gold.Chemscore.DEInternal.Weighted>
4.1516

> <Gold.Chemscore.Rot.Weighted>
8.9347

> <Gold.Chemscore.Internal.Correction.Weighted>
   9.000000E+99

> <Gold.Protein.RotatedTorsions>
[ 6907 6896 6895 6894 ] final  -49.56 input  -60.11 | X-H torsion
[ 7974 7965 7964 7962 ] final   73.91 input  175.53 | X-H torsion
[ 8008 7997 7996 7995 ] final -128.17 input   59.86 | X-H torsion
[ 10167 10162 10161 10158 ] final  -52.17 input  -65.29 | X-H torsion
[ 10718 10713 10712 10709 ] final   92.75 input   66.30 | X-H torsion
[ 10763 10752 10751 10750 ] final  175.89 input  -60.55 | X-H torsion
[ 11005 11000 10999 10996 ] final -139.97 input  -57.11 | X-H torsion

> <Gold.Protein.ActiveResidues>
 VAL166  LYS551  ARG553  GLY616  TRP617  ASP618  TYR619  PRO620  LYS621  CYS622 
 ASP623  PHE694  ASN695  SER759  ASP760  ASP761  ALA762  ILE779  LEU786  VAL792 
 PHE793  MET794  SER795  GLU796  ALA797  LYS798  CYS799  TRP800  GLU811  SER814 

> <Gold.Protein.RotatedAtoms>
  150.8793  134.8181  159.7212 H   0  0  0  0  0  0  0  0  0  0  0  0  # atno 6907 bound_to 6896
  152.4767  134.4822  159.9679 H   0  0  0  0  0  0  0  0  0  0  0  0  # atno 6908 bound_to 6896
  151.4899  133.3488  159.2887 H   0  0  0  0  0  0  0  0  0  0  0  0  # atno 6909 bound_to 6896
  145.7349  139.2698  143.1519 H   0  0  0  0  0  0  0  0  0  0  0  0  # atno 7974 bound_to 7965
  155.2583  140.0435  157.2994 H   0  0  0  0  0  0  0  0  0  0  0  0  # atno 8008 bound_to 7997
  154.5726  140.2378  155.8138 H   0  0  0  0  0  0  0  0  0  0  0  0  # atno 8009 bound_to 7997
  156.2134  140.2992  155.9792 H   0  0  0  0  0  0  0  0  0  0  0  0  # atno 8010 bound_to 7997
  140.6551  143.2593  151.4610 H   0  0  0  0  0  0  0  0  0  0  0  0  # atno 10167 bound_to 10162
  157.6957  131.0454  150.3929 H   0  0  0  0  0  0  0  0  0  0  0  0  # atno 10718 bound_to 10713
  154.4737  135.2772  155.1623 H   0  0  0  0  0  0  0  0  0  0  0  0  # atno 10763 bound_to 10752
  154.3362  135.6180  153.5578 H   0  0  0  0  0  0  0  0  0  0  0  0  # atno 10764 bound_to 10752
  152.9867  135.5777  154.5123 H   0  0  0  0  0  0  0  0  0  0  0  0  # atno 10765 bound_to 10752
  140.8468  134.2334  157.4781 H   0  0  0  0  0  0  0  0  0  0  0  0  # atno 11005 bound_to 11000
  146.0502  140.8077  142.9785 LP  0  0  0  0  0  0  0  0  0  0  0  0  # atno 17320 bound_to 7965
  144.6884  140.3042  143.7258 LP  0  0  0  0  0  0  0  0  0  0  0  0  # atno 17321 bound_to 7965
  139.5772  144.1792  152.1919 LP  0  0  0  0  0  0  0  0  0  0  0  0  # atno 17342 bound_to 10162
  140.1106  144.5460  150.6927 LP  0  0  0  0  0  0  0  0  0  0  0  0  # atno 17343 bound_to 10162
  156.4330  130.3976  149.6747 LP  0  0  0  0  0  0  0  0  0  0  0  0  # atno 17370 bound_to 10713
  156.3958  130.7650  151.2654 LP  0  0  0  0  0  0  0  0  0  0  0  0  # atno 17371 bound_to 10713
  139.8703  134.9663  156.4559 LP  0  0  0  0  0  0  0  0  0  0  0  0  # atno 17394 bound_to 11000
  140.8834  133.7901  155.9492 LP  0  0  0  0  0  0  0  0  0  0  0  0  # atno 17395 bound_to 11000

$$$$
