AV-unprocessed.smi:160|AV-procd|sdf|1345|dock1
  -GOLD-   2262019 43D 1   1.00000     0.00000
 Structure written by MMmdl.
 29 30  0  0  0  0  0  0  0  0  1 V2000
  153.1461  137.0279  158.4830 N   0  0  0  0  0  0  0  0  0  0  0  0
  153.0162  136.2912  157.3748 C   0  0  0  0  0  0  0  0  0  0  0  0
  153.5686  135.2005  157.2407 O   0  0  0  0  0  0  0  0  0  0  0  0
  152.1525  136.8713  156.2891 C   0  0  0  0  0  0  0  0  0  0  0  0
  151.4971  136.0653  155.4022 N   0  0  0  0  0  0  0  0  0  0  0  0
  150.9040  137.0000  154.6708 C   0  0  0  0  0  0  0  0  0  0  0  0
  151.1525  138.2511  155.0712 N   0  0  0  0  0  0  0  0  0  0  0  0
  150.6934  139.5497  154.4819 C   0  0  2  0  0  0  0  0  0  0  0  0
  151.2705  140.5813  155.2258 O   0  0  0  0  0  0  0  0  0  0  0  0
  150.3208  141.1014  156.1515 C   0  0  1  0  0  0  0  0  0  0  0  0
  150.7274  142.5020  156.6429 C   0  0  0  0  0  0  0  0  0  0  0  0
  149.7722  142.9896  157.5612 O   0  0  0  0  0  0  0  0  0  0  0  0
  149.0167  141.0305  155.3465 C   0  0  1  0  0  0  0  0  0  0  0  0
  148.9094  142.1480  154.4784 O   0  0  0  0  0  0  0  0  0  0  0  0
  149.1638  139.7099  154.5890 C   0  0  1  0  0  0  0  0  0  0  0  0
  148.5134  139.7330  153.3315 O   0  0  0  0  0  0  0  0  0  0  0  0
  151.9875  138.1868  156.1394 N   0  0  0  0  0  0  0  0  0  0  0  0
  151.0773  139.5490  153.4608 H   0  0  0  0  0  0  0  0  0  0  0  0
  150.2343  140.4242  157.0028 H   0  0  0  0  0  0  0  0  0  0  0  0
  148.1411  141.0228  155.9965 H   0  0  0  0  0  0  0  0  0  0  0  0
  148.7429  138.8982  155.1832 H   0  0  0  0  0  0  0  0  0  0  0  0
  153.7173  136.6945  159.2453 H   0  0  0  0  0  0  0  0  0  0  0  0
  152.6741  137.9182  158.5467 H   0  0  0  0  0  0  0  0  0  0  0  0
  150.2753  136.7673  153.8237 H   0  0  0  0  0  0  0  0  0  0  0  0
  151.7183  142.4939  157.0978 H   0  0  0  0  0  0  0  0  0  0  0  0
  150.7581  143.1990  155.8051 H   0  0  0  0  0  0  0  0  0  0  0  0
  149.1754  143.5587  157.0997 H   0  0  0  0  0  0  0  0  0  0  0  0
  149.1833  142.9189  154.9523 H   0  0  0  0  0  0  0  0  0  0  0  0
  149.1154  140.0743  152.6878 H   0  0  0  0  0  0  0  0  0  0  0  0
  1  2  1  0  0  0  0
  1 22  1  0  0  0  0
  1 23  1  0  0  0  0
  2  3  2  0  0  0  0
  2  4  1  0  0  0  0
  4 17  2  0  0  0  0
  4  5  1  0  0  0  0
  5  6  2  0  0  0  0
  6  7  1  0  0  0  0
  6 24  1  0  0  0  0
  7  8  1  0  0  0  0
  7 17  1  0  0  0  0
  8 18  1  0  0  0  0
  8 15  1  0  0  0  0
  8  9  1  0  0  0  0
  9 10  1  0  0  0  0
 10 19  1  0  0  0  0
 10 11  1  0  0  0  0
 10 13  1  0  0  0  0
 11 12  1  0  0  0  0
 11 25  1  0  0  0  0
 11 26  1  0  0  0  0
 12 27  1  0  0  0  0
 13 20  1  0  0  0  0
 13 14  1  0  0  0  0
 13 15  1  0  0  0  0
 14 28  1  0  0  0  0
 15 21  1  0  0  0  0
 15 16  1  0  0  0  0
 16 29  1  0  0  0  0
M  END
> <s_m_source_file>
AV-unprocessed.smi

> <i_m_source_file_index>
160

> <i_lp_mmshare_version>
43012

> <i_f3d_flags>
0

> <s_epik_input>
W05IMl1DKD1PKWMxbltjSF1uKG4xKVtDQEBIXTJPW0NASF0oW0NIMl1bT0hdKVtDQEBIXShbT0hdKVtDQEhdMltPSF0=

> <s_epik_cmdline>
J2VwaWtfcHl0aG9uJywgJy1waCcsICc3LjAnLCAnLXRuJywgJzgnLCAnLW1hJywgJzIwMCcsICctbWV0YWxfYmluZGluZycsICctaW1hZScsICc8aW5maWxlLm1hZT4nLCAnLW9tYWUnLCAnPG91dGZpbGUubWFlPic=

> <r_lp_tautomer_probability>
1

> <r_epik_Ionization_Penalty>
1.06932e-05

> <r_epik_Ionization_Penalty_Charging>
0

> <r_epik_Ionization_Penalty_Neutral>
1.06932e-05

> <r_epik_State_Penalty>
-0

> <r_epik_Charging_Adjusted_Penalty>
0

> <i_epik_Tot_Q>
0

> <i_epik_Tot_abs_Q>
0

> <r_epik_Metal_State_Penalty>
0.0142097

> <b_epik_Metal_Only>
0

> <s_epik_Chemistry_Notes>
This compound contains an acetal/aminal-like group ( X-CH(R)-Y where X, Y are N, S, or O) that may be acid/base labile, releasing an aldehyde.

> <s_lp_Force_Field>
OPLS_2005

> <r_lp_Energy>
41.9483

> <b_lp_Chiralities_Consistent>
1

> <s_lp_Variant>
AV-unprocessed.smi:160-3

> <Gold.Version>
5.8.1

> <Gold.Id.Protein>
6NUR|6NUR_protein|mol2

> <Gold.PLP.Fitness>
39.9190

> <Gold.PLP.PLP>
-24.4484

> <Gold.PLP.part.hbond>
-6.6271

> <Gold.PLP.part.metal>
0.0000

> <Gold.PLP.part.buried>
-0.4834

> <Gold.PLP.part.nonpolar>
-17.4655

> <Gold.PLP.part.repulsive>
0.2422

> <Gold.PLP.ligand.clash>
0.0000

> <Gold.PLP.ligand.torsion>
0.3469

> <Gold.PLP.Chemscore.Hbond>
4.3912

> <Gold.PLP.Chemscore.CHOScore>
0.9900

> <Gold.PLP.Chemscore.Metal>
0.0000

> <Gold.Chemscore.Hbonds>
donor molecule, donor type, donor heavy atom, donor atom, acceptor molecule, acceptor atom, score
      L1  H    12    27       P1  8028  0.98
      L1  H    14    28       P1  8028  1.00
      L1  H    16    29       P1  7957  0.93
      P1  H  8011  8017       L1    14  0.07
      P1  H 10752 10764       L1     5  0.49
      P1  H 10752 10765       L1     3  0.98
      L1  C     6    24       P1  7948  0.80
      L1  C     6    24       P1  7949  0.19

> <Gold.PLP.Chemscore.Internal.Correction>
0.0207

> <Gold.Rescore>
     Score         DG    S(hbond)    S(metal)    S(lipo)     H(rot)  DE(clash)    DE(int)     intcor
      7.75      -8.52       3.19        0.00      23.63       4.06       0.19       0.58       ----

> <Gold.Chemscore.Fitness>
7.7524

> <Gold.Chemscore.DG>
-8.5203

> <Gold.Chemscore.ZeroCoef>
-5.4800

> <Gold.Chemscore.Hbond>
3.1944

> <Gold.Chemscore.Metal>
0.0000

> <Gold.Chemscore.Lipo>
23.6304

> <Gold.Chemscore.Internal_Hbond>
0.0000

> <Gold.Chemscore.DEClash>
0.1868

> <Gold.Chemscore.DEInternal>
0.5811

> <Gold.Chemscore.Rot>
4.0600

> <Gold.Chemscore.Internal.Correction>
   9.000000E+99

> <Gold.Chemscore.Hbonds>
donor molecule, donor type, donor heavy atom, donor atom, acceptor molecule, acceptor atom, score
      L1  H    12    27       P1  8028  0.61
      L1  H    14    28       P1  8028  0.95
      L1  H    16    29       P1  7957  0.90
      P1  H  8011  8017       L1    14  0.04
      P1  H 10752 10764       L1     5  0.02
      P1  H 10752 10765       L1     3  0.28

> <Gold.Chemscore.Hbond.Weighted>
-10.6692

> <Gold.Chemscore.Metal.Weighted>
-0.0000

> <Gold.Chemscore.Lipo.Weighted>
-2.7648

> <Gold.Chemscore.Internal_Hbond.Weighted>
0.0000

> <Gold.Chemscore.DEClash.Weighted>
0.1868

> <Gold.Chemscore.DEInternal.Weighted>
0.5811

> <Gold.Chemscore.Rot.Weighted>
10.3936

> <Gold.Chemscore.Internal.Correction.Weighted>
   9.000000E+99

> <Gold.Protein.RotatedTorsions>
[ 6907 6896 6895 6894 ] final   41.49 input  -60.11 | X-H torsion
[ 7974 7965 7964 7962 ] final  -83.75 input  175.53 | X-H torsion
[ 8008 7997 7996 7995 ] final   10.26 input   59.86 | X-H torsion
[ 10167 10162 10161 10158 ] final   91.88 input  -65.29 | X-H torsion
[ 10718 10713 10712 10709 ] final  151.28 input   66.30 | X-H torsion
[ 10763 10752 10751 10750 ] final  -87.23 input  -60.55 | X-H torsion
[ 11005 11000 10999 10996 ] final  144.61 input  -57.11 | X-H torsion

> <Gold.Protein.ActiveResidues>
 VAL166  LYS551  ARG553  GLY616  TRP617  ASP618  TYR619  PRO620  LYS621  CYS622 
 ASP623  PHE694  ASN695  SER759  ASP760  ASP761  ALA762  ILE779  LEU786  VAL792 
 PHE793  MET794  SER795  GLU796  ALA797  LYS798  CYS799  TRP800  GLU811  SER814 

> <Gold.Protein.RotatedAtoms>
  152.1960  134.8630  160.0512 H   0  0  0  0  0  0  0  0  0  0  0  0  # atno 6907 bound_to 6896
  151.9502  133.3658  159.4005 H   0  0  0  0  0  0  0  0  0  0  0  0  # atno 6908 bound_to 6896
  150.6944  134.4272  159.5276 H   0  0  0  0  0  0  0  0  0  0  0  0  # atno 6909 bound_to 6896
  145.5158  140.9536  143.1682 H   0  0  0  0  0  0  0  0  0  0  0  0  # atno 7974 bound_to 7965
  154.7911  140.2835  155.5991 H   0  0  0  0  0  0  0  0  0  0  0  0  # atno 8008 bound_to 7997
  156.2964  140.2604  156.2687 H   0  0  0  0  0  0  0  0  0  0  0  0  # atno 8009 bound_to 7997
  154.9670  140.0376  157.2206 H   0  0  0  0  0  0  0  0  0  0  0  0  # atno 8010 bound_to 7997
  139.8331  144.6677  150.9375 H   0  0  0  0  0  0  0  0  0  0  0  0  # atno 10167 bound_to 10162
  157.2727  131.0820  151.1588 H   0  0  0  0  0  0  0  0  0  0  0  0  # atno 10718 bound_to 10713
  154.6313  135.5421  153.7683 H   0  0  0  0  0  0  0  0  0  0  0  0  # atno 10763 bound_to 10752
  153.0286  135.6436  154.1297 H   0  0  0  0  0  0  0  0  0  0  0  0  # atno 10764 bound_to 10752
  154.1227  135.2919  155.3184 H   0  0  0  0  0  0  0  0  0  0  0  0  # atno 10765 bound_to 10752
  140.0646  134.9186  157.1242 H   0  0  0  0  0  0  0  0  0  0  0  0  # atno 11005 bound_to 11000
  144.7703  139.6751  143.7197 LP  0  0  0  0  0  0  0  0  0  0  0  0  # atno 17320 bound_to 7965
  146.2138  139.5512  142.9664 LP  0  0  0  0  0  0  0  0  0  0  0  0  # atno 17321 bound_to 7965
  140.7805  143.3982  151.1194 LP  0  0  0  0  0  0  0  0  0  0  0  0  # atno 17342 bound_to 10162
  139.7634  143.8601  152.3105 LP  0  0  0  0  0  0  0  0  0  0  0  0  # atno 17343 bound_to 10162
  157.3053  130.6863  149.6186 LP  0  0  0  0  0  0  0  0  0  0  0  0  # atno 17370 bound_to 10713
  155.9663  130.4379  150.5197 LP  0  0  0  0  0  0  0  0  0  0  0  0  # atno 17371 bound_to 10713
  140.3719  134.2381  155.7177 LP  0  0  0  0  0  0  0  0  0  0  0  0  # atno 17394 bound_to 11000
  141.1987  133.8029  157.0569 LP  0  0  0  0  0  0  0  0  0  0  0  0  # atno 17395 bound_to 11000

$$$$
