AV-unprocessed.smi:2771|AV-procd|sdf|10662|dock5
  -GOLD-   2272015103D 1   1.00000     0.00000
 Structure written by MMmdl.
 43 44  0  0  0  0  0  0  0  0  1 V2000
  153.5269  141.2308  160.3520 C   0  0  0  0  0  0  0  0  0  0  0  0
  152.6658  142.3696  159.8478 C   0  0  0  0  0  0  0  0  0  0  0  0
  152.6034  143.5940  160.5415 C   0  0  0  0  0  0  0  0  0  0  0  0
  151.7839  144.6106  160.0191 C   0  0  0  0  0  0  0  0  0  0  0  0
  151.0652  144.3626  158.8334 C   0  0  0  0  0  0  0  0  0  0  0  0
  151.1821  143.1048  158.1999 C   0  0  0  0  0  0  0  0  0  0  0  0
  150.4180  142.9541  157.0120 N   0  0  0  0  0  0  0  0  0  0  0  0
  150.3351  141.8787  156.2090 C   0  0  0  0  0  0  0  0  0  0  0  0
  150.9245  140.8117  156.3836 O   0  0  0  0  0  0  0  0  0  0  0  0
  149.5109  142.1063  155.1764 N   0  0  0  0  0  0  0  0  0  0  0  0
  149.1895  141.1446  154.1262 C   0  0  0  0  0  0  0  0  0  0  0  0
  147.8567  140.4139  154.4141 C   0  0  2  0  0  0  0  0  0  0  0  0
  147.6031  139.5945  153.2880 O   0  0  0  0  0  0  0  0  0  0  0  0
  146.6299  141.3497  154.6065 C   0  0  0  0  0  0  0  0  0  0  0  0
  146.6606  142.5824  153.6676 C   0  0  0  0  0  0  0  0  0  0  0  0
  145.4589  143.5166  153.8871 C   0  0  0  0  0  0  0  0  0  0  0  0
  145.3643  143.9763  155.3469 C   0  0  0  0  0  0  0  0  0  0  0  0
  145.3110  142.7686  156.2903 C   0  0  0  0  0  0  0  0  0  0  0  0
  146.5164  141.8406  156.0730 C   0  0  0  0  0  0  0  0  0  0  0  0
  151.9753  142.1311  158.7122 N   0  0  0  0  0  0  0  0  0  0  0  0
  154.2139  141.5695  161.1279 H   0  0  0  0  0  0  0  0  0  0  0  0
  154.1173  140.8081  159.5385 H   0  0  0  0  0  0  0  0  0  0  0  0
  152.9014  140.4413  160.7690 H   0  0  0  0  0  0  0  0  0  0  0  0
  153.1671  143.7522  161.4491 H   0  0  0  0  0  0  0  0  0  0  0  0
  151.7066  145.5649  160.5186 H   0  0  0  0  0  0  0  0  0  0  0  0
  150.4313  145.1331  158.4192 H   0  0  0  0  0  0  0  0  0  0  0  0
  149.8693  143.7575  156.7441 H   0  0  0  0  0  0  0  0  0  0  0  0
  149.0679  143.0111  155.1122 H   0  0  0  0  0  0  0  0  0  0  0  0
  149.1214  141.7411  153.2199 H   0  0  0  0  0  0  0  0  0  0  0  0
  150.0048  140.4386  153.9563 H   0  0  0  0  0  0  0  0  0  0  0  0
  147.9629  139.7788  155.2949 H   0  0  0  0  0  0  0  0  0  0  0  0
  148.2876  139.7385  152.6517 H   0  0  0  0  0  0  0  0  0  0  0  0
  145.7305  140.7769  154.3744 H   0  0  0  0  0  0  0  0  0  0  0  0
  147.5869  143.1379  153.8205 H   0  0  0  0  0  0  0  0  0  0  0  0
  146.6519  142.2797  152.6223 H   0  0  0  0  0  0  0  0  0  0  0  0
  145.5384  144.3834  153.2304 H   0  0  0  0  0  0  0  0  0  0  0  0
  144.5400  143.0002  153.6067 H   0  0  0  0  0  0  0  0  0  0  0  0
  146.2256  144.5988  155.5933 H   0  0  0  0  0  0  0  0  0  0  0  0
  144.4798  144.5986  155.4865 H   0  0  0  0  0  0  0  0  0  0  0  0
  145.2859  143.1080  157.3263 H   0  0  0  0  0  0  0  0  0  0  0  0
  144.3872  142.2131  156.1249 H   0  0  0  0  0  0  0  0  0  0  0  0
  146.4252  140.9972  156.7575 H   0  0  0  0  0  0  0  0  0  0  0  0
  147.4311  142.3642  156.3552 H   0  0  0  0  0  0  0  0  0  0  0  0
  1  2  1  0  0  0  0
  1 21  1  0  0  0  0
  1 22  1  0  0  0  0
  1 23  1  0  0  0  0
  2 20  1  0  0  0  0
  2  3  2  0  0  0  0
  3  4  1  0  0  0  0
  3 24  1  0  0  0  0
  4  5  2  0  0  0  0
  4 25  1  0  0  0  0
  5  6  1  0  0  0  0
  5 26  1  0  0  0  0
  6  7  1  0  0  0  0
  6 20  2  0  0  0  0
  7  8  1  0  0  0  0
  7 27  1  0  0  0  0
  8  9  2  0  0  0  0
  8 10  1  0  0  0  0
 10 11  1  0  0  0  0
 10 28  1  0  0  0  0
 11 12  1  0  0  0  0
 11 29  1  0  0  0  0
 11 30  1  0  0  0  0
 12 13  1  0  0  0  0
 12 14  1  0  0  0  0
 12 31  1  0  0  0  0
 13 32  1  0  0  0  0
 14 19  1  0  0  0  0
 14 15  1  0  0  0  0
 14 33  1  0  0  0  0
 15 16  1  0  0  0  0
 15 34  1  0  0  0  0
 15 35  1  0  0  0  0
 16 17  1  0  0  0  0
 16 36  1  0  0  0  0
 16 37  1  0  0  0  0
 17 18  1  0  0  0  0
 17 38  1  0  0  0  0
 17 39  1  0  0  0  0
 18 19  1  0  0  0  0
 18 40  1  0  0  0  0
 18 41  1  0  0  0  0
 19 42  1  0  0  0  0
 19 43  1  0  0  0  0
M  END
> <s_m_source_file>
AV-unprocessed.smi

> <i_m_source_file_index>
2771

> <i_lp_mmshare_version>
43012

> <i_f3d_flags>
0

> <s_epik_input>
W0NIM11jMVtjSF1bY0hdW2NIXWMobjEpW05IXUMoPU8pW05IXVtDSDJdW0NASF0oW09IXSlbQ0hdMltDSDJdW0NIMl1bQ0gyXVtDSDJdW0NIMl0y

> <s_epik_cmdline>
J2VwaWtfcHl0aG9uJywgJy1waCcsICc3LjAnLCAnLXRuJywgJzgnLCAnLW1hJywgJzIwMCcsICctbWV0YWxfYmluZGluZycsICctaW1hZScsICc8aW5maWxlLm1hZT4nLCAnLW9tYWUnLCAnPG91dGZpbGUubWFlPic=

> <r_lp_tautomer_probability>
1

> <r_epik_Ionization_Penalty>
8.92802e-05

> <r_epik_Ionization_Penalty_Charging>
0

> <r_epik_Ionization_Penalty_Neutral>
8.92802e-05

> <r_epik_State_Penalty>
-0

> <r_epik_Charging_Adjusted_Penalty>
0

> <i_epik_Tot_Q>
0

> <i_epik_Tot_abs_Q>
0

> <r_epik_Metal_State_Penalty>
-0

> <b_epik_Metal_Only>
0

> <s_lp_Force_Field>
OPLS_2005

> <r_lp_Energy>
16.1378

> <b_lp_Chiralities_Consistent>
1

> <s_lp_Variant>
AV-unprocessed.smi:2771-1

> <Gold.Version>
5.8.1

> <Gold.Id.Protein>
6NUR|6NUR_protein|mol2

> <Gold.PLP.Fitness>
51.1261

> <Gold.PLP.PLP>
-43.4407

> <Gold.PLP.part.hbond>
-3.0000

> <Gold.PLP.part.metal>
0.0000

> <Gold.PLP.part.buried>
-4.9649

> <Gold.PLP.part.nonpolar>
-33.9682

> <Gold.PLP.part.repulsive>
0.2590

> <Gold.PLP.ligand.clash>
0.0000

> <Gold.PLP.ligand.torsion>
0.6685

> <Gold.PLP.Chemscore.Hbond>
3.0000

> <Gold.PLP.Chemscore.CHOScore>
0.0000

> <Gold.PLP.Chemscore.Metal>
0.0000

> <Gold.Chemscore.Hbonds>
donor molecule, donor type, donor heavy atom, donor atom, acceptor molecule, acceptor atom, score
      L1  H     7    27       P1  8028  1.00
      L1  H    10    28       P1  8028  1.00
      L1  H    13    32       P1  7957  1.00

> <Gold.PLP.Chemscore.Internal.Correction>
0.0223

> <Gold.Rescore>
     Score         DG    S(hbond)    S(metal)    S(lipo)     H(rot)  DE(clash)    DE(int)     intcor
     19.19     -21.55       2.89        0.00      97.50       1.95       0.44       1.92       ----

> <Gold.Chemscore.Fitness>
19.1928

> <Gold.Chemscore.DG>
-21.5464

> <Gold.Chemscore.ZeroCoef>
-5.4800

> <Gold.Chemscore.Hbond>
2.8921

> <Gold.Chemscore.Metal>
0.0000

> <Gold.Chemscore.Lipo>
97.5044

> <Gold.Chemscore.Internal_Hbond>
0.0000

> <Gold.Chemscore.DEClash>
0.4377

> <Gold.Chemscore.DEInternal>
1.9159

> <Gold.Chemscore.Rot>
1.9536

> <Gold.Chemscore.Internal.Correction>
   9.000000E+99

> <Gold.Chemscore.Hbonds>
donor molecule, donor type, donor heavy atom, donor atom, acceptor molecule, acceptor atom, score
      L1  H     7    27       P1  8028  0.98
      L1  H    10    28       P1  8028  0.96
      L1  H    13    32       P1  7957  0.95

> <Gold.Chemscore.Hbond.Weighted>
-9.6597

> <Gold.Chemscore.Metal.Weighted>
-0.0000

> <Gold.Chemscore.Lipo.Weighted>
-11.4080

> <Gold.Chemscore.Internal_Hbond.Weighted>
0.0000

> <Gold.Chemscore.DEClash.Weighted>
0.4377

> <Gold.Chemscore.DEInternal.Weighted>
1.9159

> <Gold.Chemscore.Rot.Weighted>
5.0013

> <Gold.Chemscore.Internal.Correction.Weighted>
   9.000000E+99

> <Gold.Protein.RotatedTorsions>
[ 6907 6896 6895 6894 ] final  104.60 input  -60.11 | X-H torsion
[ 7974 7965 7964 7962 ] final -162.02 input  175.53 | X-H torsion
[ 8008 7997 7996 7995 ] final  -44.34 input   59.86 | X-H torsion
[ 10167 10162 10161 10158 ] final  -57.30 input  -65.29 | X-H torsion
[ 10718 10713 10712 10709 ] final   86.68 input   66.30 | X-H torsion
[ 10763 10752 10751 10750 ] final  -53.46 input  -60.55 | X-H torsion
[ 11005 11000 10999 10996 ] final -130.47 input  -57.11 | X-H torsion

> <Gold.Protein.ActiveResidues>
 VAL166  LYS551  ARG553  GLY616  TRP617  ASP618  TYR619  PRO620  LYS621  CYS622 
 ASP623  PHE694  ASN695  SER759  ASP760  ASP761  ALA762  ILE779  LEU786  VAL792 
 PHE793  MET794  SER795  GLU796  ALA797  LYS798  CYS799  TRP800  GLU811  SER814 

> <Gold.Protein.RotatedAtoms>
  152.5259  133.9652  159.7735 H   0  0  0  0  0  0  0  0  0  0  0  0  # atno 6907 bound_to 6896
  150.9935  133.6118  159.2712 H   0  0  0  0  0  0  0  0  0  0  0  0  # atno 6908 bound_to 6896
  151.3253  135.0834  159.9373 H   0  0  0  0  0  0  0  0  0  0  0  0  # atno 6909 bound_to 6896
  144.7371  140.3313  143.6152 H   0  0  0  0  0  0  0  0  0  0  0  0  # atno 7974 bound_to 7965
  154.3997  140.1424  156.3667 H   0  0  0  0  0  0  0  0  0  0  0  0  # atno 8008 bound_to 7997
  155.8131  140.3472  155.5448 H   0  0  0  0  0  0  0  0  0  0  0  0  # atno 8009 bound_to 7997
  155.8366  140.0920  157.1750 H   0  0  0  0  0  0  0  0  0  0  0  0  # atno 8010 bound_to 7997
  140.6266  143.2441  151.5347 H   0  0  0  0  0  0  0  0  0  0  0  0  # atno 10167 bound_to 10162
  157.6931  131.0225  150.3009 H   0  0  0  0  0  0  0  0  0  0  0  0  # atno 10718 bound_to 10713
  154.1592  135.6477  153.4982 H   0  0  0  0  0  0  0  0  0  0  0  0  # atno 10763 bound_to 10752
  153.0115  135.5356  154.6728 H   0  0  0  0  0  0  0  0  0  0  0  0  # atno 10764 bound_to 10752
  154.6037  135.2946  155.0479 H   0  0  0  0  0  0  0  0  0  0  0  0  # atno 10765 bound_to 10752
  140.9343  134.1278  157.4207 H   0  0  0  0  0  0  0  0  0  0  0  0  # atno 11005 bound_to 11000
  145.7469  139.1781  143.2344 LP  0  0  0  0  0  0  0  0  0  0  0  0  # atno 17320 bound_to 7965
  146.1091  140.7450  142.9512 LP  0  0  0  0  0  0  0  0  0  0  0  0  # atno 17321 bound_to 7965
  139.5486  144.2456  152.1488 LP  0  0  0  0  0  0  0  0  0  0  0  0  # atno 17342 bound_to 10162
  140.1689  144.4955  150.6590 LP  0  0  0  0  0  0  0  0  0  0  0  0  # atno 17343 bound_to 10162
  156.3525  130.3833  149.7317 LP  0  0  0  0  0  0  0  0  0  0  0  0  # atno 17370 bound_to 10713
  156.4790  130.8032  151.3047 LP  0  0  0  0  0  0  0  0  0  0  0  0  # atno 17371 bound_to 10713
  139.8804  135.0016  156.6075 LP  0  0  0  0  0  0  0  0  0  0  0  0  # atno 17394 bound_to 11000
  140.7820  133.8652  155.8575 LP  0  0  0  0  0  0  0  0  0  0  0  0  # atno 17395 bound_to 11000

$$$$
