AV-unprocessed.smi:206|AV-procd|sdf|1601|dock2
  -GOLD-   2262019513D 1   1.00000     0.00000
 Structure written by MMmdl.
 47 50  0  0  0  0  0  0  0  0  1 V2000
  154.2828  141.6306  160.6903 O   0  0  0  0  0  0  0  0  0  0  0  0
  153.3794  141.4811  159.8692 C   0  0  0  0  0  0  0  0  0  0  0  0
  153.3068  140.2961  158.9237 C   0  0  0  0  0  0  0  0  0  0  0  0
  152.0641  140.5710  158.2126 N   0  0  0  0  0  0  0  0  0  0  0  0
  151.6149  139.8094  157.1817 C   0  0  0  0  0  0  0  0  0  0  0  0
  152.4625  139.5677  156.1474 N   0  0  0  0  0  0  0  0  0  0  0  0
  152.0728  138.8250  155.1081 C   0  0  0  0  0  0  0  0  0  0  0  0
  150.8954  138.2346  154.9011 N   0  0  0  0  0  0  0  0  0  0  0  0
  150.0357  138.4687  155.9333 C   0  0  0  0  0  0  0  0  0  0  0  0
  150.3110  139.2343  157.1041 C   0  0  0  0  0  0  0  0  0  0  0  0
  149.1934  139.2319  157.9316 N   0  0  0  0  0  0  0  0  0  0  0  0
  148.3158  138.5091  157.2923 C   0  0  0  0  0  0  0  0  0  0  0  0
  148.7314  138.0239  156.0729 N   0  0  0  0  0  0  0  0  0  0  0  0
  147.9880  137.1870  155.1726 C   0  0  0  0  0  0  0  0  0  0  0  0
  146.4864  136.9359  155.3484 C   0  0  0  0  0  0  0  0  0  0  0  0
  146.6697  135.4677  154.9000 C   0  0  0  0  0  0  0  0  0  0  0  0
  145.9845  134.4209  155.7922 C   0  0  0  0  0  0  0  0  0  0  0  0
  146.3977  133.1101  155.4631 O   0  0  0  0  0  0  0  0  0  0  0  0
  146.3061  135.1262  153.4377 C   0  0  0  0  0  0  0  0  0  0  0  0
  146.5459  136.1913  152.5402 O   0  0  0  0  0  0  0  0  0  0  0  0
  148.1730  135.6691  155.1985 C   0  0  0  0  0  0  0  0  0  0  0  0
  151.4360  141.8117  158.6452 C   0  0  0  0  0  0  0  0  0  0  0  0
  152.3388  142.2989  159.6751 N   0  0  0  0  0  0  0  0  0  0  0  0
  152.0523  143.5362  160.3976 C   0  0  0  0  0  0  0  0  0  0  0  0
  151.8934  144.7423  159.4547 C   0  0  0  0  0  0  0  0  0  0  0  0
  152.8537  144.7005  158.5322 F   0  0  0  0  0  0  0  0  0  0  0  0
  150.7130  144.7192  158.8364 F   0  0  0  0  0  0  0  0  0  0  0  0
  152.0090  145.8821  160.1363 F   0  0  0  0  0  0  0  0  0  0  0  0
  154.1657  140.2860  158.2516 H   0  0  0  0  0  0  0  0  0  0  0  0
  153.2545  139.3571  159.4757 H   0  0  0  0  0  0  0  0  0  0  0  0
  152.8091  138.6858  154.3301 H   0  0  0  0  0  0  0  0  0  0  0  0
  147.3369  138.3105  157.7027 H   0  0  0  0  0  0  0  0  0  0  0  0
  148.1756  137.5728  154.1698 H   0  0  0  0  0  0  0  0  0  0  0  0
  146.1525  137.0187  156.3831 H   0  0  0  0  0  0  0  0  0  0  0  0
  145.8547  137.5349  154.6918 H   0  0  0  0  0  0  0  0  0  0  0  0
  146.1934  134.6035  156.8469 H   0  0  0  0  0  0  0  0  0  0  0  0
  144.9004  134.4643  155.6821 H   0  0  0  0  0  0  0  0  0  0  0  0
  147.1730  133.1649  154.9254 H   0  0  0  0  0  0  0  0  0  0  0  0
  146.8782  134.2656  153.0896 H   0  0  0  0  0  0  0  0  0  0  0  0
  145.2533  134.8572  153.3477 H   0  0  0  0  0  0  0  0  0  0  0  0
  147.4727  136.3764  152.5341 H   0  0  0  0  0  0  0  0  0  0  0  0
  148.8489  135.2891  154.4318 H   0  0  0  0  0  0  0  0  0  0  0  0
  148.4654  135.3064  156.1853 H   0  0  0  0  0  0  0  0  0  0  0  0
  151.3674  142.5290  157.8262 H   0  0  0  0  0  0  0  0  0  0  0  0
  150.4429  141.6287  159.0577 H   0  0  0  0  0  0  0  0  0  0  0  0
  151.1391  143.4031  160.9792 H   0  0  0  0  0  0  0  0  0  0  0  0
  152.8471  143.7291  161.1200 H   0  0  0  0  0  0  0  0  0  0  0  0
  1  2  2  0  0  0  0
  2 23  1  0  0  0  0
  2  3  1  0  0  0  0
  3  4  1  0  0  0  0
  3 29  1  0  0  0  0
  3 30  1  0  0  0  0
  4  5  1  0  0  0  0
  4 22  1  0  0  0  0
  5 10  1  0  0  0  0
  5  6  2  0  0  0  0
  6  7  1  0  0  0  0
  7  8  2  0  0  0  0
  7 31  1  0  0  0  0
  8  9  1  0  0  0  0
  9 13  1  0  0  0  0
  9 10  2  0  0  0  0
 10 11  1  0  0  0  0
 11 12  2  0  0  0  0
 12 13  1  0  0  0  0
 12 32  1  0  0  0  0
 13 14  1  0  0  0  0
 14 21  1  0  0  0  0
 14 15  1  0  0  0  0
 14 33  1  0  0  0  0
 15 16  1  0  0  0  0
 15 34  1  0  0  0  0
 15 35  1  0  0  0  0
 16 17  1  0  0  0  0
 16 19  1  0  0  0  0
 16 21  1  0  0  0  0
 17 18  1  0  0  0  0
 17 36  1  0  0  0  0
 17 37  1  0  0  0  0
 18 38  1  0  0  0  0
 19 20  1  0  0  0  0
 19 39  1  0  0  0  0
 19 40  1  0  0  0  0
 20 41  1  0  0  0  0
 21 42  1  0  0  0  0
 21 43  1  0  0  0  0
 22 23  1  0  0  0  0
 22 44  1  0  0  0  0
 22 45  1  0  0  0  0
 23 24  1  0  0  0  0
 24 25  1  0  0  0  0
 24 46  1  0  0  0  0
 24 47  1  0  0  0  0
 25 26  1  0  0  0  0
 25 27  1  0  0  0  0
 25 28  1  0  0  0  0
M  END
> <s_m_source_file>
AV-unprocessed.smi

> <i_m_source_file_index>
206

> <i_lp_mmshare_version>
43012

> <i_f3d_flags>
0

> <s_epik_input>
RkMoRikoRilbQ0gyXU4xW0NIMl1OKFtDSDJdQzE9TyljKG5bY0hdbjIpYyhjMjMpbltjSF1uM1tDSF0oW0NIMl00KVtDSDJdQzQoW0NIMl1bT0hdKVtDSDJdW09IXQ==

> <s_epik_cmdline>
J2VwaWtfcHl0aG9uJywgJy1waCcsICc3LjAnLCAnLXRuJywgJzgnLCAnLW1hJywgJzIwMCcsICctbWV0YWxfYmluZGluZycsICctaW1hZScsICc8aW5maWxlLm1hZT4nLCAnLW9tYWUnLCAnPG91dGZpbGUubWFlPic=

> <r_lp_tautomer_probability>
1

> <r_epik_Ionization_Penalty>
0.000251167

> <r_epik_Ionization_Penalty_Charging>
0

> <r_epik_Ionization_Penalty_Neutral>
0.000251167

> <r_epik_State_Penalty>
-0

> <r_epik_Charging_Adjusted_Penalty>
0

> <i_epik_Tot_Q>
0

> <i_epik_Tot_abs_Q>
0

> <r_epik_Metal_State_Penalty>
-0

> <b_epik_Metal_Only>
0

> <s_epik_Chemistry_Notes>
This compound contains an acetal/aminal-like group ( X-CH(R)-Y where X, Y are N, S, or O) that may be acid/base labile, releasing an aldehyde.

> <s_lp_Force_Field>
OPLS_2005

> <r_lp_Energy>
40.1188

> <b_lp_Chiralities_Consistent>
1

> <s_lp_Variant>
AV-unprocessed.smi:206-1

> <Gold.Version>
5.8.1

> <Gold.Id.Protein>
6NUR|6NUR_protein|mol2

> <Gold.PLP.Fitness>
45.8239

> <Gold.PLP.PLP>
-43.2663

> <Gold.PLP.part.hbond>
-2.0296

> <Gold.PLP.part.metal>
0.0000

> <Gold.PLP.part.buried>
-4.7719

> <Gold.PLP.part.nonpolar>
-34.8567

> <Gold.PLP.part.repulsive>
0.1258

> <Gold.PLP.ligand.clash>
0.0000

> <Gold.PLP.ligand.torsion>
1.9689

> <Gold.PLP.Chemscore.Hbond>
2.0000

> <Gold.PLP.Chemscore.CHOScore>
0.0000

> <Gold.PLP.Chemscore.Metal>
0.0000

> <Gold.Chemscore.Hbonds>
donor molecule, donor type, donor heavy atom, donor atom, acceptor molecule, acceptor atom, score
      L1  H    20    41       P1  7948  0.99
      P1  H  7997  8010       L1     6  1.00

> <Gold.PLP.Chemscore.Internal.Correction>
0.4953

> <Gold.Rescore>
     Score         DG    S(hbond)    S(metal)    S(lipo)     H(rot)  DE(clash)    DE(int)     intcor
      4.69      -7.00       1.87        0.00      42.66       3.79       0.10       2.21       ----

> <Gold.Chemscore.Fitness>
4.6939

> <Gold.Chemscore.DG>
-7.0037

> <Gold.Chemscore.ZeroCoef>
-5.4800

> <Gold.Chemscore.Hbond>
1.8692

> <Gold.Chemscore.Metal>
0.0000

> <Gold.Chemscore.Lipo>
42.6600

> <Gold.Chemscore.Internal_Hbond>
0.0000

> <Gold.Chemscore.DEClash>
0.0984

> <Gold.Chemscore.DEInternal>
2.2114

> <Gold.Chemscore.Rot>
3.7932

> <Gold.Chemscore.Internal.Correction>
   9.000000E+99

> <Gold.Chemscore.Hbonds>
donor molecule, donor type, donor heavy atom, donor atom, acceptor molecule, acceptor atom, score
      L1  H    20    41       P1  7948  0.94
      P1  H  7997  8010       L1     6  0.93

> <Gold.Chemscore.Hbond.Weighted>
-6.2432

> <Gold.Chemscore.Metal.Weighted>
-0.0000

> <Gold.Chemscore.Lipo.Weighted>
-4.9912

> <Gold.Chemscore.Internal_Hbond.Weighted>
0.0000

> <Gold.Chemscore.DEClash.Weighted>
0.0984

> <Gold.Chemscore.DEInternal.Weighted>
2.2114

> <Gold.Chemscore.Rot.Weighted>
9.7107

> <Gold.Chemscore.Internal.Correction.Weighted>
   9.000000E+99

> <Gold.Protein.RotatedTorsions>
[ 6907 6896 6895 6894 ] final   36.37 input  -60.11 | X-H torsion
[ 7974 7965 7964 7962 ] final  -12.73 input  175.53 | X-H torsion
[ 8008 7997 7996 7995 ] final   80.80 input   59.86 | X-H torsion
[ 10167 10162 10161 10158 ] final   47.14 input  -65.29 | X-H torsion
[ 10718 10713 10712 10709 ] final -171.75 input   66.30 | X-H torsion
[ 10763 10752 10751 10750 ] final  140.50 input  -60.55 | X-H torsion
[ 11005 11000 10999 10996 ] final    2.59 input  -57.11 | X-H torsion

> <Gold.Protein.ActiveResidues>
 VAL166  LYS551  ARG553  GLY616  TRP617  ASP618  TYR619  PRO620  LYS621  CYS622 
 ASP623  PHE694  ASN695  SER759  ASP760  ASP761  ALA762  ILE779  LEU786  VAL792 
 PHE793  MET794  SER795  GLU796  ALA797  LYS798  CYS799  TRP800  GLU811  SER814 

> <Gold.Protein.RotatedAtoms>
  152.1288  134.9150  160.0559 H   0  0  0  0  0  0  0  0  0  0  0  0  # atno 6907 bound_to 6896
  152.0262  133.3914  159.4287 H   0  0  0  0  0  0  0  0  0  0  0  0  # atno 6908 bound_to 6896
  150.6854  134.3492  159.4945 H   0  0  0  0  0  0  0  0  0  0  0  0  # atno 6909 bound_to 6896
  146.2141  140.3100  142.8382 H   0  0  0  0  0  0  0  0  0  0  0  0  # atno 7974 bound_to 7965
  155.8884  140.3440  155.5938 H   0  0  0  0  0  0  0  0  0  0  0  0  # atno 8008 bound_to 7997
  155.7639  140.0836  157.2160 H   0  0  0  0  0  0  0  0  0  0  0  0  # atno 8009 bound_to 7997
  154.4031  140.1530  156.2852 H   0  0  0  0  0  0  0  0  0  0  0  0  # atno 8010 bound_to 7997
  140.3067  144.2869  150.6208 H   0  0  0  0  0  0  0  0  0  0  0  0  # atno 10167 bound_to 10162
  156.7454  130.9358  151.3112 H   0  0  0  0  0  0  0  0  0  0  0  0  # atno 10718 bound_to 10713
  153.9237  135.2998  155.3447 H   0  0  0  0  0  0  0  0  0  0  0  0  # atno 10763 bound_to 10752
  154.7562  135.4956  153.9383 H   0  0  0  0  0  0  0  0  0  0  0  0  # atno 10764 bound_to 10752
  153.1128  135.6763  153.9573 H   0  0  0  0  0  0  0  0  0  0  0  0  # atno 10765 bound_to 10752
  140.6025  133.9822  155.8139 H   0  0  0  0  0  0  0  0  0  0  0  0  # atno 11005 bound_to 11000
  144.8995  140.7625  143.5876 LP  0  0  0  0  0  0  0  0  0  0  0  0  # atno 17320 bound_to 7965
  145.3025  139.1845  143.4682 LP  0  0  0  0  0  0  0  0  0  0  0  0  # atno 17321 bound_to 7965
  140.5604  143.2193  151.7775 LP  0  0  0  0  0  0  0  0  0  0  0  0  # atno 17342 bound_to 10162
  139.4903  144.4356  151.9822 LP  0  0  0  0  0  0  0  0  0  0  0  0  # atno 17343 bound_to 10162
  157.6800  130.9131  150.0244 LP  0  0  0  0  0  0  0  0  0  0  0  0  # atno 17370 bound_to 10713
  156.1436  130.3642  149.9544 LP  0  0  0  0  0  0  0  0  0  0  0  0  # atno 17371 bound_to 10713
  141.0862  133.9986  157.3309 LP  0  0  0  0  0  0  0  0  0  0  0  0  # atno 17394 bound_to 11000
  139.9226  135.0201  156.8120 LP  0  0  0  0  0  0  0  0  0  0  0  0  # atno 17395 bound_to 11000

$$$$
