AV-unprocessed.smi:3175|AV-procd|sdf|12122|dock4
  -GOLD-   2272017563D 1   1.00000     0.00000
 Structure written by MMmdl.
 37 38  0  0  0  0  0  0  0  0  1 V2000
  150.5559  141.1998  158.8671 O   0  0  0  0  0  0  0  0  0  0  0  0
  151.6545  140.9632  158.3645 C   0  0  0  0  0  0  0  0  0  0  0  0
  152.9183  141.6297  158.9176 C   0  0  0  0  0  0  0  0  0  0  0  0
  152.7987  143.1632  159.0361 C   0  0  0  0  0  0  0  0  0  0  0  0
  152.4010  143.6366  160.4361 C   0  0  0  0  0  0  0  0  0  0  0  0
  151.8735  145.0623  160.2400 C   0  0  0  0  0  0  0  0  0  0  0  0
  151.4385  145.1629  158.7696 C   0  0  0  0  0  0  0  0  0  0  0  0
  151.7260  143.7949  158.1416 C   0  0  0  0  0  0  0  0  0  0  0  0
  151.8226  140.1398  157.3189 N   0  0  0  0  0  0  0  0  0  0  0  0
  150.7481  139.4328  156.6291 C   0  0  0  0  0  0  0  0  0  0  0  0
  150.7702  139.6670  155.1066 C   0  0  0  0  0  0  0  0  0  0  0  0
  149.4309  140.1162  154.5481 C   0  0  0  0  0  0  0  0  0  0  0  0
  148.9846  141.4424  154.7214 C   0  0  0  0  0  0  0  0  0  0  0  0
  147.7322  141.8110  154.1940 C   0  0  0  0  0  0  0  0  0  0  0  0
  146.9776  140.8346  153.5134 C   0  0  0  0  0  0  0  0  0  0  0  0
  147.3948  139.5620  153.3406 N   0  0  0  0  0  0  0  0  0  0  0  0
  148.5977  139.2169  153.8482 C   0  0  0  0  0  0  0  0  0  0  0  0
  153.1654  141.2008  159.8902 H   0  0  0  0  0  0  0  0  0  0  0  0
  153.7452  141.3781  158.2528 H   0  0  0  0  0  0  0  0  0  0  0  0
  153.7596  143.6208  158.7928 H   0  0  0  0  0  0  0  0  0  0  0  0
  151.6016  143.0065  160.8287 H   0  0  0  0  0  0  0  0  0  0  0  0
  153.2307  143.5936  161.1424 H   0  0  0  0  0  0  0  0  0  0  0  0
  151.0530  145.2795  160.9245 H   0  0  0  0  0  0  0  0  0  0  0  0
  152.6643  145.7865  160.4397 H   0  0  0  0  0  0  0  0  0  0  0  0
  150.3860  145.4311  158.6727 H   0  0  0  0  0  0  0  0  0  0  0  0
  152.0195  145.9365  158.2660 H   0  0  0  0  0  0  0  0  0  0  0  0
  152.0408  143.8762  157.1006 H   0  0  0  0  0  0  0  0  0  0  0  0
  150.8196  143.1881  158.1652 H   0  0  0  0  0  0  0  0  0  0  0  0
  152.7587  140.0062  156.9646 H   0  0  0  0  0  0  0  0  0  0  0  0
  150.8678  138.3691  156.8362 H   0  0  0  0  0  0  0  0  0  0  0  0
  149.7798  139.7186  157.0429 H   0  0  0  0  0  0  0  0  0  0  0  0
  151.5235  140.4165  154.8616 H   0  0  0  0  0  0  0  0  0  0  0  0
  151.0789  138.7532  154.5967 H   0  0  0  0  0  0  0  0  0  0  0  0
  149.5890  142.1643  155.2510 H   0  0  0  0  0  0  0  0  0  0  0  0
  147.3581  142.8176  154.3084 H   0  0  0  0  0  0  0  0  0  0  0  0
  146.0127  141.0827  153.0967 H   0  0  0  0  0  0  0  0  0  0  0  0
  148.9000  138.1910  153.6973 H   0  0  0  0  0  0  0  0  0  0  0  0
  1  2  2  0  0  0  0
  2  3  1  0  0  0  0
  2  9  1  0  0  0  0
  3  4  1  0  0  0  0
  3 18  1  0  0  0  0
  3 19  1  0  0  0  0
  4  8  1  0  0  0  0
  4  5  1  0  0  0  0
  4 20  1  0  0  0  0
  5  6  1  0  0  0  0
  5 21  1  0  0  0  0
  5 22  1  0  0  0  0
  6  7  1  0  0  0  0
  6 23  1  0  0  0  0
  6 24  1  0  0  0  0
  7  8  1  0  0  0  0
  7 25  1  0  0  0  0
  7 26  1  0  0  0  0
  8 27  1  0  0  0  0
  8 28  1  0  0  0  0
  9 10  1  0  0  0  0
  9 29  1  0  0  0  0
 10 11  1  0  0  0  0
 10 30  1  0  0  0  0
 10 31  1  0  0  0  0
 11 12  1  0  0  0  0
 11 32  1  0  0  0  0
 11 33  1  0  0  0  0
 12 17  1  0  0  0  0
 12 13  2  0  0  0  0
 13 14  1  0  0  0  0
 13 34  1  0  0  0  0
 14 15  2  0  0  0  0
 14 35  1  0  0  0  0
 15 16  1  0  0  0  0
 15 36  1  0  0  0  0
 16 17  2  0  0  0  0
 17 37  1  0  0  0  0
M  END
> <s_m_source_file>
AV-unprocessed.smi

> <i_m_source_file_index>
3175

> <i_lp_mmshare_version>
43012

> <i_f3d_flags>
0

> <s_epik_input>
W0NIMl0xW0NIMl1bQ0gyXVtDSDJdW0NIXTFbQ0gyXUMoPU8pW05IXVtDSDJdW0NIMl1jMltjSF1bY0hdW2NIXW5bY0hdMg==

> <s_epik_cmdline>
J2VwaWtfcHl0aG9uJywgJy1waCcsICc3LjAnLCAnLXRuJywgJzgnLCAnLW1hJywgJzIwMCcsICctbWV0YWxfYmluZGluZycsICctaW1hZScsICc8aW5maWxlLm1hZT4nLCAnLW9tYWUnLCAnPG91dGZpbGUubWFlPic=

> <r_epik_Ionization_Penalty>
0.013409

> <r_epik_Ionization_Penalty_Charging>
0

> <r_epik_Ionization_Penalty_Neutral>
0.013409

> <r_epik_State_Penalty>
0.010434

> <r_epik_Charging_Adjusted_Penalty>
0.010434

> <i_epik_Tot_Q>
0

> <i_epik_Tot_abs_Q>
0

> <r_epik_Metal_State_Penalty>
0.0102027

> <b_epik_Metal_Only>
0

> <s_lp_Force_Field>
OPLS_2005

> <r_lp_Energy>
19.7305

> <b_lp_Chiralities_Consistent>
1

> <s_lp_Variant>
AV-unprocessed.smi:3175-1

> <Gold.Version>
5.8.1

> <Gold.Id.Protein>
6NUR|6NUR_protein|mol2

> <Gold.PLP.Fitness>
43.9040

> <Gold.PLP.PLP>
-40.5104

> <Gold.PLP.part.hbond>
-0.2313

> <Gold.PLP.part.metal>
0.0000

> <Gold.PLP.part.buried>
-3.4998

> <Gold.PLP.part.nonpolar>
-37.5229

> <Gold.PLP.part.repulsive>
0.9602

> <Gold.PLP.ligand.clash>
0.0000

> <Gold.PLP.ligand.torsion>
1.1763

> <Gold.PLP.Chemscore.Hbond>
0.0000

> <Gold.PLP.Chemscore.CHOScore>
1.9100

> <Gold.PLP.Chemscore.Metal>
0.0000

> <Gold.Chemscore.Hbonds>
donor molecule, donor type, donor heavy atom, donor atom, acceptor molecule, acceptor atom, score
      L1  C    15    36       P1 10175  1.00
      L1  C    17    37       P1  7948  0.66

> <Gold.PLP.Chemscore.Internal.Correction>
0.0160

> <Gold.Rescore>
     Score         DG    S(hbond)    S(metal)    S(lipo)     H(rot)  DE(clash)    DE(int)     intcor
     14.42     -15.53       0.00        0.00     118.38       1.48       0.09       1.02       ----

> <Gold.Chemscore.Fitness>
14.4221

> <Gold.Chemscore.DG>
-15.5288

> <Gold.Chemscore.ZeroCoef>
-5.4800

> <Gold.Chemscore.Hbond>
0.0000

> <Gold.Chemscore.Metal>
0.0000

> <Gold.Chemscore.Lipo>
118.3759

> <Gold.Chemscore.Internal_Hbond>
0.0000

> <Gold.Chemscore.DEClash>
0.0865

> <Gold.Chemscore.DEInternal>
1.0202

> <Gold.Chemscore.Rot>
1.4848

> <Gold.Chemscore.Internal.Correction>
   9.000000E+99

> <Gold.Chemscore.Hbond.Weighted>
-0.0000

> <Gold.Chemscore.Metal.Weighted>
-0.0000

> <Gold.Chemscore.Lipo.Weighted>
-13.8500

> <Gold.Chemscore.Internal_Hbond.Weighted>
0.0000

> <Gold.Chemscore.DEClash.Weighted>
0.0865

> <Gold.Chemscore.DEInternal.Weighted>
1.0202

> <Gold.Chemscore.Rot.Weighted>
3.8012

> <Gold.Chemscore.Internal.Correction.Weighted>
   9.000000E+99

> <Gold.Protein.RotatedTorsions>
[ 6907 6896 6895 6894 ] final  -26.90 input  -60.11 | X-H torsion
[ 7974 7965 7964 7962 ] final  -70.72 input  175.53 | X-H torsion
[ 8008 7997 7996 7995 ] final  -60.31 input   59.86 | X-H torsion
[ 10167 10162 10161 10158 ] final -127.13 input  -65.29 | X-H torsion
[ 10718 10713 10712 10709 ] final  -86.25 input   66.30 | X-H torsion
[ 10763 10752 10751 10750 ] final  176.79 input  -60.55 | X-H torsion
[ 11005 11000 10999 10996 ] final  -49.70 input  -57.11 | X-H torsion

> <Gold.Protein.ActiveResidues>
 VAL166  LYS551  ARG553  GLY616  TRP617  ASP618  TYR619  PRO620  LYS621  CYS622 
 ASP623  PHE694  ASN695  SER759  ASP760  ASP761  ALA762  ILE779  LEU786  VAL792 
 PHE793  MET794  SER795  GLU796  ALA797  LYS798  CYS799  TRP800  GLU811  SER814 

> <Gold.Protein.RotatedAtoms>
  151.1545  135.0243  159.8682 H   0  0  0  0  0  0  0  0  0  0  0  0  # atno 6907 bound_to 6896
  152.5452  134.1350  159.8465 H   0  0  0  0  0  0  0  0  0  0  0  0  # atno 6908 bound_to 6896
  151.1439  133.4907  159.2629 H   0  0  0  0  0  0  0  0  0  0  0  0  # atno 6909 bound_to 6896
  145.6873  140.9166  143.0800 H   0  0  0  0  0  0  0  0  0  0  0  0  # atno 7974 bound_to 7965
  154.4393  140.1042  156.6254 H   0  0  0  0  0  0  0  0  0  0  0  0  # atno 8008 bound_to 7997
  155.5662  140.3488  155.4485 H   0  0  0  0  0  0  0  0  0  0  0  0  # atno 8009 bound_to 7997
  156.0423  140.1285  157.0131 H   0  0  0  0  0  0  0  0  0  0  0  0  # atno 8010 bound_to 7997
  139.9641  143.5918  152.2435 H   0  0  0  0  0  0  0  0  0  0  0  0  # atno 10167 bound_to 10162
  155.9991  130.4758  150.4686 H   0  0  0  0  0  0  0  0  0  0  0  0  # atno 10718 bound_to 10713
  154.4859  135.2777  155.1535 H   0  0  0  0  0  0  0  0  0  0  0  0  # atno 10763 bound_to 10752
  154.3226  135.6206  153.5518 H   0  0  0  0  0  0  0  0  0  0  0  0  # atno 10764 bound_to 10752
  152.9881  135.5746  154.5269 H   0  0  0  0  0  0  0  0  0  0  0  0  # atno 10765 bound_to 10752
  141.0774  133.6662  156.3624 H   0  0  0  0  0  0  0  0  0  0  0  0  # atno 11005 bound_to 11000
  144.7007  139.8775  143.7445 LP  0  0  0  0  0  0  0  0  0  0  0  0  # atno 17320 bound_to 7965
  146.0912  139.3902  143.0404 LP  0  0  0  0  0  0  0  0  0  0  0  0  # atno 17321 bound_to 7965
  139.6531  144.7661  151.2108 LP  0  0  0  0  0  0  0  0  0  0  0  0  # atno 17342 bound_to 10162
  140.7544  143.6128  150.8588 LP  0  0  0  0  0  0  0  0  0  0  0  0  # atno 17343 bound_to 10162
  157.2703  131.0586  151.2264 LP  0  0  0  0  0  0  0  0  0  0  0  0  # atno 17370 bound_to 10713
  157.3346  130.7002  149.6345 LP  0  0  0  0  0  0  0  0  0  0  0  0  # atno 17371 bound_to 10713
  140.5543  134.5997  157.5416 LP  0  0  0  0  0  0  0  0  0  0  0  0  # atno 17394 bound_to 11000
  139.9587  134.7490  156.0285 LP  0  0  0  0  0  0  0  0  0  0  0  0  # atno 17395 bound_to 11000

$$$$
