AV-unprocessed.smi:1192|AV-procd|sdf|4988|dock10
  -GOLD-   22720 3583D 1   1.00000     0.00000
 Structure written by MMmdl.
 39 40  0  0  0  0  0  0  0  0  1 V2000
  152.0900  138.8869  154.7946 C   0  0  0  0  0  0  0  0  0  0  0  0
  152.4398  140.0502  155.5223 O   0  0  0  0  0  0  0  0  0  0  0  0
  151.3247  140.8911  155.7678 C   0  0  0  0  0  0  0  0  0  0  0  0
  150.5182  140.3182  156.9360 C   0  0  0  0  0  0  0  0  0  0  0  0
  151.4321  139.7644  157.8750 O   0  0  0  0  0  0  0  0  0  0  0  0
  152.1353  140.6125  158.7053 C   0  0  0  0  0  0  0  0  0  0  0  0
  151.8626  141.9407  158.6525 N   0  0  0  0  0  0  0  0  0  0  0  0
  152.5434  142.7697  159.4706 C   0  0  0  0  0  0  0  0  0  0  0  0
  153.5226  142.3249  160.3783 C   0  0  0  0  0  0  0  0  0  0  0  0
  153.8052  140.9475  160.4336 C   0  0  0  0  0  0  0  0  0  0  0  0
  153.1046  140.0676  159.5816 C   0  0  0  0  0  0  0  0  0  0  0  0
  153.3867  138.5732  159.6306 C   0  0  0  0  0  0  0  0  0  0  0  0
  153.9712  138.1402  160.8977 N   0  0  0  0  0  0  0  0  0  0  0  0
  154.1799  136.8680  161.2726 C   0  0  0  0  0  0  0  0  0  0  0  0
  153.9089  135.8984  160.5634 O   0  0  0  0  0  0  0  0  0  0  0  0
  154.8136  136.6791  162.6569 C   0  0  0  0  0  0  0  0  0  0  0  0
  153.8733  136.1650  163.7652 C   0  0  0  0  0  0  0  0  0  0  0  0
  154.4822  137.2092  164.7046 C   0  0  0  0  0  0  0  0  0  0  0  0
  154.9439  137.9808  163.4652 C   0  0  0  0  0  0  0  0  0  0  0  0
  152.9807  138.2843  154.6188 H   0  0  0  0  0  0  0  0  0  0  0  0
  151.6601  139.1412  153.8250 H   0  0  0  0  0  0  0  0  0  0  0  0
  151.3735  138.2781  155.3480 H   0  0  0  0  0  0  0  0  0  0  0  0
  151.6781  141.8908  156.0249 H   0  0  0  0  0  0  0  0  0  0  0  0
  150.6988  140.9811  154.8785 H   0  0  0  0  0  0  0  0  0  0  0  0
  149.9039  141.1008  157.3846 H   0  0  0  0  0  0  0  0  0  0  0  0
  149.8536  139.5332  156.5722 H   0  0  0  0  0  0  0  0  0  0  0  0
  152.2988  143.8191  159.4006 H   0  0  0  0  0  0  0  0  0  0  0  0
  154.0430  143.0232  161.0169 H   0  0  0  0  0  0  0  0  0  0  0  0
  154.5506  140.5757  161.1211 H   0  0  0  0  0  0  0  0  0  0  0  0
  152.4592  138.0185  159.4864 H   0  0  0  0  0  0  0  0  0  0  0  0
  154.0247  138.3196  158.7827 H   0  0  0  0  0  0  0  0  0  0  0  0
  154.2383  138.8685  161.5441 H   0  0  0  0  0  0  0  0  0  0  0  0
  155.7486  136.1167  162.6192 H   0  0  0  0  0  0  0  0  0  0  0  0
  152.8120  136.3437  163.5832 H   0  0  0  0  0  0  0  0  0  0  0  0
  154.0551  135.1362  164.0745 H   0  0  0  0  0  0  0  0  0  0  0  0
  153.7607  137.7384  165.3282 H   0  0  0  0  0  0  0  0  0  0  0  0
  155.3140  136.8151  165.2906 H   0  0  0  0  0  0  0  0  0  0  0  0
  155.9608  138.3682  163.5354 H   0  0  0  0  0  0  0  0  0  0  0  0
  154.2394  138.7590  163.1645 H   0  0  0  0  0  0  0  0  0  0  0  0
  1  2  1  0  0  0  0
  1 20  1  0  0  0  0
  1 21  1  0  0  0  0
  1 22  1  0  0  0  0
  2  3  1  0  0  0  0
  3  4  1  0  0  0  0
  3 23  1  0  0  0  0
  3 24  1  0  0  0  0
  4  5  1  0  0  0  0
  4 25  1  0  0  0  0
  4 26  1  0  0  0  0
  5  6  1  0  0  0  0
  6 11  1  0  0  0  0
  6  7  2  0  0  0  0
  7  8  1  0  0  0  0
  8  9  2  0  0  0  0
  8 27  1  0  0  0  0
  9 10  1  0  0  0  0
  9 28  1  0  0  0  0
 10 11  2  0  0  0  0
 10 29  1  0  0  0  0
 11 12  1  0  0  0  0
 12 13  1  0  0  0  0
 12 30  1  0  0  0  0
 12 31  1  0  0  0  0
 13 14  1  0  0  0  0
 13 32  1  0  0  0  0
 14 15  2  0  0  0  0
 14 16  1  0  0  0  0
 16 19  1  0  0  0  0
 16 17  1  0  0  0  0
 16 33  1  0  0  0  0
 17 18  1  0  0  0  0
 17 34  1  0  0  0  0
 17 35  1  0  0  0  0
 18 19  1  0  0  0  0
 18 36  1  0  0  0  0
 18 37  1  0  0  0  0
 19 38  1  0  0  0  0
 19 39  1  0  0  0  0
M  END
> <s_m_source_file>
AV-unprocessed.smi

> <i_m_source_file_index>
1192

> <i_lp_mmshare_version>
43012

> <i_f3d_flags>
0

> <s_epik_input>
W0NIM11PW0NIMl1bQ0gyXU9jMW5bY0hdW2NIXVtjSF1jMVtDSDJdW05IXUMoPU8pW0NIXTJbQ0gyXVtDSDJdW0NIMl0y

> <s_epik_cmdline>
J2VwaWtfcHl0aG9uJywgJy1waCcsICc3LjAnLCAnLXRuJywgJzgnLCAnLW1hJywgJzIwMCcsICctbWV0YWxfYmluZGluZycsICctaW1hZScsICc8aW5maWxlLm1hZT4nLCAnLW9tYWUnLCAnPG91dGZpbGUubWFlPic=

> <r_lp_tautomer_probability>
1

> <r_epik_Ionization_Penalty>
6.50215e-05

> <r_epik_Ionization_Penalty_Charging>
0

> <r_epik_Ionization_Penalty_Neutral>
6.50215e-05

> <r_epik_State_Penalty>
-0

> <r_epik_Charging_Adjusted_Penalty>
0

> <i_epik_Tot_Q>
0

> <i_epik_Tot_abs_Q>
0

> <r_epik_Metal_State_Penalty>
-0

> <b_epik_Metal_Only>
0

> <s_lp_Force_Field>
OPLS_2005

> <r_lp_Energy>
11.4086

> <b_lp_Chiralities_Consistent>
1

> <s_lp_Variant>
AV-unprocessed.smi:1192-1

> <Gold.Version>
5.8.1

> <Gold.Id.Protein>
6NUR|6NUR_protein|mol2

> <Gold.PLP.Fitness>
44.9428

> <Gold.PLP.PLP>
-40.2292

> <Gold.PLP.part.hbond>
-2.3863

> <Gold.PLP.part.metal>
0.0000

> <Gold.PLP.part.buried>
-3.6215

> <Gold.PLP.part.nonpolar>
-33.7174

> <Gold.PLP.part.repulsive>
0.0189

> <Gold.PLP.ligand.clash>
0.0000

> <Gold.PLP.ligand.torsion>
0.8631

> <Gold.PLP.Chemscore.Hbond>
1.9913

> <Gold.PLP.Chemscore.CHOScore>
0.0000

> <Gold.PLP.Chemscore.Metal>
0.0000

> <Gold.Chemscore.Hbonds>
donor molecule, donor type, donor heavy atom, donor atom, acceptor molecule, acceptor atom, score
      P1  H  6896  6909       L1    15  1.00
      P1  H  7997  8008       L1     2  1.00

> <Gold.PLP.Chemscore.Internal.Correction>
0.4661

> <Gold.Rescore>
     Score         DG    S(hbond)    S(metal)    S(lipo)     H(rot)  DE(clash)    DE(int)     intcor
     17.00     -17.97       1.97        0.00      97.00       2.12       0.06       0.91       ----

> <Gold.Chemscore.Fitness>
17.0026

> <Gold.Chemscore.DG>
-17.9743

> <Gold.Chemscore.ZeroCoef>
-5.4800

> <Gold.Chemscore.Hbond>
1.9693

> <Gold.Chemscore.Metal>
0.0000

> <Gold.Chemscore.Lipo>
97.0046

> <Gold.Chemscore.Internal_Hbond>
0.0000

> <Gold.Chemscore.DEClash>
0.0605

> <Gold.Chemscore.DEInternal>
0.9112

> <Gold.Chemscore.Rot>
2.1221

> <Gold.Chemscore.Internal.Correction>
   9.000000E+99

> <Gold.Chemscore.Hbonds>
donor molecule, donor type, donor heavy atom, donor atom, acceptor molecule, acceptor atom, score
      P1  H  6896  6909       L1    15  0.98
      P1  H  7997  8008       L1     2  0.88

> <Gold.Chemscore.Hbond.Weighted>
-6.5773

> <Gold.Chemscore.Metal.Weighted>
-0.0000

> <Gold.Chemscore.Lipo.Weighted>
-11.3495

> <Gold.Chemscore.Internal_Hbond.Weighted>
0.0000

> <Gold.Chemscore.DEClash.Weighted>
0.0605

> <Gold.Chemscore.DEInternal.Weighted>
0.9112

> <Gold.Chemscore.Rot.Weighted>
5.4326

> <Gold.Chemscore.Internal.Correction.Weighted>
   9.000000E+99

> <Gold.Protein.RotatedTorsions>
[ 6907 6896 6895 6894 ] final  175.53 input  -60.11 | X-H torsion
[ 7974 7965 7964 7962 ] final -170.99 input  175.53 | X-H torsion
[ 8008 7997 7996 7995 ] final  -36.56 input   59.86 | X-H torsion
[ 10167 10162 10161 10158 ] final -142.34 input  -65.29 | X-H torsion
[ 10718 10713 10712 10709 ] final  118.55 input   66.30 | X-H torsion
[ 10763 10752 10751 10750 ] final    2.75 input  -60.55 | X-H torsion
[ 11005 11000 10999 10996 ] final   51.21 input  -57.11 | X-H torsion

> <Gold.Protein.ActiveResidues>
 VAL166  LYS551  ARG553  GLY616  TRP617  ASP618  TYR619  PRO620  LYS621  CYS622 
 ASP623  PHE694  ASN695  SER759  ASP760  ASP761  ALA762  ILE779  LEU786  VAL792 
 PHE793  MET794  SER795  GLU796  ALA797  LYS798  CYS799  TRP800  GLU811  SER814 

> <Gold.Protein.RotatedAtoms>
  151.7348  133.3319  159.3349 H   0  0  0  0  0  0  0  0  0  0  0  0  # atno 6907 bound_to 6896
  150.7598  134.6331  159.6206 H   0  0  0  0  0  0  0  0  0  0  0  0  # atno 6908 bound_to 6896
  152.3569  134.6930  160.0271 H   0  0  0  0  0  0  0  0  0  0  0  0  # atno 6909 bound_to 6896
  144.7162  140.1989  143.6340 H   0  0  0  0  0  0  0  0  0  0  0  0  # atno 7974 bound_to 7965
  154.4070  140.1627  156.2394 H   0  0  0  0  0  0  0  0  0  0  0  0  # atno 8008 bound_to 7997
  155.9214  140.3421  155.6153 H   0  0  0  0  0  0  0  0  0  0  0  0  # atno 8009 bound_to 7997
  155.7217  140.0769  157.2318 H   0  0  0  0  0  0  0  0  0  0  0  0  # atno 8010 bound_to 7997
  139.8098  143.7718  152.2663 H   0  0  0  0  0  0  0  0  0  0  0  0  # atno 10167 bound_to 10162
  157.6022  131.1049  150.7772 H   0  0  0  0  0  0  0  0  0  0  0  0  # atno 10718 bound_to 10713
  153.2917  135.6949  153.7286 H   0  0  0  0  0  0  0  0  0  0  0  0  # atno 10763 bound_to 10752
  153.6235  135.3423  155.3019 H   0  0  0  0  0  0  0  0  0  0  0  0  # atno 10764 bound_to 10752
  154.8526  135.4392  154.2002 H   0  0  0  0  0  0  0  0  0  0  0  0  # atno 10765 bound_to 10752
  140.0952  134.5155  155.8814 H   0  0  0  0  0  0  0  0  0  0  0  0  # atno 11005 bound_to 11000
  145.8699  139.2266  143.1667 LP  0  0  0  0  0  0  0  0  0  0  0  0  # atno 17320 bound_to 7965
  146.0095  140.8448  142.9978 LP  0  0  0  0  0  0  0  0  0  0  0  0  # atno 17321 bound_to 7965
  139.7864  144.7426  151.0016 LP  0  0  0  0  0  0  0  0  0  0  0  0  # atno 17342 bound_to 10162
  140.7818  143.4488  151.0443 LP  0  0  0  0  0  0  0  0  0  0  0  0  # atno 17343 bound_to 10162
  156.8168  130.4971  149.5348 LP  0  0  0  0  0  0  0  0  0  0  0  0  # atno 17370 bound_to 10713
  156.1099  130.6032  151.0030 LP  0  0  0  0  0  0  0  0  0  0  0  0  # atno 17371 bound_to 10713
  141.2090  133.6679  156.6408 LP  0  0  0  0  0  0  0  0  0  0  0  0  # atno 17394 bound_to 11000
  140.3296  134.7939  157.4316 LP  0  0  0  0  0  0  0  0  0  0  0  0  # atno 17395 bound_to 11000

$$$$
