AV-unprocessed.smi:334|AV-procd|sdf|2366|dock1
  -GOLD-   2262022283D 1   1.00000     0.00000
 Structure written by MMmdl.
 44 46  0  0  0  0  0  0  0  0  3 V2000
  145.1721  136.0832  152.1057 C   0  0  0  0  0  0  0  0  0  0  0  0
  145.6966  134.6395  152.1818 C   0  0  2  0  0  0  0  0  0  0  0  0
  147.0231  134.6219  152.7876 N   0  0  0  0  0  0  0  0  0  0  0  0
  147.4609  133.7513  153.7123 C   0  0  0  0  0  0  0  0  0  0  0  0
  146.7357  132.9025  154.2293 O   0  0  0  0  0  0  0  0  0  0  0  0
  148.9456  133.8157  154.1098 C   0  0  0  0  0  0  0  0  0  0  0  0
  149.5353  132.5156  154.4812 N   0  0  0  0  0  0  0  0  0  0  0  0
  149.0046  131.3693  153.8571 C   0  0  0  0  0  0  0  0  0  0  0  0
  149.4526  130.1298  154.1370 C   0  0  0  0  0  0  0  0  0  0  0  0
  148.8864  128.9630  153.4970 N   0  3  0  0  0  0  0  0  0  0  0  0
  149.2980  127.8546  153.8238 O   0  0  0  0  0  0  0  0  0  0  0  0
  148.0122  129.1148  152.6489 O   0  5  0  0  0  0  0  0  0  0  0  0
  150.5184  130.0022  155.1119 C   0  0  0  0  0  0  0  0  0  0  0  0
  151.0268  131.0939  155.7160 C   0  0  0  0  0  0  0  0  0  0  0  0
  150.5313  132.4411  155.4173 C   0  0  0  0  0  0  0  0  0  0  0  0
  150.9764  133.4403  155.9816 O   0  0  0  0  0  0  0  0  0  0  0  0
  145.7667  133.9728  150.7878 C   0  0  2  0  0  0  0  0  0  0  0  0
  144.4126  133.8690  150.0517 C   0  0  0  0  0  0  0  0  0  0  0  0
  144.3599  132.3875  149.6331 C   0  0  2  0  0  0  0  0  0  0  0  0
  144.0870  131.5214  150.8770 C   0  0  0  0  0  0  0  0  0  0  0  0
  145.4272  131.5808  151.6319 C   0  0  0  0  0  0  0  0  0  0  0  0
  146.2777  132.5093  150.7415 C   0  0  1  0  0  0  0  0  0  0  0  0
  145.8259  132.0805  149.3496 C   0  0  0  0  0  0  0  0  0  0  0  0
  144.1731  136.1178  151.6711 H   0  0  0  0  0  0  0  0  0  0  0  0
  145.8222  136.7106  151.4951 H   0  0  0  0  0  0  0  0  0  0  0  0
  145.1105  136.5337  153.0968 H   0  0  0  0  0  0  0  0  0  0  0  0
  145.0153  134.0652  152.8117 H   0  0  0  0  0  0  0  0  0  0  0  0
  147.6870  135.2911  152.4263 H   0  0  0  0  0  0  0  0  0  0  0  0
  149.4963  134.2588  153.2792 H   0  0  0  0  0  0  0  0  0  0  0  0
  149.0558  134.5263  154.9309 H   0  0  0  0  0  0  0  0  0  0  0  0
  148.2093  131.5703  153.1536 H   0  0  0  0  0  0  0  0  0  0  0  0
  150.9169  129.0304  155.3642 H   0  0  0  0  0  0  0  0  0  0  0  0
  151.8199  130.9755  156.4398 H   0  0  0  0  0  0  0  0  0  0  0  0
  146.4440  134.5661  150.1703 H   0  0  0  0  0  0  0  0  0  0  0  0
  143.5619  134.1416  150.6778 H   0  0  0  0  0  0  0  0  0  0  0  0
  144.4022  134.5231  149.1789 H   0  0  0  0  0  0  0  0  0  0  0  0
  143.6780  132.1909  148.8056 H   0  0  0  0  0  0  0  0  0  0  0  0
  143.2573  131.9032  151.4728 H   0  0  0  0  0  0  0  0  0  0  0  0
  143.8513  130.4946  150.5947 H   0  0  0  0  0  0  0  0  0  0  0  0
  145.3216  131.9393  152.6553 H   0  0  0  0  0  0  0  0  0  0  0  0
  145.8773  130.5885  151.6833 H   0  0  0  0  0  0  0  0  0  0  0  0
  147.3503  132.4137  150.9134 H   0  0  0  0  0  0  0  0  0  0  0  0
  146.0149  131.0268  149.1370 H   0  0  0  0  0  0  0  0  0  0  0  0
  146.2489  132.6885  148.5479 H   0  0  0  0  0  0  0  0  0  0  0  0
  1  2  1  0  0  0  0
  1 24  1  0  0  0  0
  1 25  1  0  0  0  0
  1 26  1  0  0  0  0
  2  3  1  0  0  0  0
  2 17  1  0  0  0  0
  2 27  1  0  0  0  0
  3  4  1  0  0  0  0
  3 28  1  0  0  0  0
  4  5  2  0  0  0  0
  4  6  1  0  0  0  0
  6  7  1  0  0  0  0
  6 29  1  0  0  0  0
  6 30  1  0  0  0  0
  7 15  1  0  0  0  0
  7  8  1  0  0  0  0
  8  9  2  0  0  0  0
  8 31  1  0  0  0  0
  9 10  1  0  0  0  0
  9 13  1  0  0  0  0
 10 11  2  0  0  0  0
 10 12  1  0  0  0  0
 13 14  2  0  0  0  0
 13 32  1  0  0  0  0
 14 15  1  0  0  0  0
 14 33  1  0  0  0  0
 15 16  2  0  0  0  0
 17 22  1  0  0  0  0
 17 18  1  0  0  0  0
 17 34  1  0  0  0  0
 18 19  1  0  0  0  0
 18 35  1  0  0  0  0
 18 36  1  0  0  0  0
 19 23  1  0  0  0  0
 19 20  1  0  0  0  0
 19 37  1  0  0  0  0
 20 21  1  0  0  0  0
 20 38  1  0  0  0  0
 20 39  1  0  0  0  0
 21 22  1  0  0  0  0
 21 40  1  0  0  0  0
 21 41  1  0  0  0  0
 22 23  1  0  0  0  0
 22 42  1  0  0  0  0
 23 43  1  0  0  0  0
 23 44  1  0  0  0  0
M  CHG  1  10   1
M  CHG  1  12  -1
M  END
> <s_m_source_file>
AV-unprocessed.smi

> <i_m_source_file_index>
334

> <i_lp_mmshare_version>
43012

> <i_f3d_flags>
0

> <s_epik_input>
W0NIMl0xW0NIMl1bQ0BIXShbQ0gyXTIpW0NAQEhdKFtDSDJdW0NAQEhdMTIpW0NASF0oW0NIM10pW05IXUMoPU8pW0NIMl1uM1tjSF1jKFtOK10oPU8pW08tXSlbY0hdW2NIXWMzPU8=

> <s_epik_cmdline>
J2VwaWtfcHl0aG9uJywgJy1waCcsICc3LjAnLCAnLXRuJywgJzgnLCAnLW1hJywgJzIwMCcsICctbWV0YWxfYmluZGluZycsICctaW1hZScsICc8aW5maWxlLm1hZT4nLCAnLW9tYWUnLCAnPG91dGZpbGUubWFlPic=

> <r_lp_tautomer_probability>
1

> <r_epik_Ionization_Penalty>
2.17081e-08

> <r_epik_Ionization_Penalty_Charging>
8.1195e-11

> <r_epik_Ionization_Penalty_Neutral>
2.16269e-08

> <r_epik_State_Penalty>
-0

> <r_epik_Charging_Adjusted_Penalty>
8.1195e-11

> <i_epik_Tot_Q>
0

> <i_epik_Tot_abs_Q>
2

> <r_epik_Metal_State_Penalty>
-0

> <b_epik_Metal_Only>
0

> <s_lp_Force_Field>
OPLS_2005

> <r_lp_Energy>
61.6433

> <b_lp_Chiralities_Consistent>
1

> <s_lp_Variant>
AV-unprocessed.smi:334-5

> <Gold.Version>
5.8.1

> <Gold.Id.Protein>
6NUR|6NUR_protein|mol2

> <Gold.PLP.Fitness>
44.4076

> <Gold.PLP.PLP>
-43.3823

> <Gold.PLP.part.hbond>
-1.0000

> <Gold.PLP.part.metal>
0.0000

> <Gold.PLP.part.buried>
-3.5551

> <Gold.PLP.part.nonpolar>
-38.2054

> <Gold.PLP.part.repulsive>
1.0568

> <Gold.PLP.ligand.clash>
0.0000

> <Gold.PLP.ligand.torsion>
1.0018

> <Gold.PLP.Chemscore.Hbond>
1.0000

> <Gold.PLP.Chemscore.CHOScore>
0.0000

> <Gold.PLP.Chemscore.Metal>
0.0000

> <Gold.Chemscore.Hbonds>
donor molecule, donor type, donor heavy atom, donor atom, acceptor molecule, acceptor atom, score
      L1  H     3    28       P1  7948  1.00

> <Gold.PLP.Chemscore.Internal.Correction>
0.0288

> <Gold.Rescore>
     Score         DG    S(hbond)    S(metal)    S(lipo)     H(rot)  DE(clash)    DE(int)     intcor
     13.70     -16.15       1.00        0.00     100.96       1.75       0.04       2.42       ----

> <Gold.Chemscore.Fitness>
13.6999

> <Gold.Chemscore.DG>
-16.1517

> <Gold.Chemscore.ZeroCoef>
-5.4800

> <Gold.Chemscore.Hbond>
0.9979

> <Gold.Chemscore.Metal>
0.0000

> <Gold.Chemscore.Lipo>
100.9577

> <Gold.Chemscore.Internal_Hbond>
0.0000

> <Gold.Chemscore.DEClash>
0.0350

> <Gold.Chemscore.DEInternal>
2.4168

> <Gold.Chemscore.Rot>
1.7474

> <Gold.Chemscore.Internal.Correction>
   9.000000E+99

> <Gold.Chemscore.Hbonds>
donor molecule, donor type, donor heavy atom, donor atom, acceptor molecule, acceptor atom, score
      L1  H     3    28       P1  7948  0.99

> <Gold.Chemscore.Hbond.Weighted>
-3.3330

> <Gold.Chemscore.Metal.Weighted>
-0.0000

> <Gold.Chemscore.Lipo.Weighted>
-11.8120

> <Gold.Chemscore.Internal_Hbond.Weighted>
0.0000

> <Gold.Chemscore.DEClash.Weighted>
0.0350

> <Gold.Chemscore.DEInternal.Weighted>
2.4168

> <Gold.Chemscore.Rot.Weighted>
4.4733

> <Gold.Chemscore.Internal.Correction.Weighted>
   9.000000E+99

> <Gold.Protein.RotatedTorsions>
[ 6907 6896 6895 6894 ] final    3.12 input  -60.11 | X-H torsion
[ 7974 7965 7964 7962 ] final -110.16 input  175.53 | X-H torsion
[ 8008 7997 7996 7995 ] final   65.70 input   59.86 | X-H torsion
[ 10167 10162 10161 10158 ] final  -81.51 input  -65.29 | X-H torsion
[ 10718 10713 10712 10709 ] final  176.81 input   66.30 | X-H torsion
[ 10763 10752 10751 10750 ] final  164.75 input  -60.55 | X-H torsion
[ 11005 11000 10999 10996 ] final  164.48 input  -57.11 | X-H torsion

> <Gold.Protein.ActiveResidues>
 VAL166  LYS551  ARG553  GLY616  TRP617  ASP618  TYR619  PRO620  LYS621  CYS622 
 ASP623  PHE694  ASN695  SER759  ASP760  ASP761  ALA762  ILE779  LEU786  VAL792 
 PHE793  MET794  SER795  GLU796  ALA797  LYS798  CYS799  TRP800  GLU811  SER814 

> <Gold.Protein.RotatedAtoms>
  151.6199  135.1033  160.0099 H   0  0  0  0  0  0  0  0  0  0  0  0  # atno 6907 bound_to 6896
  152.4163  133.7039  159.6450 H   0  0  0  0  0  0  0  0  0  0  0  0  # atno 6908 bound_to 6896
  150.8051  133.8451  159.3231 H   0  0  0  0  0  0  0  0  0  0  0  0  # atno 6909 bound_to 6896
  145.1716  140.8928  143.3532 H   0  0  0  0  0  0  0  0  0  0  0  0  # atno 7974 bound_to 7965
  155.6659  140.3497  155.4800 H   0  0  0  0  0  0  0  0  0  0  0  0  # atno 8008 bound_to 7997
  155.9729  140.1159  157.0819 H   0  0  0  0  0  0  0  0  0  0  0  0  # atno 8009 bound_to 7997
  154.4171  140.1153  156.5317 H   0  0  0  0  0  0  0  0  0  0  0  0  # atno 8010 bound_to 7997
  140.4405  143.2516  151.8632 H   0  0  0  0  0  0  0  0  0  0  0  0  # atno 10167 bound_to 10162
  156.9147  130.9921  151.3015 H   0  0  0  0  0  0  0  0  0  0  0  0  # atno 10718 bound_to 10713
  154.3136  135.2757  155.2554 H   0  0  0  0  0  0  0  0  0  0  0  0  # atno 10763 bound_to 10752
  154.4938  135.5826  153.6483 H   0  0  0  0  0  0  0  0  0  0  0  0  # atno 10764 bound_to 10752
  152.9885  135.6141  154.3315 H   0  0  0  0  0  0  0  0  0  0  0  0  # atno 10765 bound_to 10752
  140.2463  134.8012  157.3459 H   0  0  0  0  0  0  0  0  0  0  0  0  # atno 11005 bound_to 11000
  145.0227  139.3410  143.6064 LP  0  0  0  0  0  0  0  0  0  0  0  0  # atno 17320 bound_to 7965
  146.3467  139.9534  142.8726 LP  0  0  0  0  0  0  0  0  0  0  0  0  # atno 17321 bound_to 7965
  139.4789  144.5234  151.8769 LP  0  0  0  0  0  0  0  0  0  0  0  0  # atno 17342 bound_to 10162
  140.4323  144.2098  150.5888 LP  0  0  0  0  0  0  0  0  0  0  0  0  # atno 17343 bound_to 10162
  157.5946  130.8468  149.8709 LP  0  0  0  0  0  0  0  0  0  0  0  0  # atno 17370 bound_to 10713
  156.0519  130.3716  150.1181 LP  0  0  0  0  0  0  0  0  0  0  0  0  # atno 17371 bound_to 10713
  140.1602  134.4738  155.7900 LP  0  0  0  0  0  0  0  0  0  0  0  0  # atno 17394 bound_to 11000
  141.2206  133.6898  156.7531 LP  0  0  0  0  0  0  0  0  0  0  0  0  # atno 17395 bound_to 11000

$$$$
