AV-unprocessed.smi:930|AV-procd|sdf|4196|dock1
  -GOLD-   22720 2103D 1   1.00000     0.00000
 Structure written by MMmdl.
 32 33  0  0  0  0  0  0  0  0  1 V2000
  147.0929  138.7407  152.6696 C   0  0  0  0  0  0  0  0  0  0  0  0
  148.0317  139.5655  153.4823 C   0  0  0  0  0  0  0  0  0  0  0  0
  149.3063  139.2166  153.6958 N   0  0  0  0  0  0  0  0  0  0  0  0
  149.9804  140.1416  154.4806 N   0  0  0  0  0  0  0  0  0  0  0  0
  149.1909  141.1636  154.8383 C   0  0  0  0  0  0  0  0  0  0  0  0
  149.6231  142.2509  155.6430 N   0  0  0  0  0  0  0  0  0  0  0  0
  150.5655  142.2551  156.6021 C   0  0  0  0  0  0  0  0  0  0  0  0
  151.2313  141.2797  156.9507 O   0  0  0  0  0  0  0  0  0  0  0  0
  150.6969  143.4733  157.1471 N   0  0  0  0  0  0  0  0  0  0  0  0
  151.6339  143.8242  158.2105 C   0  0  0  0  0  0  0  0  0  0  0  0
  151.7155  142.6964  159.2608 C   0  0  0  0  0  0  0  0  0  0  0  0
  152.6408  143.0802  160.4269 C   0  0  0  0  0  0  0  0  0  0  0  0
  152.2038  144.4037  161.0736 C   0  0  0  0  0  0  0  0  0  0  0  0
  152.1255  145.5305  160.0316 C   0  0  0  0  0  0  0  0  0  0  0  0
  151.1994  145.1492  158.8652 C   0  0  0  0  0  0  0  0  0  0  0  0
  147.5436  141.0773  154.2380 S   0  0  0  0  0  0  0  0  0  0  0  0
  147.6131  137.8934  152.2216 H   0  0  0  0  0  0  0  0  0  0  0  0
  146.6603  139.3454  151.8725 H   0  0  0  0  0  0  0  0  0  0  0  0
  146.2881  138.3630  153.3001 H   0  0  0  0  0  0  0  0  0  0  0  0
  149.1603  143.1301  155.4667 H   0  0  0  0  0  0  0  0  0  0  0  0
  150.1076  144.2158  156.7999 H   0  0  0  0  0  0  0  0  0  0  0  0
  152.6239  143.9723  157.7747 H   0  0  0  0  0  0  0  0  0  0  0  0
  150.7188  142.4795  159.6478 H   0  0  0  0  0  0  0  0  0  0  0  0
  152.0747  141.7752  158.8003 H   0  0  0  0  0  0  0  0  0  0  0  0
  152.6466  142.2857  161.1735 H   0  0  0  0  0  0  0  0  0  0  0  0
  153.6657  143.1711  160.0645 H   0  0  0  0  0  0  0  0  0  0  0  0
  151.2301  144.2749  161.5482 H   0  0  0  0  0  0  0  0  0  0  0  0
  152.9005  144.6781  161.8661 H   0  0  0  0  0  0  0  0  0  0  0  0
  151.7720  146.4483  160.5022 H   0  0  0  0  0  0  0  0  0  0  0  0
  153.1244  145.7441  159.6490 H   0  0  0  0  0  0  0  0  0  0  0  0
  151.1963  145.9494  158.1241 H   0  0  0  0  0  0  0  0  0  0  0  0
  150.1751  145.0635  159.2315 H   0  0  0  0  0  0  0  0  0  0  0  0
  1  2  1  0  0  0  0
  1 17  1  0  0  0  0
  1 18  1  0  0  0  0
  1 19  1  0  0  0  0
  2 16  1  0  0  0  0
  2  3  2  0  0  0  0
  3  4  1  0  0  0  0
  4  5  2  0  0  0  0
  5  6  1  0  0  0  0
  5 16  1  0  0  0  0
  6  7  1  0  0  0  0
  6 20  1  0  0  0  0
  7  8  2  0  0  0  0
  7  9  1  0  0  0  0
  9 10  1  0  0  0  0
  9 21  1  0  0  0  0
 10 15  1  0  0  0  0
 10 11  1  0  0  0  0
 10 22  1  0  0  0  0
 11 12  1  0  0  0  0
 11 23  1  0  0  0  0
 11 24  1  0  0  0  0
 12 13  1  0  0  0  0
 12 25  1  0  0  0  0
 12 26  1  0  0  0  0
 13 14  1  0  0  0  0
 13 27  1  0  0  0  0
 13 28  1  0  0  0  0
 14 15  1  0  0  0  0
 14 29  1  0  0  0  0
 14 30  1  0  0  0  0
 15 31  1  0  0  0  0
 15 32  1  0  0  0  0
M  END
> <s_m_source_file>
AV-unprocessed.smi

> <i_m_source_file_index>
930

> <i_lp_mmshare_version>
43012

> <i_f3d_flags>
0

> <s_epik_input>
W0NIM11jMW5uYyhzMSlbTkhdQyg9TylbTkhdW0NIXTJbQ0gyXVtDSDJdW0NIMl1bQ0gyXVtDSDJdMg==

> <s_epik_cmdline>
J2VwaWtfcHl0aG9uJywgJy1waCcsICc3LjAnLCAnLXRuJywgJzgnLCAnLW1hJywgJzIwMCcsICctbWV0YWxfYmluZGluZycsICctaW1hZScsICc8aW5maWxlLm1hZT4nLCAnLW9tYWUnLCAnPG91dGZpbGUubWFlPic=

> <r_lp_tautomer_probability>
1

> <r_epik_Ionization_Penalty>
0.000369052

> <r_epik_Ionization_Penalty_Charging>
0

> <r_epik_Ionization_Penalty_Neutral>
0.000369052

> <r_epik_State_Penalty>
-0

> <r_epik_Charging_Adjusted_Penalty>
0

> <i_epik_Tot_Q>
0

> <i_epik_Tot_abs_Q>
0

> <r_epik_Metal_State_Penalty>
0.185018

> <b_epik_Metal_Only>
0

> <s_lp_Force_Field>
OPLS_2005

> <r_lp_Energy>
7.80656

> <b_lp_Chiralities_Consistent>
1

> <s_lp_Variant>
AV-unprocessed.smi:930-1

> <Gold.Version>
5.8.1

> <Gold.Id.Protein>
6NUR|6NUR_protein|mol2

> <Gold.PLP.Fitness>
41.9638

> <Gold.PLP.PLP>
-33.8822

> <Gold.PLP.part.hbond>
-3.0000

> <Gold.PLP.part.metal>
0.0000

> <Gold.PLP.part.buried>
-2.4446

> <Gold.PLP.part.nonpolar>
-30.7867

> <Gold.PLP.part.repulsive>
3.4672

> <Gold.PLP.ligand.clash>
0.0000

> <Gold.PLP.ligand.torsion>
0.4488

> <Gold.PLP.Chemscore.Hbond>
2.9920

> <Gold.PLP.Chemscore.CHOScore>
0.0000

> <Gold.PLP.Chemscore.Metal>
0.0000

> <Gold.Chemscore.Hbonds>
donor molecule, donor type, donor heavy atom, donor atom, acceptor molecule, acceptor atom, score
      L1  H     6    20       P1  8028  1.00
      L1  H     9    21       P1  8028  0.99
      P1  H  7989  7998       L1     4  0.96

> <Gold.PLP.Chemscore.Internal.Correction>
0.0033

> <Gold.Rescore>
     Score         DG    S(hbond)    S(metal)    S(lipo)     H(rot)  DE(clash)    DE(int)     intcor
     18.03     -22.43       2.72        0.00      89.22       1.00       2.35       2.06       ----

> <Gold.Chemscore.Fitness>
18.0267

> <Gold.Chemscore.DG>
-22.4342

> <Gold.Chemscore.ZeroCoef>
-5.4800

> <Gold.Chemscore.Hbond>
2.7173

> <Gold.Chemscore.Metal>
0.0000

> <Gold.Chemscore.Lipo>
89.2166

> <Gold.Chemscore.Internal_Hbond>
0.0000

> <Gold.Chemscore.DEClash>
2.3457

> <Gold.Chemscore.DEInternal>
2.0617

> <Gold.Chemscore.Rot>
1.0000

> <Gold.Chemscore.Internal.Correction>
   9.000000E+99

> <Gold.Chemscore.Hbonds>
donor molecule, donor type, donor heavy atom, donor atom, acceptor molecule, acceptor atom, score
      L1  H     6    20       P1  8028  0.98
      L1  H     9    21       P1  8028  0.89
      P1  H  7989  7998       L1     4  0.45

> <Gold.Chemscore.Hbond.Weighted>
-9.0758

> <Gold.Chemscore.Metal.Weighted>
-0.0000

> <Gold.Chemscore.Lipo.Weighted>
-10.4383

> <Gold.Chemscore.Internal_Hbond.Weighted>
0.0000

> <Gold.Chemscore.DEClash.Weighted>
2.3457

> <Gold.Chemscore.DEInternal.Weighted>
2.0617

> <Gold.Chemscore.Rot.Weighted>
2.5600

> <Gold.Chemscore.Internal.Correction.Weighted>
   9.000000E+99

> <Gold.Protein.RotatedTorsions>
[ 6907 6896 6895 6894 ] final   -7.31 input  -60.11 | X-H torsion
[ 7974 7965 7964 7962 ] final  -78.01 input  175.53 | X-H torsion
[ 8008 7997 7996 7995 ] final   40.73 input   59.86 | X-H torsion
[ 10167 10162 10161 10158 ] final  101.41 input  -65.29 | X-H torsion
[ 10718 10713 10712 10709 ] final   99.38 input   66.30 | X-H torsion
[ 10763 10752 10751 10750 ] final  125.06 input  -60.55 | X-H torsion
[ 11005 11000 10999 10996 ] final  -95.05 input  -57.11 | X-H torsion

> <Gold.Protein.ActiveResidues>
 VAL166  LYS551  ARG553  GLY616  TRP617  ASP618  TYR619  PRO620  LYS621  CYS622 
 ASP623  PHE694  ASN695  SER759  ASP760  ASP761  ALA762  ILE779  LEU786  VAL792 
 PHE793  MET794  SER795  GLU796  ALA797  LYS798  CYS799  TRP800  GLU811  SER814 

> <Gold.Protein.RotatedAtoms>
  151.4516  135.1030  159.9698 H   0  0  0  0  0  0  0  0  0  0  0  0  # atno 6907 bound_to 6896
  152.4886  133.8435  159.7175 H   0  0  0  0  0  0  0  0  0  0  0  0  # atno 6908 bound_to 6896
  150.9018  133.7049  159.2904 H   0  0  0  0  0  0  0  0  0  0  0  0  # atno 6909 bound_to 6896
  145.5922  140.9427  143.1286 H   0  0  0  0  0  0  0  0  0  0  0  0  # atno 7974 bound_to 7965
  155.2579  140.3357  155.4276 H   0  0  0  0  0  0  0  0  0  0  0  0  # atno 8008 bound_to 7997
  156.2187  140.1800  156.7570 H   0  0  0  0  0  0  0  0  0  0  0  0  # atno 8009 bound_to 7997
  154.5793  140.0656  156.9065 H   0  0  0  0  0  0  0  0  0  0  0  0  # atno 8010 bound_to 7997
  139.7440  144.7003  151.0532 H   0  0  0  0  0  0  0  0  0  0  0  0  # atno 10167 bound_to 10162
  157.6877  131.0668  150.4939 H   0  0  0  0  0  0  0  0  0  0  0  0  # atno 10718 bound_to 10713
  153.6713  135.3330  155.3154 H   0  0  0  0  0  0  0  0  0  0  0  0  # atno 10763 bound_to 10752
  154.8490  135.4387  154.1702 H   0  0  0  0  0  0  0  0  0  0  0  0  # atno 10764 bound_to 10752
  153.2694  135.6999  153.7572 H   0  0  0  0  0  0  0  0  0  0  0  0  # atno 10765 bound_to 10752
  141.1453  133.7999  157.0382 H   0  0  0  0  0  0  0  0  0  0  0  0  # atno 11005 bound_to 11000
  144.7346  139.7623  143.7334 LP  0  0  0  0  0  0  0  0  0  0  0  0  # atno 17320 bound_to 7965
  146.1639  139.4763  142.9971 LP  0  0  0  0  0  0  0  0  0  0  0  0  # atno 17321 bound_to 7965
  140.7790  143.4889  150.9919 LP  0  0  0  0  0  0  0  0  0  0  0  0  # atno 17342 bound_to 10162
  139.8577  143.7355  152.3175 LP  0  0  0  0  0  0  0  0  0  0  0  0  # atno 17343 bound_to 10162
  156.5264  130.4174  149.6224 LP  0  0  0  0  0  0  0  0  0  0  0  0  # atno 17370 bound_to 10713
  156.3108  130.7228  151.2120 LP  0  0  0  0  0  0  0  0  0  0  0  0  # atno 17371 bound_to 10713
  140.0710  134.9702  157.1467 LP  0  0  0  0  0  0  0  0  0  0  0  0  # atno 17394 bound_to 11000
  140.3711  134.2389  155.7178 LP  0  0  0  0  0  0  0  0  0  0  0  0  # atno 17395 bound_to 11000

$$$$
