AV-unprocessed.smi:870|AV-procd|sdf|4010|dock4
  -GOLD-   22720 1503D 1   1.00000     0.00000
 Structure written by MMmdl.
 47 49  0  0  0  0  0  0  0  0  2 V2000
  147.4584  141.2939  154.2911 C   0  0  0  0  0  0  0  0  0  0  0  0
  148.3077  141.5270  155.4011 O   0  0  0  0  0  0  0  0  0  0  0  0
  149.6772  141.3342  155.0865 C   0  0  0  0  0  0  0  0  0  0  0  0
  150.5747  141.8221  156.1764 C   0  0  0  0  0  0  0  0  0  0  0  0
  150.6210  143.0918  156.6706 N   0  3  0  0  0  0  0  0  0  0  0  0
  151.5790  143.1717  157.6821 C   0  0  0  0  0  0  0  0  0  0  0  0
  151.9819  144.2419  158.4748 C   0  0  0  0  0  0  0  0  0  0  0  0
  152.9930  143.9813  159.4230 C   0  0  0  0  0  0  0  0  0  0  0  0
  153.5632  142.6982  159.5550 C   0  0  0  0  0  0  0  0  0  0  0  0
  153.1468  141.6210  158.7450 C   0  0  0  0  0  0  0  0  0  0  0  0
  152.1463  141.8876  157.8110 C   0  0  0  0  0  0  0  0  0  0  0  0
  151.4966  141.0888  156.8643 N   0  0  0  0  0  0  0  0  0  0  0  0
  151.8645  139.6691  156.7493 C   0  0  0  0  0  0  0  0  0  0  0  0
  151.7915  139.1452  155.3008 C   0  0  1  0  0  0  0  0  0  0  0  0
  152.9629  139.5367  154.6124 O   0  0  0  0  0  0  0  0  0  0  0  0
  151.6857  137.6134  155.2516 C   0  0  0  0  0  0  0  0  0  0  0  0
  150.6848  137.1977  156.1709 O   0  0  0  0  0  0  0  0  0  0  0  0
  150.3255  135.8656  156.1965 C   0  0  0  0  0  0  0  0  0  0  0  0
  150.4689  134.9896  155.0898 C   0  0  0  0  0  0  0  0  0  0  0  0
  150.0793  133.6404  155.1896 C   0  0  0  0  0  0  0  0  0  0  0  0
  149.5434  133.1478  156.3925 C   0  0  0  0  0  0  0  0  0  0  0  0
  149.3980  134.0062  157.4971 C   0  0  0  0  0  0  0  0  0  0  0  0
  149.7865  135.3593  157.4025 C   0  0  0  0  0  0  0  0  0  0  0  0
  149.6214  136.2715  158.6038 C   0  0  0  0  0  0  0  0  0  0  0  0
  146.4197  141.4448  154.5856 H   0  0  0  0  0  0  0  0  0  0  0  0
  147.5590  140.2715  153.9244 H   0  0  0  0  0  0  0  0  0  0  0  0
  147.6801  141.9818  153.4743 H   0  0  0  0  0  0  0  0  0  0  0  0
  149.8732  140.2743  154.9190 H   0  0  0  0  0  0  0  0  0  0  0  0
  149.9266  141.8646  154.1662 H   0  0  0  0  0  0  0  0  0  0  0  0
  151.5466  145.2255  158.3755 H   0  0  0  0  0  0  0  0  0  0  0  0
  153.3379  144.7811  160.0622 H   0  0  0  0  0  0  0  0  0  0  0  0
  154.3355  142.5360  160.2930 H   0  0  0  0  0  0  0  0  0  0  0  0
  153.5882  140.6414  158.8545 H   0  0  0  0  0  0  0  0  0  0  0  0
  152.8751  139.5538  157.1430 H   0  0  0  0  0  0  0  0  0  0  0  0
  151.2130  139.0923  157.4072 H   0  0  0  0  0  0  0  0  0  0  0  0
  150.9279  139.5863  154.8018 H   0  0  0  0  0  0  0  0  0  0  0  0
  152.8417  139.3570  153.6922 H   0  0  0  0  0  0  0  0  0  0  0  0
  151.4714  137.2729  154.2369 H   0  0  0  0  0  0  0  0  0  0  0  0
  152.6376  137.1766  155.5581 H   0  0  0  0  0  0  0  0  0  0  0  0
  150.8770  135.3276  154.1495 H   0  0  0  0  0  0  0  0  0  0  0  0
  150.1927  132.9822  154.3409 H   0  0  0  0  0  0  0  0  0  0  0  0
  149.2448  132.1124  156.4686 H   0  0  0  0  0  0  0  0  0  0  0  0
  148.9859  133.6206  158.4182 H   0  0  0  0  0  0  0  0  0  0  0  0
  149.1784  135.7431  159.4484 H   0  0  0  0  0  0  0  0  0  0  0  0
  148.9748  137.1133  158.3550 H   0  0  0  0  0  0  0  0  0  0  0  0
  150.5896  136.6618  158.9183 H   0  0  0  0  0  0  0  0  0  0  0  0
  150.0338  143.8450  156.3361 H   0  0  0  0  0  0  0  0  0  0  0  0
  1  2  1  0  0  0  0
  1 25  1  0  0  0  0
  1 26  1  0  0  0  0
  1 27  1  0  0  0  0
  2  3  1  0  0  0  0
  3  4  1  0  0  0  0
  3 28  1  0  0  0  0
  3 29  1  0  0  0  0
  4 12  1  0  0  0  0
  4  5  2  0  0  0  0
  5  6  1  0  0  0  0
  5 47  1  0  0  0  0
  6 11  2  0  0  0  0
  6  7  1  0  0  0  0
  7  8  2  0  0  0  0
  7 30  1  0  0  0  0
  8  9  1  0  0  0  0
  8 31  1  0  0  0  0
  9 10  2  0  0  0  0
  9 32  1  0  0  0  0
 10 11  1  0  0  0  0
 10 33  1  0  0  0  0
 11 12  1  0  0  0  0
 12 13  1  0  0  0  0
 13 14  1  0  0  0  0
 13 34  1  0  0  0  0
 13 35  1  0  0  0  0
 14 15  1  0  0  0  0
 14 16  1  0  0  0  0
 14 36  1  0  0  0  0
 15 37  1  0  0  0  0
 16 17  1  0  0  0  0
 16 38  1  0  0  0  0
 16 39  1  0  0  0  0
 17 18  1  0  0  0  0
 18 23  1  0  0  0  0
 18 19  2  0  0  0  0
 19 20  1  0  0  0  0
 19 40  1  0  0  0  0
 20 21  2  0  0  0  0
 20 41  1  0  0  0  0
 21 22  1  0  0  0  0
 21 42  1  0  0  0  0
 22 23  2  0  0  0  0
 22 43  1  0  0  0  0
 23 24  1  0  0  0  0
 24 44  1  0  0  0  0
 24 45  1  0  0  0  0
 24 46  1  0  0  0  0
M  CHG  1   5   1
M  END
> <s_m_source_file>
AV-unprocessed.smi

> <i_m_source_file_index>
870

> <i_lp_mmshare_version>
43012

> <i_f3d_flags>
0

> <s_epik_input>
W2NIXTFbY0hdW2NIXVtjSF1jKGMxMiluKGMobjIpW0NIMl1PW0NIM10pW0NIMl1bQ0BIXShbT0hdKVtDSDJdT2MzW2NIXVtjSF1bY0hdW2NIXWMzW0NIM10=

> <s_epik_cmdline>
J2VwaWtfcHl0aG9uJywgJy1waCcsICc3LjAnLCAnLXRuJywgJzgnLCAnLW1hJywgJzIwMCcsICctbWV0YWxfYmluZGluZycsICctaW1hZScsICc8aW5maWxlLm1hZT4nLCAnLW9tYWUnLCAnPG91dGZpbGUubWFlPic=

> <r_lp_tautomer_probability>
1

> <r_epik_Ionization_Penalty>
1.55338

> <r_epik_Ionization_Penalty_Charging>
1.55338

> <r_epik_Ionization_Penalty_Neutral>
2.3993e-06

> <r_epik_State_Penalty>
1.64778

> <r_epik_Charging_Adjusted_Penalty>
3.20115

> <i_epik_Tot_Q>
1

> <i_epik_Tot_abs_Q>
1

> <r_epik_Metal_State_Penalty>
5.70266

> <b_epik_Metal_Only>
0

> <s_lp_Force_Field>
OPLS_2005

> <r_lp_Energy>
19.1039

> <b_lp_Chiralities_Consistent>
1

> <s_lp_Variant>
AV-unprocessed.smi:870-4

> <Gold.Version>
5.8.1

> <Gold.Id.Protein>
6NUR|6NUR_protein|mol2

> <Gold.PLP.Fitness>
55.5124

> <Gold.PLP.PLP>
-48.4748

> <Gold.PLP.part.hbond>
-3.0000

> <Gold.PLP.part.metal>
0.0000

> <Gold.PLP.part.buried>
-6.6351

> <Gold.PLP.part.nonpolar>
-39.1536

> <Gold.PLP.part.repulsive>
0.4111

> <Gold.PLP.ligand.clash>
0.0000

> <Gold.PLP.ligand.torsion>
1.0129

> <Gold.PLP.Chemscore.Hbond>
3.0000

> <Gold.PLP.Chemscore.CHOScore>
0.0000

> <Gold.PLP.Chemscore.Metal>
0.0000

> <Gold.Chemscore.Hbonds>
donor molecule, donor type, donor heavy atom, donor atom, acceptor molecule, acceptor atom, score
      L1  H     5    47       P1  8028  2.00
      P1  H  7997  8008       L1    15  0.91

> <Gold.PLP.Chemscore.Internal.Correction>
0.0633

> <Gold.Rescore>
     Score         DG    S(hbond)    S(metal)    S(lipo)     H(rot)  DE(clash)    DE(int)     intcor
     20.04     -20.98       1.98        0.00     129.69       2.45       0.05       0.89       ----

> <Gold.Chemscore.Fitness>
20.0425

> <Gold.Chemscore.DG>
-20.9812

> <Gold.Chemscore.ZeroCoef>
-5.4800

> <Gold.Chemscore.Hbond>
1.9755

> <Gold.Chemscore.Metal>
0.0000

> <Gold.Chemscore.Lipo>
129.6866

> <Gold.Chemscore.Internal_Hbond>
0.0000

> <Gold.Chemscore.DEClash>
0.0457

> <Gold.Chemscore.DEInternal>
0.8929

> <Gold.Chemscore.Rot>
2.4494

> <Gold.Chemscore.Internal.Correction>
   9.000000E+99

> <Gold.Chemscore.Hbonds>
donor molecule, donor type, donor heavy atom, donor atom, acceptor molecule, acceptor atom, score
      L1  H     5    47       P1  8028  0.98
      P1  H  7997  8008       L1    15  0.76

> <Gold.Chemscore.Hbond.Weighted>
-6.5983

> <Gold.Chemscore.Metal.Weighted>
-0.0000

> <Gold.Chemscore.Lipo.Weighted>
-15.1733

> <Gold.Chemscore.Internal_Hbond.Weighted>
0.0000

> <Gold.Chemscore.DEClash.Weighted>
0.0457

> <Gold.Chemscore.DEInternal.Weighted>
0.8929

> <Gold.Chemscore.Rot.Weighted>
6.2704

> <Gold.Chemscore.Internal.Correction.Weighted>
   9.000000E+99

> <Gold.Protein.RotatedTorsions>
[ 6907 6896 6895 6894 ] final  -18.47 input  -60.11 | X-H torsion
[ 7974 7965 7964 7962 ] final  179.79 input  175.53 | X-H torsion
[ 8008 7997 7996 7995 ] final  -15.22 input   59.86 | X-H torsion
[ 10167 10162 10161 10158 ] final  -35.33 input  -65.29 | X-H torsion
[ 10718 10713 10712 10709 ] final -156.13 input   66.30 | X-H torsion
[ 10763 10752 10751 10750 ] final  -62.78 input  -60.55 | X-H torsion
[ 11005 11000 10999 10996 ] final   31.52 input  -57.11 | X-H torsion

> <Gold.Protein.ActiveResidues>
 VAL166  LYS551  ARG553  GLY616  TRP617  ASP618  TYR619  PRO620  LYS621  CYS622 
 ASP623  PHE694  ASN695  SER759  ASP760  ASP761  ALA762  ILE779  LEU786  VAL792 
 PHE793  MET794  SER795  GLU796  ALA797  LYS798  CYS799  TRP800  GLU811  SER814 

> <Gold.Protein.RotatedAtoms>
  151.2777  135.0704  159.9157 H   0  0  0  0  0  0  0  0  0  0  0  0  # atno 6907 bound_to 6896
  152.5339  134.0063  159.7928 H   0  0  0  0  0  0  0  0  0  0  0  0  # atno 6908 bound_to 6896
  151.0312  133.5738  159.2691 H   0  0  0  0  0  0  0  0  0  0  0  0  # atno 6909 bound_to 6896
  144.7142  140.0601  143.6433 H   0  0  0  0  0  0  0  0  0  0  0  0  # atno 7974 bound_to 7965
  154.5147  140.2202  155.9088 H   0  0  0  0  0  0  0  0  0  0  0  0  # atno 8008 bound_to 7997
  156.1594  140.3145  155.8747 H   0  0  0  0  0  0  0  0  0  0  0  0  # atno 8009 bound_to 7997
  155.3781  140.0470  157.3035 H   0  0  0  0  0  0  0  0  0  0  0  0  # atno 8010 bound_to 7997
  140.7167  143.3485  151.2206 H   0  0  0  0  0  0  0  0  0  0  0  0  # atno 10167 bound_to 10162
  156.5223  130.8483  151.2686 H   0  0  0  0  0  0  0  0  0  0  0  0  # atno 10718 bound_to 10713
  154.3050  135.6227  153.5441 H   0  0  0  0  0  0  0  0  0  0  0  0  # atno 10763 bound_to 10752
  152.9836  135.5687  154.5241 H   0  0  0  0  0  0  0  0  0  0  0  0  # atno 10764 bound_to 10752
  154.4879  135.2866  155.1496 H   0  0  0  0  0  0  0  0  0  0  0  0  # atno 10765 bound_to 10752
  140.2830  134.2951  155.7795 H   0  0  0  0  0  0  0  0  0  0  0  0  # atno 11005 bound_to 11000
  145.9871  139.2986  143.1007 LP  0  0  0  0  0  0  0  0  0  0  0  0  # atno 17320 bound_to 7965
  145.8945  140.9283  143.0535 LP  0  0  0  0  0  0  0  0  0  0  0  0  # atno 17321 bound_to 7965
  139.7009  143.9534  152.2905 LP  0  0  0  0  0  0  0  0  0  0  0  0  # atno 17342 bound_to 10162
  139.9227  144.6790  150.8445 LP  0  0  0  0  0  0  0  0  0  0  0  0  # atno 17343 bound_to 10162
  157.7435  130.9913  150.2596 LP  0  0  0  0  0  0  0  0  0  0  0  0  # atno 17370 bound_to 10713
  156.3138  130.3775  149.7637 LP  0  0  0  0  0  0  0  0  0  0  0  0  # atno 17371 bound_to 10713
  141.2159  133.7537  156.9510 LP  0  0  0  0  0  0  0  0  0  0  0  0  # atno 17394 bound_to 11000
  140.1265  134.9383  157.2278 LP  0  0  0  0  0  0  0  0  0  0  0  0  # atno 17395 bound_to 11000

$$$$
