AV-unprocessed.smi:1762|AV-procd|sdf|7107|dock10
  -GOLD-   22720 8333D 1   1.00000     0.00000
 Structure written by MMmdl.
 53 54  0  0  0  0  0  0  0  0  2 V2000
  150.7102  140.8189  157.5741 C   0  0  0  0  0  0  0  0  0  0  0  0
  151.0389  141.1662  156.1115 C   0  0  2  0  0  0  0  0  0  0  0  0
  149.8145  141.6457  155.3073 C   0  0  0  0  0  0  0  0  0  0  0  0
  148.8840  140.5659  154.9520 N   0  0  0  0  0  0  0  0  0  0  0  0
  147.6875  141.0608  154.2135 C   0  0  1  0  0  0  0  0  0  0  0  0
  146.8091  139.9302  153.6225 C   0  0  0  0  0  0  0  0  0  0  0  0
  145.8072  139.5368  154.2193 O   0  0  0  0  0  0  0  0  0  0  0  0
  147.2206  139.3928  152.4624 N   0  0  0  0  0  0  0  0  0  0  0  0
  146.5774  138.2717  151.7834 C   0  0  0  0  0  0  0  0  0  0  0  0
  146.0825  137.1758  152.7474 C   0  0  0  0  0  0  0  0  0  0  0  0
  145.7941  135.8494  152.0664 C   0  0  0  0  0  0  0  0  0  0  0  0
  144.4913  135.4830  151.6642 C   0  0  0  0  0  0  0  0  0  0  0  0
  144.2865  134.2310  151.0474 C   0  0  0  0  0  0  0  0  0  0  0  0
  145.3872  133.3723  150.8460 C   0  0  0  0  0  0  0  0  0  0  0  0
  146.6665  133.7886  151.2669 C   0  0  0  0  0  0  0  0  0  0  0  0
  146.8210  134.9951  151.8549 N   0  3  0  0  0  0  0  0  0  0  0  0
  146.8271  142.1049  155.0040 C   0  0  0  0  0  0  0  0  0  0  0  0
  146.2201  141.5572  156.3118 C   0  0  0  0  0  0  0  0  0  0  0  0
  145.7403  142.7876  154.1513 C   0  0  0  0  0  0  0  0  0  0  0  0
  149.6416  139.5024  154.2725 C   0  0  0  0  0  0  0  0  0  0  0  0
  150.8342  138.9969  155.1051 C   0  0  1  0  0  0  0  0  0  0  0  0
  151.6704  137.9610  154.3453 C   0  0  0  0  0  0  0  0  0  0  0  0
  151.6846  140.0887  155.4375 O   0  0  0  0  0  0  0  0  0  0  0  0
  150.3349  141.6943  158.1047 H   0  0  0  0  0  0  0  0  0  0  0  0
  151.5992  140.4707  158.0999 H   0  0  0  0  0  0  0  0  0  0  0  0
  149.9488  140.0430  157.6515 H   0  0  0  0  0  0  0  0  0  0  0  0
  151.7611  141.9828  156.1373 H   0  0  0  0  0  0  0  0  0  0  0  0
  149.3216  142.4136  155.8997 H   0  0  0  0  0  0  0  0  0  0  0  0
  150.1635  142.1373  154.3975 H   0  0  0  0  0  0  0  0  0  0  0  0
  148.0636  141.6026  153.3431 H   0  0  0  0  0  0  0  0  0  0  0  0
  148.0630  139.7600  152.0430 H   0  0  0  0  0  0  0  0  0  0  0  0
  145.7329  138.6670  151.2182 H   0  0  0  0  0  0  0  0  0  0  0  0
  147.2608  137.8429  151.0486 H   0  0  0  0  0  0  0  0  0  0  0  0
  146.8288  137.0142  153.5260 H   0  0  0  0  0  0  0  0  0  0  0  0
  145.1819  137.5133  153.2629 H   0  0  0  0  0  0  0  0  0  0  0  0
  143.6577  136.1506  151.8278 H   0  0  0  0  0  0  0  0  0  0  0  0
  143.2967  133.9324  150.7335 H   0  0  0  0  0  0  0  0  0  0  0  0
  145.2515  132.4093  150.3757 H   0  0  0  0  0  0  0  0  0  0  0  0
  147.5638  133.1978  151.1534 H   0  0  0  0  0  0  0  0  0  0  0  0
  147.4859  142.9244  155.2863 H   0  0  0  0  0  0  0  0  0  0  0  0
  145.4742  140.7850  156.1273 H   0  0  0  0  0  0  0  0  0  0  0  0
  145.7287  142.3523  156.8729 H   0  0  0  0  0  0  0  0  0  0  0  0
  146.9843  141.1322  156.9627 H   0  0  0  0  0  0  0  0  0  0  0  0
  144.9330  142.1025  153.8922 H   0  0  0  0  0  0  0  0  0  0  0  0
  146.1601  143.1860  153.2276 H   0  0  0  0  0  0  0  0  0  0  0  0
  145.2922  143.6226  154.6907 H   0  0  0  0  0  0  0  0  0  0  0  0
  149.0151  138.6329  154.0757 H   0  0  0  0  0  0  0  0  0  0  0  0
  149.9941  139.8625  153.3044 H   0  0  0  0  0  0  0  0  0  0  0  0
  150.4673  138.5317  156.0203 H   0  0  0  0  0  0  0  0  0  0  0  0
  151.0712  137.0888  154.0826 H   0  0  0  0  0  0  0  0  0  0  0  0
  152.5091  137.6172  154.9510 H   0  0  0  0  0  0  0  0  0  0  0  0
  152.0750  138.3794  153.4230 H   0  0  0  0  0  0  0  0  0  0  0  0
  147.7555  135.2750  152.1546 H   0  0  0  0  0  0  0  0  0  0  0  0
  1  2  1  0  0  0  0
  1 24  1  0  0  0  0
  1 25  1  0  0  0  0
  1 26  1  0  0  0  0
  2 23  1  0  0  0  0
  2  3  1  0  0  0  0
  2 27  1  0  0  0  0
  3  4  1  0  0  0  0
  3 28  1  0  0  0  0
  3 29  1  0  0  0  0
  4  5  1  0  0  0  0
  4 20  1  0  0  0  0
  5  6  1  0  0  0  0
  5 17  1  0  0  0  0
  5 30  1  0  0  0  0
  6  7  2  0  0  0  0
  6  8  1  0  0  0  0
  8  9  1  0  0  0  0
  8 31  1  0  0  0  0
  9 10  1  0  0  0  0
  9 32  1  0  0  0  0
  9 33  1  0  0  0  0
 10 11  1  0  0  0  0
 10 34  1  0  0  0  0
 10 35  1  0  0  0  0
 11 16  1  0  0  0  0
 11 12  2  0  0  0  0
 12 13  1  0  0  0  0
 12 36  1  0  0  0  0
 13 14  2  0  0  0  0
 13 37  1  0  0  0  0
 14 15  1  0  0  0  0
 14 38  1  0  0  0  0
 15 16  2  0  0  0  0
 15 39  1  0  0  0  0
 16 53  1  0  0  0  0
 17 18  1  0  0  0  0
 17 19  1  0  0  0  0
 17 40  1  0  0  0  0
 18 41  1  0  0  0  0
 18 42  1  0  0  0  0
 18 43  1  0  0  0  0
 19 44  1  0  0  0  0
 19 45  1  0  0  0  0
 19 46  1  0  0  0  0
 20 21  1  0  0  0  0
 20 47  1  0  0  0  0
 20 48  1  0  0  0  0
 21 22  1  0  0  0  0
 21 23  1  0  0  0  0
 21 49  1  0  0  0  0
 22 50  1  0  0  0  0
 22 51  1  0  0  0  0
 22 52  1  0  0  0  0
M  CHG  1  16   1
M  END
> <s_m_source_file>
AV-unprocessed.smi

> <i_m_source_file_index>
1762

> <i_lp_mmshare_version>
43012

> <i_f3d_flags>
0

> <s_epik_input>
W0NIM11bQ0BASF0xW0NIMl1OKFtDSDJdW0NASF0oTzEpW0NIM10pW0NAQEhdKFtDSF0oW0NIM10pW0NIM10pQyg9TylbTkhdW0NIMl1bQ0gyXWMyW2NIXVtjSF1bY0hdW2NIXW4y

> <s_epik_cmdline>
J2VwaWtfcHl0aG9uJywgJy1waCcsICc3LjAnLCAnLXRuJywgJzgnLCAnLW1hJywgJzIwMCcsICctbWV0YWxfYmluZGluZycsICctaW1hZScsICc8aW5maWxlLm1hZT4nLCAnLW9tYWUnLCAnPG91dGZpbGUubWFlPic=

> <r_epik_Ionization_Penalty>
1.86475

> <r_epik_Ionization_Penalty_Charging>
1.85347

> <r_epik_Ionization_Penalty_Neutral>
0.0112771

> <r_epik_State_Penalty>
1.99714

> <r_epik_Charging_Adjusted_Penalty>
3.85061

> <i_epik_Tot_Q>
1

> <i_epik_Tot_abs_Q>
1

> <r_epik_Metal_State_Penalty>
2.02271

> <b_epik_Metal_Only>
0

> <s_lp_Force_Field>
OPLS_2005

> <r_lp_Energy>
36.6316

> <b_lp_Chiralities_Consistent>
1

> <s_lp_Variant>
AV-unprocessed.smi:1762-9

> <Gold.Version>
5.8.1

> <Gold.Id.Protein>
6NUR|6NUR_protein|mol2

> <Gold.PLP.Fitness>
52.2147

> <Gold.PLP.PLP>
-43.6967

> <Gold.PLP.part.hbond>
-2.9391

> <Gold.PLP.part.metal>
0.0000

> <Gold.PLP.part.buried>
-5.0037

> <Gold.PLP.part.nonpolar>
-39.2261

> <Gold.PLP.part.repulsive>
2.4295

> <Gold.PLP.ligand.clash>
0.0000

> <Gold.PLP.ligand.torsion>
1.3517

> <Gold.PLP.Chemscore.Hbond>
3.6120

> <Gold.PLP.Chemscore.CHOScore>
0.0000

> <Gold.PLP.Chemscore.Metal>
0.0000

> <Gold.Chemscore.Hbonds>
donor molecule, donor type, donor heavy atom, donor atom, acceptor molecule, acceptor atom, score
      L1  H     8    31       P1  7957  1.00
      L1  H    16    53       P1  7948  1.74
      P1  H  7989  7998       L1    23  0.51

> <Gold.PLP.Chemscore.Internal.Correction>
0.3854

> <Gold.Rescore>
     Score         DG    S(hbond)    S(metal)    S(lipo)     H(rot)  DE(clash)    DE(int)     intcor
     13.64     -20.22       2.00        0.00     106.51       1.72       1.91       4.68       ----

> <Gold.Chemscore.Fitness>
13.6363

> <Gold.Chemscore.DG>
-20.2197

> <Gold.Chemscore.ZeroCoef>
-5.4800

> <Gold.Chemscore.Hbond>
1.9982

> <Gold.Chemscore.Metal>
0.0000

> <Gold.Chemscore.Lipo>
106.5141

> <Gold.Chemscore.Internal_Hbond>
0.0000

> <Gold.Chemscore.DEClash>
1.9072

> <Gold.Chemscore.DEInternal>
4.6761

> <Gold.Chemscore.Rot>
1.7174

> <Gold.Chemscore.Internal.Correction>
   9.000000E+99

> <Gold.Chemscore.Hbonds>
donor molecule, donor type, donor heavy atom, donor atom, acceptor molecule, acceptor atom, score
      L1  H     8    31       P1  7957  1.00
      L1  H    16    53       P1  7948  0.78
      P1  H  7989  7998       L1    23  0.01

> <Gold.Chemscore.Hbond.Weighted>
-6.6741

> <Gold.Chemscore.Metal.Weighted>
-0.0000

> <Gold.Chemscore.Lipo.Weighted>
-12.4621

> <Gold.Chemscore.Internal_Hbond.Weighted>
0.0000

> <Gold.Chemscore.DEClash.Weighted>
1.9072

> <Gold.Chemscore.DEInternal.Weighted>
4.6761

> <Gold.Chemscore.Rot.Weighted>
4.3966

> <Gold.Chemscore.Internal.Correction.Weighted>
   9.000000E+99

> <Gold.Protein.RotatedTorsions>
[ 6907 6896 6895 6894 ] final  -96.90 input  -60.11 | X-H torsion
[ 7974 7965 7964 7962 ] final  172.40 input  175.53 | X-H torsion
[ 8008 7997 7996 7995 ] final -105.69 input   59.86 | X-H torsion
[ 10167 10162 10161 10158 ] final   36.50 input  -65.29 | X-H torsion
[ 10718 10713 10712 10709 ] final   82.28 input   66.30 | X-H torsion
[ 10763 10752 10751 10750 ] final  113.91 input  -60.55 | X-H torsion
[ 11005 11000 10999 10996 ] final    0.37 input  -57.11 | X-H torsion

> <Gold.Protein.ActiveResidues>
 VAL166  LYS551  ARG553  GLY616  TRP617  ASP618  TYR619  PRO620  LYS621  CYS622 
 ASP623  PHE694  ASN695  SER759  ASP760  ASP761  ALA762  ILE779  LEU786  VAL792 
 PHE793  MET794  SER795  GLU796  ALA797  LYS798  CYS799  TRP800  GLU811  SER814 

> <Gold.Protein.RotatedAtoms>
  150.7001  134.1432  159.4112 H   0  0  0  0  0  0  0  0  0  0  0  0  # atno 6907 bound_to 6896
  151.9416  135.0208  160.0545 H   0  0  0  0  0  0  0  0  0  0  0  0  # atno 6908 bound_to 6896
  152.2089  133.4861  159.5136 H   0  0  0  0  0  0  0  0  0  0  0  0  # atno 6909 bound_to 6896
  144.7269  139.9493  143.6431 H   0  0  0  0  0  0  0  0  0  0  0  0  # atno 7974 bound_to 7965
  154.9035  140.0412  157.1907 H   0  0  0  0  0  0  0  0  0  0  0  0  # atno 8008 bound_to 7997
  154.8419  140.2915  155.5632 H   0  0  0  0  0  0  0  0  0  0  0  0  # atno 8009 bound_to 7997
  156.2992  140.2481  156.3363 H   0  0  0  0  0  0  0  0  0  0  0  0  # atno 8010 bound_to 7997
  140.4121  144.1577  150.6140 H   0  0  0  0  0  0  0  0  0  0  0  0  # atno 10167 bound_to 10162
  157.6853  131.0041  150.2351 H   0  0  0  0  0  0  0  0  0  0  0  0  # atno 10718 bound_to 10713
  153.4994  135.3641  155.2532 H   0  0  0  0  0  0  0  0  0  0  0  0  # atno 10763 bound_to 10752
  154.8748  135.3996  154.3496 H   0  0  0  0  0  0  0  0  0  0  0  0  # atno 10764 bound_to 10752
  153.4129  135.7078  153.6413 H   0  0  0  0  0  0  0  0  0  0  0  0  # atno 10765 bound_to 10752
  140.6273  133.9607  155.8256 H   0  0  0  0  0  0  0  0  0  0  0  0  # atno 11005 bound_to 11000
  146.0723  139.3712  143.0515 LP  0  0  0  0  0  0  0  0  0  0  0  0  # atno 17320 bound_to 7965
  145.7951  140.9797  143.1028 LP  0  0  0  0  0  0  0  0  0  0  0  0  # atno 17321 bound_to 7965
  140.4626  143.2443  151.9199 LP  0  0  0  0  0  0  0  0  0  0  0  0  # atno 17342 bound_to 10162
  139.4782  144.5452  151.8469 LP  0  0  0  0  0  0  0  0  0  0  0  0  # atno 17343 bound_to 10162
  156.2976  130.3754  149.7781 LP  0  0  0  0  0  0  0  0  0  0  0  0  # atno 17370 bound_to 10713
  156.5421  130.8304  151.3272 LP  0  0  0  0  0  0  0  0  0  0  0  0  # atno 17371 bound_to 10713
  141.0700  134.0219  157.3539 LP  0  0  0  0  0  0  0  0  0  0  0  0  # atno 17394 bound_to 11000
  139.9130  135.0193  156.7767 LP  0  0  0  0  0  0  0  0  0  0  0  0  # atno 17395 bound_to 11000

$$$$
