AV-unprocessed.smi:2462|AV-procd|sdf|9717|dock10
  -GOLD-   2272013353D 1   1.00000     0.00000
 Structure written by MMmdl.
 40 41  0  0  0  0  0  0  0  0  1 V2000
  151.9320  138.6084  154.1520 C   0  0  0  0  0  0  0  0  0  0  0  0
  151.5551  139.5953  155.2423 C   0  0  0  0  0  0  0  0  0  0  0  0
  150.7555  140.6665  154.8370 N   0  0  0  0  0  0  0  0  0  0  0  0
  150.4070  141.5701  155.6932 C   0  0  0  0  0  0  0  0  0  0  0  0
  150.8210  141.5224  157.0361 N   0  0  0  0  0  0  0  0  0  0  0  0
  150.3583  142.6353  157.8940 C   0  0  0  0  0  0  0  0  0  0  0  0
  151.3927  143.7843  158.1198 C   0  0  1  0  0  0  0  0  0  0  0  0
  151.4767  144.5066  156.9052 O   0  0  0  0  0  0  0  0  0  0  0  0
  150.8682  144.8165  159.1477 C   0  0  0  0  0  0  0  0  0  0  0  0
  150.9802  144.3282  160.6031 C   0  0  0  0  0  0  0  0  0  0  0  0
  152.4236  143.9255  160.9543 C   0  0  1  0  0  0  0  0  0  0  0  0
  152.5336  143.4382  162.4059 C   0  0  0  0  0  0  0  0  0  0  0  0
  152.9368  142.8650  159.9643 C   0  0  0  0  0  0  0  0  0  0  0  0
  152.8278  143.3446  158.5063 C   0  0  0  0  0  0  0  0  0  0  0  0
  151.5419  140.4704  157.5273 C   0  0  0  0  0  0  0  0  0  0  0  0
  151.8284  140.3751  158.7217 O   0  0  0  0  0  0  0  0  0  0  0  0
  151.9533  139.4624  156.5363 C   0  0  0  0  0  0  0  0  0  0  0  0
  152.8215  138.3144  157.0369 C   0  0  0  0  0  0  0  0  0  0  0  0
  151.5585  137.6126  154.3923 H   0  0  0  0  0  0  0  0  0  0  0  0
  153.0153  138.5582  154.0403 H   0  0  0  0  0  0  0  0  0  0  0  0
  151.5107  138.9000  153.1890 H   0  0  0  0  0  0  0  0  0  0  0  0
  149.7729  142.4175  155.4283 H   0  0  0  0  0  0  0  0  0  0  0  0
  149.4315  143.0463  157.4880 H   0  0  0  0  0  0  0  0  0  0  0  0
  150.0513  142.2425  158.8625 H   0  0  0  0  0  0  0  0  0  0  0  0
  150.6010  144.6498  156.5802 H   0  0  0  0  0  0  0  0  0  0  0  0
  151.4387  145.7430  159.0617 H   0  0  0  0  0  0  0  0  0  0  0  0
  149.8333  145.0810  158.9250 H   0  0  0  0  0  0  0  0  0  0  0  0
  150.6445  145.1192  161.2746 H   0  0  0  0  0  0  0  0  0  0  0  0
  150.3086  143.4864  160.7714 H   0  0  0  0  0  0  0  0  0  0  0  0
  153.0539  144.8106  160.8562 H   0  0  0  0  0  0  0  0  0  0  0  0
  151.9230  142.5504  162.5736 H   0  0  0  0  0  0  0  0  0  0  0  0
  152.2023  144.2072  163.1042 H   0  0  0  0  0  0  0  0  0  0  0  0
  153.5639  143.1857  162.6583 H   0  0  0  0  0  0  0  0  0  0  0  0
  153.9763  142.6226  160.1870 H   0  0  0  0  0  0  0  0  0  0  0  0
  152.3767  141.9426  160.0995 H   0  0  0  0  0  0  0  0  0  0  0  0
  153.2040  142.5778  157.8290 H   0  0  0  0  0  0  0  0  0  0  0  0
  153.5043  144.1923  158.3858 H   0  0  0  0  0  0  0  0  0  0  0  0
  153.7451  138.7021  157.4678 H   0  0  0  0  0  0  0  0  0  0  0  0
  153.0962  137.6098  156.2537 H   0  0  0  0  0  0  0  0  0  0  0  0
  152.2956  137.7548  157.8111 H   0  0  0  0  0  0  0  0  0  0  0  0
  1  2  1  0  0  0  0
  1 19  1  0  0  0  0
  1 20  1  0  0  0  0
  1 21  1  0  0  0  0
  2 17  2  0  0  0  0
  2  3  1  0  0  0  0
  3  4  2  0  0  0  0
  4  5  1  0  0  0  0
  4 22  1  0  0  0  0
  5  6  1  0  0  0  0
  5 15  1  0  0  0  0
  6  7  1  0  0  0  0
  6 23  1  0  0  0  0
  6 24  1  0  0  0  0
  7 14  1  0  0  0  0
  7  8  1  0  0  0  0
  7  9  1  0  0  0  0
  8 25  1  0  0  0  0
  9 10  1  0  0  0  0
  9 26  1  0  0  0  0
  9 27  1  0  0  0  0
 10 11  1  0  0  0  0
 10 28  1  0  0  0  0
 10 29  1  0  0  0  0
 11 12  1  0  0  0  0
 11 13  1  0  0  0  0
 11 30  1  0  0  0  0
 12 31  1  0  0  0  0
 12 32  1  0  0  0  0
 12 33  1  0  0  0  0
 13 14  1  0  0  0  0
 13 34  1  0  0  0  0
 13 35  1  0  0  0  0
 14 36  1  0  0  0  0
 14 37  1  0  0  0  0
 15 16  2  0  0  0  0
 15 17  1  0  0  0  0
 17 18  1  0  0  0  0
 18 38  1  0  0  0  0
 18 39  1  0  0  0  0
 18 40  1  0  0  0  0
M  END
> <s_m_source_file>
AV-unprocessed.smi

> <i_m_source_file_index>
2462

> <i_lp_mmshare_version>
43012

> <i_f3d_flags>
0

> <s_epik_input>
W0NIM11jMW5bY0hdbihjKD1PKWMxW0NIM10pW0NIMl1bQ0BAXTIoW09IXSlbQ0gyXVtDSDJdW0NAQEhdKFtDSDNdKVtDSDJdW0NIMl0y

> <s_epik_cmdline>
J2VwaWtfcHl0aG9uJywgJy1waCcsICc3LjAnLCAnLXRuJywgJzgnLCAnLW1hJywgJzIwMCcsICctbWV0YWxfYmluZGluZycsICctaW1hZScsICc8aW5maWxlLm1hZT4nLCAnLW9tYWUnLCAnPG91dGZpbGUubWFlPic=

> <r_lp_tautomer_probability>
1

> <r_epik_Ionization_Penalty>
0.000179745

> <r_epik_Ionization_Penalty_Charging>
2.35483e-07

> <r_epik_Ionization_Penalty_Neutral>
0.00017951

> <r_epik_State_Penalty>
-0

> <r_epik_Charging_Adjusted_Penalty>
2.35483e-07

> <i_epik_Tot_Q>
0

> <i_epik_Tot_abs_Q>
0

> <r_epik_Metal_State_Penalty>
-0

> <b_epik_Metal_Only>
0

> <s_lp_Force_Field>
OPLS_2005

> <r_lp_Energy>
24.5365

> <b_lp_Chiralities_Consistent>
1

> <s_lp_Variant>
AV-unprocessed.smi:2462-1

> <Gold.Version>
5.8.1

> <Gold.Id.Protein>
6NUR|6NUR_protein|mol2

> <Gold.PLP.Fitness>
50.5725

> <Gold.PLP.PLP>
-42.6537

> <Gold.PLP.part.hbond>
-2.0000

> <Gold.PLP.part.metal>
0.0000

> <Gold.PLP.part.buried>
-3.6918

> <Gold.PLP.part.nonpolar>
-36.6277

> <Gold.PLP.part.repulsive>
0.0651

> <Gold.PLP.ligand.clash>
0.0000

> <Gold.PLP.ligand.torsion>
0.4175

> <Gold.PLP.Chemscore.Hbond>
1.9920

> <Gold.PLP.Chemscore.CHOScore>
0.9000

> <Gold.PLP.Chemscore.Metal>
0.0000

> <Gold.Chemscore.Hbonds>
donor molecule, donor type, donor heavy atom, donor atom, acceptor molecule, acceptor atom, score
      L1  H     8    25       P1  8028  1.00
      P1  H  7989  7998       L1     3  0.57
      L1  C     4    22       P1  8028  1.00

> <Gold.PLP.Chemscore.Internal.Correction>
0.0780

> <Gold.Rescore>
     Score         DG    S(hbond)    S(metal)    S(lipo)     H(rot)  DE(clash)    DE(int)     intcor
     19.45     -20.06       1.77        0.00     110.83       1.68       0.27       0.34       ----

> <Gold.Chemscore.Fitness>
19.4506

> <Gold.Chemscore.DG>
-20.0640

> <Gold.Chemscore.ZeroCoef>
-5.4800

> <Gold.Chemscore.Hbond>
1.7686

> <Gold.Chemscore.Metal>
0.0000

> <Gold.Chemscore.Lipo>
110.8278

> <Gold.Chemscore.Internal_Hbond>
0.0000

> <Gold.Chemscore.DEClash>
0.2738

> <Gold.Chemscore.DEInternal>
0.3396

> <Gold.Chemscore.Rot>
1.6758

> <Gold.Chemscore.Internal.Correction>
   9.000000E+99

> <Gold.Chemscore.Hbonds>
donor molecule, donor type, donor heavy atom, donor atom, acceptor molecule, acceptor atom, score
      L1  H     8    25       P1  8028  0.96
      P1  H  7989  7998       L1     3  0.04

> <Gold.Chemscore.Hbond.Weighted>
-5.9071

> <Gold.Chemscore.Metal.Weighted>
-0.0000

> <Gold.Chemscore.Lipo.Weighted>
-12.9668

> <Gold.Chemscore.Internal_Hbond.Weighted>
0.0000

> <Gold.Chemscore.DEClash.Weighted>
0.2738

> <Gold.Chemscore.DEInternal.Weighted>
0.3396

> <Gold.Chemscore.Rot.Weighted>
4.2899

> <Gold.Chemscore.Internal.Correction.Weighted>
   9.000000E+99

> <Gold.Protein.RotatedTorsions>
[ 6907 6896 6895 6894 ] final  -26.63 input  -60.11 | X-H torsion
[ 7974 7965 7964 7962 ] final  105.43 input  175.53 | X-H torsion
[ 8008 7997 7996 7995 ] final  -77.43 input   59.86 | X-H torsion
[ 10167 10162 10161 10158 ] final   32.77 input  -65.29 | X-H torsion
[ 10718 10713 10712 10709 ] final   57.78 input   66.30 | X-H torsion
[ 10763 10752 10751 10750 ] final -125.60 input  -60.55 | X-H torsion
[ 11005 11000 10999 10996 ] final  106.47 input  -57.11 | X-H torsion

> <Gold.Protein.ActiveResidues>
 VAL166  LYS551  ARG553  GLY616  TRP617  ASP618  TYR619  PRO620  LYS621  CYS622 
 ASP623  PHE694  ASN695  SER759  ASP760  ASP761  ALA762  ILE779  LEU786  VAL792 
 PHE793  MET794  SER795  GLU796  ALA797  LYS798  CYS799  TRP800  GLU811  SER814 

> <Gold.Protein.RotatedAtoms>
  151.1583  135.0261  159.8698 H   0  0  0  0  0  0  0  0  0  0  0  0  # atno 6907 bound_to 6896
  152.5452  134.1309  159.8448 H   0  0  0  0  0  0  0  0  0  0  0  0  # atno 6908 bound_to 6896
  151.1401  133.4931  159.2629 H   0  0  0  0  0  0  0  0  0  0  0  0  # atno 6909 bound_to 6896
  145.3197  139.2516  143.3718 H   0  0  0  0  0  0  0  0  0  0  0  0  # atno 7974 bound_to 7965
  154.5595  140.0710  156.8797 H   0  0  0  0  0  0  0  0  0  0  0  0  # atno 8008 bound_to 7997
  155.2838  140.3373  155.4238 H   0  0  0  0  0  0  0  0  0  0  0  0  # atno 8009 bound_to 7997
  156.2030  140.1729  156.7844 H   0  0  0  0  0  0  0  0  0  0  0  0  # atno 8010 bound_to 7997
  140.4468  144.1107  150.6184 H   0  0  0  0  0  0  0  0  0  0  0  0  # atno 10167 bound_to 10162
  157.5543  130.8788  149.9011 H   0  0  0  0  0  0  0  0  0  0  0  0  # atno 10718 bound_to 10713
  154.8737  135.4024  154.3295 H   0  0  0  0  0  0  0  0  0  0  0  0  # atno 10763 bound_to 10752
  153.4110  135.7020  153.6364 H   0  0  0  0  0  0  0  0  0  0  0  0  # atno 10764 bound_to 10752
  153.5067  135.3716  155.2537 H   0  0  0  0  0  0  0  0  0  0  0  0  # atno 10765 bound_to 10752
  139.8814  134.9370  156.5671 H   0  0  0  0  0  0  0  0  0  0  0  0  # atno 11005 bound_to 11000
  146.3087  140.3752  142.8678 LP  0  0  0  0  0  0  0  0  0  0  0  0  # atno 17320 bound_to 7965
  144.8949  140.7570  143.5903 LP  0  0  0  0  0  0  0  0  0  0  0  0  # atno 17321 bound_to 7965
  140.4254  143.2592  151.9663 LP  0  0  0  0  0  0  0  0  0  0  0  0  # atno 17342 bound_to 10162
  139.4793  144.5793  151.7960 LP  0  0  0  0  0  0  0  0  0  0  0  0  # atno 17343 bound_to 10162
  156.0604  130.3701  150.0995 LP  0  0  0  0  0  0  0  0  0  0  0  0  # atno 17370 bound_to 10713
  156.9165  130.9669  151.3555 LP  0  0  0  0  0  0  0  0  0  0  0  0  # atno 17371 bound_to 10713
  140.8126  133.8417  155.8823 LP  0  0  0  0  0  0  0  0  0  0  0  0  # atno 17394 bound_to 11000
  140.9492  134.1800  157.4740 LP  0  0  0  0  0  0  0  0  0  0  0  0  # atno 17395 bound_to 11000

$$$$
