AV-unprocessed.smi:3189|AV-procd|sdf|12189|dock1
  -GOLD-   2272018 33D 1   1.00000     0.00000
 Structure written by MMmdl.
 30 31  0  0  0  0  0  0  0  0  1 V2000
  147.7987  139.2867  153.2171 C   0  0  0  0  0  0  0  0  0  0  0  0
  148.9660  139.6415  154.1192 C   0  0  0  0  0  0  0  0  0  0  0  0
  149.9579  138.7262  154.1795 N   0  0  0  0  0  0  0  0  0  0  0  0
  151.0230  138.9951  154.9620 C   0  0  0  0  0  0  0  0  0  0  0  0
  151.1489  140.1743  155.7209 C   0  0  0  0  0  0  0  0  0  0  0  0
  150.1043  141.1279  155.6724 C   0  0  0  0  0  0  0  0  0  0  0  0
  150.1374  142.3607  156.3804 N   0  0  0  0  0  0  0  0  0  0  0  0
  150.6052  142.6140  157.6184 C   0  0  0  0  0  0  0  0  0  0  0  0
  151.0625  141.7660  158.3819 O   0  0  0  0  0  0  0  0  0  0  0  0
  150.4643  143.8940  158.0051 N   0  0  0  0  0  0  0  0  0  0  0  0
  150.8585  144.4744  159.2540 C   0  0  2  0  0  0  0  0  0  0  0  0
  151.9009  145.5700  159.2053 C   0  0  0  0  0  0  0  0  0  0  0  0
  152.2581  144.2250  159.7830 C   0  0  2  0  0  0  0  0  0  0  0  0
  153.2339  143.3085  159.0715 C   0  0  0  0  0  0  0  0  0  0  0  0
  148.9927  140.8584  154.8401 C   0  0  0  0  0  0  0  0  0  0  0  0
  147.6879  141.9908  154.7123 Cl  0  0  0  0  0  0  0  0  0  0  0  0
  146.8745  139.2426  153.7938 H   0  0  0  0  0  0  0  0  0  0  0  0
  147.9427  138.3183  152.7361 H   0  0  0  0  0  0  0  0  0  0  0  0
  147.6821  140.0374  152.4347 H   0  0  0  0  0  0  0  0  0  0  0  0
  151.8041  138.2496  154.9788 H   0  0  0  0  0  0  0  0  0  0  0  0
  152.0405  140.3281  156.3086 H   0  0  0  0  0  0  0  0  0  0  0  0
  149.6873  143.1351  155.9145 H   0  0  0  0  0  0  0  0  0  0  0  0
  149.9379  144.4960  157.3883 H   0  0  0  0  0  0  0  0  0  0  0  0
  150.0763  144.6245  159.9970 H   0  0  0  0  0  0  0  0  0  0  0  0
  152.3192  145.8316  158.2348 H   0  0  0  0  0  0  0  0  0  0  0  0
  151.7902  146.3999  159.9003 H   0  0  0  0  0  0  0  0  0  0  0  0
  152.3410  144.1784  160.8671 H   0  0  0  0  0  0  0  0  0  0  0  0
  153.1872  143.4455  157.9907 H   0  0  0  0  0  0  0  0  0  0  0  0
  153.0036  142.2680  159.3012 H   0  0  0  0  0  0  0  0  0  0  0  0
  154.2514  143.5201  159.4003 H   0  0  0  0  0  0  0  0  0  0  0  0
  1  2  1  0  0  0  0
  1 17  1  0  0  0  0
  1 18  1  0  0  0  0
  1 19  1  0  0  0  0
  2 15  1  0  0  0  0
  2  3  2  0  0  0  0
  3  4  1  0  0  0  0
  4  5  2  0  0  0  0
  4 20  1  0  0  0  0
  5  6  1  0  0  0  0
  5 21  1  0  0  0  0
  6  7  1  0  0  0  0
  6 15  2  0  0  0  0
  7  8  1  0  0  0  0
  7 22  1  0  0  0  0
  8  9  2  0  0  0  0
  8 10  1  0  0  0  0
 10 11  1  0  0  0  0
 10 23  1  0  0  0  0
 11 13  1  0  0  0  0
 11 12  1  0  0  0  0
 11 24  1  0  0  0  0
 12 13  1  0  0  0  0
 12 25  1  0  0  0  0
 12 26  1  0  0  0  0
 13 14  1  0  0  0  0
 13 27  1  0  0  0  0
 14 28  1  0  0  0  0
 14 29  1  0  0  0  0
 14 30  1  0  0  0  0
 15 16  1  0  0  0  0
M  END
> <s_m_source_file>
AV-unprocessed.smi

> <i_m_source_file_index>
3189

> <i_lp_mmshare_version>
43012

> <i_f3d_flags>
0

> <s_epik_input>
W0NIM11jMW5bY0hdW2NIXWMoYzFDbClbTkhdQyg9TylbTkhdW0NAQEhdMltDSDJdW0NASF0yW0NIM10=

> <s_epik_cmdline>
J2VwaWtfcHl0aG9uJywgJy1waCcsICc3LjAnLCAnLXRuJywgJzgnLCAnLW1hJywgJzIwMCcsICctbWV0YWxfYmluZGluZycsICctaW1hZScsICc8aW5maWxlLm1hZT4nLCAnLW9tYWUnLCAnPG91dGZpbGUubWFlPic=

> <r_epik_Ionization_Penalty>
0.00994309

> <r_epik_Ionization_Penalty_Charging>
0

> <r_epik_Ionization_Penalty_Neutral>
0.00994309

> <r_epik_State_Penalty>
0.00754503

> <r_epik_Charging_Adjusted_Penalty>
0.00754503

> <i_epik_Tot_Q>
0

> <i_epik_Tot_abs_Q>
0

> <r_epik_Metal_State_Penalty>
0.00742071

> <b_epik_Metal_Only>
0

> <s_lp_Force_Field>
OPLS_2005

> <r_lp_Energy>
34.6575

> <b_lp_Chiralities_Consistent>
1

> <s_lp_Variant>
AV-unprocessed.smi:3189-3

> <Gold.Version>
5.8.1

> <Gold.Id.Protein>
6NUR|6NUR_protein|mol2

> <Gold.PLP.Fitness>
41.1935

> <Gold.PLP.PLP>
-35.8250

> <Gold.PLP.part.hbond>
-2.0000

> <Gold.PLP.part.metal>
0.0000

> <Gold.PLP.part.buried>
0.5359

> <Gold.PLP.part.nonpolar>
-34.6413

> <Gold.PLP.part.repulsive>
0.3544

> <Gold.PLP.ligand.clash>
0.0000

> <Gold.PLP.ligand.torsion>
0.3352

> <Gold.PLP.Chemscore.Hbond>
2.0000

> <Gold.PLP.Chemscore.CHOScore>
0.0000

> <Gold.PLP.Chemscore.Metal>
0.0000

> <Gold.Chemscore.Hbonds>
donor molecule, donor type, donor heavy atom, donor atom, acceptor molecule, acceptor atom, score
      L1  H     7    22       P1  8028  1.00
      L1  H    10    23       P1  8028  1.00

> <Gold.PLP.Chemscore.Internal.Correction>
0.0388

> <Gold.Rescore>
     Score         DG    S(hbond)    S(metal)    S(lipo)     H(rot)  DE(clash)    DE(int)     intcor
     17.67     -19.55       1.53        0.00      98.38       1.00       0.32       1.56       ----

> <Gold.Chemscore.Fitness>
17.6686

> <Gold.Chemscore.DG>
-19.5495

> <Gold.Chemscore.ZeroCoef>
-5.4800

> <Gold.Chemscore.Hbond>
1.5328

> <Gold.Chemscore.Metal>
0.0000

> <Gold.Chemscore.Lipo>
98.3772

> <Gold.Chemscore.Internal_Hbond>
0.0000

> <Gold.Chemscore.DEClash>
0.3209

> <Gold.Chemscore.DEInternal>
1.5600

> <Gold.Chemscore.Rot>
1.0000

> <Gold.Chemscore.Internal.Correction>
   9.000000E+99

> <Gold.Chemscore.Hbonds>
donor molecule, donor type, donor heavy atom, donor atom, acceptor molecule, acceptor atom, score
      L1  H     7    22       P1  8028  1.00
      L1  H    10    23       P1  8028  0.23

> <Gold.Chemscore.Hbond.Weighted>
-5.1194

> <Gold.Chemscore.Metal.Weighted>
-0.0000

> <Gold.Chemscore.Lipo.Weighted>
-11.5101

> <Gold.Chemscore.Internal_Hbond.Weighted>
0.0000

> <Gold.Chemscore.DEClash.Weighted>
0.3209

> <Gold.Chemscore.DEInternal.Weighted>
1.5600

> <Gold.Chemscore.Rot.Weighted>
2.5600

> <Gold.Chemscore.Internal.Correction.Weighted>
   9.000000E+99

> <Gold.Protein.RotatedTorsions>
[ 6907 6896 6895 6894 ] final   95.56 input  -60.11 | X-H torsion
[ 7974 7965 7964 7962 ] final -148.42 input  175.53 | X-H torsion
[ 8008 7997 7996 7995 ] final -124.60 input   59.86 | X-H torsion
[ 10167 10162 10161 10158 ] final   38.70 input  -65.29 | X-H torsion
[ 10718 10713 10712 10709 ] final   26.94 input   66.30 | X-H torsion
[ 10763 10752 10751 10750 ] final   -0.52 input  -60.55 | X-H torsion
[ 11005 11000 10999 10996 ] final    4.07 input  -57.11 | X-H torsion

> <Gold.Protein.ActiveResidues>
 VAL166  LYS551  ARG553  GLY616  TRP617  ASP618  TYR619  PRO620  LYS621  CYS622 
 ASP623  PHE694  ASN695  SER759  ASP760  ASP761  ALA762  ILE779  LEU786  VAL792 
 PHE793  MET794  SER795  GLU796  ALA797  LYS798  CYS799  TRP800  GLU811  SER814 

> <Gold.Protein.RotatedAtoms>
  152.5442  134.1021  159.8321 H   0  0  0  0  0  0  0  0  0  0  0  0  # atno 6907 bound_to 6896
  151.1097  133.5175  159.2613 H   0  0  0  0  0  0  0  0  0  0  0  0  # atno 6908 bound_to 6896
  151.1898  135.0407  159.8882 H   0  0  0  0  0  0  0  0  0  0  0  0  # atno 6909 bound_to 6896
  144.8031  140.5199  143.5694 H   0  0  0  0  0  0  0  0  0  0  0  0  # atno 7974 bound_to 7965
  155.1995  140.0415  157.2915 H   0  0  0  0  0  0  0  0  0  0  0  0  # atno 8008 bound_to 7997
  154.6084  140.2470  155.7672 H   0  0  0  0  0  0  0  0  0  0  0  0  # atno 8009 bound_to 7997
  156.2364  140.2920  156.0334 H   0  0  0  0  0  0  0  0  0  0  0  0  # atno 8010 bound_to 7997
  140.3911  144.1851  150.6131 H   0  0  0  0  0  0  0  0  0  0  0  0  # atno 10167 bound_to 10162
  157.2136  130.6945  149.6239 H   0  0  0  0  0  0  0  0  0  0  0  0  # atno 10718 bound_to 10713
  153.3330  135.6976  153.6932 H   0  0  0  0  0  0  0  0  0  0  0  0  # atno 10763 bound_to 10752
  153.5727  135.3513  155.2844 H   0  0  0  0  0  0  0  0  0  0  0  0  # atno 10764 bound_to 10752
  154.8622  135.4276  154.2523 H   0  0  0  0  0  0  0  0  0  0  0  0  # atno 10765 bound_to 10752
  140.5860  133.9968  155.8068 H   0  0  0  0  0  0  0  0  0  0  0  0  # atno 11005 bound_to 11000
  145.5505  139.1476  143.3397 LP  0  0  0  0  0  0  0  0  0  0  0  0  # atno 17320 bound_to 7965
  146.2316  140.5643  142.8973 LP  0  0  0  0  0  0  0  0  0  0  0  0  # atno 17321 bound_to 7965
  140.4839  143.2370  151.8916 LP  0  0  0  0  0  0  0  0  0  0  0  0  # atno 17342 bound_to 10162
  139.4789  144.5240  151.8761 LP  0  0  0  0  0  0  0  0  0  0  0  0  # atno 17343 bound_to 10162
  155.9688  130.4543  150.5845 LP  0  0  0  0  0  0  0  0  0  0  0  0  # atno 17370 bound_to 10713
  157.3647  131.0756  151.1607 LP  0  0  0  0  0  0  0  0  0  0  0  0  # atno 17371 bound_to 10713
  141.0965  133.9835  157.3151 LP  0  0  0  0  0  0  0  0  0  0  0  0  # atno 17394 bound_to 11000
  139.9295  135.0200  156.8352 LP  0  0  0  0  0  0  0  0  0  0  0  0  # atno 17395 bound_to 11000

$$$$
