AV-unprocessed.smi:1401|AV-procd|sdf|5693|dock8
  -GOLD-   22720 5323D 1   1.00000     0.00000
 Structure written by MMmdl.
 48 50  0  0  0  0  0  0  0  0  1 V2000
  156.7247  141.2257  159.2992 C   0  0  0  0  0  0  0  0  0  0  0  0
  155.8233  140.0487  159.5583 C   0  0  0  0  0  0  0  0  0  0  0  0
  155.1138  139.6307  158.5620 N   0  0  0  0  0  0  0  0  0  0  0  0
  154.2496  138.5612  158.6936 N   0  0  0  0  0  0  0  0  0  0  0  0
  153.4850  138.2501  157.4778 C   0  0  0  0  0  0  0  0  0  0  0  0
  152.8619  139.5070  156.8578 C   0  0  0  0  0  0  0  0  0  0  0  0
  153.0144  139.7455  155.6595 O   0  0  0  0  0  0  0  0  0  0  0  0
  152.1700  140.3002  157.6910 N   0  0  0  0  0  0  0  0  0  0  0  0
  151.5462  141.5749  157.3404 C   0  0  1  0  0  0  0  0  0  0  0  0
  150.2814  141.2791  156.5177 C   0  0  0  0  0  0  0  0  0  0  0  0
  151.2334  142.3984  158.6176 C   0  0  2  0  0  0  0  0  0  0  0  0
  150.4122  143.6803  158.3322 C   0  0  0  0  0  0  0  0  0  0  0  0
  151.2519  144.7952  158.9809 C   0  0  1  0  0  0  0  0  0  0  0  0
  151.1922  144.6601  160.5129 C   0  0  0  0  0  0  0  0  0  0  0  0
  152.0554  143.4123  160.7738 C   0  0  0  0  0  0  0  0  0  0  0  0
  152.4696  142.9816  159.3539 C   0  0  2  0  0  0  0  0  0  0  0  0
  152.6691  144.3307  158.6728 C   0  0  0  0  0  0  0  0  0  0  0  0
  154.0750  137.8399  159.8390 C   0  0  0  0  0  0  0  0  0  0  0  0
  153.3056  136.8796  159.9068 O   0  0  0  0  0  0  0  0  0  0  0  0
  154.8791  138.3210  160.9639 C   0  0  0  0  0  0  0  0  0  0  0  0
  154.7148  137.6022  162.1860 C   0  0  0  0  0  0  0  0  0  0  0  0
  154.5832  137.0359  163.1871 N   0  0  0  0  0  0  0  0  0  0  0  0
  155.7193  139.3802  160.8517 C   0  0  0  0  0  0  0  0  0  0  0  0
  156.5741  139.9192  161.9904 C   0  0  0  0  0  0  0  0  0  0  0  0
  157.7584  140.9847  159.5476 H   0  0  0  0  0  0  0  0  0  0  0  0
  156.4222  142.0831  159.9007 H   0  0  0  0  0  0  0  0  0  0  0  0
  156.7013  141.5333  158.2525 H   0  0  0  0  0  0  0  0  0  0  0  0
  154.1297  137.7870  156.7288 H   0  0  0  0  0  0  0  0  0  0  0  0
  152.7132  137.5099  157.6987 H   0  0  0  0  0  0  0  0  0  0  0  0
  152.1016  140.0166  158.6577 H   0  0  0  0  0  0  0  0  0  0  0  0
  152.2209  142.1515  156.7057 H   0  0  0  0  0  0  0  0  0  0  0  0
  149.7982  142.1951  156.1780 H   0  0  0  0  0  0  0  0  0  0  0  0
  149.5511  140.7169  157.1007 H   0  0  0  0  0  0  0  0  0  0  0  0
  150.5201  140.6927  155.6298 H   0  0  0  0  0  0  0  0  0  0  0  0
  150.6821  141.7539  159.3044 H   0  0  0  0  0  0  0  0  0  0  0  0
  150.3207  143.8682  157.2619 H   0  0  0  0  0  0  0  0  0  0  0  0
  149.4038  143.6266  158.7441 H   0  0  0  0  0  0  0  0  0  0  0  0
  151.0059  145.7939  158.6192 H   0  0  0  0  0  0  0  0  0  0  0  0
  151.6261  145.5348  160.9990 H   0  0  0  0  0  0  0  0  0  0  0  0
  150.1711  144.5449  160.8783 H   0  0  0  0  0  0  0  0  0  0  0  0
  152.9321  143.6722  161.3686 H   0  0  0  0  0  0  0  0  0  0  0  0
  151.5126  142.6310  161.3070 H   0  0  0  0  0  0  0  0  0  0  0  0
  153.3498  142.3414  159.3595 H   0  0  0  0  0  0  0  0  0  0  0  0
  152.8804  144.2529  157.6052 H   0  0  0  0  0  0  0  0  0  0  0  0
  153.4383  144.9443  159.1452 H   0  0  0  0  0  0  0  0  0  0  0  0
  156.3597  139.4241  162.9368 H   0  0  0  0  0  0  0  0  0  0  0  0
  156.3964  140.9852  162.1358 H   0  0  0  0  0  0  0  0  0  0  0  0
  157.6326  139.7730  161.7737 H   0  0  0  0  0  0  0  0  0  0  0  0
  1  2  1  0  0  0  0
  1 25  1  0  0  0  0
  1 26  1  0  0  0  0
  1 27  1  0  0  0  0
  2 23  1  0  0  0  0
  2  3  2  0  0  0  0
  3  4  1  0  0  0  0
  4  5  1  0  0  0  0
  4 18  1  0  0  0  0
  5  6  1  0  0  0  0
  5 28  1  0  0  0  0
  5 29  1  0  0  0  0
  6  7  2  0  0  0  0
  6  8  1  0  0  0  0
  8  9  1  0  0  0  0
  8 30  1  0  0  0  0
  9 10  1  0  0  0  0
  9 11  1  0  0  0  0
  9 31  1  0  0  0  0
 10 32  1  0  0  0  0
 10 33  1  0  0  0  0
 10 34  1  0  0  0  0
 11 16  1  0  0  0  0
 11 12  1  0  0  0  0
 11 35  1  0  0  0  0
 12 13  1  0  0  0  0
 12 36  1  0  0  0  0
 12 37  1  0  0  0  0
 13 17  1  0  0  0  0
 13 14  1  0  0  0  0
 13 38  1  0  0  0  0
 14 15  1  0  0  0  0
 14 39  1  0  0  0  0
 14 40  1  0  0  0  0
 15 16  1  0  0  0  0
 15 41  1  0  0  0  0
 15 42  1  0  0  0  0
 16 17  1  0  0  0  0
 16 43  1  0  0  0  0
 17 44  1  0  0  0  0
 17 45  1  0  0  0  0
 18 19  2  0  0  0  0
 18 20  1  0  0  0  0
 20 21  1  0  0  0  0
 20 23  2  0  0  0  0
 21 22  3  0  0  0  0
 23 24  1  0  0  0  0
 24 46  1  0  0  0  0
 24 47  1  0  0  0  0
 24 48  1  0  0  0  0
M  END
> <s_m_source_file>
AV-unprocessed.smi

> <i_m_source_file_index>
1401

> <i_lp_mmshare_version>
43012

> <i_f3d_flags>
0

> <s_epik_input>
TiNDYyhjMVtDSDNdKWMoPU8pbihuYzFbQ0gzXSlbQ0gyXUMoPU8pW05IXVtDQEhdKFtDSDNdKVtDQEhdKFtDSDJdW0NASF0yMylbQ0BIXShbQ0gyXTMpW0NIMl1bQ0gyXTI=

> <s_epik_cmdline>
J2VwaWtfcHl0aG9uJywgJy1waCcsICc3LjAnLCAnLXRuJywgJzgnLCAnLW1hJywgJzIwMCcsICctbWV0YWxfYmluZGluZycsICctaW1hZScsICc8aW5maWxlLm1hZT4nLCAnLW9tYWUnLCAnPG91dGZpbGUubWFlPic=

> <r_lp_tautomer_probability>
1

> <r_epik_Ionization_Penalty>
2.16501e-08

> <r_epik_Ionization_Penalty_Charging>
2.29436e-11

> <r_epik_Ionization_Penalty_Neutral>
2.16271e-08

> <r_epik_State_Penalty>
-0

> <r_epik_Charging_Adjusted_Penalty>
2.29436e-11

> <i_epik_Tot_Q>
0

> <i_epik_Tot_abs_Q>
0

> <r_epik_Metal_State_Penalty>
-0

> <b_epik_Metal_Only>
0

> <s_lp_Force_Field>
OPLS_2005

> <r_lp_Energy>
65.2014

> <b_lp_Chiralities_Consistent>
1

> <s_lp_Variant>
AV-unprocessed.smi:1401-6

> <Gold.Version>
5.8.1

> <Gold.Id.Protein>
6NUR|6NUR_protein|mol2

> <Gold.PLP.Fitness>
51.7826

> <Gold.PLP.PLP>
-43.8144

> <Gold.PLP.part.hbond>
-3.0000

> <Gold.PLP.part.metal>
0.0000

> <Gold.PLP.part.buried>
-5.0488

> <Gold.PLP.part.nonpolar>
-35.9828

> <Gold.PLP.part.repulsive>
0.1220

> <Gold.PLP.ligand.clash>
0.0000

> <Gold.PLP.ligand.torsion>
0.5268

> <Gold.PLP.Chemscore.Hbond>
3.0000

> <Gold.PLP.Chemscore.CHOScore>
0.0000

> <Gold.PLP.Chemscore.Metal>
0.0000

> <Gold.Chemscore.Hbonds>
donor molecule, donor type, donor heavy atom, donor atom, acceptor molecule, acceptor atom, score
      P1  H  6896  6909       L1    19  0.32
      P1  H  7997  8009       L1     3  0.42
      P1  H  7997  8010       L1     7  0.42

> <Gold.PLP.Chemscore.Internal.Correction>
0.0219

> <Gold.Rescore>
     Score         DG    S(hbond)    S(metal)    S(lipo)     H(rot)  DE(clash)    DE(int)     intcor
     23.23     -24.03       2.32        0.00     127.93       1.63       0.10       0.70       ----

> <Gold.Chemscore.Fitness>
23.2334

> <Gold.Chemscore.DG>
-24.0280

> <Gold.Chemscore.ZeroCoef>
-5.4800

> <Gold.Chemscore.Hbond>
2.3197

> <Gold.Chemscore.Metal>
0.0000

> <Gold.Chemscore.Lipo>
127.9312

> <Gold.Chemscore.Internal_Hbond>
0.0000

> <Gold.Chemscore.DEClash>
0.0990

> <Gold.Chemscore.DEInternal>
0.6956

> <Gold.Chemscore.Rot>
1.6281

> <Gold.Chemscore.Internal.Correction>
   9.000000E+99

> <Gold.Chemscore.Hbonds>
donor molecule, donor type, donor heavy atom, donor atom, acceptor molecule, acceptor atom, score
      P1  H  6896  6909       L1    19  0.32
      P1  H  7997  8009       L1     3  0.38
      P1  H  7997  8010       L1     7  0.01

> <Gold.Chemscore.Hbond.Weighted>
-7.7479

> <Gold.Chemscore.Metal.Weighted>
-0.0000

> <Gold.Chemscore.Lipo.Weighted>
-14.9679

> <Gold.Chemscore.Internal_Hbond.Weighted>
0.0000

> <Gold.Chemscore.DEClash.Weighted>
0.0990

> <Gold.Chemscore.DEInternal.Weighted>
0.6956

> <Gold.Chemscore.Rot.Weighted>
4.1678

> <Gold.Chemscore.Internal.Correction.Weighted>
   9.000000E+99

> <Gold.Protein.RotatedTorsions>
[ 6907 6896 6895 6894 ] final  132.79 input  -60.11 | X-H torsion
[ 7974 7965 7964 7962 ] final  121.25 input  175.53 | X-H torsion
[ 8008 7997 7996 7995 ] final  100.87 input   59.86 | X-H torsion
[ 10167 10162 10161 10158 ] final  127.13 input  -65.29 | X-H torsion
[ 10718 10713 10712 10709 ] final   20.12 input   66.30 | X-H torsion
[ 10763 10752 10751 10750 ] final  134.38 input  -60.55 | X-H torsion
[ 11005 11000 10999 10996 ] final    4.78 input  -57.11 | X-H torsion

> <Gold.Protein.ActiveResidues>
 VAL166  LYS551  ARG553  GLY616  TRP617  ASP618  TYR619  PRO620  LYS621  CYS622 
 ASP623  PHE694  ASN695  SER759  ASP760  ASP761  ALA762  ILE779  LEU786  VAL792 
 PHE793  MET794  SER795  GLU796  ALA797  LYS798  CYS799  TRP800  GLU811  SER814 

> <Gold.Protein.RotatedAtoms>
  152.3287  133.5934  159.5794 H   0  0  0  0  0  0  0  0  0  0  0  0  # atno 6907 bound_to 6896
  150.7411  133.9901  159.3613 H   0  0  0  0  0  0  0  0  0  0  0  0  # atno 6908 bound_to 6896
  151.7778  135.0770  160.0420 H   0  0  0  0  0  0  0  0  0  0  0  0  # atno 6909 bound_to 6896
  145.1215  139.3386  143.4712 H   0  0  0  0  0  0  0  0  0  0  0  0  # atno 7974 bound_to 7965
  156.1245  140.3206  155.8257 H   0  0  0  0  0  0  0  0  0  0  0  0  # atno 8008 bound_to 7997
  155.4444  140.0528  157.3024 H   0  0  0  0  0  0  0  0  0  0  0  0  # atno 8009 bound_to 7997
  154.4852  140.2070  155.9685 H   0  0  0  0  0  0  0  0  0  0  0  0  # atno 8010 bound_to 7997
  139.5595  144.6872  151.4086 H   0  0  0  0  0  0  0  0  0  0  0  0  # atno 10167 bound_to 10162
  157.1201  130.6546  149.5921 H   0  0  0  0  0  0  0  0  0  0  0  0  # atno 10718 bound_to 10713
  153.8226  135.3114  155.3411 H   0  0  0  0  0  0  0  0  0  0  0  0  # atno 10763 bound_to 10752
  154.8006  135.4729  154.0270 H   0  0  0  0  0  0  0  0  0  0  0  0  # atno 10764 bound_to 10752
  153.1684  135.6873  153.8732 H   0  0  0  0  0  0  0  0  0  0  0  0  # atno 10765 bound_to 10752
  140.5781  134.0039  155.8036 H   0  0  0  0  0  0  0  0  0  0  0  0  # atno 11005 bound_to 11000
  146.3520  140.1176  142.8601 LP  0  0  0  0  0  0  0  0  0  0  0  0  # atno 17320 bound_to 7965
  145.0735  140.9172  143.4868 LP  0  0  0  0  0  0  0  0  0  0  0  0  # atno 17321 bound_to 7965
  140.6872  143.7945  150.7203 LP  0  0  0  0  0  0  0  0  0  0  0  0  # atno 17342 bound_to 10162
  140.1417  143.4435  152.2189 LP  0  0  0  0  0  0  0  0  0  0  0  0  # atno 17343 bound_to 10162
  155.9830  130.4848  150.6913 LP  0  0  0  0  0  0  0  0  0  0  0  0  # atno 17370 bound_to 10713
  157.4484  131.0869  151.0871 LP  0  0  0  0  0  0  0  0  0  0  0  0  # atno 17371 bound_to 10713
  141.1013  133.9763  157.3073 LP  0  0  0  0  0  0  0  0  0  0  0  0  # atno 17394 bound_to 11000
  139.9330  135.0198  156.8463 LP  0  0  0  0  0  0  0  0  0  0  0  0  # atno 17395 bound_to 11000

$$$$
