AV-unprocessed.smi:491|AV-procd|sdf|2707|dock1
  -GOLD-   2262023143D 1   1.00000     0.00000
 Structure written by MMmdl.
 45 46  0  0  0  0  0  0  0  0  1 V2000
  154.0997  133.0804  164.8621 C   0  0  0  0  0  0  0  0  0  0  0  0
  154.5095  133.3421  163.4051 C   0  0  0  0  0  0  0  0  0  0  0  0
  154.6868  134.7409  163.1135 N   0  0  0  0  0  0  0  0  0  0  0  0
  155.0488  135.6451  164.0900 C   0  0  0  0  0  0  0  0  0  0  0  0
  155.2195  136.9587  163.8360 C   0  0  0  0  0  0  0  0  0  0  0  0
  155.5902  137.8793  164.8592 C   0  0  0  0  0  0  0  0  0  0  0  0
  155.9152  138.6215  165.6856 N   0  0  0  0  0  0  0  0  0  0  0  0
  155.0263  137.4976  162.4923 C   0  0  0  0  0  0  0  0  0  0  0  0
  155.1461  138.6923  162.2163 O   0  0  0  0  0  0  0  0  0  0  0  0
  154.6701  136.5504  161.4983 N   0  0  0  0  0  0  0  0  0  0  0  0
  154.4309  137.0310  160.1163 C   0  0  0  0  0  0  0  0  0  0  0  0
  153.0755  137.7304  159.9044 C   0  0  0  0  0  0  0  0  0  0  0  0
  152.0367  137.1147  160.1393 O   0  0  0  0  0  0  0  0  0  0  0  0
  153.0850  138.9963  159.4593 N   0  0  0  0  0  0  0  0  0  0  0  0
  151.9074  139.8032  159.1773 C   0  0  0  0  0  0  0  0  0  0  0  0
  152.3052  141.2297  158.7511 C   0  0  0  0  0  0  0  0  0  0  0  0
  152.9594  141.9921  159.9212 C   0  0  0  0  0  0  0  0  0  0  0  0
  153.3792  143.4131  159.5114 C   0  0  0  0  0  0  0  0  0  0  0  0
  152.1879  144.2053  158.9521 C   0  0  0  0  0  0  0  0  0  0  0  0
  151.5308  143.4592  157.7810 C   0  0  0  0  0  0  0  0  0  0  0  0
  151.1126  142.0370  158.1877 C   0  0  0  0  0  0  0  0  0  0  0  0
  154.4933  135.1739  161.7812 C   0  0  0  0  0  0  0  0  0  0  0  0
  154.1699  134.3823  160.8920 O   0  0  0  0  0  0  0  0  0  0  0  0
  153.9434  132.0152  165.0324 H   0  0  0  0  0  0  0  0  0  0  0  0
  153.1703  133.5951  165.1074 H   0  0  0  0  0  0  0  0  0  0  0  0
  154.8644  133.4173  165.5623 H   0  0  0  0  0  0  0  0  0  0  0  0
  155.4318  132.8276  163.1287 H   0  0  0  0  0  0  0  0  0  0  0  0
  153.7380  132.9889  162.7197 H   0  0  0  0  0  0  0  0  0  0  0  0
  155.2015  135.2884  165.0987 H   0  0  0  0  0  0  0  0  0  0  0  0
  155.2195  137.7165  159.8026 H   0  0  0  0  0  0  0  0  0  0  0  0
  154.5025  136.2110  159.4003 H   0  0  0  0  0  0  0  0  0  0  0  0
  153.9812  139.4296  159.2920 H   0  0  0  0  0  0  0  0  0  0  0  0
  151.3239  139.3205  158.3918 H   0  0  0  0  0  0  0  0  0  0  0  0
  151.2770  139.8431  160.0672 H   0  0  0  0  0  0  0  0  0  0  0  0
  153.0504  141.1398  157.9586 H   0  0  0  0  0  0  0  0  0  0  0  0
  152.2634  142.0479  160.7597 H   0  0  0  0  0  0  0  0  0  0  0  0
  153.8319  141.4459  160.2817 H   0  0  0  0  0  0  0  0  0  0  0  0
  153.8032  143.9367  160.3687 H   0  0  0  0  0  0  0  0  0  0  0  0
  154.1686  143.3594  158.7604 H   0  0  0  0  0  0  0  0  0  0  0  0
  151.4529  144.3674  159.7415 H   0  0  0  0  0  0  0  0  0  0  0  0
  152.5167  145.1929  158.6273 H   0  0  0  0  0  0  0  0  0  0  0  0
  150.6615  144.0145  157.4277 H   0  0  0  0  0  0  0  0  0  0  0  0
  152.2271  143.4091  156.9428 H   0  0  0  0  0  0  0  0  0  0  0  0
  150.6834  141.5351  157.3199 H   0  0  0  0  0  0  0  0  0  0  0  0
  150.3193  142.0909  158.9344 H   0  0  0  0  0  0  0  0  0  0  0  0
  1  2  1  0  0  0  0
  1 24  1  0  0  0  0
  1 25  1  0  0  0  0
  1 26  1  0  0  0  0
  2  3  1  0  0  0  0
  2 27  1  0  0  0  0
  2 28  1  0  0  0  0
  3 22  1  0  0  0  0
  3  4  1  0  0  0  0
  4  5  2  0  0  0  0
  4 29  1  0  0  0  0
  5  6  1  0  0  0  0
  5  8  1  0  0  0  0
  6  7  3  0  0  0  0
  8  9  2  0  0  0  0
  8 10  1  0  0  0  0
 10 11  1  0  0  0  0
 10 22  1  0  0  0  0
 11 12  1  0  0  0  0
 11 30  1  0  0  0  0
 11 31  1  0  0  0  0
 12 13  2  0  0  0  0
 12 14  1  0  0  0  0
 14 15  1  0  0  0  0
 14 32  1  0  0  0  0
 15 16  1  0  0  0  0
 15 33  1  0  0  0  0
 15 34  1  0  0  0  0
 16 21  1  0  0  0  0
 16 17  1  0  0  0  0
 16 35  1  0  0  0  0
 17 18  1  0  0  0  0
 17 36  1  0  0  0  0
 17 37  1  0  0  0  0
 18 19  1  0  0  0  0
 18 38  1  0  0  0  0
 18 39  1  0  0  0  0
 19 20  1  0  0  0  0
 19 40  1  0  0  0  0
 19 41  1  0  0  0  0
 20 21  1  0  0  0  0
 20 42  1  0  0  0  0
 20 43  1  0  0  0  0
 21 44  1  0  0  0  0
 21 45  1  0  0  0  0
 22 23  2  0  0  0  0
M  END
> <s_m_source_file>
AV-unprocessed.smi

> <i_m_source_file_index>
491

> <i_lp_mmshare_version>
43012

> <i_f3d_flags>
0

> <s_epik_input>
W0NIM11bQ0gyXW4xW2NIXWMoQyNOKWMoPU8pbihjMT1PKVtDSDJdQyg9TylbTkhdW0NIMl1bQ0hdMltDSDJdW0NIMl1bQ0gyXVtDSDJdW0NIMl0y

> <s_epik_cmdline>
J2VwaWtfcHl0aG9uJywgJy1waCcsICc3LjAnLCAnLXRuJywgJzgnLCAnLW1hJywgJzIwMCcsICctbWV0YWxfYmluZGluZycsICctaW1hZScsICc8aW5maWxlLm1hZT4nLCAnLW9tYWUnLCAnPG91dGZpbGUubWFlPic=

> <r_lp_tautomer_probability>
1

> <r_epik_Ionization_Penalty>
1.98356e-08

> <r_epik_Ionization_Penalty_Charging>
3.77777e-11

> <r_epik_Ionization_Penalty_Neutral>
1.97978e-08

> <r_epik_State_Penalty>
-0

> <r_epik_Charging_Adjusted_Penalty>
3.77777e-11

> <i_epik_Tot_Q>
0

> <i_epik_Tot_abs_Q>
0

> <r_epik_Metal_State_Penalty>
-0

> <b_epik_Metal_Only>
0

> <s_lp_Force_Field>
OPLS_2005

> <r_lp_Energy>
13.3995

> <b_lp_Chiralities_Consistent>
1

> <s_lp_Variant>
AV-unprocessed.smi:491-1

> <Gold.Version>
5.8.1

> <Gold.Id.Protein>
6NUR|6NUR_protein|mol2

> <Gold.PLP.Fitness>
46.5361

> <Gold.PLP.PLP>
-44.7595

> <Gold.PLP.part.hbond>
-1.8692

> <Gold.PLP.part.metal>
0.0000

> <Gold.PLP.part.buried>
-6.1729

> <Gold.PLP.part.nonpolar>
-37.4724

> <Gold.PLP.part.repulsive>
0.1936

> <Gold.PLP.ligand.clash>
0.0000

> <Gold.PLP.ligand.torsion>
0.6484

> <Gold.PLP.Chemscore.Hbond>
1.0000

> <Gold.PLP.Chemscore.CHOScore>
0.0000

> <Gold.PLP.Chemscore.Metal>
0.0000

> <Gold.Chemscore.Hbonds>
donor molecule, donor type, donor heavy atom, donor atom, acceptor molecule, acceptor atom, score
      P1  H  6896  6909       L1    13  1.00

> <Gold.PLP.Chemscore.Internal.Correction>
0.0735

> <Gold.Rescore>
     Score         DG    S(hbond)    S(metal)    S(lipo)     H(rot)  DE(clash)    DE(int)     intcor
     15.28     -15.66       0.99        0.00     101.27       1.95       0.02       0.36       ----

> <Gold.Chemscore.Fitness>
15.2757

> <Gold.Chemscore.DG>
-15.6603

> <Gold.Chemscore.ZeroCoef>
-5.4800

> <Gold.Chemscore.Hbond>
0.9918

> <Gold.Chemscore.Metal>
0.0000

> <Gold.Chemscore.Lipo>
101.2743

> <Gold.Chemscore.Internal_Hbond>
0.0000

> <Gold.Chemscore.DEClash>
0.0241

> <Gold.Chemscore.DEInternal>
0.3605

> <Gold.Chemscore.Rot>
1.9458

> <Gold.Chemscore.Internal.Correction>
   9.000000E+99

> <Gold.Chemscore.Hbonds>
donor molecule, donor type, donor heavy atom, donor atom, acceptor molecule, acceptor atom, score
      P1  H  6896  6909       L1    13  0.96

> <Gold.Chemscore.Hbond.Weighted>
-3.3125

> <Gold.Chemscore.Metal.Weighted>
-0.0000

> <Gold.Chemscore.Lipo.Weighted>
-11.8491

> <Gold.Chemscore.Internal_Hbond.Weighted>
0.0000

> <Gold.Chemscore.DEClash.Weighted>
0.0241

> <Gold.Chemscore.DEInternal.Weighted>
0.3605

> <Gold.Chemscore.Rot.Weighted>
4.9813

> <Gold.Chemscore.Internal.Correction.Weighted>
   9.000000E+99

> <Gold.Protein.RotatedTorsions>
[ 6907 6896 6895 6894 ] final  138.55 input  -60.11 | X-H torsion
[ 7974 7965 7964 7962 ] final -170.60 input  175.53 | X-H torsion
[ 8008 7997 7996 7995 ] final  -62.97 input   59.86 | X-H torsion
[ 10167 10162 10161 10158 ] final   12.05 input  -65.29 | X-H torsion
[ 10718 10713 10712 10709 ] final   45.69 input   66.30 | X-H torsion
[ 10763 10752 10751 10750 ] final   35.29 input  -60.55 | X-H torsion
[ 11005 11000 10999 10996 ] final -167.06 input  -57.11 | X-H torsion

> <Gold.Protein.ActiveResidues>
 VAL166  LYS551  ARG553  GLY616  TRP617  ASP618  TYR619  PRO620  LYS621  CYS622 
 ASP623  PHE694  ASN695  SER759  ASP760  ASP761  ALA762  ILE779  LEU786  VAL792 
 PHE793  MET794  SER795  GLU796  ALA797  LYS798  CYS799  TRP800  GLU811  SER814 

> <Gold.Protein.RotatedAtoms>
  152.2653  133.5333  159.5405 H   0  0  0  0  0  0  0  0  0  0  0  0  # atno 6907 bound_to 6896
  150.7139  134.0773  159.3894 H   0  0  0  0  0  0  0  0  0  0  0  0  # atno 6908 bound_to 6896
  151.8690  135.0496  160.0528 H   0  0  0  0  0  0  0  0  0  0  0  0  # atno 6909 bound_to 6896
  144.7168  140.2048  143.6334 H   0  0  0  0  0  0  0  0  0  0  0  0  # atno 7974 bound_to 7965
  154.4528  140.0985  156.6670 H   0  0  0  0  0  0  0  0  0  0  0  0  # atno 8008 bound_to 7997
  155.5230  140.3479  155.4392 H   0  0  0  0  0  0  0  0  0  0  0  0  # atno 8009 bound_to 7997
  156.0717  140.1351  156.9809 H   0  0  0  0  0  0  0  0  0  0  0  0  # atno 8010 bound_to 7997
  140.6093  143.8442  150.7048 H   0  0  0  0  0  0  0  0  0  0  0  0  # atno 10167 bound_to 10162
  157.4402  130.8077  149.7687 H   0  0  0  0  0  0  0  0  0  0  0  0  # atno 10718 bound_to 10713
  153.0126  135.6337  154.1803 H   0  0  0  0  0  0  0  0  0  0  0  0  # atno 10763 bound_to 10752
  154.1544  135.2827  155.3128 H   0  0  0  0  0  0  0  0  0  0  0  0  # atno 10764 bound_to 10752
  154.6029  135.5581  153.7453 H   0  0  0  0  0  0  0  0  0  0  0  0  # atno 10765 bound_to 10752
  140.5575  134.5366  157.5136 H   0  0  0  0  0  0  0  0  0  0  0  0  # atno 11005 bound_to 11000
  145.8646  139.2240  143.1696 LP  0  0  0  0  0  0  0  0  0  0  0  0  # atno 17320 bound_to 7965
  146.0141  140.8408  142.9956 LP  0  0  0  0  0  0  0  0  0  0  0  0  # atno 17321 bound_to 7965
  140.2006  143.3962  152.1794 LP  0  0  0  0  0  0  0  0  0  0  0  0  # atno 17342 bound_to 10162
  139.5349  144.7199  151.4928 LP  0  0  0  0  0  0  0  0  0  0  0  0  # atno 17343 bound_to 10162
  155.9946  130.3917  150.2853 LP  0  0  0  0  0  0  0  0  0  0  0  0  # atno 17370 bound_to 10713
  157.1017  131.0197  151.3083 LP  0  0  0  0  0  0  0  0  0  0  0  0  # atno 17371 bound_to 10713
  139.9424  134.7763  156.0645 LP  0  0  0  0  0  0  0  0  0  0  0  0  # atno 17394 bound_to 11000
  141.1135  133.6635  156.3035 LP  0  0  0  0  0  0  0  0  0  0  0  0  # atno 17395 bound_to 11000

$$$$
