AV-unprocessed.smi:72|AV-procd|sdf|730|dock10
  -GOLD-   2262017 63D 1   1.00000     0.00000
 Structure written by MMmdl.
 28 29  0  0  0  0  0  0  0  0  2 V2000
  154.3967  138.3021  154.5194 N   0  0  0  0  0  0  0  0  0  0  0  0
  153.1608  138.5282  154.6280 C   0  0  0  0  0  0  0  0  0  0  0  0
  152.2066  137.6617  153.9709 N   0  0  0  0  0  0  0  0  0  0  0  0
  150.9460  137.9376  154.1071 C   0  0  0  0  0  0  0  0  0  0  0  0
  150.4879  139.0782  154.8883 N   0  0  0  0  0  0  0  0  0  0  0  0
  149.0080  139.3764  155.0412 C   0  0  1  0  0  0  0  0  0  0  0  0
  148.7465  139.7153  156.3716 O   0  0  0  0  0  0  0  0  0  0  0  0
  147.8356  140.8086  156.4186 C   0  0  1  0  0  0  0  0  0  0  0  0
  147.9267  141.5527  157.7625 C   0  0  0  0  0  0  0  0  0  0  0  0
  147.0673  142.6730  157.7576 O   0  0  0  0  0  0  0  0  0  0  0  0
  148.2076  141.6336  155.1792 C   0  0  1  0  0  0  0  0  0  0  0  0
  149.3151  142.4794  155.4442 O   0  0  0  0  0  0  0  0  0  0  0  0
  148.5306  140.5490  154.1567 C   0  0  1  0  0  0  0  0  0  0  0  0
  149.4345  140.9800  153.1533 O   0  0  0  0  0  0  0  0  0  0  0  0
  151.4462  139.9032  155.5362 C   0  0  0  0  0  0  0  0  0  0  0  0
  151.0398  140.8439  156.2185 O   0  0  0  0  0  0  0  0  0  0  0  0
  152.7684  139.6107  155.3844 N   0  5  0  0  0  0  0  0  0  0  0  0
  148.4800  138.4462  154.8273 H   0  0  0  0  0  0  0  0  0  0  0  0
  146.8258  140.4198  156.2725 H   0  0  0  0  0  0  0  0  0  0  0  0
  147.3778  142.2597  154.8499 H   0  0  0  0  0  0  0  0  0  0  0  0
  147.6055  140.2305  153.6743 H   0  0  0  0  0  0  0  0  0  0  0  0
  154.9615  138.9714  155.0216 H   0  0  0  0  0  0  0  0  0  0  0  0
  150.1573  137.3371  153.6528 H   0  0  0  0  0  0  0  0  0  0  0  0
  147.6866  140.8945  158.5983 H   0  0  0  0  0  0  0  0  0  0  0  0
  148.9405  141.9223  157.9188 H   0  0  0  0  0  0  0  0  0  0  0  0
  147.1923  143.1437  156.9478 H   0  0  0  0  0  0  0  0  0  0  0  0
  148.9965  143.3648  155.5341 H   0  0  0  0  0  0  0  0  0  0  0  0
  149.4507  140.3277  152.4692 H   0  0  0  0  0  0  0  0  0  0  0  0
  1  2  2  0  0  0  0
  1 22  1  0  0  0  0
  2 17  1  0  0  0  0
  2  3  1  0  0  0  0
  3  4  2  0  0  0  0
  4  5  1  0  0  0  0
  4 23  1  0  0  0  0
  5  6  1  0  0  0  0
  5 15  1  0  0  0  0
  6 18  1  0  0  0  0
  6 13  1  0  0  0  0
  6  7  1  0  0  0  0
  7  8  1  0  0  0  0
  8 19  1  0  0  0  0
  8  9  1  0  0  0  0
  8 11  1  0  0  0  0
  9 10  1  0  0  0  0
  9 24  1  0  0  0  0
  9 25  1  0  0  0  0
 10 26  1  0  0  0  0
 11 20  1  0  0  0  0
 11 12  1  0  0  0  0
 11 13  1  0  0  0  0
 12 27  1  0  0  0  0
 13 21  1  0  0  0  0
 13 14  1  0  0  0  0
 14 28  1  0  0  0  0
 15 16  2  0  0  0  0
 15 17  1  0  0  0  0
M  CHG  1  17  -1
M  END
> <s_m_source_file>
AV-unprocessed.smi

> <i_m_source_file_index>
72

> <i_lp_mmshare_version>
43012

> <i_f3d_flags>
0

> <s_epik_input>
W05IMl1jMW5bY0hdbihjKD1PKW4xKVtDQEBIXTJPW0NASF0oW0NIMl1bT0hdKVtDQEBIXShbT0hdKVtDQEhdMltPSF0=

> <s_epik_cmdline>
J2VwaWtfcHl0aG9uJywgJy1waCcsICc3LjAnLCAnLXRuJywgJzgnLCAnLW1hJywgJzIwMCcsICctbWV0YWxfYmluZGluZycsICctaW1hZScsICc8aW5maWxlLm1hZT4nLCAnLW9tYWUnLCAnPG91dGZpbGUubWFlPic=

> <r_lp_tautomer_probability>
7.17554e-07

> <r_epik_Ionization_Penalty>
12.8705

> <r_epik_Ionization_Penalty_Charging>
5.64144

> <r_epik_Ionization_Penalty_Neutral>
7.22905

> <r_epik_State_Penalty>
3.30104

> <r_epik_Charging_Adjusted_Penalty>
8.94249

> <i_epik_Tot_Q>
-1

> <i_epik_Tot_abs_Q>
1

> <r_epik_Metal_State_Penalty>
0.529074

> <b_epik_Metal_Only>
1

> <s_epik_Chemistry_Notes>
This compound contains an acetal/aminal-like group ( X-CH(R)-Y where X, Y are N, S, or O) that may be acid/base labile, releasing an aldehyde.

> <s_lp_Force_Field>
OPLS_2005

> <r_lp_Energy>
43.5676

> <b_lp_Chiralities_Consistent>
1

> <s_lp_Variant>
AV-unprocessed.smi:72-68

> <Gold.Version>
5.8.1

> <Gold.Id.Protein>
6NUR|6NUR_protein|mol2

> <Gold.PLP.Fitness>
45.6621

> <Gold.PLP.PLP>
-28.3251

> <Gold.PLP.part.hbond>
-6.1105

> <Gold.PLP.part.metal>
0.0000

> <Gold.PLP.part.buried>
-5.2824

> <Gold.PLP.part.nonpolar>
-18.2689

> <Gold.PLP.part.repulsive>
0.1805

> <Gold.PLP.ligand.clash>
0.0102

> <Gold.PLP.ligand.torsion>
0.4741

> <Gold.PLP.Chemscore.Hbond>
5.0313

> <Gold.PLP.Chemscore.CHOScore>
1.0654

> <Gold.PLP.Chemscore.Metal>
0.0000

> <Gold.Chemscore.Hbonds>
donor molecule, donor type, donor heavy atom, donor atom, acceptor molecule, acceptor atom, score
      L1  H    12    27       P1  8028  0.57
      L1  H    14    28       P1  7957  0.51
      P1  H  7989  7998       L1    14  0.06
      P1  H  7997  8009       L1    17  1.82
      P1  H  8011  8017       L1    14  1.00
      P1  H 10752 10764       L1     3  0.61
      L1  C     4    23       P1  7948  1.00
      L1  C     4    23       P1  7949  0.06

> <Gold.PLP.Chemscore.Internal.Correction>
0.0055

> <Gold.Rescore>
     Score         DG    S(hbond)    S(metal)    S(lipo)     H(rot)  DE(clash)    DE(int)     intcor
      5.33      -9.35       3.65        0.00      17.26       4.04       0.06       3.96       ----

> <Gold.Chemscore.Fitness>
5.3255

> <Gold.Chemscore.DG>
-9.3482

> <Gold.Chemscore.ZeroCoef>
-5.4800

> <Gold.Chemscore.Hbond>
3.6503

> <Gold.Chemscore.Metal>
0.0000

> <Gold.Chemscore.Lipo>
17.2588

> <Gold.Chemscore.Internal_Hbond>
0.0000

> <Gold.Chemscore.DEClash>
0.0617

> <Gold.Chemscore.DEInternal>
3.9610

> <Gold.Chemscore.Rot>
4.0403

> <Gold.Chemscore.Internal.Correction>
   9.000000E+99

> <Gold.Chemscore.Hbonds>
donor molecule, donor type, donor heavy atom, donor atom, acceptor molecule, acceptor atom, score
      L1  H    12    27       P1  8028  0.58
      L1  H    14    28       P1  7957  0.50
      P1  H  7989  7998       L1    14  0.01
      P1  H  7997  8009       L1    17  0.44
      P1  H  8011  8017       L1    14  0.40
      P1  H 10752 10764       L1     3  0.30

> <Gold.Chemscore.Hbond.Weighted>
-12.1920

> <Gold.Chemscore.Metal.Weighted>
-0.0000

> <Gold.Chemscore.Lipo.Weighted>
-2.0193

> <Gold.Chemscore.Internal_Hbond.Weighted>
0.0000

> <Gold.Chemscore.DEClash.Weighted>
0.0617

> <Gold.Chemscore.DEInternal.Weighted>
3.9610

> <Gold.Chemscore.Rot.Weighted>
10.3431

> <Gold.Chemscore.Internal.Correction.Weighted>
   9.000000E+99

> <Gold.Protein.RotatedTorsions>
[ 6907 6896 6895 6894 ] final -139.13 input  -60.11 | X-H torsion
[ 7974 7965 7964 7962 ] final  106.67 input  175.53 | X-H torsion
[ 8008 7997 7996 7995 ] final -169.07 input   59.86 | X-H torsion
[ 10167 10162 10161 10158 ] final  170.15 input  -65.29 | X-H torsion
[ 10718 10713 10712 10709 ] final -122.48 input   66.30 | X-H torsion
[ 10763 10752 10751 10750 ] final  -83.38 input  -60.55 | X-H torsion
[ 11005 11000 10999 10996 ] final  -63.81 input  -57.11 | X-H torsion

> <Gold.Protein.ActiveResidues>
 VAL166  LYS551  ARG553  GLY616  TRP617  ASP618  TYR619  PRO620  LYS621  CYS622 
 ASP623  PHE694  ASN695  SER759  ASP760  ASP761  ALA762  ILE779  LEU786  VAL792 
 PHE793  MET794  SER795  GLU796  ALA797  LYS798  CYS799  TRP800  GLU811  SER814 

> <Gold.Protein.RotatedAtoms>
  151.0439  133.5682  159.2648 H   0  0  0  0  0  0  0  0  0  0  0  0  # atno 6907 bound_to 6896
  151.2718  135.0686  159.9147 H   0  0  0  0  0  0  0  0  0  0  0  0  # atno 6908 bound_to 6896
  152.5369  134.0168  159.8017 H   0  0  0  0  0  0  0  0  0  0  0  0  # atno 6909 bound_to 6896
  145.3036  139.2562  143.3801 H   0  0  0  0  0  0  0  0  0  0  0  0  # atno 7974 bound_to 7965
  155.9000  140.1039  157.1357 H   0  0  0  0  0  0  0  0  0  0  0  0  # atno 8008 bound_to 7997
  154.4025  140.1294  156.4488 H   0  0  0  0  0  0  0  0  0  0  0  0  # atno 8009 bound_to 7997
  155.7434  140.3466  155.5117 H   0  0  0  0  0  0  0  0  0  0  0  0  # atno 8010 bound_to 7997
  139.5011  144.3628  151.9806 H   0  0  0  0  0  0  0  0  0  0  0  0  # atno 10167 bound_to 10162
  156.1422  130.6474  150.9788 H   0  0  0  0  0  0  0  0  0  0  0  0  # atno 10718 bound_to 10713
  154.5870  135.5558  153.7241 H   0  0  0  0  0  0  0  0  0  0  0  0  # atno 10763 bound_to 10752
  153.0102  135.6334  154.1902 H   0  0  0  0  0  0  0  0  0  0  0  0  # atno 10764 bound_to 10752
  154.1843  135.2885  155.3022 H   0  0  0  0  0  0  0  0  0  0  0  0  # atno 10765 bound_to 10752
  141.1405  133.6657  156.5737 H   0  0  0  0  0  0  0  0  0  0  0  0  # atno 11005 bound_to 11000
  146.3143  140.3555  142.8660 LP  0  0  0  0  0  0  0  0  0  0  0  0  # atno 17320 bound_to 7965
  144.9073  140.7716  143.5829 LP  0  0  0  0  0  0  0  0  0  0  0  0  # atno 17321 bound_to 7965
  140.3065  144.3587  150.6045 LP  0  0  0  0  0  0  0  0  0  0  0  0  # atno 17342 bound_to 10162
  140.5833  143.2171  151.7389 LP  0  0  0  0  0  0  0  0  0  0  0  0  # atno 17343 bound_to 10162
  157.6585  131.0885  150.7892 LP  0  0  0  0  0  0  0  0  0  0  0  0  # atno 17370 bound_to 10713
  156.7966  130.4907  149.5376 LP  0  0  0  0  0  0  0  0  0  0  0  0  # atno 17371 bound_to 10713
  140.3893  134.7455  157.4711 LP  0  0  0  0  0  0  0  0  0  0  0  0  # atno 17394 bound_to 11000
  140.0578  134.6038  155.8784 LP  0  0  0  0  0  0  0  0  0  0  0  0  # atno 17395 bound_to 11000

$$$$
