AV-unprocessed.smi:500|AV-procd|sdf|2738|dock3
  -GOLD-   2262023193D 1   1.00000     0.00000
 Structure written by MMmdl.
 44 46  0  0  0  0  0  0  0  0  2 V2000
  150.7481  137.4840  154.7719 C   0  0  0  0  0  0  0  0  0  0  0  0
  150.1359  138.8855  154.7203 C   0  0  0  0  0  0  0  0  0  0  0  0
  151.1366  139.8338  155.0615 O   0  0  0  0  0  0  0  0  0  0  0  0
  150.7221  140.7797  156.0364 C   0  0  0  0  0  0  0  0  0  0  0  0
  150.5214  140.1183  157.4110 C   0  0  0  0  0  0  0  0  0  0  0  0
  151.4175  140.6860  158.4199 N   0  0  0  0  0  0  0  0  0  0  0  0
  152.2687  140.0709  159.2992 C   0  0  0  0  0  0  0  0  0  0  0  0
  152.4578  138.5648  159.3991 C   0  0  2  0  0  0  0  0  0  0  0  0
  151.1073  137.8479  159.5355 C   0  0  0  0  0  0  0  0  0  0  0  0
  153.3208  138.1723  160.5167 N   0  5  0  0  0  0  0  0  0  0  0  0
  153.6315  136.8827  160.8307 C   0  0  0  0  0  0  0  0  0  0  0  0
  153.6969  135.8878  160.1007 O   0  0  0  0  0  0  0  0  0  0  0  0
  153.9291  136.7092  162.2721 C   0  0  0  0  0  0  0  0  0  0  0  0
  153.8282  137.6036  163.3049 C   0  0  0  0  0  0  0  0  0  0  0  0
  154.2364  136.9200  164.4836 C   0  0  0  0  0  0  0  0  0  0  0  0
  154.5603  135.6539  164.0895 C   0  0  0  0  0  0  0  0  0  0  0  0
  154.3797  135.5080  162.7493 O   0  0  0  0  0  0  0  0  0  0  0  0
  152.9396  140.9000  160.1070 N   0  0  0  0  0  0  0  0  0  0  0  0
  152.5131  142.1489  159.7089 C   0  0  0  0  0  0  0  0  0  0  0  0
  152.8704  143.4327  160.1794 C   0  0  0  0  0  0  0  0  0  0  0  0
  152.2949  144.5871  159.6102 C   0  0  0  0  0  0  0  0  0  0  0  0
  151.3557  144.4734  158.5651 C   0  0  0  0  0  0  0  0  0  0  0  0
  150.9857  143.2028  158.0835 C   0  0  0  0  0  0  0  0  0  0  0  0
  151.5631  142.0522  158.6555 C   0  0  0  0  0  0  0  0  0  0  0  0
  150.0073  136.7254  154.5184 H   0  0  0  0  0  0  0  0  0  0  0  0
  151.1292  137.2602  155.7686 H   0  0  0  0  0  0  0  0  0  0  0  0
  151.5756  137.3930  154.0677 H   0  0  0  0  0  0  0  0  0  0  0  0
  149.7404  139.0758  153.7226 H   0  0  0  0  0  0  0  0  0  0  0  0
  149.3025  138.9511  155.4213 H   0  0  0  0  0  0  0  0  0  0  0  0
  151.4243  141.6119  156.0892 H   0  0  0  0  0  0  0  0  0  0  0  0
  149.7731  141.2010  155.7041 H   0  0  0  0  0  0  0  0  0  0  0  0
  149.4919  140.2653  157.7380 H   0  0  0  0  0  0  0  0  0  0  0  0
  150.6557  139.0383  157.3683 H   0  0  0  0  0  0  0  0  0  0  0  0
  152.8944  138.2229  158.4604 H   0  0  0  0  0  0  0  0  0  0  0  0
  150.4571  138.0818  158.6921 H   0  0  0  0  0  0  0  0  0  0  0  0
  150.5875  138.1456  160.4470 H   0  0  0  0  0  0  0  0  0  0  0  0
  151.2342  136.7651  159.5617 H   0  0  0  0  0  0  0  0  0  0  0  0
  153.4981  138.6284  163.2202 H   0  0  0  0  0  0  0  0  0  0  0  0
  154.2862  137.3057  165.4910 H   0  0  0  0  0  0  0  0  0  0  0  0
  154.9181  134.7748  164.6046 H   0  0  0  0  0  0  0  0  0  0  0  0
  153.5902  143.5271  160.9787 H   0  0  0  0  0  0  0  0  0  0  0  0
  152.5765  145.5633  159.9763 H   0  0  0  0  0  0  0  0  0  0  0  0
  150.9197  145.3621  158.1327 H   0  0  0  0  0  0  0  0  0  0  0  0
  150.2672  143.1147  157.2824 H   0  0  0  0  0  0  0  0  0  0  0  0
  1  2  1  0  0  0  0
  1 25  1  0  0  0  0
  1 26  1  0  0  0  0
  1 27  1  0  0  0  0
  2  3  1  0  0  0  0
  2 28  1  0  0  0  0
  2 29  1  0  0  0  0
  3  4  1  0  0  0  0
  4  5  1  0  0  0  0
  4 30  1  0  0  0  0
  4 31  1  0  0  0  0
  5  6  1  0  0  0  0
  5 32  1  0  0  0  0
  5 33  1  0  0  0  0
  6 24  1  0  0  0  0
  6  7  1  0  0  0  0
  7  8  1  0  0  0  0
  7 18  2  0  0  0  0
  8  9  1  0  0  0  0
  8 10  1  0  0  0  0
  8 34  1  0  0  0  0
  9 35  1  0  0  0  0
  9 36  1  0  0  0  0
  9 37  1  0  0  0  0
 10 11  1  0  0  0  0
 11 12  2  0  0  0  0
 11 13  1  0  0  0  0
 13 17  1  0  0  0  0
 13 14  2  0  0  0  0
 14 15  1  0  0  0  0
 14 38  1  0  0  0  0
 15 16  2  0  0  0  0
 15 39  1  0  0  0  0
 16 17  1  0  0  0  0
 16 40  1  0  0  0  0
 18 19  1  0  0  0  0
 19 24  2  0  0  0  0
 19 20  1  0  0  0  0
 20 21  2  0  0  0  0
 20 41  1  0  0  0  0
 21 22  1  0  0  0  0
 21 42  1  0  0  0  0
 22 23  2  0  0  0  0
 22 43  1  0  0  0  0
 23 24  1  0  0  0  0
 23 44  1  0  0  0  0
M  CHG  1  10  -1
M  END
> <s_m_source_file>
AV-unprocessed.smi

> <i_m_source_file_index>
500

> <i_lp_mmshare_version>
43012

> <i_f3d_flags>
0

> <s_epik_input>
W0NIM11bQ0gyXU9bQ0gyXVtDSDJdbihjKGMxMilbY0hdW2NIXVtjSF1bY0hdMiljKG4xKVtDQEhdKFtDSDNdKVtOSF1DKD1PKWMzW2NIXVtjSF1bY0hdbzM=

> <s_epik_cmdline>
J2VwaWtfcHl0aG9uJywgJy1waCcsICc3LjAnLCAnLXRuJywgJzgnLCAnLW1hJywgJzIwMCcsICctbWV0YWxfYmluZGluZycsICctaW1hZScsICc8aW5maWxlLm1hZT4nLCAnLW9tYWUnLCAnPG91dGZpbGUubWFlPic=

> <r_epik_Ionization_Penalty>
7.31223

> <r_epik_Ionization_Penalty_Charging>
6.43826

> <r_epik_Ionization_Penalty_Neutral>
0.873973

> <r_epik_State_Penalty>
6.5378

> <r_epik_Charging_Adjusted_Penalty>
12.9761

> <i_epik_Tot_Q>
-1

> <i_epik_Tot_abs_Q>
1

> <r_epik_Metal_State_Penalty>
2.55818

> <b_epik_Metal_Only>
1

> <s_lp_Force_Field>
OPLS_2005

> <r_lp_Energy>
15.486

> <b_lp_Chiralities_Consistent>
1

> <s_lp_Variant>
AV-unprocessed.smi:500-5

> <Gold.Version>
5.8.1

> <Gold.Id.Protein>
6NUR|6NUR_protein|mol2

> <Gold.PLP.Fitness>
58.8550

> <Gold.PLP.PLP>
-54.8097

> <Gold.PLP.part.hbond>
-1.9801

> <Gold.PLP.part.metal>
0.0000

> <Gold.PLP.part.buried>
-7.4248

> <Gold.PLP.part.nonpolar>
-45.6065

> <Gold.PLP.part.repulsive>
0.0597

> <Gold.PLP.ligand.clash>
0.0000

> <Gold.PLP.ligand.torsion>
1.1070

> <Gold.PLP.Chemscore.Hbond>
1.9913

> <Gold.PLP.Chemscore.CHOScore>
0.0000

> <Gold.PLP.Chemscore.Metal>
0.0000

> <Gold.Chemscore.Hbonds>
donor molecule, donor type, donor heavy atom, donor atom, acceptor molecule, acceptor atom, score
      P1  H  6896  6908       L1    12  1.00
      P1  H  7989  7998       L1     3  1.00

> <Gold.PLP.Chemscore.Internal.Correction>
0.2856

> <Gold.Rescore>
     Score         DG    S(hbond)    S(metal)    S(lipo)     H(rot)  DE(clash)    DE(int)     intcor
     21.18     -22.55       1.89        0.00     132.21       1.84       0.01       1.36       ----

> <Gold.Chemscore.Fitness>
21.1808

> <Gold.Chemscore.DG>
-22.5522

> <Gold.Chemscore.ZeroCoef>
-5.4800

> <Gold.Chemscore.Hbond>
1.8892

> <Gold.Chemscore.Metal>
0.0000

> <Gold.Chemscore.Lipo>
132.2079

> <Gold.Chemscore.Internal_Hbond>
0.0000

> <Gold.Chemscore.DEClash>
0.0128

> <Gold.Chemscore.DEInternal>
1.3587

> <Gold.Chemscore.Rot>
1.8382

> <Gold.Chemscore.Internal.Correction>
   9.000000E+99

> <Gold.Chemscore.Hbonds>
donor molecule, donor type, donor heavy atom, donor atom, acceptor molecule, acceptor atom, score
      P1  H  6896  6908       L1    12  0.99
      P1  H  7989  7998       L1     3  0.41

> <Gold.Chemscore.Hbond.Weighted>
-6.3098

> <Gold.Chemscore.Metal.Weighted>
-0.0000

> <Gold.Chemscore.Lipo.Weighted>
-15.4683

> <Gold.Chemscore.Internal_Hbond.Weighted>
0.0000

> <Gold.Chemscore.DEClash.Weighted>
0.0128

> <Gold.Chemscore.DEInternal.Weighted>
1.3587

> <Gold.Chemscore.Rot.Weighted>
4.7059

> <Gold.Chemscore.Internal.Correction.Weighted>
   9.000000E+99

> <Gold.Protein.RotatedTorsions>
[ 6907 6896 6895 6894 ] final  -60.81 input  -60.11 | X-H torsion
[ 7974 7965 7964 7962 ] final  174.86 input  175.53 | X-H torsion
[ 8008 7997 7996 7995 ] final -129.10 input   59.86 | X-H torsion
[ 10167 10162 10161 10158 ] final -136.26 input  -65.29 | X-H torsion
[ 10718 10713 10712 10709 ] final   60.93 input   66.30 | X-H torsion
[ 10763 10752 10751 10750 ] final  140.85 input  -60.55 | X-H torsion
[ 11005 11000 10999 10996 ] final   20.15 input  -57.11 | X-H torsion

> <Gold.Protein.ActiveResidues>
 VAL166  LYS551  ARG553  GLY616  TRP617  ASP618  TYR619  PRO620  LYS621  CYS622 
 ASP623  PHE694  ASN695  SER759  ASP760  ASP761  ALA762  ILE779  LEU786  VAL792 
 PHE793  MET794  SER795  GLU796  ALA797  LYS798  CYS799  TRP800  GLU811  SER814 

> <Gold.Protein.RotatedAtoms>
  150.7829  134.6788  159.6432 H   0  0  0  0  0  0  0  0  0  0  0  0  # atno 6907 bound_to 6896
  152.3918  134.6425  160.0113 H   0  0  0  0  0  0  0  0  0  0  0  0  # atno 6908 bound_to 6896
  151.6723  133.3277  159.3235 H   0  0  0  0  0  0  0  0  0  0  0  0  # atno 6909 bound_to 6896
  144.7213  139.9861  143.6439 H   0  0  0  0  0  0  0  0  0  0  0  0  # atno 7974 bound_to 7965
  155.2736  140.0441  157.3009 H   0  0  0  0  0  0  0  0  0  0  0  0  # atno 8008 bound_to 7997
  154.5639  140.2354  155.8262 H   0  0  0  0  0  0  0  0  0  0  0  0  # atno 8009 bound_to 7997
  156.2069  140.3010  155.9654 H   0  0  0  0  0  0  0  0  0  0  0  0  # atno 8010 bound_to 7997
  139.8695  143.6975  152.2641 H   0  0  0  0  0  0  0  0  0  0  0  0  # atno 10167 bound_to 10162
  157.5790  130.8966  149.9398 H   0  0  0  0  0  0  0  0  0  0  0  0  # atno 10718 bound_to 10713
  153.9296  135.2991  155.3446 H   0  0  0  0  0  0  0  0  0  0  0  0  # atno 10763 bound_to 10752
  154.7533  135.4969  153.9332 H   0  0  0  0  0  0  0  0  0  0  0  0  # atno 10764 bound_to 10752
  153.1098  135.6756  153.9624 H   0  0  0  0  0  0  0  0  0  0  0  0  # atno 10765 bound_to 10752
  140.4058  134.1670  155.7665 H   0  0  0  0  0  0  0  0  0  0  0  0  # atno 11005 bound_to 11000
  146.0449  139.3456  143.0674 LP  0  0  0  0  0  0  0  0  0  0  0  0  # atno 17320 bound_to 7965
  145.8288  140.9641  143.0860 LP  0  0  0  0  0  0  0  0  0  0  0  0  # atno 17321 bound_to 7965
  139.7297  144.7585  151.0822 LP  0  0  0  0  0  0  0  0  0  0  0  0  # atno 17342 bound_to 10162
  140.7763  143.5104  150.9660 LP  0  0  0  0  0  0  0  0  0  0  0  0  # atno 17343 bound_to 10162
  156.0835  130.3670  150.0533 LP  0  0  0  0  0  0  0  0  0  0  0  0  # atno 17370 bound_to 10713
  156.8675  130.9513  151.3612 LP  0  0  0  0  0  0  0  0  0  0  0  0  # atno 17371 bound_to 10713
  141.1840  133.8353  157.1156 LP  0  0  0  0  0  0  0  0  0  0  0  0  # atno 17394 bound_to 11000
  140.0303  134.9904  157.0767 LP  0  0  0  0  0  0  0  0  0  0  0  0  # atno 17395 bound_to 11000

$$$$
