AV-unprocessed.smi:1441|AV-procd|sdf|5875|dock9
  -GOLD-   22720 5553D 1   1.00000     0.00000
 Structure written by MMmdl.
 45 46  0  0  0  0  0  0  0  0  1 V2000
  152.4803  138.4734  154.8108 C   0  0  0  0  0  0  0  0  0  0  0  0
  151.0120  138.7789  154.7708 C   0  0  0  0  0  0  0  0  0  0  0  0
  149.9232  137.8645  154.7199 C   0  0  0  0  0  0  0  0  0  0  0  0
  148.8135  138.6616  154.7022 C   0  0  0  0  0  0  0  0  0  0  0  0
  147.3662  138.2970  154.6546 C   0  0  0  0  0  0  0  0  0  0  0  0
  149.2594  139.9711  154.7407 N   0  0  0  0  0  0  0  0  0  0  0  0
  148.4874  141.2055  154.7499 C   0  0  0  0  0  0  0  0  0  0  0  0
  148.5642  141.9317  156.0981 C   0  0  0  0  0  0  0  0  0  0  0  0
  147.5518  142.3989  156.6222 O   0  0  0  0  0  0  0  0  0  0  0  0
  149.7840  142.0238  156.6494 N   0  0  0  0  0  0  0  0  0  0  0  0
  150.0758  142.6573  157.9293 C   0  0  0  0  0  0  0  0  0  0  0  0
  151.3698  143.4894  157.8596 C   0  0  0  0  0  0  0  0  0  0  0  0
  152.0912  143.4695  159.1411 N   0  0  0  0  0  0  0  0  0  0  0  0
  153.3943  142.7861  159.1316 C   0  0  0  0  0  0  0  0  0  0  0  0
  153.4146  141.5310  160.0252 C   0  0  0  0  0  0  0  0  0  0  0  0
  153.6358  141.8289  161.5157 C   0  0  0  0  0  0  0  0  0  0  0  0
  152.5220  142.6609  162.1673 C   0  0  0  0  0  0  0  0  0  0  0  0
  152.3694  144.0604  161.5487 C   0  0  0  0  0  0  0  0  0  0  0  0
  151.5600  144.0471  160.2454 C   0  0  0  0  0  0  0  0  0  0  0  0
  150.4507  144.5825  160.2457 O   0  0  0  0  0  0  0  0  0  0  0  0
  150.6082  140.0384  154.7813 N   0  0  0  0  0  0  0  0  0  0  0  0
  152.6599  137.3985  154.7807 H   0  0  0  0  0  0  0  0  0  0  0  0
  152.9372  138.8604  155.7218 H   0  0  0  0  0  0  0  0  0  0  0  0
  152.9973  138.9200  153.9612 H   0  0  0  0  0  0  0  0  0  0  0  0
  149.9528  136.7851  154.7013 H   0  0  0  0  0  0  0  0  0  0  0  0
  147.2349  137.2166  154.7169 H   0  0  0  0  0  0  0  0  0  0  0  0
  146.9109  138.6376  153.7247 H   0  0  0  0  0  0  0  0  0  0  0  0
  146.8229  138.7484  155.4850 H   0  0  0  0  0  0  0  0  0  0  0  0
  148.8524  141.8546  153.9517 H   0  0  0  0  0  0  0  0  0  0  0  0
  147.4460  140.9786  154.5211 H   0  0  0  0  0  0  0  0  0  0  0  0
  150.5628  141.6150  156.1534 H   0  0  0  0  0  0  0  0  0  0  0  0
  149.2299  143.2923  158.1926 H   0  0  0  0  0  0  0  0  0  0  0  0
  150.1489  141.9012  158.7133 H   0  0  0  0  0  0  0  0  0  0  0  0
  152.0058  143.1224  157.0533 H   0  0  0  0  0  0  0  0  0  0  0  0
  151.1334  144.5167  157.5763 H   0  0  0  0  0  0  0  0  0  0  0  0
  153.6497  142.4722  158.1192 H   0  0  0  0  0  0  0  0  0  0  0  0
  154.1846  143.4805  159.4197 H   0  0  0  0  0  0  0  0  0  0  0  0
  152.5018  140.9508  159.8839 H   0  0  0  0  0  0  0  0  0  0  0  0
  154.2289  140.8873  159.6911 H   0  0  0  0  0  0  0  0  0  0  0  0
  153.7257  140.8840  162.0523 H   0  0  0  0  0  0  0  0  0  0  0  0
  154.5922  142.3367  161.6458 H   0  0  0  0  0  0  0  0  0  0  0  0
  151.5759  142.1187  162.1211 H   0  0  0  0  0  0  0  0  0  0  0  0
  152.7485  142.7705  163.2284 H   0  0  0  0  0  0  0  0  0  0  0  0
  151.8451  144.6992  162.2608 H   0  0  0  0  0  0  0  0  0  0  0  0
  153.3402  144.5309  161.3896 H   0  0  0  0  0  0  0  0  0  0  0  0
  1  2  1  0  0  0  0
  1 22  1  0  0  0  0
  1 23  1  0  0  0  0
  1 24  1  0  0  0  0
  2 21  2  0  0  0  0
  2  3  1  0  0  0  0
  3  4  2  0  0  0  0
  3 25  1  0  0  0  0
  4  5  1  0  0  0  0
  4  6  1  0  0  0  0
  5 26  1  0  0  0  0
  5 27  1  0  0  0  0
  5 28  1  0  0  0  0
  6  7  1  0  0  0  0
  6 21  1  0  0  0  0
  7  8  1  0  0  0  0
  7 29  1  0  0  0  0
  7 30  1  0  0  0  0
  8  9  2  0  0  0  0
  8 10  1  0  0  0  0
 10 11  1  0  0  0  0
 10 31  1  0  0  0  0
 11 12  1  0  0  0  0
 11 32  1  0  0  0  0
 11 33  1  0  0  0  0
 12 13  1  0  0  0  0
 12 34  1  0  0  0  0
 12 35  1  0  0  0  0
 13 19  1  0  0  0  0
 13 14  1  0  0  0  0
 14 15  1  0  0  0  0
 14 36  1  0  0  0  0
 14 37  1  0  0  0  0
 15 16  1  0  0  0  0
 15 38  1  0  0  0  0
 15 39  1  0  0  0  0
 16 17  1  0  0  0  0
 16 40  1  0  0  0  0
 16 41  1  0  0  0  0
 17 18  1  0  0  0  0
 17 42  1  0  0  0  0
 17 43  1  0  0  0  0
 18 19  1  0  0  0  0
 18 44  1  0  0  0  0
 18 45  1  0  0  0  0
 19 20  2  0  0  0  0
M  END
> <s_m_source_file>
AV-unprocessed.smi

> <i_m_source_file_index>
1441

> <i_lp_mmshare_version>
43012

> <i_f3d_flags>
0

> <s_epik_input>
W0NIM11jMVtjSF1jKFtDSDNdKW4objEpW0NIMl1DKD1PKVtOSF1bQ0gyXVtDSDJdTjJbQ0gyXVtDSDJdW0NIMl1bQ0gyXVtDSDJdQzI9Tw==

> <s_epik_cmdline>
J2VwaWtfcHl0aG9uJywgJy1waCcsICc3LjAnLCAnLXRuJywgJzgnLCAnLW1hJywgJzIwMCcsICctbWV0YWxfYmluZGluZycsICctaW1hZScsICc8aW5maWxlLm1hZT4nLCAnLW9tYWUnLCAnPG91dGZpbGUubWFlPic=

> <r_lp_tautomer_probability>
1

> <r_epik_Ionization_Penalty>
0.000341945

> <r_epik_Ionization_Penalty_Charging>
0

> <r_epik_Ionization_Penalty_Neutral>
0.000341945

> <r_epik_State_Penalty>
-0

> <r_epik_Charging_Adjusted_Penalty>
0

> <i_epik_Tot_Q>
0

> <i_epik_Tot_abs_Q>
0

> <r_epik_Metal_State_Penalty>
-0

> <b_epik_Metal_Only>
0

> <s_lp_Force_Field>
OPLS_2005

> <r_lp_Energy>
16.3244

> <b_lp_Chiralities_Consistent>
1

> <s_lp_Variant>
AV-unprocessed.smi:1441-1

> <Gold.Version>
5.8.1

> <Gold.Id.Protein>
6NUR|6NUR_protein|mol2

> <Gold.PLP.Fitness>
52.0152

> <Gold.PLP.PLP>
-50.3235

> <Gold.PLP.part.hbond>
-1.5045

> <Gold.PLP.part.metal>
0.0000

> <Gold.PLP.part.buried>
-4.8710

> <Gold.PLP.part.nonpolar>
-44.8658

> <Gold.PLP.part.repulsive>
0.9807

> <Gold.PLP.ligand.clash>
0.0000

> <Gold.PLP.ligand.torsion>
0.6646

> <Gold.PLP.Chemscore.Hbond>
1.0000

> <Gold.PLP.Chemscore.CHOScore>
0.0000

> <Gold.PLP.Chemscore.Metal>
0.0000

> <Gold.Chemscore.Hbonds>
donor molecule, donor type, donor heavy atom, donor atom, acceptor molecule, acceptor atom, score
      P1  H  7989  7998       L1    21  1.00

> <Gold.PLP.Chemscore.Internal.Correction>
0.0209

> <Gold.Rescore>
     Score         DG    S(hbond)    S(metal)    S(lipo)     H(rot)  DE(clash)    DE(int)     intcor
     16.34     -17.35       0.99        0.00     112.04       1.77       0.07       0.94       ----

> <Gold.Chemscore.Fitness>
16.3383

> <Gold.Chemscore.DG>
-17.3526

> <Gold.Chemscore.ZeroCoef>
-5.4800

> <Gold.Chemscore.Hbond>
0.9876

> <Gold.Chemscore.Metal>
0.0000

> <Gold.Chemscore.Lipo>
112.0431

> <Gold.Chemscore.Internal_Hbond>
0.0000

> <Gold.Chemscore.DEClash>
0.0734

> <Gold.Chemscore.DEInternal>
0.9409

> <Gold.Chemscore.Rot>
1.7715

> <Gold.Chemscore.Internal.Correction>
   9.000000E+99

> <Gold.Chemscore.Hbonds>
donor molecule, donor type, donor heavy atom, donor atom, acceptor molecule, acceptor atom, score
      P1  H  7989  7998       L1    21  0.50

> <Gold.Chemscore.Hbond.Weighted>
-3.2986

> <Gold.Chemscore.Metal.Weighted>
-0.0000

> <Gold.Chemscore.Lipo.Weighted>
-13.1090

> <Gold.Chemscore.Internal_Hbond.Weighted>
0.0000

> <Gold.Chemscore.DEClash.Weighted>
0.0734

> <Gold.Chemscore.DEInternal.Weighted>
0.9409

> <Gold.Chemscore.Rot.Weighted>
4.5351

> <Gold.Chemscore.Internal.Correction.Weighted>
   9.000000E+99

> <Gold.Protein.RotatedTorsions>
[ 6907 6896 6895 6894 ] final   62.77 input  -60.11 | X-H torsion
[ 7974 7965 7964 7962 ] final  -38.63 input  175.53 | X-H torsion
[ 8008 7997 7996 7995 ] final  -91.29 input   59.86 | X-H torsion
[ 10167 10162 10161 10158 ] final  148.98 input  -65.29 | X-H torsion
[ 10718 10713 10712 10709 ] final    8.26 input   66.30 | X-H torsion
[ 10763 10752 10751 10750 ] final  -44.52 input  -60.55 | X-H torsion
[ 11005 11000 10999 10996 ] final -139.73 input  -57.11 | X-H torsion

> <Gold.Protein.ActiveResidues>
 VAL166  LYS551  ARG553  GLY616  TRP617  ASP618  TYR619  PRO620  LYS621  CYS622 
 ASP623  PHE694  ASN695  SER759  ASP760  ASP761  ALA762  ILE779  LEU786  VAL792 
 PHE793  MET794  SER795  GLU796  ALA797  LYS798  CYS799  TRP800  GLU811  SER814 

> <Gold.Protein.RotatedAtoms>
  152.4199  134.5973  159.9990 H   0  0  0  0  0  0  0  0  0  0  0  0  # atno 6907 bound_to 6896
  151.6126  133.3340  159.3079 H   0  0  0  0  0  0  0  0  0  0  0  0  # atno 6908 bound_to 6896
  150.8087  134.7267  159.6734 H   0  0  0  0  0  0  0  0  0  0  0  0  # atno 6909 bound_to 6896
  146.0469  140.6533  142.9060 H   0  0  0  0  0  0  0  0  0  0  0  0  # atno 7974 bound_to 7965
  154.7090  140.0521  157.0531 H   0  0  0  0  0  0  0  0  0  0  0  0  # atno 8008 bound_to 7997
  155.0581  140.3186  155.4651 H   0  0  0  0  0  0  0  0  0  0  0  0  # atno 8009 bound_to 7997
  156.2783  140.2104  156.5707 H   0  0  0  0  0  0  0  0  0  0  0  0  # atno 8010 bound_to 7997
  139.4867  144.5637  151.7183 H   0  0  0  0  0  0  0  0  0  0  0  0  # atno 10167 bound_to 10162
  156.9490  130.5890  149.5656 H   0  0  0  0  0  0  0  0  0  0  0  0  # atno 10718 bound_to 10713
  154.0133  135.6678  153.4767 H   0  0  0  0  0  0  0  0  0  0  0  0  # atno 10763 bound_to 10752
  153.0611  135.5027  154.8092 H   0  0  0  0  0  0  0  0  0  0  0  0  # atno 10764 bound_to 10752
  154.6982  135.3074  154.9344 H   0  0  0  0  0  0  0  0  0  0  0  0  # atno 10765 bound_to 10752
  140.8491  134.2308  157.4770 H   0  0  0  0  0  0  0  0  0  0  0  0  # atno 11005 bound_to 11000
  144.7102  140.4011  143.7086 LP  0  0  0  0  0  0  0  0  0  0  0  0  # atno 17320 bound_to 7965
  145.6790  139.1614  143.2711 LP  0  0  0  0  0  0  0  0  0  0  0  0  # atno 17321 bound_to 7965
  140.5212  144.0876  150.6023 LP  0  0  0  0  0  0  0  0  0  0  0  0  # atno 17342 bound_to 10162
  140.3835  143.2790  152.0143 LP  0  0  0  0  0  0  0  0  0  0  0  0  # atno 17343 bound_to 10162
  156.0371  130.5457  150.8680 LP  0  0  0  0  0  0  0  0  0  0  0  0  # atno 17370 bound_to 10713
  157.5734  131.0946  150.9382 LP  0  0  0  0  0  0  0  0  0  0  0  0  # atno 17371 bound_to 10713
  139.8704  134.9674  156.4596 LP  0  0  0  0  0  0  0  0  0  0  0  0  # atno 17394 bound_to 11000
  140.8810  133.7918  155.9466 LP  0  0  0  0  0  0  0  0  0  0  0  0  # atno 17395 bound_to 11000

$$$$
