AV-unprocessed.smi:3335|AV-procd|sdf|12841|dock3
  -GOLD-   2272019223D 1   1.00000     0.00000
 Structure written by MMmdl.
 47 48  0  0  0  0  0  0  0  0  2 V2000
  150.6526  142.6358  158.4244 C   0  0  0  0  0  0  0  0  0  0  0  0
  150.4754  141.8369  157.1652 C   0  0  0  0  0  0  0  0  0  0  0  0
  151.3938  140.9284  156.5682 C   0  0  0  0  0  0  0  0  0  0  0  0
  150.9300  140.3898  155.4529 N   0  0  0  0  0  0  0  0  0  0  0  0
  149.6962  140.9217  155.2998 N   0  0  0  0  0  0  0  0  0  0  0  0
  148.8704  140.5875  154.1408 C   0  0  2  0  0  0  0  0  0  0  0  0
  147.6539  141.5255  154.0101 C   0  0  0  0  0  0  0  0  0  0  0  0
  148.4832  139.0844  154.0915 C   0  0  2  0  0  0  0  0  0  0  0  0
  149.5742  138.1399  154.6405 C   0  0  0  0  0  0  0  0  0  0  0  0
  148.1196  138.7239  152.6988 N   0  3  0  0  0  0  0  0  0  0  0  0
  146.7293  138.9866  152.2602 C   0  0  1  0  0  0  0  0  0  0  0  0
  146.6674  140.1836  151.2889 C   0  0  0  0  0  0  0  0  0  0  0  0
  146.1695  137.7072  151.6108 C   0  0  0  0  0  0  0  0  0  0  0  0
  146.7006  137.2707  150.5888 O   0  0  0  0  0  0  0  0  0  0  0  0
  145.1257  137.0779  152.1933 N   0  0  0  0  0  0  0  0  0  0  0  0
  144.5280  135.8559  151.6572 C   0  0  0  0  0  0  0  0  0  0  0  0
  143.2568  135.6219  152.4729 C   0  0  0  0  0  0  0  0  0  0  0  0
  143.5371  136.3104  153.8006 C   0  0  0  0  0  0  0  0  0  0  0  0
  144.4521  137.4774  153.4295 C   0  0  0  0  0  0  0  0  0  0  0  0
  149.4032  141.8044  156.3197 C   0  0  0  0  0  0  0  0  0  0  0  0
  151.6349  142.4785  158.8705 H   0  0  0  0  0  0  0  0  0  0  0  0
  149.9121  142.3672  159.1777 H   0  0  0  0  0  0  0  0  0  0  0  0
  150.5514  143.7055  158.2405 H   0  0  0  0  0  0  0  0  0  0  0  0
  152.3804  140.6497  156.9084 H   0  0  0  0  0  0  0  0  0  0  0  0
  149.4858  140.7873  153.2619 H   0  0  0  0  0  0  0  0  0  0  0  0
  147.0970  141.3172  153.0960 H   0  0  0  0  0  0  0  0  0  0  0  0
  147.9701  142.5683  153.9681 H   0  0  0  0  0  0  0  0  0  0  0  0
  146.9613  141.4278  154.8459 H   0  0  0  0  0  0  0  0  0  0  0  0
  147.5938  138.9685  154.7100 H   0  0  0  0  0  0  0  0  0  0  0  0
  149.9119  138.4520  155.6281 H   0  0  0  0  0  0  0  0  0  0  0  0
  150.4471  138.1066  153.9886 H   0  0  0  0  0  0  0  0  0  0  0  0
  149.2096  137.1195  154.7497 H   0  0  0  0  0  0  0  0  0  0  0  0
  148.7315  139.2252  152.0707 H   0  0  0  0  0  0  0  0  0  0  0  0
  146.1053  139.2351  153.1164 H   0  0  0  0  0  0  0  0  0  0  0  0
  145.6628  140.3092  150.8828 H   0  0  0  0  0  0  0  0  0  0  0  0
  147.3515  140.0588  150.4482 H   0  0  0  0  0  0  0  0  0  0  0  0
  146.9233  141.1190  151.7858 H   0  0  0  0  0  0  0  0  0  0  0  0
  144.3062  135.9389  150.5917 H   0  0  0  0  0  0  0  0  0  0  0  0
  145.2273  135.0294  151.7939 H   0  0  0  0  0  0  0  0  0  0  0  0
  142.4128  136.1078  151.9818 H   0  0  0  0  0  0  0  0  0  0  0  0
  143.0143  134.5648  152.5858 H   0  0  0  0  0  0  0  0  0  0  0  0
  142.6287  136.6311  154.3114 H   0  0  0  0  0  0  0  0  0  0  0  0
  144.0678  135.6238  154.4617 H   0  0  0  0  0  0  0  0  0  0  0  0
  145.1542  137.6900  154.2361 H   0  0  0  0  0  0  0  0  0  0  0  0
  143.8620  138.3756  153.2412 H   0  0  0  0  0  0  0  0  0  0  0  0
  148.4631  142.3349  156.3597 H   0  0  0  0  0  0  0  0  0  0  0  0
  148.2998  137.7362  152.5882 H   0  0  0  0  0  0  0  0  0  0  0  0
  1  2  1  0  0  0  0
  1 21  1  0  0  0  0
  1 22  1  0  0  0  0
  1 23  1  0  0  0  0
  2 20  2  0  0  0  0
  2  3  1  0  0  0  0
  3  4  2  0  0  0  0
  3 24  1  0  0  0  0
  4  5  1  0  0  0  0
  5  6  1  0  0  0  0
  5 20  1  0  0  0  0
  6  7  1  0  0  0  0
  6  8  1  0  0  0  0
  6 25  1  0  0  0  0
  7 26  1  0  0  0  0
  7 27  1  0  0  0  0
  7 28  1  0  0  0  0
  8  9  1  0  0  0  0
  8 10  1  0  0  0  0
  8 29  1  0  0  0  0
  9 30  1  0  0  0  0
  9 31  1  0  0  0  0
  9 32  1  0  0  0  0
 10 11  1  0  0  0  0
 10 33  1  0  0  0  0
 10 47  1  0  0  0  0
 11 12  1  0  0  0  0
 11 13  1  0  0  0  0
 11 34  1  0  0  0  0
 12 35  1  0  0  0  0
 12 36  1  0  0  0  0
 12 37  1  0  0  0  0
 13 14  2  0  0  0  0
 13 15  1  0  0  0  0
 15 19  1  0  0  0  0
 15 16  1  0  0  0  0
 16 17  1  0  0  0  0
 16 38  1  0  0  0  0
 16 39  1  0  0  0  0
 17 18  1  0  0  0  0
 17 40  1  0  0  0  0
 17 41  1  0  0  0  0
 18 19  1  0  0  0  0
 18 42  1  0  0  0  0
 18 43  1  0  0  0  0
 19 44  1  0  0  0  0
 19 45  1  0  0  0  0
 20 46  1  0  0  0  0
M  CHG  1  10   1
M  END
> <s_m_source_file>
AV-unprocessed.smi

> <i_m_source_file_index>
3335

> <i_lp_mmshare_version>
43012

> <i_f3d_flags>
0

> <s_epik_input>
W0NIM11jMVtjSF1ubihbY0hdMSlbQ0BIXShbQ0gzXSlbQ0BIXShbQ0gzXSlbTkhdW0NASF0oW0NIM10pQyg9TylOMltDSDJdW0NIMl1bQ0gyXVtDSDJdMg==

> <s_epik_cmdline>
J2VwaWtfcHl0aG9uJywgJy1waCcsICc3LjAnLCAnLXRuJywgJzgnLCAnLW1hJywgJzIwMCcsICctbWV0YWxfYmluZGluZycsICctaW1hZScsICc8aW5maWxlLm1hZT4nLCAnLW9tYWUnLCAnPG91dGZpbGUubWFlPic=

> <r_lp_tautomer_probability>
1

> <r_epik_Ionization_Penalty>
0.14175

> <r_epik_Ionization_Penalty_Charging>
0.141731

> <r_epik_Ionization_Penalty_Neutral>
1.91261e-05

> <r_epik_State_Penalty>
0.131043

> <r_epik_Charging_Adjusted_Penalty>
0.272773

> <i_epik_Tot_Q>
1

> <i_epik_Tot_abs_Q>
1

> <r_epik_Metal_State_Penalty>
0.131408

> <b_epik_Metal_Only>
0

> <s_lp_Force_Field>
OPLS_2005

> <r_lp_Energy>
38.6819

> <b_lp_Chiralities_Consistent>
1

> <s_lp_Variant>
AV-unprocessed.smi:3335-5

> <Gold.Version>
5.8.1

> <Gold.Id.Protein>
6NUR|6NUR_protein|mol2

> <Gold.PLP.Fitness>
45.5680

> <Gold.PLP.PLP>
-31.9825

> <Gold.PLP.part.hbond>
-4.0000

> <Gold.PLP.part.metal>
0.0000

> <Gold.PLP.part.buried>
2.0018

> <Gold.PLP.part.nonpolar>
-32.9206

> <Gold.PLP.part.repulsive>
2.5762

> <Gold.PLP.ligand.clash>
0.0141

> <Gold.PLP.ligand.torsion>
1.5219

> <Gold.PLP.Chemscore.Hbond>
4.8000

> <Gold.PLP.Chemscore.CHOScore>
0.6801

> <Gold.PLP.Chemscore.Metal>
0.0000

> <Gold.Chemscore.Hbonds>
donor molecule, donor type, donor heavy atom, donor atom, acceptor molecule, acceptor atom, score
      L1  H    10    33       P1  7957  0.89
      L1  H    10    47       P1  7948  2.00
      P1  H  7954  7966       L1    14  0.99
      P1  H  7989  7998       L1     4  0.61
      L1  C    20    46       P1  8028  0.57

> <Gold.PLP.Chemscore.Internal.Correction>
0.2031

> <Gold.Rescore>
     Score         DG    S(hbond)    S(metal)    S(lipo)     H(rot)  DE(clash)    DE(int)     intcor
     16.88     -22.62       3.47        0.00      84.07       1.68       2.77       2.97       ----

> <Gold.Chemscore.Fitness>
16.8757

> <Gold.Chemscore.DG>
-22.6222

> <Gold.Chemscore.ZeroCoef>
-5.4800

> <Gold.Chemscore.Hbond>
3.4735

> <Gold.Chemscore.Metal>
0.0000

> <Gold.Chemscore.Lipo>
84.0685

> <Gold.Chemscore.Internal_Hbond>
0.0000

> <Gold.Chemscore.DEClash>
2.7726

> <Gold.Chemscore.DEInternal>
2.9740

> <Gold.Chemscore.Rot>
1.6778

> <Gold.Chemscore.Internal.Correction>
   9.000000E+99

> <Gold.Chemscore.Hbonds>
donor molecule, donor type, donor heavy atom, donor atom, acceptor molecule, acceptor atom, score
      L1  H    10    33       P1  7957  0.85
      L1  H    10    47       P1  7948  0.99
      P1  H  7954  7966       L1    14  0.94
      P1  H  7989  7998       L1     4  0.08

> <Gold.Chemscore.Hbond.Weighted>
-11.6014

> <Gold.Chemscore.Metal.Weighted>
-0.0000

> <Gold.Chemscore.Lipo.Weighted>
-9.8360

> <Gold.Chemscore.Internal_Hbond.Weighted>
0.0000

> <Gold.Chemscore.DEClash.Weighted>
2.7726

> <Gold.Chemscore.DEInternal.Weighted>
2.9740

> <Gold.Chemscore.Rot.Weighted>
4.2952

> <Gold.Chemscore.Internal.Correction.Weighted>
   9.000000E+99

> <Gold.Protein.RotatedTorsions>
[ 6907 6896 6895 6894 ] final  172.84 input  -60.11 | X-H torsion
[ 7974 7965 7964 7962 ] final   -6.58 input  175.53 | X-H torsion
[ 8008 7997 7996 7995 ] final  -43.11 input   59.86 | X-H torsion
[ 10167 10162 10161 10158 ] final   72.06 input  -65.29 | X-H torsion
[ 10718 10713 10712 10709 ] final  108.30 input   66.30 | X-H torsion
[ 10763 10752 10751 10750 ] final  -80.22 input  -60.55 | X-H torsion
[ 11005 11000 10999 10996 ] final   -6.73 input  -57.11 | X-H torsion

> <Gold.Protein.ActiveResidues>
 VAL166  LYS551  ARG553  GLY616  TRP617  ASP618  TYR619  PRO620  LYS621  CYS622 
 ASP623  PHE694  ASN695  SER759  ASP760  ASP761  ALA762  ILE779  LEU786  VAL792 
 PHE793  MET794  SER795  GLU796  ALA797  LYS798  CYS799  TRP800  GLU811  SER814 

> <Gold.Protein.RotatedAtoms>
  151.7778  133.3347  159.3462 H   0  0  0  0  0  0  0  0  0  0  0  0  # atno 6907 bound_to 6896
  150.7437  134.5959  159.6021 H   0  0  0  0  0  0  0  0  0  0  0  0  # atno 6908 bound_to 6896
  152.3297  134.7277  160.0344 H   0  0  0  0  0  0  0  0  0  0  0  0  # atno 6909 bound_to 6896
  146.2327  140.2192  142.8337 H   0  0  0  0  0  0  0  0  0  0  0  0  # atno 7974 bound_to 7965
  154.3997  140.1456  156.3466 H   0  0  0  0  0  0  0  0  0  0  0  0  # atno 8008 bound_to 7997
  155.8308  140.3466  155.5550 H   0  0  0  0  0  0  0  0  0  0  0  0  # atno 8009 bound_to 7997
  155.8190  140.0895  157.1850 H   0  0  0  0  0  0  0  0  0  0  0  0  # atno 8010 bound_to 7997
  140.0394  144.5402  150.7446 H   0  0  0  0  0  0  0  0  0  0  0  0  # atno 10167 bound_to 10162
  157.6592  131.0891  150.6285 H   0  0  0  0  0  0  0  0  0  0  0  0  # atno 10718 bound_to 10713
  154.5485  135.5668  153.6901 H   0  0  0  0  0  0  0  0  0  0  0  0  # atno 10763 bound_to 10752
  152.9983  135.6245  154.2406 H   0  0  0  0  0  0  0  0  0  0  0  0  # atno 10764 bound_to 10752
  154.2340  135.2865  155.2859 H   0  0  0  0  0  0  0  0  0  0  0  0  # atno 10765 bound_to 10752
  140.7052  133.8956  155.8711 H   0  0  0  0  0  0  0  0  0  0  0  0  # atno 11005 bound_to 11000
  144.9645  140.8308  143.5493 LP  0  0  0  0  0  0  0  0  0  0  0  0  # atno 17320 bound_to 7965
  145.2167  139.2179  143.5114 LP  0  0  0  0  0  0  0  0  0  0  0  0  # atno 17321 bound_to 7965
  140.7267  143.2644  151.4096 LP  0  0  0  0  0  0  0  0  0  0  0  0  # atno 17342 bound_to 10162
  139.6024  144.1268  152.2212 LP  0  0  0  0  0  0  0  0  0  0  0  0  # atno 17343 bound_to 10162
  156.6589  130.4506  149.5694 LP  0  0  0  0  0  0  0  0  0  0  0  0  # atno 17370 bound_to 10713
  156.2082  130.6662  151.1241 LP  0  0  0  0  0  0  0  0  0  0  0  0  # atno 17371 bound_to 10713
  141.0131  134.0993  157.4201 LP  0  0  0  0  0  0  0  0  0  0  0  0  # atno 17394 bound_to 11000
  139.8886  135.0099  156.6630 LP  0  0  0  0  0  0  0  0  0  0  0  0  # atno 17395 bound_to 11000

$$$$
