AV-unprocessed.smi:1430|AV-procd|sdf|5822|dock2
  -GOLD-   22720 5473D 1   1.00000     0.00000
 Structure written by MMmdl.
 46 47  0  0  0  0  0  0  0  0  1 V2000
  150.6413  145.4703  159.5979 C   0  0  0  0  0  0  0  0  0  0  0  0
  151.6987  144.7007  159.0359 O   0  0  0  0  0  0  0  0  0  0  0  0
  152.3219  143.7629  159.8335 C   0  0  0  0  0  0  0  0  0  0  0  0
  152.2569  143.9175  161.2322 C   0  0  0  0  0  0  0  0  0  0  0  0
  152.8949  142.9658  162.0498 C   0  0  0  0  0  0  0  0  0  0  0  0
  153.5845  141.8931  161.4495 C   0  0  0  0  0  0  0  0  0  0  0  0
  154.2063  140.9433  162.3049 N   0  0  0  0  0  0  0  0  0  0  0  0
  154.3827  139.6246  162.1119 C   0  0  0  0  0  0  0  0  0  0  0  0
  154.0275  138.9943  161.1165 O   0  0  0  0  0  0  0  0  0  0  0  0
  155.0219  139.0667  163.1496 N   0  0  0  0  0  0  0  0  0  0  0  0
  155.3845  137.6584  163.2522 C   0  0  0  0  0  0  0  0  0  0  0  0
  154.4007  136.8926  164.1563 C   0  0  0  0  0  0  0  0  0  0  0  0
  154.5003  135.4358  164.0832 N   0  0  0  0  0  0  0  0  0  0  0  0
  153.6373  134.7633  165.0516 C   0  0  0  0  0  0  0  0  0  0  0  0
  153.7317  133.2290  164.9427 C   0  0  1  0  0  0  0  0  0  0  0  0
  152.7627  132.5206  165.8951 C   0  0  0  0  0  0  0  0  0  0  0  0
  153.4188  132.8337  163.6099 O   0  0  0  0  0  0  0  0  0  0  0  0
  154.2704  133.4266  162.6335 C   0  0  1  0  0  0  0  0  0  0  0  0
  153.8490  132.9163  161.2515 C   0  0  0  0  0  0  0  0  0  0  0  0
  154.1681  134.9598  162.7451 C   0  0  0  0  0  0  0  0  0  0  0  0
  153.5808  141.8181  160.0348 C   0  0  0  0  0  0  0  0  0  0  0  0
  152.9700  142.7275  159.2453 N   0  0  0  0  0  0  0  0  0  0  0  0
  150.2562  146.1574  158.8447 H   0  0  0  0  0  0  0  0  0  0  0  0
  150.9878  146.0669  160.4430 H   0  0  0  0  0  0  0  0  0  0  0  0
  149.8140  144.8370  159.9216 H   0  0  0  0  0  0  0  0  0  0  0  0
  151.7271  144.7508  161.6698 H   0  0  0  0  0  0  0  0  0  0  0  0
  152.8567  143.0637  163.1250 H   0  0  0  0  0  0  0  0  0  0  0  0
  154.6172  141.3247  163.1443 H   0  0  0  0  0  0  0  0  0  0  0  0
  155.2798  139.6596  163.9248 H   0  0  0  0  0  0  0  0  0  0  0  0
  155.4241  137.2057  162.2599 H   0  0  0  0  0  0  0  0  0  0  0  0
  156.3956  137.6161  163.6556 H   0  0  0  0  0  0  0  0  0  0  0  0
  154.5255  137.2186  165.1901 H   0  0  0  0  0  0  0  0  0  0  0  0
  153.3892  137.1855  163.8711 H   0  0  0  0  0  0  0  0  0  0  0  0
  153.9087  135.0555  166.0654 H   0  0  0  0  0  0  0  0  0  0  0  0
  152.6026  135.0755  164.9016 H   0  0  0  0  0  0  0  0  0  0  0  0
  154.7484  132.9085  165.1762 H   0  0  0  0  0  0  0  0  0  0  0  0
  152.9711  132.7826  166.9327 H   0  0  0  0  0  0  0  0  0  0  0  0
  152.8470  131.4374  165.8027 H   0  0  0  0  0  0  0  0  0  0  0  0
  151.7290  132.7940  165.6813 H   0  0  0  0  0  0  0  0  0  0  0  0
  155.2986  133.1139  162.8239 H   0  0  0  0  0  0  0  0  0  0  0  0
  154.4814  133.3360  160.4689 H   0  0  0  0  0  0  0  0  0  0  0  0
  152.8163  133.1868  161.0286 H   0  0  0  0  0  0  0  0  0  0  0  0
  153.9284  131.8302  161.1966 H   0  0  0  0  0  0  0  0  0  0  0  0
  153.1569  135.2757  162.4829 H   0  0  0  0  0  0  0  0  0  0  0  0
  154.8361  135.4186  162.0152 H   0  0  0  0  0  0  0  0  0  0  0  0
  154.0546  141.0098  159.5008 H   0  0  0  0  0  0  0  0  0  0  0  0
  1  2  1  0  0  0  0
  1 23  1  0  0  0  0
  1 24  1  0  0  0  0
  1 25  1  0  0  0  0
  2  3  1  0  0  0  0
  3 22  1  0  0  0  0
  3  4  2  0  0  0  0
  4  5  1  0  0  0  0
  4 26  1  0  0  0  0
  5  6  2  0  0  0  0
  5 27  1  0  0  0  0
  6  7  1  0  0  0  0
  6 21  1  0  0  0  0
  7  8  1  0  0  0  0
  7 28  1  0  0  0  0
  8  9  2  0  0  0  0
  8 10  1  0  0  0  0
 10 11  1  0  0  0  0
 10 29  1  0  0  0  0
 11 12  1  0  0  0  0
 11 30  1  0  0  0  0
 11 31  1  0  0  0  0
 12 13  1  0  0  0  0
 12 32  1  0  0  0  0
 12 33  1  0  0  0  0
 13 20  1  0  0  0  0
 13 14  1  0  0  0  0
 14 15  1  0  0  0  0
 14 34  1  0  0  0  0
 14 35  1  0  0  0  0
 15 16  1  0  0  0  0
 15 17  1  0  0  0  0
 15 36  1  0  0  0  0
 16 37  1  0  0  0  0
 16 38  1  0  0  0  0
 16 39  1  0  0  0  0
 17 18  1  0  0  0  0
 18 19  1  0  0  0  0
 18 20  1  0  0  0  0
 18 40  1  0  0  0  0
 19 41  1  0  0  0  0
 19 42  1  0  0  0  0
 19 43  1  0  0  0  0
 20 44  1  0  0  0  0
 20 45  1  0  0  0  0
 21 22  2  0  0  0  0
 21 46  1  0  0  0  0
M  END
> <s_m_source_file>
AV-unprocessed.smi

> <i_m_source_file_index>
1430

> <i_lp_mmshare_version>
43012

> <i_f3d_flags>
0

> <s_epik_input>
W0NIM11PYzFbY0hdW2NIXWMoW2NIXW4xKVtOSF1DKD1PKVtOSF1bQ0gyXVtDSDJdTjJbQ0gyXVtDQEBIXShbQ0gzXSlPW0NAQEhdKFtDSDNdKVtDSDJdMg==

> <s_epik_cmdline>
J2VwaWtfcHl0aG9uJywgJy1waCcsICc3LjAnLCAnLXRuJywgJzgnLCAnLW1hJywgJzIwMCcsICctbWV0YWxfYmluZGluZycsICctaW1hZScsICc8aW5maWxlLm1hZT4nLCAnLW9tYWUnLCAnPG91dGZpbGUubWFlPic=

> <r_lp_tautomer_probability>
1

> <r_epik_Ionization_Penalty>
0.266083

> <r_epik_Ionization_Penalty_Charging>
0

> <r_epik_Ionization_Penalty_Neutral>
0.266083

> <r_epik_State_Penalty>
0.257924

> <r_epik_Charging_Adjusted_Penalty>
0.257924

> <i_epik_Tot_Q>
0

> <i_epik_Tot_abs_Q>
0

> <r_epik_Metal_State_Penalty>
0.257922

> <b_epik_Metal_Only>
0

> <s_lp_Force_Field>
OPLS_2005

> <r_lp_Energy>
23.3408

> <b_lp_Chiralities_Consistent>
1

> <s_lp_Variant>
AV-unprocessed.smi:1430-1

> <Gold.Version>
5.8.1

> <Gold.Id.Protein>
6NUR|6NUR_protein|mol2

> <Gold.PLP.Fitness>
42.3485

> <Gold.PLP.PLP>
-43.7449

> <Gold.PLP.part.hbond>
-0.3649

> <Gold.PLP.part.metal>
0.0000

> <Gold.PLP.part.buried>
-7.0048

> <Gold.PLP.part.nonpolar>
-36.7526

> <Gold.PLP.part.repulsive>
0.1155

> <Gold.PLP.ligand.clash>
0.0000

> <Gold.PLP.ligand.torsion>
0.7161

> <Gold.PLP.Chemscore.Hbond>
0.0000

> <Gold.PLP.Chemscore.CHOScore>
0.0000

> <Gold.PLP.Chemscore.Metal>
0.0000

> <Gold.PLP.Chemscore.Internal.Correction>
0.0358

> <Gold.Rescore>
     Score         DG    S(hbond)    S(metal)    S(lipo)     H(rot)  DE(clash)    DE(int)     intcor
     12.37     -14.00       0.00        0.00     110.22       1.71       0.07       1.55       ----

> <Gold.Chemscore.Fitness>
12.3702

> <Gold.Chemscore.DG>
-13.9960

> <Gold.Chemscore.ZeroCoef>
-5.4800

> <Gold.Chemscore.Hbond>
0.0000

> <Gold.Chemscore.Metal>
0.0000

> <Gold.Chemscore.Lipo>
110.2170

> <Gold.Chemscore.Internal_Hbond>
0.0000

> <Gold.Chemscore.DEClash>
0.0724

> <Gold.Chemscore.DEInternal>
1.5534

> <Gold.Chemscore.Rot>
1.7107

> <Gold.Chemscore.Internal.Correction>
   9.000000E+99

> <Gold.Chemscore.Hbond.Weighted>
-0.0000

> <Gold.Chemscore.Metal.Weighted>
-0.0000

> <Gold.Chemscore.Lipo.Weighted>
-12.8954

> <Gold.Chemscore.Internal_Hbond.Weighted>
0.0000

> <Gold.Chemscore.DEClash.Weighted>
0.0724

> <Gold.Chemscore.DEInternal.Weighted>
1.5534

> <Gold.Chemscore.Rot.Weighted>
4.3794

> <Gold.Chemscore.Internal.Correction.Weighted>
   9.000000E+99

> <Gold.Protein.RotatedTorsions>
[ 6907 6896 6895 6894 ] final   83.35 input  -60.11 | X-H torsion
[ 7974 7965 7964 7962 ] final  -53.93 input  175.53 | X-H torsion
[ 8008 7997 7996 7995 ] final  137.48 input   59.86 | X-H torsion
[ 10167 10162 10161 10158 ] final  -20.72 input  -65.29 | X-H torsion
[ 10718 10713 10712 10709 ] final   43.13 input   66.30 | X-H torsion
[ 10763 10752 10751 10750 ] final   92.33 input  -60.55 | X-H torsion
[ 11005 11000 10999 10996 ] final  -33.22 input  -57.11 | X-H torsion

> <Gold.Protein.ActiveResidues>
 VAL166  LYS551  ARG553  GLY616  TRP617  ASP618  TYR619  PRO620  LYS621  CYS622 
 ASP623  PHE694  ASN695  SER759  ASP760  ASP761  ALA762  ILE779  LEU786  VAL792 
 PHE793  MET794  SER795  GLU796  ALA797  LYS798  CYS799  TRP800  GLU811  SER814 

> <Gold.Protein.RotatedAtoms>
  152.5325  134.2909  159.9042 H   0  0  0  0  0  0  0  0  0  0  0  0  # atno 6907 bound_to 6896
  151.2861  133.4180  159.2637 H   0  0  0  0  0  0  0  0  0  0  0  0  # atno 6908 bound_to 6896
  151.0241  134.9507  159.8132 H   0  0  0  0  0  0  0  0  0  0  0  0  # atno 6909 bound_to 6896
  145.8913  140.8068  142.9790 H   0  0  0  0  0  0  0  0  0  0  0  0  # atno 7974 bound_to 7965
  156.3002  140.2418  156.3917 H   0  0  0  0  0  0  0  0  0  0  0  0  # atno 8008 bound_to 7997
  154.8608  140.0420  157.1684 H   0  0  0  0  0  0  0  0  0  0  0  0  # atno 8009 bound_to 7997
  154.8898  140.2961  155.5381 H   0  0  0  0  0  0  0  0  0  0  0  0  # atno 8010 bound_to 7997
  140.7278  143.4695  151.0266 H   0  0  0  0  0  0  0  0  0  0  0  0  # atno 10167 bound_to 10162
  157.4125  130.7922  149.7443 H   0  0  0  0  0  0  0  0  0  0  0  0  # atno 10718 bound_to 10713
  153.2180  135.4365  155.0456 H   0  0  0  0  0  0  0  0  0  0  0  0  # atno 10763 bound_to 10752
  154.8235  135.3349  154.6970 H   0  0  0  0  0  0  0  0  0  0  0  0  # atno 10764 bound_to 10752
  153.7404  135.7005  153.5024 H   0  0  0  0  0  0  0  0  0  0  0  0  # atno 10765 bound_to 10752
  140.9617  133.7161  156.1379 H   0  0  0  0  0  0  0  0  0  0  0  0  # atno 11005 bound_to 11000
  144.6730  140.1534  143.7428 LP  0  0  0  0  0  0  0  0  0  0  0  0  # atno 17320 bound_to 7965
  145.8904  139.2373  143.1553 LP  0  0  0  0  0  0  0  0  0  0  0  0  # atno 17321 bound_to 7965
  139.8386  143.7594  152.3180 LP  0  0  0  0  0  0  0  0  0  0  0  0  # atno 17342 bound_to 10162
  139.7735  144.7469  151.0190 LP  0  0  0  0  0  0  0  0  0  0  0  0  # atno 17343 bound_to 10162
  155.9855  130.3982  150.3259 LP  0  0  0  0  0  0  0  0  0  0  0  0  # atno 17370 bound_to 10713
  157.1399  131.0294  151.2932 LP  0  0  0  0  0  0  0  0  0  0  0  0  # atno 17371 bound_to 10713
  140.7458  134.4099  157.5548 LP  0  0  0  0  0  0  0  0  0  0  0  0  # atno 17394 bound_to 11000
  139.8880  134.8867  156.2497 LP  0  0  0  0  0  0  0  0  0  0  0  0  # atno 17395 bound_to 11000

$$$$
