AV-unprocessed.smi:787|AV-procd|sdf|3725|dock10
  -GOLD-   22720 1153D 1   1.00000     0.00000
 Structure written by MMmdl.
 47 49  0  0  0  0  0  0  0  0  2 V2000
  147.3540  141.5895  156.6280 C   0  0  0  0  0  0  0  0  0  0  0  0
  148.6091  142.2399  156.2852 N   0  0  0  0  0  0  0  0  0  0  0  0
  149.8017  141.5033  156.2532 C   0  0  0  0  0  0  0  0  0  0  0  0
  150.7901  141.7853  157.1333 N   0  0  0  0  0  0  0  0  0  0  0  0
  151.9200  141.0704  157.0585 C   0  0  0  0  0  0  0  0  0  0  0  0
  152.2388  140.0809  156.2102 N   0  0  0  0  0  0  0  0  0  0  0  0
  151.2656  139.7917  155.3363 C   0  0  0  0  0  0  0  0  0  0  0  0
  151.3258  138.8246  154.3482 N   0  0  0  0  0  0  0  0  0  0  0  0
  150.1305  138.9462  153.7787 C   0  0  0  0  0  0  0  0  0  0  0  0
  149.2845  139.8633  154.2900 N   0  0  0  0  0  0  0  0  0  0  0  0
  147.9229  140.1253  153.8430 C   0  0  0  0  0  0  0  0  0  0  0  0
  147.3446  139.0160  152.9326 C   0  0  2  0  0  0  0  0  0  0  0  0
  146.5128  139.6002  151.9488 O   0  0  0  0  0  0  0  0  0  0  0  0
  146.5131  137.9662  153.6988 C   0  0  0  0  0  0  0  0  0  0  0  0
  146.5157  136.6450  153.0175 N   0  3  1  0  0  0  0  0  0  0  0  0
  146.3951  135.5134  153.9645 C   0  0  0  0  0  0  0  0  0  0  0  0
  145.5375  136.5502  151.9047 C   0  0  0  0  0  0  0  0  0  0  0  0
  145.3173  135.1104  151.4699 C   0  0  0  0  0  0  0  0  0  0  0  0
  144.0135  134.5728  151.4047 C   0  0  0  0  0  0  0  0  0  0  0  0
  143.8153  133.2452  150.9784 C   0  0  0  0  0  0  0  0  0  0  0  0
  144.9198  132.4473  150.6227 C   0  0  0  0  0  0  0  0  0  0  0  0
  146.2227  132.9771  150.6941 C   0  0  0  0  0  0  0  0  0  0  0  0
  146.4213  134.3057  151.1173 C   0  0  0  0  0  0  0  0  0  0  0  0
  150.0094  140.4706  155.3158 C   0  0  0  0  0  0  0  0  0  0  0  0
  146.5468  142.3218  156.6421 H   0  0  0  0  0  0  0  0  0  0  0  0
  147.4142  141.1290  157.6146 H   0  0  0  0  0  0  0  0  0  0  0  0
  147.1042  140.8198  155.8968 H   0  0  0  0  0  0  0  0  0  0  0  0
  148.6448  143.2482  156.2640 H   0  0  0  0  0  0  0  0  0  0  0  0
  152.6822  141.3293  157.7784 H   0  0  0  0  0  0  0  0  0  0  0  0
  149.8439  138.3142  152.9509 H   0  0  0  0  0  0  0  0  0  0  0  0
  147.2868  140.2769  154.7148 H   0  0  0  0  0  0  0  0  0  0  0  0
  147.9209  141.0745  153.3055 H   0  0  0  0  0  0  0  0  0  0  0  0
  148.1742  138.5296  152.4198 H   0  0  0  0  0  0  0  0  0  0  0  0
  145.6650  139.7744  152.3293 H   0  0  0  0  0  0  0  0  0  0  0  0
  146.8810  137.8541  154.7198 H   0  0  0  0  0  0  0  0  0  0  0  0
  145.4933  138.3345  153.7935 H   0  0  0  0  0  0  0  0  0  0  0  0
  145.4196  135.5156  154.4530 H   0  0  0  0  0  0  0  0  0  0  0  0
  147.1635  135.5622  154.7361 H   0  0  0  0  0  0  0  0  0  0  0  0
  146.5139  134.5617  153.4452 H   0  0  0  0  0  0  0  0  0  0  0  0
  144.5735  136.9495  152.2234 H   0  0  0  0  0  0  0  0  0  0  0  0
  145.8658  137.1622  151.0630 H   0  0  0  0  0  0  0  0  0  0  0  0
  143.1596  135.1785  151.6714 H   0  0  0  0  0  0  0  0  0  0  0  0
  142.8159  132.8387  150.9234 H   0  0  0  0  0  0  0  0  0  0  0  0
  144.7676  131.4288  150.2962 H   0  0  0  0  0  0  0  0  0  0  0  0
  147.0697  132.3649  150.4218 H   0  0  0  0  0  0  0  0  0  0  0  0
  147.4234  134.7065  151.1643 H   0  0  0  0  0  0  0  0  0  0  0  0
  147.4237  136.5599  152.5824 H   0  0  0  0  0  0  0  0  0  0  0  0
  1  2  1  0  0  0  0
  1 25  1  0  0  0  0
  1 26  1  0  0  0  0
  1 27  1  0  0  0  0
  2  3  1  0  0  0  0
  2 28  1  0  0  0  0
  3 24  1  0  0  0  0
  3  4  2  0  0  0  0
  4  5  1  0  0  0  0
  5  6  2  0  0  0  0
  5 29  1  0  0  0  0
  6  7  1  0  0  0  0
  7 24  2  0  0  0  0
  7  8  1  0  0  0  0
  8  9  2  0  0  0  0
  9 10  1  0  0  0  0
  9 30  1  0  0  0  0
 10 11  1  0  0  0  0
 10 24  1  0  0  0  0
 11 12  1  0  0  0  0
 11 31  1  0  0  0  0
 11 32  1  0  0  0  0
 12 13  1  0  0  0  0
 12 14  1  0  0  0  0
 12 33  1  0  0  0  0
 13 34  1  0  0  0  0
 14 15  1  0  0  0  0
 14 35  1  0  0  0  0
 14 36  1  0  0  0  0
 15 16  1  0  0  0  0
 15 17  1  0  0  0  0
 15 47  1  0  0  0  0
 16 37  1  0  0  0  0
 16 38  1  0  0  0  0
 16 39  1  0  0  0  0
 17 18  1  0  0  0  0
 17 40  1  0  0  0  0
 17 41  1  0  0  0  0
 18 23  1  0  0  0  0
 18 19  2  0  0  0  0
 19 20  1  0  0  0  0
 19 42  1  0  0  0  0
 20 21  2  0  0  0  0
 20 43  1  0  0  0  0
 21 22  1  0  0  0  0
 21 44  1  0  0  0  0
 22 23  2  0  0  0  0
 22 45  1  0  0  0  0
 23 46  1  0  0  0  0
M  CHG  1  15   1
M  END
> <s_m_source_file>
AV-unprocessed.smi

> <i_m_source_file_index>
787

> <i_lp_mmshare_version>
43012

> <i_f3d_flags>
0

> <s_epik_input>
bjFbY0hdbmMoW05IXVtDSDNdKWMoYzEyKW4oW2NIXW4yKVtDSDJdW0NASF0oW09IXSlbQ0gyXU4oW0NIM10pW0NIMl1jM1tjSF1bY0hdW2NIXVtjSF1bY0hdMw==

> <s_epik_cmdline>
J2VwaWtfcHl0aG9uJywgJy1waCcsICc3LjAnLCAnLXRuJywgJzgnLCAnLW1hJywgJzIwMCcsICctbWV0YWxfYmluZGluZycsICctaW1hZScsICc8aW5maWxlLm1hZT4nLCAnLW9tYWUnLCAnPG91dGZpbGUubWFlPic=

> <r_lp_tautomer_probability>
0.999987

> <r_epik_Ionization_Penalty>
0.0526284

> <r_epik_Ionization_Penalty_Charging>
0.0475377

> <r_epik_Ionization_Penalty_Neutral>
0.00509065

> <r_epik_State_Penalty>
0.0404888

> <r_epik_Charging_Adjusted_Penalty>
0.0880265

> <i_epik_Tot_Q>
1

> <i_epik_Tot_abs_Q>
1

> <r_epik_Metal_State_Penalty>
0.040507

> <b_epik_Metal_Only>
0

> <s_lp_Force_Field>
OPLS_2005

> <r_lp_Energy>
14.0859

> <b_lp_Chiralities_Consistent>
1

> <s_lp_Variant>
AV-unprocessed.smi:787-1

> <Gold.Version>
5.8.1

> <Gold.Id.Protein>
6NUR|6NUR_protein|mol2

> <Gold.PLP.Fitness>
54.1522

> <Gold.PLP.PLP>
-39.6621

> <Gold.PLP.part.hbond>
-4.4201

> <Gold.PLP.part.metal>
0.0000

> <Gold.PLP.part.buried>
-3.6520

> <Gold.PLP.part.nonpolar>
-30.4842

> <Gold.PLP.part.repulsive>
0.2259

> <Gold.PLP.ligand.clash>
0.1026

> <Gold.PLP.ligand.torsion>
2.0992

> <Gold.PLP.Chemscore.Hbond>
4.7063

> <Gold.PLP.Chemscore.CHOScore>
1.4571

> <Gold.PLP.Chemscore.Metal>
0.0000

> <Gold.Chemscore.Hbonds>
donor molecule, donor type, donor heavy atom, donor atom, acceptor molecule, acceptor atom, score
      L1  H     2    28       P1  8028  1.00
      L1  H    13    34       P1 10175  0.83
      L1  H    15    47       P1  7948  2.00
      P1  H  7997  8009       L1     6  0.84
      L1  C     9    30       P1  7948  1.00
      L1  C     9    30       P1  7957  0.41

> <Gold.PLP.Chemscore.Internal.Correction>
0.3012

> <Gold.Rescore>
     Score         DG    S(hbond)    S(metal)    S(lipo)     H(rot)  DE(clash)    DE(int)     intcor
     13.52     -15.70       2.96        0.00      72.73       3.19       0.25       1.93       ----

> <Gold.Chemscore.Fitness>
13.5205

> <Gold.Chemscore.DG>
-15.7040

> <Gold.Chemscore.ZeroCoef>
-5.4800

> <Gold.Chemscore.Hbond>
2.9606

> <Gold.Chemscore.Metal>
0.0000

> <Gold.Chemscore.Lipo>
72.7282

> <Gold.Chemscore.Internal_Hbond>
0.0000

> <Gold.Chemscore.DEClash>
0.2524

> <Gold.Chemscore.DEInternal>
1.9311

> <Gold.Chemscore.Rot>
3.1928

> <Gold.Chemscore.Internal.Correction>
   9.000000E+99

> <Gold.Chemscore.Hbonds>
donor molecule, donor type, donor heavy atom, donor atom, acceptor molecule, acceptor atom, score
      L1  H     2    28       P1  8028  0.91
      L1  H    13    34       P1 10175  0.77
      L1  H    15    47       P1  7948  1.00
      P1  H  7997  8009       L1     6  0.21

> <Gold.Chemscore.Hbond.Weighted>
-9.8884

> <Gold.Chemscore.Metal.Weighted>
-0.0000

> <Gold.Chemscore.Lipo.Weighted>
-8.5092

> <Gold.Chemscore.Internal_Hbond.Weighted>
0.0000

> <Gold.Chemscore.DEClash.Weighted>
0.2524

> <Gold.Chemscore.DEInternal.Weighted>
1.9311

> <Gold.Chemscore.Rot.Weighted>
8.1736

> <Gold.Chemscore.Internal.Correction.Weighted>
   9.000000E+99

> <Gold.Protein.RotatedTorsions>
[ 6907 6896 6895 6894 ] final  115.37 input  -60.11 | X-H torsion
[ 7974 7965 7964 7962 ] final  -29.32 input  175.53 | X-H torsion
[ 8008 7997 7996 7995 ] final -163.62 input   59.86 | X-H torsion
[ 10167 10162 10161 10158 ] final  139.90 input  -65.29 | X-H torsion
[ 10718 10713 10712 10709 ] final   -6.62 input   66.30 | X-H torsion
[ 10763 10752 10751 10750 ] final  147.41 input  -60.55 | X-H torsion
[ 11005 11000 10999 10996 ] final    1.70 input  -57.11 | X-H torsion

> <Gold.Protein.ActiveResidues>
 VAL166  LYS551  ARG553  GLY616  TRP617  ASP618  TYR619  PRO620  LYS621  CYS622 
 ASP623  PHE694  ASN695  SER759  ASP760  ASP761  ALA762  ILE779  LEU786  VAL792 
 PHE793  MET794  SER795  GLU796  ALA797  LYS798  CYS799  TRP800  GLU811  SER814 

> <Gold.Protein.RotatedAtoms>
  152.4745  133.8107  159.7001 H   0  0  0  0  0  0  0  0  0  0  0  0  # atno 6907 bound_to 6896
  150.8754  133.7436  159.2954 H   0  0  0  0  0  0  0  0  0  0  0  0  # atno 6908 bound_to 6896
  151.4958  135.1063  159.9867 H   0  0  0  0  0  0  0  0  0  0  0  0  # atno 6909 bound_to 6896
  146.1225  140.5397  142.8729 H   0  0  0  0  0  0  0  0  0  0  0  0  # atno 7974 bound_to 7965
  155.8239  140.0923  157.1833 H   0  0  0  0  0  0  0  0  0  0  0  0  # atno 8008 bound_to 7997
  154.3979  140.1431  156.3593 H   0  0  0  0  0  0  0  0  0  0  0  0  # atno 8009 bound_to 7997
  155.8237  140.3445  155.5532 H   0  0  0  0  0  0  0  0  0  0  0  0  # atno 8010 bound_to 7997
  139.5065  144.6267  151.5919 H   0  0  0  0  0  0  0  0  0  0  0  0  # atno 10167 bound_to 10162
  156.7292  130.5175  149.5849 H   0  0  0  0  0  0  0  0  0  0  0  0  # atno 10718 bound_to 10713
  154.0379  135.2892  155.3359 H   0  0  0  0  0  0  0  0  0  0  0  0  # atno 10763 bound_to 10752
  154.6948  135.5212  153.8445 H   0  0  0  0  0  0  0  0  0  0  0  0  # atno 10764 bound_to 10752
  153.0612  135.6614  154.0586 H   0  0  0  0  0  0  0  0  0  0  0  0  # atno 10765 bound_to 10752
  140.6125  133.9735  155.8184 H   0  0  0  0  0  0  0  0  0  0  0  0  # atno 11005 bound_to 11000
  144.7611  140.5423  143.6735 LP  0  0  0  0  0  0  0  0  0  0  0  0  # atno 17320 bound_to 7965
  145.5436  139.1475  143.3433 LP  0  0  0  0  0  0  0  0  0  0  0  0  # atno 17321 bound_to 7965
  140.5986  143.9650  150.6371 LP  0  0  0  0  0  0  0  0  0  0  0  0  # atno 17342 bound_to 10162
  140.2855  143.3360  152.1112 LP  0  0  0  0  0  0  0  0  0  0  0  0  # atno 17343 bound_to 10162
  156.1540  130.6329  151.0633 LP  0  0  0  0  0  0  0  0  0  0  0  0  # atno 17370 bound_to 10713
  157.6866  131.0823  150.7226 LP  0  0  0  0  0  0  0  0  0  0  0  0  # atno 17371 bound_to 10713
  141.0798  134.0079  157.3403 LP  0  0  0  0  0  0  0  0  0  0  0  0  # atno 17394 bound_to 11000
  139.9186  135.0199  156.7979 LP  0  0  0  0  0  0  0  0  0  0  0  0  # atno 17395 bound_to 11000

$$$$
