AV-unprocessed.smi:283|AV-procd|sdf|2149|dock7
  -GOLD-   2262021483D 1   1.00000     0.00000
 Structure written by MMmdl.
 48 51  0  0  0  0  0  0  0  0  1 V2000
  148.2215  140.2656  153.7640 C   0  0  0  0  0  0  0  0  0  0  0  0
  148.9277  139.1428  154.5353 C   0  0  2  0  0  0  0  0  0  0  0  0
  147.9418  138.1975  155.0563 N   0  0  0  0  0  0  0  0  0  0  0  0
  146.9927  137.6768  154.2464 C   0  0  0  0  0  0  0  0  0  0  0  0
  146.1379  138.4800  153.5609 N   0  0  0  0  0  0  0  0  0  0  0  0
  145.2079  137.9416  152.7676 C   0  0  0  0  0  0  0  0  0  0  0  0
  144.9647  136.6524  152.5247 N   0  0  0  0  0  0  0  0  0  0  0  0
  145.8161  135.8387  153.2151 C   0  0  0  0  0  0  0  0  0  0  0  0
  146.8509  136.2739  154.0900 C   0  0  0  0  0  0  0  0  0  0  0  0
  147.5213  135.1761  154.6123 N   0  0  0  0  0  0  0  0  0  0  0  0
  146.9125  134.1525  154.0772 C   0  0  0  0  0  0  0  0  0  0  0  0
  145.8722  134.4579  153.2274 N   0  0  0  0  0  0  0  0  0  0  0  0
  144.9931  133.4926  152.4906 C   0  0  2  0  0  0  0  0  0  0  0  0
  145.3208  132.1971  152.8889 O   0  0  0  0  0  0  0  0  0  0  0  0
  145.3266  131.3320  151.7586 C   0  0  2  0  0  0  0  0  0  0  0  0
  146.1766  130.0771  152.0261 C   0  0  0  0  0  0  0  0  0  0  0  0
  147.4881  130.4461  152.3968 O   0  0  0  0  0  0  0  0  0  0  0  0
  145.8131  132.2329  150.6135 C   0  0  2  0  0  0  0  0  0  0  0  0
  147.2284  132.3012  150.5670 O   0  0  0  0  0  0  0  0  0  0  0  0
  145.1679  133.5720  150.9591 C   0  0  2  0  0  0  0  0  0  0  0  0
  145.8887  134.6942  150.4757 O   0  0  0  0  0  0  0  0  0  0  0  0
  149.8544  139.7263  155.6041 C   0  0  0  0  0  0  0  0  0  0  0  0
  149.3207  140.5747  156.6019 C   0  0  0  0  0  0  0  0  0  0  0  0
  150.1503  141.1234  157.5974 C   0  0  0  0  0  0  0  0  0  0  0  0
  151.5264  140.8331  157.6033 C   0  0  0  0  0  0  0  0  0  0  0  0
  152.0704  139.9984  156.6096 C   0  0  0  0  0  0  0  0  0  0  0  0
  151.2444  139.4468  155.6094 C   0  0  0  0  0  0  0  0  0  0  0  0
  151.9716  138.4382  154.4079 Cl  0  0  0  0  0  0  0  0  0  0  0  0
  143.9829  133.7470  152.8136 H   0  0  0  0  0  0  0  0  0  0  0  0
  144.2947  131.0466  151.5444 H   0  0  0  0  0  0  0  0  0  0  0  0
  145.4699  131.8639  149.6464 H   0  0  0  0  0  0  0  0  0  0  0  0
  144.1665  133.5992  150.5272 H   0  0  0  0  0  0  0  0  0  0  0  0
  148.9457  140.9378  153.3029 H   0  0  0  0  0  0  0  0  0  0  0  0
  147.5848  140.8604  154.4199 H   0  0  0  0  0  0  0  0  0  0  0  0
  147.5955  139.8618  152.9678 H   0  0  0  0  0  0  0  0  0  0  0  0
  149.5231  138.5876  153.8117 H   0  0  0  0  0  0  0  0  0  0  0  0
  148.1428  137.8180  155.9702 H   0  0  0  0  0  0  0  0  0  0  0  0
  144.5664  138.6433  152.2556 H   0  0  0  0  0  0  0  0  0  0  0  0
  147.2027  133.1351  154.2953 H   0  0  0  0  0  0  0  0  0  0  0  0
  145.7549  129.5067  152.8544 H   0  0  0  0  0  0  0  0  0  0  0  0
  146.2009  129.4203  151.1560 H   0  0  0  0  0  0  0  0  0  0  0  0
  147.9265  130.8040  151.6401 H   0  0  0  0  0  0  0  0  0  0  0  0
  147.5726  131.4244  150.4932 H   0  0  0  0  0  0  0  0  0  0  0  0
  146.0961  134.5480  149.5657 H   0  0  0  0  0  0  0  0  0  0  0  0
  148.2661  140.8088  156.6093 H   0  0  0  0  0  0  0  0  0  0  0  0
  149.7302  141.7673  158.3560 H   0  0  0  0  0  0  0  0  0  0  0  0
  152.1648  141.2523  158.3669 H   0  0  0  0  0  0  0  0  0  0  0  0
  153.1284  139.7815  156.6147 H   0  0  0  0  0  0  0  0  0  0  0  0
  1  2  1  0  0  0  0
  1 33  1  0  0  0  0
  1 34  1  0  0  0  0
  1 35  1  0  0  0  0
  2  3  1  0  0  0  0
  2 22  1  0  0  0  0
  2 36  1  0  0  0  0
  3  4  1  0  0  0  0
  3 37  1  0  0  0  0
  4  9  1  0  0  0  0
  4  5  2  0  0  0  0
  5  6  1  0  0  0  0
  6  7  2  0  0  0  0
  6 38  1  0  0  0  0
  7  8  1  0  0  0  0
  8 12  1  0  0  0  0
  8  9  2  0  0  0  0
  9 10  1  0  0  0  0
 10 11  2  0  0  0  0
 11 12  1  0  0  0  0
 11 39  1  0  0  0  0
 12 13  1  0  0  0  0
 13 29  1  0  0  0  0
 13 20  1  0  0  0  0
 13 14  1  0  0  0  0
 14 15  1  0  0  0  0
 15 30  1  0  0  0  0
 15 16  1  0  0  0  0
 15 18  1  0  0  0  0
 16 17  1  0  0  0  0
 16 40  1  0  0  0  0
 16 41  1  0  0  0  0
 17 42  1  0  0  0  0
 18 31  1  0  0  0  0
 18 19  1  0  0  0  0
 18 20  1  0  0  0  0
 19 43  1  0  0  0  0
 20 32  1  0  0  0  0
 20 21  1  0  0  0  0
 21 44  1  0  0  0  0
 22 27  1  0  0  0  0
 22 23  2  0  0  0  0
 23 24  1  0  0  0  0
 23 45  1  0  0  0  0
 24 25  2  0  0  0  0
 24 46  1  0  0  0  0
 25 26  1  0  0  0  0
 25 47  1  0  0  0  0
 26 27  2  0  0  0  0
 26 48  1  0  0  0  0
 27 28  1  0  0  0  0
M  END
> <s_m_source_file>
AV-unprocessed.smi

> <i_m_source_file_index>
283

> <i_lp_mmshare_version>
43012

> <i_f3d_flags>
0

> <s_epik_input>
Q2xjMVtjSF1bY0hdW2NIXVtjSF1jMVtDQEhdKFtDSDNdKVtOSF1jKG5bY0hdbjIpYyhjMjMpbltjSF1uM1tDQEBIXTRPW0NASF0oW0NIMl1bT0hdKVtDQEBIXShbT0hdKVtDQEhdNFtPSF0=

> <s_epik_cmdline>
J2VwaWtfcHl0aG9uJywgJy1waCcsICc3LjAnLCAnLXRuJywgJzgnLCAnLW1hJywgJzIwMCcsICctbWV0YWxfYmluZGluZycsICctaW1hZScsICc8aW5maWxlLm1hZT4nLCAnLW9tYWUnLCAnPG91dGZpbGUubWFlPic=

> <r_lp_tautomer_probability>
1

> <r_epik_Ionization_Penalty>
0.000266407

> <r_epik_Ionization_Penalty_Charging>
0

> <r_epik_Ionization_Penalty_Neutral>
0.000266407

> <r_epik_State_Penalty>
-0

> <r_epik_Charging_Adjusted_Penalty>
0

> <i_epik_Tot_Q>
0

> <i_epik_Tot_abs_Q>
0

> <r_epik_Metal_State_Penalty>
-0

> <b_epik_Metal_Only>
0

> <s_epik_Chemistry_Notes>
This compound contains an acetal/aminal-like group ( X-CH(R)-Y where X, Y are N, S, or O) that may be acid/base labile, releasing an aldehyde.

> <s_lp_Force_Field>
OPLS_2005

> <r_lp_Energy>
56.6736

> <b_lp_Chiralities_Consistent>
1

> <s_lp_Variant>
AV-unprocessed.smi:283-25

> <Gold.Version>
5.8.1

> <Gold.Id.Protein>
6NUR|6NUR_protein|mol2

> <Gold.PLP.Fitness>
42.6415

> <Gold.PLP.PLP>
-31.3656

> <Gold.PLP.part.hbond>
-2.2746

> <Gold.PLP.part.metal>
0.0000

> <Gold.PLP.part.buried>
-2.0279

> <Gold.PLP.part.nonpolar>
-27.5090

> <Gold.PLP.part.repulsive>
0.6367

> <Gold.PLP.ligand.clash>
1.0053

> <Gold.PLP.ligand.torsion>
0.6867

> <Gold.PLP.Chemscore.Hbond>
2.7520

> <Gold.PLP.Chemscore.CHOScore>
1.7801

> <Gold.PLP.Chemscore.Metal>
0.0000

> <Gold.Chemscore.Hbonds>
donor molecule, donor type, donor heavy atom, donor atom, acceptor molecule, acceptor atom, score
      L1  H    17    42       P1 10747  1.00
      L1  H    19    43       P1 10747  0.67
      L1  H    21    44       P1  7921  1.00
      L1  C     6    38       P1 10171  0.96
      L1  C     6    38       P1 10175  0.98

> <Gold.PLP.Chemscore.Internal.Correction>
0.0583

> <Gold.Rescore>
     Score         DG    S(hbond)    S(metal)    S(lipo)     H(rot)  DE(clash)    DE(int)     intcor
      9.40     -13.74       2.69        0.00      83.47       4.10       1.11       3.23       ----

> <Gold.Chemscore.Fitness>
9.4001

> <Gold.Chemscore.DG>
-13.7443

> <Gold.Chemscore.ZeroCoef>
-5.4800

> <Gold.Chemscore.Hbond>
2.6906

> <Gold.Chemscore.Metal>
0.0000

> <Gold.Chemscore.Lipo>
83.4669

> <Gold.Chemscore.Internal_Hbond>
0.0000

> <Gold.Chemscore.DEClash>
1.1140

> <Gold.Chemscore.DEInternal>
3.2303

> <Gold.Chemscore.Rot>
4.0968

> <Gold.Chemscore.Internal.Correction>
   9.000000E+99

> <Gold.Chemscore.Hbonds>
donor molecule, donor type, donor heavy atom, donor atom, acceptor molecule, acceptor atom, score
      L1  H    17    42       P1 10747  0.99
      L1  H    19    43       P1 10747  0.63
      L1  H    21    44       P1  7921  0.39

> <Gold.Chemscore.Hbond.Weighted>
-8.9866

> <Gold.Chemscore.Metal.Weighted>
-0.0000

> <Gold.Chemscore.Lipo.Weighted>
-9.7656

> <Gold.Chemscore.Internal_Hbond.Weighted>
0.0000

> <Gold.Chemscore.DEClash.Weighted>
1.1140

> <Gold.Chemscore.DEInternal.Weighted>
3.2303

> <Gold.Chemscore.Rot.Weighted>
10.4879

> <Gold.Chemscore.Internal.Correction.Weighted>
   9.000000E+99

> <Gold.Protein.RotatedTorsions>
[ 6907 6896 6895 6894 ] final   79.46 input  -60.11 | X-H torsion
[ 7974 7965 7964 7962 ] final   56.31 input  175.53 | X-H torsion
[ 8008 7997 7996 7995 ] final   83.87 input   59.86 | X-H torsion
[ 10167 10162 10161 10158 ] final  139.63 input  -65.29 | X-H torsion
[ 10718 10713 10712 10709 ] final  -30.02 input   66.30 | X-H torsion
[ 10763 10752 10751 10750 ] final  -29.77 input  -60.55 | X-H torsion
[ 11005 11000 10999 10996 ] final  -51.83 input  -57.11 | X-H torsion

> <Gold.Protein.ActiveResidues>
 VAL166  LYS551  ARG553  GLY616  TRP617  ASP618  TYR619  PRO620  LYS621  CYS622 
 ASP623  PHE694  ASN695  SER759  ASP760  ASP761  ALA762  ILE779  LEU786  VAL792 
 PHE793  MET794  SER795  GLU796  ALA797  LYS798  CYS799  TRP800  GLU811  SER814 

> <Gold.Protein.RotatedAtoms>
  152.5199  134.3507  159.9249 H   0  0  0  0  0  0  0  0  0  0  0  0  # atno 6907 bound_to 6896
  151.3458  133.3938  159.2683 H   0  0  0  0  0  0  0  0  0  0  0  0  # atno 6908 bound_to 6896
  150.9767  134.9148  159.7878 H   0  0  0  0  0  0  0  0  0  0  0  0  # atno 6909 bound_to 6896
  145.9411  139.3890  143.0363 H   0  0  0  0  0  0  0  0  0  0  0  0  # atno 7974 bound_to 7965
  155.9297  140.3415  155.6239 H   0  0  0  0  0  0  0  0  0  0  0  0  # atno 8008 bound_to 7997
  155.7173  140.0779  157.2364 H   0  0  0  0  0  0  0  0  0  0  0  0  # atno 8009 bound_to 7997
  154.4083  140.1612  156.2350 H   0  0  0  0  0  0  0  0  0  0  0  0  # atno 8010 bound_to 7997
  139.5073  144.6283  151.5881 H   0  0  0  0  0  0  0  0  0  0  0  0  # atno 10167 bound_to 10162
  156.4051  130.4397  149.7293 H   0  0  0  0  0  0  0  0  0  0  0  0  # atno 10718 bound_to 10713
  153.7701  135.6913  153.4908 H   0  0  0  0  0  0  0  0  0  0  0  0  # atno 10763 bound_to 10752
  153.1880  135.4481  155.0112 H   0  0  0  0  0  0  0  0  0  0  0  0  # atno 10764 bound_to 10752
  154.8121  135.3382  154.7211 H   0  0  0  0  0  0  0  0  0  0  0  0  # atno 10765 bound_to 10752
  141.0892  133.6636  156.3935 H   0  0  0  0  0  0  0  0  0  0  0  0  # atno 11005 bound_to 11000
  145.8298  140.9637  143.0855 LP  0  0  0  0  0  0  0  0  0  0  0  0  # atno 17320 bound_to 7965
  144.6779  140.0147  143.7484 LP  0  0  0  0  0  0  0  0  0  0  0  0  # atno 17321 bound_to 7965
  140.6007  143.9614  150.6384 LP  0  0  0  0  0  0  0  0  0  0  0  0  # atno 17342 bound_to 10162
  140.2825  143.3380  152.1138 LP  0  0  0  0  0  0  0  0  0  0  0  0  # atno 17343 bound_to 10162
  156.4294  130.7808  151.2827 LP  0  0  0  0  0  0  0  0  0  0  0  0  # atno 17370 bound_to 10713
  157.7505  131.0158  150.3521 LP  0  0  0  0  0  0  0  0  0  0  0  0  # atno 17371 bound_to 10713
  140.5292  134.6229  157.5344 LP  0  0  0  0  0  0  0  0  0  0  0  0  # atno 17394 bound_to 11000
  139.9715  134.7285  156.0032 LP  0  0  0  0  0  0  0  0  0  0  0  0  # atno 17395 bound_to 11000

$$$$
