AV-unprocessed.smi:1694|AV-procd|sdf|6788|dock7
  -GOLD-   22720 7553D 1   1.00000     0.00000
 Structure written by MMmdl.
 34 35  0  0  0  0  0  0  0  0  1 V2000
  150.9904  144.9706  158.1629 C   0  0  0  0  0  0  0  0  0  0  0  0
  151.5879  143.6945  158.7347 C   0  0  0  0  0  0  0  0  0  0  0  0
  152.4936  143.7834  159.8132 C   0  0  0  0  0  0  0  0  0  0  0  0
  153.0475  142.6063  160.3435 C   0  0  0  0  0  0  0  0  0  0  0  0
  152.6694  141.3819  159.7683 C   0  0  0  0  0  0  0  0  0  0  0  0
  151.8044  141.2884  158.7379 N   0  0  0  0  0  0  0  0  0  0  0  0
  151.2580  142.4147  158.2113 C   0  0  0  0  0  0  0  0  0  0  0  0
  150.3323  142.4100  157.1214 N   0  0  0  0  0  0  0  0  0  0  0  0
  149.6969  141.4053  156.4800 C   0  0  0  0  0  0  0  0  0  0  0  0
  149.8721  140.2335  156.8098 O   0  0  0  0  0  0  0  0  0  0  0  0
  148.8777  141.7607  155.4772 N   0  0  0  0  0  0  0  0  0  0  0  0
  148.0967  140.8467  154.6514 C   0  0  1  0  0  0  0  0  0  0  0  0
  147.5002  141.6092  153.4620 C   0  0  0  0  0  0  0  0  0  0  0  0
  146.6533  140.6798  152.5786 C   0  0  0  0  0  0  0  0  0  0  0  0
  147.3406  139.3422  152.2669 C   0  0  0  0  0  0  0  0  0  0  0  0
  146.9390  138.6619  151.3257 O   0  0  0  0  0  0  0  0  0  0  0  0
  148.3476  138.9261  153.0550 N   0  0  0  0  0  0  0  0  0  0  0  0
  148.9695  139.6822  154.1415 C   0  0  0  0  0  0  0  0  0  0  0  0
  151.3727  145.8531  158.6765 H   0  0  0  0  0  0  0  0  0  0  0  0
  149.9052  144.9649  158.2694 H   0  0  0  0  0  0  0  0  0  0  0  0
  151.2347  145.0675  157.1046 H   0  0  0  0  0  0  0  0  0  0  0  0
  152.7632  144.7420  160.2319 H   0  0  0  0  0  0  0  0  0  0  0  0
  153.7430  142.6417  161.1689 H   0  0  0  0  0  0  0  0  0  0  0  0
  153.0707  140.4524  160.1441 H   0  0  0  0  0  0  0  0  0  0  0  0
  150.1062  143.3293  156.7707 H   0  0  0  0  0  0  0  0  0  0  0  0
  148.7918  142.7465  155.2718 H   0  0  0  0  0  0  0  0  0  0  0  0
  147.2737  140.4447  155.2460 H   0  0  0  0  0  0  0  0  0  0  0  0
  146.8834  142.4362  153.8166 H   0  0  0  0  0  0  0  0  0  0  0  0
  148.2986  142.0537  152.8657 H   0  0  0  0  0  0  0  0  0  0  0  0
  145.7121  140.4572  153.0824 H   0  0  0  0  0  0  0  0  0  0  0  0
  146.3962  141.1834  151.6462 H   0  0  0  0  0  0  0  0  0  0  0  0
  148.7560  138.0264  152.8457 H   0  0  0  0  0  0  0  0  0  0  0  0
  149.9205  140.0640  153.7678 H   0  0  0  0  0  0  0  0  0  0  0  0
  149.2062  138.9985  154.9573 H   0  0  0  0  0  0  0  0  0  0  0  0
  1  2  1  0  0  0  0
  1 19  1  0  0  0  0
  1 20  1  0  0  0  0
  1 21  1  0  0  0  0
  2  7  1  0  0  0  0
  2  3  2  0  0  0  0
  3  4  1  0  0  0  0
  3 22  1  0  0  0  0
  4  5  2  0  0  0  0
  4 23  1  0  0  0  0
  5  6  1  0  0  0  0
  5 24  1  0  0  0  0
  6  7  2  0  0  0  0
  7  8  1  0  0  0  0
  8  9  1  0  0  0  0
  8 25  1  0  0  0  0
  9 10  2  0  0  0  0
  9 11  1  0  0  0  0
 11 12  1  0  0  0  0
 11 26  1  0  0  0  0
 12 18  1  0  0  0  0
 12 13  1  0  0  0  0
 12 27  1  0  0  0  0
 13 14  1  0  0  0  0
 13 28  1  0  0  0  0
 13 29  1  0  0  0  0
 14 15  1  0  0  0  0
 14 30  1  0  0  0  0
 14 31  1  0  0  0  0
 15 16  2  0  0  0  0
 15 17  1  0  0  0  0
 17 18  1  0  0  0  0
 17 32  1  0  0  0  0
 18 33  1  0  0  0  0
 18 34  1  0  0  0  0
M  END
> <s_m_source_file>
AV-unprocessed.smi

> <i_m_source_file_index>
1694

> <i_lp_mmshare_version>
43012

> <i_f3d_flags>
0

> <s_epik_input>
W0NIM11jMVtjSF1bY0hdW2NIXW5jMVtOSF1DKD1PKVtOSF1bQ0BASF0yW0NIMl1bQ0gyXUMoPU8pW05IXVtDSDJdMg==

> <s_epik_cmdline>
J2VwaWtfcHl0aG9uJywgJy1waCcsICc3LjAnLCAnLXRuJywgJzgnLCAnLW1hJywgJzIwMCcsICctbWV0YWxfYmluZGluZycsICctaW1hZScsICc8aW5maWxlLm1hZT4nLCAnLW9tYWUnLCAnPG91dGZpbGUubWFlPic=

> <r_lp_tautomer_probability>
1

> <r_epik_Ionization_Penalty>
5.3746e-05

> <r_epik_Ionization_Penalty_Charging>
0

> <r_epik_Ionization_Penalty_Neutral>
5.3746e-05

> <r_epik_State_Penalty>
-0

> <r_epik_Charging_Adjusted_Penalty>
0

> <i_epik_Tot_Q>
0

> <i_epik_Tot_abs_Q>
0

> <r_epik_Metal_State_Penalty>
-0

> <b_epik_Metal_Only>
0

> <s_lp_Force_Field>
OPLS_2005

> <r_lp_Energy>
12.9855

> <b_lp_Chiralities_Consistent>
1

> <s_lp_Variant>
AV-unprocessed.smi:1694-2

> <Gold.Version>
5.8.1

> <Gold.Id.Protein>
6NUR|6NUR_protein|mol2

> <Gold.PLP.Fitness>
42.9293

> <Gold.PLP.PLP>
-32.1153

> <Gold.PLP.part.hbond>
-4.7870

> <Gold.PLP.part.metal>
0.0000

> <Gold.PLP.part.buried>
0.3878

> <Gold.PLP.part.nonpolar>
-29.5772

> <Gold.PLP.part.repulsive>
1.6577

> <Gold.PLP.ligand.clash>
0.0000

> <Gold.PLP.ligand.torsion>
0.1286

> <Gold.PLP.Chemscore.Hbond>
3.6900

> <Gold.PLP.Chemscore.CHOScore>
0.0000

> <Gold.PLP.Chemscore.Metal>
0.0000

> <Gold.Chemscore.Hbonds>
donor molecule, donor type, donor heavy atom, donor atom, acceptor molecule, acceptor atom, score
      L1  H     8    25       P1  8028  0.70
      L1  H    11    26       P1  8028  1.00
      L1  H    17    32       P1  7948  1.00
      P1  H  7954  7966       L1    16  0.98

> <Gold.PLP.Chemscore.Internal.Correction>
0.0013

> <Gold.Rescore>
     Score         DG    S(hbond)    S(metal)    S(lipo)     H(rot)  DE(clash)    DE(int)     intcor
     18.24     -24.85       3.51        0.00      87.11       1.00       3.94       2.67       ----

> <Gold.Chemscore.Fitness>
18.2440

> <Gold.Chemscore.DG>
-24.8509

> <Gold.Chemscore.ZeroCoef>
-5.4800

> <Gold.Chemscore.Hbond>
3.5148

> <Gold.Chemscore.Metal>
0.0000

> <Gold.Chemscore.Lipo>
87.1061

> <Gold.Chemscore.Internal_Hbond>
0.0000

> <Gold.Chemscore.DEClash>
3.9419

> <Gold.Chemscore.DEInternal>
2.6650

> <Gold.Chemscore.Rot>
1.0000

> <Gold.Chemscore.Internal.Correction>
   9.000000E+99

> <Gold.Chemscore.Hbonds>
donor molecule, donor type, donor heavy atom, donor atom, acceptor molecule, acceptor atom, score
      L1  H     8    25       P1  8028  0.67
      L1  H    11    26       P1  8028  0.95
      L1  H    17    32       P1  7948  0.92
      P1  H  7954  7966       L1    16  0.87

> <Gold.Chemscore.Hbond.Weighted>
-11.7395

> <Gold.Chemscore.Metal.Weighted>
-0.0000

> <Gold.Chemscore.Lipo.Weighted>
-10.1914

> <Gold.Chemscore.Internal_Hbond.Weighted>
0.0000

> <Gold.Chemscore.DEClash.Weighted>
3.9419

> <Gold.Chemscore.DEInternal.Weighted>
2.6650

> <Gold.Chemscore.Rot.Weighted>
2.5600

> <Gold.Chemscore.Internal.Correction.Weighted>
   9.000000E+99

> <Gold.Protein.RotatedTorsions>
[ 6907 6896 6895 6894 ] final  -50.84 input  -60.11 | X-H torsion
[ 7974 7965 7964 7962 ] final   22.23 input  175.53 | X-H torsion
[ 8008 7997 7996 7995 ] final -109.44 input   59.86 | X-H torsion
[ 10167 10162 10161 10158 ] final  139.31 input  -65.29 | X-H torsion
[ 10718 10713 10712 10709 ] final -176.12 input   66.30 | X-H torsion
[ 10763 10752 10751 10750 ] final  -68.11 input  -60.55 | X-H torsion
[ 11005 11000 10999 10996 ] final  141.47 input  -57.11 | X-H torsion

> <Gold.Protein.ActiveResidues>
 VAL166  LYS551  ARG553  GLY616  TRP617  ASP618  TYR619  PRO620  LYS621  CYS622 
 ASP623  PHE694  ASN695  SER759  ASP760  ASP761  ALA762  ILE779  LEU786  VAL792 
 PHE793  MET794  SER795  GLU796  ALA797  LYS798  CYS799  TRP800  GLU811  SER814 

> <Gold.Protein.RotatedAtoms>
  150.8668  134.8033  159.7124 H   0  0  0  0  0  0  0  0  0  0  0  0  # atno 6907 bound_to 6896
  152.4686  134.5011  159.9735 H   0  0  0  0  0  0  0  0  0  0  0  0  # atno 6908 bound_to 6896
  151.5106  133.3447  159.2920 H   0  0  0  0  0  0  0  0  0  0  0  0  # atno 6909 bound_to 6896
  146.2037  139.7914  142.8742 H   0  0  0  0  0  0  0  0  0  0  0  0  # atno 7974 bound_to 7965
  154.9594  140.0399  157.2183 H   0  0  0  0  0  0  0  0  0  0  0  0  # atno 8008 bound_to 7997
  154.7903  140.2834  155.5974 H   0  0  0  0  0  0  0  0  0  0  0  0  # atno 8009 bound_to 7997
  156.2948  140.2574  156.2749 H   0  0  0  0  0  0  0  0  0  0  0  0  # atno 8010 bound_to 7997
  139.5083  144.6302  151.5836 H   0  0  0  0  0  0  0  0  0  0  0  0  # atno 10167 bound_to 10162
  156.8099  130.9582  151.3116 H   0  0  0  0  0  0  0  0  0  0  0  0  # atno 10718 bound_to 10713
  154.3843  135.6067  153.5808 H   0  0  0  0  0  0  0  0  0  0  0  0  # atno 10763 bound_to 10752
  152.9788  135.5868  154.4373 H   0  0  0  0  0  0  0  0  0  0  0  0  # atno 10764 bound_to 10752
  154.4147  135.2845  155.1992 H   0  0  0  0  0  0  0  0  0  0  0  0  # atno 10765 bound_to 10752
  140.0404  134.9308  157.0832 H   0  0  0  0  0  0  0  0  0  0  0  0  # atno 11005 bound_to 11000
  145.3393  141.0284  143.3401 LP  0  0  0  0  0  0  0  0  0  0  0  0  # atno 17320 bound_to 7965
  144.8743  139.4993  143.6753 LP  0  0  0  0  0  0  0  0  0  0  0  0  # atno 17321 bound_to 7965
  140.6033  143.9571  150.6401 LP  0  0  0  0  0  0  0  0  0  0  0  0  # atno 17342 bound_to 10162
  140.2789  143.3403  152.1169 LP  0  0  0  0  0  0  0  0  0  0  0  0  # atno 17343 bound_to 10162
  157.6511  130.8885  149.9635 LP  0  0  0  0  0  0  0  0  0  0  0  0  # atno 17370 bound_to 10713
  156.1051  130.3653  150.0149 LP  0  0  0  0  0  0  0  0  0  0  0  0  # atno 17371 bound_to 10713
  140.4079  134.2013  155.7163 LP  0  0  0  0  0  0  0  0  0  0  0  0  # atno 17394 bound_to 11000
  141.1880  133.8270  157.1012 LP  0  0  0  0  0  0  0  0  0  0  0  0  # atno 17395 bound_to 11000

$$$$
