AV-unprocessed.smi:2807|AV-procd|sdf|10823|dock8
  -GOLD-   2272015263D 1   1.00000     0.00000
 Structure written by MMmdl.
 31 32  0  0  0  0  0  0  0  0  2 V2000
  151.2484  140.0158  155.5189 O   0  0  0  0  0  0  0  0  0  0  0  0
  150.6627  140.5108  156.4894 C   0  0  0  0  0  0  0  0  0  0  0  0
  149.5066  141.2330  156.5353 N   0  5  0  0  0  0  0  0  0  0  0  0
  148.3404  140.9655  155.6956 C   0  0  1  0  0  0  0  0  0  0  0  0
  147.1858  141.9271  156.0066 C   0  0  0  0  0  0  0  0  0  0  0  0
  146.3468  141.9922  154.7207 C   0  0  0  0  0  0  0  0  0  0  0  0
  147.2409  141.4582  153.5892 C   0  0  0  0  0  0  0  0  0  0  0  0
  148.6273  141.2509  154.2161 C   0  0  2  0  0  0  0  0  0  0  0  0
  149.3266  140.1916  153.5950 O   0  0  0  0  0  0  0  0  0  0  0  0
  151.2593  140.2965  157.8966 C   0  0  0  0  0  0  0  0  0  0  0  0
  150.3399  139.7190  158.6742 F   0  0  0  0  0  0  0  0  0  0  0  0
  152.3006  139.4611  157.8182 F   0  0  0  0  0  0  0  0  0  0  0  0
  151.6592  141.6311  158.5255 C   0  0  0  0  0  0  0  0  0  0  0  0
  152.2137  141.6739  159.8253 C   0  0  0  0  0  0  0  0  0  0  0  0
  152.5451  142.9251  160.3787 C   0  0  0  0  0  0  0  0  0  0  0  0
  152.3155  144.0861  159.6167 C   0  0  0  0  0  0  0  0  0  0  0  0
  151.7631  143.9421  158.3288 C   0  0  0  0  0  0  0  0  0  0  0  0
  151.4427  142.7475  157.7889 N   0  0  0  0  0  0  0  0  0  0  0  0
  147.9768  139.9401  155.7918 H   0  0  0  0  0  0  0  0  0  0  0  0
  146.6003  141.6058  156.8685 H   0  0  0  0  0  0  0  0  0  0  0  0
  147.5728  142.9236  156.2287 H   0  0  0  0  0  0  0  0  0  0  0  0
  145.4476  141.3804  154.8103 H   0  0  0  0  0  0  0  0  0  0  0  0
  146.0214  143.0146  154.5239 H   0  0  0  0  0  0  0  0  0  0  0  0
  146.8318  140.5156  153.2183 H   0  0  0  0  0  0  0  0  0  0  0  0
  147.2831  142.1432  152.7414 H   0  0  0  0  0  0  0  0  0  0  0  0
  149.2052  142.1712  154.1128 H   0  0  0  0  0  0  0  0  0  0  0  0
  149.3341  140.3526  152.6641 H   0  0  0  0  0  0  0  0  0  0  0  0
  152.3689  140.7658  160.3892 H   0  0  0  0  0  0  0  0  0  0  0  0
  152.9648  142.9928  161.3714 H   0  0  0  0  0  0  0  0  0  0  0  0
  152.5547  145.0630  160.0096 H   0  0  0  0  0  0  0  0  0  0  0  0
  151.5736  144.8104  157.7155 H   0  0  0  0  0  0  0  0  0  0  0  0
  1  2  2  0  0  0  0
  2  3  1  0  0  0  0
  2 10  1  0  0  0  0
  3  4  1  0  0  0  0
  4  8  1  0  0  0  0
  4  5  1  0  0  0  0
  4 19  1  0  0  0  0
  5  6  1  0  0  0  0
  5 20  1  0  0  0  0
  5 21  1  0  0  0  0
  6  7  1  0  0  0  0
  6 22  1  0  0  0  0
  6 23  1  0  0  0  0
  7  8  1  0  0  0  0
  7 24  1  0  0  0  0
  7 25  1  0  0  0  0
  8  9  1  0  0  0  0
  8 26  1  0  0  0  0
  9 27  1  0  0  0  0
 10 11  1  0  0  0  0
 10 12  1  0  0  0  0
 10 13  1  0  0  0  0
 13 18  1  0  0  0  0
 13 14  2  0  0  0  0
 14 15  1  0  0  0  0
 14 28  1  0  0  0  0
 15 16  2  0  0  0  0
 15 29  1  0  0  0  0
 16 17  1  0  0  0  0
 16 30  1  0  0  0  0
 17 18  2  0  0  0  0
 17 31  1  0  0  0  0
M  CHG  1   3  -1
M  END
> <s_m_source_file>
AV-unprocessed.smi

> <i_m_source_file_index>
2807

> <i_lp_mmshare_version>
43012

> <i_f3d_flags>
0

> <s_epik_input>
bjFbY0hdW2NIXVtjSF1bY0hdYzFDKEYpKEYpQyg9TylbTkhdW0NAQEhdMltDSDJdW0NIMl1bQ0gyXVtDQEhdMltPSF0=

> <s_epik_cmdline>
J2VwaWtfcHl0aG9uJywgJy1waCcsICc3LjAnLCAnLXRuJywgJzgnLCAnLW1hJywgJzIwMCcsICctbWV0YWxfYmluZGluZycsICctaW1hZScsICc8aW5maWxlLm1hZT4nLCAnLW9tYWUnLCAnPG91dGZpbGUubWFlPic=

> <r_lp_tautomer_probability>
1

> <r_epik_Ionization_Penalty>
5.72231

> <r_epik_Ionization_Penalty_Charging>
5.72231

> <r_epik_Ionization_Penalty_Neutral>
5.49816e-06

> <r_epik_State_Penalty>
5.72227

> <r_epik_Charging_Adjusted_Penalty>
11.4446

> <i_epik_Tot_Q>
-1

> <i_epik_Tot_abs_Q>
1

> <r_epik_Metal_State_Penalty>
1.70075

> <b_epik_Metal_Only>
1

> <s_lp_Force_Field>
OPLS_2005

> <r_lp_Energy>
34.2298

> <b_lp_Chiralities_Consistent>
1

> <s_lp_Variant>
AV-unprocessed.smi:2807-8

> <Gold.Version>
5.8.1

> <Gold.Id.Protein>
6NUR|6NUR_protein|mol2

> <Gold.PLP.Fitness>
43.5288

> <Gold.PLP.PLP>
-38.3105

> <Gold.PLP.part.hbond>
-2.5318

> <Gold.PLP.part.metal>
0.0000

> <Gold.PLP.part.buried>
-3.2641

> <Gold.PLP.part.nonpolar>
-32.1140

> <Gold.PLP.part.repulsive>
0.2029

> <Gold.PLP.ligand.clash>
0.0066

> <Gold.PLP.ligand.torsion>
0.3822

> <Gold.PLP.Chemscore.Hbond>
1.9833

> <Gold.PLP.Chemscore.CHOScore>
0.0000

> <Gold.PLP.Chemscore.Metal>
0.0000

> <Gold.Chemscore.Hbonds>
donor molecule, donor type, donor heavy atom, donor atom, acceptor molecule, acceptor atom, score
      L1  H     9    27       P1  7957  1.00
      P1  H  7989  7998       L1     1  0.52

> <Gold.PLP.Chemscore.Internal.Correction>
0.0396

> <Gold.Rescore>
     Score         DG    S(hbond)    S(metal)    S(lipo)     H(rot)  DE(clash)    DE(int)     intcor
     15.44     -17.45       1.95        0.00      90.25       2.00       0.11       1.90       ----

> <Gold.Chemscore.Fitness>
15.4403

> <Gold.Chemscore.DG>
-17.4519

> <Gold.Chemscore.ZeroCoef>
-5.4800

> <Gold.Chemscore.Hbond>
1.9531

> <Gold.Chemscore.Metal>
0.0000

> <Gold.Chemscore.Lipo>
90.2519

> <Gold.Chemscore.Internal_Hbond>
0.0000

> <Gold.Chemscore.DEClash>
0.1073

> <Gold.Chemscore.DEInternal>
1.9042

> <Gold.Chemscore.Rot>
1.9964

> <Gold.Chemscore.Internal.Correction>
   9.000000E+99

> <Gold.Chemscore.Hbonds>
donor molecule, donor type, donor heavy atom, donor atom, acceptor molecule, acceptor atom, score
      L1  H     9    27       P1  7957  0.95
      P1  H  7989  7998       L1     1  0.51

> <Gold.Chemscore.Hbond.Weighted>
-6.5233

> <Gold.Chemscore.Metal.Weighted>
-0.0000

> <Gold.Chemscore.Lipo.Weighted>
-10.5595

> <Gold.Chemscore.Internal_Hbond.Weighted>
0.0000

> <Gold.Chemscore.DEClash.Weighted>
0.1073

> <Gold.Chemscore.DEInternal.Weighted>
1.9042

> <Gold.Chemscore.Rot.Weighted>
5.1108

> <Gold.Chemscore.Internal.Correction.Weighted>
   9.000000E+99

> <Gold.Protein.RotatedTorsions>
[ 6907 6896 6895 6894 ] final -153.60 input  -60.11 | X-H torsion
[ 7974 7965 7964 7962 ] final -151.32 input  175.53 | X-H torsion
[ 8008 7997 7996 7995 ] final  -29.13 input   59.86 | X-H torsion
[ 10167 10162 10161 10158 ] final   59.04 input  -65.29 | X-H torsion
[ 10718 10713 10712 10709 ] final  -76.68 input   66.30 | X-H torsion
[ 10763 10752 10751 10750 ] final -102.71 input  -60.55 | X-H torsion
[ 11005 11000 10999 10996 ] final   36.58 input  -57.11 | X-H torsion

> <Gold.Protein.ActiveResidues>
 VAL166  LYS551  ARG553  GLY616  TRP617  ASP618  TYR619  PRO620  LYS621  CYS622 
 ASP623  PHE694  ASN695  SER759  ASP760  ASP761  ALA762  ILE779  LEU786  VAL792 
 PHE793  MET794  SER795  GLU796  ALA797  LYS798  CYS799  TRP800  GLU811  SER814 

> <Gold.Protein.RotatedAtoms>
  151.2450  133.4380  159.2608 H   0  0  0  0  0  0  0  0  0  0  0  0  # atno 6907 bound_to 6896
  151.0670  134.9774  159.8299 H   0  0  0  0  0  0  0  0  0  0  0  0  # atno 6908 bound_to 6896
  152.5407  134.2397  159.8910 H   0  0  0  0  0  0  0  0  0  0  0  0  # atno 6909 bound_to 6896
  144.7857  140.4813  143.5808 H   0  0  0  0  0  0  0  0  0  0  0  0  # atno 7974 bound_to 7965
  154.4303  140.1826  156.1199 H   0  0  0  0  0  0  0  0  0  0  0  0  # atno 8008 bound_to 7997
  156.0151  140.3346  155.6955 H   0  0  0  0  0  0  0  0  0  0  0  0  # atno 8009 bound_to 7997
  155.6055  140.0645  157.2711 H   0  0  0  0  0  0  0  0  0  0  0  0  # atno 8010 bound_to 7997
  140.1807  144.4185  150.6617 H   0  0  0  0  0  0  0  0  0  0  0  0  # atno 10167 bound_to 10162
  156.0168  130.4471  150.3230 H   0  0  0  0  0  0  0  0  0  0  0  0  # atno 10718 bound_to 10713
  154.7754  135.4850  153.9734 H   0  0  0  0  0  0  0  0  0  0  0  0  # atno 10763 bound_to 10752
  153.1422  135.6775  153.9017 H   0  0  0  0  0  0  0  0  0  0  0  0  # atno 10764 bound_to 10752
  153.8687  135.3146  155.3419 H   0  0  0  0  0  0  0  0  0  0  0  0  # atno 10765 bound_to 10752
  140.2311  134.3526  155.7963 H   0  0  0  0  0  0  0  0  0  0  0  0  # atno 11005 bound_to 11000
  145.5929  139.1497  143.3172 LP  0  0  0  0  0  0  0  0  0  0  0  0  # atno 17320 bound_to 7965
  146.2087  140.6054  142.9069 LP  0  0  0  0  0  0  0  0  0  0  0  0  # atno 17321 bound_to 7965
  140.6521  143.2228  151.6052 LP  0  0  0  0  0  0  0  0  0  0  0  0  # atno 17342 bound_to 10162
  139.5297  144.2952  152.1119 LP  0  0  0  0  0  0  0  0  0  0  0  0  # atno 17343 bound_to 10162
  157.1329  131.0276  151.2961 LP  0  0  0  0  0  0  0  0  0  0  0  0  # atno 17370 bound_to 10713
  157.4535  130.7612  149.7172 LP  0  0  0  0  0  0  0  0  0  0  0  0  # atno 17371 bound_to 10713
  141.2217  133.7246  156.8733 LP  0  0  0  0  0  0  0  0  0  0  0  0  # atno 17394 bound_to 11000
  140.1749  134.9074  157.2879 LP  0  0  0  0  0  0  0  0  0  0  0  0  # atno 17395 bound_to 11000

$$$$
