AV-unprocessed.smi:2032|AV-procd|sdf|8244|dock1
  -GOLD-   2272010513D 1   1.00000     0.00000
 Structure written by MMmdl.
 43 44  0  0  0  0  0  0  0  0  2 V2000
  149.1673  133.2630  153.3968 C   0  0  0  0  0  0  0  0  0  0  0  0
  149.4682  133.7035  154.8412 C   0  0  1  0  0  0  0  0  0  0  0  0
  150.5063  134.8384  154.9374 C   0  0  0  0  0  0  0  0  0  0  0  0
  149.9462  136.1563  154.5235 N   0  3  2  0  0  0  0  0  0  0  0  0
  150.9446  137.2790  154.5796 C   0  0  1  0  0  0  0  0  0  0  0  0
  150.3604  138.5913  153.9992 C   0  0  0  0  0  0  0  0  0  0  0  0
  151.4868  137.5082  156.0189 C   0  0  0  0  0  0  0  0  0  0  0  0
  150.9038  138.6731  156.6818 N   0  0  0  0  0  0  0  0  0  0  0  0
  151.5801  139.7632  157.0743 C   0  0  0  0  0  0  0  0  0  0  0  0
  152.7971  139.8917  156.9385 O   0  0  0  0  0  0  0  0  0  0  0  0
  150.7595  140.6708  157.6314 N   0  0  0  0  0  0  0  0  0  0  0  0
  151.0937  141.9386  158.1761 C   0  0  0  0  0  0  0  0  0  0  0  0
  150.3592  143.0458  158.0177 N   0  0  0  0  0  0  0  0  0  0  0  0
  150.9256  144.1474  158.6639 C   0  0  0  0  0  0  0  0  0  0  0  0
  152.1008  143.8591  159.3121 C   0  0  0  0  0  0  0  0  0  0  0  0
  152.5447  142.1823  159.1372 S   0  0  0  0  0  0  0  0  0  0  0  0
  148.6932  136.4203  155.2843 C   0  0  0  0  0  0  0  0  0  0  0  0
  147.6863  135.2643  155.1437 C   0  0  2  0  0  0  0  0  0  0  0  0
  146.4367  135.4868  156.0036 C   0  0  0  0  0  0  0  0  0  0  0  0
  148.2909  134.0486  155.5633 O   0  0  0  0  0  0  0  0  0  0  0  0
  150.0627  132.8626  152.9207 H   0  0  0  0  0  0  0  0  0  0  0  0
  148.8138  134.0856  152.7760 H   0  0  0  0  0  0  0  0  0  0  0  0
  148.4088  132.4799  153.3797 H   0  0  0  0  0  0  0  0  0  0  0  0
  149.8845  132.8340  155.3509 H   0  0  0  0  0  0  0  0  0  0  0  0
  150.8685  134.9160  155.9637 H   0  0  0  0  0  0  0  0  0  0  0  0
  151.3559  134.5511  154.3215 H   0  0  0  0  0  0  0  0  0  0  0  0
  151.7914  136.9928  153.9532 H   0  0  0  0  0  0  0  0  0  0  0  0
  151.0574  139.4238  154.0801 H   0  0  0  0  0  0  0  0  0  0  0  0
  149.4444  138.8797  154.5159 H   0  0  0  0  0  0  0  0  0  0  0  0
  150.1445  138.5185  152.9347 H   0  0  0  0  0  0  0  0  0  0  0  0
  151.3578  136.6056  156.6187 H   0  0  0  0  0  0  0  0  0  0  0  0
  152.5546  137.7182  156.0035 H   0  0  0  0  0  0  0  0  0  0  0  0
  149.9063  138.6538  156.8383 H   0  0  0  0  0  0  0  0  0  0  0  0
  149.7808  140.4274  157.6733 H   0  0  0  0  0  0  0  0  0  0  0  0
  150.4240  145.1024  158.6109 H   0  0  0  0  0  0  0  0  0  0  0  0
  152.7295  144.5289  159.8798 H   0  0  0  0  0  0  0  0  0  0  0  0
  148.9353  136.5896  156.3349 H   0  0  0  0  0  0  0  0  0  0  0  0
  148.1922  137.3140  154.9180 H   0  0  0  0  0  0  0  0  0  0  0  0
  147.3662  135.1806  154.1051 H   0  0  0  0  0  0  0  0  0  0  0  0
  145.9192  136.4021  155.7156 H   0  0  0  0  0  0  0  0  0  0  0  0
  146.6924  135.5657  157.0607 H   0  0  0  0  0  0  0  0  0  0  0  0
  145.7344  134.6603  155.8923 H   0  0  0  0  0  0  0  0  0  0  0  0
  149.6772  136.0616  153.5542 H   0  0  0  0  0  0  0  0  0  0  0  0
  1  2  1  0  0  0  0
  1 21  1  0  0  0  0
  1 22  1  0  0  0  0
  1 23  1  0  0  0  0
  2 20  1  0  0  0  0
  2  3  1  0  0  0  0
  2 24  1  0  0  0  0
  3  4  1  0  0  0  0
  3 25  1  0  0  0  0
  3 26  1  0  0  0  0
  4  5  1  0  0  0  0
  4 17  1  0  0  0  0
  4 43  1  0  0  0  0
  5  6  1  0  0  0  0
  5  7  1  0  0  0  0
  5 27  1  0  0  0  0
  6 28  1  0  0  0  0
  6 29  1  0  0  0  0
  6 30  1  0  0  0  0
  7  8  1  0  0  0  0
  7 31  1  0  0  0  0
  7 32  1  0  0  0  0
  8  9  1  0  0  0  0
  8 33  1  0  0  0  0
  9 10  2  0  0  0  0
  9 11  1  0  0  0  0
 11 12  1  0  0  0  0
 11 34  1  0  0  0  0
 12 16  1  0  0  0  0
 12 13  2  0  0  0  0
 13 14  1  0  0  0  0
 14 15  2  0  0  0  0
 14 35  1  0  0  0  0
 15 16  1  0  0  0  0
 15 36  1  0  0  0  0
 17 18  1  0  0  0  0
 17 37  1  0  0  0  0
 17 38  1  0  0  0  0
 18 19  1  0  0  0  0
 18 20  1  0  0  0  0
 18 39  1  0  0  0  0
 19 40  1  0  0  0  0
 19 41  1  0  0  0  0
 19 42  1  0  0  0  0
M  CHG  1   4   1
M  END
> <s_m_source_file>
AV-unprocessed.smi

> <i_m_source_file_index>
2032

> <i_lp_mmshare_version>
43012

> <i_f3d_flags>
0

> <s_epik_input>
W0NIM11bQ0BASF0xW0NIMl1OKFtDSDJdW0NASF0oTzEpW0NIM10pW0NASF0oW0NIM10pW0NIMl1bTkhdQyg9TylbTkhdYzJuW2NIXVtjSF1zMg==

> <s_epik_cmdline>
J2VwaWtfcHl0aG9uJywgJy1waCcsICc3LjAnLCAnLXRuJywgJzgnLCAnLW1hJywgJzIwMCcsICctbWV0YWxfYmluZGluZycsICctaW1hZScsICc8aW5maWxlLm1hZT4nLCAnLW9tYWUnLCAnPG91dGZpbGUubWFlPic=

> <r_lp_tautomer_probability>
0.999

> <r_epik_Ionization_Penalty>
0.695838

> <r_epik_Ionization_Penalty_Charging>
0.695697

> <r_epik_Ionization_Penalty_Neutral>
0.000141198

> <r_epik_State_Penalty>
0.717972

> <r_epik_Charging_Adjusted_Penalty>
1.41367

> <i_epik_Tot_Q>
1

> <i_epik_Tot_abs_Q>
1

> <r_epik_Metal_State_Penalty>
0.756405

> <b_epik_Metal_Only>
0

> <s_lp_Force_Field>
OPLS_2005

> <r_lp_Energy>
22.0252

> <b_lp_Chiralities_Consistent>
1

> <s_lp_Variant>
AV-unprocessed.smi:2032-14

> <Gold.Version>
5.8.1

> <Gold.Id.Protein>
6NUR|6NUR_protein|mol2

> <Gold.PLP.Fitness>
38.1091

> <Gold.PLP.PLP>
-31.2857

> <Gold.PLP.part.hbond>
-2.0000

> <Gold.PLP.part.metal>
0.0000

> <Gold.PLP.part.buried>
-4.6294

> <Gold.PLP.part.nonpolar>
-25.5737

> <Gold.PLP.part.repulsive>
0.2872

> <Gold.PLP.ligand.clash>
0.4247

> <Gold.PLP.ligand.torsion>
0.9076

> <Gold.PLP.Chemscore.Hbond>
3.0000

> <Gold.PLP.Chemscore.CHOScore>
0.0000

> <Gold.PLP.Chemscore.Metal>
0.0000

> <Gold.Chemscore.Hbonds>
donor molecule, donor type, donor heavy atom, donor atom, acceptor molecule, acceptor atom, score
      L1  H     4    43       P1  7948  2.00
      P1  H  7997  8010       L1    10  0.82

> <Gold.PLP.Chemscore.Internal.Correction>
0.0633

> <Gold.Rescore>
     Score         DG    S(hbond)    S(metal)    S(lipo)     H(rot)  DE(clash)    DE(int)     intcor
     15.27     -16.18       1.92        0.00      71.78       1.61       0.04       0.87       ----

> <Gold.Chemscore.Fitness>
15.2672

> <Gold.Chemscore.DG>
-16.1762

> <Gold.Chemscore.ZeroCoef>
-5.4800

> <Gold.Chemscore.Hbond>
1.9228

> <Gold.Chemscore.Metal>
0.0000

> <Gold.Chemscore.Lipo>
71.7781

> <Gold.Chemscore.Internal_Hbond>
0.0000

> <Gold.Chemscore.DEClash>
0.0424

> <Gold.Chemscore.DEInternal>
0.8666

> <Gold.Chemscore.Rot>
1.6110

> <Gold.Chemscore.Internal.Correction>
   9.000000E+99

> <Gold.Chemscore.Hbonds>
donor molecule, donor type, donor heavy atom, donor atom, acceptor molecule, acceptor atom, score
      L1  H     4    43       P1  7948  0.26
      P1  H  7997  8010       L1    10  0.81

> <Gold.Chemscore.Hbond.Weighted>
-6.4223

> <Gold.Chemscore.Metal.Weighted>
-0.0000

> <Gold.Chemscore.Lipo.Weighted>
-8.3980

> <Gold.Chemscore.Internal_Hbond.Weighted>
0.0000

> <Gold.Chemscore.DEClash.Weighted>
0.0424

> <Gold.Chemscore.DEInternal.Weighted>
0.8666

> <Gold.Chemscore.Rot.Weighted>
4.1242

> <Gold.Chemscore.Internal.Correction.Weighted>
   9.000000E+99

> <Gold.Protein.RotatedTorsions>
[ 6907 6896 6895 6894 ] final  101.97 input  -60.11 | X-H torsion
[ 7974 7965 7964 7962 ] final  113.85 input  175.53 | X-H torsion
[ 8008 7997 7996 7995 ] final   39.56 input   59.86 | X-H torsion
[ 10167 10162 10161 10158 ] final  -57.71 input  -65.29 | X-H torsion
[ 10718 10713 10712 10709 ] final  141.73 input   66.30 | X-H torsion
[ 10763 10752 10751 10750 ] final    1.04 input  -60.55 | X-H torsion
[ 11005 11000 10999 10996 ] final   34.25 input  -57.11 | X-H torsion

> <Gold.Protein.ActiveResidues>
 VAL166  LYS551  ARG553  GLY616  TRP617  ASP618  TYR619  PRO620  LYS621  CYS622 
 ASP623  PHE694  ASN695  SER759  ASP760  ASP761  ALA762  ILE779  LEU786  VAL792 
 PHE793  MET794  SER795  GLU796  ALA797  LYS798  CYS799  TRP800  GLU811  SER814 

> <Gold.Protein.RotatedAtoms>
  152.5336  134.0046  159.7910 H   0  0  0  0  0  0  0  0  0  0  0  0  # atno 6907 bound_to 6896
  151.0259  133.5826  159.2673 H   0  0  0  0  0  0  0  0  0  0  0  0  # atno 6908 bound_to 6896
  151.2849  135.0732  159.9236 H   0  0  0  0  0  0  0  0  0  0  0  0  # atno 6909 bound_to 6896
  145.2118  139.2903  143.4264 H   0  0  0  0  0  0  0  0  0  0  0  0  # atno 7974 bound_to 7965
  155.2387  140.3344  155.4295 H   0  0  0  0  0  0  0  0  0  0  0  0  # atno 8008 bound_to 7997
  156.2265  140.1831  156.7395 H   0  0  0  0  0  0  0  0  0  0  0  0  # atno 8009 bound_to 7997
  154.5907  140.0638  156.9220 H   0  0  0  0  0  0  0  0  0  0  0  0  # atno 8010 bound_to 7997
  140.6241  143.2431  151.5406 H   0  0  0  0  0  0  0  0  0  0  0  0  # atno 10167 bound_to 10162
  157.3887  131.1002  151.0668 H   0  0  0  0  0  0  0  0  0  0  0  0  # atno 10718 bound_to 10713
  153.3131  135.6964  153.7098 H   0  0  0  0  0  0  0  0  0  0  0  0  # atno 10763 bound_to 10752
  153.5967  135.3469  155.2931 H   0  0  0  0  0  0  0  0  0  0  0  0  # atno 10764 bound_to 10752
  154.8580  135.4331  154.2274 H   0  0  0  0  0  0  0  0  0  0  0  0  # atno 10765 bound_to 10752
  140.2548  134.3261  155.7878 H   0  0  0  0  0  0  0  0  0  0  0  0  # atno 11005 bound_to 11000
  146.3396  140.2396  142.8595 LP  0  0  0  0  0  0  0  0  0  0  0  0  # atno 17320 bound_to 7965
  144.9849  140.8493  143.5375 LP  0  0  0  0  0  0  0  0  0  0  0  0  # atno 17321 bound_to 7965
  139.5465  144.2508  152.1451 LP  0  0  0  0  0  0  0  0  0  0  0  0  # atno 17342 bound_to 10162
  140.1736  144.4912  150.6566 LP  0  0  0  0  0  0  0  0  0  0  0  0  # atno 17343 bound_to 10162
  157.1709  130.6267  149.5640 LP  0  0  0  0  0  0  0  0  0  0  0  0  # atno 17370 bound_to 10713
  155.9793  130.4785  150.6706 LP  0  0  0  0  0  0  0  0  0  0  0  0  # atno 17371 bound_to 10713
  141.2197  133.7374  156.9094 LP  0  0  0  0  0  0  0  0  0  0  0  0  # atno 17394 bound_to 11000
  140.1522  134.9222  157.2608 LP  0  0  0  0  0  0  0  0  0  0  0  0  # atno 17395 bound_to 11000

$$$$
