AV-unprocessed.smi:1560|AV-procd|sdf|6280|dock7
  -GOLD-   22720 6473D 1   1.00000     0.00000
 Structure written by MMmdl.
 46 47  0  0  0  0  0  0  0  0  2 V2000
  149.4825  140.5562  154.6021 C   0  0  0  0  0  0  0  0  0  0  0  0
  150.1665  141.5000  155.6077 C   0  0  0  0  0  0  0  0  0  0  0  0
  150.6703  140.8356  156.9292 C   0  0  2  0  0  0  0  0  0  0  0  0
  151.4795  139.5807  156.5033 C   0  0  0  0  0  0  0  0  0  0  0  0
  149.4342  140.3573  157.7597 C   0  0  0  0  0  0  0  0  0  0  0  0
  148.7465  139.2056  157.1778 N   0  0  0  0  0  0  0  0  0  0  0  0
  147.7206  138.5423  157.7317 C   0  0  0  0  0  0  0  0  0  0  0  0
  147.2728  138.7930  158.8510 O   0  0  0  0  0  0  0  0  0  0  0  0
  147.1065  137.4192  156.8894 C   0  0  0  0  0  0  0  0  0  0  0  0
  147.9395  136.2071  156.9138 N   0  0  0  0  0  0  0  0  0  0  0  0
  148.4578  135.7419  155.6925 C   0  0  0  0  0  0  0  0  0  0  0  0
  149.2424  134.6494  155.6246 C   0  0  0  0  0  0  0  0  0  0  0  0
  149.5517  133.9433  156.8620 C   0  0  0  0  0  0  0  0  0  0  0  0
  150.2645  132.9425  156.8188 O   0  0  0  0  0  0  0  0  0  0  0  0
  149.0270  134.4357  158.0221 N   0  5  0  0  0  0  0  0  0  0  0  0
  148.2328  135.5494  158.0766 C   0  0  0  0  0  0  0  0  0  0  0  0
  147.7738  135.9798  159.1357 O   0  0  0  0  0  0  0  0  0  0  0  0
  151.5313  141.7755  157.7021 N   0  0  0  0  0  0  0  0  0  0  0  0
  151.9818  141.2828  159.0091 C   0  0  0  0  0  0  0  0  0  0  0  0
  152.9785  142.2462  159.6761 C   0  0  0  0  0  0  0  0  0  0  0  0
  152.3911  143.5359  159.8012 O   0  0  0  0  0  0  0  0  0  0  0  0
  151.9907  144.0739  158.5465 C   0  0  0  0  0  0  0  0  0  0  0  0
  150.9822  143.1260  157.8761 C   0  0  0  0  0  0  0  0  0  0  0  0
  149.1715  141.1090  153.7154 H   0  0  0  0  0  0  0  0  0  0  0  0
  148.5900  140.0949  155.0239 H   0  0  0  0  0  0  0  0  0  0  0  0
  150.1489  139.7603  154.2706 H   0  0  0  0  0  0  0  0  0  0  0  0
  150.9868  142.0146  155.1070 H   0  0  0  0  0  0  0  0  0  0  0  0
  149.4512  142.2901  155.8366 H   0  0  0  0  0  0  0  0  0  0  0  0
  150.9573  138.9938  155.7465 H   0  0  0  0  0  0  0  0  0  0  0  0
  151.6614  138.9079  157.3415 H   0  0  0  0  0  0  0  0  0  0  0  0
  152.4501  139.8494  156.0856 H   0  0  0  0  0  0  0  0  0  0  0  0
  149.7412  140.0466  158.7573 H   0  0  0  0  0  0  0  0  0  0  0  0
  148.7250  141.1715  157.9098 H   0  0  0  0  0  0  0  0  0  0  0  0
  149.0381  138.9259  156.2525 H   0  0  0  0  0  0  0  0  0  0  0  0
  146.0957  137.1910  157.2339 H   0  0  0  0  0  0  0  0  0  0  0  0
  146.9864  137.7837  155.8682 H   0  0  0  0  0  0  0  0  0  0  0  0
  148.1878  136.3264  154.8252 H   0  0  0  0  0  0  0  0  0  0  0  0
  149.6359  134.3070  154.6789 H   0  0  0  0  0  0  0  0  0  0  0  0
  151.1311  141.1462  159.6766 H   0  0  0  0  0  0  0  0  0  0  0  0
  152.4688  140.3140  158.9137 H   0  0  0  0  0  0  0  0  0  0  0  0
  153.2508  141.8824  160.6671 H   0  0  0  0  0  0  0  0  0  0  0  0
  153.8995  142.3123  159.0948 H   0  0  0  0  0  0  0  0  0  0  0  0
  151.5408  145.0538  158.7065 H   0  0  0  0  0  0  0  0  0  0  0  0
  152.8640  144.2222  157.9092 H   0  0  0  0  0  0  0  0  0  0  0  0
  150.7019  143.5614  156.9190 H   0  0  0  0  0  0  0  0  0  0  0  0
  150.0788  143.0922  158.4844 H   0  0  0  0  0  0  0  0  0  0  0  0
  1  2  1  0  0  0  0
  1 24  1  0  0  0  0
  1 25  1  0  0  0  0
  1 26  1  0  0  0  0
  2  3  1  0  0  0  0
  2 27  1  0  0  0  0
  2 28  1  0  0  0  0
  3  4  1  0  0  0  0
  3  5  1  0  0  0  0
  3 18  1  0  0  0  0
  4 29  1  0  0  0  0
  4 30  1  0  0  0  0
  4 31  1  0  0  0  0
  5  6  1  0  0  0  0
  5 32  1  0  0  0  0
  5 33  1  0  0  0  0
  6  7  1  0  0  0  0
  6 34  1  0  0  0  0
  7  8  2  0  0  0  0
  7  9  1  0  0  0  0
  9 10  1  0  0  0  0
  9 35  1  0  0  0  0
  9 36  1  0  0  0  0
 10 16  1  0  0  0  0
 10 11  1  0  0  0  0
 11 12  2  0  0  0  0
 11 37  1  0  0  0  0
 12 13  1  0  0  0  0
 12 38  1  0  0  0  0
 13 14  2  0  0  0  0
 13 15  1  0  0  0  0
 15 16  1  0  0  0  0
 16 17  2  0  0  0  0
 18 23  1  0  0  0  0
 18 19  1  0  0  0  0
 19 20  1  0  0  0  0
 19 39  1  0  0  0  0
 19 40  1  0  0  0  0
 20 21  1  0  0  0  0
 20 41  1  0  0  0  0
 20 42  1  0  0  0  0
 21 22  1  0  0  0  0
 22 23  1  0  0  0  0
 22 43  1  0  0  0  0
 22 44  1  0  0  0  0
 23 45  1  0  0  0  0
 23 46  1  0  0  0  0
M  CHG  1  15  -1
M  END
> <s_m_source_file>
AV-unprocessed.smi

> <i_m_source_file_index>
1560

> <i_lp_mmshare_version>
43012

> <i_f3d_flags>
0

> <s_epik_input>
W0NIMl0xW0NIMl1PW0NIMl1bQ0gyXU4xW0NAQF0oW0NIM10pKFtDSDJdW0NIM10pW0NIMl1bTkhdQyg9TylbQ0gyXW4yW2NIXVtjSF1jKD1PKVtuSF1jMj1P

> <s_epik_cmdline>
J2VwaWtfcHl0aG9uJywgJy1waCcsICc3LjAnLCAnLXRuJywgJzgnLCAnLW1hJywgJzIwMCcsICctbWV0YWxfYmluZGluZycsICctaW1hZScsICc8aW5maWxlLm1hZT4nLCAnLW9tYWUnLCAnPG91dGZpbGUubWFlPic=

> <r_lp_tautomer_probability>
0.999537

> <r_epik_Ionization_Penalty>
3.35108

> <r_epik_Ionization_Penalty_Charging>
2.65778e-08

> <r_epik_Ionization_Penalty_Neutral>
3.35108

> <r_epik_State_Penalty>
3.36199

> <r_epik_Charging_Adjusted_Penalty>
3.36199

> <i_epik_Tot_Q>
-1

> <i_epik_Tot_abs_Q>
1

> <r_epik_Metal_State_Penalty>
0.748914

> <b_epik_Metal_Only>
1

> <s_lp_Force_Field>
OPLS_2005

> <r_lp_Energy>
50.983

> <b_lp_Chiralities_Consistent>
1

> <s_lp_Variant>
AV-unprocessed.smi:1560-6

> <Gold.Version>
5.8.1

> <Gold.Id.Protein>
6NUR|6NUR_protein|mol2

> <Gold.PLP.Fitness>
39.5493

> <Gold.PLP.PLP>
-32.2957

> <Gold.PLP.part.hbond>
-2.0000

> <Gold.PLP.part.metal>
0.0000

> <Gold.PLP.part.buried>
-4.6852

> <Gold.PLP.part.nonpolar>
-25.9025

> <Gold.PLP.part.repulsive>
0.0563

> <Gold.PLP.ligand.clash>
0.0000

> <Gold.PLP.ligand.torsion>
0.6098

> <Gold.PLP.Chemscore.Hbond>
2.0582

> <Gold.PLP.Chemscore.CHOScore>
0.7233

> <Gold.PLP.Chemscore.Metal>
0.0000

> <Gold.Chemscore.Hbonds>
donor molecule, donor type, donor heavy atom, donor atom, acceptor molecule, acceptor atom, score
      P1  H  6896  6907       L1    15  1.23
      P1  H  6934  6947       L1     8  0.10

> <Gold.PLP.Chemscore.Internal.Correction>
0.1285

> <Gold.Rescore>
     Score         DG    S(hbond)    S(metal)    S(lipo)     H(rot)  DE(clash)    DE(int)     intcor
     10.70     -11.80       0.88        0.00      81.80       2.42       0.03       1.07       ----

> <Gold.Chemscore.Fitness>
10.7025

> <Gold.Chemscore.DG>
-11.8036

> <Gold.Chemscore.ZeroCoef>
-5.4800

> <Gold.Chemscore.Hbond>
0.8826

> <Gold.Chemscore.Metal>
0.0000

> <Gold.Chemscore.Lipo>
81.7964

> <Gold.Chemscore.Internal_Hbond>
0.0000

> <Gold.Chemscore.DEClash>
0.0323

> <Gold.Chemscore.DEInternal>
1.0689

> <Gold.Chemscore.Rot>
2.4197

> <Gold.Chemscore.Internal.Correction>
   9.000000E+99

> <Gold.Chemscore.Hbonds>
donor molecule, donor type, donor heavy atom, donor atom, acceptor molecule, acceptor atom, score
      P1  H  6896  6907       L1    15  0.12
      P1  H  6934  6947       L1     8  0.11

> <Gold.Chemscore.Hbond.Weighted>
-2.9478

> <Gold.Chemscore.Metal.Weighted>
-0.0000

> <Gold.Chemscore.Lipo.Weighted>
-9.5702

> <Gold.Chemscore.Internal_Hbond.Weighted>
0.0000

> <Gold.Chemscore.DEClash.Weighted>
0.0323

> <Gold.Chemscore.DEInternal.Weighted>
1.0689

> <Gold.Chemscore.Rot.Weighted>
6.1943

> <Gold.Chemscore.Internal.Correction.Weighted>
   9.000000E+99

> <Gold.Protein.RotatedTorsions>
[ 6907 6896 6895 6894 ] final -109.00 input  -60.11 | X-H torsion
[ 7974 7965 7964 7962 ] final   17.22 input  175.53 | X-H torsion
[ 8008 7997 7996 7995 ] final   36.01 input   59.86 | X-H torsion
[ 10167 10162 10161 10158 ] final   -0.07 input  -65.29 | X-H torsion
[ 10718 10713 10712 10709 ] final  -48.81 input   66.30 | X-H torsion
[ 10763 10752 10751 10750 ] final  163.27 input  -60.55 | X-H torsion
[ 11005 11000 10999 10996 ] final  -66.42 input  -57.11 | X-H torsion

> <Gold.Protein.ActiveResidues>
 VAL166  LYS551  ARG553  GLY616  TRP617  ASP618  TYR619  PRO620  LYS621  CYS622 
 ASP623  PHE694  ASN695  SER759  ASP760  ASP761  ALA762  ILE779  LEU786  VAL792 
 PHE793  MET794  SER795  GLU796  ALA797  LYS798  CYS799  TRP800  GLU811  SER814 

> <Gold.Protein.RotatedAtoms>
  150.7535  133.9593  159.3510 H   0  0  0  0  0  0  0  0  0  0  0  0  # atno 6907 bound_to 6896
  151.7518  135.0829  160.0341 H   0  0  0  0  0  0  0  0  0  0  0  0  # atno 6908 bound_to 6896
  152.3461  133.6087  159.5947 H   0  0  0  0  0  0  0  0  0  0  0  0  # atno 6909 bound_to 6896
  146.2225  139.8634  142.8600 H   0  0  0  0  0  0  0  0  0  0  0  0  # atno 7974 bound_to 7965
  155.1804  140.3299  155.4376 H   0  0  0  0  0  0  0  0  0  0  0  0  # atno 8008 bound_to 7997
  156.2478  140.1928  156.6853 H   0  0  0  0  0  0  0  0  0  0  0  0  # atno 8009 bound_to 7997
  154.6275  140.0587  156.9677 H   0  0  0  0  0  0  0  0  0  0  0  0  # atno 8010 bound_to 7997
  140.6751  143.6939  150.8006 H   0  0  0  0  0  0  0  0  0  0  0  0  # atno 10167 bound_to 10162
  156.1952  130.4154  149.9316 H   0  0  0  0  0  0  0  0  0  0  0  0  # atno 10718 bound_to 10713
  154.2911  135.2761  155.2654 H   0  0  0  0  0  0  0  0  0  0  0  0  # atno 10763 bound_to 10752
  154.5133  135.5776  153.6625 H   0  0  0  0  0  0  0  0  0  0  0  0  # atno 10764 bound_to 10752
  152.9914  135.6186  154.3076 H   0  0  0  0  0  0  0  0  0  0  0  0  # atno 10765 bound_to 10752
  141.1482  133.6699  156.6137 H   0  0  0  0  0  0  0  0  0  0  0  0  # atno 11005 bound_to 11000
  145.2681  141.0099  143.3787 LP  0  0  0  0  0  0  0  0  0  0  0  0  # atno 17320 bound_to 7965
  144.9245  139.4372  143.6525 LP  0  0  0  0  0  0  0  0  0  0  0  0  # atno 17321 bound_to 7965
  140.0630  143.5135  152.2618 LP  0  0  0  0  0  0  0  0  0  0  0  0  # atno 17342 bound_to 10162
  139.6039  144.7590  151.3107 LP  0  0  0  0  0  0  0  0  0  0  0  0  # atno 17343 bound_to 10162
  156.7043  130.8945  151.3603 LP  0  0  0  0  0  0  0  0  0  0  0  0  # atno 17370 bound_to 10713
  157.6953  130.9276  150.0628 LP  0  0  0  0  0  0  0  0  0  0  0  0  # atno 17371 bound_to 10713
  140.3594  134.7700  157.4523 LP  0  0  0  0  0  0  0  0  0  0  0  0  # atno 17394 bound_to 11000
  140.0797  134.5748  155.8554 LP  0  0  0  0  0  0  0  0  0  0  0  0  # atno 17395 bound_to 11000

$$$$
