AV-unprocessed.smi:2176|AV-procd|sdf|8847|dock4
  -GOLD-   2272012 43D 1   1.00000     0.00000
 Structure written by MMmdl.
 28 29  0  0  0  0  0  0  0  0  2 V2000
  150.9456  141.1021  157.8500 O   0  0  0  0  0  0  0  0  0  0  0  0
  150.5130  141.9637  157.0835 C   0  0  0  0  0  0  0  0  0  0  0  0
  150.3707  141.6701  155.5845 C   0  0  0  0  0  0  0  0  0  0  0  0
  150.6592  140.2644  155.2591 N   0  0  0  0  0  0  0  0  0  0  0  0
  151.9350  139.7653  155.5754 C   0  0  0  0  0  0  0  0  0  0  0  0
  152.2824  138.4897  155.3186 C   0  0  0  0  0  0  0  0  0  0  0  0
  151.2954  137.6175  154.6944 C   0  0  0  0  0  0  0  0  0  0  0  0
  151.5969  136.4514  154.4481 O   0  0  0  0  0  0  0  0  0  0  0  0
  150.0697  138.1473  154.4106 N   0  5  0  0  0  0  0  0  0  0  0  0
  149.7293  139.4459  154.6800 C   0  0  0  0  0  0  0  0  0  0  0  0
  148.6161  139.9031  154.4176 O   0  0  0  0  0  0  0  0  0  0  0  0
  150.1692  143.1964  157.4821 N   0  0  0  0  0  0  0  0  0  0  0  0
  150.2170  143.6636  158.8595 C   0  0  0  0  0  0  0  0  0  0  0  0
  151.6145  143.9691  159.3558 C   0  0  0  0  0  0  0  0  0  0  0  0
  151.9309  145.3046  159.9871 C   0  0  0  0  0  0  0  0  0  0  0  0
  152.4958  144.9582  158.6298 C   0  0  0  0  0  0  0  0  0  0  0  0
  149.3698  141.9381  155.2401 H   0  0  0  0  0  0  0  0  0  0  0  0
  151.0461  142.3338  155.0434 H   0  0  0  0  0  0  0  0  0  0  0  0
  152.6037  140.4740  156.0413 H   0  0  0  0  0  0  0  0  0  0  0  0
  153.2654  138.1206  155.5711 H   0  0  0  0  0  0  0  0  0  0  0  0
  149.8250  143.8435  156.7876 H   0  0  0  0  0  0  0  0  0  0  0  0
  149.5983  144.5563  158.9692 H   0  0  0  0  0  0  0  0  0  0  0  0
  149.7824  142.8972  159.5023 H   0  0  0  0  0  0  0  0  0  0  0  0
  152.1188  143.1119  159.7985 H   0  0  0  0  0  0  0  0  0  0  0  0
  151.1378  146.0488  160.0249 H   0  0  0  0  0  0  0  0  0  0  0  0
  152.6183  145.3122  160.8304 H   0  0  0  0  0  0  0  0  0  0  0  0
  153.5578  144.7304  158.5678 H   0  0  0  0  0  0  0  0  0  0  0  0
  152.0776  145.4700  157.7652 H   0  0  0  0  0  0  0  0  0  0  0  0
  1  2  2  0  0  0  0
  2  3  1  0  0  0  0
  2 12  1  0  0  0  0
  3  4  1  0  0  0  0
  3 17  1  0  0  0  0
  3 18  1  0  0  0  0
  4 10  1  0  0  0  0
  4  5  1  0  0  0  0
  5  6  2  0  0  0  0
  5 19  1  0  0  0  0
  6  7  1  0  0  0  0
  6 20  1  0  0  0  0
  7  8  2  0  0  0  0
  7  9  1  0  0  0  0
  9 10  1  0  0  0  0
 10 11  2  0  0  0  0
 12 13  1  0  0  0  0
 12 21  1  0  0  0  0
 13 14  1  0  0  0  0
 13 22  1  0  0  0  0
 13 23  1  0  0  0  0
 14 16  1  0  0  0  0
 14 15  1  0  0  0  0
 14 24  1  0  0  0  0
 15 16  1  0  0  0  0
 15 25  1  0  0  0  0
 15 26  1  0  0  0  0
 16 27  1  0  0  0  0
 16 28  1  0  0  0  0
M  CHG  1   9  -1
M  END
> <s_m_source_file>
AV-unprocessed.smi

> <i_m_source_file_index>
2176

> <i_lp_mmshare_version>
43012

> <i_f3d_flags>
0

> <s_epik_input>
W0NIMl0xW0NIMl1bQ0hdMVtDSDJdW05IXUMoPU8pW0NIMl1uMltjSF1bY0hdYyg9TylbbkhdYzI9Tw==

> <s_epik_cmdline>
J2VwaWtfcHl0aG9uJywgJy1waCcsICc3LjAnLCAnLXRuJywgJzgnLCAnLW1hJywgJzIwMCcsICctbWV0YWxfYmluZGluZycsICctaW1hZScsICc8aW5maWxlLm1hZT4nLCAnLW9tYWUnLCAnPG91dGZpbGUubWFlPic=

> <r_lp_tautomer_probability>
0.999537

> <r_epik_Ionization_Penalty>
3.07884

> <r_epik_Ionization_Penalty_Charging>
2.64713e-08

> <r_epik_Ionization_Penalty_Neutral>
3.07884

> <r_epik_State_Penalty>
3.07787

> <r_epik_Charging_Adjusted_Penalty>
3.07787

> <i_epik_Tot_Q>
-1

> <i_epik_Tot_abs_Q>
1

> <r_epik_Metal_State_Penalty>
0.459857

> <b_epik_Metal_Only>
1

> <s_lp_Force_Field>
OPLS_2005

> <r_lp_Energy>
21.5126

> <b_lp_Chiralities_Consistent>
1

> <s_lp_Variant>
AV-unprocessed.smi:2176-2

> <Gold.Version>
5.8.1

> <Gold.Id.Protein>
6NUR|6NUR_protein|mol2

> <Gold.PLP.Fitness>
41.7228

> <Gold.PLP.PLP>
-36.1752

> <Gold.PLP.part.hbond>
-2.0000

> <Gold.PLP.part.metal>
0.0000

> <Gold.PLP.part.buried>
-4.4633

> <Gold.PLP.part.nonpolar>
-30.1877

> <Gold.PLP.part.repulsive>
0.7278

> <Gold.PLP.ligand.clash>
0.0000

> <Gold.PLP.ligand.torsion>
0.4968

> <Gold.PLP.Chemscore.Hbond>
2.0000

> <Gold.PLP.Chemscore.CHOScore>
0.0000

> <Gold.PLP.Chemscore.Metal>
0.0000

> <Gold.Chemscore.Hbonds>
donor molecule, donor type, donor heavy atom, donor atom, acceptor molecule, acceptor atom, score
      L1  H    12    21       P1  8028  1.00
      P1  H 10752 10763       L1     8  1.00

> <Gold.PLP.Chemscore.Internal.Correction>
0.5411

> <Gold.Rescore>
     Score         DG    S(hbond)    S(metal)    S(lipo)     H(rot)  DE(clash)    DE(int)     intcor
     13.61     -15.35       1.99        0.00      71.25       1.99       0.02       1.73       ----

> <Gold.Chemscore.Fitness>
13.6051

> <Gold.Chemscore.DG>
-15.3547

> <Gold.Chemscore.ZeroCoef>
-5.4800

> <Gold.Chemscore.Hbond>
1.9856

> <Gold.Chemscore.Metal>
0.0000

> <Gold.Chemscore.Lipo>
71.2476

> <Gold.Chemscore.Internal_Hbond>
0.0000

> <Gold.Chemscore.DEClash>
0.0208

> <Gold.Chemscore.DEInternal>
1.7288

> <Gold.Chemscore.Rot>
1.9895

> <Gold.Chemscore.Internal.Correction>
   9.000000E+99

> <Gold.Chemscore.Hbonds>
donor molecule, donor type, donor heavy atom, donor atom, acceptor molecule, acceptor atom, score
      L1  H    12    21       P1  8028  0.98
      P1  H 10752 10763       L1     8  0.96

> <Gold.Chemscore.Hbond.Weighted>
-6.6319

> <Gold.Chemscore.Metal.Weighted>
-0.0000

> <Gold.Chemscore.Lipo.Weighted>
-8.3360

> <Gold.Chemscore.Internal_Hbond.Weighted>
0.0000

> <Gold.Chemscore.DEClash.Weighted>
0.0208

> <Gold.Chemscore.DEInternal.Weighted>
1.7288

> <Gold.Chemscore.Rot.Weighted>
5.0931

> <Gold.Chemscore.Internal.Correction.Weighted>
   9.000000E+99

> <Gold.Protein.RotatedTorsions>
[ 6907 6896 6895 6894 ] final  -76.36 input  -60.11 | X-H torsion
[ 7974 7965 7964 7962 ] final  -69.49 input  175.53 | X-H torsion
[ 8008 7997 7996 7995 ] final -124.61 input   59.86 | X-H torsion
[ 10167 10162 10161 10158 ] final -105.22 input  -65.29 | X-H torsion
[ 10718 10713 10712 10709 ] final -121.62 input   66.30 | X-H torsion
[ 10763 10752 10751 10750 ] final   45.86 input  -60.55 | X-H torsion
[ 11005 11000 10999 10996 ] final  169.98 input  -57.11 | X-H torsion

> <Gold.Protein.ActiveResidues>
 VAL166  LYS551  ARG553  GLY616  TRP617  ASP618  TYR619  PRO620  LYS621  CYS622 
 ASP623  PHE694  ASN695  SER759  ASP760  ASP761  ALA762  ILE779  LEU786  VAL792 
 PHE793  MET794  SER795  GLU796  ALA797  LYS798  CYS799  TRP800  GLU811  SER814 

> <Gold.Protein.RotatedAtoms>
  150.7030  134.4584  159.5368 H   0  0  0  0  0  0  0  0  0  0  0  0  # atno 6907 bound_to 6896
  152.2263  134.8362  160.0488 H   0  0  0  0  0  0  0  0  0  0  0  0  # atno 6908 bound_to 6896
  151.9194  133.3546  159.3928 H   0  0  0  0  0  0  0  0  0  0  0  0  # atno 6909 bound_to 6896
  145.7031  140.9108  143.0720 H   0  0  0  0  0  0  0  0  0  0  0  0  # atno 7974 bound_to 7965
  155.1997  140.0415  157.2915 H   0  0  0  0  0  0  0  0  0  0  0  0  # atno 8008 bound_to 7997
  154.6083  140.2470  155.7674 H   0  0  0  0  0  0  0  0  0  0  0  0  # atno 8009 bound_to 7997
  156.2363  140.2920  156.0332 H   0  0  0  0  0  0  0  0  0  0  0  0  # atno 8010 bound_to 7997
  140.2009  143.3819  152.1130 H   0  0  0  0  0  0  0  0  0  0  0  0  # atno 10167 bound_to 10162
  156.1352  130.6425  150.9685 H   0  0  0  0  0  0  0  0  0  0  0  0  # atno 10718 bound_to 10713
  152.9818  135.6026  154.3506 H   0  0  0  0  0  0  0  0  0  0  0  0  # atno 10763 bound_to 10752
  154.3196  135.2770  155.2528 H   0  0  0  0  0  0  0  0  0  0  0  0  # atno 10764 bound_to 10752
  154.4701  135.5944  153.6371 H   0  0  0  0  0  0  0  0  0  0  0  0  # atno 10765 bound_to 10752
  140.3035  134.7576  157.3935 H   0  0  0  0  0  0  0  0  0  0  0  0  # atno 11005 bound_to 11000
  144.6963  139.8974  143.7456 LP  0  0  0  0  0  0  0  0  0  0  0  0  # atno 17320 bound_to 7965
  146.0780  139.3768  143.0482 LP  0  0  0  0  0  0  0  0  0  0  0  0  # atno 17321 bound_to 7965
  139.5217  144.7050  151.5381 LP  0  0  0  0  0  0  0  0  0  0  0  0  # atno 17342 bound_to 10162
  140.6391  143.8925  150.6675 LP  0  0  0  0  0  0  0  0  0  0  0  0  # atno 17343 bound_to 10162
  157.6526  131.0894  150.8018 LP  0  0  0  0  0  0  0  0  0  0  0  0  # atno 17370 bound_to 10713
  156.8099  130.4949  149.5357 LP  0  0  0  0  0  0  0  0  0  0  0  0  # atno 17371 bound_to 10713
  140.1088  134.5373  155.8285 LP  0  0  0  0  0  0  0  0  0  0  0  0  # atno 17394 bound_to 11000
  141.2123  133.6718  156.6650 LP  0  0  0  0  0  0  0  0  0  0  0  0  # atno 17395 bound_to 11000

$$$$
