AV-unprocessed.smi:3292|AV-procd|sdf|12628|dock7
  -GOLD-   2272018563D 1   1.00000     0.00000
 Structure written by MMmdl.
 38 39  0  0  0  0  0  0  0  0  1 V2000
  144.3122  136.3175  152.6219 C   0  0  0  0  0  0  0  0  0  0  0  0
  145.5274  135.3873  152.4739 C   0  0  1  0  0  0  0  0  0  0  0  0
  145.7798  134.9431  151.0167 C   0  0  0  0  0  0  0  0  0  0  0  0
  145.1983  133.6487  150.7163 N   0  0  0  0  0  0  0  0  0  0  0  0
  143.8473  133.3339  150.6557 C   0  0  0  0  0  0  0  0  0  0  0  0
  143.7692  131.9952  150.3445 C   0  0  0  0  0  0  0  0  0  0  0  0
  145.0523  131.4689  150.2138 N   0  0  0  0  0  0  0  0  0  0  0  0
  145.8457  132.5057  150.4508 C   0  0  0  0  0  0  0  0  0  0  0  0
  146.7121  136.0559  153.0048 N   0  0  0  0  0  0  0  0  0  0  0  0
  146.8869  136.4150  154.2846 C   0  0  0  0  0  0  0  0  0  0  0  0
  146.0520  136.2347  155.1712 O   0  0  0  0  0  0  0  0  0  0  0  0
  148.0850  136.9824  154.4833 N   0  0  0  0  0  0  0  0  0  0  0  0
  148.5896  137.4634  155.7658 C   0  0  0  0  0  0  0  0  0  0  0  0
  150.0233  138.0151  155.6499 C   0  0  1  0  0  0  0  0  0  0  0  0
  150.8439  137.3607  154.5575 C   0  0  0  0  0  0  0  0  0  0  0  0
  151.9788  138.3631  154.3700 C   0  0  0  0  0  0  0  0  0  0  0  0
  151.4266  139.6399  154.6777 O   0  0  0  0  0  0  0  0  0  0  0  0
  150.1285  139.4866  155.2428 C   0  0  0  0  0  0  0  0  0  0  0  0
  143.3893  135.8207  152.3216 H   0  0  0  0  0  0  0  0  0  0  0  0
  144.4222  137.2141  152.0112 H   0  0  0  0  0  0  0  0  0  0  0  0
  144.1848  136.6335  153.6579 H   0  0  0  0  0  0  0  0  0  0  0  0
  145.3306  134.4997  153.0783 H   0  0  0  0  0  0  0  0  0  0  0  0
  145.3725  135.6774  150.3199 H   0  0  0  0  0  0  0  0  0  0  0  0
  146.8501  134.8836  150.8153 H   0  0  0  0  0  0  0  0  0  0  0  0
  143.0754  134.0687  150.8328 H   0  0  0  0  0  0  0  0  0  0  0  0
  142.8956  131.3753  150.2075 H   0  0  0  0  0  0  0  0  0  0  0  0
  146.9230  132.4325  150.4264 H   0  0  0  0  0  0  0  0  0  0  0  0
  147.4567  136.2481  152.3506 H   0  0  0  0  0  0  0  0  0  0  0  0
  148.6991  137.0841  153.6886 H   0  0  0  0  0  0  0  0  0  0  0  0
  147.9231  138.2567  156.1052 H   0  0  0  0  0  0  0  0  0  0  0  0
  148.5372  136.6786  156.5226 H   0  0  0  0  0  0  0  0  0  0  0  0
  150.5430  137.8761  156.5995 H   0  0  0  0  0  0  0  0  0  0  0  0
  151.1981  136.3645  154.8239 H   0  0  0  0  0  0  0  0  0  0  0  0
  150.2609  137.2817  153.6384 H   0  0  0  0  0  0  0  0  0  0  0  0
  152.7872  138.1580  155.0728 H   0  0  0  0  0  0  0  0  0  0  0  0
  152.3923  138.3394  153.3615 H   0  0  0  0  0  0  0  0  0  0  0  0
  149.3914  139.7294  154.4762 H   0  0  0  0  0  0  0  0  0  0  0  0
  149.9789  140.1660  156.0824 H   0  0  0  0  0  0  0  0  0  0  0  0
  1  2  1  0  0  0  0
  1 19  1  0  0  0  0
  1 20  1  0  0  0  0
  1 21  1  0  0  0  0
  2  3  1  0  0  0  0
  2  9  1  0  0  0  0
  2 22  1  0  0  0  0
  3  4  1  0  0  0  0
  3 23  1  0  0  0  0
  3 24  1  0  0  0  0
  4  8  1  0  0  0  0
  4  5  1  0  0  0  0
  5  6  2  0  0  0  0
  5 25  1  0  0  0  0
  6  7  1  0  0  0  0
  6 26  1  0  0  0  0
  7  8  2  0  0  0  0
  8 27  1  0  0  0  0
  9 10  1  0  0  0  0
  9 28  1  0  0  0  0
 10 11  2  0  0  0  0
 10 12  1  0  0  0  0
 12 13  1  0  0  0  0
 12 29  1  0  0  0  0
 13 14  1  0  0  0  0
 13 30  1  0  0  0  0
 13 31  1  0  0  0  0
 14 18  1  0  0  0  0
 14 15  1  0  0  0  0
 14 32  1  0  0  0  0
 15 16  1  0  0  0  0
 15 33  1  0  0  0  0
 15 34  1  0  0  0  0
 16 17  1  0  0  0  0
 16 35  1  0  0  0  0
 16 36  1  0  0  0  0
 17 18  1  0  0  0  0
 18 37  1  0  0  0  0
 18 38  1  0  0  0  0
M  END
> <s_m_source_file>
AV-unprocessed.smi

> <i_m_source_file_index>
3292

> <i_lp_mmshare_version>
43012

> <i_f3d_flags>
0

> <s_epik_input>
W2NIXTFuW2NIXVtjSF1uMVtDSDJdW0NAQEhdKFtDSDNdKVtOSF1DKD1PKVtOSF1bQ0gyXVtDQEBIXTJbQ0gyXVtDSDJdT1tDSDJdMg==

> <s_epik_cmdline>
J2VwaWtfcHl0aG9uJywgJy1waCcsICc3LjAnLCAnLXRuJywgJzgnLCAnLW1hJywgJzIwMCcsICctbWV0YWxfYmluZGluZycsICctaW1hZScsICc8aW5maWxlLm1hZT4nLCAnLW9tYWUnLCAnPG91dGZpbGUubWFlPic=

> <r_lp_tautomer_probability>
1

> <r_epik_Ionization_Penalty>
0.621291

> <r_epik_Ionization_Penalty_Charging>
0.621234

> <r_epik_Ionization_Penalty_Neutral>
5.72199e-05

> <r_epik_State_Penalty>
0.637278

> <r_epik_Charging_Adjusted_Penalty>
1.25851

> <i_epik_Tot_Q>
0

> <i_epik_Tot_abs_Q>
0

> <r_epik_Metal_State_Penalty>
0.306757

> <b_epik_Metal_Only>
0

> <s_lp_Force_Field>
OPLS_2005

> <r_lp_Energy>
18.205

> <b_lp_Chiralities_Consistent>
1

> <s_lp_Variant>
AV-unprocessed.smi:3292-8

> <Gold.Version>
5.8.1

> <Gold.Id.Protein>
6NUR|6NUR_protein|mol2

> <Gold.PLP.Fitness>
43.8920

> <Gold.PLP.PLP>
-28.4125

> <Gold.PLP.part.hbond>
-3.0305

> <Gold.PLP.part.metal>
0.0000

> <Gold.PLP.part.buried>
-5.2636

> <Gold.PLP.part.nonpolar>
-21.0256

> <Gold.PLP.part.repulsive>
0.2129

> <Gold.PLP.ligand.clash>
0.0000

> <Gold.PLP.ligand.torsion>
0.9623

> <Gold.PLP.Chemscore.Hbond>
2.7800

> <Gold.PLP.Chemscore.CHOScore>
3.0000

> <Gold.PLP.Chemscore.Metal>
0.0000

> <Gold.Chemscore.Hbonds>
donor molecule, donor type, donor heavy atom, donor atom, acceptor molecule, acceptor atom, score
      L1  H     9    28       P1  7948  1.00
      L1  H    12    29       P1  7948  0.77
      P1  H  7989  7998       L1    17  1.00
      L1  C     5    25       P1 10186  0.97
      L1  C     6    26       P1 10952  1.00
      L1  C     8    27       P1 10747  0.86

> <Gold.PLP.Chemscore.Internal.Correction>
0.0640

> <Gold.Rescore>
     Score         DG    S(hbond)    S(metal)    S(lipo)     H(rot)  DE(clash)    DE(int)     intcor
     13.84     -15.63       2.76        0.00      55.18       2.16       0.01       1.78       ----

> <Gold.Chemscore.Fitness>
13.8438

> <Gold.Chemscore.DG>
-15.6308

> <Gold.Chemscore.ZeroCoef>
-5.4800

> <Gold.Chemscore.Hbond>
2.7601

> <Gold.Chemscore.Metal>
0.0000

> <Gold.Chemscore.Lipo>
55.1787

> <Gold.Chemscore.Internal_Hbond>
0.0000

> <Gold.Chemscore.DEClash>
0.0058

> <Gold.Chemscore.DEInternal>
1.7812

> <Gold.Chemscore.Rot>
2.1577

> <Gold.Chemscore.Internal.Correction>
   9.000000E+99

> <Gold.Chemscore.Hbonds>
donor molecule, donor type, donor heavy atom, donor atom, acceptor molecule, acceptor atom, score
      L1  H     9    28       P1  7948  0.94
      L1  H    12    29       P1  7948  0.73
      P1  H  7989  7998       L1    17  0.89

> <Gold.Chemscore.Hbond.Weighted>
-9.2186

> <Gold.Chemscore.Metal.Weighted>
-0.0000

> <Gold.Chemscore.Lipo.Weighted>
-6.4559

> <Gold.Chemscore.Internal_Hbond.Weighted>
0.0000

> <Gold.Chemscore.DEClash.Weighted>
0.0058

> <Gold.Chemscore.DEInternal.Weighted>
1.7812

> <Gold.Chemscore.Rot.Weighted>
5.5237

> <Gold.Chemscore.Internal.Correction.Weighted>
   9.000000E+99

> <Gold.Protein.RotatedTorsions>
[ 6907 6896 6895 6894 ] final   20.66 input  -60.11 | X-H torsion
[ 7974 7965 7964 7962 ] final  122.41 input  175.53 | X-H torsion
[ 8008 7997 7996 7995 ] final   59.31 input   59.86 | X-H torsion
[ 10167 10162 10161 10158 ] final  155.11 input  -65.29 | X-H torsion
[ 10718 10713 10712 10709 ] final  152.94 input   66.30 | X-H torsion
[ 10763 10752 10751 10750 ] final  157.75 input  -60.55 | X-H torsion
[ 11005 11000 10999 10996 ] final  -11.09 input  -57.11 | X-H torsion

> <Gold.Protein.ActiveResidues>
 VAL166  LYS551  ARG553  GLY616  TRP617  ASP618  TYR619  PRO620  LYS621  CYS622 
 ASP623  PHE694  ASN695  SER759  ASP760  ASP761  ALA762  ILE779  LEU786  VAL792 
 PHE793  MET794  SER795  GLU796  ALA797  LYS798  CYS799  TRP800  GLU811  SER814 

> <Gold.Protein.RotatedAtoms>
  151.8998  135.0383  160.0505 H   0  0  0  0  0  0  0  0  0  0  0  0  # atno 6907 bound_to 6896
  152.2368  133.5098  159.5255 H   0  0  0  0  0  0  0  0  0  0  0  0  # atno 6908 bound_to 6896
  150.7041  134.1060  159.4025 H   0  0  0  0  0  0  0  0  0  0  0  0  # atno 6909 bound_to 6896
  145.1079  139.3473  143.4778 H   0  0  0  0  0  0  0  0  0  0  0  0  # atno 7974 bound_to 7965
  155.5641  140.3489  155.4498 H   0  0  0  0  0  0  0  0  0  0  0  0  # atno 8008 bound_to 7997
  156.0493  140.1314  157.0094 H   0  0  0  0  0  0  0  0  0  0  0  0  # atno 8009 bound_to 7997
  154.4427  140.1008  156.6337 H   0  0  0  0  0  0  0  0  0  0  0  0  # atno 8010 bound_to 7997
  139.4822  144.5128  151.7998 H   0  0  0  0  0  0  0  0  0  0  0  0  # atno 10167 bound_to 10162
  157.2512  131.0779  151.1728 H   0  0  0  0  0  0  0  0  0  0  0  0  # atno 10718 bound_to 10713
  154.2051  135.2788  155.2977 H   0  0  0  0  0  0  0  0  0  0  0  0  # atno 10763 bound_to 10752
  154.5823  135.5585  153.7200 H   0  0  0  0  0  0  0  0  0  0  0  0  # atno 10764 bound_to 10752
  153.0078  135.6348  154.2190 H   0  0  0  0  0  0  0  0  0  0  0  0  # atno 10765 bound_to 10752
  140.7516  133.8588  155.9049 H   0  0  0  0  0  0  0  0  0  0  0  0  # atno 11005 bound_to 11000
  146.3527  140.0985  142.8609 LP  0  0  0  0  0  0  0  0  0  0  0  0  # atno 17320 bound_to 7965
  145.0880  140.9265  143.4786 LP  0  0  0  0  0  0  0  0  0  0  0  0  # atno 17321 bound_to 7965
  140.4633  144.1691  150.5909 LP  0  0  0  0  0  0  0  0  0  0  0  0  # atno 17342 bound_to 10162
  140.4461  143.2506  151.9409 LP  0  0  0  0  0  0  0  0  0  0  0  0  # atno 17343 bound_to 10162
  157.3276  130.6968  149.6305 LP  0  0  0  0  0  0  0  0  0  0  0  0  # atno 17370 bound_to 10713
  155.9666  130.4317  150.4931 LP  0  0  0  0  0  0  0  0  0  0  0  0  # atno 17371 bound_to 10713
  140.9746  134.1487  157.4547 LP  0  0  0  0  0  0  0  0  0  0  0  0  # atno 17394 bound_to 11000
  139.8786  134.9990  156.5930 LP  0  0  0  0  0  0  0  0  0  0  0  0  # atno 17395 bound_to 11000

$$$$
