AV-unprocessed.smi:707|AV-procd|sdf|3453|dock10
  -GOLD-   22720 0443D 1   1.00000     0.00000
 Structure written by MMmdl.
 44 45  0  0  0  0  0  0  0  0  1 V2000
  150.7103  136.3266  155.9481 C   0  0  0  0  0  0  0  0  0  0  0  0
  150.2564  137.4459  155.0682 C   0  0  0  0  0  0  0  0  0  0  0  0
  148.9761  137.6704  154.7496 N   0  0  0  0  0  0  0  0  0  0  0  0
  148.9868  138.7835  153.9320 N   0  0  0  0  0  0  0  0  0  0  0  0
  150.2732  139.1190  153.8388 C   0  0  0  0  0  0  0  0  0  0  0  0
  151.1162  138.3289  154.5209 N   0  0  0  0  0  0  0  0  0  0  0  0
  152.5601  138.4257  154.6282 C   0  0  0  0  0  0  0  0  0  0  0  0
  152.9962  139.8114  155.1228 C   0  0  0  0  0  0  0  0  0  0  0  0
  152.4003  140.1043  156.4184 N   0  0  0  0  0  0  0  0  0  0  0  0
  151.4849  141.0606  156.6307 C   0  0  0  0  0  0  0  0  0  0  0  0
  151.0518  141.7940  155.7422 O   0  0  0  0  0  0  0  0  0  0  0  0
  150.9721  141.2100  158.0600 C   0  0  0  0  0  0  0  0  0  0  0  0
  152.0652  141.0145  158.9445 O   0  0  0  0  0  0  0  0  0  0  0  0
  152.9661  142.1128  159.0329 C   0  0  2  0  0  0  0  0  0  0  0  0
  153.8569  141.8884  160.2679 C   0  0  0  0  0  0  0  0  0  0  0  0
  153.0569  141.9947  161.5772 C   0  0  0  0  0  0  0  0  0  0  0  0
  152.3070  143.3327  161.6700 C   0  0  0  0  0  0  0  0  0  0  0  0
  151.3962  143.5565  160.4479 C   0  0  1  0  0  0  0  0  0  0  0  0
  150.6477  144.8936  160.5421 C   0  0  0  0  0  0  0  0  0  0  0  0
  152.2149  143.4580  159.1454 C   0  0  0  0  0  0  0  0  0  0  0  0
  149.8537  135.7681  156.3268 H   0  0  0  0  0  0  0  0  0  0  0  0
  151.2707  136.7170  156.7978 H   0  0  0  0  0  0  0  0  0  0  0  0
  151.3489  135.6433  155.3879 H   0  0  0  0  0  0  0  0  0  0  0  0
  150.6089  139.9656  153.2578 H   0  0  0  0  0  0  0  0  0  0  0  0
  152.9174  137.6454  155.3010 H   0  0  0  0  0  0  0  0  0  0  0  0
  152.9929  138.2190  153.6483 H   0  0  0  0  0  0  0  0  0  0  0  0
  154.0838  139.8536  155.2013 H   0  0  0  0  0  0  0  0  0  0  0  0
  152.6944  140.5811  154.4111 H   0  0  0  0  0  0  0  0  0  0  0  0
  152.6948  139.5406  157.2029 H   0  0  0  0  0  0  0  0  0  0  0  0
  150.5354  142.1999  158.2036 H   0  0  0  0  0  0  0  0  0  0  0  0
  150.1863  140.4738  158.2276 H   0  0  0  0  0  0  0  0  0  0  0  0
  153.6063  142.1226  158.1493 H   0  0  0  0  0  0  0  0  0  0  0  0
  154.3429  140.9141  160.2060 H   0  0  0  0  0  0  0  0  0  0  0  0
  154.6568  142.6298  160.2753 H   0  0  0  0  0  0  0  0  0  0  0  0
  152.3436  141.1720  161.6394 H   0  0  0  0  0  0  0  0  0  0  0  0
  153.7268  141.8860  162.4305 H   0  0  0  0  0  0  0  0  0  0  0  0
  151.7160  143.3566  162.5862 H   0  0  0  0  0  0  0  0  0  0  0  0
  153.0281  144.1478  161.7467 H   0  0  0  0  0  0  0  0  0  0  0  0
  150.6465  142.7639  160.4364 H   0  0  0  0  0  0  0  0  0  0  0  0
  151.3402  145.7358  160.5578 H   0  0  0  0  0  0  0  0  0  0  0  0
  150.0434  144.9416  161.4484 H   0  0  0  0  0  0  0  0  0  0  0  0
  149.9773  145.0285  159.6929 H   0  0  0  0  0  0  0  0  0  0  0  0
  152.9424  144.2704  159.1175 H   0  0  0  0  0  0  0  0  0  0  0  0
  151.5685  143.6143  158.2826 H   0  0  0  0  0  0  0  0  0  0  0  0
  1  2  1  0  0  0  0
  1 21  1  0  0  0  0
  1 22  1  0  0  0  0
  1 23  1  0  0  0  0
  2  6  1  0  0  0  0
  2  3  2  0  0  0  0
  3  4  1  0  0  0  0
  4  5  2  0  0  0  0
  5  6  1  0  0  0  0
  5 24  1  0  0  0  0
  6  7  1  0  0  0  0
  7  8  1  0  0  0  0
  7 25  1  0  0  0  0
  7 26  1  0  0  0  0
  8  9  1  0  0  0  0
  8 27  1  0  0  0  0
  8 28  1  0  0  0  0
  9 10  1  0  0  0  0
  9 29  1  0  0  0  0
 10 11  2  0  0  0  0
 10 12  1  0  0  0  0
 12 13  1  0  0  0  0
 12 30  1  0  0  0  0
 12 31  1  0  0  0  0
 13 14  1  0  0  0  0
 14 20  1  0  0  0  0
 14 15  1  0  0  0  0
 14 32  1  0  0  0  0
 15 16  1  0  0  0  0
 15 33  1  0  0  0  0
 15 34  1  0  0  0  0
 16 17  1  0  0  0  0
 16 35  1  0  0  0  0
 16 36  1  0  0  0  0
 17 18  1  0  0  0  0
 17 37  1  0  0  0  0
 17 38  1  0  0  0  0
 18 19  1  0  0  0  0
 18 20  1  0  0  0  0
 18 39  1  0  0  0  0
 19 40  1  0  0  0  0
 19 41  1  0  0  0  0
 19 42  1  0  0  0  0
 20 43  1  0  0  0  0
 20 44  1  0  0  0  0
M  END
> <s_m_source_file>
AV-unprocessed.smi

> <i_m_source_file_index>
707

> <i_lp_mmshare_version>
43012

> <i_f3d_flags>
0

> <s_epik_input>
W0NIM11jMW5uW2NIXW4xW0NIMl1bQ0gyXVtOSF1DKD1PKVtDSDJdT1tDQEBIXTJbQ0gyXVtDSDJdW0NIMl1bQ0BASF0oW0NIM10pW0NIMl0y

> <s_epik_cmdline>
J2VwaWtfcHl0aG9uJywgJy1waCcsICc3LjAnLCAnLXRuJywgJzgnLCAnLW1hJywgJzIwMCcsICctbWV0YWxfYmluZGluZycsICctaW1hZScsICc8aW5maWxlLm1hZT4nLCAnLW9tYWUnLCAnPG91dGZpbGUubWFlPic=

> <r_lp_tautomer_probability>
1

> <r_epik_Ionization_Penalty>
0.000271783

> <r_epik_Ionization_Penalty_Charging>
0

> <r_epik_Ionization_Penalty_Neutral>
0.000271783

> <r_epik_State_Penalty>
-0

> <r_epik_Charging_Adjusted_Penalty>
0

> <i_epik_Tot_Q>
0

> <i_epik_Tot_abs_Q>
0

> <r_epik_Metal_State_Penalty>
-0

> <b_epik_Metal_Only>
0

> <s_lp_Force_Field>
OPLS_2005

> <r_lp_Energy>
13.9065

> <b_lp_Chiralities_Consistent>
1

> <s_lp_Variant>
AV-unprocessed.smi:707-1

> <Gold.Version>
5.8.1

> <Gold.Id.Protein>
6NUR|6NUR_protein|mol2

> <Gold.PLP.Fitness>
42.3826

> <Gold.PLP.PLP>
-39.9258

> <Gold.PLP.part.hbond>
-1.0000

> <Gold.PLP.part.metal>
0.0000

> <Gold.PLP.part.buried>
-3.5460

> <Gold.PLP.part.nonpolar>
-35.0364

> <Gold.PLP.part.repulsive>
0.4510

> <Gold.PLP.ligand.clash>
0.0000

> <Gold.PLP.ligand.torsion>
0.5265

> <Gold.PLP.Chemscore.Hbond>
0.1456

> <Gold.PLP.Chemscore.CHOScore>
1.0000

> <Gold.PLP.Chemscore.Metal>
0.0000

> <Gold.Chemscore.Hbonds>
donor molecule, donor type, donor heavy atom, donor atom, acceptor molecule, acceptor atom, score
      L1  C     5    24       P1  7957  0.65

> <Gold.PLP.Chemscore.Internal.Correction>
0.0729

> <Gold.Rescore>
     Score         DG    S(hbond)    S(metal)    S(lipo)     H(rot)  DE(clash)    DE(int)     intcor
     11.86     -12.38       0.43        0.00      99.75       2.42       0.08       0.44       ----

> <Gold.Chemscore.Fitness>
11.8596

> <Gold.Chemscore.DG>
-12.3814

> <Gold.Chemscore.ZeroCoef>
-5.4800

> <Gold.Chemscore.Hbond>
0.4264

> <Gold.Chemscore.Metal>
0.0000

> <Gold.Chemscore.Lipo>
99.7464

> <Gold.Chemscore.Internal_Hbond>
0.0000

> <Gold.Chemscore.DEClash>
0.0842

> <Gold.Chemscore.DEInternal>
0.4376

> <Gold.Chemscore.Rot>
2.4191

> <Gold.Chemscore.Internal.Correction>
   9.000000E+99

> <Gold.Chemscore.Hbonds>
donor molecule, donor type, donor heavy atom, donor atom, acceptor molecule, acceptor atom, score
      P1  H  7989  7998       L1    11  0.01

> <Gold.Chemscore.Hbond.Weighted>
-1.4240

> <Gold.Chemscore.Metal.Weighted>
-0.0000

> <Gold.Chemscore.Lipo.Weighted>
-11.6703

> <Gold.Chemscore.Internal_Hbond.Weighted>
0.0000

> <Gold.Chemscore.DEClash.Weighted>
0.0842

> <Gold.Chemscore.DEInternal.Weighted>
0.4376

> <Gold.Chemscore.Rot.Weighted>
6.1929

> <Gold.Chemscore.Internal.Correction.Weighted>
   9.000000E+99

> <Gold.Protein.RotatedTorsions>
[ 6907 6896 6895 6894 ] final -169.06 input  -60.11 | X-H torsion
[ 7974 7965 7964 7962 ] final  -36.28 input  175.53 | X-H torsion
[ 8008 7997 7996 7995 ] final  -44.93 input   59.86 | X-H torsion
[ 10167 10162 10161 10158 ] final    7.26 input  -65.29 | X-H torsion
[ 10718 10713 10712 10709 ] final   73.81 input   66.30 | X-H torsion
[ 10763 10752 10751 10750 ] final   50.28 input  -60.55 | X-H torsion
[ 11005 11000 10999 10996 ] final -159.24 input  -57.11 | X-H torsion

> <Gold.Protein.ActiveResidues>
 VAL166  LYS551  ARG553  GLY616  TRP617  ASP618  TYR619  PRO620  LYS621  CYS622 
 ASP623  PHE694  ASN695  SER759  ASP760  ASP761  ALA762  ILE779  LEU786  VAL792 
 PHE793  MET794  SER795  GLU796  ALA797  LYS798  CYS799  TRP800  GLU811  SER814 

> <Gold.Protein.RotatedAtoms>
  151.4856  133.3536  159.2844 H   0  0  0  0  0  0  0  0  0  0  0  0  # atno 6907 bound_to 6896
  150.8868  134.8269  159.7276 H   0  0  0  0  0  0  0  0  0  0  0  0  # atno 6908 bound_to 6896
  152.4798  134.4761  159.9702 H   0  0  0  0  0  0  0  0  0  0  0  0  # atno 6909 bound_to 6896
  146.0675  140.6259  142.8968 H   0  0  0  0  0  0  0  0  0  0  0  0  # atno 7974 bound_to 7965
  154.3999  140.1409  156.3764 H   0  0  0  0  0  0  0  0  0  0  0  0  # atno 8008 bound_to 7997
  155.8044  140.3475  155.5401 H   0  0  0  0  0  0  0  0  0  0  0  0  # atno 8009 bound_to 7997
  155.8450  140.0932  157.1701 H   0  0  0  0  0  0  0  0  0  0  0  0  # atno 8010 bound_to 7997
  140.6382  143.7837  150.7389 H   0  0  0  0  0  0  0  0  0  0  0  0  # atno 10167 bound_to 10162
  157.6564  130.9647  150.1122 H   0  0  0  0  0  0  0  0  0  0  0  0  # atno 10718 bound_to 10713
  152.9785  135.5884  154.4227 H   0  0  0  0  0  0  0  0  0  0  0  0  # atno 10763 bound_to 10752
  154.3849  135.2767  155.2191 H   0  0  0  0  0  0  0  0  0  0  0  0  # atno 10764 bound_to 10752
  154.4088  135.6086  153.5995 H   0  0  0  0  0  0  0  0  0  0  0  0  # atno 10765 bound_to 10752
  140.6448  134.4513  157.5234 H   0  0  0  0  0  0  0  0  0  0  0  0  # atno 11005 bound_to 11000
  144.7211  140.4377  143.7007 LP  0  0  0  0  0  0  0  0  0  0  0  0  # atno 17320 bound_to 7965
  145.6451  139.1556  143.2894 LP  0  0  0  0  0  0  0  0  0  0  0  0  # atno 17321 bound_to 7965
  140.1463  143.4397  152.2161 LP  0  0  0  0  0  0  0  0  0  0  0  0  # atno 17342 bound_to 10162
  139.5591  144.7394  151.4206 LP  0  0  0  0  0  0  0  0  0  0  0  0  # atno 17343 bound_to 10162
  156.2015  130.3660  149.8782 LP  0  0  0  0  0  0  0  0  0  0  0  0  # atno 17370 bound_to 10713
  156.6684  130.8810  151.3558 LP  0  0  0  0  0  0  0  0  0  0  0  0  # atno 17371 bound_to 10713
  139.9067  134.8434  156.1680 LP  0  0  0  0  0  0  0  0  0  0  0  0  # atno 17394 bound_to 11000
  141.0580  133.6855  156.1898 LP  0  0  0  0  0  0  0  0  0  0  0  0  # atno 17395 bound_to 11000

$$$$
