AV-unprocessed.smi:1933|AV-procd|sdf|7817|dock6
  -GOLD-   22720 9563D 1   1.00000     0.00000
 Structure written by MMmdl.
 47 49  0  0  0  0  0  0  0  0  1 V2000
  148.6848  132.5294  154.2905 O   0  0  0  0  0  0  0  0  0  0  0  0
  148.6865  133.6212  153.7216 C   0  0  0  0  0  0  0  0  0  0  0  0
  149.4872  134.6393  154.0697 N   0  0  0  0  0  0  0  0  0  0  0  0
  150.4694  134.6216  155.1507 C   0  0  0  0  0  0  0  0  0  0  0  0
  150.1093  135.6076  156.2942 C   0  0  2  0  0  0  0  0  0  0  0  0
  148.7350  135.3014  156.9595 C   0  0  1  0  0  0  0  0  0  0  0  0
  148.5408  133.8748  157.4466 C   0  0  0  0  0  0  0  0  0  0  0  0
  147.3547  133.9973  158.4105 C   0  0  0  0  0  0  0  0  0  0  0  0
  147.1366  135.3937  158.6031 O   0  0  0  0  0  0  0  0  0  0  0  0
  148.2958  136.0978  158.1866 C   0  0  0  0  0  0  0  0  0  0  0  0
  150.3429  137.0298  155.9723 N   0  0  0  0  0  0  0  0  0  0  0  0
  149.4385  137.6065  154.9739 C   0  0  0  0  0  0  0  0  0  0  0  0
  149.6922  139.1112  154.7848 C   0  0  0  0  0  0  0  0  0  0  0  0
  151.0494  139.3184  154.4060 O   0  0  0  0  0  0  0  0  0  0  0  0
  151.9731  138.7987  155.3572 C   0  0  0  0  0  0  0  0  0  0  0  0
  151.7198  137.2948  155.5619 C   0  0  0  0  0  0  0  0  0  0  0  0
  147.9168  133.9476  152.6689 N   0  0  0  0  0  0  0  0  0  0  0  0
  146.9857  133.1308  151.9742 C   0  0  0  0  0  0  0  0  0  0  0  0
  146.5766  131.8835  152.5125 C   0  0  0  0  0  0  0  0  0  0  0  0
  145.6306  131.1076  151.8157 C   0  0  0  0  0  0  0  0  0  0  0  0
  145.1084  131.5989  150.6063 C   0  0  0  0  0  0  0  0  0  0  0  0
  145.5549  132.8533  150.1529 C   0  0  0  0  0  0  0  0  0  0  0  0
  146.4600  133.6011  150.8193 N   0  0  0  0  0  0  0  0  0  0  0  0
  149.4179  135.4958  153.5399 H   0  0  0  0  0  0  0  0  0  0  0  0
  150.4969  133.5998  155.5283 H   0  0  0  0  0  0  0  0  0  0  0  0
  151.4704  134.8276  154.7686 H   0  0  0  0  0  0  0  0  0  0  0  0
  150.8127  135.3674  157.0931 H   0  0  0  0  0  0  0  0  0  0  0  0
  147.9655  135.4590  156.2030 H   0  0  0  0  0  0  0  0  0  0  0  0
  148.3486  133.1773  156.6309 H   0  0  0  0  0  0  0  0  0  0  0  0
  149.4177  133.5219  157.9903 H   0  0  0  0  0  0  0  0  0  0  0  0
  146.4525  133.5435  157.9993 H   0  0  0  0  0  0  0  0  0  0  0  0
  147.5738  133.5140  159.3632 H   0  0  0  0  0  0  0  0  0  0  0  0
  149.0138  136.0435  159.0015 H   0  0  0  0  0  0  0  0  0  0  0  0
  148.0786  137.1437  157.9717 H   0  0  0  0  0  0  0  0  0  0  0  0
  149.5812  137.1133  154.0117 H   0  0  0  0  0  0  0  0  0  0  0  0
  148.3978  137.4536  155.2391 H   0  0  0  0  0  0  0  0  0  0  0  0
  149.0406  139.5110  154.0077 H   0  0  0  0  0  0  0  0  0  0  0  0
  149.4723  139.6595  155.7024 H   0  0  0  0  0  0  0  0  0  0  0  0
  152.9884  138.9663  154.9978 H   0  0  0  0  0  0  0  0  0  0  0  0
  151.8739  139.3376  156.3009 H   0  0  0  0  0  0  0  0  0  0  0  0
  152.4128  136.9198  156.3157 H   0  0  0  0  0  0  0  0  0  0  0  0
  151.9461  136.7636  154.6368 H   0  0  0  0  0  0  0  0  0  0  0  0
  148.1016  134.8450  152.2455 H   0  0  0  0  0  0  0  0  0  0  0  0
  146.9628  131.5166  153.4517 H   0  0  0  0  0  0  0  0  0  0  0  0
  145.3072  130.1540  152.2064 H   0  0  0  0  0  0  0  0  0  0  0  0
  144.3804  131.0326  150.0443 H   0  0  0  0  0  0  0  0  0  0  0  0
  145.1741  133.2701  149.2322 H   0  0  0  0  0  0  0  0  0  0  0  0
  1  2  2  0  0  0  0
  2  3  1  0  0  0  0
  2 17  1  0  0  0  0
  3  4  1  0  0  0  0
  3 24  1  0  0  0  0
  4  5  1  0  0  0  0
  4 25  1  0  0  0  0
  4 26  1  0  0  0  0
  5  6  1  0  0  0  0
  5 11  1  0  0  0  0
  5 27  1  0  0  0  0
  6 10  1  0  0  0  0
  6  7  1  0  0  0  0
  6 28  1  0  0  0  0
  7  8  1  0  0  0  0
  7 29  1  0  0  0  0
  7 30  1  0  0  0  0
  8  9  1  0  0  0  0
  8 31  1  0  0  0  0
  8 32  1  0  0  0  0
  9 10  1  0  0  0  0
 10 33  1  0  0  0  0
 10 34  1  0  0  0  0
 11 16  1  0  0  0  0
 11 12  1  0  0  0  0
 12 13  1  0  0  0  0
 12 35  1  0  0  0  0
 12 36  1  0  0  0  0
 13 14  1  0  0  0  0
 13 37  1  0  0  0  0
 13 38  1  0  0  0  0
 14 15  1  0  0  0  0
 15 16  1  0  0  0  0
 15 39  1  0  0  0  0
 15 40  1  0  0  0  0
 16 41  1  0  0  0  0
 16 42  1  0  0  0  0
 17 18  1  0  0  0  0
 17 43  1  0  0  0  0
 18 23  1  0  0  0  0
 18 19  2  0  0  0  0
 19 20  1  0  0  0  0
 19 44  1  0  0  0  0
 20 21  2  0  0  0  0
 20 45  1  0  0  0  0
 21 22  1  0  0  0  0
 21 46  1  0  0  0  0
 22 23  2  0  0  0  0
 22 47  1  0  0  0  0
M  END
> <s_m_source_file>
AV-unprocessed.smi

> <i_m_source_file_index>
1933

> <i_lp_mmshare_version>
43012

> <i_f3d_flags>
0

> <s_epik_input>
bjFbY0hdW2NIXVtjSF1bY0hdYzFbTkhdQyg9TylbTkhdW0NIMl1bQ0BIXShbQ0BASF0yW0NIMl1bQ0gyXU9bQ0gyXTIpTjNbQ0gyXVtDSDJdT1tDSDJdW0NIMl0z

> <s_epik_cmdline>
J2VwaWtfcHl0aG9uJywgJy1waCcsICc3LjAnLCAnLXRuJywgJzgnLCAnLW1hJywgJzIwMCcsICctbWV0YWxfYmluZGluZycsICctaW1hZScsICc8aW5maWxlLm1hZT4nLCAnLW9tYWUnLCAnPG91dGZpbGUubWFlPic=

> <r_epik_Ionization_Penalty>
0.125062

> <r_epik_Ionization_Penalty_Charging>
0

> <r_epik_Ionization_Penalty_Neutral>
0.125062

> <r_epik_State_Penalty>
0.114484

> <r_epik_Charging_Adjusted_Penalty>
0.114484

> <i_epik_Tot_Q>
0

> <i_epik_Tot_abs_Q>
0

> <r_epik_Metal_State_Penalty>
0.114484

> <b_epik_Metal_Only>
0

> <s_lp_Force_Field>
OPLS_2005

> <r_lp_Energy>
60.0985

> <b_lp_Chiralities_Consistent>
1

> <s_lp_Variant>
AV-unprocessed.smi:1933-3

> <Gold.Version>
5.8.1

> <Gold.Id.Protein>
6NUR|6NUR_protein|mol2

> <Gold.PLP.Fitness>
41.9802

> <Gold.PLP.PLP>
-30.3354

> <Gold.PLP.part.hbond>
-3.0000

> <Gold.PLP.part.metal>
0.0000

> <Gold.PLP.part.buried>
-4.3939

> <Gold.PLP.part.nonpolar>
-22.4969

> <Gold.PLP.part.repulsive>
0.4811

> <Gold.PLP.ligand.clash>
0.0000

> <Gold.PLP.ligand.torsion>
0.2002

> <Gold.PLP.Chemscore.Hbond>
2.9120

> <Gold.PLP.Chemscore.CHOScore>
1.0000

> <Gold.PLP.Chemscore.Metal>
0.0000

> <Gold.Chemscore.Hbonds>
donor molecule, donor type, donor heavy atom, donor atom, acceptor molecule, acceptor atom, score
      L1  H     3    24       P1  7948  0.84
      L1  H    17    43       P1  7948  1.00
      P1  H  7989  7998       L1    14  1.00
      L1  C    22    47       P1  7921  1.00

> <Gold.PLP.Chemscore.Internal.Correction>
0.3092

> <Gold.Rescore>
     Score         DG    S(hbond)    S(metal)    S(lipo)     H(rot)  DE(clash)    DE(int)     intcor
     15.55     -17.12       2.32        0.00      70.93       1.72       0.02       1.55       ----

> <Gold.Chemscore.Fitness>
15.5529

> <Gold.Chemscore.DG>
-17.1199

> <Gold.Chemscore.ZeroCoef>
-5.4800

> <Gold.Chemscore.Hbond>
2.3156

> <Gold.Chemscore.Metal>
0.0000

> <Gold.Chemscore.Lipo>
70.9332

> <Gold.Chemscore.Internal_Hbond>
0.0000

> <Gold.Chemscore.DEClash>
0.0174

> <Gold.Chemscore.DEInternal>
1.5496

> <Gold.Chemscore.Rot>
1.7161

> <Gold.Chemscore.Internal.Correction>
   9.000000E+99

> <Gold.Chemscore.Hbonds>
donor molecule, donor type, donor heavy atom, donor atom, acceptor molecule, acceptor atom, score
      L1  H     3    24       P1  7948  0.19
      L1  H    17    43       P1  7948  0.44
      P1  H  7989  7998       L1    14  0.90

> <Gold.Chemscore.Hbond.Weighted>
-7.7340

> <Gold.Chemscore.Metal.Weighted>
-0.0000

> <Gold.Chemscore.Lipo.Weighted>
-8.2992

> <Gold.Chemscore.Internal_Hbond.Weighted>
0.0000

> <Gold.Chemscore.DEClash.Weighted>
0.0174

> <Gold.Chemscore.DEInternal.Weighted>
1.5496

> <Gold.Chemscore.Rot.Weighted>
4.3932

> <Gold.Chemscore.Internal.Correction.Weighted>
   9.000000E+99

> <Gold.Protein.RotatedTorsions>
[ 6907 6896 6895 6894 ] final -135.48 input  -60.11 | X-H torsion
[ 7974 7965 7964 7962 ] final  140.19 input  175.53 | X-H torsion
[ 8008 7997 7996 7995 ] final   74.79 input   59.86 | X-H torsion
[ 10167 10162 10161 10158 ] final  115.07 input  -65.29 | X-H torsion
[ 10718 10713 10712 10709 ] final  -15.32 input   66.30 | X-H torsion
[ 10763 10752 10751 10750 ] final -160.99 input  -60.55 | X-H torsion
[ 11005 11000 10999 10996 ] final   66.88 input  -57.11 | X-H torsion

> <Gold.Protein.ActiveResidues>
 VAL166  LYS551  ARG553  GLY616  TRP617  ASP618  TYR619  PRO620  LYS621  CYS622 
 ASP623  PHE694  ASN695  SER759  ASP760  ASP761  ALA762  ILE779  LEU786  VAL792 
 PHE793  MET794  SER795  GLU796  ALA797  LYS798  CYS799  TRP800  GLU811  SER814 

> <Gold.Protein.RotatedAtoms>
  150.9984  133.6080  159.2698 H   0  0  0  0  0  0  0  0  0  0  0  0  # atno 6907 bound_to 6896
  151.3275  135.0832  159.9337 H   0  0  0  0  0  0  0  0  0  0  0  0  # atno 6908 bound_to 6896
  152.5267  133.9620  159.7776 H   0  0  0  0  0  0  0  0  0  0  0  0  # atno 6909 bound_to 6896
  144.9210  139.5168  143.5663 H   0  0  0  0  0  0  0  0  0  0  0  0  # atno 7974 bound_to 7965
  155.8035  140.3475  155.5416 H   0  0  0  0  0  0  0  0  0  0  0  0  # atno 8008 bound_to 7997
  155.8514  140.0957  157.1692 H   0  0  0  0  0  0  0  0  0  0  0  0  # atno 8009 bound_to 7997
  154.4008  140.1376  156.3836 H   0  0  0  0  0  0  0  0  0  0  0  0  # atno 8010 bound_to 7997
  139.6343  144.7118  151.2366 H   0  0  0  0  0  0  0  0  0  0  0  0  # atno 10167 bound_to 10162
  156.6035  130.4830  149.6230 H   0  0  0  0  0  0  0  0  0  0  0  0  # atno 10718 bound_to 10713
  154.7342  135.3053  154.8839 H   0  0  0  0  0  0  0  0  0  0  0  0  # atno 10763 bound_to 10752
  153.9673  135.6746  153.4750 H   0  0  0  0  0  0  0  0  0  0  0  0  # atno 10764 bound_to 10752
  153.0947  135.4942  154.8678 H   0  0  0  0  0  0  0  0  0  0  0  0  # atno 10765 bound_to 10752
  139.9805  134.6752  156.0272 H   0  0  0  0  0  0  0  0  0  0  0  0  # atno 11005 bound_to 11000
  146.3204  139.8088  142.8950 LP  0  0  0  0  0  0  0  0  0  0  0  0  # atno 17320 bound_to 7965
  145.3297  141.0263  143.3453 LP  0  0  0  0  0  0  0  0  0  0  0  0  # atno 17321 bound_to 7965
  140.7457  143.6423  150.8323 LP  0  0  0  0  0  0  0  0  0  0  0  0  # atno 17342 bound_to 10162
  140.0053  143.5701  152.2860 LP  0  0  0  0  0  0  0  0  0  0  0  0  # atno 17343 bound_to 10162
  156.2449  130.6873  151.1591 LP  0  0  0  0  0  0  0  0  0  0  0  0  # atno 17370 bound_to 10713
  157.7273  131.0640  150.5870 LP  0  0  0  0  0  0  0  0  0  0  0  0  # atno 17371 bound_to 10713
  141.1477  133.6553  156.3918 LP  0  0  0  0  0  0  0  0  0  0  0  0  # atno 17394 bound_to 11000
  140.5107  134.6398  157.5283 LP  0  0  0  0  0  0  0  0  0  0  0  0  # atno 17395 bound_to 11000

$$$$
