AV-unprocessed.smi:275|AV-procd|sdf|2067|dock6
  -GOLD-   2262021323D 1   1.00000     0.00000
 Structure written by MMmdl.
 65 69  0  0  0  0  0  0  0  0  1 V2000
  148.5956  143.6562  158.9746 C   0  0  0  0  0  0  0  0  0  0  0  0
  148.6224  142.4617  158.0101 C   0  0  0  0  0  0  0  0  0  0  0  0
  147.2278  141.7980  157.9648 C   0  0  0  0  0  0  0  0  0  0  0  0
  149.8232  141.5243  158.3080 C   0  0  1  0  0  0  0  0  0  0  0  0
  149.9418  140.4698  157.2979 N   0  0  0  0  0  0  0  0  0  0  0  0
  150.0830  139.1243  157.7742 C   0  0  0  0  0  0  0  0  0  0  0  0
  150.2039  138.9146  159.1137 N   0  0  0  0  0  0  0  0  0  0  0  0
  150.3451  137.6885  159.6225 C   0  0  0  0  0  0  0  0  0  0  0  0
  150.4074  136.5246  158.9792 N   0  0  0  0  0  0  0  0  0  0  0  0
  150.3215  136.7094  157.6328 C   0  0  0  0  0  0  0  0  0  0  0  0
  150.1687  137.9556  156.9560 C   0  0  0  0  0  0  0  0  0  0  0  0
  150.1397  137.7308  155.5837 N   0  0  0  0  0  0  0  0  0  0  0  0
  150.2529  136.4378  155.4581 C   0  0  0  0  0  0  0  0  0  0  0  0
  150.3575  135.7455  156.6406 N   0  0  0  0  0  0  0  0  0  0  0  0
  150.4889  134.3068  156.7927 C   0  0  0  0  0  0  0  0  0  0  0  0
  150.1138  133.5217  155.5110 C   0  0  2  0  0  0  0  0  0  0  0  0
  148.7195  133.9071  154.9585 C   0  0  0  0  0  0  0  0  0  0  0  0
  148.6411  133.7023  153.5627 O   0  0  0  0  0  0  0  0  0  0  0  0
  150.2633  131.9931  155.7175 C   0  0  1  0  0  0  0  0  0  0  0  0
  150.0358  131.1532  154.4728 C   0  0  0  0  0  0  0  0  0  0  0  0
  150.6939  129.8311  154.8523 C   0  0  0  0  0  0  0  0  0  0  0  0
  151.7790  130.1735  155.7068 O   0  0  0  0  0  0  0  0  0  0  0  0
  151.6733  131.5361  156.1067 C   0  0  0  0  0  0  0  0  0  0  0  0
  151.1358  141.0798  156.7148 C   0  0  0  0  0  0  0  0  0  0  0  0
  151.3002  141.8951  158.0046 C   0  0  0  0  0  0  0  0  0  0  0  0
  152.3455  141.3219  158.9880 C   0  0  0  0  0  0  0  0  0  0  0  0
  152.3715  142.0515  160.3416 C   0  0  0  0  0  0  0  0  0  0  0  0
  152.6599  143.5450  160.1551 C   0  0  0  0  0  0  0  0  0  0  0  0
  151.6845  144.1697  159.1516 C   0  0  0  0  0  0  0  0  0  0  0  0
  151.6641  143.3839  157.8277 C   0  0  0  0  0  0  0  0  0  0  0  0
  148.4144  143.3319  159.9997 H   0  0  0  0  0  0  0  0  0  0  0  0
  147.8085  144.3615  158.7070 H   0  0  0  0  0  0  0  0  0  0  0  0
  149.5402  144.2002  158.9559 H   0  0  0  0  0  0  0  0  0  0  0  0
  148.7827  142.8936  157.0232 H   0  0  0  0  0  0  0  0  0  0  0  0
  146.9389  141.4013  158.9385 H   0  0  0  0  0  0  0  0  0  0  0  0
  147.1700  140.9842  157.2460 H   0  0  0  0  0  0  0  0  0  0  0  0
  146.4671  142.5240  157.6773 H   0  0  0  0  0  0  0  0  0  0  0  0
  149.7751  141.1376  159.3247 H   0  0  0  0  0  0  0  0  0  0  0  0
  150.4194  137.6334  160.6985 H   0  0  0  0  0  0  0  0  0  0  0  0
  150.2589  135.9499  154.4943 H   0  0  0  0  0  0  0  0  0  0  0  0
  151.5198  134.1013  157.0813 H   0  0  0  0  0  0  0  0  0  0  0  0
  149.8674  133.9840  157.6287 H   0  0  0  0  0  0  0  0  0  0  0  0
  150.8342  133.8121  154.7449 H   0  0  0  0  0  0  0  0  0  0  0  0
  147.9320  133.3282  155.4410 H   0  0  0  0  0  0  0  0  0  0  0  0
  148.4928  134.9518  155.1707 H   0  0  0  0  0  0  0  0  0  0  0  0
  148.7069  134.5405  153.1312 H   0  0  0  0  0  0  0  0  0  0  0  0
  149.5688  131.6585  156.4903 H   0  0  0  0  0  0  0  0  0  0  0  0
  148.9821  131.0340  154.2189 H   0  0  0  0  0  0  0  0  0  0  0  0
  150.5476  131.5934  153.6156 H   0  0  0  0  0  0  0  0  0  0  0  0
  149.9962  129.2056  155.4104 H   0  0  0  0  0  0  0  0  0  0  0  0
  151.0331  129.2685  153.9822 H   0  0  0  0  0  0  0  0  0  0  0  0
  152.4292  132.1085  155.5669 H   0  0  0  0  0  0  0  0  0  0  0  0
  151.8673  131.6456  157.1740 H   0  0  0  0  0  0  0  0  0  0  0  0
  151.9792  140.4242  156.4983 H   0  0  0  0  0  0  0  0  0  0  0  0
  150.8900  141.6907  155.8467 H   0  0  0  0  0  0  0  0  0  0  0  0
  152.1629  140.2633  159.1730 H   0  0  0  0  0  0  0  0  0  0  0  0
  153.3394  141.3664  158.5406 H   0  0  0  0  0  0  0  0  0  0  0  0
  151.4153  141.9223  160.8497 H   0  0  0  0  0  0  0  0  0  0  0  0
  153.1272  141.6071  160.9897 H   0  0  0  0  0  0  0  0  0  0  0  0
  152.5993  144.0635  161.1124 H   0  0  0  0  0  0  0  0  0  0  0  0
  153.6816  143.6746  159.7957 H   0  0  0  0  0  0  0  0  0  0  0  0
  150.6860  144.1948  159.5869 H   0  0  0  0  0  0  0  0  0  0  0  0
  151.9630  145.2070  158.9634 H   0  0  0  0  0  0  0  0  0  0  0  0
  152.6439  143.4669  157.3555 H   0  0  0  0  0  0  0  0  0  0  0  0
  150.9813  143.8789  157.1416 H   0  0  0  0  0  0  0  0  0  0  0  0
  1  2  1  0  0  0  0
  1 31  1  0  0  0  0
  1 32  1  0  0  0  0
  1 33  1  0  0  0  0
  2  3  1  0  0  0  0
  2  4  1  0  0  0  0
  2 34  1  0  0  0  0
  3 35  1  0  0  0  0
  3 36  1  0  0  0  0
  3 37  1  0  0  0  0
  4 25  1  0  0  0  0
  4  5  1  0  0  0  0
  4 38  1  0  0  0  0
  5  6  1  0  0  0  0
  5 24  1  0  0  0  0
  6 11  1  0  0  0  0
  6  7  2  0  0  0  0
  7  8  1  0  0  0  0
  8  9  2  0  0  0  0
  8 39  1  0  0  0  0
  9 10  1  0  0  0  0
 10 14  1  0  0  0  0
 10 11  2  0  0  0  0
 11 12  1  0  0  0  0
 12 13  2  0  0  0  0
 13 14  1  0  0  0  0
 13 40  1  0  0  0  0
 14 15  1  0  0  0  0
 15 16  1  0  0  0  0
 15 41  1  0  0  0  0
 15 42  1  0  0  0  0
 16 17  1  0  0  0  0
 16 19  1  0  0  0  0
 16 43  1  0  0  0  0
 17 18  1  0  0  0  0
 17 44  1  0  0  0  0
 17 45  1  0  0  0  0
 18 46  1  0  0  0  0
 19 23  1  0  0  0  0
 19 20  1  0  0  0  0
 19 47  1  0  0  0  0
 20 21  1  0  0  0  0
 20 48  1  0  0  0  0
 20 49  1  0  0  0  0
 21 22  1  0  0  0  0
 21 50  1  0  0  0  0
 21 51  1  0  0  0  0
 22 23  1  0  0  0  0
 23 52  1  0  0  0  0
 23 53  1  0  0  0  0
 24 25  1  0  0  0  0
 24 54  1  0  0  0  0
 24 55  1  0  0  0  0
 25 30  1  0  0  0  0
 25 26  1  0  0  0  0
 26 27  1  0  0  0  0
 26 56  1  0  0  0  0
 26 57  1  0  0  0  0
 27 28  1  0  0  0  0
 27 58  1  0  0  0  0
 27 59  1  0  0  0  0
 28 29  1  0  0  0  0
 28 60  1  0  0  0  0
 28 61  1  0  0  0  0
 29 30  1  0  0  0  0
 29 62  1  0  0  0  0
 29 63  1  0  0  0  0
 30 64  1  0  0  0  0
 30 65  1  0  0  0  0
M  END
> <s_m_source_file>
AV-unprocessed.smi

> <i_m_source_file_index>
275

> <i_lp_mmshare_version>
43012

> <i_f3d_flags>
0

> <s_epik_input>
W0NIMl0xW0NIMl1bQ0gyXVtDSDJdW0NIMl1DMTJbQ0BIXShbQ0hdKFtDSDNdKVtDSDNdKU4oW0NIMl0yKWMobltjSF1uMyljKGMzNCluW2NIXW40W0NIMl1bQ0BIXShbQ0gyXVtPSF0pW0NAQEhdNVtDSDJdW0NIMl1PW0NIMl01

> <s_epik_cmdline>
J2VwaWtfcHl0aG9uJywgJy1waCcsICc3LjAnLCAnLXRuJywgJzgnLCAnLW1hJywgJzIwMCcsICctbWV0YWxfYmluZGluZycsICctaW1hZScsICc8aW5maWxlLm1hZT4nLCAnLW9tYWUnLCAnPG91dGZpbGUubWFlPic=

> <r_lp_tautomer_probability>
1

> <r_epik_Ionization_Penalty>
0.00375122

> <r_epik_Ionization_Penalty_Charging>
0

> <r_epik_Ionization_Penalty_Neutral>
0.00375122

> <r_epik_State_Penalty>
0.00260593

> <r_epik_Charging_Adjusted_Penalty>
0.00260593

> <i_epik_Tot_Q>
0

> <i_epik_Tot_abs_Q>
0

> <r_epik_Metal_State_Penalty>
-0

> <b_epik_Metal_Only>
0

> <s_lp_Force_Field>
OPLS_2005

> <r_lp_Energy>
69.8585

> <b_lp_Chiralities_Consistent>
1

> <s_lp_Variant>
AV-unprocessed.smi:275-6

> <Gold.Version>
5.8.1

> <Gold.Id.Protein>
6NUR|6NUR_protein|mol2

> <Gold.PLP.Fitness>
52.1150

> <Gold.PLP.PLP>
-44.3784

> <Gold.PLP.part.hbond>
-2.5294

> <Gold.PLP.part.metal>
0.0000

> <Gold.PLP.part.buried>
-5.3045

> <Gold.PLP.part.nonpolar>
-37.2179

> <Gold.PLP.part.repulsive>
0.1517

> <Gold.PLP.ligand.clash>
0.0000

> <Gold.PLP.ligand.torsion>
0.8378

> <Gold.PLP.Chemscore.Hbond>
2.0000

> <Gold.PLP.Chemscore.CHOScore>
0.9778

> <Gold.PLP.Chemscore.Metal>
0.0000

> <Gold.Chemscore.Hbonds>
donor molecule, donor type, donor heavy atom, donor atom, acceptor molecule, acceptor atom, score
      L1  H    18    46       P1  7948  0.78
      P1  H  6896  6909       L1     9  0.96
      L1  C    13    40       P1  7948  0.04

> <Gold.PLP.Chemscore.Internal.Correction>
0.4786

> <Gold.Rescore>
     Score         DG    S(hbond)    S(metal)    S(lipo)     H(rot)  DE(clash)    DE(int)     intcor
     15.00     -17.90       1.67        0.00     114.12       2.54       1.83       1.07       ----

> <Gold.Chemscore.Fitness>
14.9991

> <Gold.Chemscore.DG>
-17.9007

> <Gold.Chemscore.ZeroCoef>
-5.4800

> <Gold.Chemscore.Hbond>
1.6662

> <Gold.Chemscore.Metal>
0.0000

> <Gold.Chemscore.Lipo>
114.1213

> <Gold.Chemscore.Internal_Hbond>
0.0000

> <Gold.Chemscore.DEClash>
1.8281

> <Gold.Chemscore.DEInternal>
1.0735

> <Gold.Chemscore.Rot>
2.5377

> <Gold.Chemscore.Internal.Correction>
   9.000000E+99

> <Gold.Chemscore.Hbonds>
donor molecule, donor type, donor heavy atom, donor atom, acceptor molecule, acceptor atom, score
      L1  H    18    46       P1  7948  0.15
      P1  H  6896  6909       L1     9  0.90

> <Gold.Chemscore.Hbond.Weighted>
-5.5651

> <Gold.Chemscore.Metal.Weighted>
-0.0000

> <Gold.Chemscore.Lipo.Weighted>
-13.3522

> <Gold.Chemscore.Internal_Hbond.Weighted>
0.0000

> <Gold.Chemscore.DEClash.Weighted>
1.8281

> <Gold.Chemscore.DEInternal.Weighted>
1.0735

> <Gold.Chemscore.Rot.Weighted>
6.4966

> <Gold.Chemscore.Internal.Correction.Weighted>
   9.000000E+99

> <Gold.Protein.RotatedTorsions>
[ 6907 6896 6895 6894 ] final   65.66 input  -60.11 | X-H torsion
[ 7974 7965 7964 7962 ] final -135.32 input  175.53 | X-H torsion
[ 8008 7997 7996 7995 ] final -147.69 input   59.86 | X-H torsion
[ 10167 10162 10161 10158 ] final -179.28 input  -65.29 | X-H torsion
[ 10718 10713 10712 10709 ] final   31.15 input   66.30 | X-H torsion
[ 10763 10752 10751 10750 ] final -105.83 input  -60.55 | X-H torsion
[ 11005 11000 10999 10996 ] final   66.74 input  -57.11 | X-H torsion

> <Gold.Protein.ActiveResidues>
 VAL166  LYS551  ARG553  GLY616  TRP617  ASP618  TYR619  PRO620  LYS621  CYS622 
 ASP623  PHE694  ASN695  SER759  ASP760  ASP761  ALA762  ILE779  LEU786  VAL792 
 PHE793  MET794  SER795  GLU796  ALA797  LYS798  CYS799  TRP800  GLU811  SER814 

> <Gold.Protein.RotatedAtoms>
  152.4424  134.5564  159.9881 H   0  0  0  0  0  0  0  0  0  0  0  0  # atno 6907 bound_to 6896
  151.5658  133.3391  159.2988 H   0  0  0  0  0  0  0  0  0  0  0  0  # atno 6908 bound_to 6896
  150.8333  134.7629  159.6935 H   0  0  0  0  0  0  0  0  0  0  0  0  # atno 6909 bound_to 6896
  144.9024  140.6789  143.5076 H   0  0  0  0  0  0  0  0  0  0  0  0  # atno 7974 bound_to 7965
  155.5796  140.0642  157.2786 H   0  0  0  0  0  0  0  0  0  0  0  0  # atno 8008 bound_to 7997
  154.4336  140.1854  156.1009 H   0  0  0  0  0  0  0  0  0  0  0  0  # atno 8009 bound_to 7997
  156.0315  140.3306  155.7148 H   0  0  0  0  0  0  0  0  0  0  0  0  # atno 8010 bound_to 7997
  139.5393  144.2408  152.0862 H   0  0  0  0  0  0  0  0  0  0  0  0  # atno 10167 bound_to 10162
  157.2687  130.7197  149.6493 H   0  0  0  0  0  0  0  0  0  0  0  0  # atno 10718 bound_to 10713
  154.7973  135.4734  154.0190 H   0  0  0  0  0  0  0  0  0  0  0  0  # atno 10763 bound_to 10752
  153.1723  135.6827  153.8597 H   0  0  0  0  0  0  0  0  0  0  0  0  # atno 10764 bound_to 10752
  153.8175  135.3208  155.3385 H   0  0  0  0  0  0  0  0  0  0  0  0  # atno 10765 bound_to 10752
  139.9813  134.6739  156.0257 H   0  0  0  0  0  0  0  0  0  0  0  0  # atno 11005 bound_to 11000
  145.3593  139.1686  143.4392 LP  0  0  0  0  0  0  0  0  0  0  0  0  # atno 17320 bound_to 7965
  146.3116  140.3653  142.8669 LP  0  0  0  0  0  0  0  0  0  0  0  0  # atno 17321 bound_to 7965
  140.1883  144.4776  150.6492 LP  0  0  0  0  0  0  0  0  0  0  0  0  # atno 17342 bound_to 10162
  140.6615  143.2254  151.5843 LP  0  0  0  0  0  0  0  0  0  0  0  0  # atno 17343 bound_to 10162
  155.9663  130.4374  150.5175 LP  0  0  0  0  0  0  0  0  0  0  0  0  # atno 17370 bound_to 10713
  157.3095  131.0661  151.2011 LP  0  0  0  0  0  0  0  0  0  0  0  0  # atno 17371 bound_to 10713
  141.1485  133.6552  156.3940 LP  0  0  0  0  0  0  0  0  0  0  0  0  # atno 17394 bound_to 11000
  140.5090  134.6413  157.5277 LP  0  0  0  0  0  0  0  0  0  0  0  0  # atno 17395 bound_to 11000

$$$$
