AV-unprocessed.smi:3330|AV-procd|sdf|12816|dock2
  -GOLD-   2272019183D 1   1.00000     0.00000
 Structure written by MMmdl.
 37 38  0  0  0  0  0  0  0  0  2 V2000
  154.2575  140.5083  160.5244 C   0  0  0  0  0  0  0  0  0  0  0  0
  153.1938  141.4086  159.8663 C   0  0  1  0  0  0  0  0  0  0  0  0
  152.2080  140.5639  159.1979 N   0  0  0  0  0  0  0  0  0  0  0  0
  152.8290  139.6114  158.2888 C   0  0  0  0  0  0  0  0  0  0  0  0
  151.7400  138.8566  157.5070 C   0  0  0  0  0  0  0  0  0  0  0  0
  151.1989  139.6624  156.4042 N   0  0  0  0  0  0  0  0  0  0  0  0
  150.6441  140.8700  156.5499 C   0  0  0  0  0  0  0  0  0  0  0  0
  150.4954  141.5151  157.5881 O   0  0  0  0  0  0  0  0  0  0  0  0
  150.2214  141.3461  155.1797 C   0  0  0  0  0  0  0  0  0  0  0  0
  150.6459  140.2578  154.3296 N   0  5  0  0  0  0  0  0  0  0  0  0
  151.2104  139.3031  155.1058 C   0  0  0  0  0  0  0  0  0  0  0  0
  151.6870  138.2342  154.7247 O   0  0  0  0  0  0  0  0  0  0  0  0
  152.4522  142.3174  160.8846 C   0  0  1  0  0  0  0  0  0  0  0  0
  153.3162  142.6791  162.1072 C   0  0  0  0  0  0  0  0  0  0  0  0
  151.9566  143.5389  160.2565 N   0  0  0  0  0  0  0  0  0  0  0  0
  152.2830  144.8446  160.5601 C   0  0  0  0  0  0  0  0  0  0  0  0
  151.5701  145.6504  159.7199 C   0  0  0  0  0  0  0  0  0  0  0  0
  150.8226  144.7355  158.9274 C   0  0  0  0  0  0  0  0  0  0  0  0
  151.0608  143.4738  159.2450 N   0  0  0  0  0  0  0  0  0  0  0  0
  155.0523  141.0979  160.9802 H   0  0  0  0  0  0  0  0  0  0  0  0
  154.7374  139.8513  159.7996 H   0  0  0  0  0  0  0  0  0  0  0  0
  153.8203  139.8811  161.3018 H   0  0  0  0  0  0  0  0  0  0  0  0
  153.6761  142.0518  159.1285 H   0  0  0  0  0  0  0  0  0  0  0  0
  151.6041  141.1606  158.6493 H   0  0  0  0  0  0  0  0  0  0  0  0
  153.4990  140.1184  157.5932 H   0  0  0  0  0  0  0  0  0  0  0  0
  153.4308  138.9054  158.8609 H   0  0  0  0  0  0  0  0  0  0  0  0
  152.1665  137.9404  157.0959 H   0  0  0  0  0  0  0  0  0  0  0  0
  150.9442  138.5273  158.1775 H   0  0  0  0  0  0  0  0  0  0  0  0
  149.1436  141.5107  155.1615 H   0  0  0  0  0  0  0  0  0  0  0  0
  150.7095  142.2918  154.9443 H   0  0  0  0  0  0  0  0  0  0  0  0
  151.5792  141.7749  161.2513 H   0  0  0  0  0  0  0  0  0  0  0  0
  153.5596  141.8002  162.7031 H   0  0  0  0  0  0  0  0  0  0  0  0
  152.7910  143.3732  162.7640 H   0  0  0  0  0  0  0  0  0  0  0  0
  154.2530  143.1502  161.8080 H   0  0  0  0  0  0  0  0  0  0  0  0
  152.9834  145.0896  161.3448 H   0  0  0  0  0  0  0  0  0  0  0  0
  151.5746  146.7295  159.6827 H   0  0  0  0  0  0  0  0  0  0  0  0
  150.1182  144.9492  158.1371 H   0  0  0  0  0  0  0  0  0  0  0  0
  1  2  1  0  0  0  0
  1 20  1  0  0  0  0
  1 21  1  0  0  0  0
  1 22  1  0  0  0  0
  2  3  1  0  0  0  0
  2 13  1  0  0  0  0
  2 23  1  0  0  0  0
  3  4  1  0  0  0  0
  3 24  1  0  0  0  0
  4  5  1  0  0  0  0
  4 25  1  0  0  0  0
  4 26  1  0  0  0  0
  5  6  1  0  0  0  0
  5 27  1  0  0  0  0
  5 28  1  0  0  0  0
  6 11  1  0  0  0  0
  6  7  1  0  0  0  0
  7  8  2  0  0  0  0
  7  9  1  0  0  0  0
  9 10  1  0  0  0  0
  9 29  1  0  0  0  0
  9 30  1  0  0  0  0
 10 11  1  0  0  0  0
 11 12  2  0  0  0  0
 13 14  1  0  0  0  0
 13 15  1  0  0  0  0
 13 31  1  0  0  0  0
 14 32  1  0  0  0  0
 14 33  1  0  0  0  0
 14 34  1  0  0  0  0
 15 19  1  0  0  0  0
 15 16  1  0  0  0  0
 16 17  2  0  0  0  0
 16 35  1  0  0  0  0
 17 18  1  0  0  0  0
 17 36  1  0  0  0  0
 18 19  2  0  0  0  0
 18 37  1  0  0  0  0
M  CHG  1  10  -1
M  END
> <s_m_source_file>
AV-unprocessed.smi

> <i_m_source_file_index>
3330

> <i_lp_mmshare_version>
43012

> <i_f3d_flags>
0

> <s_epik_input>
bjFbY0hdW2NIXVtjSF1uMVtDQEBIXShbQ0gzXSlbQ0BIXShbQ0gzXSlbTkhdW0NIMl1bQ0gyXU4yQyg9TylbQ0gyXVtOSF1DMj1P

> <s_epik_cmdline>
J2VwaWtfcHl0aG9uJywgJy1waCcsICc3LjAnLCAnLXRuJywgJzgnLCAnLW1hJywgJzIwMCcsICctbWV0YWxfYmluZGluZycsICctaW1hZScsICc8aW5maWxlLm1hZT4nLCAnLW9tYWUnLCAnPG91dGZpbGUubWFlPic=

> <r_lp_tautomer_probability>
1

> <r_epik_Ionization_Penalty>
8.77477

> <r_epik_Ionization_Penalty_Charging>
6.28461

> <r_epik_Ionization_Penalty_Neutral>
2.49016

> <r_epik_State_Penalty>
8.73376

> <r_epik_Charging_Adjusted_Penalty>
15.0184

> <i_epik_Tot_Q>
-1

> <i_epik_Tot_abs_Q>
1

> <r_epik_Metal_State_Penalty>
4.73175

> <b_epik_Metal_Only>
1

> <s_lp_Force_Field>
OPLS_2005

> <r_lp_Energy>
23.0712

> <b_lp_Chiralities_Consistent>
1

> <s_lp_Variant>
AV-unprocessed.smi:3330-16

> <Gold.Version>
5.8.1

> <Gold.Id.Protein>
6NUR|6NUR_protein|mol2

> <Gold.PLP.Fitness>
45.7155

> <Gold.PLP.PLP>
-41.0959

> <Gold.PLP.part.hbond>
-1.0000

> <Gold.PLP.part.metal>
0.0000

> <Gold.PLP.part.buried>
-5.1850

> <Gold.PLP.part.nonpolar>
-33.1482

> <Gold.PLP.part.repulsive>
0.3002

> <Gold.PLP.ligand.clash>
0.0000

> <Gold.PLP.ligand.torsion>
0.8586

> <Gold.PLP.Chemscore.Hbond>
1.0000

> <Gold.PLP.Chemscore.CHOScore>
1.0794

> <Gold.PLP.Chemscore.Metal>
0.0000

> <Gold.Chemscore.Hbonds>
donor molecule, donor type, donor heavy atom, donor atom, acceptor molecule, acceptor atom, score
      P1  H  7989  7998       L1    10  0.73
      L1  C    18    37       P1  8028  0.21
      L1  C    18    37       P1  8029  0.72

> <Gold.PLP.Chemscore.Internal.Correction>
0.0986

> <Gold.Rescore>
     Score         DG    S(hbond)    S(metal)    S(lipo)     H(rot)  DE(clash)    DE(int)     intcor
      8.57     -12.55       0.82        0.00      92.15       2.52       0.01       3.97       ----

> <Gold.Chemscore.Fitness>
8.5712

> <Gold.Chemscore.DG>
-12.5540

> <Gold.Chemscore.ZeroCoef>
-5.4800

> <Gold.Chemscore.Hbond>
0.8185

> <Gold.Chemscore.Metal>
0.0000

> <Gold.Chemscore.Lipo>
92.1462

> <Gold.Chemscore.Internal_Hbond>
0.0000

> <Gold.Chemscore.DEClash>
0.0115

> <Gold.Chemscore.DEInternal>
3.9713

> <Gold.Chemscore.Rot>
2.5160

> <Gold.Chemscore.Internal.Correction>
   9.000000E+99

> <Gold.Chemscore.Hbonds>
donor molecule, donor type, donor heavy atom, donor atom, acceptor molecule, acceptor atom, score
      P1  H  7989  7998       L1    10  0.23

> <Gold.Chemscore.Hbond.Weighted>
-2.7339

> <Gold.Chemscore.Metal.Weighted>
-0.0000

> <Gold.Chemscore.Lipo.Weighted>
-10.7811

> <Gold.Chemscore.Internal_Hbond.Weighted>
0.0000

> <Gold.Chemscore.DEClash.Weighted>
0.0115

> <Gold.Chemscore.DEInternal.Weighted>
3.9713

> <Gold.Chemscore.Rot.Weighted>
6.4410

> <Gold.Chemscore.Internal.Correction.Weighted>
   9.000000E+99

> <Gold.Protein.RotatedTorsions>
[ 6907 6896 6895 6894 ] final  155.75 input  -60.11 | X-H torsion
[ 7974 7965 7964 7962 ] final  -84.13 input  175.53 | X-H torsion
[ 8008 7997 7996 7995 ] final  -13.77 input   59.86 | X-H torsion
[ 10167 10162 10161 10158 ] final   12.52 input  -65.29 | X-H torsion
[ 10718 10713 10712 10709 ] final   83.55 input   66.30 | X-H torsion
[ 10763 10752 10751 10750 ] final  142.12 input  -60.55 | X-H torsion
[ 11005 11000 10999 10996 ] final -139.88 input  -57.11 | X-H torsion

> <Gold.Protein.ActiveResidues>
 VAL166  LYS551  ARG553  GLY616  TRP617  ASP618  TYR619  PRO620  LYS621  CYS622 
 ASP623  PHE694  ASN695  SER759  ASP760  ASP761  ALA762  ILE779  LEU786  VAL792 
 PHE793  MET794  SER795  GLU796  ALA797  LYS798  CYS799  TRP800  GLU811  SER814 

> <Gold.Protein.RotatedAtoms>
  152.0396  133.3972  159.4331 H   0  0  0  0  0  0  0  0  0  0  0  0  # atno 6907 bound_to 6896
  150.6876  134.3429  159.4885 H   0  0  0  0  0  0  0  0  0  0  0  0  # atno 6908 bound_to 6896
  152.1226  134.9194  160.0613 H   0  0  0  0  0  0  0  0  0  0  0  0  # atno 6909 bound_to 6896
  145.5107  140.9540  143.1709 H   0  0  0  0  0  0  0  0  0  0  0  0  # atno 7974 bound_to 7965
  154.5264  140.2240  155.8882 H   0  0  0  0  0  0  0  0  0  0  0  0  # atno 8008 bound_to 7997
  156.1718  140.3120  155.8952 H   0  0  0  0  0  0  0  0  0  0  0  0  # atno 8009 bound_to 7997
  155.3542  140.0457  157.3037 H   0  0  0  0  0  0  0  0  0  0  0  0  # atno 8010 bound_to 7997
  140.6063  143.8502  150.7017 H   0  0  0  0  0  0  0  0  0  0  0  0  # atno 10167 bound_to 10162
  157.6881  131.0095  150.2540 H   0  0  0  0  0  0  0  0  0  0  0  0  # atno 10718 bound_to 10713
  153.9505  135.2970  155.3439 H   0  0  0  0  0  0  0  0  0  0  0  0  # atno 10763 bound_to 10752
  154.7429  135.5016  153.9156 H   0  0  0  0  0  0  0  0  0  0  0  0  # atno 10764 bound_to 10752
  153.0996  135.6731  153.9805 H   0  0  0  0  0  0  0  0  0  0  0  0  # atno 10765 bound_to 10752
  140.8477  134.2324  157.4777 H   0  0  0  0  0  0  0  0  0  0  0  0  # atno 11005 bound_to 11000
  144.7729  139.6695  143.7187 LP  0  0  0  0  0  0  0  0  0  0  0  0  # atno 17320 bound_to 7965
  146.2168  139.5564  142.9644 LP  0  0  0  0  0  0  0  0  0  0  0  0  # atno 17321 bound_to 7965
  140.2060  143.3921  152.1755 LP  0  0  0  0  0  0  0  0  0  0  0  0  # atno 17342 bound_to 10162
  139.5327  144.7177  151.5000 LP  0  0  0  0  0  0  0  0  0  0  0  0  # atno 17343 bound_to 10162
  156.3131  130.3775  149.7643 LP  0  0  0  0  0  0  0  0  0  0  0  0  # atno 17370 bound_to 10713
  156.5237  130.8226  151.3212 LP  0  0  0  0  0  0  0  0  0  0  0  0  # atno 17371 bound_to 10713
  139.8703  134.9667  156.4573 LP  0  0  0  0  0  0  0  0  0  0  0  0  # atno 17394 bound_to 11000
  140.8825  133.7907  155.9482 LP  0  0  0  0  0  0  0  0  0  0  0  0  # atno 17395 bound_to 11000

$$$$
