AV-unprocessed.smi:3243|AV-procd|sdf|12396|dock6
  -GOLD-   2272018263D 1   1.00000     0.00000
 Structure written by MMmdl.
 37 38  0  0  0  0  0  0  0  0  1 V2000
  153.4302  140.9916  160.7540 C   0  0  0  0  0  0  0  0  0  0  0  0
  153.1643  142.5004  160.8571 C   0  0  0  0  0  0  0  0  0  0  0  0
  152.4826  142.9038  162.1726 C   0  0  0  0  0  0  0  0  0  0  0  0
  152.4351  143.0264  159.6608 C   0  0  0  0  0  0  0  0  0  0  0  0
  151.9952  142.2555  158.6616 N   0  0  0  0  0  0  0  0  0  0  0  0
  151.3486  142.9846  157.6593 C   0  0  0  0  0  0  0  0  0  0  0  0
  150.8020  142.2782  156.4562 C   0  0  0  0  0  0  0  0  0  0  0  0
  149.6989  141.2732  156.8271 C   0  0  0  0  0  0  0  0  0  0  0  0
  149.7932  140.0529  156.0345 N   0  0  0  0  0  0  0  0  0  0  0  0
  149.8722  140.0063  154.6958 C   0  0  0  0  0  0  0  0  0  0  0  0
  149.8422  141.0082  153.9816 O   0  0  0  0  0  0  0  0  0  0  0  0
  149.9323  138.6264  154.1330 C   0  0  2  0  0  0  0  0  0  0  0  0
  150.0432  137.4623  155.0968 C   0  0  0  0  0  0  0  0  0  0  0  0
  151.2314  137.8385  154.2463 C   0  0  2  0  0  0  0  0  0  0  0  0
  152.4952  138.3644  154.9040 C   0  0  0  0  0  0  0  0  0  0  0  0
  151.3007  144.3322  157.9163 C   0  0  0  0  0  0  0  0  0  0  0  0
  152.0690  144.7326  159.4277 S   0  0  0  0  0  0  0  0  0  0  0  0
  153.9867  140.7526  159.8473 H   0  0  0  0  0  0  0  0  0  0  0  0
  152.4983  140.4253  160.7324 H   0  0  0  0  0  0  0  0  0  0  0  0
  154.0144  140.6369  161.6035 H   0  0  0  0  0  0  0  0  0  0  0  0
  154.1419  142.9841  160.8572 H   0  0  0  0  0  0  0  0  0  0  0  0
  152.3884  143.9875  162.2486 H   0  0  0  0  0  0  0  0  0  0  0  0
  153.0567  142.5610  163.0339 H   0  0  0  0  0  0  0  0  0  0  0  0
  151.4823  142.4761  162.2487 H   0  0  0  0  0  0  0  0  0  0  0  0
  150.4115  143.0094  155.7470 H   0  0  0  0  0  0  0  0  0  0  0  0
  151.6062  141.7578  155.9343 H   0  0  0  0  0  0  0  0  0  0  0  0
  149.7869  140.9989  157.8787 H   0  0  0  0  0  0  0  0  0  0  0  0
  148.7120  141.7232  156.7053 H   0  0  0  0  0  0  0  0  0  0  0  0
  149.8022  139.1790  156.5404 H   0  0  0  0  0  0  0  0  0  0  0  0
  149.3741  138.4763  153.2111 H   0  0  0  0  0  0  0  0  0  0  0  0
  150.0979  137.6791  156.1625 H   0  0  0  0  0  0  0  0  0  0  0  0
  149.4991  136.5555  154.8410 H   0  0  0  0  0  0  0  0  0  0  0  0
  151.4414  137.1936  153.3949 H   0  0  0  0  0  0  0  0  0  0  0  0
  152.2688  138.9106  155.8203 H   0  0  0  0  0  0  0  0  0  0  0  0
  153.0231  139.0304  154.2213 H   0  0  0  0  0  0  0  0  0  0  0  0
  153.1553  137.5344  155.1562 H   0  0  0  0  0  0  0  0  0  0  0  0
  150.8640  145.1114  157.3094 H   0  0  0  0  0  0  0  0  0  0  0  0
  1  2  1  0  0  0  0
  1 18  1  0  0  0  0
  1 19  1  0  0  0  0
  1 20  1  0  0  0  0
  2  3  1  0  0  0  0
  2  4  1  0  0  0  0
  2 21  1  0  0  0  0
  3 22  1  0  0  0  0
  3 23  1  0  0  0  0
  3 24  1  0  0  0  0
  4 17  1  0  0  0  0
  4  5  2  0  0  0  0
  5  6  1  0  0  0  0
  6  7  1  0  0  0  0
  6 16  2  0  0  0  0
  7  8  1  0  0  0  0
  7 25  1  0  0  0  0
  7 26  1  0  0  0  0
  8  9  1  0  0  0  0
  8 27  1  0  0  0  0
  8 28  1  0  0  0  0
  9 10  1  0  0  0  0
  9 29  1  0  0  0  0
 10 11  2  0  0  0  0
 10 12  1  0  0  0  0
 12 14  1  0  0  0  0
 12 13  1  0  0  0  0
 12 30  1  0  0  0  0
 13 14  1  0  0  0  0
 13 31  1  0  0  0  0
 13 32  1  0  0  0  0
 14 15  1  0  0  0  0
 14 33  1  0  0  0  0
 15 34  1  0  0  0  0
 15 35  1  0  0  0  0
 15 36  1  0  0  0  0
 16 17  1  0  0  0  0
 16 37  1  0  0  0  0
M  END
> <s_m_source_file>
AV-unprocessed.smi

> <i_m_source_file_index>
3243

> <i_lp_mmshare_version>
43012

> <i_f3d_flags>
0

> <s_epik_input>
W0NIM11bQ0hdKFtDSDNdKWMxbmMoW2NIXXMxKVtDSDJdW0NIMl1bTkhdQyg9TylbQ0BASF0yW0NIMl1bQ0BIXTJbQ0gzXQ==

> <s_epik_cmdline>
J2VwaWtfcHl0aG9uJywgJy1waCcsICc3LjAnLCAnLXRuJywgJzgnLCAnLW1hJywgJzIwMCcsICctbWV0YWxfYmluZGluZycsICctaW1hZScsICc8aW5maWxlLm1hZT4nLCAnLW9tYWUnLCAnPG91dGZpbGUubWFlPic=

> <r_epik_Ionization_Penalty>
0.00084212

> <r_epik_Ionization_Penalty_Charging>
0

> <r_epik_Ionization_Penalty_Neutral>
0.00084212

> <r_epik_State_Penalty>
0.000542609

> <r_epik_Charging_Adjusted_Penalty>
0.000542609

> <i_epik_Tot_Q>
0

> <i_epik_Tot_abs_Q>
0

> <r_epik_Metal_State_Penalty>
-0

> <b_epik_Metal_Only>
0

> <s_lp_Force_Field>
OPLS_2005

> <r_lp_Energy>
-0.500157

> <b_lp_Chiralities_Consistent>
1

> <s_lp_Variant>
AV-unprocessed.smi:3243-3

> <Gold.Version>
5.8.1

> <Gold.Id.Protein>
6NUR|6NUR_protein|mol2

> <Gold.PLP.Fitness>
49.7311

> <Gold.PLP.PLP>
-45.6098

> <Gold.PLP.part.hbond>
-2.0000

> <Gold.PLP.part.metal>
0.0000

> <Gold.PLP.part.buried>
-2.8600

> <Gold.PLP.part.nonpolar>
-40.7054

> <Gold.PLP.part.repulsive>
0.8372

> <Gold.PLP.ligand.clash>
0.0000

> <Gold.PLP.ligand.torsion>
0.5378

> <Gold.PLP.Chemscore.Hbond>
0.8029

> <Gold.PLP.Chemscore.CHOScore>
0.8740

> <Gold.PLP.Chemscore.Metal>
0.0000

> <Gold.Chemscore.Hbonds>
donor molecule, donor type, donor heavy atom, donor atom, acceptor molecule, acceptor atom, score
      P1  H  7989  7998       L1    11  0.34
      P1  H  8011  8017       L1    11  0.56
      L1  C    16    37       P1  8028  0.85

> <Gold.PLP.Chemscore.Internal.Correction>
0.1665

> <Gold.Rescore>
     Score         DG    S(hbond)    S(metal)    S(lipo)     H(rot)  DE(clash)    DE(int)     intcor
     17.20     -18.85       0.90        0.00     121.03       1.49       0.11       1.55       ----

> <Gold.Chemscore.Fitness>
17.1953

> <Gold.Chemscore.DG>
-18.8547

> <Gold.Chemscore.ZeroCoef>
-5.4800

> <Gold.Chemscore.Hbond>
0.9045

> <Gold.Chemscore.Metal>
0.0000

> <Gold.Chemscore.Lipo>
121.0295

> <Gold.Chemscore.Internal_Hbond>
0.0000

> <Gold.Chemscore.DEClash>
0.1105

> <Gold.Chemscore.DEInternal>
1.5489

> <Gold.Chemscore.Rot>
1.4870

> <Gold.Chemscore.Internal.Correction>
   9.000000E+99

> <Gold.Chemscore.Hbonds>
donor molecule, donor type, donor heavy atom, donor atom, acceptor molecule, acceptor atom, score
      P1  H  7989  7998       L1    11  0.04
      P1  H  8011  8017       L1    11  0.55

> <Gold.Chemscore.Hbond.Weighted>
-3.0209

> <Gold.Chemscore.Metal.Weighted>
-0.0000

> <Gold.Chemscore.Lipo.Weighted>
-14.1605

> <Gold.Chemscore.Internal_Hbond.Weighted>
0.0000

> <Gold.Chemscore.DEClash.Weighted>
0.1105

> <Gold.Chemscore.DEInternal.Weighted>
1.5489

> <Gold.Chemscore.Rot.Weighted>
3.8067

> <Gold.Chemscore.Internal.Correction.Weighted>
   9.000000E+99

> <Gold.Protein.RotatedTorsions>
[ 6907 6896 6895 6894 ] final   90.84 input  -60.11 | X-H torsion
[ 7974 7965 7964 7962 ] final   34.68 input  175.53 | X-H torsion
[ 8008 7997 7996 7995 ] final -170.98 input   59.86 | X-H torsion
[ 10167 10162 10161 10158 ] final -124.63 input  -65.29 | X-H torsion
[ 10718 10713 10712 10709 ] final  117.57 input   66.30 | X-H torsion
[ 10763 10752 10751 10750 ] final   46.61 input  -60.55 | X-H torsion
[ 11005 11000 10999 10996 ] final -136.51 input  -57.11 | X-H torsion

> <Gold.Protein.ActiveResidues>
 VAL166  LYS551  ARG553  GLY616  TRP617  ASP618  TYR619  PRO620  LYS621  CYS622 
 ASP623  PHE694  ASN695  SER759  ASP760  ASP761  ALA762  ILE779  LEU786  VAL792 
 PHE793  MET794  SER795  GLU796  ALA797  LYS798  CYS799  TRP800  GLU811  SER814 

> <Gold.Protein.RotatedAtoms>
  152.5447  134.1749  159.8611 H   0  0  0  0  0  0  0  0  0  0  0  0  # atno 6907 bound_to 6896
  151.1756  133.4750  159.2601 H   0  0  0  0  0  0  0  0  0  0  0  0  # atno 6908 bound_to 6896
  151.1230  135.0101  159.8603 H   0  0  0  0  0  0  0  0  0  0  0  0  # atno 6909 bound_to 6896
  146.1336  139.6238  142.9210 H   0  0  0  0  0  0  0  0  0  0  0  0  # atno 7974 bound_to 7965
  155.9256  140.1082  157.1173 H   0  0  0  0  0  0  0  0  0  0  0  0  # atno 8008 bound_to 7997
  154.4061  140.1247  156.4801 H   0  0  0  0  0  0  0  0  0  0  0  0  # atno 8009 bound_to 7997
  155.7143  140.3470  155.4990 H   0  0  0  0  0  0  0  0  0  0  0  0  # atno 8010 bound_to 7997
  139.9908  143.5643  152.2342 H   0  0  0  0  0  0  0  0  0  0  0  0  # atno 10167 bound_to 10162
  157.6088  131.1038  150.7634 H   0  0  0  0  0  0  0  0  0  0  0  0  # atno 10718 bound_to 10713
  152.9809  135.6002  154.3628 H   0  0  0  0  0  0  0  0  0  0  0  0  # atno 10763 bound_to 10752
  154.3308  135.2768  155.2474 H   0  0  0  0  0  0  0  0  0  0  0  0  # atno 10764 bound_to 10752
  154.4599  135.5968  153.6304 H   0  0  0  0  0  0  0  0  0  0  0  0  # atno 10765 bound_to 10752
  140.8799  134.1945  157.4598 H   0  0  0  0  0  0  0  0  0  0  0  0  # atno 11005 bound_to 11000
  145.5206  141.0432  143.2438 LP  0  0  0  0  0  0  0  0  0  0  0  0  # atno 17320 bound_to 7965
  144.7716  139.6722  143.7192 LP  0  0  0  0  0  0  0  0  0  0  0  0  # atno 17321 bound_to 7965
  139.6341  144.7648  151.2473 LP  0  0  0  0  0  0  0  0  0  0  0  0  # atno 17342 bound_to 10162
  140.7455  143.6428  150.8319 LP  0  0  0  0  0  0  0  0  0  0  0  0  # atno 17343 bound_to 10162
  156.8016  130.4923  149.5369 LP  0  0  0  0  0  0  0  0  0  0  0  0  # atno 17370 bound_to 10713
  156.1183  130.6091  151.0154 LP  0  0  0  0  0  0  0  0  0  0  0  0  # atno 17371 bound_to 10713
  139.8719  134.9812  156.5108 LP  0  0  0  0  0  0  0  0  0  0  0  0  # atno 17394 bound_to 11000
  140.8474  133.8158  155.9135 LP  0  0  0  0  0  0  0  0  0  0  0  0  # atno 17395 bound_to 11000

$$$$
